0
                    3D
 Structure written by MMmdl.
167176  0  0  1  0            999 V2000
  -30.6919  -14.5037   20.5468 C   0  0  0  0  0  0
  -30.4243  -12.3180   19.4318 C   0  0  0  0  0  0
  -29.4972  -12.5108   18.2124 C   0  0  0  0  0  0
  -28.0177  -12.3698   18.6214 C   0  0  0  0  0  0
  -27.6614  -13.2117   19.8761 C   0  0  2  0  0  0
  -28.7053  -13.0052   20.9994 C   0  0  0  0  0  0
  -25.2568  -13.8149   20.5664 C   0  0  0  0  0  0
  -24.1835  -13.0424   20.9185 C   0  0  0  0  0  0
  -24.6403  -11.6894   20.8751 C   0  0  0  0  0  0
  -23.9061  -10.4281   21.0420 C   0  0  0  0  0  0
  -24.3611   -9.4195   21.9197 C   0  0  0  0  0  0
  -23.6281   -8.2233   22.0760 C   0  0  0  0  0  0
  -22.4270   -8.0273   21.3536 C   0  0  0  0  0  0
  -21.9909   -9.0248   20.4636 C   0  0  0  0  0  0
  -22.7239  -10.2128   20.3055 C   0  0  0  0  0  0
  -21.6847   -6.0735   22.5281 C   0  0  0  0  0  0
  -21.4012   -6.5646   23.8214 C   0  0  0  0  0  0
  -21.3660   -5.6800   24.9177 C   0  0  0  0  0  0
  -21.6045   -4.3057   24.7227 C   0  0  0  0  0  0
  -21.8823   -3.8141   23.4351 C   0  0  0  0  0  0
  -21.9191   -4.6962   22.3408 C   0  0  0  0  0  0
  -22.7856  -13.5224   21.1839 C   0  0  0  0  0  0
  -22.1661   -4.2151   21.0986 F   0  0  0  0  0  0
  -21.5629   -3.4538   25.7735 F   0  0  0  0  0  0
  -30.0360  -13.3124   20.4459 N   0  0  0  0  0  0
  -26.3025  -12.9340   20.3373 N   0  0  0  0  0  0
  -25.9337  -11.6495   20.5788 N   0  0  0  0  0  0
  -22.0502  -12.8206   22.0387 N   0  0  0  0  0  0
  -25.4251  -15.1851   20.4003 N   0  0  0  0  0  0
  -31.8334  -14.6633   20.1057 O   0  0  0  0  0  0
  -21.6630   -6.8875   21.4238 O   0  0  0  0  0  0
  -22.3546  -14.5539   20.6696 O   0  0  0  0  0  0
  -24.6166  -31.8669   23.2084 C   0  0  0  0  0  0
  -25.9051  -32.4815   23.8387 C   0  0  1  0  0  0
  -27.2334  -27.4135   20.1029 C   0  0  0  0  0  0
  -25.5911  -33.8612   24.2326 N   0  0  0  0  0  0
  -23.4056  -30.4905   21.5493 C   0  0  2  0  0  0
  -24.8538  -28.9569   20.1119 C   0  0  0  0  0  0
  -22.7421  -29.4654   22.4969 C   0  0  0  0  0  0
  -18.0274  -28.1380   22.8495 C   0  0  0  0  0  0
  -24.1492  -36.7312   23.2635 C   0  0  0  0  0  0
  -25.9366  -30.8272   21.3637 C   0  0  0  0  0  0
  -26.0156  -29.4597   20.7112 C   0  0  0  0  0  0
  -27.2104  -28.6966   20.7031 C   0  0  0  0  0  0
  -26.0577  -26.9438   19.4744 C   0  0  0  0  0  0
  -24.8714  -27.7001   19.4863 C   0  0  0  0  0  0
  -23.6152  -29.8247   20.1639 C   0  0  0  0  0  0
  -25.4109  -36.3104   24.0337 C   0  0  1  0  0  0
  -20.5868  -28.3677   23.1317 C   0  0  2  0  0  0
  -20.6769  -26.9413   22.5416 C   0  0  0  0  0  0
  -19.5746  -26.6394   21.5217 C   0  0  0  0  0  0
  -18.1924  -26.7930   22.1630 C   0  0  0  0  0  0
  -19.1523  -28.8841   23.2904 C   0  0  0  0  0  0
  -18.9454  -30.1454   23.8908 C   0  0  0  0  0  0
  -17.6453  -30.6593   24.0566 C   0  0  0  0  0  0
  -25.9040  -34.9470   23.5123 C   0  0  0  0  0  0
  -16.5343  -29.9093   23.6326 C   0  0  0  0  0  0
  -16.7264  -28.6506   23.0352 C   0  0  0  0  0  0
  -26.4485  -31.6569   25.0699 C   0  0  0  0  0  0
  -25.3747  -31.3639   26.1432 C   0  0  0  0  0  0
  -27.0319  -30.3022   24.6043 C   0  0  0  0  0  0
  -27.6046  -32.4276   25.7491 C   0  0  0  0  0  0
  -27.5581  -37.1813   24.8465 C   0  0  0  0  0  0
  -21.4141  -29.3041   22.3715 N   0  0  0  0  0  0
  -26.4294  -37.3791   23.9408 N   0  0  0  0  0  0
  -24.6714  -31.0757   22.0993 N   0  0  0  0  0  0
  -23.4187  -28.8188   23.3009 O   0  0  0  0  0  0
  -28.3750  -26.6299   20.1185 O   0  0  0  0  0  0
  -26.5605  -34.8925   22.4685 O   0  0  0  0  0  0
  -23.5353  -32.1417   23.7479 O   0  0  0  0  0  0
  -31.2565  -17.6187   20.3062 C   0  0  0  0  0  0
  -30.8932  -18.9251   20.1089 C   0  0  0  0  0  0
  -30.0985  -16.9331   20.7679 C   0  0  0  0  0  0
  -29.0790  -17.8417   20.8999 C   0  0  0  0  0  0
  -26.9849  -21.4056   18.7597 C   0  0  0  0  0  0
  -27.7835  -22.7162   18.7995 C   0  0  0  0  0  0
  -29.4903  -21.6817   20.2567 C   0  0  0  0  0  0
  -27.8828  -20.1701   18.9365 C   0  0  2  0  0  0
  -28.7298  -20.3053   20.2318 C   0  0  1  0  0  0
  -27.6716  -17.6373   21.3724 C   0  0  0  0  0  0
  -28.7007  -19.8486   17.6666 C   0  0  0  0  0  0
  -29.1907  -24.2145   20.1655 C   0  0  0  0  0  0
  -28.2015  -25.3064   20.6862 C   0  0  0  0  0  0
  -29.5495  -19.0832   20.4386 N   0  0  0  0  0  0
  -29.9573  -15.5287   21.0354 N   0  0  0  0  0  0
  -28.5626  -22.8508   20.0605 N   0  3  1  0  0  0
  -31.4688  -12.4139   19.1296 H   0  0  0  0  0  0
  -30.3222  -11.3109   19.8395 H   0  0  0  0  0  0
  -29.7382  -11.7867   17.4330 H   0  0  0  0  0  0
  -29.6621  -13.4972   17.7754 H   0  0  0  0  0  0
  -27.8243  -11.3143   18.8157 H   0  0  0  0  0  0
  -27.3698  -12.6473   17.7888 H   0  0  0  0  0  0
  -27.6994  -14.2588   19.5742 H   0  0  0  0  0  0
  -28.6855  -11.9722   21.3515 H   0  0  0  0  0  0
  -28.4665  -13.6147   21.8730 H   0  0  0  0  0  0
  -25.2769   -9.5674   22.4762 H   0  0  0  0  0  0
  -23.9991   -7.4632   22.7487 H   0  0  0  0  0  0
  -21.0847   -8.8771   19.8930 H   0  0  0  0  0  0
  -22.3714  -10.9669   19.6154 H   0  0  0  0  0  0
  -21.2011   -7.6157   23.9716 H   0  0  0  0  0  0
  -21.1478   -6.0529   25.9084 H   0  0  0  0  0  0
  -22.0601   -2.7601   23.2847 H   0  0  0  0  0  0
  -22.4120  -11.9852   22.4748 H   0  0  0  0  0  0
  -21.1125  -13.1216   22.2609 H   0  0  0  0  0  0
  -24.6472  -15.8306   20.4795 H   0  0  0  0  0  0
  -26.2632  -15.6096   20.0251 H   0  0  0  0  0  0
  -26.7113  -32.5531   23.1148 H   0  0  0  0  0  0
  -25.0057  -33.9772   25.0466 H   0  0  0  0  0  0
  -22.6943  -31.3078   21.4108 H   0  0  0  0  0  0
  -23.3758  -35.9642   23.3286 H   0  0  0  0  0  0
  -24.3588  -36.8943   22.2054 H   0  0  0  0  0  0
  -23.7245  -37.6509   23.6664 H   0  0  0  0  0  0
  -26.0449  -31.5914   20.5931 H   0  0  0  0  0  0
  -26.8263  -30.8862   21.9786 H   0  0  0  0  0  0
  -28.1048  -29.0789   21.1755 H   0  0  0  0  0  0
  -26.0492  -25.9900   18.9668 H   0  0  0  0  0  0
  -23.9832  -27.3124   19.0071 H   0  0  0  0  0  0
  -23.7229  -30.6006   19.4052 H   0  0  0  0  0  0
  -22.7392  -29.2456   19.8681 H   0  0  0  0  0  0
  -25.1282  -36.1960   25.0830 H   0  0  0  0  0  0
  -20.9967  -28.3250   24.1438 H   0  0  0  0  0  0
  -20.5692  -26.2278   23.3598 H   0  0  0  0  0  0
  -21.6636  -26.7470   22.1199 H   0  0  0  0  0  0
  -19.6914  -25.6315   21.1223 H   0  0  0  0  0  0
  -19.6681  -27.3218   20.6757 H   0  0  0  0  0  0
  -17.4196  -26.6690   21.4031 H   0  0  0  0  0  0
  -18.0323  -26.0070   22.9021 H   0  0  0  0  0  0
  -19.7930  -30.7275   24.2276 H   0  0  0  0  0  0
  -17.5011  -31.6275   24.5171 H   0  0  0  0  0  0
  -15.5345  -30.3005   23.7642 H   0  0  0  0  0  0
  -15.8662  -28.0833   22.7062 H   0  0  0  0  0  0
  -24.5954  -30.6954   25.7753 H   0  0  0  0  0  0
  -24.8900  -32.2777   26.4882 H   0  0  0  0  0  0
  -25.8114  -30.8808   27.0182 H   0  0  0  0  0  0
  -26.2858  -29.6781   24.1113 H   0  0  0  0  0  0
  -27.4131  -29.7247   25.4471 H   0  0  0  0  0  0
  -27.8669  -30.4358   23.9165 H   0  0  0  0  0  0
  -27.2661  -33.3570   26.2079 H   0  0  0  0  0  0
  -28.3875  -32.6825   25.0340 H   0  0  0  0  0  0
  -28.0681  -31.8376   26.5405 H   0  0  0  0  0  0
  -28.2577  -38.0133   24.7536 H   0  0  0  0  0  0
  -28.1105  -36.2662   24.6268 H   0  0  0  0  0  0
  -27.2296  -37.1422   25.8867 H   0  0  0  0  0  0
  -20.9294  -29.8770   21.6946 H   0  0  0  0  0  0
  -26.0178  -38.2865   24.1420 H   0  0  0  0  0  0
  -32.2387  -17.2107   20.1044 H   0  0  0  0  0  0
  -31.4766  -19.7506   19.7240 H   0  0  0  0  0  0
  -26.4363  -21.3366   17.8189 H   0  0  0  0  0  0
  -26.2259  -21.4191   19.5433 H   0  0  0  0  0  0
  -27.0906  -23.5503   18.6886 H   0  0  0  0  0  0
  -28.4577  -22.7702   17.9434 H   0  0  0  0  0  0
  -30.2561  -21.7130   19.4814 H   0  0  0  0  0  0
  -30.0077  -21.7892   21.2114 H   0  0  0  0  0  0
  -27.2074  -19.3253   19.0682 H   0  0  0  0  0  0
  -28.0355  -20.3501   21.0710 H   0  0  0  0  0  0
  -27.5735  -16.7016   21.9226 H   0  0  0  0  0  0
  -26.9766  -17.5989   20.5351 H   0  0  0  0  0  0
  -27.3513  -18.4296   22.0477 H   0  0  0  0  0  0
  -29.4720  -20.5937   17.4698 H   0  0  0  0  0  0
  -28.0565  -19.8007   16.7877 H   0  0  0  0  0  0
  -29.1943  -18.8794   17.7444 H   0  0  0  0  0  0
  -30.0477  -24.1804   20.8393 H   0  0  0  0  0  0
  -29.5934  -24.5042   19.1937 H   0  0  0  0  0  0
  -28.3178  -25.3954   21.7667 H   0  0  0  0  0  0
  -27.1830  -24.9458   20.5555 H   0  0  0  0  0  0
  -29.0640  -15.2454   21.4078 H   0  0  0  0  0  0
  -27.9035  -22.7898   20.8243 H   0  0  0  0  0  0
  1 25  1  0  0  0
  1 30  2  0  0  0
  1 85  1  0  0  0
  2  3  1  0  0  0
  2 25  1  0  0  0
  2 87  1  0  0  0
  2 88  1  0  0  0
  3  4  1  0  0  0
  3 89  1  0  0  0
  3 90  1  0  0  0
  4  5  1  0  0  0
  4 91  1  0  0  0
  4 92  1  0  0  0
  5  6  1  0  0  0
  5 26  1  0  0  0
  5 93  1  0  0  0
  6 25  1  0  0  0
  6 94  1  0  0  0
  6 95  1  0  0  0
  7  8  2  0  0  0
  7 26  1  0  0  0
  7 29  1  0  0  0
  8  9  1  0  0  0
  8 22  1  0  0  0
  9 10  1  0  0  0
  9 27  2  0  0  0
 10 11  2  0  0  0
 10 15  1  0  0  0
 11 12  1  0  0  0
 11 96  1  0  0  0
 12 13  2  0  0  0
 12 97  1  0  0  0
 13 14  1  0  0  0
 13 31  1  0  0  0
 14 15  2  0  0  0
 14 98  1  0  0  0
 15 99  1  0  0  0
 16 17  2  0  0  0
 16 21  1  0  0  0
 16 31  1  0  0  0
 17 18  1  0  0  0
 17100  1  0  0  0
 18 19  2  0  0  0
 18101  1  0  0  0
 19 20  1  0  0  0
 19 24  1  0  0  0
 20 21  2  0  0  0
 20102  1  0  0  0
 21 23  1  0  0  0
 22 28  1  0  0  0
 22 32  2  0  0  0
 26 27  1  0  0  0
 28103  1  0  0  0
 28104  1  0  0  0
 29105  1  0  0  0
 29106  1  0  0  0
 33 34  1  0  0  0
 33 66  1  0  0  0
 33 70  2  0  0  0
 34 36  1  0  0  0
 34 59  1  0  0  0
 34107  1  0  0  0
 35 44  2  0  0  0
 35 45  1  0  0  0
 35 68  1  0  0  0
 36 56  1  0  0  0
 36108  1  0  0  0
 37 39  1  0  0  0
 37 47  1  0  0  0
 37 66  1  0  0  0
 37109  1  0  0  0
 38 43  2  0  0  0
 38 46  1  0  0  0
 38 47  1  0  0  0
 39 64  1  0  0  0
 39 67  2  0  0  0
 40 52  1  0  0  0
 40 53  2  0  0  0
 40 58  1  0  0  0
 41110  1  0  0  0
 41111  1  0  0  0
 41112  1  0  0  0
 41 48  1  0  0  0
 42 43  1  0  0  0
 42 66  1  0  0  0
 42113  1  0  0  0
 42114  1  0  0  0
 43 44  1  0  0  0
 44115  1  0  0  0
 45 46  2  0  0  0
 45116  1  0  0  0
 46117  1  0  0  0
 47118  1  0  0  0
 47119  1  0  0  0
 48 56  1  0  0  0
 48 65  1  0  0  0
 48120  1  0  0  0
 49 50  1  0  0  0
 49 53  1  0  0  0
 49 64  1  0  0  0
 49121  1  0  0  0
 50 51  1  0  0  0
 50122  1  0  0  0
 50123  1  0  0  0
 51 52  1  0  0  0
 51124  1  0  0  0
 51125  1  0  0  0
 52126  1  0  0  0
 52127  1  0  0  0
 53 54  1  0  0  0
 54 55  2  0  0  0
 54128  1  0  0  0
 55 57  1  0  0  0
 55129  1  0  0  0
 56 69  2  0  0  0
 57 58  2  0  0  0
 57130  1  0  0  0
 58131  1  0  0  0
 59 60  1  0  0  0
 59 61  1  0  0  0
 59 62  1  0  0  0
 60132  1  0  0  0
 60133  1  0  0  0
 60134  1  0  0  0
 61135  1  0  0  0
 61136  1  0  0  0
 61137  1  0  0  0
 62138  1  0  0  0
 62139  1  0  0  0
 62140  1  0  0  0
 63 65  1  0  0  0
 63141  1  0  0  0
 63142  1  0  0  0
 63143  1  0  0  0
 64144  1  0  0  0
 65145  1  0  0  0
 68 83  1  0  0  0
 71 72  2  0  0  0
 71 73  1  0  0  0
 71146  1  0  0  0
 72 84  1  0  0  0
 72147  1  0  0  0
 73 74  2  0  0  0
 73 85  1  0  0  0
 74 80  1  0  0  0
 74 84  1  0  0  0
 75 76  1  0  0  0
 75 78  1  0  0  0
 75148  1  0  0  0
 75149  1  0  0  0
 76 86  1  0  0  0
 76150  1  0  0  0
 76151  1  0  0  0
 77 79  1  0  0  0
 77 86  1  0  0  0
 77152  1  0  0  0
 77153  1  0  0  0
 78 79  1  0  0  0
 78 81  1  0  0  0
 78154  1  0  0  0
 79 84  1  0  0  0
 79155  1  0  0  0
 80156  1  0  0  0
 80157  1  0  0  0
 80158  1  0  0  0
 81159  1  0  0  0
 81160  1  0  0  0
 81161  1  0  0  0
 82 83  1  0  0  0
 82162  1  0  0  0
 82163  1  0  0  0
 82 86  1  0  0  0
 83164  1  0  0  0
 83165  1  0  0  0
 85166  1  0  0  0
 86167  1  0  0  0
M  CHG  1  86   1
M  ISO  4   1 100  68 101  83 101  85 100
M  END
> <chiral flag>
0

> <version>
0

> <s_m_source_file>
/data/baiqing/PycharmProjects/Reinvent-master-3.2/result/LINK_invent/BTK/process_docking_weight1_custom_sum_contain_oxygen_bond_distance_aromatic_linkinvent_7_9_3/rearranged_h_0157.sdf

> <i_m_source_file_index>
1

> <r_mmod_Potential_Energy-OPLS-2005>
-52.9921951293945

> <r_mmod_Stretch_Energy-OPLS-2005>
48.2275505065918

> <r_mmod_Bend_Energy-OPLS-2005>
112.693885803223

> <r_mmod_Torsional_Energy-OPLS-2005>
302.013977050781

> <r_mmod_Improper_Torsional_Energy-OPLS-2005>
4.76730728149414

> <r_mmod_Van_der_Waal_Energy-OPLS-2005>
130.489318847656

> <r_mmod_Electrostatic_Energy-OPLS-2005>
-221.9443359375

> <r_mmod_Solvation_Energy-OPLS-2005>
-446.086761474609

> <b_mmod_Minimization_Converged-OPLS-2005>
0

> <r_mmod_RMS_Derivative-OPLS-2005>
1.429603099823

$$$$
1
                    3D
 Structure written by MMmdl.
196207  0  0  1  0            999 V2000
  -27.8298  -17.2328   20.5102 C   0  0  0  0  0  0
  -29.5356  -14.6623   19.5723 C   0  0  0  0  0  0
  -29.3668  -13.3518   18.5955 C   0  0  0  0  0  0
  -28.2350  -12.4307   19.0301 C   0  0  0  0  0  0
  -27.3545  -13.3568   19.8468 C   0  0  2  0  0  0
  -27.9783  -14.2462   20.9545 C   0  0  0  0  0  0
  -25.0832  -13.7875   20.5380 C   0  0  0  0  0  0
  -24.0663  -12.9972   20.9325 C   0  0  0  0  0  0
  -24.5700  -11.6595   20.8990 C   0  0  0  0  0  0
  -23.8674  -10.4034   21.0632 C   0  0  0  0  0  0
  -24.3387   -9.4037   21.9378 C   0  0  0  0  0  0
  -23.6130   -8.2051   22.0838 C   0  0  0  0  0  0
  -22.4166   -8.0097   21.3561 C   0  0  0  0  0  0
  -21.9740   -9.0028   20.4685 C   0  0  0  0  0  0
  -22.6965  -10.1917   20.3158 C   0  0  0  0  0  0
  -21.6816   -6.0618   22.5311 C   0  0  0  0  0  0
  -21.3980   -6.5569   23.8213 C   0  0  0  0  0  0
  -21.3614   -5.6754   24.9203 C   0  0  0  0  0  0
  -21.6026   -4.3007   24.7284 C   0  0  0  0  0  0
  -21.8819   -3.8067   23.4411 C   0  0  0  0  0  0
  -21.9186   -4.6861   22.3458 C   0  0  0  0  0  0
  -22.6839  -13.4899   21.1899 C   0  0  0  0  0  0
  -22.1667   -4.2013   21.1033 F   0  0  0  0  0  0
  -21.5626   -3.4535   25.7819 F   0  0  0  0  0  0
  -28.2552  -15.5714   20.2544 N   0  0  0  0  0  0
  -26.1166  -12.9191   20.3052 N   0  0  0  0  0  0
  -25.8573  -11.6288   20.5804 N   0  0  0  0  0  0
  -21.9580  -12.8078   22.0618 N   0  0  0  0  0  0
  -25.1910  -15.1583   20.3169 N   0  0  0  0  0  0
  -29.1756  -17.2490   20.5123 O   0  0  0  0  0  0
  -21.6558   -6.8711   21.4247 O   0  0  0  0  0  0
  -22.2774  -14.5318   20.6708 O   0  0  0  0  0  0
  -24.7121  -31.9435   23.1503 C   0  0  0  0  0  0
  -25.9670  -32.5182   23.8363 C   0  0  1  0  0  0
  -26.4449  -27.2183   20.9248 C   0  0  0  0  0  0
  -25.6367  -33.8855   24.2512 N   0  0  0  0  0  0
  -23.6786  -30.4685   21.4843 C   0  0  2  0  0  0
  -24.9812  -29.1494   19.8290 C   0  0  0  0  0  0
  -22.8160  -29.7124   22.4210 C   0  0  0  0  0  0
  -19.2469  -26.4674   22.3870 C   0  0  0  0  0  0
  -24.1500  -36.7438   23.2596 C   0  0  0  0  0  0
  -26.0629  -30.9542   21.2360 C   0  0  0  0  0  0
  -26.0987  -29.5506   20.5981 C   0  0  0  0  0  0
  -26.9128  -28.5361   21.1208 C   0  0  0  0  0  0
  -25.8240  -26.8898   19.7135 C   0  0  0  0  0  0
  -24.9013  -27.8485   19.2822 C   0  0  0  0  0  0
  -23.7673  -30.0261   19.9891 C   0  0  0  0  0  0
  -25.4112  -36.3229   24.0319 C   0  0  1  0  0  0
  -21.4059  -27.8888   22.0549 C   0  0  2  0  0  0
  -22.6456  -26.4175   21.6541 C   0  0  0  0  0  0
  -22.8154  -24.4325   22.8982 C   0  0  0  0  0  0
  -20.5751  -23.8662   23.3071 C   0  0  0  0  0  0
  -19.8625  -27.8878   22.4873 C   0  0  0  0  0  0
  -19.3746  -29.2049   23.0860 C   0  0  0  0  0  0
  -18.0666  -29.5508   23.4652 C   0  0  0  0  0  0
  -25.9133  -34.9683   23.5087 C   0  0  0  0  0  0
  -17.2477  -28.4703   23.1574 C   0  0  0  0  0  0
  -17.7986  -27.1319   22.7092 C   0  0  0  0  0  0
  -26.4538  -31.6634   25.0664 C   0  0  0  0  0  0
  -25.3598  -31.3738   26.1221 C   0  0  0  0  0  0
  -27.0202  -30.3128   24.5796 C   0  0  0  0  0  0
  -27.6148  -32.4084   25.7717 C   0  0  0  0  0  0
  -27.5564  -37.1883   24.8426 C   0  0  0  0  0  0
  -21.7985  -29.1986   21.7852 N   0  0  0  0  0  0
  -26.4299  -37.3902   23.9379 N   0  0  0  0  0  0
  -24.8073  -31.2443   21.9833 N   0  0  0  0  0  0
  -23.1913  -29.3936   23.5580 O   0  0  0  0  0  0
  -25.9492  -26.4223   22.0101 O   0  0  0  0  0  0
  -26.5562  -34.9093   22.4553 O   0  0  0  0  0  0
  -23.6144  -32.2043   23.6722 O   0  0  0  0  0  0
  -19.7040  -24.1761   21.1074 C   0  0  0  0  0  0
  -21.3076  -24.4521   21.3269 C   0  0  0  0  0  0
  -21.2393  -25.8967   23.3704 C   0  0  0  0  0  0
  -19.8432  -25.6710   24.4867 C   0  0  0  0  0  0
  -18.5044  -24.7551   23.8476 C   0  0  0  0  0  0
  -18.4714  -24.1889   22.2407 C   0  0  0  0  0  0
  -19.4437  -24.4336   28.1601 C   0  0  0  0  0  0
  -19.3794  -23.3964   27.0712 C   0  0  0  0  0  0
  -24.4356  -26.2864   26.2937 C   0  0  0  0  0  0
  -23.1540  -26.8515   26.8178 C   0  0  0  0  0  0
  -24.8331  -20.3803   21.3454 C   0  0  0  0  0  0
  -25.0344  -21.2309   19.1576 C   0  0  0  0  0  0
  -23.1617  -22.4460   20.8999 C   0  0  1  0  0  0
  -20.1727  -24.6905   26.8585 C   0  0  0  0  0  0
  -23.1432  -26.0259   25.5322 C   0  0  0  0  0  0
  -25.6894  -19.5625   19.3079 C   0  0  2  0  0  0
  -17.2562  -24.4332   24.6607 C   0  0  0  0  0  0
  -26.5861  -19.3601   18.0784 C   0  0  0  0  0  0
  -22.8025  -21.7073   17.0940 C   0  0  0  0  0  0
  -23.5336  -23.9178   18.1864 C   0  0  0  0  0  0
  -16.9514  -23.8962   20.3808 C   0  0  0  0  0  0
  -19.8335  -25.9399   25.9895 C   0  0  0  0  0  0
  -24.7660  -26.7038   23.2910 C   0  0  0  0  0  0
  -22.9386  -26.5703   24.0902 C   0  0  1  0  0  0
  -22.8779  -22.5380   18.3892 C   0  0  0  0  0  0
  -26.3345  -18.7264   20.5706 N   0  0  0  0  0  0
  -23.5271  -21.8022   19.4999 N   0  3  1  0  0  0
  -17.2253  -23.7708   21.7904 O   0  0  0  0  0  0
  -30.0626  -15.3999   18.9638 H   0  0  0  0  0  0
  -30.3113  -14.4430   20.3160 H   0  0  0  0  0  0
  -30.3099  -12.8100   18.5632 H   0  0  0  0  0  0
  -29.1640  -13.6748   17.5703 H   0  0  0  0  0  0
  -28.5943  -11.6262   19.6717 H   0  0  0  0  0  0
  -27.7373  -11.9818   18.1730 H   0  0  0  0  0  0
  -27.0508  -14.0251   19.0371 H   0  0  0  0  0  0
  -28.7815  -13.7468   21.5079 H   0  0  0  0  0  0
  -27.2795  -14.4793   21.7602 H   0  0  0  0  0  0
  -25.2496   -9.5601   22.4966 H   0  0  0  0  0  0
  -23.9858   -7.4450   22.7535 H   0  0  0  0  0  0
  -21.0696   -8.8504   19.8951 H   0  0  0  0  0  0
  -22.3442  -10.9479   19.6259 H   0  0  0  0  0  0
  -21.1955   -7.6070   23.9686 H   0  0  0  0  0  0
  -21.1451   -6.0499   25.9087 H   0  0  0  0  0  0
  -22.0652   -2.7521   23.2992 H   0  0  0  0  0  0
  -22.3287  -11.9866   22.5122 H   0  0  0  0  0  0
  -21.0260  -13.1162   22.3106 H   0  0  0  0  0  0
  -24.2666  -15.5610   20.1777 H   0  0  0  0  0  0
  -25.8152  -15.3953   19.5586 H   0  0  0  0  0  0
  -26.8068  -32.5922   23.1438 H   0  0  0  0  0  0
  -25.0402  -33.9976   25.0620 H   0  0  0  0  0  0
  -24.2051  -29.5908   21.8234 H   0  0  0  0  0  0
  -23.3706  -35.9808   23.3261 H   0  0  0  0  0  0
  -24.3649  -36.9166   22.2037 H   0  0  0  0  0  0
  -23.7317  -37.6644   23.6631 H   0  0  0  0  0  0
  -26.1318  -31.6802   20.4263 H   0  0  0  0  0  0
  -26.9784  -31.0617   21.8027 H   0  0  0  0  0  0
  -27.4899  -28.7627   22.0069 H   0  0  0  0  0  0
  -25.5685  -25.8599   19.4951 H   0  0  0  0  0  0
  -24.0631  -27.5386   18.6824 H   0  0  0  0  0  0
  -22.8806  -29.5194   19.6125 H   0  0  0  0  0  0
  -23.8871  -30.8973   19.3537 H   0  0  0  0  0  0
  -25.1230  -36.2039   25.0815 H   0  0  0  0  0  0
  -21.4340  -28.0846   23.1113 H   0  0  0  0  0  0
  -23.5867  -26.8784   21.4061 H   0  0  0  0  0  0
  -22.4857  -26.2429   20.5842 H   0  0  0  0  0  0
  -23.3175  -24.3701   23.8534 H   0  0  0  0  0  0
  -23.5717  -23.7188   22.6665 H   0  0  0  0  0  0
  -20.3402  -22.8553   22.9274 H   0  0  0  0  0  0
  -20.5796  -23.5307   24.3497 H   0  0  0  0  0  0
  -20.0583  -30.0335   23.1762 H   0  0  0  0  0  0
  -17.7643  -30.5131   23.8389 H   0  0  0  0  0  0
  -16.1876  -28.5419   23.3350 H   0  0  0  0  0  0
  -16.9987  -26.4146   22.7106 H   0  0  0  0  0  0
  -24.5622  -30.7349   25.7323 H   0  0  0  0  0  0
  -24.8873  -32.2898   26.4755 H   0  0  0  0  0  0
  -25.7755  -30.8718   26.9989 H   0  0  0  0  0  0
  -26.2552  -29.7159   24.0780 H   0  0  0  0  0  0
  -27.3925  -29.7121   25.4118 H   0  0  0  0  0  0
  -27.8439  -30.4569   23.8805 H   0  0  0  0  0  0
  -27.2879  -33.3398   26.2365 H   0  0  0  0  0  0
  -28.4093  -32.6682   25.0692 H   0  0  0  0  0  0
  -28.0473  -31.7997   26.5679 H   0  0  0  0  0  0
  -28.2449  -38.0271   24.7461 H   0  0  0  0  0  0
  -28.1201  -36.2815   24.6179 H   0  0  0  0  0  0
  -27.2318  -37.1383   25.8837 H   0  0  0  0  0  0
  -21.6444  -29.5189   20.8450 H   0  0  0  0  0  0
  -26.0166  -38.2930   24.1511 H   0  0  0  0  0  0
  -19.5121  -23.6341   20.1913 H   0  0  0  0  0  0
  -20.0507  -24.2120   29.0379 H   0  0  0  0  0  0
  -18.5271  -24.9896   28.3598 H   0  0  0  0  0  0
  -18.3795  -23.2076   26.6935 H   0  0  0  0  0  0
  -19.9815  -22.4940   27.2030 H   0  0  0  0  0  0
  -24.8792  -25.4257   26.7905 H   0  0  0  0  0  0
  -25.1543  -27.0253   25.9497 H   0  0  0  0  0  0
  -23.0014  -27.9257   26.7463 H   0  0  0  0  0  0
  -22.7636  -26.3963   27.7319 H   0  0  0  0  0  0
  -24.1681  -19.6994   21.8672 H   0  0  0  0  0  0
  -25.4284  -20.8044   22.1561 H   0  0  0  0  0  0
  -25.1784  -21.4997   18.1172 H   0  0  0  0  0  0
  -25.7540  -21.9192   19.6058 H   0  0  0  0  0  0
  -23.9280  -23.2163   20.8145 H   0  0  0  0  0  0
  -21.2319  -24.4848   26.8924 H   0  0  0  0  0  0
  -22.7521  -25.0293   25.6663 H   0  0  0  0  0  0
  -24.8176  -18.9489   19.0935 H   0  0  0  0  0  0
  -17.0691  -23.3566   24.6457 H   0  0  0  0  0  0
  -16.3741  -24.8958   24.2099 H   0  0  0  0  0  0
  -17.3185  -24.7572   25.6921 H   0  0  0  0  0  0
  -26.7474  -18.3039   17.8797 H   0  0  0  0  0  0
  -26.1122  -19.7479   17.1720 H   0  0  0  0  0  0
  -27.5430  -19.8740   18.1741 H   0  0  0  0  0  0
  -21.9758  -22.0491   16.4771 H   0  0  0  0  0  0
  -22.6116  -20.6574   17.3030 H   0  0  0  0  0  0
  -23.7201  -21.7731   16.5022 H   0  0  0  0  0  0
  -23.1236  -24.4074   17.3076 H   0  0  0  0  0  0
  -24.6182  -23.8459   18.0673 H   0  0  0  0  0  0
  -23.3264  -24.5661   19.0359 H   0  0  0  0  0  0
  -15.9390  -24.2753   20.2172 H   0  0  0  0  0  0
  -17.0172  -22.9291   19.8776 H   0  0  0  0  0  0
  -17.5924  -24.5986   19.8396 H   0  0  0  0  0  0
  -18.8410  -26.3149   26.2481 H   0  0  0  0  0  0
  -20.5273  -26.7452   26.2213 H   0  0  0  0  0  0
  -25.2415  -25.9479   23.9110 H   0  0  0  0  0  0
  -25.1295  -27.6431   23.7017 H   0  0  0  0  0  0
  -22.6756  -27.5248   24.4931 H   0  0  0  0  0  0
  -21.8345  -22.6771   18.6893 H   0  0  0  0  0  0
  -23.0078  -20.9374   19.5443 H   0  0  0  0  0  0
  1 25  1  0  0  0
  1 30  2  0  0  0
  1 96  1  0  0  0
  2  3  1  0  0  0
  2 25  1  0  0  0
  2 99  1  0  0  0
  2100  1  0  0  0
  3  4  1  0  0  0
  3101  1  0  0  0
  3102  1  0  0  0
  4  5  1  0  0  0
  4103  1  0  0  0
  4104  1  0  0  0
  5  6  1  0  0  0
  5 26  1  0  0  0
  5105  1  0  0  0
  6 25  1  0  0  0
  6106  1  0  0  0
  6107  1  0  0  0
  7  8  2  0  0  0
  7 26  1  0  0  0
  7 29  1  0  0  0
  8  9  1  0  0  0
  8 22  1  0  0  0
  9 10  1  0  0  0
  9 27  2  0  0  0
 10 11  2  0  0  0
 10 15  1  0  0  0
 11 12  1  0  0  0
 11108  1  0  0  0
 12 13  2  0  0  0
 12109  1  0  0  0
 13 14  1  0  0  0
 13 31  1  0  0  0
 14 15  2  0  0  0
 14110  1  0  0  0
 15111  1  0  0  0
 16 17  2  0  0  0
 16 21  1  0  0  0
 16 31  1  0  0  0
 17 18  1  0  0  0
 17112  1  0  0  0
 18 19  2  0  0  0
 18113  1  0  0  0
 19 20  1  0  0  0
 19 24  1  0  0  0
 20 21  2  0  0  0
 20114  1  0  0  0
 21 23  1  0  0  0
 22 28  1  0  0  0
 22 32  2  0  0  0
 26 27  1  0  0  0
 28115  1  0  0  0
 28116  1  0  0  0
 29117  1  0  0  0
 29118  1  0  0  0
 33 34  1  0  0  0
 33 66  1  0  0  0
 33 70  2  0  0  0
 34 36  1  0  0  0
 34 59  1  0  0  0
 34119  1  0  0  0
 35 44  2  0  0  0
 35 45  1  0  0  0
 35 68  1  0  0  0
 36 56  1  0  0  0
 36120  1  0  0  0
 37 39  1  0  0  0
 37 47  1  0  0  0
 37 66  1  0  0  0
 37121  1  0  0  0
 38 43  2  0  0  0
 38 46  1  0  0  0
 38 47  1  0  0  0
 39 64  1  0  0  0
 39 67  2  0  0  0
 40 52  1  0  0  0
 40 53  2  0  0  0
 40 58  1  0  0  0
 41122  1  0  0  0
 41123  1  0  0  0
 41124  1  0  0  0
 41 48  1  0  0  0
 42 43  1  0  0  0
 42 66  1  0  0  0
 42125  1  0  0  0
 42126  1  0  0  0
 43 44  1  0  0  0
 44127  1  0  0  0
 45 46  2  0  0  0
 45128  1  0  0  0
 46129  1  0  0  0
 47130  1  0  0  0
 47131  1  0  0  0
 48 56  1  0  0  0
 48 65  1  0  0  0
 48132  1  0  0  0
 49 50  1  0  0  0
 49 53  1  0  0  0
 49 64  1  0  0  0
 49133  1  0  0  0
 50 51  1  0  0  0
 50134  1  0  0  0
 50135  1  0  0  0
 51 52  1  0  0  0
 51136  1  0  0  0
 51137  1  0  0  0
 52138  1  0  0  0
 52139  1  0  0  0
 53 54  1  0  0  0
 54 55  2  0  0  0
 54140  1  0  0  0
 55 57  1  0  0  0
 55141  1  0  0  0
 56 69  2  0  0  0
 57 58  2  0  0  0
 57142  1  0  0  0
 58143  1  0  0  0
 59 60  1  0  0  0
 59 61  1  0  0  0
 59 62  1  0  0  0
 60144  1  0  0  0
 60145  1  0  0  0
 60146  1  0  0  0
 61147  1  0  0  0
 61148  1  0  0  0
 61149  1  0  0  0
 62150  1  0  0  0
 62151  1  0  0  0
 62152  1  0  0  0
 63 65  1  0  0  0
 63153  1  0  0  0
 63154  1  0  0  0
 63155  1  0  0  0
 64156  1  0  0  0
 65157  1  0  0  0
 68 93  1  0  0  0
 71 72  2  0  0  0
 71 76  1  0  0  0
 71158  1  0  0  0
 72 73  1  0  0  0
 72 83  1  0  0  0
 73 74  2  0  0  0
 73 94  1  0  0  0
 74 75  1  0  0  0
 74 92  1  0  0  0
 75 76  2  0  0  0
 75 87  1  0  0  0
 76 98  1  0  0  0
 77 78  1  0  0  0
 77 84  1  0  0  0
 77159  1  0  0  0
 77160  1  0  0  0
 78 84  1  0  0  0
 78161  1  0  0  0
 78162  1  0  0  0
 79 80  1  0  0  0
 79163  1  0  0  0
 79164  1  0  0  0
 79 85  1  0  0  0
 80 85  1  0  0  0
 80165  1  0  0  0
 80166  1  0  0  0
 81 83  1  0  0  0
 81 96  1  0  0  0
 81167  1  0  0  0
 81168  1  0  0  0
 82 86  1  0  0  0
 82169  1  0  0  0
 82170  1  0  0  0
 82 97  1  0  0  0
 83 97  1  0  0  0
 83171  1  0  0  0
 84 92  1  0  0  0
 84172  1  0  0  0
 85 94  1  0  0  0
 85173  1  0  0  0
 86 88  1  0  0  0
 86 96  1  0  0  0
 86174  1  0  0  0
 87175  1  0  0  0
 87176  1  0  0  0
 87177  1  0  0  0
 88178  1  0  0  0
 88179  1  0  0  0
 88180  1  0  0  0
 89181  1  0  0  0
 89182  1  0  0  0
 89183  1  0  0  0
 89 95  1  0  0  0
 90 95  1  0  0  0
 90184  1  0  0  0
 90185  1  0  0  0
 90186  1  0  0  0
 91 98  1  0  0  0
 91187  1  0  0  0
 91188  1  0  0  0
 91189  1  0  0  0
 92190  1  0  0  0
 92191  1  0  0  0
 93192  1  0  0  0
 93193  1  0  0  0
 93 94  1  0  0  0
 94194  1  0  0  0
 95 97  1  0  0  0
 95195  1  0  0  0
 97196  1  0  0  0
M  CHG  1  97   1
M  ISO  4   1 100  68 101  93 101  96 100
M  END
> <chiral flag>
0

> <version>
0

> <s_m_source_file>
/data/baiqing/PycharmProjects/Reinvent-master-3.2/result/LINK_invent/BTK/process_docking_weight1_custom_sum_contain_oxygen_bond_distance_aromatic_linkinvent_7_9_3/rearranged_h_0157.sdf

> <i_m_source_file_index>
2

> <r_mmod_Potential_Energy-OPLS-2005>
34696.2109375

> <r_mmod_Stretch_Energy-OPLS-2005>
15974.96484375

> <r_mmod_Bend_Energy-OPLS-2005>
2547.44506835938

> <r_mmod_Torsional_Energy-OPLS-2005>
949.327941894531

> <r_mmod_Improper_Torsional_Energy-OPLS-2005>
89.7952041625977

> <r_mmod_Van_der_Waal_Energy-OPLS-2005>
3835.06372070312

> <r_mmod_Electrostatic_Energy-OPLS-2005>
-205.864868164062

> <r_mmod_Solvation_Energy-OPLS-2005>
-452.991882324219

> <b_mmod_Minimization_Converged-OPLS-2005>
0

> <r_mmod_RMS_Derivative-OPLS-2005>
27.4777412414551

$$$$
2
                    3D
 Structure written by MMmdl.
166175  0  0  1  0            999 V2000
  -30.6819  -14.6631   20.5147 C   0  0  0  0  0  0
  -30.3926  -12.4099   19.4777 C   0  0  0  0  0  0
  -29.4846  -12.4930   18.2323 C   0  0  0  0  0  0
  -28.0150  -12.3067   18.6478 C   0  0  0  0  0  0
  -27.6261  -13.2193   19.8404 C   0  0  2  0  0  0
  -28.6653  -13.1436   20.9824 C   0  0  0  0  0  0
  -25.2427  -13.8144   20.5573 C   0  0  0  0  0  0
  -24.1739  -13.0423   20.9155 C   0  0  0  0  0  0
  -24.6329  -11.6895   20.8756 C   0  0  0  0  0  0
  -23.9031  -10.4300   21.0445 C   0  0  0  0  0  0
  -24.3590   -9.4210   21.9214 C   0  0  0  0  0  0
  -23.6245   -8.2244   22.0808 C   0  0  0  0  0  0
  -22.4248   -8.0274   21.3562 C   0  0  0  0  0  0
  -21.9886   -9.0265   20.4693 C   0  0  0  0  0  0
  -22.7219  -10.2128   20.3097 C   0  0  0  0  0  0
  -21.6847   -6.0743   22.5270 C   0  0  0  0  0  0
  -21.4023   -6.5661   23.8201 C   0  0  0  0  0  0
  -21.3661   -5.6808   24.9169 C   0  0  0  0  0  0
  -21.6023   -4.3060   24.7230 C   0  0  0  0  0  0
  -21.8805   -3.8148   23.4349 C   0  0  0  0  0  0
  -21.9183   -4.6966   22.3401 C   0  0  0  0  0  0
  -22.7786  -13.5235   21.1845 C   0  0  0  0  0  0
  -22.1624   -4.2135   21.0976 F   0  0  0  0  0  0
  -21.5620   -3.4563   25.7752 F   0  0  0  0  0  0
  -29.9651  -13.4914   20.3997 N   0  0  0  0  0  0
  -26.2824  -12.9332   20.3191 N   0  0  0  0  0  0
  -25.9253  -11.6487   20.5754 N   0  0  0  0  0  0
  -22.0435  -12.8252   22.0389 N   0  0  0  0  0  0
  -25.4193  -15.1835   20.3834 N   0  0  0  0  0  0
  -31.8813  -14.6230   20.2179 O   0  0  0  0  0  0
  -21.6626   -6.8875   21.4226 O   0  0  0  0  0  0
  -22.3496  -14.5576   20.6739 O   0  0  0  0  0  0
  -24.6275  -31.8579   23.1976 C   0  0  0  0  0  0
  -25.9124  -32.4769   23.8339 C   0  0  1  0  0  0
  -27.2334  -27.2947   20.1168 C   0  0  0  0  0  0
  -25.5922  -33.8580   24.2250 N   0  0  0  0  0  0
  -23.4252  -30.4772   21.5404 C   0  0  2  0  0  0
  -24.8754  -28.9265   20.1125 C   0  0  0  0  0  0
  -22.7497  -29.4611   22.4918 C   0  0  0  0  0  0
  -18.0287  -28.1387   22.8532 C   0  0  0  0  0  0
  -24.1485  -36.7289   23.2630 C   0  0  0  0  0  0
  -25.9691  -30.7782   21.3775 C   0  0  0  0  0  0
  -26.0420  -29.4035   20.7201 C   0  0  0  0  0  0
  -27.2187  -28.5969   20.7141 C   0  0  0  0  0  0
  -26.0422  -26.8805   19.4794 C   0  0  0  0  0  0
  -24.8777  -27.6729   19.4836 C   0  0  0  0  0  0
  -23.6416  -29.8057   20.1591 C   0  0  0  0  0  0
  -25.4120  -36.3090   24.0307 C   0  0  1  0  0  0
  -20.5890  -28.3708   23.1313 C   0  0  2  0  0  0
  -20.6786  -26.9406   22.5539 C   0  0  0  0  0  0
  -19.5773  -26.6304   21.5343 C   0  0  0  0  0  0
  -18.1951  -26.7874   22.1763 C   0  0  0  0  0  0
  -19.1537  -28.8889   23.2902 C   0  0  0  0  0  0
  -18.9454  -30.1506   23.8875 C   0  0  0  0  0  0
  -17.6469  -30.6611   24.0555 C   0  0  0  0  0  0
  -25.9057  -34.9457   23.5082 C   0  0  0  0  0  0
  -16.5359  -29.9102   23.6295 C   0  0  0  0  0  0
  -16.7274  -28.6511   23.0336 C   0  0  0  0  0  0
  -26.4487  -31.6613   25.0727 C   0  0  0  0  0  0
  -25.3681  -31.3840   26.1429 C   0  0  0  0  0  0
  -27.0333  -30.3020   24.6253 C   0  0  0  0  0  0
  -27.6058  -32.4351   25.7484 C   0  0  0  0  0  0
  -27.5578  -37.1789   24.8454 C   0  0  0  0  0  0
  -21.4209  -29.3013   22.3664 N   0  0  0  0  0  0
  -26.4304  -37.3778   23.9398 N   0  0  0  0  0  0
  -24.6908  -31.0563   22.0941 N   0  0  0  0  0  0
  -23.4205  -28.8166   23.3013 O   0  0  0  0  0  0
  -28.3788  -26.4773   20.1711 O   0  0  0  0  0  0
  -26.5644  -34.8926   22.4661 O   0  0  0  0  0  0
  -23.5444  -32.1419   23.7271 O   0  0  0  0  0  0
  -26.8790  -21.9221   20.2474 C   0  0  0  0  0  0
  -28.1967  -22.4014   20.5201 C   0  0  0  0  0  0
  -26.9856  -20.5597   20.1103 C   0  0  0  0  0  0
  -28.6829  -17.9064   21.5603 C   0  0  0  0  0  0
  -30.2916  -18.5273   19.8449 C   0  0  0  0  0  0
  -28.8799  -16.3541   21.3367 C   0  0  0  0  0  0
  -30.8260  -17.0419   19.8831 C   0  0  0  0  0  0
  -28.8335  -18.7465   20.2667 C   0  0  0  0  0  0
  -25.6154  -22.7410   20.1497 C   0  0  0  0  0  0
  -25.9061  -19.5693   19.7814 C   0  0  0  0  0  0
  -29.9687  -24.0045   21.4981 C   0  0  0  0  0  0
  -28.4128  -25.0420   19.7440 C   0  0  0  0  0  0
  -28.5742  -23.9021   20.8580 C   0  0  1  0  0  0
  -29.0489  -21.3303   20.5521 N   0  0  0  0  0  0
  -28.3077  -20.1784   20.3123 N   0  0  0  0  0  0
  -30.0663  -15.9222   20.5403 N   0  0  0  0  0  0
  -31.4422  -12.4745   19.1876 H   0  0  0  0  0  0
  -30.2827  -11.4323   19.9579 H   0  0  0  0  0  0
  -29.7578  -11.7287   17.5024 H   0  0  0  0  0  0
  -29.6194  -13.4556   17.7392 H   0  0  0  0  0  0
  -27.8860  -11.2569   18.9221 H   0  0  0  0  0  0
  -27.3443  -12.4781   17.8021 H   0  0  0  0  0  0
  -27.6208  -14.2325   19.4349 H   0  0  0  0  0  0
  -28.6969  -12.1381   21.4005 H   0  0  0  0  0  0
  -28.4016  -13.7953   21.8134 H   0  0  0  0  0  0
  -25.2741   -9.5685   22.4799 H   0  0  0  0  0  0
  -23.9949   -7.4677   22.7572 H   0  0  0  0  0  0
  -21.0804   -8.8789   19.9040 H   0  0  0  0  0  0
  -22.3660  -10.9672   19.6221 H   0  0  0  0  0  0
  -21.2011   -7.6174   23.9684 H   0  0  0  0  0  0
  -21.1504   -6.0562   25.9064 H   0  0  0  0  0  0
  -22.0590   -2.7614   23.2854 H   0  0  0  0  0  0
  -22.4025  -11.9842   22.4670 H   0  0  0  0  0  0
  -21.1151  -13.1448   22.2817 H   0  0  0  0  0  0
  -24.6669  -15.8519   20.5132 H   0  0  0  0  0  0
  -26.2585  -15.5934   19.9965 H   0  0  0  0  0  0
  -26.7173  -32.5445   23.1081 H   0  0  0  0  0  0
  -25.0011  -33.9725   25.0353 H   0  0  0  0  0  0
  -22.7174  -31.2961   21.3915 H   0  0  0  0  0  0
  -23.3747  -35.9623   23.3304 H   0  0  0  0  0  0
  -24.3559  -36.8899   22.2041 H   0  0  0  0  0  0
  -23.7227  -37.6481   23.6658 H   0  0  0  0  0  0
  -26.1052  -31.5394   20.6097 H   0  0  0  0  0  0
  -26.8480  -30.8283   22.0082 H   0  0  0  0  0  0
  -28.1150  -28.9644   21.1945 H   0  0  0  0  0  0
  -25.9621  -25.9337   18.9731 H   0  0  0  0  0  0
  -23.9854  -27.3049   18.9972 H   0  0  0  0  0  0
  -23.7537  -30.5768   19.3966 H   0  0  0  0  0  0
  -22.7647  -29.2282   19.8666 H   0  0  0  0  0  0
  -25.1286  -36.1923   25.0795 H   0  0  0  0  0  0
  -20.9965  -28.3388   24.1481 H   0  0  0  0  0  0
  -20.5697  -26.2362   23.3789 H   0  0  0  0  0  0
  -21.6677  -26.7361   22.1387 H   0  0  0  0  0  0
  -19.6937  -25.6185   21.1490 H   0  0  0  0  0  0
  -19.6701  -27.3032   20.6815 H   0  0  0  0  0  0
  -17.4180  -26.6461   21.4247 H   0  0  0  0  0  0
  -18.0436  -26.0118   22.9271 H   0  0  0  0  0  0
  -19.7923  -30.7336   24.2215 H   0  0  0  0  0  0
  -17.4979  -31.6314   24.5112 H   0  0  0  0  0  0
  -15.5341  -30.2968   23.7640 H   0  0  0  0  0  0
  -15.8670  -28.0811   22.7082 H   0  0  0  0  0  0
  -24.5815  -30.7227   25.7757 H   0  0  0  0  0  0
  -24.8905  -32.3055   26.4785 H   0  0  0  0  0  0
  -25.7933  -30.9037   27.0248 H   0  0  0  0  0  0
  -26.2963  -29.6756   24.1213 H   0  0  0  0  0  0
  -27.3919  -29.7286   25.4814 H   0  0  0  0  0  0
  -27.8868  -30.4255   23.9583 H   0  0  0  0  0  0
  -27.2680  -33.3652   26.2079 H   0  0  0  0  0  0
  -28.3872  -32.6924   25.0312 H   0  0  0  0  0  0
  -28.0741  -31.8460   26.5377 H   0  0  0  0  0  0
  -28.2606  -38.0066   24.7490 H   0  0  0  0  0  0
  -28.1055  -36.2608   24.6304 H   0  0  0  0  0  0
  -27.2293  -37.1453   25.8849 H   0  0  0  0  0  0
  -20.9421  -29.8689   21.6836 H   0  0  0  0  0  0
  -26.0173  -38.2841   24.1420 H   0  0  0  0  0  0
  -27.7068  -18.0909   22.0040 H   0  0  0  0  0  0
  -29.4068  -18.2625   22.2938 H   0  0  0  0  0  0
  -30.4339  -18.9271   18.8392 H   0  0  0  0  0  0
  -30.9312  -19.1331   20.4873 H   0  0  0  0  0  0
  -27.9943  -15.9856   20.8305 H   0  0  0  0  0  0
  -28.8999  -15.8705   22.3138 H   0  0  0  0  0  0
  -31.0037  -16.7279   18.8520 H   0  0  0  0  0  0
  -31.8178  -17.0874   20.3434 H   0  0  0  0  0  0
  -28.2312  -18.2478   19.5040 H   0  0  0  0  0  0
  -25.8062  -23.8080   20.0672 H   0  0  0  0  0  0
  -24.9818  -22.6016   21.0254 H   0  0  0  0  0  0
  -25.0188  -22.4564   19.2803 H   0  0  0  0  0  0
  -26.0045  -19.2184   18.7530 H   0  0  0  0  0  0
  -24.9150  -20.0121   19.8793 H   0  0  0  0  0  0
  -25.9329  -18.7007   20.4406 H   0  0  0  0  0  0
  -30.7367  -23.5739   20.8489 H   0  0  0  0  0  0
  -30.0129  -23.4807   22.4529 H   0  0  0  0  0  0
  -30.2451  -25.0410   21.6841 H   0  0  0  0  0  0
  -27.5928  -24.7810   19.0873 H   0  0  0  0  0  0
  -29.2825  -24.9535   19.0946 H   0  0  0  0  0  0
  -27.8677  -24.2004   21.6327 H   0  0  0  0  0  0
  1 25  1  0  0  0
  1 30  2  0  0  0
  1 86  1  0  0  0
  2  3  1  0  0  0
  2 25  1  0  0  0
  2 87  1  0  0  0
  2 88  1  0  0  0
  3  4  1  0  0  0
  3 89  1  0  0  0
  3 90  1  0  0  0
  4  5  1  0  0  0
  4 91  1  0  0  0
  4 92  1  0  0  0
  5  6  1  0  0  0
  5 26  1  0  0  0
  5 93  1  0  0  0
  6 25  1  0  0  0
  6 94  1  0  0  0
  6 95  1  0  0  0
  7  8  2  0  0  0
  7 26  1  0  0  0
  7 29  1  0  0  0
  8  9  1  0  0  0
  8 22  1  0  0  0
  9 10  1  0  0  0
  9 27  2  0  0  0
 10 11  2  0  0  0
 10 15  1  0  0  0
 11 12  1  0  0  0
 11 96  1  0  0  0
 12 13  2  0  0  0
 12 97  1  0  0  0
 13 14  1  0  0  0
 13 31  1  0  0  0
 14 15  2  0  0  0
 14 98  1  0  0  0
 15 99  1  0  0  0
 16 17  2  0  0  0
 16 21  1  0  0  0
 16 31  1  0  0  0
 17 18  1  0  0  0
 17100  1  0  0  0
 18 19  2  0  0  0
 18101  1  0  0  0
 19 20  1  0  0  0
 19 24  1  0  0  0
 20 21  2  0  0  0
 20102  1  0  0  0
 21 23  1  0  0  0
 22 28  1  0  0  0
 22 32  2  0  0  0
 26 27  1  0  0  0
 28103  1  0  0  0
 28104  1  0  0  0
 29105  1  0  0  0
 29106  1  0  0  0
 33 34  1  0  0  0
 33 66  1  0  0  0
 33 70  2  0  0  0
 34 36  1  0  0  0
 34 59  1  0  0  0
 34107  1  0  0  0
 35 44  2  0  0  0
 35 45  1  0  0  0
 35 68  1  0  0  0
 36 56  1  0  0  0
 36108  1  0  0  0
 37 39  1  0  0  0
 37 47  1  0  0  0
 37 66  1  0  0  0
 37109  1  0  0  0
 38 43  2  0  0  0
 38 46  1  0  0  0
 38 47  1  0  0  0
 39 64  1  0  0  0
 39 67  2  0  0  0
 40 52  1  0  0  0
 40 53  2  0  0  0
 40 58  1  0  0  0
 41110  1  0  0  0
 41111  1  0  0  0
 41112  1  0  0  0
 41 48  1  0  0  0
 42 43  1  0  0  0
 42 66  1  0  0  0
 42113  1  0  0  0
 42114  1  0  0  0
 43 44  1  0  0  0
 44115  1  0  0  0
 45 46  2  0  0  0
 45116  1  0  0  0
 46117  1  0  0  0
 47118  1  0  0  0
 47119  1  0  0  0
 48 56  1  0  0  0
 48 65  1  0  0  0
 48120  1  0  0  0
 49 50  1  0  0  0
 49 53  1  0  0  0
 49 64  1  0  0  0
 49121  1  0  0  0
 50 51  1  0  0  0
 50122  1  0  0  0
 50123  1  0  0  0
 51 52  1  0  0  0
 51124  1  0  0  0
 51125  1  0  0  0
 52126  1  0  0  0
 52127  1  0  0  0
 53 54  1  0  0  0
 54 55  2  0  0  0
 54128  1  0  0  0
 55 57  1  0  0  0
 55129  1  0  0  0
 56 69  2  0  0  0
 57 58  2  0  0  0
 57130  1  0  0  0
 58131  1  0  0  0
 59 60  1  0  0  0
 59 61  1  0  0  0
 59 62  1  0  0  0
 60132  1  0  0  0
 60133  1  0  0  0
 60134  1  0  0  0
 61135  1  0  0  0
 61136  1  0  0  0
 61137  1  0  0  0
 62138  1  0  0  0
 62139  1  0  0  0
 62140  1  0  0  0
 63 65  1  0  0  0
 63141  1  0  0  0
 63142  1  0  0  0
 63143  1  0  0  0
 64144  1  0  0  0
 65145  1  0  0  0
 68 82  1  0  0  0
 71 72  1  0  0  0
 71 73  2  0  0  0
 71 79  1  0  0  0
 72 83  1  0  0  0
 72 84  2  0  0  0
 73 80  1  0  0  0
 73 85  1  0  0  0
 74 76  1  0  0  0
 74 78  1  0  0  0
 74146  1  0  0  0
 74147  1  0  0  0
 75 77  1  0  0  0
 75 78  1  0  0  0
 75148  1  0  0  0
 75149  1  0  0  0
 76 86  1  0  0  0
 76150  1  0  0  0
 76151  1  0  0  0
 77 86  1  0  0  0
 77152  1  0  0  0
 77153  1  0  0  0
 78 85  1  0  0  0
 78154  1  0  0  0
 79155  1  0  0  0
 79156  1  0  0  0
 79157  1  0  0  0
 80158  1  0  0  0
 80159  1  0  0  0
 80160  1  0  0  0
 81161  1  0  0  0
 81162  1  0  0  0
 81163  1  0  0  0
 81 83  1  0  0  0
 82 83  1  0  0  0
 82164  1  0  0  0
 82165  1  0  0  0
 83166  1  0  0  0
 84 85  1  0  0  0
M  ISO  4   1 100  68 101  82 101  86 100
M  END
> <chiral flag>
0

> <version>
0

> <s_m_source_file>
/data/baiqing/PycharmProjects/Reinvent-master-3.2/result/LINK_invent/BTK/process_docking_weight1_custom_sum_contain_oxygen_bond_distance_aromatic_linkinvent_7_9_3/rearranged_h_0157.sdf

> <i_m_source_file_index>
3

> <r_mmod_Potential_Energy-OPLS-2005>
329.024505615234

> <r_mmod_Stretch_Energy-OPLS-2005>
105.221405029297

> <r_mmod_Bend_Energy-OPLS-2005>
203.132339477539

> <r_mmod_Torsional_Energy-OPLS-2005>
332.358123779297

> <r_mmod_Improper_Torsional_Energy-OPLS-2005>
12.5226497650146

> <r_mmod_Van_der_Waal_Energy-OPLS-2005>
127.482681274414

> <r_mmod_Electrostatic_Energy-OPLS-2005>
-304.4462890625

> <r_mmod_Solvation_Energy-OPLS-2005>
-209.138580322266

> <b_mmod_Minimization_Converged-OPLS-2005>
0

> <r_mmod_RMS_Derivative-OPLS-2005>
6.45931768417358

$$$$
3
                    3D
 Structure written by MMmdl.
180190  0  0  1  0            999 V2000
  -30.7539  -14.4005   20.6524 C   0  0  0  0  0  0
  -30.4214  -12.2960   19.3929 C   0  0  0  0  0  0
  -29.4880  -12.5391   18.1920 C   0  0  0  0  0  0
  -28.0087  -12.3863   18.6008 C   0  0  0  0  0  0
  -27.6716  -13.1875   19.8845 C   0  0  2  0  0  0
  -28.7175  -12.8835   20.9861 C   0  0  0  0  0  0
  -25.2639  -13.8142   20.5678 C   0  0  0  0  0  0
  -24.1865  -13.0438   20.9185 C   0  0  0  0  0  0
  -24.6360  -11.6879   20.8702 C   0  0  0  0  0  0
  -23.9043  -10.4283   21.0400 C   0  0  0  0  0  0
  -24.3611   -9.4195   21.9182 C   0  0  0  0  0  0
  -23.6311   -8.2221   22.0725 C   0  0  0  0  0  0
  -22.4275   -8.0282   21.3543 C   0  0  0  0  0  0
  -21.9921   -9.0235   20.4618 C   0  0  0  0  0  0
  -22.7237  -10.2137   20.3028 C   0  0  0  0  0  0
  -21.6836   -6.0750   22.5298 C   0  0  0  0  0  0
  -21.3997   -6.5621   23.8255 C   0  0  0  0  0  0
  -21.3661   -5.6767   24.9196 C   0  0  0  0  0  0
  -21.6056   -4.3030   24.7232 C   0  0  0  0  0  0
  -21.8811   -3.8145   23.4329 C   0  0  0  0  0  0
  -21.9188   -4.6982   22.3395 C   0  0  0  0  0  0
  -22.7871  -13.5278   21.1839 C   0  0  0  0  0  0
  -22.1664   -4.2161   21.0979 F   0  0  0  0  0  0
  -21.5643   -3.4504   25.7748 F   0  0  0  0  0  0
  -30.0492  -13.2443   20.4650 N   0  0  0  0  0  0
  -26.3057  -12.9275   20.3380 N   0  0  0  0  0  0
  -25.9293  -11.6434   20.5740 N   0  0  0  0  0  0
  -22.0451  -12.8307   22.0375 N   0  0  0  0  0  0
  -25.4355  -15.1854   20.4098 N   0  0  0  0  0  0
  -31.7747  -14.6369   19.9873 O   0  0  0  0  0  0
  -21.6612   -6.8892   21.4279 O   0  0  0  0  0  0
  -22.3608  -14.5593   20.6667 O   0  0  0  0  0  0
  -24.6131  -31.8700   23.2084 C   0  0  0  0  0  0
  -25.9048  -32.4848   23.8398 C   0  0  1  0  0  0
  -27.2392  -27.4327   20.1254 C   0  0  0  0  0  0
  -25.5876  -33.8623   24.2347 N   0  0  0  0  0  0
  -23.4025  -30.4987   21.5456 C   0  0  2  0  0  0
  -24.8583  -28.9553   20.1225 C   0  0  0  0  0  0
  -22.7403  -29.4728   22.4931 C   0  0  0  0  0  0
  -18.0311  -28.1425   22.8543 C   0  0  0  0  0  0
  -24.1483  -36.7329   23.2644 C   0  0  0  0  0  0
  -25.9310  -30.8370   21.3612 C   0  0  0  0  0  0
  -26.0134  -29.4655   20.7251 C   0  0  0  0  0  0
  -27.2105  -28.7075   20.7339 C   0  0  0  0  0  0
  -26.0761  -26.9482   19.4968 C   0  0  0  0  0  0
  -24.8820  -27.6916   19.5069 C   0  0  0  0  0  0
  -23.6194  -29.8259   20.1637 C   0  0  0  0  0  0
  -25.4113  -36.3098   24.0341 C   0  0  1  0  0  0
  -20.5919  -28.3758   23.1315 C   0  0  2  0  0  0
  -20.6784  -26.9501   22.5403 C   0  0  0  0  0  0
  -19.5756  -26.6434   21.5236 C   0  0  0  0  0  0
  -18.1960  -26.7986   22.1653 C   0  0  0  0  0  0
  -19.1568  -28.8901   23.2926 C   0  0  0  0  0  0
  -18.9470  -30.1501   23.8962 C   0  0  0  0  0  0
  -17.6467  -30.6634   24.0640 C   0  0  0  0  0  0
  -25.9048  -34.9476   23.5143 C   0  0  0  0  0  0
  -16.5360  -29.9152   23.6351 C   0  0  0  0  0  0
  -16.7293  -28.6553   23.0387 C   0  0  0  0  0  0
  -26.4459  -31.6592   25.0704 C   0  0  0  0  0  0
  -25.3729  -31.3698   26.1451 C   0  0  0  0  0  0
  -27.0295  -30.3009   24.6106 C   0  0  0  0  0  0
  -27.6013  -32.4302   25.7497 C   0  0  0  0  0  0
  -27.5590  -37.1823   24.8465 C   0  0  0  0  0  0
  -21.4141  -29.3114   22.3676 N   0  0  0  0  0  0
  -26.4302  -37.3780   23.9406 N   0  0  0  0  0  0
  -24.6668  -31.0810   22.0998 N   0  0  0  0  0  0
  -23.4167  -28.8295   23.2995 O   0  0  0  0  0  0
  -28.3560  -26.6202   20.1087 O   0  0  0  0  0  0
  -26.5589  -34.8921   22.4702 O   0  0  0  0  0  0
  -23.5295  -32.1455   23.7454 O   0  0  0  0  0  0
  -30.8385  -21.8496   23.0409 C   0  0  0  0  0  0
  -29.1681  -20.1601   21.6111 C   0  0  0  0  0  0
  -29.7608  -22.4282   22.3200 C   0  0  0  0  0  0
  -30.1793  -19.5809   22.4151 C   0  0  0  0  0  0
  -31.0340  -20.4563   23.1333 C   0  0  0  0  0  0
  -28.9185  -21.5541   21.5695 C   0  0  0  0  0  0
  -29.0983  -17.2772   21.9018 C   0  0  0  0  0  0
  -31.5812  -17.4138   22.0923 C   0  0  0  0  0  0
  -29.6645  -24.7926   21.1917 C   0  0  0  0  0  0
  -29.1630  -15.7529   22.0923 C   0  0  0  0  0  0
  -31.5766  -15.9016   22.4174 C   0  0  0  0  0  0
  -27.5959  -25.4712   22.2585 C   0  0  0  0  0  0
  -30.2613  -18.0459   22.5669 C   0  0  0  0  0  0
  -28.7371  -26.0184   21.3636 C   0  0  2  0  0  0
  -29.4466  -23.9456   22.4700 C   0  0  2  0  0  0
  -32.1570  -19.9700   24.0500 C   0  0  0  0  0  0
  -30.2492  -24.5938   23.6395 C   0  0  0  0  0  0
  -27.4724  -23.7042   24.0294 C   0  0  0  0  0  0
  -26.8222  -21.2047   20.3682 C   0  0  0  0  0  0
  -30.4801  -15.1903   21.7274 N   0  0  0  0  0  0
  -27.9909  -24.1140   22.7059 N   0  3  1  0  0  0
  -27.8494  -22.0811   20.8607 O   0  0  0  0  0  0
  -31.4633  -12.3953   19.0842 H   0  0  0  0  0  0
  -30.3345  -11.2651   19.7413 H   0  0  0  0  0  0
  -29.7217  -11.8504   17.3784 H   0  0  0  0  0  0
  -29.6654  -13.5423   17.7966 H   0  0  0  0  0  0
  -27.8152  -11.3255   18.7643 H   0  0  0  0  0  0
  -27.3583  -12.6875   17.7776 H   0  0  0  0  0  0
  -27.7448  -14.2415   19.6262 H   0  0  0  0  0  0
  -28.6999  -11.8156   21.2064 H   0  0  0  0  0  0
  -28.4727  -13.3289   21.9439 H   0  0  0  0  0  0
  -25.2745   -9.5705   22.4757 H   0  0  0  0  0  0
  -24.0001   -7.4615   22.7399 H   0  0  0  0  0  0
  -21.0846   -8.8735   19.8940 H   0  0  0  0  0  0
  -22.3667  -10.9651   19.6107 H   0  0  0  0  0  0
  -21.1960   -7.6125   23.9788 H   0  0  0  0  0  0
  -21.1504   -6.0458   25.9119 H   0  0  0  0  0  0
  -22.0586   -2.7599   23.2813 H   0  0  0  0  0  0
  -22.4016  -12.0017   22.4888 H   0  0  0  0  0  0
  -21.1036  -13.1358   22.2409 H   0  0  0  0  0  0
  -24.6673  -15.8393   20.5251 H   0  0  0  0  0  0
  -26.2863  -15.6320   20.0977 H   0  0  0  0  0  0
  -26.7164  -32.5563   23.1210 H   0  0  0  0  0  0
  -24.9949  -33.9789   25.0420 H   0  0  0  0  0  0
  -22.6903  -31.3147   21.4064 H   0  0  0  0  0  0
  -23.3678  -35.9723   23.3272 H   0  0  0  0  0  0
  -24.3559  -36.8948   22.2059 H   0  0  0  0  0  0
  -23.7312  -37.6561   23.6664 H   0  0  0  0  0  0
  -26.0335  -31.5936   20.5785 H   0  0  0  0  0  0
  -26.8197  -30.9023   21.9749 H   0  0  0  0  0  0
  -28.0957  -29.1059   21.2062 H   0  0  0  0  0  0
  -26.0937  -25.9732   19.0308 H   0  0  0  0  0  0
  -23.9974  -27.2957   19.0277 H   0  0  0  0  0  0
  -23.7351  -30.5982   19.4052 H   0  0  0  0  0  0
  -22.7416  -29.2501   19.8659 H   0  0  0  0  0  0
  -25.1294  -36.1963   25.0839 H   0  0  0  0  0  0
  -21.0081  -28.3337   24.1411 H   0  0  0  0  0  0
  -20.5779  -26.2376   23.3599 H   0  0  0  0  0  0
  -21.6660  -26.7578   22.1196 H   0  0  0  0  0  0
  -19.6887  -25.6343   21.1282 H   0  0  0  0  0  0
  -19.6660  -27.3250   20.6790 H   0  0  0  0  0  0
  -17.4233  -26.6844   21.4012 H   0  0  0  0  0  0
  -18.0304  -26.0083   22.9013 H   0  0  0  0  0  0
  -19.7929  -30.7356   24.2298 H   0  0  0  0  0  0
  -17.5017  -31.6321   24.5242 H   0  0  0  0  0  0
  -15.5374  -30.3090   23.7592 H   0  0  0  0  0  0
  -15.8702  -28.0892   22.7053 H   0  0  0  0  0  0
  -24.5918  -30.7044   25.7774 H   0  0  0  0  0  0
  -24.8930  -32.2869   26.4898 H   0  0  0  0  0  0
  -25.8078  -30.8859   27.0222 H   0  0  0  0  0  0
  -26.2833  -29.6736   24.1235 H   0  0  0  0  0  0
  -27.4115  -29.7306   25.4591 H   0  0  0  0  0  0
  -27.8640  -30.4216   23.9193 H   0  0  0  0  0  0
  -27.2658  -33.3618   26.2089 H   0  0  0  0  0  0
  -28.3851  -32.6877   25.0354 H   0  0  0  0  0  0
  -28.0667  -31.8433   26.5445 H   0  0  0  0  0  0
  -28.2610  -38.0109   24.7507 H   0  0  0  0  0  0
  -28.1094  -36.2654   24.6297 H   0  0  0  0  0  0
  -27.2319  -37.1489   25.8869 H   0  0  0  0  0  0
  -20.9253  -29.8769   21.6874 H   0  0  0  0  0  0
  -26.0127  -38.2835   24.1383 H   0  0  0  0  0  0
  -31.5269  -22.4570   23.6103 H   0  0  0  0  0  0
  -28.5306  -19.5151   21.0398 H   0  0  0  0  0  0
  -28.1469  -17.6350   22.2961 H   0  0  0  0  0  0
  -29.1048  -17.4701   20.8302 H   0  0  0  0  0  0
  -31.7314  -17.5953   21.0280 H   0  0  0  0  0  0
  -32.4345  -17.8722   22.5796 H   0  0  0  0  0  0
  -30.7072  -25.0732   21.0496 H   0  0  0  0  0  0
  -29.3599  -24.2395   20.3051 H   0  0  0  0  0  0
  -28.3530  -15.3703   21.4788 H   0  0  0  0  0  0
  -28.9361  -15.4766   23.1213 H   0  0  0  0  0  0
  -31.4511  -15.7605   23.4929 H   0  0  0  0  0  0
  -32.5472  -15.4591   22.1810 H   0  0  0  0  0  0
  -26.6338  -25.4048   21.7528 H   0  0  0  0  0  0
  -27.4753  -26.1225   23.1267 H   0  0  0  0  0  0
  -30.1802  -17.8568   23.6372 H   0  0  0  0  0  0
  -29.2882  -26.7723   21.9221 H   0  0  0  0  0  0
  -32.2721  -20.6459   24.8996 H   0  0  0  0  0  0
  -33.1158  -19.9464   23.5296 H   0  0  0  0  0  0
  -31.9699  -18.9825   24.4717 H   0  0  0  0  0  0
  -31.3141  -24.6616   23.4193 H   0  0  0  0  0  0
  -30.1468  -24.0350   24.5688 H   0  0  0  0  0  0
  -29.9226  -25.6070   23.8645 H   0  0  0  0  0  0
  -26.3857  -23.7630   24.0431 H   0  0  0  0  0  0
  -27.8468  -24.3401   24.8340 H   0  0  0  0  0  0
  -27.7554  -22.6734   24.2550 H   0  0  0  0  0  0
  -26.1236  -21.7753   19.7553 H   0  0  0  0  0  0
  -26.2399  -20.7703   21.1843 H   0  0  0  0  0  0
  -27.1912  -20.4056   19.7212 H   0  0  0  0  0  0
  -27.5977  -23.4671   22.0294 H   0  0  0  0  0  0
  1 25  1  0  0  0
  1 30  2  0  0  0
  1 90  1  0  0  0
  2  3  1  0  0  0
  2 25  1  0  0  0
  2 93  1  0  0  0
  2 94  1  0  0  0
  3  4  1  0  0  0
  3 95  1  0  0  0
  3 96  1  0  0  0
  4  5  1  0  0  0
  4 97  1  0  0  0
  4 98  1  0  0  0
  5  6  1  0  0  0
  5 26  1  0  0  0
  5 99  1  0  0  0
  6 25  1  0  0  0
  6100  1  0  0  0
  6101  1  0  0  0
  7  8  2  0  0  0
  7 26  1  0  0  0
  7 29  1  0  0  0
  8  9  1  0  0  0
  8 22  1  0  0  0
  9 10  1  0  0  0
  9 27  2  0  0  0
 10 11  2  0  0  0
 10 15  1  0  0  0
 11 12  1  0  0  0
 11102  1  0  0  0
 12 13  2  0  0  0
 12103  1  0  0  0
 13 14  1  0  0  0
 13 31  1  0  0  0
 14 15  2  0  0  0
 14104  1  0  0  0
 15105  1  0  0  0
 16 17  2  0  0  0
 16 21  1  0  0  0
 16 31  1  0  0  0
 17 18  1  0  0  0
 17106  1  0  0  0
 18 19  2  0  0  0
 18107  1  0  0  0
 19 20  1  0  0  0
 19 24  1  0  0  0
 20 21  2  0  0  0
 20108  1  0  0  0
 21 23  1  0  0  0
 22 28  1  0  0  0
 22 32  2  0  0  0
 26 27  1  0  0  0
 28109  1  0  0  0
 28110  1  0  0  0
 29111  1  0  0  0
 29112  1  0  0  0
 33 34  1  0  0  0
 33 66  1  0  0  0
 33 70  2  0  0  0
 34 36  1  0  0  0
 34 59  1  0  0  0
 34113  1  0  0  0
 35 44  2  0  0  0
 35 45  1  0  0  0
 35 68  1  0  0  0
 36 56  1  0  0  0
 36114  1  0  0  0
 37 39  1  0  0  0
 37 47  1  0  0  0
 37 66  1  0  0  0
 37115  1  0  0  0
 38 43  2  0  0  0
 38 46  1  0  0  0
 38 47  1  0  0  0
 39 64  1  0  0  0
 39 67  2  0  0  0
 40 52  1  0  0  0
 40 53  2  0  0  0
 40 58  1  0  0  0
 41116  1  0  0  0
 41117  1  0  0  0
 41118  1  0  0  0
 41 48  1  0  0  0
 42 43  1  0  0  0
 42 66  1  0  0  0
 42119  1  0  0  0
 42120  1  0  0  0
 43 44  1  0  0  0
 44121  1  0  0  0
 45 46  2  0  0  0
 45122  1  0  0  0
 46123  1  0  0  0
 47124  1  0  0  0
 47125  1  0  0  0
 48 56  1  0  0  0
 48 65  1  0  0  0
 48126  1  0  0  0
 49 50  1  0  0  0
 49 53  1  0  0  0
 49 64  1  0  0  0
 49127  1  0  0  0
 50 51  1  0  0  0
 50128  1  0  0  0
 50129  1  0  0  0
 51 52  1  0  0  0
 51130  1  0  0  0
 51131  1  0  0  0
 52132  1  0  0  0
 52133  1  0  0  0
 53 54  1  0  0  0
 54 55  2  0  0  0
 54134  1  0  0  0
 55 57  1  0  0  0
 55135  1  0  0  0
 56 69  2  0  0  0
 57 58  2  0  0  0
 57136  1  0  0  0
 58137  1  0  0  0
 59 60  1  0  0  0
 59 61  1  0  0  0
 59 62  1  0  0  0
 60138  1  0  0  0
 60139  1  0  0  0
 60140  1  0  0  0
 61141  1  0  0  0
 61142  1  0  0  0
 61143  1  0  0  0
 62144  1  0  0  0
 62145  1  0  0  0
 62146  1  0  0  0
 63 65  1  0  0  0
 63147  1  0  0  0
 63148  1  0  0  0
 63149  1  0  0  0
 64150  1  0  0  0
 65151  1  0  0  0
 68 84  1  0  0  0
 71 73  2  0  0  0
 71 75  1  0  0  0
 71152  1  0  0  0
 72 74  1  0  0  0
 72 76  2  0  0  0
 72153  1  0  0  0
 73 76  1  0  0  0
 73 85  1  0  0  0
 74 75  2  0  0  0
 74 83  1  0  0  0
 75 86  1  0  0  0
 76 92  1  0  0  0
 77 80  1  0  0  0
 77 83  1  0  0  0
 77154  1  0  0  0
 77155  1  0  0  0
 78 81  1  0  0  0
 78 83  1  0  0  0
 78156  1  0  0  0
 78157  1  0  0  0
 79 84  1  0  0  0
 79 85  1  0  0  0
 79158  1  0  0  0
 79159  1  0  0  0
 80 90  1  0  0  0
 80160  1  0  0  0
 80161  1  0  0  0
 81 90  1  0  0  0
 81162  1  0  0  0
 81163  1  0  0  0
 82 84  1  0  0  0
 82 91  1  0  0  0
 82164  1  0  0  0
 82165  1  0  0  0
 83166  1  0  0  0
 84167  1  0  0  0
 85 87  1  0  0  0
 85 91  1  0  0  0
 86168  1  0  0  0
 86169  1  0  0  0
 86170  1  0  0  0
 87171  1  0  0  0
 87172  1  0  0  0
 87173  1  0  0  0
 88174  1  0  0  0
 88175  1  0  0  0
 88176  1  0  0  0
 88 91  1  0  0  0
 89 92  1  0  0  0
 89177  1  0  0  0
 89178  1  0  0  0
 89179  1  0  0  0
 91180  1  0  0  0
M  CHG  1  91   1
M  ISO  4   1 100  68 101  84 101  90 100
M  END
> <chiral flag>
0

> <version>
0

> <s_m_source_file>
/data/baiqing/PycharmProjects/Reinvent-master-3.2/result/LINK_invent/BTK/process_docking_weight1_custom_sum_contain_oxygen_bond_distance_aromatic_linkinvent_7_9_3/rearranged_h_0157.sdf

> <i_m_source_file_index>
4

> <r_mmod_Potential_Energy-OPLS-2005>
159.955093383789

> <r_mmod_Stretch_Energy-OPLS-2005>
52.3270111083984

> <r_mmod_Bend_Energy-OPLS-2005>
165.858215332031

> <r_mmod_Torsional_Energy-OPLS-2005>
381.671661376953

> <r_mmod_Improper_Torsional_Energy-OPLS-2005>
6.78634071350098

> <r_mmod_Van_der_Waal_Energy-OPLS-2005>
190.802734375

> <r_mmod_Electrostatic_Energy-OPLS-2005>
-275.047912597656

> <r_mmod_Solvation_Energy-OPLS-2005>
-373.651092529297

> <b_mmod_Minimization_Converged-OPLS-2005>
0

> <r_mmod_RMS_Derivative-OPLS-2005>
7.48342561721802

$$$$
4
                    3D
 Structure written by MMmdl.
173182  0  0  1  0            999 V2000
  -30.7340  -14.6025   20.5513 C   0  0  0  0  0  0
  -30.4087  -12.3859   19.4723 C   0  0  0  0  0  0
  -29.4983  -12.4986   18.2329 C   0  0  0  0  0  0
  -28.0252  -12.3236   18.6396 C   0  0  0  0  0  0
  -27.6428  -13.2098   19.8508 C   0  0  2  0  0  0
  -28.6870  -13.1251   20.9949 C   0  0  0  0  0  0
  -25.2505  -13.8139   20.5663 C   0  0  0  0  0  0
  -24.1797  -13.0421   20.9212 C   0  0  0  0  0  0
  -24.6376  -11.6897   20.8744 C   0  0  0  0  0  0
  -23.9047  -10.4291   21.0402 C   0  0  0  0  0  0
  -24.3606   -9.4207   21.9172 C   0  0  0  0  0  0
  -23.6273   -8.2247   22.0753 C   0  0  0  0  0  0
  -22.4263   -8.0288   21.3536 C   0  0  0  0  0  0
  -21.9904   -9.0250   20.4634 C   0  0  0  0  0  0
  -22.7236  -10.2124   20.3039 C   0  0  0  0  0  0
  -21.6851   -6.0742   22.5275 C   0  0  0  0  0  0
  -21.4007   -6.5622   23.8214 C   0  0  0  0  0  0
  -21.3662   -5.6773   24.9169 C   0  0  0  0  0  0
  -21.6053   -4.3043   24.7216 C   0  0  0  0  0  0
  -21.8814   -3.8147   23.4335 C   0  0  0  0  0  0
  -21.9183   -4.6975   22.3398 C   0  0  0  0  0  0
  -22.7824  -13.5214   21.1867 C   0  0  0  0  0  0
  -22.1648   -4.2170   21.0973 F   0  0  0  0  0  0
  -21.5645   -3.4519   25.7718 F   0  0  0  0  0  0
  -30.0069  -13.4414   20.4331 N   0  0  0  0  0  0
  -26.2922  -12.9317   20.3274 N   0  0  0  0  0  0
  -25.9289  -11.6481   20.5756 N   0  0  0  0  0  0
  -22.0457  -12.8197   22.0412 N   0  0  0  0  0  0
  -25.4162  -15.1852   20.4010 N   0  0  0  0  0  0
  -31.8741  -14.6537   20.0804 O   0  0  0  0  0  0
  -21.6636   -6.8884   21.4237 O   0  0  0  0  0  0
  -22.3500  -14.5516   20.6713 O   0  0  0  0  0  0
  -24.6263  -31.8650   23.2118 C   0  0  0  0  0  0
  -25.9129  -32.4800   23.8428 C   0  0  1  0  0  0
  -27.2124  -27.3272   20.1004 C   0  0  0  0  0  0
  -25.5962  -33.8603   24.2347 N   0  0  0  0  0  0
  -23.4178  -30.4937   21.5560 C   0  0  2  0  0  0
  -24.8621  -28.9711   20.1090 C   0  0  0  0  0  0
  -22.7486  -29.4629   22.4967 C   0  0  0  0  0  0
  -18.0278  -28.1373   22.8479 C   0  0  0  0  0  0
  -24.1483  -36.7272   23.2624 C   0  0  0  0  0  0
  -25.9638  -30.7920   21.3925 C   0  0  0  0  0  0
  -26.0339  -29.4267   20.7259 C   0  0  0  0  0  0
  -27.2098  -28.6148   20.7228 C   0  0  0  0  0  0
  -26.0185  -26.9618   19.4195 C   0  0  0  0  0  0
  -24.8571  -27.7418   19.4481 C   0  0  0  0  0  0
  -23.6315  -29.8472   20.1657 C   0  0  0  0  0  0
  -25.4093  -36.3087   24.0339 C   0  0  1  0  0  0
  -20.5876  -28.3672   23.1274 C   0  0  2  0  0  0
  -20.6771  -26.9395   22.5389 C   0  0  0  0  0  0
  -19.5746  -26.6376   21.5196 C   0  0  0  0  0  0
  -18.1924  -26.7923   22.1597 C   0  0  0  0  0  0
  -19.1536  -28.8839   23.2870 C   0  0  0  0  0  0
  -18.9461  -30.1443   23.8895 C   0  0  0  0  0  0
  -17.6463  -30.6569   24.0551 C   0  0  0  0  0  0
  -25.9053  -34.9460   23.5137 C   0  0  0  0  0  0
  -16.5351  -29.9057   23.6348 C   0  0  0  0  0  0
  -16.7267  -28.6476   23.0367 C   0  0  0  0  0  0
  -26.4511  -31.6580   25.0789 C   0  0  0  0  0  0
  -25.3733  -31.3704   26.1504 C   0  0  0  0  0  0
  -27.0353  -30.2998   24.6257 C   0  0  0  0  0  0
  -27.6068  -32.4312   25.7567 C   0  0  0  0  0  0
  -27.5612  -37.1757   24.8428 C   0  0  0  0  0  0
  -21.4195  -29.3043   22.3707 N   0  0  0  0  0  0
  -26.4252  -37.3804   23.9477 N   0  0  0  0  0  0
  -24.6879  -31.0667   22.1085 N   0  0  0  0  0  0
  -23.4217  -28.8156   23.3026 O   0  0  0  0  0  0
  -28.2949  -26.4217   20.1863 O   0  0  0  0  0  0
  -26.5609  -34.8924   22.4694 O   0  0  0  0  0  0
  -23.5428  -32.1464   23.7428 O   0  0  0  0  0  0
  -29.6012  -23.5421   21.1750 C   0  0  0  0  0  0
  -28.7970  -21.2533   19.7625 C   0  0  0  0  0  0
  -28.7150  -23.7211   20.0847 C   0  0  0  0  0  0
  -30.0584  -22.2413   21.5712 C   0  0  0  0  0  0
  -28.3363  -22.5389   19.3766 C   0  0  0  0  0  0
  -29.6351  -21.0628   20.8822 C   0  0  0  0  0  0
  -31.4991  -17.8851   20.9159 C   0  0  0  0  0  0
  -29.0951  -17.6968   20.1289 C   0  0  0  0  0  0
  -31.1834  -16.6799   21.8494 C   0  0  0  0  0  0
  -28.9758  -16.4318   21.0421 C   0  0  0  0  0  0
  -30.2628  -18.6893   20.4311 C   0  0  0  0  0  0
  -27.3667  -22.6059   18.2041 C   0  0  0  0  0  0
  -29.2815  -22.0607   24.6077 C   0  0  0  0  0  0
  -32.4250  -22.6711   22.3444 C   0  0  0  0  0  0
  -27.9875  -25.0572   19.7086 C   0  0  0  0  0  0
  -30.5307  -22.7543   24.0473 C   0  0  0  0  0  0
  -31.0445  -22.1204   22.7375 C   0  0  1  0  0  0
  -30.2551  -15.7093   21.2257 N   0  0  0  0  0  0
  -29.9868  -19.7846   21.3472 O   0  0  0  0  0  0
  -31.4565  -12.4519   19.1744 H   0  0  0  0  0  0
  -30.3059  -11.4028   19.9333 H   0  0  0  0  0  0
  -29.7740  -11.7481   17.4904 H   0  0  0  0  0  0
  -29.6396  -13.4699   17.7565 H   0  0  0  0  0  0
  -27.8682  -11.2722   18.8789 H   0  0  0  0  0  0
  -27.3719  -12.5431   17.7942 H   0  0  0  0  0  0
  -27.6316  -14.2159   19.4416 H   0  0  0  0  0  0
  -28.6975  -12.1238   21.4271 H   0  0  0  0  0  0
  -28.4272  -13.7961   21.8149 H   0  0  0  0  0  0
  -25.2779   -9.5671   22.4707 H   0  0  0  0  0  0
  -23.9981   -7.4635   22.7470 H   0  0  0  0  0  0
  -21.0854   -8.8763   19.8915 H   0  0  0  0  0  0
  -22.3734  -10.9630   19.6109 H   0  0  0  0  0  0
  -21.1993   -7.6130   23.9727 H   0  0  0  0  0  0
  -21.1477   -6.0501   25.9075 H   0  0  0  0  0  0
  -22.0590   -2.7611   23.2815 H   0  0  0  0  0  0
  -22.4073  -11.9847   22.4787 H   0  0  0  0  0  0
  -21.1061  -13.1165   22.2591 H   0  0  0  0  0  0
  -24.6444  -15.8323   20.5132 H   0  0  0  0  0  0
  -26.2569  -15.6269   20.0534 H   0  0  0  0  0  0
  -26.7186  -32.5470   23.1165 H   0  0  0  0  0  0
  -25.0153  -33.9744   25.0525 H   0  0  0  0  0  0
  -22.7087  -31.3135   21.4213 H   0  0  0  0  0  0
  -23.3819  -35.9513   23.3120 H   0  0  0  0  0  0
  -24.3631  -36.9070   22.2080 H   0  0  0  0  0  0
  -23.7123  -37.6371   23.6751 H   0  0  0  0  0  0
  -26.1056  -31.5595   20.6310 H   0  0  0  0  0  0
  -26.8405  -30.8277   22.0278 H   0  0  0  0  0  0
  -28.1005  -28.9582   21.2301 H   0  0  0  0  0  0
  -25.9150  -26.0507   18.8511 H   0  0  0  0  0  0
  -23.9661  -27.3938   18.9440 H   0  0  0  0  0  0
  -23.7464  -30.6345   19.4193 H   0  0  0  0  0  0
  -22.7522  -29.2786   19.8589 H   0  0  0  0  0  0
  -25.1244  -36.1924   25.0820 H   0  0  0  0  0  0
  -20.9925  -28.3221   24.1407 H   0  0  0  0  0  0
  -20.5650  -26.2283   23.3584 H   0  0  0  0  0  0
  -21.6647  -26.7400   22.1197 H   0  0  0  0  0  0
  -19.6900  -25.6274   21.1258 H   0  0  0  0  0  0
  -19.6707  -27.3182   20.6715 H   0  0  0  0  0  0
  -17.4193  -26.6667   21.3999 H   0  0  0  0  0  0
  -18.0311  -26.0044   22.8972 H   0  0  0  0  0  0
  -19.7929  -30.7263   24.2264 H   0  0  0  0  0  0
  -17.5007  -31.6263   24.5122 H   0  0  0  0  0  0
  -15.5356  -30.2956   23.7673 H   0  0  0  0  0  0
  -15.8661  -28.0793   22.7097 H   0  0  0  0  0  0
  -24.5927  -30.7028   25.7841 H   0  0  0  0  0  0
  -24.8899  -32.2850   26.4939 H   0  0  0  0  0  0
  -25.8053  -30.8890   27.0283 H   0  0  0  0  0  0
  -26.2930  -29.6771   24.1244 H   0  0  0  0  0  0
  -27.3994  -29.7246   25.4783 H   0  0  0  0  0  0
  -27.8839  -30.4284   23.9529 H   0  0  0  0  0  0
  -27.2685  -33.3634   26.2102 H   0  0  0  0  0  0
  -28.3909  -32.6822   25.0411 H   0  0  0  0  0  0
  -28.0687  -31.8458   26.5532 H   0  0  0  0  0  0
  -28.2420  -38.0253   24.7764 H   0  0  0  0  0  0
  -28.1317  -36.2819   24.5858 H   0  0  0  0  0  0
  -27.2395  -37.0908   25.8823 H   0  0  0  0  0  0
  -20.9377  -29.8807   21.6950 H   0  0  0  0  0  0
  -26.0123  -38.2832   24.1648 H   0  0  0  0  0  0
  -29.9133  -24.4103   21.7358 H   0  0  0  0  0  0
  -28.4519  -20.3900   19.2126 H   0  0  0  0  0  0
  -32.0224  -17.4995   20.0399 H   0  0  0  0  0  0
  -32.2076  -18.5576   21.4016 H   0  0  0  0  0  0
  -28.1458  -18.2328   20.1162 H   0  0  0  0  0  0
  -29.2332  -17.3321   19.1094 H   0  0  0  0  0  0
  -30.7529  -17.0466   22.7825 H   0  0  0  0  0  0
  -32.1141  -16.1886   22.1399 H   0  0  0  0  0  0
  -28.2053  -15.7909   20.6396 H   0  0  0  0  0  0
  -28.5965  -16.7327   22.0190 H   0  0  0  0  0  0
  -30.5486  -19.1529   19.4855 H   0  0  0  0  0  0
  -27.1125  -21.6130   17.8318 H   0  0  0  0  0  0
  -27.8030  -23.1650   17.3753 H   0  0  0  0  0  0
  -26.4311  -23.0845   18.4970 H   0  0  0  0  0  0
  -28.9531  -22.5408   25.5299 H   0  0  0  0  0  0
  -29.4840  -21.0143   24.8389 H   0  0  0  0  0  0
  -28.4527  -22.0930   23.9001 H   0  0  0  0  0  0
  -32.8164  -22.1482   21.4706 H   0  0  0  0  0  0
  -33.1492  -22.5353   23.1496 H   0  0  0  0  0  0
  -32.3854  -23.7345   22.1087 H   0  0  0  0  0  0
  -26.9969  -24.7910   20.0775 H   0  0  0  0  0  0
  -27.9542  -25.1224   18.6202 H   0  0  0  0  0  0
  -31.3161  -22.6964   24.8029 H   0  0  0  0  0  0
  -30.3317  -23.8169   23.9109 H   0  0  0  0  0  0
  -31.2028  -21.0646   22.9555 H   0  0  0  0  0  0
  1 25  1  0  0  0
  1 30  2  0  0  0
  1 88  1  0  0  0
  2  3  1  0  0  0
  2 25  1  0  0  0
  2 90  1  0  0  0
  2 91  1  0  0  0
  3  4  1  0  0  0
  3 92  1  0  0  0
  3 93  1  0  0  0
  4  5  1  0  0  0
  4 94  1  0  0  0
  4 95  1  0  0  0
  5  6  1  0  0  0
  5 26  1  0  0  0
  5 96  1  0  0  0
  6 25  1  0  0  0
  6 97  1  0  0  0
  6 98  1  0  0  0
  7  8  2  0  0  0
  7 26  1  0  0  0
  7 29  1  0  0  0
  8  9  1  0  0  0
  8 22  1  0  0  0
  9 10  1  0  0  0
  9 27  2  0  0  0
 10 11  2  0  0  0
 10 15  1  0  0  0
 11 12  1  0  0  0
 11 99  1  0  0  0
 12 13  2  0  0  0
 12100  1  0  0  0
 13 14  1  0  0  0
 13 31  1  0  0  0
 14 15  2  0  0  0
 14101  1  0  0  0
 15102  1  0  0  0
 16 17  2  0  0  0
 16 21  1  0  0  0
 16 31  1  0  0  0
 17 18  1  0  0  0
 17103  1  0  0  0
 18 19  2  0  0  0
 18104  1  0  0  0
 19 20  1  0  0  0
 19 24  1  0  0  0
 20 21  2  0  0  0
 20105  1  0  0  0
 21 23  1  0  0  0
 22 28  1  0  0  0
 22 32  2  0  0  0
 26 27  1  0  0  0
 28106  1  0  0  0
 28107  1  0  0  0
 29108  1  0  0  0
 29109  1  0  0  0
 33 34  1  0  0  0
 33 66  1  0  0  0
 33 70  2  0  0  0
 34 36  1  0  0  0
 34 59  1  0  0  0
 34110  1  0  0  0
 35 44  2  0  0  0
 35 45  1  0  0  0
 35 68  1  0  0  0
 36 56  1  0  0  0
 36111  1  0  0  0
 37 39  1  0  0  0
 37 47  1  0  0  0
 37 66  1  0  0  0
 37112  1  0  0  0
 38 43  2  0  0  0
 38 46  1  0  0  0
 38 47  1  0  0  0
 39 64  1  0  0  0
 39 67  2  0  0  0
 40 52  1  0  0  0
 40 53  2  0  0  0
 40 58  1  0  0  0
 41113  1  0  0  0
 41114  1  0  0  0
 41115  1  0  0  0
 41 48  1  0  0  0
 42 43  1  0  0  0
 42 66  1  0  0  0
 42116  1  0  0  0
 42117  1  0  0  0
 43 44  1  0  0  0
 44118  1  0  0  0
 45 46  2  0  0  0
 45119  1  0  0  0
 46120  1  0  0  0
 47121  1  0  0  0
 47122  1  0  0  0
 48 56  1  0  0  0
 48 65  1  0  0  0
 48123  1  0  0  0
 49 50  1  0  0  0
 49 53  1  0  0  0
 49 64  1  0  0  0
 49124  1  0  0  0
 50 51  1  0  0  0
 50125  1  0  0  0
 50126  1  0  0  0
 51 52  1  0  0  0
 51127  1  0  0  0
 51128  1  0  0  0
 52129  1  0  0  0
 52130  1  0  0  0
 53 54  1  0  0  0
 54 55  2  0  0  0
 54131  1  0  0  0
 55 57  1  0  0  0
 55132  1  0  0  0
 56 69  2  0  0  0
 57 58  2  0  0  0
 57133  1  0  0  0
 58134  1  0  0  0
 59 60  1  0  0  0
 59 61  1  0  0  0
 59 62  1  0  0  0
 60135  1  0  0  0
 60136  1  0  0  0
 60137  1  0  0  0
 61138  1  0  0  0
 61139  1  0  0  0
 61140  1  0  0  0
 62141  1  0  0  0
 62142  1  0  0  0
 62143  1  0  0  0
 63 65  1  0  0  0
 63144  1  0  0  0
 63145  1  0  0  0
 63146  1  0  0  0
 64147  1  0  0  0
 65148  1  0  0  0
 68 85  1  0  0  0
 71 73  2  0  0  0
 71 74  1  0  0  0
 71149  1  0  0  0
 72 75  2  0  0  0
 72 76  1  0  0  0
 72150  1  0  0  0
 73 75  1  0  0  0
 73 85  1  0  0  0
 74 76  2  0  0  0
 74 87  1  0  0  0
 75 82  1  0  0  0
 76 89  1  0  0  0
 77 79  1  0  0  0
 77 81  1  0  0  0
 77151  1  0  0  0
 77152  1  0  0  0
 78 80  1  0  0  0
 78 81  1  0  0  0
 78153  1  0  0  0
 78154  1  0  0  0
 79 88  1  0  0  0
 79155  1  0  0  0
 79156  1  0  0  0
 80 88  1  0  0  0
 80157  1  0  0  0
 80158  1  0  0  0
 81 89  1  0  0  0
 81159  1  0  0  0
 82160  1  0  0  0
 82161  1  0  0  0
 82162  1  0  0  0
 83 86  1  0  0  0
 83163  1  0  0  0
 83164  1  0  0  0
 83165  1  0  0  0
 84166  1  0  0  0
 84167  1  0  0  0
 84168  1  0  0  0
 84 87  1  0  0  0
 85169  1  0  0  0
 85170  1  0  0  0
 86 87  1  0  0  0
 86171  1  0  0  0
 86172  1  0  0  0
 87173  1  0  0  0
M  ISO  4   1 100  68 101  85 101  88 100
M  END
> <chiral flag>
0

> <version>
0

> <s_m_source_file>
/data/baiqing/PycharmProjects/Reinvent-master-3.2/result/LINK_invent/BTK/process_docking_weight1_custom_sum_contain_oxygen_bond_distance_aromatic_linkinvent_7_9_3/rearranged_h_0157.sdf

> <i_m_source_file_index>
5

> <r_mmod_Potential_Energy-OPLS-2005>
342.550994873047

> <r_mmod_Stretch_Energy-OPLS-2005>
76.2698364257812

> <r_mmod_Bend_Energy-OPLS-2005>
185.686401367188

> <r_mmod_Torsional_Energy-OPLS-2005>
326.121490478516

> <r_mmod_Improper_Torsional_Energy-OPLS-2005>
4.37052726745605

> <r_mmod_Van_der_Waal_Energy-OPLS-2005>
170.520217895508

> <r_mmod_Electrostatic_Energy-OPLS-2005>
-277.099090576172

> <r_mmod_Solvation_Energy-OPLS-2005>
-194.296340942383

> <b_mmod_Minimization_Converged-OPLS-2005>
0

> <r_mmod_RMS_Derivative-OPLS-2005>
2.58131718635559

$$$$
5
                    3D
 Structure written by MMmdl.
164173  0  0  1  0            999 V2000
  -30.7348  -14.6029   20.5266 C   0  0  0  0  0  0
  -30.4054  -12.3864   19.4565 C   0  0  0  0  0  0
  -29.4934  -12.4914   18.2188 C   0  0  0  0  0  0
  -28.0196  -12.3102   18.6247 C   0  0  0  0  0  0
  -27.6309  -13.2000   19.8300 C   0  0  2  0  0  0
  -28.6781  -13.1492   20.9704 C   0  0  0  0  0  0
  -25.2522  -13.8156   20.5718 C   0  0  0  0  0  0
  -24.1786  -13.0421   20.9214 C   0  0  0  0  0  0
  -24.6342  -11.6888   20.8729 C   0  0  0  0  0  0
  -23.9045  -10.4285   21.0416 C   0  0  0  0  0  0
  -24.3626   -9.4211   21.9191 C   0  0  0  0  0  0
  -23.6320   -8.2232   22.0780 C   0  0  0  0  0  0
  -22.4302   -8.0266   21.3555 C   0  0  0  0  0  0
  -21.9910   -9.0237   20.4657 C   0  0  0  0  0  0
  -22.7231  -10.2116   20.3067 C   0  0  0  0  0  0
  -21.6855   -6.0728   22.5296 C   0  0  0  0  0  0
  -21.4025   -6.5644   23.8235 C   0  0  0  0  0  0
  -21.3658   -5.6790   24.9197 C   0  0  0  0  0  0
  -21.6060   -4.3058   24.7248 C   0  0  0  0  0  0
  -21.8830   -3.8142   23.4365 C   0  0  0  0  0  0
  -21.9214   -4.6954   22.3406 C   0  0  0  0  0  0
  -22.7806  -13.5194   21.1876 C   0  0  0  0  0  0
  -22.1674   -4.2132   21.0979 F   0  0  0  0  0  0
  -21.5615   -3.4538   25.7751 F   0  0  0  0  0  0
  -30.0013  -13.4472   20.4033 N   0  0  0  0  0  0
  -26.2877  -12.9287   20.3185 N   0  0  0  0  0  0
  -25.9248  -11.6464   20.5700 N   0  0  0  0  0  0
  -22.0444  -12.8190   22.0436 N   0  0  0  0  0  0
  -25.4241  -15.1898   20.4256 N   0  0  0  0  0  0
  -31.8911  -14.6497   20.0996 O   0  0  0  0  0  0
  -21.6656   -6.8873   21.4263 O   0  0  0  0  0  0
  -22.3490  -14.5475   20.6674 O   0  0  0  0  0  0
  -24.6266  -31.8678   23.2118 C   0  0  0  0  0  0
  -25.9137  -32.4813   23.8402 C   0  0  1  0  0  0
  -27.1850  -27.3388   20.0804 C   0  0  0  0  0  0
  -25.5982  -33.8609   24.2333 N   0  0  0  0  0  0
  -23.4106  -30.5069   21.5575 C   0  0  2  0  0  0
  -24.8459  -28.9882   20.1087 C   0  0  0  0  0  0
  -22.7444  -29.4705   22.4933 C   0  0  0  0  0  0
  -18.0290  -28.1360   22.8495 C   0  0  0  0  0  0
  -24.1504  -36.7302   23.2614 C   0  0  0  0  0  0
  -25.9576  -30.8045   21.3799 C   0  0  0  0  0  0
  -26.0254  -29.4413   20.7114 C   0  0  0  0  0  0
  -27.2013  -28.6287   20.6968 C   0  0  0  0  0  0
  -25.9679  -26.9606   19.4475 C   0  0  0  0  0  0
  -24.8172  -27.7492   19.4735 C   0  0  0  0  0  0
  -23.6183  -29.8675   20.1662 C   0  0  0  0  0  0
  -25.4110  -36.3086   24.0325 C   0  0  1  0  0  0
  -20.5899  -28.3685   23.1281 C   0  0  2  0  0  0
  -20.6784  -26.9412   22.5401 C   0  0  0  0  0  0
  -19.5754  -26.6369   21.5210 C   0  0  0  0  0  0
  -18.1934  -26.7918   22.1618 C   0  0  0  0  0  0
  -19.1545  -28.8844   23.2894 C   0  0  0  0  0  0
  -18.9463  -30.1440   23.8906 C   0  0  0  0  0  0
  -17.6467  -30.6583   24.0550 C   0  0  0  0  0  0
  -25.9070  -34.9465   23.5126 C   0  0  0  0  0  0
  -16.5354  -29.9077   23.6322 C   0  0  0  0  0  0
  -16.7281  -28.6481   23.0373 C   0  0  0  0  0  0
  -26.4504  -31.6586   25.0752 C   0  0  0  0  0  0
  -25.3755  -31.3732   26.1483 C   0  0  0  0  0  0
  -27.0308  -30.3009   24.6164 C   0  0  0  0  0  0
  -27.6088  -32.4274   25.7525 C   0  0  0  0  0  0
  -27.5614  -37.1759   24.8411 C   0  0  0  0  0  0
  -21.4158  -29.3074   22.3688 N   0  0  0  0  0  0
  -26.4264  -37.3809   23.9454 N   0  0  0  0  0  0
  -24.6851  -31.0723   22.1066 N   0  0  0  0  0  0
  -23.4210  -28.8208   23.2946 O   0  0  0  0  0  0
  -28.2692  -26.4378   20.1218 O   0  0  0  0  0  0
  -26.5604  -34.8918   22.4668 O   0  0  0  0  0  0
  -23.5452  -32.1462   23.7478 O   0  0  0  0  0  0
  -29.4086  -23.3499   21.0946 C   0  0  0  0  0  0
  -28.7252  -22.8755   18.8256 C   0  0  0  0  0  0
  -28.7720  -23.7913   19.9080 C   0  0  0  0  0  0
  -29.9933  -22.0474   21.1756 C   0  0  0  0  0  0
  -29.2958  -21.5830   18.8961 C   0  0  0  0  0  0
  -29.9381  -21.1378   20.0770 C   0  0  0  0  0  0
  -29.2867  -17.8171   20.0281 C   0  0  0  0  0  0
  -31.4489  -17.9398   21.2079 C   0  0  0  0  0  0
  -29.0032  -16.4656   20.7655 C   0  0  0  0  0  0
  -31.0933  -16.6145   21.9464 C   0  0  0  0  0  0
  -30.2008  -18.7711   20.8282 C   0  0  0  0  0  0
  -30.6897  -21.6344   22.4587 C   0  0  0  0  0  0
  -29.1770  -20.6722   17.6839 C   0  0  0  0  0  0
  -27.8745  -25.0540   19.8040 C   0  0  0  0  0  0
  -30.2200  -15.7123   21.1577 N   0  0  0  0  0  0
  -30.6194  -19.9202   20.0500 O   0  0  0  0  0  0
  -31.4512  -12.4561   19.1538 H   0  0  0  0  0  0
  -30.3063  -11.4095   19.9306 H   0  0  0  0  0  0
  -29.7710  -11.7371   17.4808 H   0  0  0  0  0  0
  -29.6310  -13.4615   17.7377 H   0  0  0  0  0  0
  -27.8616  -11.2603   18.8691 H   0  0  0  0  0  0
  -27.3750  -12.5256   17.7728 H   0  0  0  0  0  0
  -27.5934  -14.1908   19.3964 H   0  0  0  0  0  0
  -28.6877  -12.1608   21.4312 H   0  0  0  0  0  0
  -28.4175  -13.8508   21.7613 H   0  0  0  0  0  0
  -25.2798   -9.5716   22.4708 H   0  0  0  0  0  0
  -24.0085   -7.4652   22.7492 H   0  0  0  0  0  0
  -21.0861   -8.8749   19.8931 H   0  0  0  0  0  0
  -22.3725  -10.9655   19.6155 H   0  0  0  0  0  0
  -21.2007   -7.6164   23.9746 H   0  0  0  0  0  0
  -21.1465   -6.0513   25.9112 H   0  0  0  0  0  0
  -22.0603   -2.7596   23.2877 H   0  0  0  0  0  0
  -22.4065  -11.9893   22.4877 H   0  0  0  0  0  0
  -21.1007  -13.1164   22.2488 H   0  0  0  0  0  0
  -24.6609  -15.8404   20.5864 H   0  0  0  0  0  0
  -26.2700  -15.6430   20.1110 H   0  0  0  0  0  0
  -26.7201  -32.5492   23.1147 H   0  0  0  0  0  0
  -25.0121  -33.9763   25.0472 H   0  0  0  0  0  0
  -22.7039  -31.3297   21.4305 H   0  0  0  0  0  0
  -23.3816  -35.9580   23.3127 H   0  0  0  0  0  0
  -24.3637  -36.9084   22.2065 H   0  0  0  0  0  0
  -23.7178  -37.6421   23.6737 H   0  0  0  0  0  0
  -26.0862  -31.5726   20.6157 H   0  0  0  0  0  0
  -26.8409  -30.8476   22.0044 H   0  0  0  0  0  0
  -28.1002  -28.9716   21.1919 H   0  0  0  0  0  0
  -25.8147  -26.0314   18.9228 H   0  0  0  0  0  0
  -23.9109  -27.3956   19.0007 H   0  0  0  0  0  0
  -23.7355  -30.6544   19.4197 H   0  0  0  0  0  0
  -22.7336  -29.3050   19.8611 H   0  0  0  0  0  0
  -25.1266  -36.1913   25.0811 H   0  0  0  0  0  0
  -20.9995  -28.3252   24.1401 H   0  0  0  0  0  0
  -20.5693  -26.2287   23.3581 H   0  0  0  0  0  0
  -21.6648  -26.7445   22.1187 H   0  0  0  0  0  0
  -19.6908  -25.6288   21.1225 H   0  0  0  0  0  0
  -19.6684  -27.3182   20.6749 H   0  0  0  0  0  0
  -17.4204  -26.6693   21.4017 H   0  0  0  0  0  0
  -18.0325  -26.0044   22.8996 H   0  0  0  0  0  0
  -19.7936  -30.7244   24.2289 H   0  0  0  0  0  0
  -17.5023  -31.6268   24.5145 H   0  0  0  0  0  0
  -15.5362  -30.2983   23.7630 H   0  0  0  0  0  0
  -15.8676  -28.0780   22.7119 H   0  0  0  0  0  0
  -24.5923  -30.7080   25.7819 H   0  0  0  0  0  0
  -24.8948  -32.2914   26.4882 H   0  0  0  0  0  0
  -25.8097  -30.8916   27.0261 H   0  0  0  0  0  0
  -26.2864  -29.6777   24.1192 H   0  0  0  0  0  0
  -27.4020  -29.7230   25.4638 H   0  0  0  0  0  0
  -27.8735  -30.4263   23.9360 H   0  0  0  0  0  0
  -27.2744  -33.3608   26.2049 H   0  0  0  0  0  0
  -28.3946  -32.6753   25.0386 H   0  0  0  0  0  0
  -28.0675  -31.8392   26.5480 H   0  0  0  0  0  0
  -28.2447  -38.0234   24.7743 H   0  0  0  0  0  0
  -28.1298  -36.2797   24.5880 H   0  0  0  0  0  0
  -27.2377  -37.0966   25.8802 H   0  0  0  0  0  0
  -20.9307  -29.8834   21.6944 H   0  0  0  0  0  0
  -26.0127  -38.2839   24.1633 H   0  0  0  0  0  0
  -29.4159  -24.0046   21.9582 H   0  0  0  0  0  0
  -28.1914  -23.1451   17.9233 H   0  0  0  0  0  0
  -28.3490  -18.3259   19.8009 H   0  0  0  0  0  0
  -29.7482  -17.6028   19.0638 H   0  0  0  0  0  0
  -32.0141  -17.6981   20.3037 H   0  0  0  0  0  0
  -32.1194  -18.5408   21.8230 H   0  0  0  0  0  0
  -28.3673  -15.8864   20.1190 H   0  0  0  0  0  0
  -28.4230  -16.6588   21.6686 H   0  0  0  0  0  0
  -30.5907  -16.8483   22.8848 H   0  0  0  0  0  0
  -32.0133  -16.1037   22.2369 H   0  0  0  0  0  0
  -29.6846  -19.0871   21.7348 H   0  0  0  0  0  0
  -30.8841  -22.4902   23.1033 H   0  0  0  0  0  0
  -31.6446  -21.1564   22.2366 H   0  0  0  0  0  0
  -30.0706  -20.9326   23.0158 H   0  0  0  0  0  0
  -29.2606  -21.2390   16.7553 H   0  0  0  0  0  0
  -28.2060  -20.1716   17.6842 H   0  0  0  0  0  0
  -29.9484  -19.9035   17.6657 H   0  0  0  0  0  0
  -27.0022  -24.7959   20.4071 H   0  0  0  0  0  0
  -27.5740  -25.0566   18.7567 H   0  0  0  0  0  0
  1 25  1  0  0  0
  1 30  2  0  0  0
  1 85  1  0  0  0
  2  3  1  0  0  0
  2 25  1  0  0  0
  2 87  1  0  0  0
  2 88  1  0  0  0
  3  4  1  0  0  0
  3 89  1  0  0  0
  3 90  1  0  0  0
  4  5  1  0  0  0
  4 91  1  0  0  0
  4 92  1  0  0  0
  5  6  1  0  0  0
  5 26  1  0  0  0
  5 93  1  0  0  0
  6 25  1  0  0  0
  6 94  1  0  0  0
  6 95  1  0  0  0
  7  8  2  0  0  0
  7 26  1  0  0  0
  7 29  1  0  0  0
  8  9  1  0  0  0
  8 22  1  0  0  0
  9 10  1  0  0  0
  9 27  2  0  0  0
 10 11  2  0  0  0
 10 15  1  0  0  0
 11 12  1  0  0  0
 11 96  1  0  0  0
 12 13  2  0  0  0
 12 97  1  0  0  0
 13 14  1  0  0  0
 13 31  1  0  0  0
 14 15  2  0  0  0
 14 98  1  0  0  0
 15 99  1  0  0  0
 16 17  2  0  0  0
 16 21  1  0  0  0
 16 31  1  0  0  0
 17 18  1  0  0  0
 17100  1  0  0  0
 18 19  2  0  0  0
 18101  1  0  0  0
 19 20  1  0  0  0
 19 24  1  0  0  0
 20 21  2  0  0  0
 20102  1  0  0  0
 21 23  1  0  0  0
 22 28  1  0  0  0
 22 32  2  0  0  0
 26 27  1  0  0  0
 28103  1  0  0  0
 28104  1  0  0  0
 29105  1  0  0  0
 29106  1  0  0  0
 33 34  1  0  0  0
 33 66  1  0  0  0
 33 70  2  0  0  0
 34 36  1  0  0  0
 34 59  1  0  0  0
 34107  1  0  0  0
 35 44  2  0  0  0
 35 45  1  0  0  0
 35 68  1  0  0  0
 36 56  1  0  0  0
 36108  1  0  0  0
 37 39  1  0  0  0
 37 47  1  0  0  0
 37 66  1  0  0  0
 37109  1  0  0  0
 38 43  2  0  0  0
 38 46  1  0  0  0
 38 47  1  0  0  0
 39 64  1  0  0  0
 39 67  2  0  0  0
 40 52  1  0  0  0
 40 53  2  0  0  0
 40 58  1  0  0  0
 41110  1  0  0  0
 41111  1  0  0  0
 41112  1  0  0  0
 41 48  1  0  0  0
 42 43  1  0  0  0
 42 66  1  0  0  0
 42113  1  0  0  0
 42114  1  0  0  0
 43 44  1  0  0  0
 44115  1  0  0  0
 45 46  2  0  0  0
 45116  1  0  0  0
 46117  1  0  0  0
 47118  1  0  0  0
 47119  1  0  0  0
 48 56  1  0  0  0
 48 65  1  0  0  0
 48120  1  0  0  0
 49 50  1  0  0  0
 49 53  1  0  0  0
 49 64  1  0  0  0
 49121  1  0  0  0
 50 51  1  0  0  0
 50122  1  0  0  0
 50123  1  0  0  0
 51 52  1  0  0  0
 51124  1  0  0  0
 51125  1  0  0  0
 52126  1  0  0  0
 52127  1  0  0  0
 53 54  1  0  0  0
 54 55  2  0  0  0
 54128  1  0  0  0
 55 57  1  0  0  0
 55129  1  0  0  0
 56 69  2  0  0  0
 57 58  2  0  0  0
 57130  1  0  0  0
 58131  1  0  0  0
 59 60  1  0  0  0
 59 61  1  0  0  0
 59 62  1  0  0  0
 60132  1  0  0  0
 60133  1  0  0  0
 60134  1  0  0  0
 61135  1  0  0  0
 61136  1  0  0  0
 61137  1  0  0  0
 62138  1  0  0  0
 62139  1  0  0  0
 62140  1  0  0  0
 63 65  1  0  0  0
 63141  1  0  0  0
 63142  1  0  0  0
 63143  1  0  0  0
 64144  1  0  0  0
 65145  1  0  0  0
 68 84  1  0  0  0
 71 73  2  0  0  0
 71 74  1  0  0  0
 71146  1  0  0  0
 72 73  1  0  0  0
 72 75  2  0  0  0
 72147  1  0  0  0
 73 84  1  0  0  0
 74 76  2  0  0  0
 74 82  1  0  0  0
 75 76  1  0  0  0
 75 83  1  0  0  0
 76 86  1  0  0  0
 77 79  1  0  0  0
 77 81  1  0  0  0
 77148  1  0  0  0
 77149  1  0  0  0
 78 80  1  0  0  0
 78 81  1  0  0  0
 78150  1  0  0  0
 78151  1  0  0  0
 79 85  1  0  0  0
 79152  1  0  0  0
 79153  1  0  0  0
 80 85  1  0  0  0
 80154  1  0  0  0
 80155  1  0  0  0
 81 86  1  0  0  0
 81156  1  0  0  0
 82157  1  0  0  0
 82158  1  0  0  0
 82159  1  0  0  0
 83160  1  0  0  0
 83161  1  0  0  0
 83162  1  0  0  0
 84163  1  0  0  0
 84164  1  0  0  0
M  ISO  4   1 100  68 101  84 101  85 100
M  END
> <chiral flag>
0

> <version>
0

> <s_m_source_file>
/data/baiqing/PycharmProjects/Reinvent-master-3.2/result/LINK_invent/BTK/process_docking_weight1_custom_sum_contain_oxygen_bond_distance_aromatic_linkinvent_7_9_3/rearranged_h_0157.sdf

> <i_m_source_file_index>
6

> <r_mmod_Potential_Energy-OPLS-2005>
297.333435058594

> <r_mmod_Stretch_Energy-OPLS-2005>
66.3791275024414

> <r_mmod_Bend_Energy-OPLS-2005>
162.955047607422

> <r_mmod_Torsional_Energy-OPLS-2005>
339.39892578125

> <r_mmod_Improper_Torsional_Energy-OPLS-2005>
5.763587474823

> <r_mmod_Van_der_Waal_Energy-OPLS-2005>
168.359085083008

> <r_mmod_Electrostatic_Energy-OPLS-2005>
-294.994934082031

> <r_mmod_Solvation_Energy-OPLS-2005>
-202.230010986328

> <b_mmod_Minimization_Converged-OPLS-2005>
0

> <r_mmod_RMS_Derivative-OPLS-2005>
3.99719262123108

$$$$
6
                    3D
 Structure written by MMmdl.
172181  0  0  1  0            999 V2000
  -30.7008  -14.6717   20.3674 C   0  0  0  0  0  0
  -30.4119  -12.3684   19.4888 C   0  0  0  0  0  0
  -29.4965  -12.3656   18.2476 C   0  0  0  0  0  0
  -28.0088  -12.2951   18.6556 C   0  0  0  0  0  0
  -27.6229  -13.2015   19.8582 C   0  0  2  0  0  0
  -28.6943  -13.1982   20.9714 C   0  0  0  0  0  0
  -25.2453  -13.8073   20.5845 C   0  0  0  0  0  0
  -24.1736  -13.0323   20.9313 C   0  0  0  0  0  0
  -24.6331  -11.6819   20.8874 C   0  0  0  0  0  0
  -23.9034  -10.4213   21.0483 C   0  0  0  0  0  0
  -24.3585   -9.4116   21.9236 C   0  0  0  0  0  0
  -23.6263   -8.2149   22.0746 C   0  0  0  0  0  0
  -22.4253   -8.0230   21.3522 C   0  0  0  0  0  0
  -21.9898   -9.0215   20.4641 C   0  0  0  0  0  0
  -22.7231  -10.2088   20.3098 C   0  0  0  0  0  0
  -21.6817   -6.0722   22.5277 C   0  0  0  0  0  0
  -21.3996   -6.5630   23.8215 C   0  0  0  0  0  0
  -21.3658   -5.6781   24.9177 C   0  0  0  0  0  0
  -21.6040   -4.3047   24.7223 C   0  0  0  0  0  0
  -21.8817   -3.8140   23.4343 C   0  0  0  0  0  0
  -21.9174   -4.6955   22.3396 C   0  0  0  0  0  0
  -22.7772  -13.5142   21.1915 C   0  0  0  0  0  0
  -22.1656   -4.2150   21.0973 F   0  0  0  0  0  0
  -21.5622   -3.4530   25.7728 F   0  0  0  0  0  0
  -29.9922  -13.4913   20.3475 N   0  0  0  0  0  0
  -26.2861  -12.9215   20.3523 N   0  0  0  0  0  0
  -25.9256  -11.6396   20.5984 N   0  0  0  0  0  0
  -22.0432  -12.8148   22.0503 N   0  0  0  0  0  0
  -25.4026  -15.1807   20.4270 N   0  0  0  0  0  0
  -31.9271  -14.6503   20.2550 O   0  0  0  0  0  0
  -21.6585   -6.8854   21.4238 O   0  0  0  0  0  0
  -22.3483  -14.5435   20.6737 O   0  0  0  0  0  0
  -24.6219  -31.8645   23.2022 C   0  0  0  0  0  0
  -25.9068  -32.4808   23.8360 C   0  0  1  0  0  0
  -27.2246  -27.3620   20.1158 C   0  0  0  0  0  0
  -25.5883  -33.8601   24.2272 N   0  0  0  0  0  0
  -23.4164  -30.4889   21.5420 C   0  0  2  0  0  0
  -24.8663  -28.9546   20.1051 C   0  0  0  0  0  0
  -22.7467  -29.4655   22.4901 C   0  0  0  0  0  0
  -18.0295  -28.1392   22.8483 C   0  0  0  0  0  0
  -24.1499  -36.7325   23.2639 C   0  0  0  0  0  0
  -25.9552  -30.8088   21.3707 C   0  0  0  0  0  0
  -26.0343  -29.4422   20.7074 C   0  0  0  0  0  0
  -27.2232  -28.6580   20.7033 C   0  0  0  0  0  0
  -26.0433  -26.9236   19.4795 C   0  0  0  0  0  0
  -24.8694  -27.6984   19.4812 C   0  0  0  0  0  0
  -23.6313  -29.8275   20.1559 C   0  0  0  0  0  0
  -25.4122  -36.3109   24.0321 C   0  0  1  0  0  0
  -20.5901  -28.3720   23.1264 C   0  0  2  0  0  0
  -20.6792  -26.9436   22.5410 C   0  0  0  0  0  0
  -19.5772  -26.6399   21.5204 C   0  0  0  0  0  0
  -18.1947  -26.7943   22.1605 C   0  0  0  0  0  0
  -19.1546  -28.8863   23.2886 C   0  0  0  0  0  0
  -18.9462  -30.1455   23.8935 C   0  0  0  0  0  0
  -17.6462  -30.6597   24.0576 C   0  0  0  0  0  0
  -25.9050  -34.9464   23.5105 C   0  0  0  0  0  0
  -16.5358  -29.9112   23.6301 C   0  0  0  0  0  0
  -16.7283  -28.6519   23.0340 C   0  0  0  0  0  0
  -26.4453  -31.6617   25.0717 C   0  0  0  0  0  0
  -25.3673  -31.3709   26.1427 C   0  0  0  0  0  0
  -27.0313  -30.3055   24.6148 C   0  0  0  0  0  0
  -27.6037  -32.4365   25.7459 C   0  0  0  0  0  0
  -27.5600  -37.1802   24.8448 C   0  0  0  0  0  0
  -21.4183  -29.3070   22.3638 N   0  0  0  0  0  0
  -26.4316  -37.3787   23.9382 N   0  0  0  0  0  0
  -24.6819  -31.0697   22.0953 N   0  0  0  0  0  0
  -23.4204  -28.8185   23.2969 O   0  0  0  0  0  0
  -28.3065  -26.4850   20.1900 O   0  0  0  0  0  0
  -26.5645  -34.8935   22.4692 O   0  0  0  0  0  0
  -23.5379  -32.1401   23.7366 O   0  0  0  0  0  0
  -29.2526  -21.7499   19.7688 C   0  0  0  0  0  0
  -30.2263  -22.2160   21.9491 C   0  0  0  0  0  0
  -28.6182  -23.0393   19.7752 C   0  0  0  0  0  0
  -29.7297  -23.5604   21.8692 C   0  0  0  0  0  0
  -30.0088  -21.2779   20.8892 C   0  0  0  0  0  0
  -28.8461  -23.9663   20.8303 C   0  0  0  0  0  0
  -29.7700  -17.0455   18.0670 C   0  0  0  0  0  0
  -31.0635  -17.4537   18.7450 C   0  0  0  0  0  0
  -29.1609  -16.0265   19.0290 C   0  0  0  0  0  0
  -30.7497  -17.2277   20.2335 C   0  0  1  0  0  0
  -29.1314  -20.8790   18.5257 C   0  0  0  0  0  0
  -31.0196  -21.7869   23.1861 C   0  0  0  0  0  0
  -27.6525  -23.4586   18.6626 C   0  0  0  0  0  0
  -30.1479  -24.5952   22.9107 C   0  0  0  0  0  0
  -30.7367  -19.8689   20.8786 C   0  0  0  0  0  0
  -27.9888  -25.2778   20.9632 C   0  0  0  0  0  0
  -29.9406  -18.4899   20.8089 C   0  0  0  0  0  0
  -30.0378  -15.8864   20.2103 N   0  0  0  0  0  0
  -31.4585  -12.4318   19.1876 H   0  0  0  0  0  0
  -30.3190  -11.4292   20.0379 H   0  0  0  0  0  0
  -29.7334  -11.4944   17.6339 H   0  0  0  0  0  0
  -29.6927  -13.2290   17.6167 H   0  0  0  0  0  0
  -27.8042  -11.2553   18.9120 H   0  0  0  0  0  0
  -27.3748  -12.5216   17.7982 H   0  0  0  0  0  0
  -27.5399  -14.2018   19.4690 H   0  0  0  0  0  0
  -28.7248  -12.2295   21.4745 H   0  0  0  0  0  0
  -28.4561  -13.9403   21.7357 H   0  0  0  0  0  0
  -25.2715   -9.5546   22.4856 H   0  0  0  0  0  0
  -23.9953   -7.4493   22.7426 H   0  0  0  0  0  0
  -21.0846   -8.8761   19.8924 H   0  0  0  0  0  0
  -22.3726  -10.9658   19.6231 H   0  0  0  0  0  0
  -21.2007   -7.6143   23.9723 H   0  0  0  0  0  0
  -21.1490   -6.0512   25.9078 H   0  0  0  0  0  0
  -22.0603   -2.7608   23.2832 H   0  0  0  0  0  0
  -22.4078  -11.9865   22.4969 H   0  0  0  0  0  0
  -21.1053  -13.1165   22.2699 H   0  0  0  0  0  0
  -24.6246  -15.8179   20.5629 H   0  0  0  0  0  0
  -26.2534  -15.6451   20.1373 H   0  0  0  0  0  0
  -26.7131  -32.5495   23.1116 H   0  0  0  0  0  0
  -24.9964  -33.9748   25.0368 H   0  0  0  0  0  0
  -22.7079  -31.3073   21.3987 H   0  0  0  0  0  0
  -23.3772  -35.9654   23.3297 H   0  0  0  0  0  0
  -24.3585  -36.8960   22.2057 H   0  0  0  0  0  0
  -23.7249  -37.6510   23.6689 H   0  0  0  0  0  0
  -26.0856  -31.5791   20.6092 H   0  0  0  0  0  0
  -26.8331  -30.8524   22.0020 H   0  0  0  0  0  0
  -28.1205  -29.0222   21.1838 H   0  0  0  0  0  0
  -26.0108  -25.9542   19.0023 H   0  0  0  0  0  0
  -23.9735  -27.3189   19.0098 H   0  0  0  0  0  0
  -23.7438  -30.6041   19.3980 H   0  0  0  0  0  0
  -22.7527  -29.2509   19.8596 H   0  0  0  0  0  0
  -25.1309  -36.1980   25.0817 H   0  0  0  0  0  0
  -20.9998  -28.3344   24.1385 H   0  0  0  0  0  0
  -20.5688  -26.2346   23.3622 H   0  0  0  0  0  0
  -21.6665  -26.7482   22.1213 H   0  0  0  0  0  0
  -19.6948  -25.6303   21.1254 H   0  0  0  0  0  0
  -19.6723  -27.3193   20.6718 H   0  0  0  0  0  0
  -17.4222  -26.6698   21.4004 H   0  0  0  0  0  0
  -18.0348  -26.0079   22.8985 H   0  0  0  0  0  0
  -19.7934  -30.7237   24.2370 H   0  0  0  0  0  0
  -17.5023  -31.6276   24.5182 H   0  0  0  0  0  0
  -15.5364  -30.3037   23.7589 H   0  0  0  0  0  0
  -15.8682  -28.0847   22.7048 H   0  0  0  0  0  0
  -24.5923  -30.6980   25.7721 H   0  0  0  0  0  0
  -24.8750  -32.2832   26.4807 H   0  0  0  0  0  0
  -25.7987  -30.8928   27.0229 H   0  0  0  0  0  0
  -26.2871  -29.6784   24.1208 H   0  0  0  0  0  0
  -27.4059  -29.7334   25.4646 H   0  0  0  0  0  0
  -27.8724  -30.4356   23.9334 H   0  0  0  0  0  0
  -27.2678  -33.3689   26.2005 H   0  0  0  0  0  0
  -28.3822  -32.6880   25.0248 H   0  0  0  0  0  0
  -28.0724  -31.8503   26.5361 H   0  0  0  0  0  0
  -28.2606  -38.0118   24.7546 H   0  0  0  0  0  0
  -28.1122  -36.2650   24.6243 H   0  0  0  0  0  0
  -27.2322  -37.1411   25.8852 H   0  0  0  0  0  0
  -20.9354  -29.8775   21.6829 H   0  0  0  0  0  0
  -26.0223  -38.2874   24.1387 H   0  0  0  0  0  0
  -29.9467  -16.6259   17.0753 H   0  0  0  0  0  0
  -29.0867  -17.8878   17.9529 H   0  0  0  0  0  0
  -31.3750  -18.4603   18.4802 H   0  0  0  0  0  0
  -31.8656  -16.7894   18.4163 H   0  0  0  0  0  0
  -29.0549  -15.1126   18.4539 H   0  0  0  0  0  0
  -28.1720  -16.3581   19.3479 H   0  0  0  0  0  0
  -31.6861  -17.1460   20.7906 H   0  0  0  0  0  0
  -29.2311  -21.4755   17.6198 H   0  0  0  0  0  0
  -28.1733  -20.3597   18.5149 H   0  0  0  0  0  0
  -29.9219  -20.1414   18.4410 H   0  0  0  0  0  0
  -30.8670  -22.4306   24.0518 H   0  0  0  0  0  0
  -32.0886  -21.7636   22.9708 H   0  0  0  0  0  0
  -30.7065  -20.7982   23.5220 H   0  0  0  0  0  0
  -27.5757  -22.7765   17.8206 H   0  0  0  0  0  0
  -27.9326  -24.4312   18.2547 H   0  0  0  0  0  0
  -26.6414  -23.5395   19.0623 H   0  0  0  0  0  0
  -31.1856  -24.4660   23.2165 H   0  0  0  0  0  0
  -29.5082  -24.5377   23.7902 H   0  0  0  0  0  0
  -30.1018  -25.6085   22.5105 H   0  0  0  0  0  0
  -31.4064  -19.7725   21.7303 H   0  0  0  0  0  0
  -31.4386  -19.9321   20.0518 H   0  0  0  0  0  0
  -27.9517  -25.5875   22.0068 H   0  0  0  0  0  0
  -26.9607  -24.9606   20.7983 H   0  0  0  0  0  0
  -29.5642  -18.2520   21.8050 H   0  0  0  0  0  0
  -29.0455  -18.6405   20.2078 H   0  0  0  0  0  0
  1 25  1  0  0  0
  1 30  2  0  0  0
  1 88  1  0  0  0
  2  3  1  0  0  0
  2 25  1  0  0  0
  2 89  1  0  0  0
  2 90  1  0  0  0
  3  4  1  0  0  0
  3 91  1  0  0  0
  3 92  1  0  0  0
  4  5  1  0  0  0
  4 93  1  0  0  0
  4 94  1  0  0  0
  5  6  1  0  0  0
  5 26  1  0  0  0
  5 95  1  0  0  0
  6 25  1  0  0  0
  6 96  1  0  0  0
  6 97  1  0  0  0
  7  8  2  0  0  0
  7 26  1  0  0  0
  7 29  1  0  0  0
  8  9  1  0  0  0
  8 22  1  0  0  0
  9 10  1  0  0  0
  9 27  2  0  0  0
 10 11  2  0  0  0
 10 15  1  0  0  0
 11 12  1  0  0  0
 11 98  1  0  0  0
 12 13  2  0  0  0
 12 99  1  0  0  0
 13 14  1  0  0  0
 13 31  1  0  0  0
 14 15  2  0  0  0
 14100  1  0  0  0
 15101  1  0  0  0
 16 17  2  0  0  0
 16 21  1  0  0  0
 16 31  1  0  0  0
 17 18  1  0  0  0
 17102  1  0  0  0
 18 19  2  0  0  0
 18103  1  0  0  0
 19 20  1  0  0  0
 19 24  1  0  0  0
 20 21  2  0  0  0
 20104  1  0  0  0
 21 23  1  0  0  0
 22 28  1  0  0  0
 22 32  2  0  0  0
 26 27  1  0  0  0
 28105  1  0  0  0
 28106  1  0  0  0
 29107  1  0  0  0
 29108  1  0  0  0
 33 34  1  0  0  0
 33 66  1  0  0  0
 33 70  2  0  0  0
 34 36  1  0  0  0
 34 59  1  0  0  0
 34109  1  0  0  0
 35 44  2  0  0  0
 35 45  1  0  0  0
 35 68  1  0  0  0
 36 56  1  0  0  0
 36110  1  0  0  0
 37 39  1  0  0  0
 37 47  1  0  0  0
 37 66  1  0  0  0
 37111  1  0  0  0
 38 43  2  0  0  0
 38 46  1  0  0  0
 38 47  1  0  0  0
 39 64  1  0  0  0
 39 67  2  0  0  0
 40 52  1  0  0  0
 40 53  2  0  0  0
 40 58  1  0  0  0
 41112  1  0  0  0
 41113  1  0  0  0
 41114  1  0  0  0
 41 48  1  0  0  0
 42 43  1  0  0  0
 42 66  1  0  0  0
 42115  1  0  0  0
 42116  1  0  0  0
 43 44  1  0  0  0
 44117  1  0  0  0
 45 46  2  0  0  0
 45118  1  0  0  0
 46119  1  0  0  0
 47120  1  0  0  0
 47121  1  0  0  0
 48 56  1  0  0  0
 48 65  1  0  0  0
 48122  1  0  0  0
 49 50  1  0  0  0
 49 53  1  0  0  0
 49 64  1  0  0  0
 49123  1  0  0  0
 50 51  1  0  0  0
 50124  1  0  0  0
 50125  1  0  0  0
 51 52  1  0  0  0
 51126  1  0  0  0
 51127  1  0  0  0
 52128  1  0  0  0
 52129  1  0  0  0
 53 54  1  0  0  0
 54 55  2  0  0  0
 54130  1  0  0  0
 55 57  1  0  0  0
 55131  1  0  0  0
 56 69  2  0  0  0
 57 58  2  0  0  0
 57132  1  0  0  0
 58133  1  0  0  0
 59 60  1  0  0  0
 59 61  1  0  0  0
 59 62  1  0  0  0
 60134  1  0  0  0
 60135  1  0  0  0
 60136  1  0  0  0
 61137  1  0  0  0
 61138  1  0  0  0
 61139  1  0  0  0
 62140  1  0  0  0
 62141  1  0  0  0
 62142  1  0  0  0
 63 65  1  0  0  0
 63143  1  0  0  0
 63144  1  0  0  0
 63145  1  0  0  0
 64146  1  0  0  0
 65147  1  0  0  0
 68 86  1  0  0  0
 71 73  2  0  0  0
 71 75  1  0  0  0
 71 81  1  0  0  0
 72 74  1  0  0  0
 72 75  2  0  0  0
 72 82  1  0  0  0
 73 76  1  0  0  0
 73 83  1  0  0  0
 74 76  2  0  0  0
 74 84  1  0  0  0
 75 85  1  0  0  0
 76 86  1  0  0  0
 77 78  1  0  0  0
 77 79  1  0  0  0
 77148  1  0  0  0
 77149  1  0  0  0
 78 80  1  0  0  0
 78150  1  0  0  0
 78151  1  0  0  0
 79 88  1  0  0  0
 79152  1  0  0  0
 79153  1  0  0  0
 80 87  1  0  0  0
 80 88  1  0  0  0
 80154  1  0  0  0
 81155  1  0  0  0
 81156  1  0  0  0
 81157  1  0  0  0
 82158  1  0  0  0
 82159  1  0  0  0
 82160  1  0  0  0
 83161  1  0  0  0
 83162  1  0  0  0
 83163  1  0  0  0
 84164  1  0  0  0
 84165  1  0  0  0
 84166  1  0  0  0
 85 87  1  0  0  0
 85167  1  0  0  0
 85168  1  0  0  0
 86169  1  0  0  0
 86170  1  0  0  0
 87171  1  0  0  0
 87172  1  0  0  0
M  ISO  4   1 100  68 101  86 101  88 100
M  END
> <chiral flag>
0

> <version>
0

> <s_m_source_file>
/data/baiqing/PycharmProjects/Reinvent-master-3.2/result/LINK_invent/BTK/process_docking_weight1_custom_sum_contain_oxygen_bond_distance_aromatic_linkinvent_7_9_3/rearranged_h_0157.sdf

> <i_m_source_file_index>
7

> <r_mmod_Potential_Energy-OPLS-2005>
449.455474853516

> <r_mmod_Stretch_Energy-OPLS-2005>
91.943359375

> <r_mmod_Bend_Energy-OPLS-2005>
179.047119140625

> <r_mmod_Torsional_Energy-OPLS-2005>
398.626708984375

> <r_mmod_Improper_Torsional_Energy-OPLS-2005>
13.871865272522

> <r_mmod_Van_der_Waal_Energy-OPLS-2005>
179.285690307617

> <r_mmod_Electrostatic_Energy-OPLS-2005>
-289.883483886719

> <r_mmod_Solvation_Energy-OPLS-2005>
-193.555114746094

> <b_mmod_Minimization_Converged-OPLS-2005>
0

> <r_mmod_RMS_Derivative-OPLS-2005>
3.54888272285461

$$$$
7
                    3D
 Structure written by MMmdl.
166175  0  0  1  0            999 V2000
  -30.6456  -14.6000   20.5342 C   0  0  0  0  0  0
  -30.4225  -12.3729   19.4569 C   0  0  0  0  0  0
  -29.5062  -12.5275   18.2246 C   0  0  0  0  0  0
  -28.0210  -12.3898   18.6182 C   0  0  0  0  0  0
  -27.6500  -13.2249   19.8727 C   0  0  2  0  0  0
  -28.6892  -13.0485   20.9993 C   0  0  0  0  0  0
  -25.2517  -13.8182   20.5693 C   0  0  0  0  0  0
  -24.1800  -13.0432   20.9188 C   0  0  0  0  0  0
  -24.6378  -11.6917   20.8718 C   0  0  0  0  0  0
  -23.9060  -10.4295   21.0375 C   0  0  0  0  0  0
  -24.3612   -9.4213   21.9161 C   0  0  0  0  0  0
  -23.6303   -8.2241   22.0730 C   0  0  0  0  0  0
  -22.4284   -8.0273   21.3533 C   0  0  0  0  0  0
  -21.9904   -9.0241   20.4632 C   0  0  0  0  0  0
  -22.7225  -10.2117   20.3039 C   0  0  0  0  0  0
  -21.6856   -6.0727   22.5274 C   0  0  0  0  0  0
  -21.4006   -6.5632   23.8206 C   0  0  0  0  0  0
  -21.3669   -5.6785   24.9174 C   0  0  0  0  0  0
  -21.6052   -4.3050   24.7221 C   0  0  0  0  0  0
  -21.8819   -3.8135   23.4338 C   0  0  0  0  0  0
  -21.9188   -4.6951   22.3396 C   0  0  0  0  0  0
  -22.7834  -13.5221   21.1870 C   0  0  0  0  0  0
  -22.1667   -4.2139   21.0975 F   0  0  0  0  0  0
  -21.5647   -3.4536   25.7733 F   0  0  0  0  0  0
  -30.0039  -13.3927   20.4412 N   0  0  0  0  0  0
  -26.2959  -12.9378   20.3327 N   0  0  0  0  0  0
  -25.9305  -11.6519   20.5706 N   0  0  0  0  0  0
  -22.0478  -12.8212   22.0425 N   0  0  0  0  0  0
  -25.4248  -15.1905   20.4175 N   0  0  0  0  0  0
  -31.8118  -14.7207   20.1383 O   0  0  0  0  0  0
  -21.6644   -6.8865   21.4238 O   0  0  0  0  0  0
  -22.3517  -14.5533   20.6720 O   0  0  0  0  0  0
  -24.6216  -31.8646   23.2061 C   0  0  0  0  0  0
  -25.9090  -32.4804   23.8387 C   0  0  1  0  0  0
  -27.2381  -27.3765   20.1163 C   0  0  0  0  0  0
  -25.5955  -33.8600   24.2331 N   0  0  0  0  0  0
  -23.4122  -30.4863   21.5459 C   0  0  2  0  0  0
  -24.8604  -28.9426   20.1150 C   0  0  0  0  0  0
  -22.7452  -29.4639   22.4957 C   0  0  0  0  0  0
  -18.0289  -28.1382   22.8491 C   0  0  0  0  0  0
  -24.1501  -36.7288   23.2633 C   0  0  0  0  0  0
  -25.9458  -30.8133   21.3668 C   0  0  0  0  0  0
  -26.0219  -29.4427   20.7147 C   0  0  0  0  0  0
  -27.2088  -28.6659   20.7129 C   0  0  0  0  0  0
  -26.0472  -26.8972   19.5214 C   0  0  0  0  0  0
  -24.8703  -27.6711   19.5158 C   0  0  0  0  0  0
  -23.6258  -29.8171   20.1607 C   0  0  0  0  0  0
  -25.4115  -36.3097   24.0339 C   0  0  1  0  0  0
  -20.5883  -28.3680   23.1295 C   0  0  2  0  0  0
  -20.6793  -26.9419   22.5389 C   0  0  0  0  0  0
  -19.5755  -26.6378   21.5207 C   0  0  0  0  0  0
  -18.1943  -26.7925   22.1633 C   0  0  0  0  0  0
  -19.1538  -28.8848   23.2887 C   0  0  0  0  0  0
  -18.9460  -30.1456   23.8889 C   0  0  0  0  0  0
  -17.6458  -30.6591   24.0537 C   0  0  0  0  0  0
  -25.9052  -34.9461   23.5125 C   0  0  0  0  0  0
  -16.5350  -29.9076   23.6327 C   0  0  0  0  0  0
  -16.7274  -28.6487   23.0364 C   0  0  0  0  0  0
  -26.4517  -31.6597   25.0736 C   0  0  0  0  0  0
  -25.3785  -31.3735   26.1498 C   0  0  0  0  0  0
  -27.0293  -30.3021   24.6138 C   0  0  0  0  0  0
  -27.6166  -32.4252   25.7455 C   0  0  0  0  0  0
  -27.5586  -37.1792   24.8465 C   0  0  0  0  0  0
  -21.4177  -29.3038   22.3690 N   0  0  0  0  0  0
  -26.4300  -37.3786   23.9420 N   0  0  0  0  0  0
  -24.6776  -31.0702   22.0980 N   0  0  0  0  0  0
  -23.4204  -28.8204   23.3035 O   0  0  0  0  0  0
  -28.4047  -26.6192   20.1828 O   0  0  0  0  0  0
  -26.5575  -34.8913   22.4666 O   0  0  0  0  0  0
  -23.5386  -32.1418   23.7429 O   0  0  0  0  0  0
  -28.5504  -21.5744   19.8312 C   0  0  0  0  0  0
  -29.4844  -23.8584   21.1627 C   0  0  0  0  0  0
  -28.2136  -22.8748   19.3553 C   0  0  0  0  0  0
  -28.7193  -24.0464   19.9902 C   0  0  0  0  0  0
  -29.3728  -21.3878   20.9671 C   0  0  0  0  0  0
  -29.7996  -22.5566   21.6627 C   0  0  0  0  0  0
  -29.5226  -17.7256   22.1975 C   0  0  0  0  0  0
  -30.1676  -18.1625   19.8664 C   0  0  0  0  0  0
  -29.1969  -16.2314   21.8490 C   0  0  0  0  0  0
  -29.7545  -16.6997   19.5092 C   0  0  0  0  0  0
  -29.3542  -18.7520   21.0402 C   0  0  0  0  0  0
  -27.3085  -22.9891   18.1405 C   0  0  0  0  0  0
  -30.6257  -23.4576   23.7321 C   0  0  0  0  0  0
  -28.6086  -25.4602   19.3354 C   0  0  0  0  0  0
  -29.8507  -15.7240   20.6216 N   0  0  0  0  0  0
  -29.7954  -20.1138   21.4508 N   0  0  0  0  0  0
  -30.5389  -22.3685   22.8144 O   0  0  0  0  0  0
  -31.4678  -12.4777   19.1647 H   0  0  0  0  0  0
  -30.3343  -11.3711   19.8814 H   0  0  0  0  0  0
  -29.7645  -11.7890   17.4645 H   0  0  0  0  0  0
  -29.6740  -13.5044   17.7666 H   0  0  0  0  0  0
  -27.8184  -11.3353   18.8018 H   0  0  0  0  0  0
  -27.3879  -12.6817   17.7801 H   0  0  0  0  0  0
  -27.6753  -14.2704   19.5664 H   0  0  0  0  0  0
  -28.6910  -12.0171   21.3566 H   0  0  0  0  0  0
  -28.4384  -13.6612   21.8645 H   0  0  0  0  0  0
  -25.2748   -9.5715   22.4748 H   0  0  0  0  0  0
  -24.0026   -7.4625   22.7440 H   0  0  0  0  0  0
  -21.0826   -8.8747   19.8953 H   0  0  0  0  0  0
  -22.3658  -10.9658   19.6163 H   0  0  0  0  0  0
  -21.1986   -7.6138   23.9708 H   0  0  0  0  0  0
  -21.1517   -6.0514   25.9077 H   0  0  0  0  0  0
  -22.0593   -2.7602   23.2828 H   0  0  0  0  0  0
  -22.4093  -11.9876   22.4820 H   0  0  0  0  0  0
  -21.1101  -13.1248   22.2623 H   0  0  0  0  0  0
  -24.6627  -15.8494   20.5371 H   0  0  0  0  0  0
  -26.2881  -15.6307   20.1265 H   0  0  0  0  0  0
  -26.7164  -32.5501   23.1147 H   0  0  0  0  0  0
  -25.0210  -33.9760   25.0555 H   0  0  0  0  0  0
  -22.7036  -31.3046   21.4021 H   0  0  0  0  0  0
  -23.3806  -35.9573   23.3219 H   0  0  0  0  0  0
  -24.3643  -36.8974   22.2069 H   0  0  0  0  0  0
  -23.7179  -37.6436   23.6699 H   0  0  0  0  0  0
  -26.0673  -31.5787   20.5987 H   0  0  0  0  0  0
  -26.8290  -30.8647   21.9917 H   0  0  0  0  0  0
  -28.1033  -29.0471   21.1865 H   0  0  0  0  0  0
  -25.9917  -25.9099   19.0897 H   0  0  0  0  0  0
  -23.9736  -27.2714   19.0637 H   0  0  0  0  0  0
  -23.7437  -30.5905   19.4004 H   0  0  0  0  0  0
  -22.7488  -29.2420   19.8580 H   0  0  0  0  0  0
  -25.1287  -36.1954   25.0827 H   0  0  0  0  0  0
  -20.9980  -28.3236   24.1413 H   0  0  0  0  0  0
  -20.5743  -26.2278   23.3572 H   0  0  0  0  0  0
  -21.6653  -26.7488   22.1138 H   0  0  0  0  0  0
  -19.6920  -25.6280   21.1262 H   0  0  0  0  0  0
  -19.6700  -27.3158   20.6713 H   0  0  0  0  0  0
  -17.4213  -26.6660   21.4044 H   0  0  0  0  0  0
  -18.0367  -26.0067   22.9035 H   0  0  0  0  0  0
  -19.7934  -30.7280   24.2256 H   0  0  0  0  0  0
  -17.5009  -31.6273   24.5121 H   0  0  0  0  0  0
  -15.5352  -30.2969   23.7653 H   0  0  0  0  0  0
  -15.8679  -28.0788   22.7103 H   0  0  0  0  0  0
  -24.5848  -30.7243   25.7791 H   0  0  0  0  0  0
  -24.9128  -32.2906   26.5112 H   0  0  0  0  0  0
  -25.8100  -30.8710   27.0166 H   0  0  0  0  0  0
  -26.2784  -29.6776   24.1289 H   0  0  0  0  0  0
  -27.4127  -29.7301   25.4598 H   0  0  0  0  0  0
  -27.8631  -30.4304   23.9234 H   0  0  0  0  0  0
  -27.2959  -33.3673   26.1910 H   0  0  0  0  0  0
  -28.4052  -32.6556   25.0278 H   0  0  0  0  0  0
  -28.0733  -31.8393   26.5445 H   0  0  0  0  0  0
  -28.2583  -38.0111   24.7541 H   0  0  0  0  0  0
  -28.1103  -36.2638   24.6259 H   0  0  0  0  0  0
  -27.2315  -37.1382   25.8872 H   0  0  0  0  0  0
  -20.9374  -29.8720   21.6852 H   0  0  0  0  0  0
  -26.0184  -38.2868   24.1428 H   0  0  0  0  0  0
  -28.1841  -20.7100   19.2983 H   0  0  0  0  0  0
  -29.8616  -24.7453   21.6498 H   0  0  0  0  0  0
  -30.5525  -17.7687   22.5578 H   0  0  0  0  0  0
  -28.9052  -18.0293   23.0452 H   0  0  0  0  0  0
  -30.0534  -18.7985   18.9876 H   0  0  0  0  0  0
  -31.2296  -18.1736   20.1118 H   0  0  0  0  0  0
  -28.1194  -16.1169   21.7279 H   0  0  0  0  0  0
  -29.4756  -15.6090   22.7009 H   0  0  0  0  0  0
  -30.3349  -16.3594   18.6500 H   0  0  0  0  0  0
  -28.7168  -16.6996   19.1742 H   0  0  0  0  0  0
  -28.3004  -18.7996   20.7621 H   0  0  0  0  0  0
  -26.9263  -22.0160   17.8300 H   0  0  0  0  0  0
  -27.8360  -23.4295   17.2936 H   0  0  0  0  0  0
  -26.4456  -23.6140   18.3753 H   0  0  0  0  0  0
  -31.0675  -23.1110   24.6672 H   0  0  0  0  0  0
  -29.6405  -23.8652   23.9685 H   0  0  0  0  0  0
  -31.2596  -24.2613   23.3538 H   0  0  0  0  0  0
  -27.9675  -25.4742   18.4582 H   0  0  0  0  0  0
  -29.5980  -25.6278   18.9092 H   0  0  0  0  0  0
  -30.4142  -20.1654   22.2566 H   0  0  0  0  0  0
  1 25  1  0  0  0
  1 30  2  0  0  0
  1 85  1  0  0  0
  2  3  1  0  0  0
  2 25  1  0  0  0
  2 88  1  0  0  0
  2 89  1  0  0  0
  3  4  1  0  0  0
  3 90  1  0  0  0
  3 91  1  0  0  0
  4  5  1  0  0  0
  4 92  1  0  0  0
  4 93  1  0  0  0
  5  6  1  0  0  0
  5 26  1  0  0  0
  5 94  1  0  0  0
  6 25  1  0  0  0
  6 95  1  0  0  0
  6 96  1  0  0  0
  7  8  2  0  0  0
  7 26  1  0  0  0
  7 29  1  0  0  0
  8  9  1  0  0  0
  8 22  1  0  0  0
  9 10  1  0  0  0
  9 27  2  0  0  0
 10 11  2  0  0  0
 10 15  1  0  0  0
 11 12  1  0  0  0
 11 97  1  0  0  0
 12 13  2  0  0  0
 12 98  1  0  0  0
 13 14  1  0  0  0
 13 31  1  0  0  0
 14 15  2  0  0  0
 14 99  1  0  0  0
 15100  1  0  0  0
 16 17  2  0  0  0
 16 21  1  0  0  0
 16 31  1  0  0  0
 17 18  1  0  0  0
 17101  1  0  0  0
 18 19  2  0  0  0
 18102  1  0  0  0
 19 20  1  0  0  0
 19 24  1  0  0  0
 20 21  2  0  0  0
 20103  1  0  0  0
 21 23  1  0  0  0
 22 28  1  0  0  0
 22 32  2  0  0  0
 26 27  1  0  0  0
 28104  1  0  0  0
 28105  1  0  0  0
 29106  1  0  0  0
 29107  1  0  0  0
 33 34  1  0  0  0
 33 66  1  0  0  0
 33 70  2  0  0  0
 34 36  1  0  0  0
 34 59  1  0  0  0
 34108  1  0  0  0
 35 44  2  0  0  0
 35 45  1  0  0  0
 35 68  1  0  0  0
 36 56  1  0  0  0
 36109  1  0  0  0
 37 39  1  0  0  0
 37 47  1  0  0  0
 37 66  1  0  0  0
 37110  1  0  0  0
 38 43  2  0  0  0
 38 46  1  0  0  0
 38 47  1  0  0  0
 39 64  1  0  0  0
 39 67  2  0  0  0
 40 52  1  0  0  0
 40 53  2  0  0  0
 40 58  1  0  0  0
 41111  1  0  0  0
 41112  1  0  0  0
 41113  1  0  0  0
 41 48  1  0  0  0
 42 43  1  0  0  0
 42 66  1  0  0  0
 42114  1  0  0  0
 42115  1  0  0  0
 43 44  1  0  0  0
 44116  1  0  0  0
 45 46  2  0  0  0
 45117  1  0  0  0
 46118  1  0  0  0
 47119  1  0  0  0
 47120  1  0  0  0
 48 56  1  0  0  0
 48 65  1  0  0  0
 48121  1  0  0  0
 49 50  1  0  0  0
 49 53  1  0  0  0
 49 64  1  0  0  0
 49122  1  0  0  0
 50 51  1  0  0  0
 50123  1  0  0  0
 50124  1  0  0  0
 51 52  1  0  0  0
 51125  1  0  0  0
 51126  1  0  0  0
 52127  1  0  0  0
 52128  1  0  0  0
 53 54  1  0  0  0
 54 55  2  0  0  0
 54129  1  0  0  0
 55 57  1  0  0  0
 55130  1  0  0  0
 56 69  2  0  0  0
 57 58  2  0  0  0
 57131  1  0  0  0
 58132  1  0  0  0
 59 60  1  0  0  0
 59 61  1  0  0  0
 59 62  1  0  0  0
 60133  1  0  0  0
 60134  1  0  0  0
 60135  1  0  0  0
 61136  1  0  0  0
 61137  1  0  0  0
 61138  1  0  0  0
 62139  1  0  0  0
 62140  1  0  0  0
 62141  1  0  0  0
 63 65  1  0  0  0
 63142  1  0  0  0
 63143  1  0  0  0
 63144  1  0  0  0
 64145  1  0  0  0
 65146  1  0  0  0
 68 84  1  0  0  0
 71 73  2  0  0  0
 71 75  1  0  0  0
 71147  1  0  0  0
 72 74  2  0  0  0
 72 76  1  0  0  0
 72148  1  0  0  0
 73 74  1  0  0  0
 73 82  1  0  0  0
 74 84  1  0  0  0
 75 76  2  0  0  0
 75 86  1  0  0  0
 76 87  1  0  0  0
 77 79  1  0  0  0
 77 81  1  0  0  0
 77149  1  0  0  0
 77150  1  0  0  0
 78 80  1  0  0  0
 78 81  1  0  0  0
 78151  1  0  0  0
 78152  1  0  0  0
 79 85  1  0  0  0
 79153  1  0  0  0
 79154  1  0  0  0
 80 85  1  0  0  0
 80155  1  0  0  0
 80156  1  0  0  0
 81 86  1  0  0  0
 81157  1  0  0  0
 82158  1  0  0  0
 82159  1  0  0  0
 82160  1  0  0  0
 83 87  1  0  0  0
 83161  1  0  0  0
 83162  1  0  0  0
 83163  1  0  0  0
 84164  1  0  0  0
 84165  1  0  0  0
 86166  1  0  0  0
M  ISO  4   1 100  68 101  84 101  85 100
M  END
> <chiral flag>
0

> <version>
0

> <s_m_source_file>
/data/baiqing/PycharmProjects/Reinvent-master-3.2/result/LINK_invent/BTK/process_docking_weight1_custom_sum_contain_oxygen_bond_distance_aromatic_linkinvent_7_9_3/rearranged_h_0157.sdf

> <i_m_source_file_index>
8

> <r_mmod_Potential_Energy-OPLS-2005>
226.776092529297

> <r_mmod_Stretch_Energy-OPLS-2005>
63.1129188537598

> <r_mmod_Bend_Energy-OPLS-2005>
157.262222290039

> <r_mmod_Torsional_Energy-OPLS-2005>
329.877868652344

> <r_mmod_Improper_Torsional_Energy-OPLS-2005>
15.1472949981689

> <r_mmod_Van_der_Waal_Energy-OPLS-2005>
149.616714477539

> <r_mmod_Electrostatic_Energy-OPLS-2005>
-313.653045654297

> <r_mmod_Solvation_Energy-OPLS-2005>
-206.066879272461

> <b_mmod_Minimization_Converged-OPLS-2005>
0

> <r_mmod_RMS_Derivative-OPLS-2005>
3.01822280883789

$$$$
8
                    3D
 Structure written by MMmdl.
162170  0  0  1  0            999 V2000
  -30.6440  -14.8866   20.4459 C   0  0  0  0  0  0
  -30.4111  -12.5606   19.4867 C   0  0  0  0  0  0
  -29.5021  -12.5111   18.2414 C   0  0  0  0  0  0
  -28.0430  -12.2816   18.6710 C   0  0  0  0  0  0
  -27.6181  -13.2258   19.8236 C   0  0  2  0  0  0
  -28.6638  -13.3042   20.9603 C   0  0  0  0  0  0
  -25.2451  -13.8175   20.5733 C   0  0  0  0  0  0
  -24.1758  -13.0423   20.9253 C   0  0  0  0  0  0
  -24.6338  -11.6903   20.8777 C   0  0  0  0  0  0
  -23.9030  -10.4279   21.0419 C   0  0  0  0  0  0
  -24.3585   -9.4199   21.9181 C   0  0  0  0  0  0
  -23.6283   -8.2219   22.0748 C   0  0  0  0  0  0
  -22.4268   -8.0247   21.3538 C   0  0  0  0  0  0
  -21.9904   -9.0229   20.4646 C   0  0  0  0  0  0
  -22.7215  -10.2116   20.3051 C   0  0  0  0  0  0
  -21.6839   -6.0721   22.5288 C   0  0  0  0  0  0
  -21.4014   -6.5629   23.8222 C   0  0  0  0  0  0
  -21.3671   -5.6784   24.9191 C   0  0  0  0  0  0
  -21.6051   -4.3044   24.7241 C   0  0  0  0  0  0
  -21.8813   -3.8128   23.4364 C   0  0  0  0  0  0
  -21.9178   -4.6953   22.3412 C   0  0  0  0  0  0
  -22.7774  -13.5213   21.1906 C   0  0  0  0  0  0
  -22.1654   -4.2130   21.0989 F   0  0  0  0  0  0
  -21.5631   -3.4537   25.7758 F   0  0  0  0  0  0
  -29.9403  -13.6885   20.3461 N   0  0  0  0  0  0
  -26.2832  -12.9357   20.3237 N   0  0  0  0  0  0
  -25.9265  -11.6516   20.5751 N   0  0  0  0  0  0
  -22.0408  -12.8216   22.0462 N   0  0  0  0  0  0
  -25.4127  -15.1901   20.4177 N   0  0  0  0  0  0
  -31.8548  -14.8112   20.2083 O   0  0  0  0  0  0
  -21.6620   -6.8858   21.4246 O   0  0  0  0  0  0
  -22.3475  -14.5513   20.6719 O   0  0  0  0  0  0
  -24.6378  -31.8496   23.1907 C   0  0  0  0  0  0
  -25.9181  -32.4714   23.8300 C   0  0  1  0  0  0
  -27.2213  -27.1903   20.1686 C   0  0  0  0  0  0
  -25.5964  -33.8522   24.2225 N   0  0  0  0  0  0
  -23.4378  -30.4684   21.5340 C   0  0  2  0  0  0
  -24.8858  -28.8900   20.1181 C   0  0  0  0  0  0
  -22.7533  -29.4585   22.4865 C   0  0  0  0  0  0
  -18.0310  -28.1392   22.8481 C   0  0  0  0  0  0
  -24.1493  -36.7248   23.2635 C   0  0  0  0  0  0
  -25.9875  -30.7400   21.3793 C   0  0  0  0  0  0
  -26.0587  -29.3524   20.7294 C   0  0  0  0  0  0
  -27.2308  -28.5197   20.7312 C   0  0  0  0  0  0
  -26.0254  -26.8016   19.5338 C   0  0  0  0  0  0
  -24.8772  -27.6261   19.5058 C   0  0  0  0  0  0
  -23.6632  -29.7916   20.1539 C   0  0  0  0  0  0
  -25.4119  -36.3042   24.0325 C   0  0  1  0  0  0
  -20.5922  -28.3724   23.1244 C   0  0  2  0  0  0
  -20.6800  -26.9435   22.5406 C   0  0  0  0  0  0
  -19.5771  -26.6382   21.5216 C   0  0  0  0  0  0
  -18.1950  -26.7933   22.1626 C   0  0  0  0  0  0
  -19.1567  -28.8873   23.2857 C   0  0  0  0  0  0
  -18.9482  -30.1466   23.8885 C   0  0  0  0  0  0
  -17.6480  -30.6590   24.0571 C   0  0  0  0  0  0
  -25.9067  -34.9418   23.5071 C   0  0  0  0  0  0
  -16.5371  -29.9091   23.6329 C   0  0  0  0  0  0
  -16.7298  -28.6511   23.0346 C   0  0  0  0  0  0
  -26.4534  -31.6548   25.0703 C   0  0  0  0  0  0
  -25.3734  -31.3727   26.1403 C   0  0  0  0  0  0
  -27.0369  -30.2942   24.6225 C   0  0  0  0  0  0
  -27.6087  -32.4286   25.7481 C   0  0  0  0  0  0
  -27.5573  -37.1779   24.8469 C   0  0  0  0  0  0
  -21.4233  -29.3054   22.3611 N   0  0  0  0  0  0
  -26.4284  -37.3754   23.9415 N   0  0  0  0  0  0
  -24.7065  -31.0423   22.0900 N   0  0  0  0  0  0
  -23.4207  -28.8147   23.3003 O   0  0  0  0  0  0
  -28.3297  -26.2958   20.1515 O   0  0  0  0  0  0
  -26.5647  -34.8916   22.4639 O   0  0  0  0  0  0
  -23.5512  -32.1346   23.7167 O   0  0  0  0  0  0
  -28.3730  -18.2249   20.1557 C   0  0  0  0  0  0
  -30.6169  -18.8719   20.7448 C   0  0  0  0  0  0
  -28.6697  -16.6843   20.5341 C   0  0  0  0  0  0
  -30.9546  -17.3434   21.1166 C   0  0  0  0  0  0
  -29.1408  -19.3547   20.9346 C   0  0  0  0  0  0
  -27.0902  -20.9915   21.1697 C   0  0  0  0  0  0
  -29.4144  -21.5554   18.7082 C   0  0  0  0  0  0
  -28.2257  -23.4753   19.7961 C   0  0  0  0  0  0
  -28.3068  -24.8576   20.6958 C   0  0  0  0  0  0
  -28.6161  -20.9710   20.9755 C   0  0  2  0  0  0
  -30.0811  -16.1875   20.6707 N   0  0  0  0  0  0
  -29.0593  -22.1365   20.0275 N   0  3  1  0  0  0
  -31.4501  -12.6678   19.1762 H   0  0  0  0  0  0
  -30.3631  -11.6168   20.0298 H   0  0  0  0  0  0
  -29.8231  -11.7210   17.5606 H   0  0  0  0  0  0
  -29.5872  -13.4444   17.6812 H   0  0  0  0  0  0
  -27.9511  -11.2434   18.9926 H   0  0  0  0  0  0
  -27.3735  -12.3911   17.8172 H   0  0  0  0  0  0
  -27.5560  -14.1952   19.3421 H   0  0  0  0  0  0
  -28.3593  -14.0394   21.7069 H   0  0  0  0  0  0
  -28.7515  -12.3506   21.4830 H   0  0  0  0  0  0
  -25.2717   -9.5688   22.4770 H   0  0  0  0  0  0
  -23.9989   -7.4610   22.7472 H   0  0  0  0  0  0
  -21.0837   -8.8724   19.8972 H   0  0  0  0  0  0
  -22.3647  -10.9641   19.6150 H   0  0  0  0  0  0
  -21.2011   -7.6142   23.9720 H   0  0  0  0  0  0
  -21.1507   -6.0520   25.9096 H   0  0  0  0  0  0
  -22.0581   -2.7587   23.2860 H   0  0  0  0  0  0
  -22.4009  -11.9865   22.4848 H   0  0  0  0  0  0
  -21.1005  -13.1220   22.2652 H   0  0  0  0  0  0
  -24.6388  -15.8383   20.5208 H   0  0  0  0  0  0
  -26.2663  -15.6385   20.1156 H   0  0  0  0  0  0
  -26.7244  -32.5343   23.1042 H   0  0  0  0  0  0
  -25.0149  -33.9675   25.0395 H   0  0  0  0  0  0
  -22.7368  -31.2906   21.3792 H   0  0  0  0  0  0
  -23.3771  -35.9561   23.3291 H   0  0  0  0  0  0
  -24.3588  -36.8870   22.2047 H   0  0  0  0  0  0
  -23.7241  -37.6443   23.6665 H   0  0  0  0  0  0
  -26.1347  -31.4936   20.6043 H   0  0  0  0  0  0
  -26.8627  -30.7928   22.0153 H   0  0  0  0  0  0
  -28.1335  -28.8793   21.2054 H   0  0  0  0  0  0
  -25.9721  -25.8335   19.0553 H   0  0  0  0  0  0
  -23.9820  -27.2661   19.0173 H   0  0  0  0  0  0
  -23.8023  -30.5644   19.3970 H   0  0  0  0  0  0
  -22.7778  -29.2340   19.8440 H   0  0  0  0  0  0
  -25.1307  -36.1869   25.0824 H   0  0  0  0  0  0
  -21.0026  -28.3317   24.1359 H   0  0  0  0  0  0
  -20.5691  -26.2351   23.3632 H   0  0  0  0  0  0
  -21.6668  -26.7437   22.1210 H   0  0  0  0  0  0
  -19.6935  -25.6287   21.1251 H   0  0  0  0  0  0
  -19.6699  -27.3192   20.6745 H   0  0  0  0  0  0
  -17.4226  -26.6693   21.4020 H   0  0  0  0  0  0
  -18.0337  -26.0073   22.9018 H   0  0  0  0  0  0
  -19.7959  -30.7285   24.2245 H   0  0  0  0  0  0
  -17.5038  -31.6267   24.5178 H   0  0  0  0  0  0
  -15.5371  -30.2992   23.7644 H   0  0  0  0  0  0
  -15.8705  -28.0826   22.7048 H   0  0  0  0  0  0
  -24.5971  -30.6999   25.7746 H   0  0  0  0  0  0
  -24.8862  -32.2898   26.4726 H   0  0  0  0  0  0
  -25.8048  -30.9002   27.0235 H   0  0  0  0  0  0
  -26.2948  -29.6682   24.1248 H   0  0  0  0  0  0
  -27.4020  -29.7227   25.4773 H   0  0  0  0  0  0
  -27.8861  -30.4198   23.9498 H   0  0  0  0  0  0
  -27.2717  -33.3624   26.2008 H   0  0  0  0  0  0
  -28.3936  -32.6770   25.0317 H   0  0  0  0  0  0
  -28.0714  -31.8422   26.5435 H   0  0  0  0  0  0
  -28.2586  -38.0078   24.7516 H   0  0  0  0  0  0
  -28.1074  -36.2609   24.6295 H   0  0  0  0  0  0
  -27.2294  -37.1425   25.8874 H   0  0  0  0  0  0
  -20.9428  -29.8762   21.6802 H   0  0  0  0  0  0
  -26.0144  -38.2818   24.1421 H   0  0  0  0  0  0
  -27.3005  -18.3825   20.2704 H   0  0  0  0  0  0
  -28.5607  -18.3628   19.0910 H   0  0  0  0  0  0
  -30.9095  -19.0137   19.7063 H   0  0  0  0  0  0
  -31.2766  -19.5233   21.3205 H   0  0  0  0  0  0
  -28.1829  -16.0974   19.7666 H   0  0  0  0  0  0
  -28.1596  -16.4544   21.4702 H   0  0  0  0  0  0
  -31.0074  -17.2728   22.2041 H   0  0  0  0  0  0
  -31.9779  -17.1753   20.7737 H   0  0  0  0  0  0
  -28.9484  -19.0782   21.9728 H   0  0  0  0  0  0
  -26.7490  -21.9543   21.5521 H   0  0  0  0  0  0
  -26.7753  -20.2408   21.8969 H   0  0  0  0  0  0
  -26.5691  -20.7909   20.2352 H   0  0  0  0  0  0
  -30.2225  -20.8364   18.7999 H   0  0  0  0  0  0
  -29.7749  -22.3041   18.0031 H   0  0  0  0  0  0
  -28.5571  -21.0527   18.2592 H   0  0  0  0  0  0
  -28.5428  -23.8518   18.8235 H   0  0  0  0  0  0
  -27.1799  -23.2249   19.6204 H   0  0  0  0  0  0
  -29.2317  -24.7869   21.2684 H   0  0  0  0  0  0
  -27.5258  -24.8097   21.4550 H   0  0  0  0  0  0
  -29.0071  -21.3316   21.9288 H   0  0  0  0  0  0
  -29.9507  -22.4395   20.3967 H   0  0  0  0  0  0
  1 25  1  0  0  0
  1 30  2  0  0  0
  1 81  1  0  0  0
  2  3  1  0  0  0
  2 25  1  0  0  0
  2 83  1  0  0  0
  2 84  1  0  0  0
  3  4  1  0  0  0
  3 85  1  0  0  0
  3 86  1  0  0  0
  4  5  1  0  0  0
  4 87  1  0  0  0
  4 88  1  0  0  0
  5  6  1  0  0  0
  5 26  1  0  0  0
  5 89  1  0  0  0
  6 25  1  0  0  0
  6 90  1  0  0  0
  6 91  1  0  0  0
  7  8  2  0  0  0
  7 26  1  0  0  0
  7 29  1  0  0  0
  8  9  1  0  0  0
  8 22  1  0  0  0
  9 10  1  0  0  0
  9 27  2  0  0  0
 10 11  2  0  0  0
 10 15  1  0  0  0
 11 12  1  0  0  0
 11 92  1  0  0  0
 12 13  2  0  0  0
 12 93  1  0  0  0
 13 14  1  0  0  0
 13 31  1  0  0  0
 14 15  2  0  0  0
 14 94  1  0  0  0
 15 95  1  0  0  0
 16 17  2  0  0  0
 16 21  1  0  0  0
 16 31  1  0  0  0
 17 18  1  0  0  0
 17 96  1  0  0  0
 18 19  2  0  0  0
 18 97  1  0  0  0
 19 20  1  0  0  0
 19 24  1  0  0  0
 20 21  2  0  0  0
 20 98  1  0  0  0
 21 23  1  0  0  0
 22 28  1  0  0  0
 22 32  2  0  0  0
 26 27  1  0  0  0
 28 99  1  0  0  0
 28100  1  0  0  0
 29101  1  0  0  0
 29102  1  0  0  0
 33 34  1  0  0  0
 33 66  1  0  0  0
 33 70  2  0  0  0
 34 36  1  0  0  0
 34 59  1  0  0  0
 34103  1  0  0  0
 35 44  2  0  0  0
 35 45  1  0  0  0
 35 68  1  0  0  0
 36 56  1  0  0  0
 36104  1  0  0  0
 37 39  1  0  0  0
 37 47  1  0  0  0
 37 66  1  0  0  0
 37105  1  0  0  0
 38 43  2  0  0  0
 38 46  1  0  0  0
 38 47  1  0  0  0
 39 64  1  0  0  0
 39 67  2  0  0  0
 40 52  1  0  0  0
 40 53  2  0  0  0
 40 58  1  0  0  0
 41106  1  0  0  0
 41107  1  0  0  0
 41108  1  0  0  0
 41 48  1  0  0  0
 42 43  1  0  0  0
 42 66  1  0  0  0
 42109  1  0  0  0
 42110  1  0  0  0
 43 44  1  0  0  0
 44111  1  0  0  0
 45 46  2  0  0  0
 45112  1  0  0  0
 46113  1  0  0  0
 47114  1  0  0  0
 47115  1  0  0  0
 48 56  1  0  0  0
 48 65  1  0  0  0
 48116  1  0  0  0
 49 50  1  0  0  0
 49 53  1  0  0  0
 49 64  1  0  0  0
 49117  1  0  0  0
 50 51  1  0  0  0
 50118  1  0  0  0
 50119  1  0  0  0
 51 52  1  0  0  0
 51120  1  0  0  0
 51121  1  0  0  0
 52122  1  0  0  0
 52123  1  0  0  0
 53 54  1  0  0  0
 54 55  2  0  0  0
 54124  1  0  0  0
 55 57  1  0  0  0
 55125  1  0  0  0
 56 69  2  0  0  0
 57 58  2  0  0  0
 57126  1  0  0  0
 58127  1  0  0  0
 59 60  1  0  0  0
 59 61  1  0  0  0
 59 62  1  0  0  0
 60128  1  0  0  0
 60129  1  0  0  0
 60130  1  0  0  0
 61131  1  0  0  0
 61132  1  0  0  0
 61133  1  0  0  0
 62134  1  0  0  0
 62135  1  0  0  0
 62136  1  0  0  0
 63 65  1  0  0  0
 63137  1  0  0  0
 63138  1  0  0  0
 63139  1  0  0  0
 64140  1  0  0  0
 65141  1  0  0  0
 68 79  1  0  0  0
 71 73  1  0  0  0
 71142  1  0  0  0
 71143  1  0  0  0
 71 75  1  0  0  0
 72 74  1  0  0  0
 72 75  1  0  0  0
 72144  1  0  0  0
 72145  1  0  0  0
 73 81  1  0  0  0
 73146  1  0  0  0
 73147  1  0  0  0
 74 81  1  0  0  0
 74148  1  0  0  0
 74149  1  0  0  0
 75 80  1  0  0  0
 75150  1  0  0  0
 76151  1  0  0  0
 76152  1  0  0  0
 76153  1  0  0  0
 76 80  1  0  0  0
 77154  1  0  0  0
 77155  1  0  0  0
 77156  1  0  0  0
 77 82  1  0  0  0
 78 79  1  0  0  0
 78 82  1  0  0  0
 78157  1  0  0  0
 78158  1  0  0  0
 79159  1  0  0  0
 79160  1  0  0  0
 80 82  1  0  0  0
 80161  1  0  0  0
 82162  1  0  0  0
M  CHG  1  82   1
M  ISO  4   1 100  68 101  79 101  81 100
M  END
> <chiral flag>
0

> <version>
0

> <s_m_source_file>
/data/baiqing/PycharmProjects/Reinvent-master-3.2/result/LINK_invent/BTK/process_docking_weight1_custom_sum_contain_oxygen_bond_distance_aromatic_linkinvent_7_9_3/rearranged_h_0157.sdf

> <i_m_source_file_index>
9

> <r_mmod_Potential_Energy-OPLS-2005>
614.053344726562

> <r_mmod_Stretch_Energy-OPLS-2005>
211.159301757812

> <r_mmod_Bend_Energy-OPLS-2005>
339.696136474609

> <r_mmod_Torsional_Energy-OPLS-2005>
364.903778076172

> <r_mmod_Improper_Torsional_Energy-OPLS-2005>
2.38066053390503

> <r_mmod_Van_der_Waal_Energy-OPLS-2005>
122.205268859863

> <r_mmod_Electrostatic_Energy-OPLS-2005>
-150.76318359375

> <r_mmod_Solvation_Energy-OPLS-2005>
-422.028259277344

> <b_mmod_Minimization_Converged-OPLS-2005>
0

> <r_mmod_RMS_Derivative-OPLS-2005>
3.02090525627136

$$$$
9
                    3D
 Structure written by MMmdl.
163172  0  0  1  0            999 V2000
  -30.6995  -14.6448   20.4784 C   0  0  0  0  0  0
  -30.4160  -12.4034   19.4402 C   0  0  0  0  0  0
  -29.4817  -12.4728   18.2150 C   0  0  0  0  0  0
  -28.0177  -12.2765   18.6504 C   0  0  0  0  0  0
  -27.6267  -13.1884   19.8390 C   0  0  2  0  0  0
  -28.6870  -13.1661   20.9665 C   0  0  0  0  0  0
  -25.2489  -13.8056   20.5721 C   0  0  0  0  0  0
  -24.1755  -13.0370   20.9240 C   0  0  0  0  0  0
  -24.6302  -11.6833   20.8799 C   0  0  0  0  0  0
  -23.8984  -10.4245   21.0444 C   0  0  0  0  0  0
  -24.3556   -9.4165   21.9212 C   0  0  0  0  0  0
  -23.6249   -8.2198   22.0760 C   0  0  0  0  0  0
  -22.4241   -8.0240   21.3534 C   0  0  0  0  0  0
  -21.9866   -9.0212   20.4638 C   0  0  0  0  0  0
  -22.7177  -10.2096   20.3067 C   0  0  0  0  0  0
  -21.6834   -6.0707   22.5274 C   0  0  0  0  0  0
  -21.4000   -6.5623   23.8206 C   0  0  0  0  0  0
  -21.3657   -5.6785   24.9171 C   0  0  0  0  0  0
  -21.6044   -4.3045   24.7229 C   0  0  0  0  0  0
  -21.8821   -3.8130   23.4355 C   0  0  0  0  0  0
  -21.9184   -4.6939   22.3400 C   0  0  0  0  0  0
  -22.7791  -13.5189   21.1888 C   0  0  0  0  0  0
  -22.1659   -4.2118   21.0982 F   0  0  0  0  0  0
  -21.5630   -3.4540   25.7750 F   0  0  0  0  0  0
  -29.9972  -13.4697   20.3717 N   0  0  0  0  0  0
  -26.2859  -12.9172   20.3318 N   0  0  0  0  0  0
  -25.9214  -11.6373   20.5821 N   0  0  0  0  0  0
  -22.0431  -12.8185   22.0433 N   0  0  0  0  0  0
  -25.4185  -15.1783   20.4085 N   0  0  0  0  0  0
  -31.9032  -14.6869   20.2160 O   0  0  0  0  0  0
  -21.6614   -6.8839   21.4227 O   0  0  0  0  0  0
  -22.3505  -14.5508   20.6731 O   0  0  0  0  0  0
  -24.6246  -31.8609   23.2023 C   0  0  0  0  0  0
  -25.9102  -32.4784   23.8349 C   0  0  1  0  0  0
  -27.2301  -27.3445   20.1021 C   0  0  0  0  0  0
  -25.5918  -33.8580   24.2287 N   0  0  0  0  0  0
  -23.4147  -30.4860   21.5438 C   0  0  2  0  0  0
  -24.8588  -28.9378   20.1128 C   0  0  0  0  0  0
  -22.7456  -29.4635   22.4916 C   0  0  0  0  0  0
  -18.0290  -28.1414   22.8471 C   0  0  0  0  0  0
  -24.1491  -36.7305   23.2638 C   0  0  0  0  0  0
  -25.9509  -30.8024   21.3606 C   0  0  0  0  0  0
  -26.0249  -29.4267   20.7119 C   0  0  0  0  0  0
  -27.2088  -28.6382   20.7005 C   0  0  0  0  0  0
  -26.0305  -26.8873   19.5049 C   0  0  0  0  0  0
  -24.8610  -27.6721   19.5057 C   0  0  0  0  0  0
  -23.6270  -29.8183   20.1595 C   0  0  0  0  0  0
  -25.4115  -36.3079   24.0317 C   0  0  1  0  0  0
  -20.5880  -28.3704   23.1295 C   0  0  2  0  0  0
  -20.6771  -26.9433   22.5400 C   0  0  0  0  0  0
  -19.5752  -26.6417   21.5196 C   0  0  0  0  0  0
  -18.1939  -26.7957   22.1615 C   0  0  0  0  0  0
  -19.1538  -28.8874   23.2884 C   0  0  0  0  0  0
  -18.9458  -30.1471   23.8902 C   0  0  0  0  0  0
  -17.6457  -30.6604   24.0571 C   0  0  0  0  0  0
  -25.9052  -34.9445   23.5105 C   0  0  0  0  0  0
  -16.5351  -29.9115   23.6325 C   0  0  0  0  0  0
  -16.7277  -28.6539   23.0325 C   0  0  0  0  0  0
  -26.4506  -31.6569   25.0691 C   0  0  0  0  0  0
  -25.3752  -31.3597   26.1413 C   0  0  0  0  0  0
  -27.0353  -30.3033   24.6042 C   0  0  0  0  0  0
  -27.6081  -32.4267   25.7479 C   0  0  0  0  0  0
  -27.5578  -37.1822   24.8465 C   0  0  0  0  0  0
  -21.4165  -29.3059   22.3675 N   0  0  0  0  0  0
  -26.4295  -37.3773   23.9394 N   0  0  0  0  0  0
  -24.6830  -31.0655   22.0944 N   0  0  0  0  0  0
  -23.4201  -28.8163   23.2972 O   0  0  0  0  0  0
  -28.3970  -26.5744   20.1493 O   0  0  0  0  0  0
  -26.5628  -34.8899   22.4678 O   0  0  0  0  0  0
  -23.5420  -32.1391   23.7367 O   0  0  0  0  0  0
  -29.7791  -23.7382   21.2782 C   0  0  0  0  0  0
  -30.1357  -22.2229   21.2720 C   0  0  0  0  0  0
  -30.5872  -18.3468   21.1854 C   0  0  0  0  0  0
  -29.0483  -17.7790   19.3777 C   0  0  0  0  0  0
  -28.4426  -22.6018   19.6298 C   0  0  0  0  0  0
  -30.5337  -16.8572   21.6970 C   0  0  0  0  0  0
  -28.9342  -16.3153   19.8898 C   0  0  0  0  0  0
  -28.5196  -23.9534   20.4067 C   0  0  2  0  0  0
  -28.9936  -21.4736   20.5596 C   0  0  1  0  0  0
  -29.3083  -18.8464   20.4630 C   0  0  0  0  0  0
  -28.5135  -25.2594   19.5083 C   0  0  0  0  0  0
  -30.0240  -15.8189   20.7554 N   0  0  0  0  0  0
  -29.4171  -20.2196   19.8304 N   0  3  0  0  0  0
  -31.4538  -12.5081   19.1202 H   0  0  0  0  0  0
  -30.3474  -11.4290   19.9264 H   0  0  0  0  0  0
  -29.7551  -11.7089   17.4862 H   0  0  0  0  0  0
  -29.5930  -13.4331   17.7095 H   0  0  0  0  0  0
  -27.8954  -11.2305   18.9357 H   0  0  0  0  0  0
  -27.3444  -12.4404   17.8079 H   0  0  0  0  0  0
  -27.5701  -14.1762   19.4079 H   0  0  0  0  0  0
  -28.7145  -12.1929   21.4562 H   0  0  0  0  0  0
  -28.4316  -13.8939   21.7388 H   0  0  0  0  0  0
  -25.2696   -9.5647   22.4799 H   0  0  0  0  0  0
  -23.9953   -7.4584   22.7481 H   0  0  0  0  0  0
  -21.0803   -8.8718   19.8944 H   0  0  0  0  0  0
  -22.3633  -10.9638   19.6181 H   0  0  0  0  0  0
  -21.1996   -7.6135   23.9689 H   0  0  0  0  0  0
  -21.1481   -6.0527   25.9072 H   0  0  0  0  0  0
  -22.0606   -2.7594   23.2868 H   0  0  0  0  0  0
  -22.4033  -11.9826   22.4799 H   0  0  0  0  0  0
  -21.1050  -13.1207   22.2653 H   0  0  0  0  0  0
  -24.6499  -15.8313   20.5136 H   0  0  0  0  0  0
  -26.2661  -15.6146   20.0738 H   0  0  0  0  0  0
  -26.7166  -32.5485   23.1098 H   0  0  0  0  0  0
  -25.0003  -33.9716   25.0385 H   0  0  0  0  0  0
  -22.7077  -31.3062   21.4022 H   0  0  0  0  0  0
  -23.3727  -35.9665   23.3280 H   0  0  0  0  0  0
  -24.3583  -36.8972   22.2060 H   0  0  0  0  0  0
  -23.7276  -37.6508   23.6689 H   0  0  0  0  0  0
  -26.0607  -31.5571   20.5809 H   0  0  0  0  0  0
  -26.8429  -30.8716   21.9716 H   0  0  0  0  0  0
  -28.1089  -29.0106   21.1694 H   0  0  0  0  0  0
  -25.9475  -25.9136   19.0486 H   0  0  0  0  0  0
  -23.9612  -27.2870   19.0463 H   0  0  0  0  0  0
  -23.7526  -30.5962   19.4059 H   0  0  0  0  0  0
  -22.7449  -29.2522   19.8533 H   0  0  0  0  0  0
  -25.1298  -36.1938   25.0809 H   0  0  0  0  0  0
  -20.9979  -28.3289   24.1413 H   0  0  0  0  0  0
  -20.5681  -26.2300   23.3585 H   0  0  0  0  0  0
  -21.6643  -26.7488   22.1201 H   0  0  0  0  0  0
  -19.6909  -25.6327   21.1235 H   0  0  0  0  0  0
  -19.6706  -27.3199   20.6695 H   0  0  0  0  0  0
  -17.4202  -26.6675   21.4032 H   0  0  0  0  0  0
  -18.0357  -26.0118   22.9035 H   0  0  0  0  0  0
  -19.7931  -30.7289   24.2272 H   0  0  0  0  0  0
  -17.5017  -31.6274   24.5199 H   0  0  0  0  0  0
  -15.5353  -30.3023   23.7637 H   0  0  0  0  0  0
  -15.8671  -28.0880   22.7008 H   0  0  0  0  0  0
  -24.6007  -30.6873   25.7704 H   0  0  0  0  0  0
  -24.8819  -32.2683   26.4865 H   0  0  0  0  0  0
  -25.8119  -30.8782   27.0173 H   0  0  0  0  0  0
  -26.2886  -29.6764   24.1152 H   0  0  0  0  0  0
  -27.4218  -29.7302   25.4477 H   0  0  0  0  0  0
  -27.8671  -30.4371   23.9119 H   0  0  0  0  0  0
  -27.2767  -33.3621   26.1987 H   0  0  0  0  0  0
  -28.3951  -32.6723   25.0335 H   0  0  0  0  0  0
  -28.0658  -31.8399   26.5455 H   0  0  0  0  0  0
  -28.2582  -38.0133   24.7524 H   0  0  0  0  0  0
  -28.1104  -36.2667   24.6300 H   0  0  0  0  0  0
  -27.2282  -37.1463   25.8865 H   0  0  0  0  0  0
  -20.9321  -29.8837   21.6942 H   0  0  0  0  0  0
  -26.0170  -38.2850   24.1393 H   0  0  0  0  0  0
  -30.6234  -24.3149   20.8964 H   0  0  0  0  0  0
  -29.5998  -24.0914   22.2942 H   0  0  0  0  0  0
  -30.2976  -21.8378   22.2798 H   0  0  0  0  0  0
  -31.0734  -22.0874   20.7305 H   0  0  0  0  0  0
  -31.4412  -18.4479   20.5142 H   0  0  0  0  0  0
  -30.7978  -19.0039   22.0312 H   0  0  0  0  0  0
  -28.1317  -18.0209   18.8377 H   0  0  0  0  0  0
  -29.8467  -17.8196   18.6349 H   0  0  0  0  0  0
  -29.0632  -22.6750   18.7356 H   0  0  0  0  0  0
  -27.4246  -22.3918   19.2973 H   0  0  0  0  0  0
  -29.8855  -16.8178   22.5734 H   0  0  0  0  0  0
  -31.5247  -16.5789   22.0609 H   0  0  0  0  0  0
  -28.8850  -15.7022   18.9909 H   0  0  0  0  0  0
  -28.0012  -16.1950   20.4383 H   0  0  0  0  0  0
  -27.6523  -23.9915   21.0674 H   0  0  0  0  0  0
  -28.2172  -21.2265   21.2862 H   0  0  0  0  0  0
  -28.4662  -18.8428   21.1578 H   0  0  0  0  0  0
  -27.7993  -25.1319   18.6986 H   0  0  0  0  0  0
  -29.4641  -25.2859   18.9760 H   0  0  0  0  0  0
  -30.3272  -20.3463   19.4185 H   0  0  0  0  0  0
  -28.7723  -20.1750   19.0584 H   0  0  0  0  0  0
  1 25  1  0  0  0
  1 30  2  0  0  0
  1 82  1  0  0  0
  2  3  1  0  0  0
  2 25  1  0  0  0
  2 84  1  0  0  0
  2 85  1  0  0  0
  3  4  1  0  0  0
  3 86  1  0  0  0
  3 87  1  0  0  0
  4  5  1  0  0  0
  4 88  1  0  0  0
  4 89  1  0  0  0
  5  6  1  0  0  0
  5 26  1  0  0  0
  5 90  1  0  0  0
  6 25  1  0  0  0
  6 91  1  0  0  0
  6 92  1  0  0  0
  7  8  2  0  0  0
  7 26  1  0  0  0
  7 29  1  0  0  0
  8  9  1  0  0  0
  8 22  1  0  0  0
  9 10  1  0  0  0
  9 27  2  0  0  0
 10 11  2  0  0  0
 10 15  1  0  0  0
 11 12  1  0  0  0
 11 93  1  0  0  0
 12 13  2  0  0  0
 12 94  1  0  0  0
 13 14  1  0  0  0
 13 31  1  0  0  0
 14 15  2  0  0  0
 14 95  1  0  0  0
 15 96  1  0  0  0
 16 17  2  0  0  0
 16 21  1  0  0  0
 16 31  1  0  0  0
 17 18  1  0  0  0
 17 97  1  0  0  0
 18 19  2  0  0  0
 18 98  1  0  0  0
 19 20  1  0  0  0
 19 24  1  0  0  0
 20 21  2  0  0  0
 20 99  1  0  0  0
 21 23  1  0  0  0
 22 28  1  0  0  0
 22 32  2  0  0  0
 26 27  1  0  0  0
 28100  1  0  0  0
 28101  1  0  0  0
 29102  1  0  0  0
 29103  1  0  0  0
 33 34  1  0  0  0
 33 66  1  0  0  0
 33 70  2  0  0  0
 34 36  1  0  0  0
 34 59  1  0  0  0
 34104  1  0  0  0
 35 44  2  0  0  0
 35 45  1  0  0  0
 35 68  1  0  0  0
 36 56  1  0  0  0
 36105  1  0  0  0
 37 39  1  0  0  0
 37 47  1  0  0  0
 37 66  1  0  0  0
 37106  1  0  0  0
 38 43  2  0  0  0
 38 46  1  0  0  0
 38 47  1  0  0  0
 39 64  1  0  0  0
 39 67  2  0  0  0
 40 52  1  0  0  0
 40 53  2  0  0  0
 40 58  1  0  0  0
 41107  1  0  0  0
 41108  1  0  0  0
 41109  1  0  0  0
 41 48  1  0  0  0
 42 43  1  0  0  0
 42 66  1  0  0  0
 42110  1  0  0  0
 42111  1  0  0  0
 43 44  1  0  0  0
 44112  1  0  0  0
 45 46  2  0  0  0
 45113  1  0  0  0
 46114  1  0  0  0
 47115  1  0  0  0
 47116  1  0  0  0
 48 56  1  0  0  0
 48 65  1  0  0  0
 48117  1  0  0  0
 49 50  1  0  0  0
 49 53  1  0  0  0
 49 64  1  0  0  0
 49118  1  0  0  0
 50 51  1  0  0  0
 50119  1  0  0  0
 50120  1  0  0  0
 51 52  1  0  0  0
 51121  1  0  0  0
 51122  1  0  0  0
 52123  1  0  0  0
 52124  1  0  0  0
 53 54  1  0  0  0
 54 55  2  0  0  0
 54125  1  0  0  0
 55 57  1  0  0  0
 55126  1  0  0  0
 56 69  2  0  0  0
 57 58  2  0  0  0
 57127  1  0  0  0
 58128  1  0  0  0
 59 60  1  0  0  0
 59 61  1  0  0  0
 59 62  1  0  0  0
 60129  1  0  0  0
 60130  1  0  0  0
 60131  1  0  0  0
 61132  1  0  0  0
 61133  1  0  0  0
 61134  1  0  0  0
 62135  1  0  0  0
 62136  1  0  0  0
 62137  1  0  0  0
 63 65  1  0  0  0
 63138  1  0  0  0
 63139  1  0  0  0
 63140  1  0  0  0
 64141  1  0  0  0
 65142  1  0  0  0
 68 81  1  0  0  0
 71 72  1  0  0  0
 71 78  1  0  0  0
 71143  1  0  0  0
 71144  1  0  0  0
 72 79  1  0  0  0
 72145  1  0  0  0
 72146  1  0  0  0
 73 76  1  0  0  0
 73 80  1  0  0  0
 73147  1  0  0  0
 73148  1  0  0  0
 74 77  1  0  0  0
 74 80  1  0  0  0
 74149  1  0  0  0
 74150  1  0  0  0
 75 78  1  0  0  0
 75 79  1  0  0  0
 75151  1  0  0  0
 75152  1  0  0  0
 76 82  1  0  0  0
 76153  1  0  0  0
 76154  1  0  0  0
 77 82  1  0  0  0
 77155  1  0  0  0
 77156  1  0  0  0
 78 81  1  0  0  0
 78157  1  0  0  0
 79 83  1  0  0  0
 79158  1  0  0  0
 80 83  1  0  0  0
 80159  1  0  0  0
 81160  1  0  0  0
 81161  1  0  0  0
 83162  1  0  0  0
 83163  1  0  0  0
M  CHG  1  83   1
M  ISO  4   1 100  68 101  81 101  82 100
M  END
> <chiral flag>
0

> <version>
0

> <s_m_source_file>
/data/baiqing/PycharmProjects/Reinvent-master-3.2/result/LINK_invent/BTK/process_docking_weight1_custom_sum_contain_oxygen_bond_distance_aromatic_linkinvent_7_9_3/rearranged_h_0157.sdf

> <i_m_source_file_index>
10

> <r_mmod_Potential_Energy-OPLS-2005>
209.216934204102

> <r_mmod_Stretch_Energy-OPLS-2005>
65.2275772094727

> <r_mmod_Bend_Energy-OPLS-2005>
176.703887939453

> <r_mmod_Torsional_Energy-OPLS-2005>
386.531921386719

> <r_mmod_Improper_Torsional_Energy-OPLS-2005>
3.2895200252533

> <r_mmod_Van_der_Waal_Energy-OPLS-2005>
125.96208190918

> <r_mmod_Electrostatic_Energy-OPLS-2005>
-144.714126586914

> <r_mmod_Solvation_Energy-OPLS-2005>
-455.120727539062

> <b_mmod_Minimization_Converged-OPLS-2005>
0

> <r_mmod_RMS_Derivative-OPLS-2005>
2.04825186729431

$$$$
10
                    3D
 Structure written by MMmdl.
161170  0  0  1  0            999 V2000
  -30.5222  -15.0310   20.4114 C   0  0  0  0  0  0
  -30.4358  -12.6431   19.5097 C   0  0  0  0  0  0
  -29.5252  -12.5425   18.2627 C   0  0  0  0  0  0
  -28.0602  -12.3166   18.6810 C   0  0  0  0  0  0
  -27.6244  -13.2587   19.8326 C   0  0  2  0  0  0
  -28.6630  -13.3285   20.9717 C   0  0  0  0  0  0
  -25.2434  -13.8238   20.5704 C   0  0  0  0  0  0
  -24.1763  -13.0451   20.9219 C   0  0  0  0  0  0
  -24.6395  -11.6938   20.8734 C   0  0  0  0  0  0
  -23.9082  -10.4301   21.0385 C   0  0  0  0  0  0
  -24.3635   -9.4220   21.9169 C   0  0  0  0  0  0
  -23.6307   -8.2256   22.0748 C   0  0  0  0  0  0
  -22.4287   -8.0291   21.3537 C   0  0  0  0  0  0
  -21.9923   -9.0263   20.4633 C   0  0  0  0  0  0
  -22.7253  -10.2141   20.3038 C   0  0  0  0  0  0
  -21.6869   -6.0746   22.5279 C   0  0  0  0  0  0
  -21.4029   -6.5649   23.8215 C   0  0  0  0  0  0
  -21.3657   -5.6800   24.9171 C   0  0  0  0  0  0
  -21.6033   -4.3059   24.7212 C   0  0  0  0  0  0
  -21.8819   -3.8153   23.4339 C   0  0  0  0  0  0
  -21.9202   -4.6971   22.3395 C   0  0  0  0  0  0
  -22.7782  -13.5217   21.1884 C   0  0  0  0  0  0
  -22.1660   -4.2153   21.0972 F   0  0  0  0  0  0
  -21.5619   -3.4548   25.7727 F   0  0  0  0  0  0
  -29.9282  -13.7611   20.3670 N   0  0  0  0  0  0
  -26.2861  -12.9488   20.3227 N   0  0  0  0  0  0
  -25.9330  -11.6605   20.5728 N   0  0  0  0  0  0
  -22.0439  -12.8192   22.0432 N   0  0  0  0  0  0
  -25.4079  -15.1972   20.4126 N   0  0  0  0  0  0
  -31.7338  -15.0525   20.1685 O   0  0  0  0  0  0
  -21.6649   -6.8890   21.4239 O   0  0  0  0  0  0
  -22.3473  -14.5541   20.6762 O   0  0  0  0  0  0
  -24.6481  -31.8393   23.1807 C   0  0  0  0  0  0
  -25.9227  -32.4673   23.8219 C   0  0  1  0  0  0
  -27.2141  -27.0705   20.1775 C   0  0  0  0  0  0
  -25.5956  -33.8479   24.2139 N   0  0  0  0  0  0
  -23.4548  -30.4547   21.5286 C   0  0  2  0  0  0
  -24.9056  -28.8649   20.1156 C   0  0  0  0  0  0
  -22.7592  -29.4519   22.4836 C   0  0  0  0  0  0
  -18.0313  -28.1399   22.8479 C   0  0  0  0  0  0
  -24.1501  -36.7263   23.2640 C   0  0  0  0  0  0
  -26.0136  -30.6929   21.3880 C   0  0  0  0  0  0
  -26.0850  -29.2952   20.7373 C   0  0  0  0  0  0
  -27.2417  -28.4178   20.7442 C   0  0  0  0  0  0
  -26.0102  -26.7556   19.5144 C   0  0  0  0  0  0
  -24.8841  -27.6105   19.4858 C   0  0  0  0  0  0
  -23.6863  -29.7776   20.1510 C   0  0  0  0  0  0
  -25.4134  -36.3021   24.0302 C   0  0  1  0  0  0
  -20.5929  -28.3734   23.1231 C   0  0  2  0  0  0
  -20.6799  -26.9431   22.5409 C   0  0  0  0  0  0
  -19.5770  -26.6379   21.5221 C   0  0  0  0  0  0
  -18.1953  -26.7936   22.1628 C   0  0  0  0  0  0
  -19.1569  -28.8883   23.2847 C   0  0  0  0  0  0
  -18.9481  -30.1482   23.8870 C   0  0  0  0  0  0
  -17.6475  -30.6593   24.0563 C   0  0  0  0  0  0
  -25.9083  -34.9398   23.5030 C   0  0  0  0  0  0
  -16.5369  -29.9083   23.6338 C   0  0  0  0  0  0
  -16.7296  -28.6505   23.0353 C   0  0  0  0  0  0
  -26.4526  -31.6561   25.0686 C   0  0  0  0  0  0
  -25.3684  -31.3779   26.1361 C   0  0  0  0  0  0
  -27.0404  -30.2951   24.6303 C   0  0  0  0  0  0
  -27.6040  -32.4338   25.7485 C   0  0  0  0  0  0
  -27.5579  -37.1791   24.8457 C   0  0  0  0  0  0
  -21.4279  -29.3052   22.3594 N   0  0  0  0  0  0
  -26.4295  -37.3737   23.9394 N   0  0  0  0  0  0
  -24.7260  -31.0188   22.0874 N   0  0  0  0  0  0
  -23.4213  -28.8078   23.3016 O   0  0  0  0  0  0
  -28.2599  -26.0588   20.1957 O   0  0  0  0  0  0
  -26.5679  -34.8906   22.4618 O   0  0  0  0  0  0
  -23.5589  -32.1295   23.7000 O   0  0  0  0  0  0
  -26.9205  -18.6723   18.2491 C   0  0  0  0  0  0
  -26.2595  -19.7129   18.8946 C   0  0  0  0  0  0
  -28.2006  -18.2993   18.6785 C   0  0  0  0  0  0
  -28.8310  -18.9103   19.8033 C   0  0  0  0  0  0
  -26.9622  -20.5494   19.7743 C   0  0  0  0  0  0
  -28.3477  -20.3562   20.0678 C   0  0  0  0  0  0
  -28.9431  -17.2561   17.8400 C   0  0  0  0  0  0
  -30.4899  -17.4092   17.8778 C   0  0  0  0  0  0
  -31.0535  -17.9690   19.2081 C   0  0  0  0  0  0
  -30.0057  -17.8440   20.3220 C   0  0  1  0  0  0
  -26.1395  -21.6511   20.4231 C   0  0  0  0  0  0
  -28.0292  -24.5300   20.5638 C   0  0  0  0  0  0
  -28.7116  -23.0697   19.9342 C   0  0  0  0  0  0
  -29.7516  -16.2485   20.5200 N   0  0  0  0  0  0
  -28.9489  -21.6140   20.5517 O   0  0  0  0  0  0
  -31.4694  -12.8004   19.1980 H   0  0  0  0  0  0
  -30.4355  -11.7024   20.0631 H   0  0  0  0  0  0
  -29.8583  -11.7340   17.6099 H   0  0  0  0  0  0
  -29.6049  -13.4612   17.6791 H   0  0  0  0  0  0
  -27.9701  -11.2790   19.0053 H   0  0  0  0  0  0
  -27.3946  -12.4259   17.8231 H   0  0  0  0  0  0
  -27.5765  -14.2533   19.3884 H   0  0  0  0  0  0
  -28.7697  -12.3642   21.4706 H   0  0  0  0  0  0
  -28.3443  -14.0393   21.7359 H   0  0  0  0  0  0
  -25.2782   -9.5704   22.4743 H   0  0  0  0  0  0
  -24.0006   -7.4655   22.7482 H   0  0  0  0  0  0
  -21.0849   -8.8782   19.8953 H   0  0  0  0  0  0
  -22.3695  -10.9675   19.6148 H   0  0  0  0  0  0
  -21.2029   -7.6158   23.9718 H   0  0  0  0  0  0
  -21.1479   -6.0527   25.9078 H   0  0  0  0  0  0
  -22.0597   -2.7617   23.2844 H   0  0  0  0  0  0
  -22.4064  -11.9838   22.4779 H   0  0  0  0  0  0
  -21.1084  -13.1250   22.2704 H   0  0  0  0  0  0
  -24.6317  -15.8413   20.5150 H   0  0  0  0  0  0
  -26.2422  -15.6448   20.0578 H   0  0  0  0  0  0
  -26.7293  -32.5263   23.0942 H   0  0  0  0  0  0
  -25.0064  -33.9583   25.0260 H   0  0  0  0  0  0
  -22.7594  -31.2814   21.3678 H   0  0  0  0  0  0
  -23.3758  -35.9599   23.3282 H   0  0  0  0  0  0
  -24.3578  -36.8926   22.2058 H   0  0  0  0  0  0
  -23.7267  -37.6454   23.6703 H   0  0  0  0  0  0
  -26.1705  -31.4403   20.6091 H   0  0  0  0  0  0
  -26.8823  -30.7523   22.0316 H   0  0  0  0  0  0
  -28.1419  -28.7467   21.2441 H   0  0  0  0  0  0
  -25.9214  -25.7972   19.0231 H   0  0  0  0  0  0
  -23.9875  -27.2748   18.9835 H   0  0  0  0  0  0
  -23.8329  -30.5486   19.3934 H   0  0  0  0  0  0
  -22.7982  -29.2262   19.8372 H   0  0  0  0  0  0
  -25.1332  -36.1838   25.0797 H   0  0  0  0  0  0
  -21.0023  -28.3329   24.1350 H   0  0  0  0  0  0
  -20.5707  -26.2345   23.3632 H   0  0  0  0  0  0
  -21.6664  -26.7443   22.1198 H   0  0  0  0  0  0
  -19.6934  -25.6282   21.1269 H   0  0  0  0  0  0
  -19.6704  -27.3175   20.6741 H   0  0  0  0  0  0
  -17.4224  -26.6686   21.4029 H   0  0  0  0  0  0
  -18.0350  -26.0084   22.9031 H   0  0  0  0  0  0
  -19.7956  -30.7315   24.2218 H   0  0  0  0  0  0
  -17.5023  -31.6266   24.5175 H   0  0  0  0  0  0
  -15.5367  -30.2972   23.7670 H   0  0  0  0  0  0
  -15.8702  -28.0815   22.7071 H   0  0  0  0  0  0
  -24.5866  -30.7130   25.7666 H   0  0  0  0  0  0
  -24.8868  -32.2979   26.4686 H   0  0  0  0  0  0
  -25.7932  -30.9002   27.0198 H   0  0  0  0  0  0
  -26.3041  -29.6657   24.1294 H   0  0  0  0  0  0
  -27.3990  -29.7269   25.4894 H   0  0  0  0  0  0
  -27.8953  -30.4173   23.9650 H   0  0  0  0  0  0
  -27.2618  -33.3661   26.1986 H   0  0  0  0  0  0
  -28.3895  -32.6863   25.0350 H   0  0  0  0  0  0
  -28.0659  -31.8513   26.5464 H   0  0  0  0  0  0
  -28.2583  -38.0101   24.7501 H   0  0  0  0  0  0
  -28.1091  -36.2624   24.6294 H   0  0  0  0  0  0
  -27.2289  -37.1451   25.8859 H   0  0  0  0  0  0
  -20.9493  -29.8762   21.6766 H   0  0  0  0  0  0
  -26.0155  -38.2808   24.1379 H   0  0  0  0  0  0
  -26.4232  -18.1369   17.4513 H   0  0  0  0  0  0
  -25.2280  -19.9224   18.6484 H   0  0  0  0  0  0
  -28.6152  -17.3248   16.8009 H   0  0  0  0  0  0
  -28.6430  -16.2610   18.1689 H   0  0  0  0  0  0
  -30.9484  -16.4466   17.6454 H   0  0  0  0  0  0
  -30.8034  -18.0818   17.0788 H   0  0  0  0  0  0
  -31.3111  -19.0218   19.0801 H   0  0  0  0  0  0
  -31.9902  -17.4773   19.4707 H   0  0  0  0  0  0
  -30.4138  -18.2311   21.2569 H   0  0  0  0  0  0
  -25.1571  -21.2704   20.7029 H   0  0  0  0  0  0
  -25.9821  -22.4802   19.7337 H   0  0  0  0  0  0
  -26.5996  -22.0144   21.3422 H   0  0  0  0  0  0
  -28.3044  -24.5108   21.6184 H   0  0  0  0  0  0
  -26.9504  -24.3840   20.5886 H   0  0  0  0  0  0
  -29.7294  -23.3592   19.6746 H   0  0  0  0  0  0
  -28.2513  -22.9174   18.9572 H   0  0  0  0  0  0
  -28.7844  -16.0512   20.7226 H   0  0  0  0  0  0
  1 25  1  0  0  0
  1 30  2  0  0  0
  1 84  1  0  0  0
  2  3  1  0  0  0
  2 25  1  0  0  0
  2 86  1  0  0  0
  2 87  1  0  0  0
  3  4  1  0  0  0
  3 88  1  0  0  0
  3 89  1  0  0  0
  4  5  1  0  0  0
  4 90  1  0  0  0
  4 91  1  0  0  0
  5  6  1  0  0  0
  5 26  1  0  0  0
  5 92  1  0  0  0
  6 25  1  0  0  0
  6 93  1  0  0  0
  6 94  1  0  0  0
  7  8  2  0  0  0
  7 26  1  0  0  0
  7 29  1  0  0  0
  8  9  1  0  0  0
  8 22  1  0  0  0
  9 10  1  0  0  0
  9 27  2  0  0  0
 10 11  2  0  0  0
 10 15  1  0  0  0
 11 12  1  0  0  0
 11 95  1  0  0  0
 12 13  2  0  0  0
 12 96  1  0  0  0
 13 14  1  0  0  0
 13 31  1  0  0  0
 14 15  2  0  0  0
 14 97  1  0  0  0
 15 98  1  0  0  0
 16 17  2  0  0  0
 16 21  1  0  0  0
 16 31  1  0  0  0
 17 18  1  0  0  0
 17 99  1  0  0  0
 18 19  2  0  0  0
 18100  1  0  0  0
 19 20  1  0  0  0
 19 24  1  0  0  0
 20 21  2  0  0  0
 20101  1  0  0  0
 21 23  1  0  0  0
 22 28  1  0  0  0
 22 32  2  0  0  0
 26 27  1  0  0  0
 28102  1  0  0  0
 28103  1  0  0  0
 29104  1  0  0  0
 29105  1  0  0  0
 33 34  1  0  0  0
 33 66  1  0  0  0
 33 70  2  0  0  0
 34 36  1  0  0  0
 34 59  1  0  0  0
 34106  1  0  0  0
 35 44  2  0  0  0
 35 45  1  0  0  0
 35 68  1  0  0  0
 36 56  1  0  0  0
 36107  1  0  0  0
 37 39  1  0  0  0
 37 47  1  0  0  0
 37 66  1  0  0  0
 37108  1  0  0  0
 38 43  2  0  0  0
 38 46  1  0  0  0
 38 47  1  0  0  0
 39 64  1  0  0  0
 39 67  2  0  0  0
 40 52  1  0  0  0
 40 53  2  0  0  0
 40 58  1  0  0  0
 41109  1  0  0  0
 41110  1  0  0  0
 41111  1  0  0  0
 41 48  1  0  0  0
 42 43  1  0  0  0
 42 66  1  0  0  0
 42112  1  0  0  0
 42113  1  0  0  0
 43 44  1  0  0  0
 44114  1  0  0  0
 45 46  2  0  0  0
 45115  1  0  0  0
 46116  1  0  0  0
 47117  1  0  0  0
 47118  1  0  0  0
 48 56  1  0  0  0
 48 65  1  0  0  0
 48119  1  0  0  0
 49 50  1  0  0  0
 49 53  1  0  0  0
 49 64  1  0  0  0
 49120  1  0  0  0
 50 51  1  0  0  0
 50121  1  0  0  0
 50122  1  0  0  0
 51 52  1  0  0  0
 51123  1  0  0  0
 51124  1  0  0  0
 52125  1  0  0  0
 52126  1  0  0  0
 53 54  1  0  0  0
 54 55  2  0  0  0
 54127  1  0  0  0
 55 57  1  0  0  0
 55128  1  0  0  0
 56 69  2  0  0  0
 57 58  2  0  0  0
 57129  1  0  0  0
 58130  1  0  0  0
 59 60  1  0  0  0
 59 61  1  0  0  0
 59 62  1  0  0  0
 60131  1  0  0  0
 60132  1  0  0  0
 60133  1  0  0  0
 61134  1  0  0  0
 61135  1  0  0  0
 61136  1  0  0  0
 62137  1  0  0  0
 62138  1  0  0  0
 62139  1  0  0  0
 63 65  1  0  0  0
 63140  1  0  0  0
 63141  1  0  0  0
 63142  1  0  0  0
 64143  1  0  0  0
 65144  1  0  0  0
 68 82  1  0  0  0
 71 72  2  0  0  0
 71 73  1  0  0  0
 71145  1  0  0  0
 72 75  1  0  0  0
 72146  1  0  0  0
 73 74  2  0  0  0
 73 77  1  0  0  0
 74 76  1  0  0  0
 74 80  1  0  0  0
 75 76  2  0  0  0
 75 81  1  0  0  0
 76 85  1  0  0  0
 77 78  1  0  0  0
 77147  1  0  0  0
 77148  1  0  0  0
 78 79  1  0  0  0
 78149  1  0  0  0
 78150  1  0  0  0
 79 80  1  0  0  0
 79151  1  0  0  0
 79152  1  0  0  0
 80 84  1  0  0  0
 80153  1  0  0  0
 81154  1  0  0  0
 81155  1  0  0  0
 81156  1  0  0  0
 82 83  1  0  0  0
 82157  1  0  0  0
 82158  1  0  0  0
 83 85  1  0  0  0
 83159  1  0  0  0
 83160  1  0  0  0
 84161  1  0  0  0
M  ISO  4   1 100  68 101  82 101  84 100
M  END
> <chiral flag>
0

> <version>
0

> <s_m_source_file>
/data/baiqing/PycharmProjects/Reinvent-master-3.2/result/LINK_invent/BTK/process_docking_weight1_custom_sum_contain_oxygen_bond_distance_aromatic_linkinvent_7_9_3/rearranged_h_0157.sdf

> <i_m_source_file_index>
11

> <r_mmod_Potential_Energy-OPLS-2005>
890.3193359375

> <r_mmod_Stretch_Energy-OPLS-2005>
383.921356201172

> <r_mmod_Bend_Energy-OPLS-2005>
383.459197998047

> <r_mmod_Torsional_Energy-OPLS-2005>
329.149841308594

> <r_mmod_Improper_Torsional_Energy-OPLS-2005>
5.28927803039551

> <r_mmod_Van_der_Waal_Energy-OPLS-2005>
148.330627441406

> <r_mmod_Electrostatic_Energy-OPLS-2005>
-400.349975585938

> <r_mmod_Solvation_Energy-OPLS-2005>
-210.003036499023

> <b_mmod_Minimization_Converged-OPLS-2005>
0

> <r_mmod_RMS_Derivative-OPLS-2005>
1.69853949546814

$$$$
11
                    3D
 Structure written by MMmdl.
162171  0  0  1  0            999 V2000
  -30.5207  -15.0180   20.3998 C   0  0  0  0  0  0
  -30.4344  -12.6293   19.5074 C   0  0  0  0  0  0
  -29.5211  -12.5368   18.2625 C   0  0  0  0  0  0
  -28.0565  -12.3116   18.6823 C   0  0  0  0  0  0
  -27.6233  -13.2546   19.8347 C   0  0  2  0  0  0
  -28.6641  -13.3179   20.9728 C   0  0  0  0  0  0
  -25.2438  -13.8226   20.5720 C   0  0  0  0  0  0
  -24.1766  -13.0439   20.9239 C   0  0  0  0  0  0
  -24.6388  -11.6925   20.8761 C   0  0  0  0  0  0
  -23.9077  -10.4293   21.0410 C   0  0  0  0  0  0
  -24.3625   -9.4207   21.9188 C   0  0  0  0  0  0
  -23.6296   -8.2244   22.0759 C   0  0  0  0  0  0
  -22.4281   -8.0280   21.3547 C   0  0  0  0  0  0
  -21.9918   -9.0253   20.4651 C   0  0  0  0  0  0
  -22.7249  -10.2131   20.3060 C   0  0  0  0  0  0
  -21.6857   -6.0735   22.5278 C   0  0  0  0  0  0
  -21.4016   -6.5637   23.8210 C   0  0  0  0  0  0
  -21.3659   -5.6792   24.9172 C   0  0  0  0  0  0
  -21.6046   -4.3055   24.7224 C   0  0  0  0  0  0
  -21.8818   -3.8144   23.4346 C   0  0  0  0  0  0
  -21.9192   -4.6961   22.3402 C   0  0  0  0  0  0
  -22.7783  -13.5201   21.1886 C   0  0  0  0  0  0
  -22.1662   -4.2145   21.0981 F   0  0  0  0  0  0
  -21.5625   -3.4538   25.7736 F   0  0  0  0  0  0
  -29.9303  -13.7464   20.3664 N   0  0  0  0  0  0
  -26.2854  -12.9468   20.3241 N   0  0  0  0  0  0
  -25.9322  -11.6591   20.5752 N   0  0  0  0  0  0
  -22.0447  -12.8181   22.0446 N   0  0  0  0  0  0
  -25.4080  -15.1958   20.4116 N   0  0  0  0  0  0
  -31.7333  -15.0350   20.1490 O   0  0  0  0  0  0
  -21.6643   -6.8878   21.4241 O   0  0  0  0  0  0
  -22.3461  -14.5504   20.6733 O   0  0  0  0  0  0
  -24.6484  -31.8397   23.1827 C   0  0  0  0  0  0
  -25.9228  -32.4671   23.8244 C   0  0  1  0  0  0
  -27.2044  -27.0739   20.1642 C   0  0  0  0  0  0
  -25.5965  -33.8477   24.2163 N   0  0  0  0  0  0
  -23.4544  -30.4584   21.5300 C   0  0  2  0  0  0
  -24.9021  -28.8741   20.1118 C   0  0  0  0  0  0
  -22.7600  -29.4521   22.4831 C   0  0  0  0  0  0
  -18.0323  -28.1402   22.8462 C   0  0  0  0  0  0
  -24.1499  -36.7237   23.2645 C   0  0  0  0  0  0
  -26.0151  -30.6932   21.3912 C   0  0  0  0  0  0
  -26.0821  -29.2976   20.7361 C   0  0  0  0  0  0
  -27.2344  -28.4144   20.7420 C   0  0  0  0  0  0
  -26.0017  -26.7729   19.4878 C   0  0  0  0  0  0
  -24.8783  -27.6282   19.4698 C   0  0  0  0  0  0
  -23.6842  -29.7861   20.1508 C   0  0  0  0  0  0
  -25.4131  -36.3015   24.0316 C   0  0  1  0  0  0
  -20.5940  -28.3727   23.1225 C   0  0  2  0  0  0
  -20.6808  -26.9427   22.5408 C   0  0  0  0  0  0
  -19.5786  -26.6381   21.5214 C   0  0  0  0  0  0
  -18.1958  -26.7939   22.1613 C   0  0  0  0  0  0
  -19.1580  -28.8882   23.2833 C   0  0  0  0  0  0
  -18.9496  -30.1472   23.8864 C   0  0  0  0  0  0
  -17.6493  -30.6588   24.0555 C   0  0  0  0  0  0
  -25.9085  -34.9393   23.5051 C   0  0  0  0  0  0
  -16.5380  -29.9080   23.6338 C   0  0  0  0  0  0
  -16.7308  -28.6507   23.0344 C   0  0  0  0  0  0
  -26.4534  -31.6552   25.0702 C   0  0  0  0  0  0
  -25.3696  -31.3760   26.1381 C   0  0  0  0  0  0
  -27.0404  -30.2948   24.6299 C   0  0  0  0  0  0
  -27.6063  -32.4320   25.7491 C   0  0  0  0  0  0
  -27.5573  -37.1772   24.8472 C   0  0  0  0  0  0
  -21.4289  -29.3044   22.3578 N   0  0  0  0  0  0
  -26.4288  -37.3736   23.9412 N   0  0  0  0  0  0
  -24.7265  -31.0197   22.0894 N   0  0  0  0  0  0
  -23.4221  -28.8073   23.3001 O   0  0  0  0  0  0
  -28.2484  -26.0600   20.2046 O   0  0  0  0  0  0
  -26.5674  -34.8897   22.4629 O   0  0  0  0  0  0
  -23.5588  -32.1310   23.7004 O   0  0  0  0  0  0
  -30.7628  -20.5307   20.0471 C   0  0  0  0  0  0
  -29.0669  -18.8948   20.4834 C   0  0  0  0  0  0
  -29.3969  -20.3541   20.3249 C   0  0  0  0  0  0
  -31.6440  -19.4325   19.9443 C   0  0  0  0  0  0
  -30.0268  -17.7458   20.3726 C   0  0  0  0  0  0
  -27.9912  -23.9444   21.7800 C   0  0  0  0  0  0
  -28.4406  -22.4190   21.8284 C   0  0  0  0  0  0
  -28.8123  -23.2012   19.6979 C   0  0  0  0  0  0
  -27.9896  -24.4976   20.3291 C   0  0  2  0  0  0
  -28.4463  -21.7410   20.4199 C   0  0  1  0  0  0
  -33.1021  -19.6857   19.6246 C   0  0  0  0  0  0
  -26.0550  -20.7897   21.0159 C   0  0  0  0  0  0
  -27.0133  -21.3498   19.9476 C   0  0  0  0  0  0
  -31.2960  -18.1294   20.0994 N   0  0  0  0  0  0
  -29.7396  -16.2259   20.5212 N   0  0  0  0  0  0
  -31.4672  -12.7859   19.1936 H   0  0  0  0  0  0
  -30.4332  -11.6869   20.0582 H   0  0  0  0  0  0
  -29.8511  -11.7311   17.6051 H   0  0  0  0  0  0
  -29.5979  -13.4580   17.6830 H   0  0  0  0  0  0
  -27.9632  -11.2736   19.0041 H   0  0  0  0  0  0
  -27.3916  -12.4256   17.8252 H   0  0  0  0  0  0
  -27.5756  -14.2489   19.3891 H   0  0  0  0  0  0
  -28.7679  -12.3526   21.4708 H   0  0  0  0  0  0
  -28.3529  -14.0301   21.7386 H   0  0  0  0  0  0
  -25.2769   -9.5680   22.4764 H   0  0  0  0  0  0
  -24.0002   -7.4635   22.7482 H   0  0  0  0  0  0
  -21.0849   -8.8769   19.8956 H   0  0  0  0  0  0
  -22.3707  -10.9666   19.6168 H   0  0  0  0  0  0
  -21.2015   -7.6146   23.9710 H   0  0  0  0  0  0
  -21.1483   -6.0524   25.9074 H   0  0  0  0  0  0
  -22.0600   -2.7605   23.2847 H   0  0  0  0  0  0
  -22.4072  -11.9827   22.4795 H   0  0  0  0  0  0
  -21.1074  -13.1205   22.2688 H   0  0  0  0  0  0
  -24.6291  -15.8392   20.5060 H   0  0  0  0  0  0
  -26.2342  -15.6330   20.0251 H   0  0  0  0  0  0
  -26.7282  -32.5254   23.0957 H   0  0  0  0  0  0
  -25.0109  -33.9599   25.0313 H   0  0  0  0  0  0
  -22.7601  -31.2856   21.3707 H   0  0  0  0  0  0
  -23.3770  -35.9560   23.3300 H   0  0  0  0  0  0
  -24.3589  -36.8878   22.2061 H   0  0  0  0  0  0
  -23.7248  -37.6429   23.6689 H   0  0  0  0  0  0
  -26.1780  -31.4429   20.6158 H   0  0  0  0  0  0
  -26.8830  -30.7464   22.0361 H   0  0  0  0  0  0
  -28.1324  -28.7331   21.2515 H   0  0  0  0  0  0
  -25.8976  -25.8350   18.9645 H   0  0  0  0  0  0
  -23.9823  -27.3044   18.9585 H   0  0  0  0  0  0
  -23.8294  -30.5603   19.3966 H   0  0  0  0  0  0
  -22.7964  -29.2353   19.8352 H   0  0  0  0  0  0
  -25.1319  -36.1839   25.0809 H   0  0  0  0  0  0
  -21.0031  -28.3315   24.1346 H   0  0  0  0  0  0
  -20.5719  -26.2328   23.3626 H   0  0  0  0  0  0
  -21.6668  -26.7438   22.1195 H   0  0  0  0  0  0
  -19.6958  -25.6287   21.1260 H   0  0  0  0  0  0
  -19.6734  -27.3171   20.6731 H   0  0  0  0  0  0
  -17.4238  -26.6690   21.4005 H   0  0  0  0  0  0
  -18.0339  -26.0093   22.9018 H   0  0  0  0  0  0
  -19.7973  -30.7291   24.2217 H   0  0  0  0  0  0
  -17.5050  -31.6269   24.5158 H   0  0  0  0  0  0
  -15.5376  -30.2970   23.7685 H   0  0  0  0  0  0
  -15.8712  -28.0815   22.7069 H   0  0  0  0  0  0
  -24.5923  -30.7054   25.7704 H   0  0  0  0  0  0
  -24.8824  -32.2940   26.4677 H   0  0  0  0  0  0
  -25.7961  -30.9039   27.0239 H   0  0  0  0  0  0
  -26.3032  -29.6665   24.1291 H   0  0  0  0  0  0
  -27.4016  -29.7255   25.4872 H   0  0  0  0  0  0
  -27.8937  -30.4199   23.9632 H   0  0  0  0  0  0
  -27.2681  -33.3678   26.1954 H   0  0  0  0  0  0
  -28.3932  -32.6779   25.0346 H   0  0  0  0  0  0
  -28.0662  -31.8511   26.5500 H   0  0  0  0  0  0
  -28.2572  -38.0083   24.7509 H   0  0  0  0  0  0
  -28.1088  -36.2606   24.6315 H   0  0  0  0  0  0
  -27.2290  -37.1436   25.8876 H   0  0  0  0  0  0
  -20.9509  -29.8752   21.6748 H   0  0  0  0  0  0
  -26.0153  -38.2803   24.1421 H   0  0  0  0  0  0
  -31.1530  -21.5286   19.9055 H   0  0  0  0  0  0
  -28.0385  -18.6427   20.6928 H   0  0  0  0  0  0
  -28.6731  -24.5318   22.3957 H   0  0  0  0  0  0
  -27.0008  -24.0647   22.2216 H   0  0  0  0  0  0
  -27.8911  -21.8517   22.5785 H   0  0  0  0  0  0
  -29.4708  -22.4068   22.1867 H   0  0  0  0  0  0
  -29.8744  -23.3999   19.8399 H   0  0  0  0  0  0
  -28.6719  -23.1414   18.6180 H   0  0  0  0  0  0
  -26.9766  -24.3467   19.9685 H   0  0  0  0  0  0
  -33.4895  -20.4992   20.2382 H   0  0  0  0  0  0
  -33.2119  -19.9684   18.5779 H   0  0  0  0  0  0
  -33.7171  -18.8036   19.8040 H   0  0  0  0  0  0
  -25.1296  -20.4412   20.5569 H   0  0  0  0  0  0
  -25.7768  -21.5559   21.7406 H   0  0  0  0  0  0
  -26.4844  -19.9537   21.5653 H   0  0  0  0  0  0
  -27.0969  -20.6372   19.1256 H   0  0  0  0  0  0
  -26.5086  -22.2082   19.5064 H   0  0  0  0  0  0
  -28.7711  -16.0264   20.7110 H   0  0  0  0  0  0
  1 25  1  0  0  0
  1 30  2  0  0  0
  1 85  1  0  0  0
  2  3  1  0  0  0
  2 25  1  0  0  0
  2 86  1  0  0  0
  2 87  1  0  0  0
  3  4  1  0  0  0
  3 88  1  0  0  0
  3 89  1  0  0  0
  4  5  1  0  0  0
  4 90  1  0  0  0
  4 91  1  0  0  0
  5  6  1  0  0  0
  5 26  1  0  0  0
  5 92  1  0  0  0
  6 25  1  0  0  0
  6 93  1  0  0  0
  6 94  1  0  0  0
  7  8  2  0  0  0
  7 26  1  0  0  0
  7 29  1  0  0  0
  8  9  1  0  0  0
  8 22  1  0  0  0
  9 10  1  0  0  0
  9 27  2  0  0  0
 10 11  2  0  0  0
 10 15  1  0  0  0
 11 12  1  0  0  0
 11 95  1  0  0  0
 12 13  2  0  0  0
 12 96  1  0  0  0
 13 14  1  0  0  0
 13 31  1  0  0  0
 14 15  2  0  0  0
 14 97  1  0  0  0
 15 98  1  0  0  0
 16 17  2  0  0  0
 16 21  1  0  0  0
 16 31  1  0  0  0
 17 18  1  0  0  0
 17 99  1  0  0  0
 18 19  2  0  0  0
 18100  1  0  0  0
 19 20  1  0  0  0
 19 24  1  0  0  0
 20 21  2  0  0  0
 20101  1  0  0  0
 21 23  1  0  0  0
 22 28  1  0  0  0
 22 32  2  0  0  0
 26 27  1  0  0  0
 28102  1  0  0  0
 28103  1  0  0  0
 29104  1  0  0  0
 29105  1  0  0  0
 33 34  1  0  0  0
 33 66  1  0  0  0
 33 70  2  0  0  0
 34 36  1  0  0  0
 34 59  1  0  0  0
 34106  1  0  0  0
 35 44  2  0  0  0
 35 45  1  0  0  0
 35 68  1  0  0  0
 36 56  1  0  0  0
 36107  1  0  0  0
 37 39  1  0  0  0
 37 47  1  0  0  0
 37 66  1  0  0  0
 37108  1  0  0  0
 38 43  2  0  0  0
 38 46  1  0  0  0
 38 47  1  0  0  0
 39 64  1  0  0  0
 39 67  2  0  0  0
 40 52  1  0  0  0
 40 53  2  0  0  0
 40 58  1  0  0  0
 41109  1  0  0  0
 41110  1  0  0  0
 41111  1  0  0  0
 41 48  1  0  0  0
 42 43  1  0  0  0
 42 66  1  0  0  0
 42112  1  0  0  0
 42113  1  0  0  0
 43 44  1  0  0  0
 44114  1  0  0  0
 45 46  2  0  0  0
 45115  1  0  0  0
 46116  1  0  0  0
 47117  1  0  0  0
 47118  1  0  0  0
 48 56  1  0  0  0
 48 65  1  0  0  0
 48119  1  0  0  0
 49 50  1  0  0  0
 49 53  1  0  0  0
 49 64  1  0  0  0
 49120  1  0  0  0
 50 51  1  0  0  0
 50121  1  0  0  0
 50122  1  0  0  0
 51 52  1  0  0  0
 51123  1  0  0  0
 51124  1  0  0  0
 52125  1  0  0  0
 52126  1  0  0  0
 53 54  1  0  0  0
 54 55  2  0  0  0
 54127  1  0  0  0
 55 57  1  0  0  0
 55128  1  0  0  0
 56 69  2  0  0  0
 57 58  2  0  0  0
 57129  1  0  0  0
 58130  1  0  0  0
 59 60  1  0  0  0
 59 61  1  0  0  0
 59 62  1  0  0  0
 60131  1  0  0  0
 60132  1  0  0  0
 60133  1  0  0  0
 61134  1  0  0  0
 61135  1  0  0  0
 61136  1  0  0  0
 62137  1  0  0  0
 62138  1  0  0  0
 62139  1  0  0  0
 63 65  1  0  0  0
 63140  1  0  0  0
 63141  1  0  0  0
 63142  1  0  0  0
 64143  1  0  0  0
 65144  1  0  0  0
 68 79  1  0  0  0
 71 73  2  0  0  0
 71 74  1  0  0  0
 71145  1  0  0  0
 72 73  1  0  0  0
 72 75  2  0  0  0
 72146  1  0  0  0
 73 80  1  0  0  0
 74 81  1  0  0  0
 74 84  2  0  0  0
 75 84  1  0  0  0
 75 85  1  0  0  0
 76 77  1  0  0  0
 76 79  1  0  0  0
 76147  1  0  0  0
 76148  1  0  0  0
 77 80  1  0  0  0
 77149  1  0  0  0
 77150  1  0  0  0
 78 79  1  0  0  0
 78 80  1  0  0  0
 78151  1  0  0  0
 78152  1  0  0  0
 79153  1  0  0  0
 80 83  1  0  0  0
 81154  1  0  0  0
 81155  1  0  0  0
 81156  1  0  0  0
 82 83  1  0  0  0
 82157  1  0  0  0
 82158  1  0  0  0
 82159  1  0  0  0
 83160  1  0  0  0
 83161  1  0  0  0
 85162  1  0  0  0
M  ISO  4   1 100  68 101  79 101  85 100
M  END
> <chiral flag>
0

> <version>
0

> <s_m_source_file>
/data/baiqing/PycharmProjects/Reinvent-master-3.2/result/LINK_invent/BTK/process_docking_weight1_custom_sum_contain_oxygen_bond_distance_aromatic_linkinvent_7_9_3/rearranged_h_0157.sdf

> <i_m_source_file_index>
12

> <r_mmod_Potential_Energy-OPLS-2005>
524.287353515625

> <r_mmod_Stretch_Energy-OPLS-2005>
305.032897949219

> <r_mmod_Bend_Energy-OPLS-2005>
323.861358642578

> <r_mmod_Torsional_Energy-OPLS-2005>
269.780883789062

> <r_mmod_Improper_Torsional_Energy-OPLS-2005>
4.09784078598022

> <r_mmod_Van_der_Waal_Energy-OPLS-2005>
133.353103637695

> <r_mmod_Electrostatic_Energy-OPLS-2005>
-526.866821289062

> <r_mmod_Solvation_Energy-OPLS-2005>
-228.456237792969

> <b_mmod_Minimization_Converged-OPLS-2005>
0

> <r_mmod_RMS_Derivative-OPLS-2005>
1.26333844661713

$$$$
12
                    3D
 Structure written by MMmdl.
164173  0  0  1  0            999 V2000
  -30.6191  -14.7477   20.5091 C   0  0  0  0  0  0
  -30.4411  -12.4783   19.4586 C   0  0  0  0  0  0
  -29.5204  -12.5325   18.2222 C   0  0  0  0  0  0
  -28.0384  -12.3749   18.6186 C   0  0  0  0  0  0
  -27.6435  -13.2409   19.8468 C   0  0  2  0  0  0
  -28.6878  -13.1566   20.9771 C   0  0  0  0  0  0
  -25.2497  -13.8192   20.5649 C   0  0  0  0  0  0
  -24.1813  -13.0443   20.9190 C   0  0  0  0  0  0
  -24.6414  -11.6917   20.8709 C   0  0  0  0  0  0
  -23.9096  -10.4299   21.0370 C   0  0  0  0  0  0
  -24.3644   -9.4215   21.9145 C   0  0  0  0  0  0
  -23.6315   -8.2259   22.0729 C   0  0  0  0  0  0
  -22.4289   -8.0287   21.3541 C   0  0  0  0  0  0
  -21.9930   -9.0261   20.4643 C   0  0  0  0  0  0
  -22.7258  -10.2133   20.3037 C   0  0  0  0  0  0
  -21.6871   -6.0735   22.5273 C   0  0  0  0  0  0
  -21.4024   -6.5633   23.8207 C   0  0  0  0  0  0
  -21.3660   -5.6779   24.9169 C   0  0  0  0  0  0
  -21.6059   -4.3044   24.7225 C   0  0  0  0  0  0
  -21.8815   -3.8140   23.4342 C   0  0  0  0  0  0
  -21.9205   -4.6961   22.3399 C   0  0  0  0  0  0
  -22.7824  -13.5205   21.1877 C   0  0  0  0  0  0
  -22.1662   -4.2144   21.0978 F   0  0  0  0  0  0
  -21.5635   -3.4527   25.7742 F   0  0  0  0  0  0
  -29.9827  -13.5308   20.3937 N   0  0  0  0  0  0
  -26.2948  -12.9428   20.3217 N   0  0  0  0  0  0
  -25.9344  -11.6559   20.5667 N   0  0  0  0  0  0
  -22.0483  -12.8182   22.0425 N   0  0  0  0  0  0
  -25.4130  -15.1932   20.4033 N   0  0  0  0  0  0
  -31.8101  -14.8293   20.1989 O   0  0  0  0  0  0
  -21.6653   -6.8877   21.4238 O   0  0  0  0  0  0
  -22.3493  -14.5511   20.6716 O   0  0  0  0  0  0
  -24.6350  -31.8504   23.1915 C   0  0  0  0  0  0
  -25.9179  -32.4727   23.8267 C   0  0  1  0  0  0
  -27.2350  -27.2238   20.1391 C   0  0  0  0  0  0
  -25.5979  -33.8528   24.2186 N   0  0  0  0  0  0
  -23.4344  -30.4681   21.5360 C   0  0  2  0  0  0
  -24.8877  -28.9094   20.1083 C   0  0  0  0  0  0
  -22.7521  -29.4570   22.4894 C   0  0  0  0  0  0
  -18.0290  -28.1383   22.8469 C   0  0  0  0  0  0
  -24.1507  -36.7247   23.2633 C   0  0  0  0  0  0
  -25.9834  -30.7493   21.3825 C   0  0  0  0  0  0
  -26.0572  -29.3694   20.7253 C   0  0  0  0  0  0
  -27.2278  -28.5367   20.7343 C   0  0  0  0  0  0
  -26.0395  -26.8497   19.4800 C   0  0  0  0  0  0
  -24.8862  -27.6600   19.4739 C   0  0  0  0  0  0
  -23.6541  -29.7920   20.1558 C   0  0  0  0  0  0
  -25.4146  -36.3041   24.0299 C   0  0  1  0  0  0
  -20.5903  -28.3704   23.1245 C   0  0  2  0  0  0
  -20.6793  -26.9416   22.5391 C   0  0  0  0  0  0
  -19.5770  -26.6369   21.5199 C   0  0  0  0  0  0
  -18.1943  -26.7922   22.1595 C   0  0  0  0  0  0
  -19.1551  -28.8859   23.2842 C   0  0  0  0  0  0
  -18.9474  -30.1470   23.8852 C   0  0  0  0  0  0
  -17.6469  -30.6588   24.0553 C   0  0  0  0  0  0
  -25.9085  -34.9420   23.5035 C   0  0  0  0  0  0
  -16.5362  -29.9062   23.6358 C   0  0  0  0  0  0
  -16.7280  -28.6488   23.0367 C   0  0  0  0  0  0
  -26.4534  -31.6593   25.0689 C   0  0  0  0  0  0
  -25.3720  -31.3786   26.1388 C   0  0  0  0  0  0
  -27.0430  -30.3002   24.6253 C   0  0  0  0  0  0
  -27.6054  -32.4383   25.7481 C   0  0  0  0  0  0
  -27.5587  -37.1768   24.8452 C   0  0  0  0  0  0
  -21.4221  -29.3036   22.3632 N   0  0  0  0  0  0
  -26.4298  -37.3757   23.9404 N   0  0  0  0  0  0
  -24.7030  -31.0422   22.0924 N   0  0  0  0  0  0
  -23.4194  -28.8124   23.3027 O   0  0  0  0  0  0
  -28.3330  -26.3157   20.2346 O   0  0  0  0  0  0
  -26.5632  -34.8907   22.4589 O   0  0  0  0  0  0
  -23.5491  -32.1364   23.7184 O   0  0  0  0  0  0
  -29.3282  -19.7637   20.6741 C   0  0  0  0  0  0
  -30.2559  -18.6459   20.7576 C   0  0  0  0  0  0
  -31.5847  -18.9345   20.4640 C   0  0  0  0  0  0
  -31.9853  -20.1228   19.8236 C   0  0  0  0  0  0
  -31.0339  -21.1705   19.6293 C   0  0  0  0  0  0
  -29.7116  -21.0879   20.1778 C   0  0  0  0  0  0
  -32.5138  -17.9085   21.0670 C   0  0  0  0  0  0
  -31.6171  -17.1782   22.0864 C   0  0  0  0  0  0
  -30.1905  -17.2282   21.4862 C   0  0  2  0  0  0
  -33.4343  -20.2148   19.3423 C   0  0  0  0  0  0
  -31.4382  -22.3495   18.7587 C   0  0  0  0  0  0
  -28.5368  -24.8668   18.3100 C   0  0  0  0  0  0
  -29.0936  -23.6314   20.4966 C   0  0  0  0  0  0
  -28.2346  -24.8551   19.8142 C   0  0  1  0  0  0
  -29.8626  -15.8745   20.8244 N   0  0  0  0  0  0
  -28.7913  -22.1936   20.1254 O   0  0  0  0  0  0
  -31.4786  -12.6232   19.1493 H   0  0  0  0  0  0
  -30.4004  -11.4979   19.9359 H   0  0  0  0  0  0
  -29.8058  -11.7573   17.5100 H   0  0  0  0  0  0
  -29.6640  -13.4837   17.7065 H   0  0  0  0  0  0
  -27.8596  -11.3209   18.8271 H   0  0  0  0  0  0
  -27.4055  -12.6305   17.7681 H   0  0  0  0  0  0
  -27.6426  -14.2728   19.4969 H   0  0  0  0  0  0
  -28.7291  -12.1481   21.3910 H   0  0  0  0  0  0
  -28.4175  -13.8170   21.8023 H   0  0  0  0  0  0
  -25.2801   -9.5685   22.4699 H   0  0  0  0  0  0
  -24.0042   -7.4644   22.7424 H   0  0  0  0  0  0
  -21.0871   -8.8779   19.8940 H   0  0  0  0  0  0
  -22.3721  -10.9668   19.6138 H   0  0  0  0  0  0
  -21.2003   -7.6140   23.9711 H   0  0  0  0  0  0
  -21.1487   -6.0507   25.9069 H   0  0  0  0  0  0
  -22.0599   -2.7607   23.2849 H   0  0  0  0  0  0
  -22.4137  -11.9898   22.4895 H   0  0  0  0  0  0
  -21.1062  -13.1133   22.2570 H   0  0  0  0  0  0
  -24.6333  -15.8344   20.4989 H   0  0  0  0  0  0
  -26.2441  -15.6381   20.0369 H   0  0  0  0  0  0
  -26.7242  -32.5364   23.0997 H   0  0  0  0  0  0
  -25.0245  -33.9678   25.0411 H   0  0  0  0  0  0
  -22.7343  -31.2921   21.3800 H   0  0  0  0  0  0
  -23.3786  -35.9559   23.3280 H   0  0  0  0  0  0
  -24.3588  -36.8896   22.2051 H   0  0  0  0  0  0
  -23.7241  -37.6421   23.6683 H   0  0  0  0  0  0
  -26.1302  -31.5092   20.6149 H   0  0  0  0  0  0
  -26.8567  -30.7962   22.0219 H   0  0  0  0  0  0
  -28.1163  -28.8761   21.2481 H   0  0  0  0  0  0
  -25.9572  -25.9004   18.9764 H   0  0  0  0  0  0
  -23.9933  -27.3044   18.9783 H   0  0  0  0  0  0
  -23.7664  -30.5587   19.3889 H   0  0  0  0  0  0
  -22.7776  -29.2125   19.8597 H   0  0  0  0  0  0
  -25.1345  -36.1852   25.0789 H   0  0  0  0  0  0
  -20.9985  -28.3284   24.1373 H   0  0  0  0  0  0
  -20.5721  -26.2306   23.3599 H   0  0  0  0  0  0
  -21.6657  -26.7460   22.1176 H   0  0  0  0  0  0
  -19.6950  -25.6271   21.1253 H   0  0  0  0  0  0
  -19.6717  -27.3163   20.6719 H   0  0  0  0  0  0
  -17.4226  -26.6676   21.3983 H   0  0  0  0  0  0
  -18.0330  -26.0055   22.8983 H   0  0  0  0  0  0
  -19.7952  -30.7297   24.2173 H   0  0  0  0  0  0
  -17.5031  -31.6267   24.5146 H   0  0  0  0  0  0
  -15.5360  -30.2951   23.7725 H   0  0  0  0  0  0
  -15.8672  -28.0795   22.7109 H   0  0  0  0  0  0
  -24.5864  -30.7191   25.7682 H   0  0  0  0  0  0
  -24.8965  -32.2996   26.4778 H   0  0  0  0  0  0
  -25.7999  -30.8943   27.0178 H   0  0  0  0  0  0
  -26.3061  -29.6699   24.1263 H   0  0  0  0  0  0
  -27.4081  -29.7327   25.4824 H   0  0  0  0  0  0
  -27.8942  -30.4266   23.9555 H   0  0  0  0  0  0
  -27.2615  -33.3691   26.2010 H   0  0  0  0  0  0
  -28.3887  -32.6951   25.0331 H   0  0  0  0  0  0
  -28.0706  -31.8554   26.5443 H   0  0  0  0  0  0
  -28.2566  -38.0105   24.7578 H   0  0  0  0  0  0
  -28.1123  -36.2636   24.6208 H   0  0  0  0  0  0
  -27.2294  -37.1329   25.8846 H   0  0  0  0  0  0
  -20.9429  -29.8732   21.6801 H   0  0  0  0  0  0
  -26.0156  -38.2809   24.1449 H   0  0  0  0  0  0
  -28.3252  -19.6243   21.0521 H   0  0  0  0  0  0
  -33.3667  -18.3723   21.5631 H   0  0  0  0  0  0
  -32.8827  -17.2354   20.2940 H   0  0  0  0  0  0
  -31.6087  -17.7835   22.9944 H   0  0  0  0  0  0
  -31.9857  -16.2038   22.4023 H   0  0  0  0  0  0
  -29.4708  -17.3263   22.3012 H   0  0  0  0  0  0
  -34.1301  -19.8791   20.1104 H   0  0  0  0  0  0
  -33.7592  -21.2124   19.0534 H   0  0  0  0  0  0
  -33.5683  -19.5635   18.4779 H   0  0  0  0  0  0
  -32.0368  -22.0154   17.9104 H   0  0  0  0  0  0
  -32.0271  -23.0707   19.3247 H   0  0  0  0  0  0
  -30.5701  -22.8390   18.3239 H   0  0  0  0  0  0
  -28.3851  -23.8798   17.8744 H   0  0  0  0  0  0
  -29.5736  -25.1545   18.1347 H   0  0  0  0  0  0
  -27.9075  -25.5682   17.7636 H   0  0  0  0  0  0
  -28.9031  -23.6771   21.5688 H   0  0  0  0  0  0
  -30.1554  -23.8477   20.4131 H   0  0  0  0  0  0
  -27.2050  -24.5380   19.9717 H   0  0  0  0  0  0
  -28.8737  -15.6789   20.8304 H   0  0  0  0  0  0
  1 25  1  0  0  0
  1 30  2  0  0  0
  1 85  1  0  0  0
  2  3  1  0  0  0
  2 25  1  0  0  0
  2 87  1  0  0  0
  2 88  1  0  0  0
  3  4  1  0  0  0
  3 89  1  0  0  0
  3 90  1  0  0  0
  4  5  1  0  0  0
  4 91  1  0  0  0
  4 92  1  0  0  0
  5  6  1  0  0  0
  5 26  1  0  0  0
  5 93  1  0  0  0
  6 25  1  0  0  0
  6 94  1  0  0  0
  6 95  1  0  0  0
  7  8  2  0  0  0
  7 26  1  0  0  0
  7 29  1  0  0  0
  8  9  1  0  0  0
  8 22  1  0  0  0
  9 10  1  0  0  0
  9 27  2  0  0  0
 10 11  2  0  0  0
 10 15  1  0  0  0
 11 12  1  0  0  0
 11 96  1  0  0  0
 12 13  2  0  0  0
 12 97  1  0  0  0
 13 14  1  0  0  0
 13 31  1  0  0  0
 14 15  2  0  0  0
 14 98  1  0  0  0
 15 99  1  0  0  0
 16 17  2  0  0  0
 16 21  1  0  0  0
 16 31  1  0  0  0
 17 18  1  0  0  0
 17100  1  0  0  0
 18 19  2  0  0  0
 18101  1  0  0  0
 19 20  1  0  0  0
 19 24  1  0  0  0
 20 21  2  0  0  0
 20102  1  0  0  0
 21 23  1  0  0  0
 22 28  1  0  0  0
 22 32  2  0  0  0
 26 27  1  0  0  0
 28103  1  0  0  0
 28104  1  0  0  0
 29105  1  0  0  0
 29106  1  0  0  0
 33 34  1  0  0  0
 33 66  1  0  0  0
 33 70  2  0  0  0
 34 36  1  0  0  0
 34 59  1  0  0  0
 34107  1  0  0  0
 35 44  2  0  0  0
 35 45  1  0  0  0
 35 68  1  0  0  0
 36 56  1  0  0  0
 36108  1  0  0  0
 37 39  1  0  0  0
 37 47  1  0  0  0
 37 66  1  0  0  0
 37109  1  0  0  0
 38 43  2  0  0  0
 38 46  1  0  0  0
 38 47  1  0  0  0
 39 64  1  0  0  0
 39 67  2  0  0  0
 40 52  1  0  0  0
 40 53  2  0  0  0
 40 58  1  0  0  0
 41110  1  0  0  0
 41111  1  0  0  0
 41112  1  0  0  0
 41 48  1  0  0  0
 42 43  1  0  0  0
 42 66  1  0  0  0
 42113  1  0  0  0
 42114  1  0  0  0
 43 44  1  0  0  0
 44115  1  0  0  0
 45 46  2  0  0  0
 45116  1  0  0  0
 46117  1  0  0  0
 47118  1  0  0  0
 47119  1  0  0  0
 48 56  1  0  0  0
 48 65  1  0  0  0
 48120  1  0  0  0
 49 50  1  0  0  0
 49 53  1  0  0  0
 49 64  1  0  0  0
 49121  1  0  0  0
 50 51  1  0  0  0
 50122  1  0  0  0
 50123  1  0  0  0
 51 52  1  0  0  0
 51124  1  0  0  0
 51125  1  0  0  0
 52126  1  0  0  0
 52127  1  0  0  0
 53 54  1  0  0  0
 54 55  2  0  0  0
 54128  1  0  0  0
 55 57  1  0  0  0
 55129  1  0  0  0
 56 69  2  0  0  0
 57 58  2  0  0  0
 57130  1  0  0  0
 58131  1  0  0  0
 59 60  1  0  0  0
 59 61  1  0  0  0
 59 62  1  0  0  0
 60132  1  0  0  0
 60133  1  0  0  0
 60134  1  0  0  0
 61135  1  0  0  0
 61136  1  0  0  0
 61137  1  0  0  0
 62138  1  0  0  0
 62139  1  0  0  0
 62140  1  0  0  0
 63 65  1  0  0  0
 63141  1  0  0  0
 63142  1  0  0  0
 63143  1  0  0  0
 64144  1  0  0  0
 65145  1  0  0  0
 68 84  1  0  0  0
 71 72  2  0  0  0
 71 76  1  0  0  0
 71146  1  0  0  0
 72 73  1  0  0  0
 72 79  1  0  0  0
 73 74  2  0  0  0
 73 77  1  0  0  0
 74 75  1  0  0  0
 74 80  1  0  0  0
 75 76  2  0  0  0
 75 81  1  0  0  0
 76 86  1  0  0  0
 77 78  1  0  0  0
 77147  1  0  0  0
 77148  1  0  0  0
 78 79  1  0  0  0
 78149  1  0  0  0
 78150  1  0  0  0
 79 85  1  0  0  0
 79151  1  0  0  0
 80152  1  0  0  0
 80153  1  0  0  0
 80154  1  0  0  0
 81155  1  0  0  0
 81156  1  0  0  0
 81157  1  0  0  0
 82158  1  0  0  0
 82159  1  0  0  0
 82160  1  0  0  0
 82 84  1  0  0  0
 83 84  1  0  0  0
 83 86  1  0  0  0
 83161  1  0  0  0
 83162  1  0  0  0
 84163  1  0  0  0
 85164  1  0  0  0
M  ISO  4   1 100  68 101  84 101  85 100
M  END
> <chiral flag>
0

> <version>
0

> <s_m_source_file>
/data/baiqing/PycharmProjects/Reinvent-master-3.2/result/LINK_invent/BTK/process_docking_weight1_custom_sum_contain_oxygen_bond_distance_aromatic_linkinvent_7_9_3/rearranged_h_0157.sdf

> <i_m_source_file_index>
13

> <r_mmod_Potential_Energy-OPLS-2005>
266.948883056641

> <r_mmod_Stretch_Energy-OPLS-2005>
153.965835571289

> <r_mmod_Bend_Energy-OPLS-2005>
266.804748535156

> <r_mmod_Torsional_Energy-OPLS-2005>
248.567443847656

> <r_mmod_Improper_Torsional_Energy-OPLS-2005>
8.47460269927979

> <r_mmod_Van_der_Waal_Energy-OPLS-2005>
147.317459106445

> <r_mmod_Electrostatic_Energy-OPLS-2005>
-442.740692138672

> <r_mmod_Solvation_Energy-OPLS-2005>
-212.668991088867

> <b_mmod_Minimization_Converged-OPLS-2005>
0

> <r_mmod_RMS_Derivative-OPLS-2005>
3.28777170181274

$$$$
13
                    3D
 Structure written by MMmdl.
160169  0  0  1  0            999 V2000
  -30.5269  -14.9966   20.4164 C   0  0  0  0  0  0
  -30.4363  -12.6188   19.5073 C   0  0  0  0  0  0
  -29.5178  -12.5348   18.2653 C   0  0  0  0  0  0
  -28.0600  -12.2988   18.6935 C   0  0  0  0  0  0
  -27.6253  -13.2494   19.8384 C   0  0  2  0  0  0
  -28.6645  -13.3055   20.9793 C   0  0  0  0  0  0
  -25.2437  -13.8223   20.5695 C   0  0  0  0  0  0
  -24.1757  -13.0444   20.9227 C   0  0  0  0  0  0
  -24.6376  -11.6928   20.8758 C   0  0  0  0  0  0
  -23.9063  -10.4293   21.0418 C   0  0  0  0  0  0
  -24.3616   -9.4202   21.9186 C   0  0  0  0  0  0
  -23.6284   -8.2242   22.0750 C   0  0  0  0  0  0
  -22.4267   -8.0279   21.3546 C   0  0  0  0  0  0
  -21.9912   -9.0253   20.4643 C   0  0  0  0  0  0
  -22.7247  -10.2130   20.3058 C   0  0  0  0  0  0
  -21.6866   -6.0729   22.5273 C   0  0  0  0  0  0
  -21.4013   -6.5630   23.8206 C   0  0  0  0  0  0
  -21.3658   -5.6783   24.9168 C   0  0  0  0  0  0
  -21.6054   -4.3049   24.7227 C   0  0  0  0  0  0
  -21.8817   -3.8137   23.4351 C   0  0  0  0  0  0
  -21.9180   -4.6947   22.3400 C   0  0  0  0  0  0
  -22.7778  -13.5209   21.1898 C   0  0  0  0  0  0
  -22.1656   -4.2141   21.0984 F   0  0  0  0  0  0
  -21.5622   -3.4536   25.7738 F   0  0  0  0  0  0
  -29.9357  -13.7282   20.3766 N   0  0  0  0  0  0
  -26.2856  -12.9455   20.3255 N   0  0  0  0  0  0
  -25.9311  -11.6590   20.5775 N   0  0  0  0  0  0
  -22.0430  -12.8186   22.0455 N   0  0  0  0  0  0
  -25.4110  -15.1956   20.4094 N   0  0  0  0  0  0
  -31.7368  -15.0254   20.1550 O   0  0  0  0  0  0
  -21.6638   -6.8875   21.4238 O   0  0  0  0  0  0
  -22.3463  -14.5527   20.6758 O   0  0  0  0  0  0
  -24.6466  -31.8402   23.1831 C   0  0  0  0  0  0
  -25.9230  -32.4675   23.8223 C   0  0  1  0  0  0
  -27.2011  -27.0940   20.1644 C   0  0  0  0  0  0
  -25.5967  -33.8488   24.2127 N   0  0  0  0  0  0
  -23.4494  -30.4614   21.5303 C   0  0  2  0  0  0
  -24.8988  -28.8830   20.1032 C   0  0  0  0  0  0
  -22.7569  -29.4533   22.4808 C   0  0  0  0  0  0
  -18.0301  -28.1435   22.8435 C   0  0  0  0  0  0
  -24.1491  -36.7258   23.2646 C   0  0  0  0  0  0
  -26.0092  -30.6994   21.3893 C   0  0  0  0  0  0
  -26.0756  -29.3077   20.7314 C   0  0  0  0  0  0
  -27.2273  -28.4292   20.7457 C   0  0  0  0  0  0
  -26.0042  -26.7835   19.4812 C   0  0  0  0  0  0
  -24.8783  -27.6370   19.4616 C   0  0  0  0  0  0
  -23.6779  -29.7919   20.1485 C   0  0  0  0  0  0
  -25.4120  -36.3024   24.0314 C   0  0  1  0  0  0
  -20.5909  -28.3762   23.1235 C   0  0  2  0  0  0
  -20.6808  -26.9472   22.5413 C   0  0  0  0  0  0
  -19.5793  -26.6395   21.5226 C   0  0  0  0  0  0
  -18.1945  -26.7965   22.1594 C   0  0  0  0  0  0
  -19.1559  -28.8906   23.2826 C   0  0  0  0  0  0
  -18.9500  -30.1483   23.8878 C   0  0  0  0  0  0
  -17.6514  -30.6623   24.0572 C   0  0  0  0  0  0
  -25.9087  -34.9406   23.5027 C   0  0  0  0  0  0
  -16.5387  -29.9133   23.6357 C   0  0  0  0  0  0
  -16.7297  -28.6562   23.0347 C   0  0  0  0  0  0
  -26.4543  -31.6563   25.0689 C   0  0  0  0  0  0
  -25.3688  -31.3793   26.1360 C   0  0  0  0  0  0
  -27.0427  -30.2958   24.6276 C   0  0  0  0  0  0
  -27.6035  -32.4361   25.7492 C   0  0  0  0  0  0
  -27.5572  -37.1766   24.8464 C   0  0  0  0  0  0
  -21.4258  -29.3074   22.3586 N   0  0  0  0  0  0
  -26.4275  -37.3748   23.9424 N   0  0  0  0  0  0
  -24.7230  -31.0216   22.0897 N   0  0  0  0  0  0
  -23.4185  -28.8064   23.2975 O   0  0  0  0  0  0
  -28.2299  -26.0742   20.2680 O   0  0  0  0  0  0
  -26.5683  -34.8906   22.4601 O   0  0  0  0  0  0
  -23.5577  -32.1321   23.7017 O   0  0  0  0  0  0
  -28.9994  -18.8103   20.5106 C   0  0  0  0  0  0
  -29.2813  -20.2620   20.3107 C   0  0  0  0  0  0
  -30.6168  -20.5422   19.9970 C   0  0  0  0  0  0
  -30.0049  -17.7147   20.4289 C   0  0  0  0  0  0
  -31.5645  -19.4833   20.0023 C   0  0  0  0  0  0
  -28.2816  -21.5609   20.3106 C   0  0  0  0  0  0
  -30.9933  -21.9667   19.5379 C   0  0  0  0  0  0
  -28.8039  -23.1466   20.5357 C   0  0  1  0  0  0
  -30.3358  -23.2062   20.2398 C   0  0  1  0  0  0
  -31.1341  -23.5766   21.5042 C   0  0  0  0  0  0
  -33.8829  -18.8237   20.0726 C   0  0  0  0  0  0
  -27.9522  -24.5441   20.0284 C   0  0  0  0  0  0
  -31.2654  -18.1640   20.2065 N   0  0  0  0  0  0
  -29.7420  -16.1936   20.5601 N   0  0  0  0  0  0
  -32.8873  -19.7957   19.7616 O   0  0  0  0  0  0
  -31.4697  -12.7749   19.1920 H   0  0  0  0  0  0
  -30.4333  -11.6714   20.0484 H   0  0  0  0  0  0
  -29.8464  -11.7348   17.6014 H   0  0  0  0  0  0
  -29.5868  -13.4606   17.6927 H   0  0  0  0  0  0
  -27.9819  -11.2635   19.0274 H   0  0  0  0  0  0
  -27.3860  -12.3902   17.8415 H   0  0  0  0  0  0
  -27.5828  -14.2435   19.3940 H   0  0  0  0  0  0
  -28.7583  -12.3387   21.4766 H   0  0  0  0  0  0
  -28.3540  -14.0160   21.7464 H   0  0  0  0  0  0
  -25.2757   -9.5673   22.4767 H   0  0  0  0  0  0
  -23.9982   -7.4640   22.7476 H   0  0  0  0  0  0
  -21.0848   -8.8798   19.8949 H   0  0  0  0  0  0
  -22.3724  -10.9675   19.6169 H   0  0  0  0  0  0
  -21.2022   -7.6142   23.9712 H   0  0  0  0  0  0
  -21.1480   -6.0514   25.9073 H   0  0  0  0  0  0
  -22.0594   -2.7599   23.2859 H   0  0  0  0  0  0
  -22.4051  -11.9827   22.4811 H   0  0  0  0  0  0
  -21.1054  -13.1222   22.2708 H   0  0  0  0  0  0
  -24.6360  -15.8430   20.5062 H   0  0  0  0  0  0
  -26.2465  -15.6330   20.0447 H   0  0  0  0  0  0
  -26.7285  -32.5233   23.0926 H   0  0  0  0  0  0
  -25.0112  -33.9617   25.0282 H   0  0  0  0  0  0
  -22.7514  -31.2875   21.3704 H   0  0  0  0  0  0
  -23.3763  -35.9578   23.3300 H   0  0  0  0  0  0
  -24.3565  -36.8923   22.2064 H   0  0  0  0  0  0
  -23.7242  -37.6445   23.6700 H   0  0  0  0  0  0
  -26.1654  -31.4492   20.6102 H   0  0  0  0  0  0
  -26.8827  -30.7484   22.0317 H   0  0  0  0  0  0
  -28.1147  -28.7444   21.2745 H   0  0  0  0  0  0
  -25.8969  -25.8322   18.9798 H   0  0  0  0  0  0
  -23.9835  -27.3086   18.9511 H   0  0  0  0  0  0
  -23.8205  -30.5701   19.3964 H   0  0  0  0  0  0
  -22.7908  -29.2428   19.8282 H   0  0  0  0  0  0
  -25.1294  -36.1848   25.0806 H   0  0  0  0  0  0
  -20.9964  -28.3385   24.1374 H   0  0  0  0  0  0
  -20.5766  -26.2367   23.3618 H   0  0  0  0  0  0
  -21.6666  -26.7514   22.1173 H   0  0  0  0  0  0
  -19.7006  -25.6300   21.1293 H   0  0  0  0  0  0
  -19.6798  -27.3169   20.6727 H   0  0  0  0  0  0
  -17.4239  -26.6727   21.3988 H   0  0  0  0  0  0
  -18.0340  -26.0113   22.8989 H   0  0  0  0  0  0
  -19.7994  -30.7280   24.2246 H   0  0  0  0  0  0
  -17.5095  -31.6308   24.5175 H   0  0  0  0  0  0
  -15.5400  -30.3056   23.7712 H   0  0  0  0  0  0
  -15.8671  -28.0899   22.7085 H   0  0  0  0  0  0
  -24.5898  -30.7121   25.7672 H   0  0  0  0  0  0
  -24.8848  -32.3000   26.4622 H   0  0  0  0  0  0
  -25.7917  -30.9078   27.0226 H   0  0  0  0  0  0
  -26.3071  -29.6664   24.1263 H   0  0  0  0  0  0
  -27.4073  -29.7273   25.4835 H   0  0  0  0  0  0
  -27.8933  -30.4243   23.9576 H   0  0  0  0  0  0
  -27.2618  -33.3708   26.1926 H   0  0  0  0  0  0
  -28.3897  -32.6852   25.0366 H   0  0  0  0  0  0
  -28.0613  -31.8597   26.5526 H   0  0  0  0  0  0
  -28.2543  -38.0105   24.7484 H   0  0  0  0  0  0
  -28.1112  -36.2616   24.6291 H   0  0  0  0  0  0
  -27.2281  -37.1391   25.8868 H   0  0  0  0  0  0
  -20.9467  -29.8820   21.6795 H   0  0  0  0  0  0
  -26.0153  -38.2814   24.1445 H   0  0  0  0  0  0
  -27.9728  -18.5324   20.7084 H   0  0  0  0  0  0
  -27.4989  -21.3597   21.0421 H   0  0  0  0  0  0
  -27.7671  -21.5291   19.3511 H   0  0  0  0  0  0
  -30.7267  -22.0102   18.4806 H   0  0  0  0  0  0
  -32.0761  -22.0863   19.5451 H   0  0  0  0  0  0
  -28.7300  -23.2322   21.6201 H   0  0  0  0  0  0
  -30.4865  -24.0446   19.5588 H   0  0  0  0  0  0
  -31.0935  -22.7806   22.2496 H   0  0  0  0  0  0
  -30.7470  -24.4901   21.9609 H   0  0  0  0  0  0
  -32.1846  -23.7599   21.2745 H   0  0  0  0  0  0
  -34.8706  -19.2509   19.9082 H   0  0  0  0  0  0
  -33.8018  -17.9348   19.4442 H   0  0  0  0  0  0
  -33.8266  -18.5241   21.1207 H   0  0  0  0  0  0
  -26.9429  -24.3867   20.4119 H   0  0  0  0  0  0
  -27.8540  -24.4494   18.9474 H   0  0  0  0  0  0
  -28.7761  -15.9784   20.7411 H   0  0  0  0  0  0
  1 25  1  0  0  0
  1 30  2  0  0  0
  1 84  1  0  0  0
  2  3  1  0  0  0
  2 25  1  0  0  0
  2 86  1  0  0  0
  2 87  1  0  0  0
  3  4  1  0  0  0
  3 88  1  0  0  0
  3 89  1  0  0  0
  4  5  1  0  0  0
  4 90  1  0  0  0
  4 91  1  0  0  0
  5  6  1  0  0  0
  5 26  1  0  0  0
  5 92  1  0  0  0
  6 25  1  0  0  0
  6 93  1  0  0  0
  6 94  1  0  0  0
  7  8  2  0  0  0
  7 26  1  0  0  0
  7 29  1  0  0  0
  8  9  1  0  0  0
  8 22  1  0  0  0
  9 10  1  0  0  0
  9 27  2  0  0  0
 10 11  2  0  0  0
 10 15  1  0  0  0
 11 12  1  0  0  0
 11 95  1  0  0  0
 12 13  2  0  0  0
 12 96  1  0  0  0
 13 14  1  0  0  0
 13 31  1  0  0  0
 14 15  2  0  0  0
 14 97  1  0  0  0
 15 98  1  0  0  0
 16 17  2  0  0  0
 16 21  1  0  0  0
 16 31  1  0  0  0
 17 18  1  0  0  0
 17 99  1  0  0  0
 18 19  2  0  0  0
 18100  1  0  0  0
 19 20  1  0  0  0
 19 24  1  0  0  0
 20 21  2  0  0  0
 20101  1  0  0  0
 21 23  1  0  0  0
 22 28  1  0  0  0
 22 32  2  0  0  0
 26 27  1  0  0  0
 28102  1  0  0  0
 28103  1  0  0  0
 29104  1  0  0  0
 29105  1  0  0  0
 33 34  1  0  0  0
 33 66  1  0  0  0
 33 70  2  0  0  0
 34 36  1  0  0  0
 34 59  1  0  0  0
 34106  1  0  0  0
 35 44  2  0  0  0
 35 45  1  0  0  0
 35 68  1  0  0  0
 36 56  1  0  0  0
 36107  1  0  0  0
 37 39  1  0  0  0
 37 47  1  0  0  0
 37 66  1  0  0  0
 37108  1  0  0  0
 38 43  2  0  0  0
 38 46  1  0  0  0
 38 47  1  0  0  0
 39 64  1  0  0  0
 39 67  2  0  0  0
 40 52  1  0  0  0
 40 53  2  0  0  0
 40 58  1  0  0  0
 41109  1  0  0  0
 41110  1  0  0  0
 41111  1  0  0  0
 41 48  1  0  0  0
 42 43  1  0  0  0
 42 66  1  0  0  0
 42112  1  0  0  0
 42113  1  0  0  0
 43 44  1  0  0  0
 44114  1  0  0  0
 45 46  2  0  0  0
 45115  1  0  0  0
 46116  1  0  0  0
 47117  1  0  0  0
 47118  1  0  0  0
 48 56  1  0  0  0
 48 65  1  0  0  0
 48119  1  0  0  0
 49 50  1  0  0  0
 49 53  1  0  0  0
 49 64  1  0  0  0
 49120  1  0  0  0
 50 51  1  0  0  0
 50121  1  0  0  0
 50122  1  0  0  0
 51 52  1  0  0  0
 51123  1  0  0  0
 51124  1  0  0  0
 52125  1  0  0  0
 52126  1  0  0  0
 53 54  1  0  0  0
 54 55  2  0  0  0
 54127  1  0  0  0
 55 57  1  0  0  0
 55128  1  0  0  0
 56 69  2  0  0  0
 57 58  2  0  0  0
 57129  1  0  0  0
 58130  1  0  0  0
 59 60  1  0  0  0
 59 61  1  0  0  0
 59 62  1  0  0  0
 60131  1  0  0  0
 60132  1  0  0  0
 60133  1  0  0  0
 61134  1  0  0  0
 61135  1  0  0  0
 61136  1  0  0  0
 62137  1  0  0  0
 62138  1  0  0  0
 62139  1  0  0  0
 63 65  1  0  0  0
 63140  1  0  0  0
 63141  1  0  0  0
 63142  1  0  0  0
 64143  1  0  0  0
 65144  1  0  0  0
 68 82  1  0  0  0
 71 72  2  0  0  0
 71 74  1  0  0  0
 71145  1  0  0  0
 72 73  1  0  0  0
 72 76  1  0  0  0
 73 75  2  0  0  0
 73 77  1  0  0  0
 74 83  2  0  0  0
 74 84  1  0  0  0
 75 83  1  0  0  0
 75 85  1  0  0  0
 76 78  1  0  0  0
 76146  1  0  0  0
 76147  1  0  0  0
 77 79  1  0  0  0
 77148  1  0  0  0
 77149  1  0  0  0
 78 79  1  0  0  0
 78 82  1  0  0  0
 78150  1  0  0  0
 79 80  1  0  0  0
 79151  1  0  0  0
 80152  1  0  0  0
 80153  1  0  0  0
 80154  1  0  0  0
 81 85  1  0  0  0
 81155  1  0  0  0
 81156  1  0  0  0
 81157  1  0  0  0
 82158  1  0  0  0
 82159  1  0  0  0
 84160  1  0  0  0
M  ISO  4   1 100  68 101  82 101  84 100
M  END
> <chiral flag>
0

> <version>
0

> <s_m_source_file>
/data/baiqing/PycharmProjects/Reinvent-master-3.2/result/LINK_invent/BTK/process_docking_weight1_custom_sum_contain_oxygen_bond_distance_aromatic_linkinvent_7_9_3/rearranged_h_0157.sdf

> <i_m_source_file_index>
14

> <r_mmod_Potential_Energy-OPLS-2005>
411.773773193359

> <r_mmod_Stretch_Energy-OPLS-2005>
286.271514892578

> <r_mmod_Bend_Energy-OPLS-2005>
278.129180908203

> <r_mmod_Torsional_Energy-OPLS-2005>
223.622467041016

> <r_mmod_Improper_Torsional_Energy-OPLS-2005>
4.53246974945068

> <r_mmod_Van_der_Waal_Energy-OPLS-2005>
144.477142333984

> <r_mmod_Electrostatic_Energy-OPLS-2005>
-526.469787597656

> <r_mmod_Solvation_Energy-OPLS-2005>
-231.274658203125

> <b_mmod_Minimization_Converged-OPLS-2005>
0

> <r_mmod_RMS_Derivative-OPLS-2005>
3.63032579421997

$$$$
14
                    3D
 Structure written by MMmdl.
173182  0  0  1  0            999 V2000
  -30.7560  -14.4554   20.5733 C   0  0  0  0  0  0
  -30.4081  -12.2953   19.4424 C   0  0  0  0  0  0
  -29.5005  -12.5105   18.2177 C   0  0  0  0  0  0
  -28.0225  -12.3539   18.6177 C   0  0  0  0  0  0
  -27.6566  -13.2083   19.8611 C   0  0  2  0  0  0
  -28.6942  -13.0347   20.9956 C   0  0  0  0  0  0
  -25.2441  -13.8081   20.5534 C   0  0  0  0  0  0
  -24.1782  -13.0346   20.9165 C   0  0  0  0  0  0
  -24.6393  -11.6847   20.8707 C   0  0  0  0  0  0
  -23.9087  -10.4233   21.0353 C   0  0  0  0  0  0
  -24.3657   -9.4176   21.9133 C   0  0  0  0  0  0
  -23.6315   -8.2230   22.0721 C   0  0  0  0  0  0
  -22.4293   -8.0266   21.3527 C   0  0  0  0  0  0
  -21.9935   -9.0225   20.4631 C   0  0  0  0  0  0
  -22.7260  -10.2090   20.3012 C   0  0  0  0  0  0
  -21.6859   -6.0745   22.5278 C   0  0  0  0  0  0
  -21.4027   -6.5649   23.8215 C   0  0  0  0  0  0
  -21.3656   -5.6781   24.9164 C   0  0  0  0  0  0
  -21.6049   -4.3043   24.7201 C   0  0  0  0  0  0
  -21.8830   -3.8155   23.4317 C   0  0  0  0  0  0
  -21.9215   -4.6982   22.3393 C   0  0  0  0  0  0
  -22.7812  -13.5145   21.1835 C   0  0  0  0  0  0
  -22.1663   -4.2178   21.0952 F   0  0  0  0  0  0
  -21.5630   -3.4520   25.7702 F   0  0  0  0  0  0
  -30.0406  -13.3004   20.4534 N   0  0  0  0  0  0
  -26.2974  -12.9337   20.3261 N   0  0  0  0  0  0
  -25.9335  -11.6497   20.5744 N   0  0  0  0  0  0
  -22.0491  -12.8141   22.0425 N   0  0  0  0  0  0
  -25.3798  -15.1766   20.3685 N   0  0  0  0  0  0
  -31.8593  -14.6002   20.0440 O   0  0  0  0  0  0
  -21.6652   -6.8876   21.4231 O   0  0  0  0  0  0
  -22.3489  -14.5433   20.6646 O   0  0  0  0  0  0
  -24.6117  -31.8668   23.2151 C   0  0  0  0  0  0
  -25.9027  -32.4831   23.8416 C   0  0  1  0  0  0
  -27.2296  -27.4687   20.0977 C   0  0  0  0  0  0
  -25.5886  -33.8622   24.2318 N   0  0  0  0  0  0
  -23.3964  -30.4953   21.5522 C   0  0  2  0  0  0
  -24.8405  -28.9577   20.1193 C   0  0  0  0  0  0
  -22.7380  -29.4667   22.4985 C   0  0  0  0  0  0
  -18.0245  -28.1381   22.8479 C   0  0  0  0  0  0
  -24.1453  -36.7333   23.2657 C   0  0  0  0  0  0
  -25.9182  -30.8433   21.3609 C   0  0  0  0  0  0
  -25.9947  -29.4783   20.7166 C   0  0  0  0  0  0
  -27.1942  -28.7364   20.7091 C   0  0  0  0  0  0
  -26.0609  -26.9415   19.5140 C   0  0  0  0  0  0
  -24.8638  -27.6862   19.5189 C   0  0  0  0  0  0
  -23.6036  -29.8291   20.1650 C   0  0  0  0  0  0
  -25.4077  -36.3112   24.0345 C   0  0  1  0  0  0
  -20.5827  -28.3678   23.1310 C   0  0  2  0  0  0
  -20.6718  -26.9426   22.5407 C   0  0  0  0  0  0
  -19.5722  -26.6398   21.5190 C   0  0  0  0  0  0
  -18.1898  -26.7932   22.1601 C   0  0  0  0  0  0
  -19.1486  -28.8851   23.2897 C   0  0  0  0  0  0
  -18.9436  -30.1442   23.8945 C   0  0  0  0  0  0
  -17.6439  -30.6593   24.0581 C   0  0  0  0  0  0
  -25.9022  -34.9476   23.5133 C   0  0  0  0  0  0
  -16.5327  -29.9107   23.6312 C   0  0  0  0  0  0
  -16.7241  -28.6504   23.0371 C   0  0  0  0  0  0
  -26.4513  -31.6633   25.0735 C   0  0  0  0  0  0
  -25.3838  -31.3678   26.1537 C   0  0  0  0  0  0
  -27.0388  -30.3091   24.6110 C   0  0  0  0  0  0
  -27.6068  -32.4401   25.7465 C   0  0  0  0  0  0
  -27.5569  -37.1808   24.8472 C   0  0  0  0  0  0
  -21.4114  -29.3052   22.3735 N   0  0  0  0  0  0
  -26.4268  -37.3804   23.9428 N   0  0  0  0  0  0
  -24.6594  -31.0804   22.1035 N   0  0  0  0  0  0
  -23.4157  -28.8205   23.3023 O   0  0  0  0  0  0
  -28.3974  -26.7508   20.0553 O   0  0  0  0  0  0
  -26.5585  -34.8946   22.4694 O   0  0  0  0  0  0
  -23.5324  -32.1392   23.7581 O   0  0  0  0  0  0
  -31.6880  -18.8724   20.5694 C   0  0  0  0  0  0
  -29.3510  -18.8858   19.9462 C   0  0  0  0  0  0
  -30.5987  -19.5358   19.9661 C   0  0  0  0  0  0
  -31.5584  -17.5567   21.0712 C   0  0  0  0  0  0
  -29.2161  -17.5677   20.4149 C   0  0  0  0  0  0
  -30.3310  -16.8525   20.9156 C   0  0  0  0  0  0
  -29.6352  -21.3261   18.3718 C   0  0  0  0  0  0
  -31.0336  -22.0386   20.3157 C   0  0  0  0  0  0
  -29.9391  -22.6579   17.6748 C   0  0  0  0  0  0
  -31.3099  -23.3819   19.6017 C   0  0  0  0  0  0
  -30.7921  -20.9055   19.3064 C   0  0  1  0  0  0
  -32.7650  -16.9590   21.7707 C   0  0  0  0  0  0
  -27.8497  -16.9430   20.3061 C   0  0  0  0  0  0
  -30.4775  -25.0401   17.9487 C   0  0  0  0  0  0
  -29.2464  -27.0965   18.9670 C   0  0  0  0  0  0
  -29.2227  -25.9531   17.9174 C   0  0  1  0  0  0
  -30.1651  -15.4647   21.2443 N   0  0  0  0  0  0
  -30.2246  -23.7496   18.6461 N   0  3  1  0  0  0
  -29.0497  -26.5015   16.6156 O   0  0  0  0  0  0
  -31.4592  -12.3470   19.1525 H   0  0  0  0  0  0
  -30.2611  -11.2922   19.8484 H   0  0  0  0  0  0
  -29.7563  -11.8020   17.4283 H   0  0  0  0  0  0
  -29.6691  -13.5051   17.8007 H   0  0  0  0  0  0
  -27.8439  -11.2968   18.8214 H   0  0  0  0  0  0
  -27.3799  -12.6145   17.7773 H   0  0  0  0  0  0
  -27.6829  -14.2463   19.5373 H   0  0  0  0  0  0
  -28.6550  -12.0174   21.3871 H   0  0  0  0  0  0
  -28.4454  -13.6895   21.8317 H   0  0  0  0  0  0
  -25.2811   -9.5700   22.4688 H   0  0  0  0  0  0
  -24.0038   -7.4664   22.7473 H   0  0  0  0  0  0
  -21.0860   -8.8754   19.8958 H   0  0  0  0  0  0
  -22.3703  -10.9632   19.6136 H   0  0  0  0  0  0
  -21.1993   -7.6146   23.9724 H   0  0  0  0  0  0
  -21.1473   -6.0490   25.9062 H   0  0  0  0  0  0
  -22.0615   -2.7618   23.2799 H   0  0  0  0  0  0
  -22.4123  -11.9841   22.4875 H   0  0  0  0  0  0
  -21.1114  -13.1171   22.2616 H   0  0  0  0  0  0
  -24.5844  -15.8026   20.4306 H   0  0  0  0  0  0
  -26.1932  -15.6154   19.9598 H   0  0  0  0  0  0
  -26.7084  -32.5564   23.1170 H   0  0  0  0  0  0
  -25.0004  -33.9799   25.0449 H   0  0  0  0  0  0
  -22.6852  -31.3120   21.4161 H   0  0  0  0  0  0
  -23.3714  -35.9682   23.3335 H   0  0  0  0  0  0
  -24.3524  -36.8942   22.2070 H   0  0  0  0  0  0
  -23.7216  -37.6550   23.6662 H   0  0  0  0  0  0
  -26.0173  -31.6037   20.5871 H   0  0  0  0  0  0
  -26.8111  -30.9028   21.9697 H   0  0  0  0  0  0
  -28.0868  -29.1358   21.1676 H   0  0  0  0  0  0
  -26.0762  -25.9669   19.0470 H   0  0  0  0  0  0
  -23.9734  -27.2751   19.0633 H   0  0  0  0  0  0
  -23.7254  -30.6059   19.4091 H   0  0  0  0  0  0
  -22.7235  -29.2583   19.8619 H   0  0  0  0  0  0
  -25.1243  -36.1971   25.0840 H   0  0  0  0  0  0
  -20.9914  -28.3243   24.1437 H   0  0  0  0  0  0
  -20.5556  -26.2344   23.3615 H   0  0  0  0  0  0
  -21.6605  -26.7431   22.1268 H   0  0  0  0  0  0
  -19.6896  -25.6312   21.1243 H   0  0  0  0  0  0
  -19.6652  -27.3196   20.6716 H   0  0  0  0  0  0
  -17.4174  -26.6694   21.3996 H   0  0  0  0  0  0
  -18.0300  -26.0038   22.8966 H   0  0  0  0  0  0
  -19.7919  -30.7213   24.2368 H   0  0  0  0  0  0
  -17.5016  -31.6291   24.5171 H   0  0  0  0  0  0
  -15.5344  -30.3057   23.7607 H   0  0  0  0  0  0
  -15.8624  -28.0840   22.7104 H   0  0  0  0  0  0
  -24.5966  -30.7071   25.7881 H   0  0  0  0  0  0
  -24.9127  -32.2819   26.5139 H   0  0  0  0  0  0
  -25.8286  -30.8733   27.0185 H   0  0  0  0  0  0
  -26.2897  -29.6733   24.1370 H   0  0  0  0  0  0
  -27.4391  -29.7448   25.4549 H   0  0  0  0  0  0
  -27.8628  -30.4431   23.9093 H   0  0  0  0  0  0
  -27.2632  -33.3615   26.2177 H   0  0  0  0  0  0
  -28.3795  -32.7131   25.0260 H   0  0  0  0  0  0
  -28.0883  -31.8501   26.5279 H   0  0  0  0  0  0
  -28.2611  -38.0085   24.7492 H   0  0  0  0  0  0
  -28.1035  -36.2615   24.6292 H   0  0  0  0  0  0
  -27.2310  -37.1478   25.8890 H   0  0  0  0  0  0
  -20.9282  -29.8859   21.7015 H   0  0  0  0  0  0
  -26.0155  -38.2892   24.1447 H   0  0  0  0  0  0
  -32.6427  -19.3741   20.6384 H   0  0  0  0  0  0
  -28.4796  -19.3640   19.5270 H   0  0  0  0  0  0
  -29.4635  -20.5619   17.6097 H   0  0  0  0  0  0
  -28.7050  -21.4358   18.9309 H   0  0  0  0  0  0
  -30.1732  -22.1343   20.9774 H   0  0  0  0  0  0
  -31.8852  -21.7990   20.9547 H   0  0  0  0  0  0
  -29.0979  -22.9391   17.0372 H   0  0  0  0  0  0
  -30.7946  -22.5235   17.0118 H   0  0  0  0  0  0
  -32.2628  -23.3336   19.0696 H   0  0  0  0  0  0
  -31.4186  -24.1716   20.3478 H   0  0  0  0  0  0
  -31.6870  -20.8119   18.6889 H   0  0  0  0  0  0
  -33.3208  -17.7326   22.3056 H   0  0  0  0  0  0
  -33.4376  -16.5044   21.0443 H   0  0  0  0  0  0
  -32.4696  -16.2073   22.5009 H   0  0  0  0  0  0
  -27.0695  -17.7012   20.3975 H   0  0  0  0  0  0
  -27.6859  -16.2147   21.0989 H   0  0  0  0  0  0
  -27.7508  -16.4667   19.3300 H   0  0  0  0  0  0
  -31.3260  -25.5692   18.3860 H   0  0  0  0  0  0
  -30.8029  -24.8216   16.9282 H   0  0  0  0  0  0
  -28.9337  -28.0439   18.5187 H   0  0  0  0  0  0
  -30.2520  -27.2841   19.3504 H   0  0  0  0  0  0
  -28.3270  -25.3492   18.0801 H   0  0  0  0  0  0
  -29.2647  -15.2114   21.6209 H   0  0  0  0  0  0
  -29.3893  -23.8877   19.1977 H   0  0  0  0  0  0
  -29.8325  -26.9921   16.3806 H   0  0  0  0  0  0
  1 25  1  0  0  0
  1 30  2  0  0  0
  1 87  1  0  0  0
  2  3  1  0  0  0
  2 25  1  0  0  0
  2 90  1  0  0  0
  2 91  1  0  0  0
  3  4  1  0  0  0
  3 92  1  0  0  0
  3 93  1  0  0  0
  4  5  1  0  0  0
  4 94  1  0  0  0
  4 95  1  0  0  0
  5  6  1  0  0  0
  5 26  1  0  0  0
  5 96  1  0  0  0
  6 25  1  0  0  0
  6 97  1  0  0  0
  6 98  1  0  0  0
  7  8  2  0  0  0
  7 26  1  0  0  0
  7 29  1  0  0  0
  8  9  1  0  0  0
  8 22  1  0  0  0
  9 10  1  0  0  0
  9 27  2  0  0  0
 10 11  2  0  0  0
 10 15  1  0  0  0
 11 12  1  0  0  0
 11 99  1  0  0  0
 12 13  2  0  0  0
 12100  1  0  0  0
 13 14  1  0  0  0
 13 31  1  0  0  0
 14 15  2  0  0  0
 14101  1  0  0  0
 15102  1  0  0  0
 16 17  2  0  0  0
 16 21  1  0  0  0
 16 31  1  0  0  0
 17 18  1  0  0  0
 17103  1  0  0  0
 18 19  2  0  0  0
 18104  1  0  0  0
 19 20  1  0  0  0
 19 24  1  0  0  0
 20 21  2  0  0  0
 20105  1  0  0  0
 21 23  1  0  0  0
 22 28  1  0  0  0
 22 32  2  0  0  0
 26 27  1  0  0  0
 28106  1  0  0  0
 28107  1  0  0  0
 29108  1  0  0  0
 29109  1  0  0  0
 33 34  1  0  0  0
 33 66  1  0  0  0
 33 70  2  0  0  0
 34 36  1  0  0  0
 34 59  1  0  0  0
 34110  1  0  0  0
 35 44  2  0  0  0
 35 45  1  0  0  0
 35 68  1  0  0  0
 36 56  1  0  0  0
 36111  1  0  0  0
 37 39  1  0  0  0
 37 47  1  0  0  0
 37 66  1  0  0  0
 37112  1  0  0  0
 38 43  2  0  0  0
 38 46  1  0  0  0
 38 47  1  0  0  0
 39 64  1  0  0  0
 39 67  2  0  0  0
 40 52  1  0  0  0
 40 53  2  0  0  0
 40 58  1  0  0  0
 41113  1  0  0  0
 41114  1  0  0  0
 41115  1  0  0  0
 41 48  1  0  0  0
 42 43  1  0  0  0
 42 66  1  0  0  0
 42116  1  0  0  0
 42117  1  0  0  0
 43 44  1  0  0  0
 44118  1  0  0  0
 45 46  2  0  0  0
 45119  1  0  0  0
 46120  1  0  0  0
 47121  1  0  0  0
 47122  1  0  0  0
 48 56  1  0  0  0
 48 65  1  0  0  0
 48123  1  0  0  0
 49 50  1  0  0  0
 49 53  1  0  0  0
 49 64  1  0  0  0
 49124  1  0  0  0
 50 51  1  0  0  0
 50125  1  0  0  0
 50126  1  0  0  0
 51 52  1  0  0  0
 51127  1  0  0  0
 51128  1  0  0  0
 52129  1  0  0  0
 52130  1  0  0  0
 53 54  1  0  0  0
 54 55  2  0  0  0
 54131  1  0  0  0
 55 57  1  0  0  0
 55132  1  0  0  0
 56 69  2  0  0  0
 57 58  2  0  0  0
 57133  1  0  0  0
 58134  1  0  0  0
 59 60  1  0  0  0
 59 61  1  0  0  0
 59 62  1  0  0  0
 60135  1  0  0  0
 60136  1  0  0  0
 60137  1  0  0  0
 61138  1  0  0  0
 61139  1  0  0  0
 61140  1  0  0  0
 62141  1  0  0  0
 62142  1  0  0  0
 62143  1  0  0  0
 63 65  1  0  0  0
 63144  1  0  0  0
 63145  1  0  0  0
 63146  1  0  0  0
 64147  1  0  0  0
 65148  1  0  0  0
 68 85  1  0  0  0
 71 73  2  0  0  0
 71 74  1  0  0  0
 71149  1  0  0  0
 72 73  1  0  0  0
 72 75  2  0  0  0
 72150  1  0  0  0
 73 81  1  0  0  0
 74 76  2  0  0  0
 74 82  1  0  0  0
 75 76  1  0  0  0
 75 83  1  0  0  0
 76 87  1  0  0  0
 77 79  1  0  0  0
 77 81  1  0  0  0
 77151  1  0  0  0
 77152  1  0  0  0
 78 80  1  0  0  0
 78 81  1  0  0  0
 78153  1  0  0  0
 78154  1  0  0  0
 79 88  1  0  0  0
 79155  1  0  0  0
 79156  1  0  0  0
 80 88  1  0  0  0
 80157  1  0  0  0
 80158  1  0  0  0
 81159  1  0  0  0
 82160  1  0  0  0
 82161  1  0  0  0
 82162  1  0  0  0
 83163  1  0  0  0
 83164  1  0  0  0
 83165  1  0  0  0
 84 86  1  0  0  0
 84166  1  0  0  0
 84167  1  0  0  0
 84 88  1  0  0  0
 85 86  1  0  0  0
 85168  1  0  0  0
 85169  1  0  0  0
 86 89  1  0  0  0
 86170  1  0  0  0
 87171  1  0  0  0
 88172  1  0  0  0
 89173  1  0  0  0
M  CHG  1  88   1
M  ISO  4   1 100  68 101  85 101  87 100
M  END
> <chiral flag>
0

> <version>
0

> <s_m_source_file>
/data/baiqing/PycharmProjects/Reinvent-master-3.2/result/LINK_invent/BTK/process_docking_weight1_custom_sum_contain_oxygen_bond_distance_aromatic_linkinvent_7_9_3/rearranged_h_0157.sdf

> <i_m_source_file_index>
15

> <r_mmod_Potential_Energy-OPLS-2005>
-133.713485717773

> <r_mmod_Stretch_Energy-OPLS-2005>
37.8488693237305

> <r_mmod_Bend_Energy-OPLS-2005>
98.2468032836914

> <r_mmod_Torsional_Energy-OPLS-2005>
311.656341552734

> <r_mmod_Improper_Torsional_Energy-OPLS-2005>
5.18865585327148

> <r_mmod_Van_der_Waal_Energy-OPLS-2005>
166.698150634766

> <r_mmod_Electrostatic_Energy-OPLS-2005>
-309.189086914062

> <r_mmod_Solvation_Energy-OPLS-2005>
-455.946136474609

> <b_mmod_Minimization_Converged-OPLS-2005>
0

> <r_mmod_RMS_Derivative-OPLS-2005>
4.30943012237549

$$$$
15
                    3D
 Structure written by MMmdl.
177187  0  0  1  0            999 V2000
  -30.7339  -14.4290   20.5071 C   0  0  0  0  0  0
  -30.4037  -12.2527   19.4399 C   0  0  0  0  0  0
  -29.4899  -12.4192   18.2094 C   0  0  0  0  0  0
  -28.0068  -12.3237   18.6218 C   0  0  0  0  0  0
  -27.6473  -13.2029   19.8513 C   0  0  2  0  0  0
  -28.6873  -13.0476   20.9842 C   0  0  0  0  0  0
  -25.2535  -13.8161   20.5665 C   0  0  0  0  0  0
  -24.1795  -13.0460   20.9167 C   0  0  0  0  0  0
  -24.6314  -11.6907   20.8713 C   0  0  0  0  0  0
  -23.8980  -10.4304   21.0382 C   0  0  0  0  0  0
  -24.3557   -9.4209   21.9137 C   0  0  0  0  0  0
  -23.6252   -8.2236   22.0721 C   0  0  0  0  0  0
  -22.4231   -8.0258   21.3532 C   0  0  0  0  0  0
  -21.9853   -9.0217   20.4620 C   0  0  0  0  0  0
  -22.7161  -10.2107   20.3027 C   0  0  0  0  0  0
  -21.6839   -6.0714   22.5278 C   0  0  0  0  0  0
  -21.4014   -6.5631   23.8199 C   0  0  0  0  0  0
  -21.3670   -5.6786   24.9179 C   0  0  0  0  0  0
  -21.6043   -4.3043   24.7226 C   0  0  0  0  0  0
  -21.8810   -3.8128   23.4358 C   0  0  0  0  0  0
  -21.9190   -4.6944   22.3400 C   0  0  0  0  0  0
  -22.7816  -13.5237   21.1915 C   0  0  0  0  0  0
  -22.1653   -4.2125   21.0987 F   0  0  0  0  0  0
  -21.5637   -3.4536   25.7752 F   0  0  0  0  0  0
  -30.0225  -13.2793   20.4144 N   0  0  0  0  0  0
  -26.2926  -12.9307   20.3253 N   0  0  0  0  0  0
  -25.9227  -11.6470   20.5707 N   0  0  0  0  0  0
  -22.0490  -12.8196   22.0477 N   0  0  0  0  0  0
  -25.4359  -15.1883   20.4122 N   0  0  0  0  0  0
  -31.9365  -14.5024   20.2437 O   0  0  0  0  0  0
  -21.6624   -6.8841   21.4216 O   0  0  0  0  0  0
  -22.3474  -14.5553   20.6795 O   0  0  0  0  0  0
  -24.6084  -31.8731   23.2155 C   0  0  0  0  0  0
  -25.8998  -32.4851   23.8417 C   0  0  1  0  0  0
  -27.2589  -27.5166   20.0654 C   0  0  0  0  0  0
  -25.5865  -33.8646   24.2364 N   0  0  0  0  0  0
  -23.3909  -30.4964   21.5559 C   0  0  2  0  0  0
  -24.8363  -28.9703   20.1217 C   0  0  0  0  0  0
  -22.7360  -29.4688   22.5051 C   0  0  0  0  0  0
  -18.0257  -28.1358   22.8490 C   0  0  0  0  0  0
  -24.1481  -36.7329   23.2648 C   0  0  0  0  0  0
  -25.9121  -30.8624   21.3522 C   0  0  0  0  0  0
  -25.9926  -29.5023   20.7025 C   0  0  0  0  0  0
  -27.2007  -28.7809   20.6774 C   0  0  0  0  0  0
  -26.0684  -26.9668   19.5182 C   0  0  0  0  0  0
  -24.8655  -27.6941   19.5373 C   0  0  0  0  0  0
  -23.5902  -29.8218   20.1734 C   0  0  0  0  0  0
  -25.4094  -36.3130   24.0359 C   0  0  1  0  0  0
  -20.5839  -28.3634   23.1335 C   0  0  2  0  0  0
  -20.6726  -26.9374   22.5409 C   0  0  0  0  0  0
  -19.5713  -26.6376   21.5195 C   0  0  0  0  0  0
  -18.1897  -26.7902   22.1626 C   0  0  0  0  0  0
  -19.1508  -28.8815   23.2901 C   0  0  0  0  0  0
  -18.9445  -30.1425   23.8893 C   0  0  0  0  0  0
  -17.6451  -30.6563   24.0570 C   0  0  0  0  0  0
  -25.9021  -34.9492   23.5165 C   0  0  0  0  0  0
  -16.5338  -29.9059   23.6324 C   0  0  0  0  0  0
  -16.7246  -28.6483   23.0324 C   0  0  0  0  0  0
  -26.4443  -31.6589   25.0699 C   0  0  0  0  0  0
  -25.3761  -31.3650   26.1484 C   0  0  0  0  0  0
  -27.0245  -30.3042   24.6000 C   0  0  0  0  0  0
  -27.6036  -32.4296   25.7435 C   0  0  0  0  0  0
  -27.5572  -37.1816   24.8469 C   0  0  0  0  0  0
  -21.4096  -29.3010   22.3750 N   0  0  0  0  0  0
  -26.4289  -37.3796   23.9412 N   0  0  0  0  0  0
  -24.6555  -31.0919   22.0998 N   0  0  0  0  0  0
  -23.4163  -28.8252   23.3077 O   0  0  0  0  0  0
  -28.4953  -26.9078   20.0157 O   0  0  0  0  0  0
  -26.5603  -34.8937   22.4734 O   0  0  0  0  0  0
  -23.5306  -32.1423   23.7618 O   0  0  0  0  0  0
  -29.3569  -19.4376   17.7889 C   0  0  0  0  0  0
  -28.9199  -20.7170   17.4012 C   0  0  0  0  0  0
  -30.0800  -19.5243   18.9454 C   0  0  0  0  0  0
  -29.3504  -21.5822   18.3676 C   0  0  0  0  0  0
  -28.0099  -23.2826   19.6199 C   0  0  0  0  0  0
  -30.1278  -24.0445   18.1492 C   0  0  0  0  0  0
  -28.2062  -24.6008   20.3341 C   0  0  0  0  0  0
  -30.0393  -25.4027   18.8804 C   0  0  0  0  0  0
  -30.0331  -18.0438   21.0489 C   0  0  0  0  0  0
  -30.8157  -17.1278   18.8141 C   0  0  0  0  0  0
  -30.2971  -16.5947   21.5421 C   0  0  0  0  0  0
  -29.7082  -16.1259   19.1975 C   0  0  0  0  0  0
  -30.7359  -18.3898   19.7015 C   0  0  0  0  0  0
  -28.9843  -23.0300   18.4484 C   0  0  2  0  0  0
  -28.6074  -25.6793   19.3338 C   0  0  1  0  0  0
  -28.0806  -21.0137   16.1839 C   0  0  0  0  0  0
  -31.9644  -22.2723   20.3747 C   0  0  0  0  0  0
  -30.7275  -21.3859   20.5582 C   0  0  0  0  0  0
  -30.1001  -20.8709   19.3237 N   0  0  0  0  0  0
  -29.9960  -15.5593   20.5285 N   0  0  0  0  0  0
  -31.4523  -12.3174   19.1418 H   0  0  0  0  0  0
  -30.2723  -11.2627   19.8792 H   0  0  0  0  0  0
  -29.7137  -11.6404   17.4781 H   0  0  0  0  0  0
  -29.6944  -13.3615   17.7028 H   0  0  0  0  0  0
  -27.8050  -11.2765   18.8510 H   0  0  0  0  0  0
  -27.3634  -12.5758   17.7771 H   0  0  0  0  0  0
  -27.6686  -14.2362   19.5095 H   0  0  0  0  0  0
  -28.6366  -12.0485   21.4190 H   0  0  0  0  0  0
  -28.4725  -13.7459   21.7965 H   0  0  0  0  0  0
  -25.2700   -9.5707   22.4697 H   0  0  0  0  0  0
  -23.9989   -7.4622   22.7425 H   0  0  0  0  0  0
  -21.0793   -8.8687   19.8911 H   0  0  0  0  0  0
  -22.3575  -10.9630   19.6141 H   0  0  0  0  0  0
  -21.1993   -7.6135   23.9701 H   0  0  0  0  0  0
  -21.1515   -6.0523   25.9079 H   0  0  0  0  0  0
  -22.0583   -2.7586   23.2867 H   0  0  0  0  0  0
  -22.4118  -11.9844   22.4836 H   0  0  0  0  0  0
  -21.1093  -13.1161   22.2724 H   0  0  0  0  0  0
  -24.6868  -15.8615   20.5369 H   0  0  0  0  0  0
  -26.3111  -15.6130   20.1336 H   0  0  0  0  0  0
  -26.7092  -32.5588   23.1211 H   0  0  0  0  0  0
  -24.9895  -33.9796   25.0426 H   0  0  0  0  0  0
  -22.6784  -31.3121   21.4219 H   0  0  0  0  0  0
  -23.3723  -35.9682   23.3329 H   0  0  0  0  0  0
  -24.3578  -36.8906   22.2056 H   0  0  0  0  0  0
  -23.7251  -37.6559   23.6631 H   0  0  0  0  0  0
  -26.0206  -31.6282   20.5852 H   0  0  0  0  0  0
  -26.8045  -30.9173   21.9615 H   0  0  0  0  0  0
  -28.0959  -29.2142   21.1012 H   0  0  0  0  0  0
  -26.0376  -25.9857   19.0676 H   0  0  0  0  0  0
  -23.9725  -27.2669   19.1036 H   0  0  0  0  0  0
  -23.6740  -30.5893   19.4041 H   0  0  0  0  0  0
  -22.7205  -29.2217   19.8946 H   0  0  0  0  0  0
  -25.1266  -36.2019   25.0854 H   0  0  0  0  0  0
  -20.9962  -28.3196   24.1452 H   0  0  0  0  0  0
  -20.5604  -26.2239   23.3588 H   0  0  0  0  0  0
  -21.6594  -26.7378   22.1229 H   0  0  0  0  0  0
  -19.6859  -25.6299   21.1184 H   0  0  0  0  0  0
  -19.6653  -27.3218   20.6756 H   0  0  0  0  0  0
  -17.4151  -26.6630   21.4043 H   0  0  0  0  0  0
  -18.0325  -26.0046   22.9040 H   0  0  0  0  0  0
  -19.7923  -30.7240   24.2254 H   0  0  0  0  0  0
  -17.5000  -31.6257   24.5157 H   0  0  0  0  0  0
  -15.5329  -30.2965   23.7649 H   0  0  0  0  0  0
  -15.8641  -28.0825   22.7007 H   0  0  0  0  0  0
  -24.5932  -30.6984   25.7837 H   0  0  0  0  0  0
  -24.8948  -32.2778   26.5012 H   0  0  0  0  0  0
  -25.8182  -30.8784   27.0185 H   0  0  0  0  0  0
  -26.2729  -29.6829   24.1101 H   0  0  0  0  0  0
  -27.4086  -29.7262   25.4416 H   0  0  0  0  0  0
  -27.8548  -30.4365   23.9056 H   0  0  0  0  0  0
  -27.2647  -33.3560   26.2079 H   0  0  0  0  0  0
  -28.3786  -32.6905   25.0218 H   0  0  0  0  0  0
  -28.0750  -31.8371   26.5283 H   0  0  0  0  0  0
  -28.2628  -38.0075   24.7483 H   0  0  0  0  0  0
  -28.1043  -36.2617   24.6345 H   0  0  0  0  0  0
  -27.2300  -37.1520   25.8876 H   0  0  0  0  0  0
  -20.9257  -29.8728   21.6973 H   0  0  0  0  0  0
  -26.0202  -38.2892   24.1385 H   0  0  0  0  0  0
  -29.1358  -18.5284   17.2485 H   0  0  0  0  0  0
  -26.9855  -23.2305   19.2457 H   0  0  0  0  0  0
  -28.0635  -22.4862   20.3558 H   0  0  0  0  0  0
  -31.1067  -23.6021   18.3025 H   0  0  0  0  0  0
  -30.1185  -24.2320   17.0741 H   0  0  0  0  0  0
  -27.2914  -24.8596   20.8658 H   0  0  0  0  0  0
  -28.9824  -24.4931   21.0947 H   0  0  0  0  0  0
  -30.3855  -26.1919   18.2134 H   0  0  0  0  0  0
  -30.7083  -25.4231   19.7436 H   0  0  0  0  0  0
  -30.2804  -18.7472   21.8419 H   0  0  0  0  0  0
  -28.9564  -18.1537   20.9133 H   0  0  0  0  0  0
  -30.8103  -17.3578   17.7519 H   0  0  0  0  0  0
  -31.7926  -16.6634   18.9385 H   0  0  0  0  0  0
  -31.3430  -16.5244   21.8566 H   0  0  0  0  0  0
  -29.7049  -16.3949   22.4359 H   0  0  0  0  0  0
  -29.6267  -15.3589   18.4325 H   0  0  0  0  0  0
  -28.7253  -16.5981   19.2103 H   0  0  0  0  0  0
  -31.7666  -18.6718   19.9170 H   0  0  0  0  0  0
  -28.3350  -23.2146   17.5907 H   0  0  0  0  0  0
  -27.9972  -25.6759   18.4291 H   0  0  0  0  0  0
  -28.5366  -21.7886   15.5649 H   0  0  0  0  0  0
  -27.0920  -21.3545   16.4933 H   0  0  0  0  0  0
  -27.9588  -20.1139   15.5781 H   0  0  0  0  0  0
  -31.7060  -23.3287   20.4504 H   0  0  0  0  0  0
  -32.4590  -22.1003   19.4213 H   0  0  0  0  0  0
  -32.6894  -22.0734   21.1661 H   0  0  0  0  0  0
  -29.9915  -21.8747   21.1935 H   0  0  0  0  0  0
  -31.0700  -20.5472   21.1484 H   0  0  0  0  0  0
  1 25  1  0  0  0
  1 30  2  0  0  0
  1 90  1  0  0  0
  2  3  1  0  0  0
  2 25  1  0  0  0
  2 91  1  0  0  0
  2 92  1  0  0  0
  3  4  1  0  0  0
  3 93  1  0  0  0
  3 94  1  0  0  0
  4  5  1  0  0  0
  4 95  1  0  0  0
  4 96  1  0  0  0
  5  6  1  0  0  0
  5 26  1  0  0  0
  5 97  1  0  0  0
  6 25  1  0  0  0
  6 98  1  0  0  0
  6 99  1  0  0  0
  7  8  2  0  0  0
  7 26  1  0  0  0
  7 29  1  0  0  0
  8  9  1  0  0  0
  8 22  1  0  0  0
  9 10  1  0  0  0
  9 27  2  0  0  0
 10 11  2  0  0  0
 10 15  1  0  0  0
 11 12  1  0  0  0
 11100  1  0  0  0
 12 13  2  0  0  0
 12101  1  0  0  0
 13 14  1  0  0  0
 13 31  1  0  0  0
 14 15  2  0  0  0
 14102  1  0  0  0
 15103  1  0  0  0
 16 17  2  0  0  0
 16 21  1  0  0  0
 16 31  1  0  0  0
 17 18  1  0  0  0
 17104  1  0  0  0
 18 19  2  0  0  0
 18105  1  0  0  0
 19 20  1  0  0  0
 19 24  1  0  0  0
 20 21  2  0  0  0
 20106  1  0  0  0
 21 23  1  0  0  0
 22 28  1  0  0  0
 22 32  2  0  0  0
 26 27  1  0  0  0
 28107  1  0  0  0
 28108  1  0  0  0
 29109  1  0  0  0
 29110  1  0  0  0
 33 34  1  0  0  0
 33 66  1  0  0  0
 33 70  2  0  0  0
 34 36  1  0  0  0
 34 59  1  0  0  0
 34111  1  0  0  0
 35 44  2  0  0  0
 35 45  1  0  0  0
 35 68  1  0  0  0
 36 56  1  0  0  0
 36112  1  0  0  0
 37 39  1  0  0  0
 37 47  1  0  0  0
 37 66  1  0  0  0
 37113  1  0  0  0
 38 43  2  0  0  0
 38 46  1  0  0  0
 38 47  1  0  0  0
 39 64  1  0  0  0
 39 67  2  0  0  0
 40 52  1  0  0  0
 40 53  2  0  0  0
 40 58  1  0  0  0
 41114  1  0  0  0
 41115  1  0  0  0
 41116  1  0  0  0
 41 48  1  0  0  0
 42 43  1  0  0  0
 42 66  1  0  0  0
 42117  1  0  0  0
 42118  1  0  0  0
 43 44  1  0  0  0
 44119  1  0  0  0
 45 46  2  0  0  0
 45120  1  0  0  0
 46121  1  0  0  0
 47122  1  0  0  0
 47123  1  0  0  0
 48 56  1  0  0  0
 48 65  1  0  0  0
 48124  1  0  0  0
 49 50  1  0  0  0
 49 53  1  0  0  0
 49 64  1  0  0  0
 49125  1  0  0  0
 50 51  1  0  0  0
 50126  1  0  0  0
 50127  1  0  0  0
 51 52  1  0  0  0
 51128  1  0  0  0
 51129  1  0  0  0
 52130  1  0  0  0
 52131  1  0  0  0
 53 54  1  0  0  0
 54 55  2  0  0  0
 54132  1  0  0  0
 55 57  1  0  0  0
 55133  1  0  0  0
 56 69  2  0  0  0
 57 58  2  0  0  0
 57134  1  0  0  0
 58135  1  0  0  0
 59 60  1  0  0  0
 59 61  1  0  0  0
 59 62  1  0  0  0
 60136  1  0  0  0
 60137  1  0  0  0
 60138  1  0  0  0
 61139  1  0  0  0
 61140  1  0  0  0
 61141  1  0  0  0
 62142  1  0  0  0
 62143  1  0  0  0
 62144  1  0  0  0
 63 65  1  0  0  0
 63145  1  0  0  0
 63146  1  0  0  0
 63147  1  0  0  0
 64148  1  0  0  0
 65149  1  0  0  0
 68 85  1  0  0  0
 71 72  1  0  0  0
 71 73  2  0  0  0
 71150  1  0  0  0
 72 74  2  0  0  0
 72 86  1  0  0  0
 73 89  1  0  0  0
 73 83  1  0  0  0
 74 89  1  0  0  0
 74 84  1  0  0  0
 75 77  1  0  0  0
 75 84  1  0  0  0
 75151  1  0  0  0
 75152  1  0  0  0
 76 78  1  0  0  0
 76 84  1  0  0  0
 76153  1  0  0  0
 76154  1  0  0  0
 77 85  1  0  0  0
 77155  1  0  0  0
 77156  1  0  0  0
 78 85  1  0  0  0
 78157  1  0  0  0
 78158  1  0  0  0
 79 81  1  0  0  0
 79 83  1  0  0  0
 79159  1  0  0  0
 79160  1  0  0  0
 80 82  1  0  0  0
 80 83  1  0  0  0
 80161  1  0  0  0
 80162  1  0  0  0
 81 90  1  0  0  0
 81163  1  0  0  0
 81164  1  0  0  0
 82 90  1  0  0  0
 82165  1  0  0  0
 82166  1  0  0  0
 83167  1  0  0  0
 84168  1  0  0  0
 85169  1  0  0  0
 86170  1  0  0  0
 86171  1  0  0  0
 86172  1  0  0  0
 87 88  1  0  0  0
 87173  1  0  0  0
 87174  1  0  0  0
 87175  1  0  0  0
 88 89  1  0  0  0
 88176  1  0  0  0
 88177  1  0  0  0
M  ISO  4   1 100  68 101  85 101  90 100
M  END
> <chiral flag>
0

> <version>
0

> <s_m_source_file>
/data/baiqing/PycharmProjects/Reinvent-master-3.2/result/LINK_invent/BTK/process_docking_weight1_custom_sum_contain_oxygen_bond_distance_aromatic_linkinvent_7_9_3/rearranged_h_0157.sdf

> <i_m_source_file_index>
16

> <r_mmod_Potential_Energy-OPLS-2005>
296.183410644531

> <r_mmod_Stretch_Energy-OPLS-2005>
39.7383041381836

> <r_mmod_Bend_Energy-OPLS-2005>
145.307342529297

> <r_mmod_Torsional_Energy-OPLS-2005>
420.623748779297

> <r_mmod_Improper_Torsional_Energy-OPLS-2005>
14.0870685577393

> <r_mmod_Van_der_Waal_Energy-OPLS-2005>
171.722183227539

> <r_mmod_Electrostatic_Energy-OPLS-2005>
-336.611083984375

> <r_mmod_Solvation_Energy-OPLS-2005>
-184.365615844727

> <b_mmod_Minimization_Converged-OPLS-2005>
0

> <r_mmod_RMS_Derivative-OPLS-2005>
5.06817150115967

$$$$
16
                    3D
 Structure written by MMmdl.
168177  0  0  1  0            999 V2000
  -30.6687  -14.7369   20.4927 C   0  0  0  0  0  0
  -30.4360  -12.4687   19.4676 C   0  0  0  0  0  0
  -29.5103  -12.5034   18.2344 C   0  0  0  0  0  0
  -28.0421  -12.3122   18.6589 C   0  0  0  0  0  0
  -27.6400  -13.2267   19.8454 C   0  0  2  0  0  0
  -28.6890  -13.1983   20.9788 C   0  0  0  0  0  0
  -25.2503  -13.8171   20.5700 C   0  0  0  0  0  0
  -24.1788  -13.0427   20.9222 C   0  0  0  0  0  0
  -24.6379  -11.6907   20.8765 C   0  0  0  0  0  0
  -23.9056  -10.4285   21.0421 C   0  0  0  0  0  0
  -24.3616   -9.4193   21.9186 C   0  0  0  0  0  0
  -23.6290   -8.2221   22.0750 C   0  0  0  0  0  0
  -22.4267   -8.0272   21.3550 C   0  0  0  0  0  0
  -21.9895   -9.0248   20.4651 C   0  0  0  0  0  0
  -22.7228  -10.2125   20.3066 C   0  0  0  0  0  0
  -21.6835   -6.0738   22.5285 C   0  0  0  0  0  0
  -21.3994   -6.5636   23.8225 C   0  0  0  0  0  0
  -21.3660   -5.6790   24.9183 C   0  0  0  0  0  0
  -21.6045   -4.3050   24.7222 C   0  0  0  0  0  0
  -21.8812   -3.8150   23.4342 C   0  0  0  0  0  0
  -21.9179   -4.6967   22.3396 C   0  0  0  0  0  0
  -22.7806  -13.5206   21.1866 C   0  0  0  0  0  0
  -22.1647   -4.2160   21.0971 F   0  0  0  0  0  0
  -21.5644   -3.4528   25.7731 F   0  0  0  0  0  0
  -29.9893  -13.5419   20.3866 N   0  0  0  0  0  0
  -26.2930  -12.9370   20.3283 N   0  0  0  0  0  0
  -25.9314  -11.6518   20.5771 N   0  0  0  0  0  0
  -22.0428  -12.8243   22.0446 N   0  0  0  0  0  0
  -25.4171  -15.1895   20.4131 N   0  0  0  0  0  0
  -31.8693  -14.7775   20.2087 O   0  0  0  0  0  0
  -21.6624   -6.8875   21.4247 O   0  0  0  0  0  0
  -22.3487  -14.5502   20.6685 O   0  0  0  0  0  0
  -24.6336  -31.8565   23.2018 C   0  0  0  0  0  0
  -25.9160  -32.4747   23.8357 C   0  0  1  0  0  0
  -27.2147  -27.2554   20.1205 C   0  0  0  0  0  0
  -25.5979  -33.8554   24.2274 N   0  0  0  0  0  0
  -23.4310  -30.4838   21.5439 C   0  0  2  0  0  0
  -24.8791  -28.9411   20.1081 C   0  0  0  0  0  0
  -22.7520  -29.4618   22.4892 C   0  0  0  0  0  0
  -18.0301  -28.1379   22.8483 C   0  0  0  0  0  0
  -24.1489  -36.7282   23.2620 C   0  0  0  0  0  0
  -25.9819  -30.7657   21.3871 C   0  0  0  0  0  0
  -26.0535  -29.3899   20.7261 C   0  0  0  0  0  0
  -27.2245  -28.5594   20.7279 C   0  0  0  0  0  0
  -26.0247  -26.9086   19.4358 C   0  0  0  0  0  0
  -24.8701  -27.7072   19.4513 C   0  0  0  0  0  0
  -23.6509  -29.8269   20.1579 C   0  0  0  0  0  0
  -25.4099  -36.3057   24.0331 C   0  0  1  0  0  0
  -20.5912  -28.3699   23.1250 C   0  0  2  0  0  0
  -20.6780  -26.9410   22.5404 C   0  0  0  0  0  0
  -19.5756  -26.6366   21.5209 C   0  0  0  0  0  0
  -18.1937  -26.7920   22.1621 C   0  0  0  0  0  0
  -19.1560  -28.8855   23.2860 C   0  0  0  0  0  0
  -18.9467  -30.1458   23.8877 C   0  0  0  0  0  0
  -17.6471  -30.6578   24.0557 C   0  0  0  0  0  0
  -25.9066  -34.9437   23.5096 C   0  0  0  0  0  0
  -16.5361  -29.9078   23.6331 C   0  0  0  0  0  0
  -16.7290  -28.6497   23.0351 C   0  0  0  0  0  0
  -26.4520  -31.6562   25.0740 C   0  0  0  0  0  0
  -25.3776  -31.3794   26.1511 C   0  0  0  0  0  0
  -27.0284  -30.2929   24.6247 C   0  0  0  0  0  0
  -27.6117  -32.4278   25.7476 C   0  0  0  0  0  0
  -27.5612  -37.1730   24.8415 C   0  0  0  0  0  0
  -21.4222  -29.3056   22.3640 N   0  0  0  0  0  0
  -26.4241  -37.3789   23.9485 N   0  0  0  0  0  0
  -24.7011  -31.0532   22.0992 N   0  0  0  0  0  0
  -23.4226  -28.8147   23.2973 O   0  0  0  0  0  0
  -28.2643  -26.2978   20.1962 O   0  0  0  0  0  0
  -26.5619  -34.8919   22.4649 O   0  0  0  0  0  0
  -23.5483  -32.1392   23.7300 O   0  0  0  0  0  0
  -29.1316  -21.3019   19.4468 C   0  0  0  0  0  0
  -29.2511  -21.4859   21.8230 C   0  0  0  0  0  0
  -29.2983  -20.6288   20.6899 C   0  0  0  0  0  0
  -28.6470  -23.5280   20.5037 C   0  0  0  0  0  0
  -28.8175  -22.7093   19.3419 C   0  0  0  0  0  0
  -28.9092  -22.8860   21.7538 C   0  0  0  0  0  0
  -29.1974  -18.1351   19.6037 C   0  0  0  0  0  0
  -30.5758  -18.4008   21.5845 C   0  0  0  0  0  0
  -29.0245  -16.5851   19.8940 C   0  0  0  0  0  0
  -30.4535  -16.8467   21.8926 C   0  0  0  0  0  0
  -29.3560  -19.0345   20.8604 C   0  0  0  0  0  0
  -28.3281  -24.0544   25.2138 C   0  0  0  0  0  0
  -28.6405  -22.5586   16.9380 C   0  0  0  0  0  0
  -27.7950  -24.8832   20.4434 C   0  0  0  0  0  0
  -28.8468  -23.0683   24.1653 C   0  0  0  0  0  0
  -29.9980  -15.9214   20.8088 N   0  0  0  0  0  0
  -28.5766  -23.3294   18.1314 O   0  0  0  0  0  0
  -28.7154  -23.6623   22.8800 O   0  0  0  0  0  0
  -31.4742  -12.5970   19.1539 H   0  0  0  0  0  0
  -30.3949  -11.4981   19.9642 H   0  0  0  0  0  0
  -29.8016  -11.7267   17.5266 H   0  0  0  0  0  0
  -29.6245  -13.4563   17.7131 H   0  0  0  0  0  0
  -27.9198  -11.2668   18.9460 H   0  0  0  0  0  0
  -27.3769  -12.4747   17.8101 H   0  0  0  0  0  0
  -27.6153  -14.2354   19.4391 H   0  0  0  0  0  0
  -28.7325  -12.2158   21.4492 H   0  0  0  0  0  0
  -28.4208  -13.9050   21.7664 H   0  0  0  0  0  0
  -25.2755   -9.5670   22.4768 H   0  0  0  0  0  0
  -24.0019   -7.4589   22.7442 H   0  0  0  0  0  0
  -21.0824   -8.8747   19.8950 H   0  0  0  0  0  0
  -22.3674  -10.9667   19.6185 H   0  0  0  0  0  0
  -21.1972   -7.6145   23.9734 H   0  0  0  0  0  0
  -21.1501   -6.0514   25.9095 H   0  0  0  0  0  0
  -22.0593   -2.7614   23.2817 H   0  0  0  0  0  0
  -22.4024  -11.9941   22.4917 H   0  0  0  0  0  0
  -21.1033  -13.1286   22.2596 H   0  0  0  0  0  0
  -24.6497  -15.8419   20.5358 H   0  0  0  0  0  0
  -26.2706  -15.6352   20.1058 H   0  0  0  0  0  0
  -26.7228  -32.5397   23.1102 H   0  0  0  0  0  0
  -25.0172  -33.9682   25.0450 H   0  0  0  0  0  0
  -22.7286  -31.3075   21.3994 H   0  0  0  0  0  0
  -23.3797  -35.9555   23.3097 H   0  0  0  0  0  0
  -24.3654  -36.9086   22.2079 H   0  0  0  0  0  0
  -23.7143  -37.6393   23.6743 H   0  0  0  0  0  0
  -26.1257  -31.5251   20.6170 H   0  0  0  0  0  0
  -26.8593  -30.8115   22.0206 H   0  0  0  0  0  0
  -28.1146  -28.8924   21.2428 H   0  0  0  0  0  0
  -25.9389  -26.0003   18.8632 H   0  0  0  0  0  0
  -23.9819  -27.3659   18.9378 H   0  0  0  0  0  0
  -23.7778  -30.6067   19.4063 H   0  0  0  0  0  0
  -22.7701  -29.2612   19.8487 H   0  0  0  0  0  0
  -25.1249  -36.1865   25.0811 H   0  0  0  0  0  0
  -21.0023  -28.3264   24.1365 H   0  0  0  0  0  0
  -20.5644  -26.2322   23.3622 H   0  0  0  0  0  0
  -21.6646  -26.7398   22.1211 H   0  0  0  0  0  0
  -19.6910  -25.6272   21.1250 H   0  0  0  0  0  0
  -19.6696  -27.3162   20.6729 H   0  0  0  0  0  0
  -17.4217  -26.6689   21.4011 H   0  0  0  0  0  0
  -18.0320  -26.0057   22.9009 H   0  0  0  0  0  0
  -19.7947  -30.7279   24.2224 H   0  0  0  0  0  0
  -17.5025  -31.6262   24.5156 H   0  0  0  0  0  0
  -15.5358  -30.2979   23.7652 H   0  0  0  0  0  0
  -15.8695  -28.0818   22.7061 H   0  0  0  0  0  0
  -24.5854  -30.7232   25.7884 H   0  0  0  0  0  0
  -24.9102  -32.3013   26.4983 H   0  0  0  0  0  0
  -25.8110  -30.8927   27.0256 H   0  0  0  0  0  0
  -26.2822  -29.6714   24.1276 H   0  0  0  0  0  0
  -27.3898  -29.7167   25.4771 H   0  0  0  0  0  0
  -27.8763  -30.4104   23.9501 H   0  0  0  0  0  0
  -27.2764  -33.3611   26.2009 H   0  0  0  0  0  0
  -28.3943  -32.6777   25.0298 H   0  0  0  0  0  0
  -28.0752  -31.8422   26.5422 H   0  0  0  0  0  0
  -28.2440  -38.0209   24.7736 H   0  0  0  0  0  0
  -28.1295  -36.2778   24.5844 H   0  0  0  0  0  0
  -27.2424  -37.0889   25.8818 H   0  0  0  0  0  0
  -20.9397  -29.8856   21.6920 H   0  0  0  0  0  0
  -26.0102  -38.2812   24.1675 H   0  0  0  0  0  0
  -29.1798  -20.6920   18.5578 H   0  0  0  0  0  0
  -29.4012  -21.0086   22.7791 H   0  0  0  0  0  0
  -28.3236  -18.4704   19.0435 H   0  0  0  0  0  0
  -30.0535  -18.2885   18.9449 H   0  0  0  0  0  0
  -31.4780  -18.5863   21.0000 H   0  0  0  0  0  0
  -30.7319  -18.9211   22.5312 H   0  0  0  0  0  0
  -29.0080  -16.0604   18.9372 H   0  0  0  0  0  0
  -28.0393  -16.4341   20.3339 H   0  0  0  0  0  0
  -29.7333  -16.7242   22.7025 H   0  0  0  0  0  0
  -31.3989  -16.4928   22.3079 H   0  0  0  0  0  0
  -28.4895  -18.8239   21.4883 H   0  0  0  0  0  0
  -28.4396  -23.6406   26.2165 H   0  0  0  0  0  0
  -27.2691  -24.2657   25.0622 H   0  0  0  0  0  0
  -28.8693  -24.9998   25.1753 H   0  0  0  0  0  0
  -28.4462  -23.2060   16.0822 H   0  0  0  0  0  0
  -27.8853  -21.7714   16.9316 H   0  0  0  0  0  0
  -29.6259  -22.1145   16.7934 H   0  0  0  0  0  0
  -27.2132  -24.9260   21.3646 H   0  0  0  0  0  0
  -27.0687  -24.5999   19.6907 H   0  0  0  0  0  0
  -28.2615  -22.1512   24.2411 H   0  0  0  0  0  0
  -29.8936  -22.8303   24.3595 H   0  0  0  0  0  0
  1 25  1  0  0  0
  1 30  2  0  0  0
  1 86  1  0  0  0
  2  3  1  0  0  0
  2 25  1  0  0  0
  2 89  1  0  0  0
  2 90  1  0  0  0
  3  4  1  0  0  0
  3 91  1  0  0  0
  3 92  1  0  0  0
  4  5  1  0  0  0
  4 93  1  0  0  0
  4 94  1  0  0  0
  5  6  1  0  0  0
  5 26  1  0  0  0
  5 95  1  0  0  0
  6 25  1  0  0  0
  6 96  1  0  0  0
  6 97  1  0  0  0
  7  8  2  0  0  0
  7 26  1  0  0  0
  7 29  1  0  0  0
  8  9  1  0  0  0
  8 22  1  0  0  0
  9 10  1  0  0  0
  9 27  2  0  0  0
 10 11  2  0  0  0
 10 15  1  0  0  0
 11 12  1  0  0  0
 11 98  1  0  0  0
 12 13  2  0  0  0
 12 99  1  0  0  0
 13 14  1  0  0  0
 13 31  1  0  0  0
 14 15  2  0  0  0
 14100  1  0  0  0
 15101  1  0  0  0
 16 17  2  0  0  0
 16 21  1  0  0  0
 16 31  1  0  0  0
 17 18  1  0  0  0
 17102  1  0  0  0
 18 19  2  0  0  0
 18103  1  0  0  0
 19 20  1  0  0  0
 19 24  1  0  0  0
 20 21  2  0  0  0
 20104  1  0  0  0
 21 23  1  0  0  0
 22 28  1  0  0  0
 22 32  2  0  0  0
 26 27  1  0  0  0
 28105  1  0  0  0
 28106  1  0  0  0
 29107  1  0  0  0
 29108  1  0  0  0
 33 34  1  0  0  0
 33 66  1  0  0  0
 33 70  2  0  0  0
 34 36  1  0  0  0
 34 59  1  0  0  0
 34109  1  0  0  0
 35 44  2  0  0  0
 35 45  1  0  0  0
 35 68  1  0  0  0
 36 56  1  0  0  0
 36110  1  0  0  0
 37 39  1  0  0  0
 37 47  1  0  0  0
 37 66  1  0  0  0
 37111  1  0  0  0
 38 43  2  0  0  0
 38 46  1  0  0  0
 38 47  1  0  0  0
 39 64  1  0  0  0
 39 67  2  0  0  0
 40 52  1  0  0  0
 40 53  2  0  0  0
 40 58  1  0  0  0
 41112  1  0  0  0
 41113  1  0  0  0
 41114  1  0  0  0
 41 48  1  0  0  0
 42 43  1  0  0  0
 42 66  1  0  0  0
 42115  1  0  0  0
 42116  1  0  0  0
 43 44  1  0  0  0
 44117  1  0  0  0
 45 46  2  0  0  0
 45118  1  0  0  0
 46119  1  0  0  0
 47120  1  0  0  0
 47121  1  0  0  0
 48 56  1  0  0  0
 48 65  1  0  0  0
 48122  1  0  0  0
 49 50  1  0  0  0
 49 53  1  0  0  0
 49 64  1  0  0  0
 49123  1  0  0  0
 50 51  1  0  0  0
 50124  1  0  0  0
 50125  1  0  0  0
 51 52  1  0  0  0
 51126  1  0  0  0
 51127  1  0  0  0
 52128  1  0  0  0
 52129  1  0  0  0
 53 54  1  0  0  0
 54 55  2  0  0  0
 54130  1  0  0  0
 55 57  1  0  0  0
 55131  1  0  0  0
 56 69  2  0  0  0
 57 58  2  0  0  0
 57132  1  0  0  0
 58133  1  0  0  0
 59 60  1  0  0  0
 59 61  1  0  0  0
 59 62  1  0  0  0
 60134  1  0  0  0
 60135  1  0  0  0
 60136  1  0  0  0
 61137  1  0  0  0
 61138  1  0  0  0
 61139  1  0  0  0
 62140  1  0  0  0
 62141  1  0  0  0
 62142  1  0  0  0
 63 65  1  0  0  0
 63143  1  0  0  0
 63144  1  0  0  0
 63145  1  0  0  0
 64146  1  0  0  0
 65147  1  0  0  0
 68 84  1  0  0  0
 71 73  2  0  0  0
 71 75  1  0  0  0
 71148  1  0  0  0
 72 73  1  0  0  0
 72 76  2  0  0  0
 72149  1  0  0  0
 73 81  1  0  0  0
 74 75  2  0  0  0
 74 76  1  0  0  0
 74 84  1  0  0  0
 75 87  1  0  0  0
 76 88  1  0  0  0
 77 79  1  0  0  0
 77 81  1  0  0  0
 77150  1  0  0  0
 77151  1  0  0  0
 78 80  1  0  0  0
 78 81  1  0  0  0
 78152  1  0  0  0
 78153  1  0  0  0
 79 86  1  0  0  0
 79154  1  0  0  0
 79155  1  0  0  0
 80 86  1  0  0  0
 80156  1  0  0  0
 80157  1  0  0  0
 81158  1  0  0  0
 82 85  1  0  0  0
 82159  1  0  0  0
 82160  1  0  0  0
 82161  1  0  0  0
 83 87  1  0  0  0
 83162  1  0  0  0
 83163  1  0  0  0
 83164  1  0  0  0
 84165  1  0  0  0
 84166  1  0  0  0
 85 88  1  0  0  0
 85167  1  0  0  0
 85168  1  0  0  0
M  ISO  4   1 100  68 101  84 101  86 100
M  END
> <chiral flag>
0

> <version>
0

> <s_m_source_file>
/data/baiqing/PycharmProjects/Reinvent-master-3.2/result/LINK_invent/BTK/process_docking_weight1_custom_sum_contain_oxygen_bond_distance_aromatic_linkinvent_7_9_3/rearranged_h_0157.sdf

> <i_m_source_file_index>
17

> <r_mmod_Potential_Energy-OPLS-2005>
486.309173583984

> <r_mmod_Stretch_Energy-OPLS-2005>
119.813255310059

> <r_mmod_Bend_Energy-OPLS-2005>
205.424728393555

> <r_mmod_Torsional_Energy-OPLS-2005>
370.28125

> <r_mmod_Improper_Torsional_Energy-OPLS-2005>
7.80489635467529

> <r_mmod_Van_der_Waal_Energy-OPLS-2005>
155.710815429688

> <r_mmod_Electrostatic_Energy-OPLS-2005>
-257.824188232422

> <r_mmod_Solvation_Energy-OPLS-2005>
-210.594573974609

> <b_mmod_Minimization_Converged-OPLS-2005>
0

> <r_mmod_RMS_Derivative-OPLS-2005>
2.25943827629089

$$$$
17
                    3D
 Structure written by MMmdl.
170179  0  0  1  0            999 V2000
  -30.7186  -14.4526   20.5566 C   0  0  0  0  0  0
  -30.4124  -12.2988   19.4066 C   0  0  0  0  0  0
  -29.4841  -12.4977   18.1936 C   0  0  0  0  0  0
  -28.0027  -12.3691   18.6009 C   0  0  0  0  0  0
  -27.6500  -13.2077   19.8611 C   0  0  2  0  0  0
  -28.6969  -12.9995   20.9800 C   0  0  0  0  0  0
  -25.2529  -13.8170   20.5665 C   0  0  0  0  0  0
  -24.1807  -13.0437   20.9210 C   0  0  0  0  0  0
  -24.6361  -11.6906   20.8725 C   0  0  0  0  0  0
  -23.9032  -10.4299   21.0357 C   0  0  0  0  0  0
  -24.3600   -9.4236   21.9140 C   0  0  0  0  0  0
  -23.6307   -8.2252   22.0720 C   0  0  0  0  0  0
  -22.4290   -8.0270   21.3525 C   0  0  0  0  0  0
  -21.9903   -9.0226   20.4622 C   0  0  0  0  0  0
  -22.7197  -10.2123   20.3011 C   0  0  0  0  0  0
  -21.6855   -6.0739   22.5292 C   0  0  0  0  0  0
  -21.4015   -6.5637   23.8229 C   0  0  0  0  0  0
  -21.3664   -5.6785   24.9193 C   0  0  0  0  0  0
  -21.6045   -4.3049   24.7238 C   0  0  0  0  0  0
  -21.8825   -3.8143   23.4358 C   0  0  0  0  0  0
  -21.9205   -4.6960   22.3418 C   0  0  0  0  0  0
  -22.7830  -13.5211   21.1901 C   0  0  0  0  0  0
  -22.1658   -4.2145   21.0992 F   0  0  0  0  0  0
  -21.5629   -3.4534   25.7748 F   0  0  0  0  0  0
  -30.0269  -13.2909   20.4187 N   0  0  0  0  0  0
  -26.2947  -12.9331   20.3288 N   0  0  0  0  0  0
  -25.9291  -11.6487   20.5734 N   0  0  0  0  0  0
  -22.0482  -12.8209   22.0470 N   0  0  0  0  0  0
  -25.4224  -15.1897   20.4074 N   0  0  0  0  0  0
  -31.8682  -14.6045   20.1422 O   0  0  0  0  0  0
  -21.6650   -6.8878   21.4247 O   0  0  0  0  0  0
  -22.3500  -14.5522   20.6758 O   0  0  0  0  0  0
  -24.6118  -31.8693   23.2133 C   0  0  0  0  0  0
  -25.9016  -32.4832   23.8412 C   0  0  1  0  0  0
  -27.2526  -27.4498   20.1099 C   0  0  0  0  0  0
  -25.5868  -33.8625   24.2338 N   0  0  0  0  0  0
  -23.4031  -30.4942   21.5483 C   0  0  2  0  0  0
  -24.8588  -28.9591   20.1212 C   0  0  0  0  0  0
  -22.7411  -29.4681   22.4955 C   0  0  0  0  0  0
  -18.0290  -28.1421   22.8486 C   0  0  0  0  0  0
  -24.1481  -36.7335   23.2642 C   0  0  0  0  0  0
  -25.9303  -30.8397   21.3680 C   0  0  0  0  0  0
  -26.0136  -29.4700   20.7266 C   0  0  0  0  0  0
  -27.2129  -28.7203   20.7330 C   0  0  0  0  0  0
  -26.0838  -26.9585   19.4944 C   0  0  0  0  0  0
  -24.8865  -27.6958   19.5048 C   0  0  0  0  0  0
  -23.6209  -29.8265   20.1635 C   0  0  0  0  0  0
  -25.4092  -36.3108   24.0348 C   0  0  1  0  0  0
  -20.5880  -28.3707   23.1322 C   0  0  2  0  0  0
  -20.6784  -26.9442   22.5429 C   0  0  0  0  0  0
  -19.5773  -26.6409   21.5229 C   0  0  0  0  0  0
  -18.1946  -26.7965   22.1629 C   0  0  0  0  0  0
  -19.1533  -28.8881   23.2904 C   0  0  0  0  0  0
  -18.9466  -30.1479   23.8921 C   0  0  0  0  0  0
  -17.6465  -30.6619   24.0593 C   0  0  0  0  0  0
  -25.9016  -34.9475   23.5144 C   0  0  0  0  0  0
  -16.5358  -29.9136   23.6324 C   0  0  0  0  0  0
  -16.7276  -28.6565   23.0323 C   0  0  0  0  0  0
  -26.4462  -31.6601   25.0726 C   0  0  0  0  0  0
  -25.3744  -31.3719   26.1489 C   0  0  0  0  0  0
  -27.0275  -30.3032   24.6092 C   0  0  0  0  0  0
  -27.6032  -32.4321   25.7488 C   0  0  0  0  0  0
  -27.5578  -37.1818   24.8456 C   0  0  0  0  0  0
  -21.4135  -29.3052   22.3693 N   0  0  0  0  0  0
  -26.4276  -37.3791   23.9424 N   0  0  0  0  0  0
  -24.6662  -31.0807   22.1028 N   0  0  0  0  0  0
  -23.4180  -28.8210   23.2990 O   0  0  0  0  0  0
  -28.3702  -26.6482   20.0214 O   0  0  0  0  0  0
  -26.5583  -34.8926   22.4703 O   0  0  0  0  0  0
  -23.5312  -32.1424   23.7525 O   0  0  0  0  0  0
  -30.4904  -19.3060   20.8084 C   0  0  0  0  0  0
  -29.9298  -19.0332   18.1053 C   0  0  0  0  0  0
  -30.4040  -20.4797   20.0143 C   0  0  0  0  0  0
  -30.2951  -17.9977   20.2907 C   0  0  0  0  0  0
  -29.9624  -17.8754   18.9108 C   0  0  0  0  0  0
  -30.1700  -20.3284   18.6240 C   0  0  0  0  0  0
  -30.0919  -22.0199   22.0974 C   0  0  0  0  0  0
  -30.1106  -23.5363   22.3256 C   0  0  0  0  0  0
  -30.0340  -23.1286   19.9760 C   0  0  0  0  0  0
  -30.6255  -21.8697   20.6704 C   0  0  2  0  0  0
  -29.6394  -16.5622   18.2115 C   0  0  0  0  0  0
  -29.9764  -21.3199   16.4280 C   0  0  0  0  0  0
  -30.5463  -16.8386   21.2858 C   0  0  0  0  0  0
  -30.3409  -25.5215   20.7913 C   0  0  0  0  0  0
  -29.3255  -26.6529   21.0802 C   0  0  0  0  0  0
  -30.0123  -15.4944   21.0258 N   0  0  0  0  0  0
  -29.7744  -24.1550   21.0231 N   0  3  2  0  0  0
  -30.1995  -21.4501   17.8250 O   0  0  0  0  0  0
  -31.4564  -12.3944   19.0984 H   0  0  0  0  0  0
  -30.3114  -11.2891   19.8064 H   0  0  0  0  0  0
  -29.7222  -11.7726   17.4137 H   0  0  0  0  0  0
  -29.6591  -13.4801   17.7550 H   0  0  0  0  0  0
  -27.8031  -11.3144   18.7883 H   0  0  0  0  0  0
  -27.3569  -12.6525   17.7676 H   0  0  0  0  0  0
  -27.6807  -14.2541   19.5622 H   0  0  0  0  0  0
  -28.6723  -11.9685   21.3358 H   0  0  0  0  0  0
  -28.4657  -13.6158   21.8489 H   0  0  0  0  0  0
  -25.2732   -9.5748   22.4725 H   0  0  0  0  0  0
  -24.0048   -7.4645   22.7423 H   0  0  0  0  0  0
  -21.0830   -8.8703   19.8939 H   0  0  0  0  0  0
  -22.3598  -10.9649   19.6129 H   0  0  0  0  0  0
  -21.1992   -7.6143   23.9740 H   0  0  0  0  0  0
  -21.1472   -6.0505   25.9097 H   0  0  0  0  0  0
  -22.0604   -2.7599   23.2855 H   0  0  0  0  0  0
  -22.4058  -11.9831   22.4813 H   0  0  0  0  0  0
  -21.1075  -13.1191   22.2659 H   0  0  0  0  0  0
  -24.6510  -15.8400   20.5220 H   0  0  0  0  0  0
  -26.2729  -15.6384   20.0906 H   0  0  0  0  0  0
  -26.7089  -32.5563   23.1185 H   0  0  0  0  0  0
  -24.9973  -33.9773   25.0455 H   0  0  0  0  0  0
  -22.6923  -31.3105   21.4057 H   0  0  0  0  0  0
  -23.3721  -35.9686   23.3285 H   0  0  0  0  0  0
  -24.3588  -36.8963   22.2059 H   0  0  0  0  0  0
  -23.7250  -37.6550   23.6662 H   0  0  0  0  0  0
  -26.0328  -31.6019   20.5941 H   0  0  0  0  0  0
  -26.8199  -30.9026   21.9823 H   0  0  0  0  0  0
  -28.0957  -29.1338   21.1983 H   0  0  0  0  0  0
  -26.1014  -25.9917   19.0114 H   0  0  0  0  0  0
  -24.0002  -27.2934   19.0341 H   0  0  0  0  0  0
  -23.7451  -30.6045   19.4095 H   0  0  0  0  0  0
  -22.7453  -29.2539   19.8535 H   0  0  0  0  0  0
  -25.1268  -36.1965   25.0840 H   0  0  0  0  0  0
  -20.9987  -28.3291   24.1437 H   0  0  0  0  0  0
  -20.5721  -26.2321   23.3617 H   0  0  0  0  0  0
  -21.6658  -26.7516   22.1197 H   0  0  0  0  0  0
  -19.6937  -25.6319   21.1260 H   0  0  0  0  0  0
  -19.6731  -27.3217   20.6758 H   0  0  0  0  0  0
  -17.4227  -26.6735   21.4015 H   0  0  0  0  0  0
  -18.0335  -26.0113   22.9033 H   0  0  0  0  0  0
  -19.7943  -30.7297   24.2294 H   0  0  0  0  0  0
  -17.5035  -31.6292   24.5208 H   0  0  0  0  0  0
  -15.5362  -30.3064   23.7637 H   0  0  0  0  0  0
  -15.8679  -28.0916   22.6985 H   0  0  0  0  0  0
  -24.5883  -30.7103   25.7847 H   0  0  0  0  0  0
  -24.8991  -32.2897   26.4966 H   0  0  0  0  0  0
  -25.8112  -30.8868   27.0227 H   0  0  0  0  0  0
  -26.2825  -29.6809   24.1130 H   0  0  0  0  0  0
  -27.4018  -29.7244   25.4547 H   0  0  0  0  0  0
  -27.8668  -30.4332   23.9256 H   0  0  0  0  0  0
  -27.2622  -33.3587   26.2119 H   0  0  0  0  0  0
  -28.3820  -32.6939   25.0313 H   0  0  0  0  0  0
  -28.0725  -31.8418   26.5370 H   0  0  0  0  0  0
  -28.2573  -38.0135   24.7491 H   0  0  0  0  0  0
  -28.1092  -36.2661   24.6264 H   0  0  0  0  0  0
  -27.2315  -37.1453   25.8865 H   0  0  0  0  0  0
  -20.9298  -29.8770   21.6911 H   0  0  0  0  0  0
  -26.0159  -38.2865   24.1438 H   0  0  0  0  0  0
  -30.7382  -19.3992   21.8559 H   0  0  0  0  0  0
  -29.7213  -18.8996   17.0545 H   0  0  0  0  0  0
  -29.0682  -21.6495   22.1578 H   0  0  0  0  0  0
  -30.6888  -21.4862   22.8360 H   0  0  0  0  0  0
  -31.1129  -23.8327   22.6397 H   0  0  0  0  0  0
  -29.4136  -23.8466   23.1036 H   0  0  0  0  0  0
  -29.0707  -22.9039   19.5166 H   0  0  0  0  0  0
  -30.6948  -23.4920   19.1879 H   0  0  0  0  0  0
  -31.7078  -22.0091   20.7092 H   0  0  0  0  0  0
  -29.2185  -16.7407   17.2213 H   0  0  0  0  0  0
  -28.8802  -16.0033   18.7512 H   0  0  0  0  0  0
  -30.5236  -15.9400   18.0722 H   0  0  0  0  0  0
  -30.0566  -22.3045   15.9691 H   0  0  0  0  0  0
  -28.9742  -20.9436   16.2176 H   0  0  0  0  0  0
  -30.7178  -20.6743   15.9556 H   0  0  0  0  0  0
  -30.1489  -17.1314   22.2578 H   0  0  0  0  0  0
  -31.6272  -16.7776   21.4343 H   0  0  0  0  0  0
  -31.2267  -25.6706   21.4087 H   0  0  0  0  0  0
  -30.6833  -25.6332   19.7625 H   0  0  0  0  0  0
  -29.8443  -27.6123   21.1076 H   0  0  0  0  0  0
  -28.8501  -26.5110   22.0530 H   0  0  0  0  0  0
  -29.0546  -15.3214   21.2915 H   0  0  0  0  0  0
  -28.7705  -24.2701   21.0088 H   0  0  0  0  0  0
  1 25  1  0  0  0
  1 30  2  0  0  0
  1 86  1  0  0  0
  2  3  1  0  0  0
  2 25  1  0  0  0
  2 89  1  0  0  0
  2 90  1  0  0  0
  3  4  1  0  0  0
  3 91  1  0  0  0
  3 92  1  0  0  0
  4  5  1  0  0  0
  4 93  1  0  0  0
  4 94  1  0  0  0
  5  6  1  0  0  0
  5 26  1  0  0  0
  5 95  1  0  0  0
  6 25  1  0  0  0
  6 96  1  0  0  0
  6 97  1  0  0  0
  7  8  2  0  0  0
  7 26  1  0  0  0
  7 29  1  0  0  0
  8  9  1  0  0  0
  8 22  1  0  0  0
  9 10  1  0  0  0
  9 27  2  0  0  0
 10 11  2  0  0  0
 10 15  1  0  0  0
 11 12  1  0  0  0
 11 98  1  0  0  0
 12 13  2  0  0  0
 12 99  1  0  0  0
 13 14  1  0  0  0
 13 31  1  0  0  0
 14 15  2  0  0  0
 14100  1  0  0  0
 15101  1  0  0  0
 16 17  2  0  0  0
 16 21  1  0  0  0
 16 31  1  0  0  0
 17 18  1  0  0  0
 17102  1  0  0  0
 18 19  2  0  0  0
 18103  1  0  0  0
 19 20  1  0  0  0
 19 24  1  0  0  0
 20 21  2  0  0  0
 20104  1  0  0  0
 21 23  1  0  0  0
 22 28  1  0  0  0
 22 32  2  0  0  0
 26 27  1  0  0  0
 28105  1  0  0  0
 28106  1  0  0  0
 29107  1  0  0  0
 29108  1  0  0  0
 33 34  1  0  0  0
 33 66  1  0  0  0
 33 70  2  0  0  0
 34 36  1  0  0  0
 34 59  1  0  0  0
 34109  1  0  0  0
 35 44  2  0  0  0
 35 45  1  0  0  0
 35 68  1  0  0  0
 36 56  1  0  0  0
 36110  1  0  0  0
 37 39  1  0  0  0
 37 47  1  0  0  0
 37 66  1  0  0  0
 37111  1  0  0  0
 38 43  2  0  0  0
 38 46  1  0  0  0
 38 47  1  0  0  0
 39 64  1  0  0  0
 39 67  2  0  0  0
 40 52  1  0  0  0
 40 53  2  0  0  0
 40 58  1  0  0  0
 41112  1  0  0  0
 41113  1  0  0  0
 41114  1  0  0  0
 41 48  1  0  0  0
 42 43  1  0  0  0
 42 66  1  0  0  0
 42115  1  0  0  0
 42116  1  0  0  0
 43 44  1  0  0  0
 44117  1  0  0  0
 45 46  2  0  0  0
 45118  1  0  0  0
 46119  1  0  0  0
 47120  1  0  0  0
 47121  1  0  0  0
 48 56  1  0  0  0
 48 65  1  0  0  0
 48122  1  0  0  0
 49 50  1  0  0  0
 49 53  1  0  0  0
 49 64  1  0  0  0
 49123  1  0  0  0
 50 51  1  0  0  0
 50124  1  0  0  0
 50125  1  0  0  0
 51 52  1  0  0  0
 51126  1  0  0  0
 51127  1  0  0  0
 52128  1  0  0  0
 52129  1  0  0  0
 53 54  1  0  0  0
 54 55  2  0  0  0
 54130  1  0  0  0
 55 57  1  0  0  0
 55131  1  0  0  0
 56 69  2  0  0  0
 57 58  2  0  0  0
 57132  1  0  0  0
 58133  1  0  0  0
 59 60  1  0  0  0
 59 61  1  0  0  0
 59 62  1  0  0  0
 60134  1  0  0  0
 60135  1  0  0  0
 60136  1  0  0  0
 61137  1  0  0  0
 61138  1  0  0  0
 61139  1  0  0  0
 62140  1  0  0  0
 62141  1  0  0  0
 62142  1  0  0  0
 63 65  1  0  0  0
 63143  1  0  0  0
 63144  1  0  0  0
 63145  1  0  0  0
 64146  1  0  0  0
 65147  1  0  0  0
 68 85  1  0  0  0
 71 73  2  0  0  0
 71 74  1  0  0  0
 71148  1  0  0  0
 72 75  1  0  0  0
 72 76  2  0  0  0
 72149  1  0  0  0
 73 76  1  0  0  0
 73 80  1  0  0  0
 74 75  2  0  0  0
 74 83  1  0  0  0
 75 81  1  0  0  0
 76 88  1  0  0  0
 77 78  1  0  0  0
 77 80  1  0  0  0
 77150  1  0  0  0
 77151  1  0  0  0
 78 87  1  0  0  0
 78152  1  0  0  0
 78153  1  0  0  0
 79 80  1  0  0  0
 79 87  1  0  0  0
 79154  1  0  0  0
 79155  1  0  0  0
 80156  1  0  0  0
 81157  1  0  0  0
 81158  1  0  0  0
 81159  1  0  0  0
 82 88  1  0  0  0
 82160  1  0  0  0
 82161  1  0  0  0
 82162  1  0  0  0
 83 86  1  0  0  0
 83163  1  0  0  0
 83164  1  0  0  0
 84 85  1  0  0  0
 84165  1  0  0  0
 84166  1  0  0  0
 84 87  1  0  0  0
 85167  1  0  0  0
 85168  1  0  0  0
 86169  1  0  0  0
 87170  1  0  0  0
M  CHG  1  87   1
M  ISO  4   1 100  68 101  85 101  86 100
M  END
> <chiral flag>
0

> <version>
0

> <s_m_source_file>
/data/baiqing/PycharmProjects/Reinvent-master-3.2/result/LINK_invent/BTK/process_docking_weight1_custom_sum_contain_oxygen_bond_distance_aromatic_linkinvent_7_9_3/rearranged_h_0157.sdf

> <i_m_source_file_index>
18

> <r_mmod_Potential_Energy-OPLS-2005>
-105.334953308105

> <r_mmod_Stretch_Energy-OPLS-2005>
42.0408210754395

> <r_mmod_Bend_Energy-OPLS-2005>
155.612594604492

> <r_mmod_Torsional_Energy-OPLS-2005>
276.155456542969

> <r_mmod_Improper_Torsional_Energy-OPLS-2005>
3.77735733985901

> <r_mmod_Van_der_Waal_Energy-OPLS-2005>
161.933242797852

> <r_mmod_Electrostatic_Energy-OPLS-2005>
-343.489532470703

> <r_mmod_Solvation_Energy-OPLS-2005>
-414.388549804688

> <b_mmod_Minimization_Converged-OPLS-2005>
0

> <r_mmod_RMS_Derivative-OPLS-2005>
3.53963541984558

$$$$
18
                    3D
 Structure written by MMmdl.
167176  0  0  1  0            999 V2000
  -30.5526  -14.8624   20.4308 C   0  0  0  0  0  0
  -30.4400  -12.5248   19.5013 C   0  0  0  0  0  0
  -29.5222  -12.5304   18.2557 C   0  0  0  0  0  0
  -28.0481  -12.3405   18.6605 C   0  0  0  0  0  0
  -27.6397  -13.2421   19.8539 C   0  0  2  0  0  0
  -28.6804  -13.2090   20.9965 C   0  0  0  0  0  0
  -25.2490  -13.8194   20.5701 C   0  0  0  0  0  0
  -24.1788  -13.0430   20.9211 C   0  0  0  0  0  0
  -24.6389  -11.6905   20.8729 C   0  0  0  0  0  0
  -23.9052  -10.4289   21.0377 C   0  0  0  0  0  0
  -24.3608   -9.4215   21.9161 C   0  0  0  0  0  0
  -23.6310   -8.2222   22.0724 C   0  0  0  0  0  0
  -22.4288   -8.0261   21.3515 C   0  0  0  0  0  0
  -21.9909   -9.0226   20.4606 C   0  0  0  0  0  0
  -22.7216  -10.2121   20.3034 C   0  0  0  0  0  0
  -21.6858   -6.0735   22.5271 C   0  0  0  0  0  0
  -21.3996   -6.5638   23.8209 C   0  0  0  0  0  0
  -21.3672   -5.6794   24.9169 C   0  0  0  0  0  0
  -21.6059   -4.3050   24.7221 C   0  0  0  0  0  0
  -21.8819   -3.8140   23.4338 C   0  0  0  0  0  0
  -21.9194   -4.6961   22.3395 C   0  0  0  0  0  0
  -22.7811  -13.5199   21.1901 C   0  0  0  0  0  0
  -22.1664   -4.2138   21.0973 F   0  0  0  0  0  0
  -21.5642   -3.4546   25.7740 F   0  0  0  0  0  0
  -29.9755  -13.5995   20.4212 N   0  0  0  0  0  0
  -26.2926  -12.9421   20.3278 N   0  0  0  0  0  0
  -25.9325  -11.6547   20.5728 N   0  0  0  0  0  0
  -22.0464  -12.8165   22.0444 N   0  0  0  0  0  0
  -25.4181  -15.1918   20.4118 N   0  0  0  0  0  0
  -31.7223  -14.9679   20.0564 O   0  0  0  0  0  0
  -21.6628   -6.8877   21.4237 O   0  0  0  0  0  0
  -22.3493  -14.5522   20.6786 O   0  0  0  0  0  0
  -24.6418  -31.8486   23.1929 C   0  0  0  0  0  0
  -25.9206  -32.4717   23.8301 C   0  0  1  0  0  0
  -27.2142  -27.1781   20.1360 C   0  0  0  0  0  0
  -25.5989  -33.8507   24.2240 N   0  0  0  0  0  0
  -23.4420  -30.4727   21.5377 C   0  0  2  0  0  0
  -24.8913  -28.9155   20.1072 C   0  0  0  0  0  0
  -22.7561  -29.4569   22.4864 C   0  0  0  0  0  0
  -18.0309  -28.1397   22.8470 C   0  0  0  0  0  0
  -24.1499  -36.7241   23.2630 C   0  0  0  0  0  0
  -25.9950  -30.7389   21.3833 C   0  0  0  0  0  0
  -26.0682  -29.3531   20.7274 C   0  0  0  0  0  0
  -27.2310  -28.4969   20.7332 C   0  0  0  0  0  0
  -26.0126  -26.8500   19.4605 C   0  0  0  0  0  0
  -24.8742  -27.6755   19.4583 C   0  0  0  0  0  0
  -23.6664  -29.8100   20.1541 C   0  0  0  0  0  0
  -25.4122  -36.3022   24.0314 C   0  0  1  0  0  0
  -20.5922  -28.3714   23.1238 C   0  0  2  0  0  0
  -20.6788  -26.9425   22.5395 C   0  0  0  0  0  0
  -19.5760  -26.6396   21.5195 C   0  0  0  0  0  0
  -18.1946  -26.7941   22.1616 C   0  0  0  0  0  0
  -19.1565  -28.8874   23.2851 C   0  0  0  0  0  0
  -18.9474  -30.1474   23.8871 C   0  0  0  0  0  0
  -17.6465  -30.6582   24.0561 C   0  0  0  0  0  0
  -25.9076  -34.9406   23.5076 C   0  0  0  0  0  0
  -16.5360  -29.9072   23.6340 C   0  0  0  0  0  0
  -16.7293  -28.6504   23.0333 C   0  0  0  0  0  0
  -26.4572  -31.6523   25.0684 C   0  0  0  0  0  0
  -25.3795  -31.3634   26.1397 C   0  0  0  0  0  0
  -27.0413  -30.2932   24.6168 C   0  0  0  0  0  0
  -27.6151  -32.4232   25.7458 C   0  0  0  0  0  0
  -27.5572  -37.1775   24.8460 C   0  0  0  0  0  0
  -21.4259  -29.3045   22.3617 N   0  0  0  0  0  0
  -26.4272  -37.3744   23.9425 N   0  0  0  0  0  0
  -24.7129  -31.0386   22.0951 N   0  0  0  0  0  0
  -23.4222  -28.8107   23.2987 O   0  0  0  0  0  0
  -28.2524  -26.1838   20.2262 O   0  0  0  0  0  0
  -26.5630  -34.8898   22.4636 O   0  0  0  0  0  0
  -23.5547  -32.1339   23.7181 O   0  0  0  0  0  0
  -29.6234  -22.7689   19.3691 C   0  0  0  0  0  0
  -28.2483  -22.3461   21.2147 C   0  0  0  0  0  0
  -29.6727  -20.3872   20.3618 C   0  0  0  0  0  0
  -28.6664  -23.3253   20.2584 C   0  0  0  0  0  0
  -30.1210  -21.4040   19.4034 C   0  0  0  0  0  0
  -28.7106  -20.9686   21.2696 C   0  0  0  0  0  0
  -31.6363  -18.5522   20.0349 C   0  0  0  0  0  0
  -31.4582  -17.9252   18.6318 C   0  0  0  0  0  0
  -30.2328  -18.8235   20.5883 C   0  0  2  0  0  0
  -30.0089  -17.3910   18.5590 C   0  0  1  0  0  0
  -29.5487  -17.4252   20.0267 C   0  0  1  0  0  0
  -31.1397  -21.1505   18.2959 C   0  0  0  0  0  0
  -28.1192  -20.1008   22.3738 C   0  0  0  0  0  0
  -27.8597  -24.7187   19.9759 C   0  0  0  0  0  0
  -29.0480  -18.2012   17.6577 C   0  0  0  0  0  0
  -29.7398  -15.9922   20.6602 N   0  0  0  0  0  0
  -29.4561  -18.1401   16.3038 O   0  0  0  0  0  0
  -31.4787  -12.6651   19.1973 H   0  0  0  0  0  0
  -30.4070  -11.5562   20.0016 H   0  0  0  0  0  0
  -29.8231  -11.7493   17.5565 H   0  0  0  0  0  0
  -29.6340  -13.4769   17.7243 H   0  0  0  0  0  0
  -27.9111  -11.2928   18.9309 H   0  0  0  0  0  0
  -27.3943  -12.5271   17.8074 H   0  0  0  0  0  0
  -27.6255  -14.2590   19.4606 H   0  0  0  0  0  0
  -28.7389  -12.2148   21.4436 H   0  0  0  0  0  0
  -28.3934  -13.8908   21.7984 H   0  0  0  0  0  0
  -25.2739   -9.5717   22.4744 H   0  0  0  0  0  0
  -24.0042   -7.4614   22.7429 H   0  0  0  0  0  0
  -21.0852   -8.8734   19.8909 H   0  0  0  0  0  0
  -22.3660  -10.9664   19.6148 H   0  0  0  0  0  0
  -21.1975   -7.6140   23.9716 H   0  0  0  0  0  0
  -21.1498   -6.0502   25.9082 H   0  0  0  0  0  0
  -22.0596   -2.7600   23.2821 H   0  0  0  0  0  0
  -22.4103  -11.9832   22.4822 H   0  0  0  0  0  0
  -21.1059  -13.1135   22.2642 H   0  0  0  0  0  0
  -24.6475  -15.8435   20.5088 H   0  0  0  0  0  0
  -26.2632  -15.6270   20.0640 H   0  0  0  0  0  0
  -26.7261  -32.5365   23.1025 H   0  0  0  0  0  0
  -25.0206  -33.9634   25.0438 H   0  0  0  0  0  0
  -22.7414  -31.2972   21.3873 H   0  0  0  0  0  0
  -23.3768  -35.9562   23.3258 H   0  0  0  0  0  0
  -24.3612  -36.8901   22.2054 H   0  0  0  0  0  0
  -23.7239  -37.6424   23.6684 H   0  0  0  0  0  0
  -26.1307  -31.4924   20.6063 H   0  0  0  0  0  0
  -26.8734  -30.8013   22.0133 H   0  0  0  0  0  0
  -28.1252  -28.8210   21.2467 H   0  0  0  0  0  0
  -25.8984  -25.9158   18.9330 H   0  0  0  0  0  0
  -23.9773  -27.3436   18.9527 H   0  0  0  0  0  0
  -23.7981  -30.5854   19.3983 H   0  0  0  0  0  0
  -22.7843  -29.2472   19.8454 H   0  0  0  0  0  0
  -25.1303  -36.1847   25.0799 H   0  0  0  0  0  0
  -21.0017  -28.3299   24.1357 H   0  0  0  0  0  0
  -20.5666  -26.2333   23.3608 H   0  0  0  0  0  0
  -21.6660  -26.7428   22.1206 H   0  0  0  0  0  0
  -19.6921  -25.6305   21.1229 H   0  0  0  0  0  0
  -19.6698  -27.3203   20.6718 H   0  0  0  0  0  0
  -17.4221  -26.6684   21.4010 H   0  0  0  0  0  0
  -18.0349  -26.0085   22.9020 H   0  0  0  0  0  0
  -19.7944  -30.7300   24.2219 H   0  0  0  0  0  0
  -17.5015  -31.6256   24.5176 H   0  0  0  0  0  0
  -15.5353  -30.2948   23.7675 H   0  0  0  0  0  0
  -15.8710  -28.0815   22.7018 H   0  0  0  0  0  0
  -24.6081  -30.6848   25.7732 H   0  0  0  0  0  0
  -24.8851  -32.2756   26.4731 H   0  0  0  0  0  0
  -25.8150  -30.8922   27.0219 H   0  0  0  0  0  0
  -26.2982  -29.6660   24.1226 H   0  0  0  0  0  0
  -27.4133  -29.7208   25.4676 H   0  0  0  0  0  0
  -27.8861  -30.4178   23.9388 H   0  0  0  0  0  0
  -27.2826  -33.3596   26.1939 H   0  0  0  0  0  0
  -28.4026  -32.6647   25.0306 H   0  0  0  0  0  0
  -28.0740  -31.8379   26.5436 H   0  0  0  0  0  0
  -28.2550  -38.0110   24.7555 H   0  0  0  0  0  0
  -28.1107  -36.2641   24.6226 H   0  0  0  0  0  0
  -27.2308  -37.1352   25.8866 H   0  0  0  0  0  0
  -20.9459  -29.8781   21.6828 H   0  0  0  0  0  0
  -26.0127  -38.2802   24.1461 H   0  0  0  0  0  0
  -29.9500  -23.4262   18.5761 H   0  0  0  0  0  0
  -27.4886  -22.6505   21.9200 H   0  0  0  0  0  0
  -32.3376  -19.3766   20.1229 H   0  0  0  0  0  0
  -32.0765  -17.7722   20.6593 H   0  0  0  0  0  0
  -32.1628  -17.1013   18.5204 H   0  0  0  0  0  0
  -31.7012  -18.6033   17.8194 H   0  0  0  0  0  0
  -30.3034  -18.7255   21.6708 H   0  0  0  0  0  0
  -30.0119  -16.3731   18.1663 H   0  0  0  0  0  0
  -28.4685  -17.5675   20.0717 H   0  0  0  0  0  0
  -31.3974  -22.0721   17.7738 H   0  0  0  0  0  0
  -30.7362  -20.5019   17.5259 H   0  0  0  0  0  0
  -32.0937  -20.7786   18.6496 H   0  0  0  0  0  0
  -27.2012  -20.5304   22.7771 H   0  0  0  0  0  0
  -28.8274  -20.0030   23.1975 H   0  0  0  0  0  0
  -27.8684  -19.1030   22.0133 H   0  0  0  0  0  0
  -26.8957  -24.5624   20.4629 H   0  0  0  0  0  0
  -27.6595  -24.6633   18.9048 H   0  0  0  0  0  0
  -28.9566  -19.2350   17.9846 H   0  0  0  0  0  0
  -28.0409  -17.7877   17.7253 H   0  0  0  0  0  0
  -28.9023  -15.7075   21.1459 H   0  0  0  0  0  0
  -30.3322  -18.5041   16.2450 H   0  0  0  0  0  0
  1 25  1  0  0  0
  1 30  2  0  0  0
  1 86  1  0  0  0
  2  3  1  0  0  0
  2 25  1  0  0  0
  2 88  1  0  0  0
  2 89  1  0  0  0
  3  4  1  0  0  0
  3 90  1  0  0  0
  3 91  1  0  0  0
  4  5  1  0  0  0
  4 92  1  0  0  0
  4 93  1  0  0  0
  5  6  1  0  0  0
  5 26  1  0  0  0
  5 94  1  0  0  0
  6 25  1  0  0  0
  6 95  1  0  0  0
  6 96  1  0  0  0
  7  8  2  0  0  0
  7 26  1  0  0  0
  7 29  1  0  0  0
  8  9  1  0  0  0
  8 22  1  0  0  0
  9 10  1  0  0  0
  9 27  2  0  0  0
 10 11  2  0  0  0
 10 15  1  0  0  0
 11 12  1  0  0  0
 11 97  1  0  0  0
 12 13  2  0  0  0
 12 98  1  0  0  0
 13 14  1  0  0  0
 13 31  1  0  0  0
 14 15  2  0  0  0
 14 99  1  0  0  0
 15100  1  0  0  0
 16 17  2  0  0  0
 16 21  1  0  0  0
 16 31  1  0  0  0
 17 18  1  0  0  0
 17101  1  0  0  0
 18 19  2  0  0  0
 18102  1  0  0  0
 19 20  1  0  0  0
 19 24  1  0  0  0
 20 21  2  0  0  0
 20103  1  0  0  0
 21 23  1  0  0  0
 22 28  1  0  0  0
 22 32  2  0  0  0
 26 27  1  0  0  0
 28104  1  0  0  0
 28105  1  0  0  0
 29106  1  0  0  0
 29107  1  0  0  0
 33 34  1  0  0  0
 33 66  1  0  0  0
 33 70  2  0  0  0
 34 36  1  0  0  0
 34 59  1  0  0  0
 34108  1  0  0  0
 35 44  2  0  0  0
 35 45  1  0  0  0
 35 68  1  0  0  0
 36 56  1  0  0  0
 36109  1  0  0  0
 37 39  1  0  0  0
 37 47  1  0  0  0
 37 66  1  0  0  0
 37110  1  0  0  0
 38 43  2  0  0  0
 38 46  1  0  0  0
 38 47  1  0  0  0
 39 64  1  0  0  0
 39 67  2  0  0  0
 40 52  1  0  0  0
 40 53  2  0  0  0
 40 58  1  0  0  0
 41111  1  0  0  0
 41112  1  0  0  0
 41113  1  0  0  0
 41 48  1  0  0  0
 42 43  1  0  0  0
 42 66  1  0  0  0
 42114  1  0  0  0
 42115  1  0  0  0
 43 44  1  0  0  0
 44116  1  0  0  0
 45 46  2  0  0  0
 45117  1  0  0  0
 46118  1  0  0  0
 47119  1  0  0  0
 47120  1  0  0  0
 48 56  1  0  0  0
 48 65  1  0  0  0
 48121  1  0  0  0
 49 50  1  0  0  0
 49 53  1  0  0  0
 49 64  1  0  0  0
 49122  1  0  0  0
 50 51  1  0  0  0
 50123  1  0  0  0
 50124  1  0  0  0
 51 52  1  0  0  0
 51125  1  0  0  0
 51126  1  0  0  0
 52127  1  0  0  0
 52128  1  0  0  0
 53 54  1  0  0  0
 54 55  2  0  0  0
 54129  1  0  0  0
 55 57  1  0  0  0
 55130  1  0  0  0
 56 69  2  0  0  0
 57 58  2  0  0  0
 57131  1  0  0  0
 58132  1  0  0  0
 59 60  1  0  0  0
 59 61  1  0  0  0
 59 62  1  0  0  0
 60133  1  0  0  0
 60134  1  0  0  0
 60135  1  0  0  0
 61136  1  0  0  0
 61137  1  0  0  0
 61138  1  0  0  0
 62139  1  0  0  0
 62140  1  0  0  0
 62141  1  0  0  0
 63 65  1  0  0  0
 63142  1  0  0  0
 63143  1  0  0  0
 63144  1  0  0  0
 64145  1  0  0  0
 65146  1  0  0  0
 68 84  1  0  0  0
 71 74  2  0  0  0
 71 75  1  0  0  0
 71147  1  0  0  0
 72 74  1  0  0  0
 72 76  2  0  0  0
 72148  1  0  0  0
 73 75  2  0  0  0
 73 76  1  0  0  0
 73 79  1  0  0  0
 74 84  1  0  0  0
 75 82  1  0  0  0
 76 83  1  0  0  0
 77 78  1  0  0  0
 77 79  1  0  0  0
 77149  1  0  0  0
 77150  1  0  0  0
 78 80  1  0  0  0
 78151  1  0  0  0
 78152  1  0  0  0
 79 81  1  0  0  0
 79153  1  0  0  0
 80 81  1  0  0  0
 80 85  1  0  0  0
 80154  1  0  0  0
 81 86  1  0  0  0
 81155  1  0  0  0
 82156  1  0  0  0
 82157  1  0  0  0
 82158  1  0  0  0
 83159  1  0  0  0
 83160  1  0  0  0
 83161  1  0  0  0
 84162  1  0  0  0
 84163  1  0  0  0
 85 87  1  0  0  0
 85164  1  0  0  0
 85165  1  0  0  0
 86166  1  0  0  0
 87167  1  0  0  0
M  ISO  4   1 100  68 101  84 101  86 100
M  END
> <chiral flag>
0

> <version>
0

> <s_m_source_file>
/data/baiqing/PycharmProjects/Reinvent-master-3.2/result/LINK_invent/BTK/process_docking_weight1_custom_sum_contain_oxygen_bond_distance_aromatic_linkinvent_7_9_3/rearranged_h_0157.sdf

> <i_m_source_file_index>
19

> <r_mmod_Potential_Energy-OPLS-2005>
529.471862792969

> <r_mmod_Stretch_Energy-OPLS-2005>
218.070022583008

> <r_mmod_Bend_Energy-OPLS-2005>
313.316131591797

> <r_mmod_Torsional_Energy-OPLS-2005>
288.934020996094

> <r_mmod_Improper_Torsional_Energy-OPLS-2005>
9.99678993225098

> <r_mmod_Van_der_Waal_Energy-OPLS-2005>
146.852996826172

> <r_mmod_Electrostatic_Energy-OPLS-2005>
-371.484436035156

> <r_mmod_Solvation_Energy-OPLS-2005>
-225.944320678711

> <b_mmod_Minimization_Converged-OPLS-2005>
0

> <r_mmod_RMS_Derivative-OPLS-2005>
2.94266414642334

$$$$
19
                    3D
 Structure written by MMmdl.
166175  0  0  1  0            999 V2000
  -30.6594  -14.6406   20.4917 C   0  0  0  0  0  0
  -30.4238  -12.3949   19.4553 C   0  0  0  0  0  0
  -29.5014  -12.5012   18.2230 C   0  0  0  0  0  0
  -28.0268  -12.3392   18.6391 C   0  0  0  0  0  0
  -27.6471  -13.2254   19.8561 C   0  0  2  0  0  0
  -28.6924  -13.1192   20.9881 C   0  0  0  0  0  0
  -25.2534  -13.8195   20.5690 C   0  0  0  0  0  0
  -24.1817  -13.0447   20.9199 C   0  0  0  0  0  0
  -24.6398  -11.6924   20.8748 C   0  0  0  0  0  0
  -23.9074  -10.4301   21.0410 C   0  0  0  0  0  0
  -24.3622   -9.4214   21.9190 C   0  0  0  0  0  0
  -23.6294   -8.2250   22.0761 C   0  0  0  0  0  0
  -22.4276   -8.0288   21.3547 C   0  0  0  0  0  0
  -21.9915   -9.0266   20.4650 C   0  0  0  0  0  0
  -22.7248  -10.2142   20.3061 C   0  0  0  0  0  0
  -21.6853   -6.0740   22.5280 C   0  0  0  0  0  0
  -21.4017   -6.5643   23.8214 C   0  0  0  0  0  0
  -21.3657   -5.6794   24.9177 C   0  0  0  0  0  0
  -21.6041   -4.3056   24.7227 C   0  0  0  0  0  0
  -21.8818   -3.8149   23.4347 C   0  0  0  0  0  0
  -21.9191   -4.6966   22.3402 C   0  0  0  0  0  0
  -22.7838  -13.5232   21.1853 C   0  0  0  0  0  0
  -22.1660   -4.2153   21.0978 F   0  0  0  0  0  0
  -21.5624   -3.4540   25.7740 F   0  0  0  0  0  0
  -30.0027  -13.4411   20.4093 N   0  0  0  0  0  0
  -26.2962  -12.9394   20.3303 N   0  0  0  0  0  0
  -25.9328  -11.6540   20.5765 N   0  0  0  0  0  0
  -22.0477  -12.8225   22.0407 N   0  0  0  0  0  0
  -25.4231  -15.1915   20.4089 N   0  0  0  0  0  0
  -31.8403  -14.7372   20.1504 O   0  0  0  0  0  0
  -21.6639   -6.8886   21.4245 O   0  0  0  0  0  0
  -22.3525  -14.5543   20.6706 O   0  0  0  0  0  0
  -24.6241  -31.8605   23.2022 C   0  0  0  0  0  0
  -25.9095  -32.4783   23.8352 C   0  0  1  0  0  0
  -27.2217  -27.3319   20.1213 C   0  0  0  0  0  0
  -25.5919  -33.8583   24.2280 N   0  0  0  0  0  0
  -23.4190  -30.4818   21.5448 C   0  0  2  0  0  0
  -24.8679  -28.9392   20.1094 C   0  0  0  0  0  0
  -22.7473  -29.4616   22.4942 C   0  0  0  0  0  0
  -18.0285  -28.1378   22.8489 C   0  0  0  0  0  0
  -24.1492  -36.7298   23.2640 C   0  0  0  0  0  0
  -25.9581  -30.7953   21.3718 C   0  0  0  0  0  0
  -26.0359  -29.4230   20.7154 C   0  0  0  0  0  0
  -27.2209  -28.6300   20.7127 C   0  0  0  0  0  0
  -26.0393  -26.8973   19.4883 C   0  0  0  0  0  0
  -24.8707  -27.6812   19.4853 C   0  0  0  0  0  0
  -23.6339  -29.8160   20.1599 C   0  0  0  0  0  0
  -25.4117  -36.3087   24.0329 C   0  0  1  0  0  0
  -20.5885  -28.3683   23.1289 C   0  0  2  0  0  0
  -20.6776  -26.9408   22.5415 C   0  0  0  0  0  0
  -19.5755  -26.6384   21.5213 C   0  0  0  0  0  0
  -18.1930  -26.7926   22.1617 C   0  0  0  0  0  0
  -19.1537  -28.8847   23.2884 C   0  0  0  0  0  0
  -18.9463  -30.1447   23.8902 C   0  0  0  0  0  0
  -17.6465  -30.6584   24.0559 C   0  0  0  0  0  0
  -25.9051  -34.9454   23.5105 C   0  0  0  0  0  0
  -16.5357  -29.9083   23.6324 C   0  0  0  0  0  0
  -16.7274  -28.6498   23.0355 C   0  0  0  0  0  0
  -26.4488  -31.6590   25.0715 C   0  0  0  0  0  0
  -25.3722  -31.3716   26.1438 C   0  0  0  0  0  0
  -27.0336  -30.3021   24.6156 C   0  0  0  0  0  0
  -27.6048  -32.4323   25.7488 C   0  0  0  0  0  0
  -27.5585  -37.1801   24.8463 C   0  0  0  0  0  0
  -21.4186  -29.3039   22.3689 N   0  0  0  0  0  0
  -26.4296  -37.3783   23.9408 N   0  0  0  0  0  0
  -24.6858  -31.0621   22.0968 N   0  0  0  0  0  0
  -23.4198  -28.8153   23.3018 O   0  0  0  0  0  0
  -28.3029  -26.4471   20.1555 O   0  0  0  0  0  0
  -26.5622  -34.8919   22.4673 O   0  0  0  0  0  0
  -23.5407  -32.1399   23.7352 O   0  0  0  0  0  0
  -30.5830  -22.3089   20.2436 C   0  0  0  0  0  0
  -29.8004  -21.1348   20.3612 C   0  0  0  0  0  0
  -28.4112  -21.2946   20.5607 C   0  0  0  0  0  0
  -30.0331  -23.6154   20.3659 C   0  0  0  0  0  0
  -27.8331  -22.6175   20.6251 C   0  0  0  0  0  0
  -28.6415  -23.8118   20.5774 C   0  0  0  0  0  0
  -30.4902  -19.7364   20.2918 C   0  0  0  0  0  0
  -27.5703  -20.0152   20.7127 C   0  0  0  0  0  0
  -28.3496  -18.7321   21.1372 C   0  0  0  0  0  0
  -29.6156  -18.4157   20.3032 C   0  0  1  0  0  0
  -30.9747  -24.8063   20.3087 C   0  0  0  0  0  0
  -26.3195  -22.7548   20.7685 C   0  0  0  0  0  0
  -29.2170  -18.0637   18.8560 C   0  0  0  0  0  0
  -28.0663  -25.2380   20.9694 C   0  0  0  0  0  0
  -30.4500  -17.1775   20.8896 C   0  0  0  0  0  0
  -29.9271  -15.7647   20.7794 N   0  0  0  0  0  0
  -31.4677  -12.4986   19.1543 H   0  0  0  0  0  0
  -30.3415  -11.4085   19.9146 H   0  0  0  0  0  0
  -29.7669  -11.7434   17.4845 H   0  0  0  0  0  0
  -29.6431  -13.4675   17.7359 H   0  0  0  0  0  0
  -27.8700  -11.2882   18.8852 H   0  0  0  0  0  0
  -27.3698  -12.5537   17.7956 H   0  0  0  0  0  0
  -27.6562  -14.2546   19.4966 H   0  0  0  0  0  0
  -28.7042  -12.1144   21.4122 H   0  0  0  0  0  0
  -28.4449  -13.7927   21.8100 H   0  0  0  0  0  0
  -25.2763   -9.5685   22.4770 H   0  0  0  0  0  0
  -23.9998   -7.4643   22.7484 H   0  0  0  0  0  0
  -21.0845   -8.8788   19.8955 H   0  0  0  0  0  0
  -22.3709  -10.9684   19.6173 H   0  0  0  0  0  0
  -21.2019   -7.6152   23.9718 H   0  0  0  0  0  0
  -21.1476   -6.0525   25.9077 H   0  0  0  0  0  0
  -22.0599   -2.7611   23.2846 H   0  0  0  0  0  0
  -22.4090  -11.9882   22.4792 H   0  0  0  0  0  0
  -21.1102  -13.1262   22.2621 H   0  0  0  0  0  0
  -24.6526  -15.8427   20.5117 H   0  0  0  0  0  0
  -26.2670  -15.6297   20.0637 H   0  0  0  0  0  0
  -26.7168  -32.5463   23.1108 H   0  0  0  0  0  0
  -25.0063  -33.9732   25.0423 H   0  0  0  0  0  0
  -22.7126  -31.3017   21.4010 H   0  0  0  0  0  0
  -23.3755  -35.9628   23.3293 H   0  0  0  0  0  0
  -24.3586  -36.8931   22.2056 H   0  0  0  0  0  0
  -23.7238  -37.6492   23.6674 H   0  0  0  0  0  0
  -26.0855  -31.5590   20.6032 H   0  0  0  0  0  0
  -26.8395  -30.8469   21.9993 H   0  0  0  0  0  0
  -28.1170  -28.9911   21.1986 H   0  0  0  0  0  0
  -26.0146  -25.9262   19.0137 H   0  0  0  0  0  0
  -23.9767  -27.3062   19.0057 H   0  0  0  0  0  0
  -23.7484  -30.5923   19.4024 H   0  0  0  0  0  0
  -22.7552  -29.2421   19.8591 H   0  0  0  0  0  0
  -25.1292  -36.1950   25.0821 H   0  0  0  0  0  0
  -20.9967  -28.3261   24.1412 H   0  0  0  0  0  0
  -20.5684  -26.2291   23.3609 H   0  0  0  0  0  0
  -21.6646  -26.7440   22.1210 H   0  0  0  0  0  0
  -19.6920  -25.6295   21.1247 H   0  0  0  0  0  0
  -19.6696  -27.3192   20.6739 H   0  0  0  0  0  0
  -17.4204  -26.6675   21.4016 H   0  0  0  0  0  0
  -18.0322  -26.0062   22.9003 H   0  0  0  0  0  0
  -19.7939  -30.7254   24.2285 H   0  0  0  0  0  0
  -17.5022  -31.6265   24.5158 H   0  0  0  0  0  0
  -15.5360  -30.2985   23.7644 H   0  0  0  0  0  0
  -15.8675  -28.0816   22.7075 H   0  0  0  0  0  0
  -24.5916  -30.7044   25.7765 H   0  0  0  0  0  0
  -24.8886  -32.2871   26.4851 H   0  0  0  0  0  0
  -25.8043  -30.8909   27.0223 H   0  0  0  0  0  0
  -26.2905  -29.6770   24.1189 H   0  0  0  0  0  0
  -27.4058  -29.7279   25.4650 H   0  0  0  0  0  0
  -27.8760  -30.4322   23.9358 H   0  0  0  0  0  0
  -27.2670  -33.3639   26.2047 H   0  0  0  0  0  0
  -28.3866  -32.6859   25.0314 H   0  0  0  0  0  0
  -28.0705  -31.8456   26.5420 H   0  0  0  0  0  0
  -28.2589  -38.0112   24.7528 H   0  0  0  0  0  0
  -28.1093  -36.2641   24.6267 H   0  0  0  0  0  0
  -27.2302  -37.1430   25.8866 H   0  0  0  0  0  0
  -20.9371  -29.8772   21.6903 H   0  0  0  0  0  0
  -26.0179  -38.2855   24.1416 H   0  0  0  0  0  0
  -31.6487  -22.1999   20.0942 H   0  0  0  0  0  0
  -31.1452  -19.7060   21.1636 H   0  0  0  0  0  0
  -31.1661  -19.7235   19.4351 H   0  0  0  0  0  0
  -27.0557  -19.8362   19.7682 H   0  0  0  0  0  0
  -26.7927  -20.1815   21.4583 H   0  0  0  0  0  0
  -27.6713  -17.8781   21.1285 H   0  0  0  0  0  0
  -28.6499  -18.8542   22.1786 H   0  0  0  0  0  0
  -32.0003  -24.4991   20.1026 H   0  0  0  0  0  0
  -30.9738  -25.3447   21.2568 H   0  0  0  0  0  0
  -30.6736  -25.4959   19.5196 H   0  0  0  0  0  0
  -25.7787  -21.8812   20.4081 H   0  0  0  0  0  0
  -25.9429  -23.5857   20.1719 H   0  0  0  0  0  0
  -26.0460  -22.9208   21.8108 H   0  0  0  0  0  0
  -28.7272  -18.8999   18.3566 H   0  0  0  0  0  0
  -28.5344  -17.2144   18.8207 H   0  0  0  0  0  0
  -30.0925  -17.8029   18.2603 H   0  0  0  0  0  0
  -28.5276  -25.4642   21.9312 H   0  0  0  0  0  0
  -27.0134  -25.1603   21.2307 H   0  0  0  0  0  0
  -30.6508  -17.3586   21.9463 H   0  0  0  0  0  0
  -31.4337  -17.2074   20.4173 H   0  0  0  0  0  0
  -28.9515  -15.6222   20.9920 H   0  0  0  0  0  0
  1 25  1  0  0  0
  1 30  2  0  0  0
  1 86  1  0  0  0
  2  3  1  0  0  0
  2 25  1  0  0  0
  2 87  1  0  0  0
  2 88  1  0  0  0
  3  4  1  0  0  0
  3 89  1  0  0  0
  3 90  1  0  0  0
  4  5  1  0  0  0
  4 91  1  0  0  0
  4 92  1  0  0  0
  5  6  1  0  0  0
  5 26  1  0  0  0
  5 93  1  0  0  0
  6 25  1  0  0  0
  6 94  1  0  0  0
  6 95  1  0  0  0
  7  8  2  0  0  0
  7 26  1  0  0  0
  7 29  1  0  0  0
  8  9  1  0  0  0
  8 22  1  0  0  0
  9 10  1  0  0  0
  9 27  2  0  0  0
 10 11  2  0  0  0
 10 15  1  0  0  0
 11 12  1  0  0  0
 11 96  1  0  0  0
 12 13  2  0  0  0
 12 97  1  0  0  0
 13 14  1  0  0  0
 13 31  1  0  0  0
 14 15  2  0  0  0
 14 98  1  0  0  0
 15 99  1  0  0  0
 16 17  2  0  0  0
 16 21  1  0  0  0
 16 31  1  0  0  0
 17 18  1  0  0  0
 17100  1  0  0  0
 18 19  2  0  0  0
 18101  1  0  0  0
 19 20  1  0  0  0
 19 24  1  0  0  0
 20 21  2  0  0  0
 20102  1  0  0  0
 21 23  1  0  0  0
 22 28  1  0  0  0
 22 32  2  0  0  0
 26 27  1  0  0  0
 28103  1  0  0  0
 28104  1  0  0  0
 29105  1  0  0  0
 29106  1  0  0  0
 33 34  1  0  0  0
 33 66  1  0  0  0
 33 70  2  0  0  0
 34 36  1  0  0  0
 34 59  1  0  0  0
 34107  1  0  0  0
 35 44  2  0  0  0
 35 45  1  0  0  0
 35 68  1  0  0  0
 36 56  1  0  0  0
 36108  1  0  0  0
 37 39  1  0  0  0
 37 47  1  0  0  0
 37 66  1  0  0  0
 37109  1  0  0  0
 38 43  2  0  0  0
 38 46  1  0  0  0
 38 47  1  0  0  0
 39 64  1  0  0  0
 39 67  2  0  0  0
 40 52  1  0  0  0
 40 53  2  0  0  0
 40 58  1  0  0  0
 41110  1  0  0  0
 41111  1  0  0  0
 41112  1  0  0  0
 41 48  1  0  0  0
 42 43  1  0  0  0
 42 66  1  0  0  0
 42113  1  0  0  0
 42114  1  0  0  0
 43 44  1  0  0  0
 44115  1  0  0  0
 45 46  2  0  0  0
 45116  1  0  0  0
 46117  1  0  0  0
 47118  1  0  0  0
 47119  1  0  0  0
 48 56  1  0  0  0
 48 65  1  0  0  0
 48120  1  0  0  0
 49 50  1  0  0  0
 49 53  1  0  0  0
 49 64  1  0  0  0
 49121  1  0  0  0
 50 51  1  0  0  0
 50122  1  0  0  0
 50123  1  0  0  0
 51 52  1  0  0  0
 51124  1  0  0  0
 51125  1  0  0  0
 52126  1  0  0  0
 52127  1  0  0  0
 53 54  1  0  0  0
 54 55  2  0  0  0
 54128  1  0  0  0
 55 57  1  0  0  0
 55129  1  0  0  0
 56 69  2  0  0  0
 57 58  2  0  0  0
 57130  1  0  0  0
 58131  1  0  0  0
 59 60  1  0  0  0
 59 61  1  0  0  0
 59 62  1  0  0  0
 60132  1  0  0  0
 60133  1  0  0  0
 60134  1  0  0  0
 61135  1  0  0  0
 61136  1  0  0  0
 61137  1  0  0  0
 62138  1  0  0  0
 62139  1  0  0  0
 62140  1  0  0  0
 63 65  1  0  0  0
 63141  1  0  0  0
 63142  1  0  0  0
 63143  1  0  0  0
 64144  1  0  0  0
 65145  1  0  0  0
 68 84  1  0  0  0
 71 72  2  0  0  0
 71 74  1  0  0  0
 71146  1  0  0  0
 72 73  1  0  0  0
 72 77  1  0  0  0
 73 75  2  0  0  0
 73 78  1  0  0  0
 74 76  2  0  0  0
 74 81  1  0  0  0
 75 76  1  0  0  0
 75 82  1  0  0  0
 76 84  1  0  0  0
 77 80  1  0  0  0
 77147  1  0  0  0
 77148  1  0  0  0
 78 79  1  0  0  0
 78149  1  0  0  0
 78150  1  0  0  0
 79 80  1  0  0  0
 79151  1  0  0  0
 79152  1  0  0  0
 80 83  1  0  0  0
 80 85  1  0  0  0
 81153  1  0  0  0
 81154  1  0  0  0
 81155  1  0  0  0
 82156  1  0  0  0
 82157  1  0  0  0
 82158  1  0  0  0
 83159  1  0  0  0
 83160  1  0  0  0
 83161  1  0  0  0
 84162  1  0  0  0
 84163  1  0  0  0
 85 86  1  0  0  0
 85164  1  0  0  0
 85165  1  0  0  0
 86166  1  0  0  0
M  ISO  4   1 100  68 101  84 101  86 100
M  END
> <chiral flag>
0

> <version>
0

> <s_m_source_file>
/data/baiqing/PycharmProjects/Reinvent-master-3.2/result/LINK_invent/BTK/process_docking_weight1_custom_sum_contain_oxygen_bond_distance_aromatic_linkinvent_7_9_3/rearranged_h_0157.sdf

> <i_m_source_file_index>
20

> <r_mmod_Potential_Energy-OPLS-2005>
79.4170684814453

> <r_mmod_Stretch_Energy-OPLS-2005>
84.0621337890625

> <r_mmod_Bend_Energy-OPLS-2005>
140.248840332031

> <r_mmod_Torsional_Energy-OPLS-2005>
259.015045166016

> <r_mmod_Improper_Torsional_Energy-OPLS-2005>
5.13617420196533

> <r_mmod_Van_der_Waal_Energy-OPLS-2005>
148.686492919922

> <r_mmod_Electrostatic_Energy-OPLS-2005>
-407.476684570312

> <r_mmod_Solvation_Energy-OPLS-2005>
-201.244934082031

> <b_mmod_Minimization_Converged-OPLS-2005>
0

> <r_mmod_RMS_Derivative-OPLS-2005>
0.733496785163879

$$$$
20
                    3D
 Structure written by MMmdl.
161170  0  0  1  0            999 V2000
  -30.5746  -14.7729   20.5290 C   0  0  0  0  0  0
  -30.4513  -12.5011   19.4528 C   0  0  0  0  0  0
  -29.5114  -12.5431   18.2245 C   0  0  0  0  0  0
  -28.0339  -12.3555   18.6312 C   0  0  0  0  0  0
  -27.6488  -13.2145   19.8642 C   0  0  2  0  0  0
  -28.7000  -13.0396   20.9786 C   0  0  0  0  0  0
  -25.2517  -13.8140   20.5621 C   0  0  0  0  0  0
  -24.1808  -13.0413   20.9166 C   0  0  0  0  0  0
  -24.6389  -11.6890   20.8731 C   0  0  0  0  0  0
  -23.9061  -10.4284   21.0400 C   0  0  0  0  0  0
  -24.3615   -9.4206   21.9183 C   0  0  0  0  0  0
  -23.6291   -8.2243   22.0758 C   0  0  0  0  0  0
  -22.4272   -8.0280   21.3548 C   0  0  0  0  0  0
  -21.9908   -9.0252   20.4646 C   0  0  0  0  0  0
  -22.7235  -10.2132   20.3055 C   0  0  0  0  0  0
  -21.6854   -6.0736   22.5282 C   0  0  0  0  0  0
  -21.4016   -6.5637   23.8215 C   0  0  0  0  0  0
  -21.3652   -5.6788   24.9174 C   0  0  0  0  0  0
  -21.6043   -4.3052   24.7224 C   0  0  0  0  0  0
  -21.8820   -3.8147   23.4344 C   0  0  0  0  0  0
  -21.9196   -4.6966   22.3402 C   0  0  0  0  0  0
  -22.7834  -13.5218   21.1826 C   0  0  0  0  0  0
  -22.1663   -4.2149   21.0980 F   0  0  0  0  0  0
  -21.5623   -3.4539   25.7734 F   0  0  0  0  0  0
  -29.9772  -13.5211   20.4263 N   0  0  0  0  0  0
  -26.2966  -12.9323   20.3314 N   0  0  0  0  0  0
  -25.9320  -11.6480   20.5762 N   0  0  0  0  0  0
  -22.0488  -12.8227   22.0397 N   0  0  0  0  0  0
  -25.4152  -15.1856   20.3913 N   0  0  0  0  0  0
  -31.7382  -14.8868   20.1210 O   0  0  0  0  0  0
  -21.6640   -6.8880   21.4243 O   0  0  0  0  0  0
  -22.3527  -14.5533   20.6678 O   0  0  0  0  0  0
  -24.6316  -31.8539   23.1950 C   0  0  0  0  0  0
  -25.9136  -32.4753   23.8302 C   0  0  1  0  0  0
  -27.2275  -27.2662   20.1329 C   0  0  0  0  0  0
  -25.5926  -33.8547   24.2239 N   0  0  0  0  0  0
  -23.4278  -30.4715   21.5410 C   0  0  2  0  0  0
  -24.8745  -28.9080   20.1176 C   0  0  0  0  0  0
  -22.7511  -29.4572   22.4945 C   0  0  0  0  0  0
  -18.0296  -28.1373   22.8483 C   0  0  0  0  0  0
  -24.1495  -36.7271   23.2642 C   0  0  0  0  0  0
  -25.9711  -30.7682   21.3717 C   0  0  0  0  0  0
  -26.0464  -29.3877   20.7183 C   0  0  0  0  0  0
  -27.2286  -28.5811   20.7079 C   0  0  0  0  0  0
  -26.0319  -26.8386   19.5220 C   0  0  0  0  0  0
  -24.8701  -27.6397   19.5114 C   0  0  0  0  0  0
  -23.6459  -29.7974   20.1600 C   0  0  0  0  0  0
  -25.4120  -36.3061   24.0327 C   0  0  1  0  0  0
  -20.5903  -28.3673   23.1286 C   0  0  2  0  0  0
  -20.6792  -26.9391   22.5422 C   0  0  0  0  0  0
  -19.5765  -26.6372   21.5227 C   0  0  0  0  0  0
  -18.1939  -26.7913   22.1628 C   0  0  0  0  0  0
  -19.1553  -28.8844   23.2869 C   0  0  0  0  0  0
  -18.9470  -30.1448   23.8880 C   0  0  0  0  0  0
  -17.6471  -30.6581   24.0553 C   0  0  0  0  0  0
  -25.9059  -34.9436   23.5090 C   0  0  0  0  0  0
  -16.5362  -29.9070   23.6329 C   0  0  0  0  0  0
  -16.7286  -28.6490   23.0347 C   0  0  0  0  0  0
  -26.4500  -31.6583   25.0700 C   0  0  0  0  0  0
  -25.3699  -31.3754   26.1412 C   0  0  0  0  0  0
  -27.0345  -30.3002   24.6169 C   0  0  0  0  0  0
  -27.6041  -32.4335   25.7480 C   0  0  0  0  0  0
  -27.5588  -37.1794   24.8472 C   0  0  0  0  0  0
  -21.4222  -29.3011   22.3687 N   0  0  0  0  0  0
  -26.4299  -37.3764   23.9414 N   0  0  0  0  0  0
  -24.6961  -31.0494   22.0928 N   0  0  0  0  0  0
  -23.4210  -28.8132   23.3059 O   0  0  0  0  0  0
  -28.3481  -26.4127   20.1080 O   0  0  0  0  0  0
  -26.5642  -34.8917   22.4666 O   0  0  0  0  0  0
  -23.5473  -32.1360   23.7260 O   0  0  0  0  0  0
  -28.6720  -21.0129   19.7267 C   0  0  0  0  0  0
  -30.0108  -22.2240   21.3413 C   0  0  0  0  0  0
  -29.2389  -19.7662   20.1931 C   0  0  0  0  0  0
  -30.1919  -19.7657   21.2057 C   0  0  0  0  0  0
  -29.0609  -22.2928   20.2876 C   0  0  0  0  0  0
  -30.5606  -20.9974   21.8174 C   0  0  0  0  0  0
  -28.9879  -18.2996   19.7397 C   0  0  0  0  0  0
  -30.7383  -18.3470   21.4786 C   0  0  0  0  0  0
  -30.1295  -17.3867   20.3880 C   0  0  1  0  0  0
  -28.8028  -15.9516   21.8725 C   0  0  0  0  0  0
  -31.2367  -20.2321   23.9596 C   0  0  0  0  0  0
  -28.6153  -23.7148   19.6934 C   0  0  0  0  0  0
  -28.2599  -25.0005   20.6145 C   0  0  0  0  0  0
  -29.8141  -15.9322   20.8056 N   0  0  0  0  0  0
  -31.4707  -21.0823   22.8429 O   0  0  0  0  0  0
  -31.4799  -12.6764   19.1329 H   0  0  0  0  0  0
  -30.4598  -11.5075   19.9020 H   0  0  0  0  0  0
  -29.8013  -11.7821   17.4987 H   0  0  0  0  0  0
  -29.6254  -13.5031   17.7187 H   0  0  0  0  0  0
  -27.8802  -11.2995   18.8546 H   0  0  0  0  0  0
  -27.3796  -12.5863   17.7897 H   0  0  0  0  0  0
  -27.6685  -14.2534   19.5360 H   0  0  0  0  0  0
  -28.7770  -11.9845   21.2444 H   0  0  0  0  0  0
  -28.4115  -13.5036   21.9147 H   0  0  0  0  0  0
  -25.2775   -9.5680   22.4743 H   0  0  0  0  0  0
  -23.9998   -7.4642   22.7487 H   0  0  0  0  0  0
  -21.0838   -8.8774   19.8957 H   0  0  0  0  0  0
  -22.3704  -10.9663   19.6153 H   0  0  0  0  0  0
  -21.2013   -7.6149   23.9715 H   0  0  0  0  0  0
  -21.1465   -6.0520   25.9074 H   0  0  0  0  0  0
  -22.0606   -2.7610   23.2846 H   0  0  0  0  0  0
  -22.4107  -11.9885   22.4780 H   0  0  0  0  0  0
  -21.1114  -13.1255   22.2615 H   0  0  0  0  0  0
  -24.6423  -15.8343   20.4912 H   0  0  0  0  0  0
  -26.2597  -15.6251   20.0489 H   0  0  0  0  0  0
  -26.7195  -32.5407   23.1034 H   0  0  0  0  0  0
  -25.0067  -33.9665   25.0382 H   0  0  0  0  0  0
  -22.7225  -31.2919   21.3919 H   0  0  0  0  0  0
  -23.3767  -35.9598   23.3303 H   0  0  0  0  0  0
  -24.3588  -36.8894   22.2060 H   0  0  0  0  0  0
  -23.7235  -37.6462   23.6665 H   0  0  0  0  0  0
  -26.1044  -31.5261   20.5991 H   0  0  0  0  0  0
  -26.8503  -30.8229   22.0019 H   0  0  0  0  0  0
  -28.1336  -28.9472   21.1743 H   0  0  0  0  0  0
  -25.9928  -25.8653   19.0527 H   0  0  0  0  0  0
  -23.9710  -27.2621   19.0435 H   0  0  0  0  0  0
  -23.7712  -30.5691   19.3998 H   0  0  0  0  0  0
  -22.7646  -29.2278   19.8601 H   0  0  0  0  0  0
  -25.1303  -36.1907   25.0820 H   0  0  0  0  0  0
  -20.9980  -28.3246   24.1416 H   0  0  0  0  0  0
  -20.5726  -26.2266   23.3621 H   0  0  0  0  0  0
  -21.6652  -26.7442   22.1190 H   0  0  0  0  0  0
  -19.6926  -25.6284   21.1246 H   0  0  0  0  0  0
  -19.6704  -27.3195   20.6764 H   0  0  0  0  0  0
  -17.4218  -26.6673   21.4020 H   0  0  0  0  0  0
  -18.0313  -26.0059   22.9020 H   0  0  0  0  0  0
  -19.7952  -30.7264   24.2247 H   0  0  0  0  0  0
  -17.5026  -31.6264   24.5151 H   0  0  0  0  0  0
  -15.5360  -30.2965   23.7664 H   0  0  0  0  0  0
  -15.8686  -28.0811   22.7059 H   0  0  0  0  0  0
  -24.5880  -30.7092   25.7745 H   0  0  0  0  0  0
  -24.8878  -32.2936   26.4774 H   0  0  0  0  0  0
  -25.7994  -30.8975   27.0224 H   0  0  0  0  0  0
  -26.2922  -29.6753   24.1188 H   0  0  0  0  0  0
  -27.4037  -29.7258   25.4671 H   0  0  0  0  0  0
  -27.8788  -30.4290   23.9396 H   0  0  0  0  0  0
  -27.2634  -33.3655   26.2000 H   0  0  0  0  0  0
  -28.3872  -32.6872   25.0324 H   0  0  0  0  0  0
  -28.0671  -31.8492   26.5437 H   0  0  0  0  0  0
  -28.2601  -38.0099   24.7527 H   0  0  0  0  0  0
  -28.1086  -36.2624   24.6289 H   0  0  0  0  0  0
  -27.2302  -37.1431   25.8876 H   0  0  0  0  0  0
  -20.9430  -29.8691   21.6847 H   0  0  0  0  0  0
  -26.0178  -38.2836   24.1417 H   0  0  0  0  0  0
  -27.9618  -20.9895   18.9106 H   0  0  0  0  0  0
  -30.3554  -23.1431   21.7929 H   0  0  0  0  0  0
  -28.9874  -18.2237   18.6521 H   0  0  0  0  0  0
  -27.9977  -18.0001   20.0851 H   0  0  0  0  0  0
  -30.4604  -18.0407   22.4853 H   0  0  0  0  0  0
  -31.8280  -18.3530   21.4309 H   0  0  0  0  0  0
  -30.8945  -17.3201   19.6125 H   0  0  0  0  0  0
  -28.5723  -16.9508   22.2399 H   0  0  0  0  0  0
  -29.1378  -15.3832   22.7415 H   0  0  0  0  0  0
  -27.8517  -15.5612   21.5216 H   0  0  0  0  0  0
  -30.1820  -19.9763   24.0793 H   0  0  0  0  0  0
  -31.5490  -20.7408   24.8714 H   0  0  0  0  0  0
  -31.8190  -19.3144   23.8814 H   0  0  0  0  0  0
  -27.7736  -23.5465   19.0211 H   0  0  0  0  0  0
  -29.4380  -24.0114   19.0424 H   0  0  0  0  0  0
  -28.9727  -24.9947   21.4384 H   0  0  0  0  0  0
  -27.2932  -24.8368   21.0928 H   0  0  0  0  0  0
  1 25  1  0  0  0
  1 30  2  0  0  0
  1 84  1  0  0  0
  2  3  1  0  0  0
  2 25  1  0  0  0
  2 86  1  0  0  0
  2 87  1  0  0  0
  3  4  1  0  0  0
  3 88  1  0  0  0
  3 89  1  0  0  0
  4  5  1  0  0  0
  4 90  1  0  0  0
  4 91  1  0  0  0
  5  6  1  0  0  0
  5 26  1  0  0  0
  5 92  1  0  0  0
  6 25  1  0  0  0
  6 93  1  0  0  0
  6 94  1  0  0  0
  7  8  2  0  0  0
  7 26  1  0  0  0
  7 29  1  0  0  0
  8  9  1  0  0  0
  8 22  1  0  0  0
  9 10  1  0  0  0
  9 27  2  0  0  0
 10 11  2  0  0  0
 10 15  1  0  0  0
 11 12  1  0  0  0
 11 95  1  0  0  0
 12 13  2  0  0  0
 12 96  1  0  0  0
 13 14  1  0  0  0
 13 31  1  0  0  0
 14 15  2  0  0  0
 14 97  1  0  0  0
 15 98  1  0  0  0
 16 17  2  0  0  0
 16 21  1  0  0  0
 16 31  1  0  0  0
 17 18  1  0  0  0
 17 99  1  0  0  0
 18 19  2  0  0  0
 18100  1  0  0  0
 19 20  1  0  0  0
 19 24  1  0  0  0
 20 21  2  0  0  0
 20101  1  0  0  0
 21 23  1  0  0  0
 22 28  1  0  0  0
 22 32  2  0  0  0
 26 27  1  0  0  0
 28102  1  0  0  0
 28103  1  0  0  0
 29104  1  0  0  0
 29105  1  0  0  0
 33 34  1  0  0  0
 33 66  1  0  0  0
 33 70  2  0  0  0
 34 36  1  0  0  0
 34 59  1  0  0  0
 34106  1  0  0  0
 35 44  2  0  0  0
 35 45  1  0  0  0
 35 68  1  0  0  0
 36 56  1  0  0  0
 36107  1  0  0  0
 37 39  1  0  0  0
 37 47  1  0  0  0
 37 66  1  0  0  0
 37108  1  0  0  0
 38 43  2  0  0  0
 38 46  1  0  0  0
 38 47  1  0  0  0
 39 64  1  0  0  0
 39 67  2  0  0  0
 40 52  1  0  0  0
 40 53  2  0  0  0
 40 58  1  0  0  0
 41109  1  0  0  0
 41110  1  0  0  0
 41111  1  0  0  0
 41 48  1  0  0  0
 42 43  1  0  0  0
 42 66  1  0  0  0
 42112  1  0  0  0
 42113  1  0  0  0
 43 44  1  0  0  0
 44114  1  0  0  0
 45 46  2  0  0  0
 45115  1  0  0  0
 46116  1  0  0  0
 47117  1  0  0  0
 47118  1  0  0  0
 48 56  1  0  0  0
 48 65  1  0  0  0
 48119  1  0  0  0
 49 50  1  0  0  0
 49 53  1  0  0  0
 49 64  1  0  0  0
 49120  1  0  0  0
 50 51  1  0  0  0
 50121  1  0  0  0
 50122  1  0  0  0
 51 52  1  0  0  0
 51123  1  0  0  0
 51124  1  0  0  0
 52125  1  0  0  0
 52126  1  0  0  0
 53 54  1  0  0  0
 54 55  2  0  0  0
 54127  1  0  0  0
 55 57  1  0  0  0
 55128  1  0  0  0
 56 69  2  0  0  0
 57 58  2  0  0  0
 57129  1  0  0  0
 58130  1  0  0  0
 59 60  1  0  0  0
 59 61  1  0  0  0
 59 62  1  0  0  0
 60131  1  0  0  0
 60132  1  0  0  0
 60133  1  0  0  0
 61134  1  0  0  0
 61135  1  0  0  0
 61136  1  0  0  0
 62137  1  0  0  0
 62138  1  0  0  0
 62139  1  0  0  0
 63 65  1  0  0  0
 63140  1  0  0  0
 63141  1  0  0  0
 63142  1  0  0  0
 64143  1  0  0  0
 65144  1  0  0  0
 68 83  1  0  0  0
 71 73  2  0  0  0
 71 75  1  0  0  0
 71145  1  0  0  0
 72 75  2  0  0  0
 72 76  1  0  0  0
 72146  1  0  0  0
 73 74  1  0  0  0
 73 77  1  0  0  0
 74 76  2  0  0  0
 74 78  1  0  0  0
 75 82  1  0  0  0
 76 85  1  0  0  0
 77 79  1  0  0  0
 77147  1  0  0  0
 77148  1  0  0  0
 78 79  1  0  0  0
 78149  1  0  0  0
 78150  1  0  0  0
 79 84  1  0  0  0
 79151  1  0  0  0
 80 84  1  0  0  0
 80152  1  0  0  0
 80153  1  0  0  0
 80154  1  0  0  0
 81 85  1  0  0  0
 81155  1  0  0  0
 81156  1  0  0  0
 81157  1  0  0  0
 82 83  1  0  0  0
 82158  1  0  0  0
 82159  1  0  0  0
 83160  1  0  0  0
 83161  1  0  0  0
M  ISO  4   1 100  68 101  83 101  84 100
M  END
> <chiral flag>
0

> <version>
0

> <s_m_source_file>
/data/baiqing/PycharmProjects/Reinvent-master-3.2/result/LINK_invent/BTK/process_docking_weight1_custom_sum_contain_oxygen_bond_distance_aromatic_linkinvent_7_9_3/rearranged_h_0157.sdf

> <i_m_source_file_index>
21

> <r_mmod_Potential_Energy-OPLS-2005>
398.120300292969

> <r_mmod_Stretch_Energy-OPLS-2005>
129.989822387695

> <r_mmod_Bend_Energy-OPLS-2005>
223.515533447266

> <r_mmod_Torsional_Energy-OPLS-2005>
321.8388671875

> <r_mmod_Improper_Torsional_Energy-OPLS-2005>
8.28802585601807

> <r_mmod_Van_der_Waal_Energy-OPLS-2005>
144.133071899414

> <r_mmod_Electrostatic_Energy-OPLS-2005>
-306.308746337891

> <r_mmod_Solvation_Energy-OPLS-2005>
-203.742874145508

> <b_mmod_Minimization_Converged-OPLS-2005>
0

> <r_mmod_RMS_Derivative-OPLS-2005>
1.54206383228302

$$$$
21
                    3D
 Structure written by MMmdl.
168177  0  0  1  0            999 V2000
  -30.6459  -14.6630   20.4941 C   0  0  0  0  0  0
  -30.4275  -12.4133   19.4479 C   0  0  0  0  0  0
  -29.4993  -12.5003   18.2182 C   0  0  0  0  0  0
  -28.0256  -12.3344   18.6376 C   0  0  0  0  0  0
  -27.6440  -13.2237   19.8518 C   0  0  2  0  0  0
  -28.6915  -13.1223   20.9809 C   0  0  0  0  0  0
  -25.2525  -13.8185   20.5692 C   0  0  0  0  0  0
  -24.1807  -13.0438   20.9202 C   0  0  0  0  0  0
  -24.6385  -11.6911   20.8746 C   0  0  0  0  0  0
  -23.9057  -10.4294   21.0408 C   0  0  0  0  0  0
  -24.3612   -9.4209   21.9183 C   0  0  0  0  0  0
  -23.6291   -8.2243   22.0753 C   0  0  0  0  0  0
  -22.4273   -8.0280   21.3544 C   0  0  0  0  0  0
  -21.9908   -9.0249   20.4643 C   0  0  0  0  0  0
  -22.7232  -10.2131   20.3054 C   0  0  0  0  0  0
  -21.6852   -6.0734   22.5279 C   0  0  0  0  0  0
  -21.4013   -6.5636   23.8212 C   0  0  0  0  0  0
  -21.3658   -5.6792   24.9176 C   0  0  0  0  0  0
  -21.6046   -4.3058   24.7228 C   0  0  0  0  0  0
  -21.8818   -3.8145   23.4349 C   0  0  0  0  0  0
  -21.9191   -4.6961   22.3404 C   0  0  0  0  0  0
  -22.7829  -13.5225   21.1869 C   0  0  0  0  0  0
  -22.1662   -4.2146   21.0984 F   0  0  0  0  0  0
  -21.5628   -3.4544   25.7740 F   0  0  0  0  0  0
  -29.9957  -13.4596   20.3967 N   0  0  0  0  0  0
  -26.2947  -12.9377   20.3292 N   0  0  0  0  0  0
  -25.9312  -11.6525   20.5747 N   0  0  0  0  0  0
  -22.0480  -12.8209   22.0423 N   0  0  0  0  0  0
  -25.4222  -15.1909   20.4109 N   0  0  0  0  0  0
  -31.8330  -14.7627   20.1753 O   0  0  0  0  0  0
  -21.6642   -6.8875   21.4239 O   0  0  0  0  0  0
  -22.3517  -14.5537   20.6725 O   0  0  0  0  0  0
  -24.6275  -31.8587   23.2010 C   0  0  0  0  0  0
  -25.9118  -32.4773   23.8339 C   0  0  1  0  0  0
  -27.2234  -27.3010   20.1030 C   0  0  0  0  0  0
  -25.5933  -33.8574   24.2262 N   0  0  0  0  0  0
  -23.4206  -30.4832   21.5441 C   0  0  2  0  0  0
  -24.8652  -28.9367   20.1096 C   0  0  0  0  0  0
  -22.7477  -29.4622   22.4927 C   0  0  0  0  0  0
  -18.0284  -28.1387   22.8488 C   0  0  0  0  0  0
  -24.1484  -36.7285   23.2639 C   0  0  0  0  0  0
  -25.9637  -30.7824   21.3749 C   0  0  0  0  0  0
  -26.0349  -29.4085   20.7157 C   0  0  0  0  0  0
  -27.2118  -28.6004   20.7071 C   0  0  0  0  0  0
  -26.0172  -26.8783   19.4941 C   0  0  0  0  0  0
  -24.8592  -27.6772   19.4944 C   0  0  0  0  0  0
  -23.6350  -29.8190   20.1590 C   0  0  0  0  0  0
  -25.4110  -36.3074   24.0325 C   0  0  1  0  0  0
  -20.5888  -28.3691   23.1284 C   0  0  2  0  0  0
  -20.6774  -26.9413   22.5414 C   0  0  0  0  0  0
  -19.5749  -26.6384   21.5216 C   0  0  0  0  0  0
  -18.1927  -26.7933   22.1621 C   0  0  0  0  0  0
  -19.1540  -28.8856   23.2880 C   0  0  0  0  0  0
  -18.9467  -30.1462   23.8895 C   0  0  0  0  0  0
  -17.6468  -30.6594   24.0567 C   0  0  0  0  0  0
  -25.9055  -34.9450   23.5094 C   0  0  0  0  0  0
  -16.5360  -29.9090   23.6339 C   0  0  0  0  0  0
  -16.7274  -28.6509   23.0355 C   0  0  0  0  0  0
  -26.4493  -31.6593   25.0722 C   0  0  0  0  0  0
  -25.3718  -31.3752   26.1447 C   0  0  0  0  0  0
  -27.0344  -30.3015   24.6190 C   0  0  0  0  0  0
  -27.6036  -32.4347   25.7502 C   0  0  0  0  0  0
  -27.5573  -37.1798   24.8466 C   0  0  0  0  0  0
  -21.4186  -29.3050   22.3682 N   0  0  0  0  0  0
  -26.4283  -37.3772   23.9411 N   0  0  0  0  0  0
  -24.6896  -31.0584   22.0965 N   0  0  0  0  0  0
  -23.4199  -28.8151   23.3004 O   0  0  0  0  0  0
  -28.3574  -26.4675   20.1718 O   0  0  0  0  0  0
  -26.5619  -34.8922   22.4659 O   0  0  0  0  0  0
  -23.5437  -32.1398   23.7328 O   0  0  0  0  0  0
  -30.7376  -19.0221   19.5136 C   0  0  0  0  0  0
  -28.8773  -20.7854   20.6953 C   0  0  0  0  0  0
  -29.6739  -21.2613   19.6211 C   0  0  0  0  0  0
  -29.9745  -18.5140   20.5868 C   0  0  0  0  0  0
  -29.0113  -19.4176   21.1586 C   0  0  0  0  0  0
  -30.6114  -20.3572   19.0370 C   0  0  0  0  0  0
  -27.9450  -21.8052   21.4000 C   0  0  0  0  0  0
  -29.4779  -22.7176   19.0713 C   0  0  2  0  0  0
  -28.8276  -23.7657   20.0679 C   0  0  1  0  0  0
  -28.1376  -18.9377   22.3111 C   0  0  0  0  0  0
  -28.7011  -22.6381   17.7352 C   0  0  0  0  0  0
  -32.7841  -20.2582   17.8714 C   0  0  0  0  0  0
  -30.4251  -17.1312   21.2179 C   0  0  0  0  0  0
  -28.4894  -25.2023   19.4027 C   0  0  0  0  0  0
  -31.4337  -20.7973   17.9878 N   0  0  0  0  0  0
  -29.9039  -15.7813   20.7924 N   0  0  0  0  0  0
  -27.6514  -23.0790   20.6684 N   0  3  0  0  0  0
  -31.4684  -12.5318   19.1424 H   0  0  0  0  0  0
  -30.3611  -11.4286   19.9129 H   0  0  0  0  0  0
  -29.7679  -11.7360   17.4875 H   0  0  0  0  0  0
  -29.6340  -13.4615   17.7188 H   0  0  0  0  0  0
  -27.8738  -11.2837   18.8884 H   0  0  0  0  0  0
  -27.3658  -12.5427   17.7943 H   0  0  0  0  0  0
  -27.6495  -14.2514   19.4887 H   0  0  0  0  0  0
  -28.7136  -12.1157   21.4007 H   0  0  0  0  0  0
  -28.4390  -13.7892   21.8068 H   0  0  0  0  0  0
  -25.2756   -9.5689   22.4758 H   0  0  0  0  0  0
  -24.0002   -7.4638   22.7474 H   0  0  0  0  0  0
  -21.0841   -8.8762   19.8949 H   0  0  0  0  0  0
  -22.3687  -10.9668   19.6164 H   0  0  0  0  0  0
  -21.2005   -7.6143   23.9714 H   0  0  0  0  0  0
  -21.1481   -6.0525   25.9079 H   0  0  0  0  0  0
  -22.0596   -2.7605   23.2856 H   0  0  0  0  0  0
  -22.4103  -11.9865   22.4798 H   0  0  0  0  0  0
  -21.1093  -13.1219   22.2636 H   0  0  0  0  0  0
  -24.6507  -15.8406   20.5163 H   0  0  0  0  0  0
  -26.2649  -15.6320   20.0656 H   0  0  0  0  0  0
  -26.7183  -32.5424   23.1077 H   0  0  0  0  0  0
  -25.0090  -33.9724   25.0413 H   0  0  0  0  0  0
  -22.7150  -31.3041   21.4001 H   0  0  0  0  0  0
  -23.3748  -35.9615   23.3305 H   0  0  0  0  0  0
  -24.3560  -36.8907   22.2052 H   0  0  0  0  0  0
  -23.7246  -37.6487   23.6667 H   0  0  0  0  0  0
  -26.0971  -31.5446   20.6062 H   0  0  0  0  0  0
  -26.8440  -30.8300   22.0045 H   0  0  0  0  0  0
  -28.1083  -28.9590   21.1932 H   0  0  0  0  0  0
  -25.9047  -25.9090   19.0381 H   0  0  0  0  0  0
  -23.9568  -27.3043   19.0298 H   0  0  0  0  0  0
  -23.7542  -30.5956   19.4029 H   0  0  0  0  0  0
  -22.7540  -29.2500   19.8557 H   0  0  0  0  0  0
  -25.1290  -36.1913   25.0817 H   0  0  0  0  0  0
  -20.9977  -28.3266   24.1404 H   0  0  0  0  0  0
  -20.5678  -26.2296   23.3611 H   0  0  0  0  0  0
  -21.6641  -26.7444   22.1202 H   0  0  0  0  0  0
  -19.6910  -25.6290   21.1251 H   0  0  0  0  0  0
  -19.6694  -27.3192   20.6745 H   0  0  0  0  0  0
  -17.4198  -26.6696   21.4022 H   0  0  0  0  0  0
  -18.0316  -26.0068   22.9011 H   0  0  0  0  0  0
  -19.7944  -30.7283   24.2256 H   0  0  0  0  0  0
  -17.5024  -31.6274   24.5163 H   0  0  0  0  0  0
  -15.5363  -30.2996   23.7669 H   0  0  0  0  0  0
  -15.8666  -28.0840   22.7066 H   0  0  0  0  0  0
  -24.5895  -30.7090   25.7791 H   0  0  0  0  0  0
  -24.8905  -32.2929   26.4840 H   0  0  0  0  0  0
  -25.8033  -30.8964   27.0245 H   0  0  0  0  0  0
  -26.2930  -29.6769   24.1192 H   0  0  0  0  0  0
  -27.4019  -29.7267   25.4701 H   0  0  0  0  0  0
  -27.8800  -30.4304   23.9431 H   0  0  0  0  0  0
  -27.2625  -33.3653   26.2051 H   0  0  0  0  0  0
  -28.3859  -32.6907   25.0346 H   0  0  0  0  0  0
  -28.0682  -31.8497   26.5450 H   0  0  0  0  0  0
  -28.2591  -38.0094   24.7503 H   0  0  0  0  0  0
  -28.1074  -36.2626   24.6303 H   0  0  0  0  0  0
  -27.2291  -37.1456   25.8870 H   0  0  0  0  0  0
  -20.9355  -29.8791   21.6911 H   0  0  0  0  0  0
  -26.0162  -38.2844   24.1415 H   0  0  0  0  0  0
  -31.4774  -18.3643   19.0800 H   0  0  0  0  0  0
  -28.3996  -22.0586   22.3585 H   0  0  0  0  0  0
  -26.9870  -21.3397   21.6281 H   0  0  0  0  0  0
  -30.4716  -23.1064   18.8442 H   0  0  0  0  0  0
  -29.5434  -23.9442   20.8716 H   0  0  0  0  0  0
  -27.0886  -19.1636   22.1220 H   0  0  0  0  0  0
  -28.4332  -19.4156   23.2455 H   0  0  0  0  0  0
  -28.1821  -17.8594   22.4554 H   0  0  0  0  0  0
  -27.6796  -22.2874   17.8805 H   0  0  0  0  0  0
  -29.1716  -21.9447   17.0387 H   0  0  0  0  0  0
  -28.6582  -23.5955   17.2173 H   0  0  0  0  0  0
  -33.4017  -20.9216   17.2647 H   0  0  0  0  0  0
  -32.7790  -19.2786   17.3912 H   0  0  0  0  0  0
  -33.2614  -20.1639   18.8485 H   0  0  0  0  0  0
  -30.2850  -17.1906   22.2967 H   0  0  0  0  0  0
  -31.5121  -17.1085   21.1215 H   0  0  0  0  0  0
  -27.7026  -25.0758   18.6671 H   0  0  0  0  0  0
  -29.3532  -25.4248   18.7762 H   0  0  0  0  0  0
  -31.3058  -21.7556   17.6749 H   0  0  0  0  0  0
  -28.9166  -15.6288   20.9275 H   0  0  0  0  0  0
  -27.1911  -23.7015   21.3147 H   0  0  0  0  0  0
  -26.9887  -22.8607   19.9423 H   0  0  0  0  0  0
  1 25  1  0  0  0
  1 30  2  0  0  0
  1 86  1  0  0  0
  2  3  1  0  0  0
  2 25  1  0  0  0
  2 88  1  0  0  0
  2 89  1  0  0  0
  3  4  1  0  0  0
  3 90  1  0  0  0
  3 91  1  0  0  0
  4  5  1  0  0  0
  4 92  1  0  0  0
  4 93  1  0  0  0
  5  6  1  0  0  0
  5 26  1  0  0  0
  5 94  1  0  0  0
  6 25  1  0  0  0
  6 95  1  0  0  0
  6 96  1  0  0  0
  7  8  2  0  0  0
  7 26  1  0  0  0
  7 29  1  0  0  0
  8  9  1  0  0  0
  8 22  1  0  0  0
  9 10  1  0  0  0
  9 27  2  0  0  0
 10 11  2  0  0  0
 10 15  1  0  0  0
 11 12  1  0  0  0
 11 97  1  0  0  0
 12 13  2  0  0  0
 12 98  1  0  0  0
 13 14  1  0  0  0
 13 31  1  0  0  0
 14 15  2  0  0  0
 14 99  1  0  0  0
 15100  1  0  0  0
 16 17  2  0  0  0
 16 21  1  0  0  0
 16 31  1  0  0  0
 17 18  1  0  0  0
 17101  1  0  0  0
 18 19  2  0  0  0
 18102  1  0  0  0
 19 20  1  0  0  0
 19 24  1  0  0  0
 20 21  2  0  0  0
 20103  1  0  0  0
 21 23  1  0  0  0
 22 28  1  0  0  0
 22 32  2  0  0  0
 26 27  1  0  0  0
 28104  1  0  0  0
 28105  1  0  0  0
 29106  1  0  0  0
 29107  1  0  0  0
 33 34  1  0  0  0
 33 66  1  0  0  0
 33 70  2  0  0  0
 34 36  1  0  0  0
 34 59  1  0  0  0
 34108  1  0  0  0
 35 44  2  0  0  0
 35 45  1  0  0  0
 35 68  1  0  0  0
 36 56  1  0  0  0
 36109  1  0  0  0
 37 39  1  0  0  0
 37 47  1  0  0  0
 37 66  1  0  0  0
 37110  1  0  0  0
 38 43  2  0  0  0
 38 46  1  0  0  0
 38 47  1  0  0  0
 39 64  1  0  0  0
 39 67  2  0  0  0
 40 52  1  0  0  0
 40 53  2  0  0  0
 40 58  1  0  0  0
 41111  1  0  0  0
 41112  1  0  0  0
 41113  1  0  0  0
 41 48  1  0  0  0
 42 43  1  0  0  0
 42 66  1  0  0  0
 42114  1  0  0  0
 42115  1  0  0  0
 43 44  1  0  0  0
 44116  1  0  0  0
 45 46  2  0  0  0
 45117  1  0  0  0
 46118  1  0  0  0
 47119  1  0  0  0
 47120  1  0  0  0
 48 56  1  0  0  0
 48 65  1  0  0  0
 48121  1  0  0  0
 49 50  1  0  0  0
 49 53  1  0  0  0
 49 64  1  0  0  0
 49122  1  0  0  0
 50 51  1  0  0  0
 50123  1  0  0  0
 50124  1  0  0  0
 51 52  1  0  0  0
 51125  1  0  0  0
 51126  1  0  0  0
 52127  1  0  0  0
 52128  1  0  0  0
 53 54  1  0  0  0
 54 55  2  0  0  0
 54129  1  0  0  0
 55 57  1  0  0  0
 55130  1  0  0  0
 56 69  2  0  0  0
 57 58  2  0  0  0
 57131  1  0  0  0
 58132  1  0  0  0
 59 60  1  0  0  0
 59 61  1  0  0  0
 59 62  1  0  0  0
 60133  1  0  0  0
 60134  1  0  0  0
 60135  1  0  0  0
 61136  1  0  0  0
 61137  1  0  0  0
 61138  1  0  0  0
 62139  1  0  0  0
 62140  1  0  0  0
 62141  1  0  0  0
 63 65  1  0  0  0
 63142  1  0  0  0
 63143  1  0  0  0
 63144  1  0  0  0
 64145  1  0  0  0
 65146  1  0  0  0
 68 84  1  0  0  0
 71 74  2  0  0  0
 71 76  1  0  0  0
 71147  1  0  0  0
 72 73  1  0  0  0
 72 75  2  0  0  0
 72 77  1  0  0  0
 73 76  2  0  0  0
 73 78  1  0  0  0
 74 75  1  0  0  0
 74 83  1  0  0  0
 75 80  1  0  0  0
 76 85  1  0  0  0
 77 87  1  0  0  0
 77148  1  0  0  0
 77149  1  0  0  0
 78 79  1  0  0  0
 78 81  1  0  0  0
 78150  1  0  0  0
 79 84  1  0  0  0
 79 87  1  0  0  0
 79151  1  0  0  0
 80152  1  0  0  0
 80153  1  0  0  0
 80154  1  0  0  0
 81155  1  0  0  0
 81156  1  0  0  0
 81157  1  0  0  0
 82 85  1  0  0  0
 82158  1  0  0  0
 82159  1  0  0  0
 82160  1  0  0  0
 83 86  1  0  0  0
 83161  1  0  0  0
 83162  1  0  0  0
 84163  1  0  0  0
 84164  1  0  0  0
 85165  1  0  0  0
 86166  1  0  0  0
 87167  1  0  0  0
 87168  1  0  0  0
M  CHG  1  87   1
M  ISO  4   1 100  68 101  84 101  86 100
M  END
> <chiral flag>
0

> <version>
0

> <s_m_source_file>
/data/baiqing/PycharmProjects/Reinvent-master-3.2/result/LINK_invent/BTK/process_docking_weight1_custom_sum_contain_oxygen_bond_distance_aromatic_linkinvent_7_9_3/rearranged_h_0157.sdf

> <i_m_source_file_index>
22

> <r_mmod_Potential_Energy-OPLS-2005>
-99.6271591186523

> <r_mmod_Stretch_Energy-OPLS-2005>
96.1141510009766

> <r_mmod_Bend_Energy-OPLS-2005>
172.5966796875

> <r_mmod_Torsional_Energy-OPLS-2005>
241.241577148438

> <r_mmod_Improper_Torsional_Energy-OPLS-2005>
8.095458984375

> <r_mmod_Van_der_Waal_Energy-OPLS-2005>
157.228973388672

> <r_mmod_Electrostatic_Energy-OPLS-2005>
-364.287445068359

> <r_mmod_Solvation_Energy-OPLS-2005>
-467.920806884766

> <b_mmod_Minimization_Converged-OPLS-2005>
0

> <r_mmod_RMS_Derivative-OPLS-2005>
0.885028719902039

$$$$
22
                    3D
 Structure written by MMmdl.
164173  0  0  1  0            999 V2000
  -30.6338  -14.6299   20.5490 C   0  0  0  0  0  0
  -30.4328  -12.3989   19.4510 C   0  0  0  0  0  0
  -29.5023  -12.5146   18.2228 C   0  0  0  0  0  0
  -28.0246  -12.3531   18.6327 C   0  0  0  0  0  0
  -27.6527  -13.2138   19.8699 C   0  0  2  0  0  0
  -28.6961  -13.0356   20.9933 C   0  0  0  0  0  0
  -25.2557  -13.8162   20.5699 C   0  0  0  0  0  0
  -24.1817  -13.0429   20.9176 C   0  0  0  0  0  0
  -24.6380  -11.6897   20.8725 C   0  0  0  0  0  0
  -23.9050  -10.4286   21.0395 C   0  0  0  0  0  0
  -24.3607   -9.4205   21.9178 C   0  0  0  0  0  0
  -23.6285   -8.2243   22.0751 C   0  0  0  0  0  0
  -22.4274   -8.0273   21.3536 C   0  0  0  0  0  0
  -21.9899   -9.0245   20.4643 C   0  0  0  0  0  0
  -22.7219  -10.2126   20.3050 C   0  0  0  0  0  0
  -21.6853   -6.0727   22.5274 C   0  0  0  0  0  0
  -21.4016   -6.5634   23.8207 C   0  0  0  0  0  0
  -21.3659   -5.6789   24.9171 C   0  0  0  0  0  0
  -21.6048   -4.3052   24.7226 C   0  0  0  0  0  0
  -21.8820   -3.8139   23.4349 C   0  0  0  0  0  0
  -21.9192   -4.6954   22.3401 C   0  0  0  0  0  0
  -22.7843  -13.5224   21.1849 C   0  0  0  0  0  0
  -22.1658   -4.2137   21.0978 F   0  0  0  0  0  0
  -21.5632   -3.4539   25.7740 F   0  0  0  0  0  0
  -30.0037  -13.4130   20.4395 N   0  0  0  0  0  0
  -26.2980  -12.9337   20.3347 N   0  0  0  0  0  0
  -25.9307  -11.6489   20.5755 N   0  0  0  0  0  0
  -22.0503  -12.8209   22.0410 N   0  0  0  0  0  0
  -25.4298  -15.1887   20.4157 N   0  0  0  0  0  0
  -31.7724  -14.7816   20.0906 O   0  0  0  0  0  0
  -21.6637   -6.8869   21.4237 O   0  0  0  0  0  0
  -22.3522  -14.5533   20.6703 O   0  0  0  0  0  0
  -24.6228  -31.8627   23.2054 C   0  0  0  0  0  0
  -25.9088  -32.4793   23.8373 C   0  0  1  0  0  0
  -27.2148  -27.3232   20.1303 C   0  0  0  0  0  0
  -25.5909  -33.8596   24.2286 N   0  0  0  0  0  0
  -23.4172  -30.4846   21.5491 C   0  0  2  0  0  0
  -24.8628  -28.9381   20.1150 C   0  0  0  0  0  0
  -22.7461  -29.4640   22.4975 C   0  0  0  0  0  0
  -18.0283  -28.1374   22.8503 C   0  0  0  0  0  0
  -24.1494  -36.7304   23.2647 C   0  0  0  0  0  0
  -25.9560  -30.7902   21.3818 C   0  0  0  0  0  0
  -26.0280  -29.4157   20.7308 C   0  0  0  0  0  0
  -27.2068  -28.6156   20.7356 C   0  0  0  0  0  0
  -26.0483  -26.9148   19.4564 C   0  0  0  0  0  0
  -24.8732  -27.6908   19.4708 C   0  0  0  0  0  0
  -23.6312  -29.8188   20.1641 C   0  0  0  0  0  0
  -25.4121  -36.3086   24.0320 C   0  0  1  0  0  0
  -20.5878  -28.3687   23.1290 C   0  0  2  0  0  0
  -20.6776  -26.9415   22.5416 C   0  0  0  0  0  0
  -19.5748  -26.6384   21.5225 C   0  0  0  0  0  0
  -18.1924  -26.7923   22.1630 C   0  0  0  0  0  0
  -19.1531  -28.8847   23.2894 C   0  0  0  0  0  0
  -18.9460  -30.1442   23.8912 C   0  0  0  0  0  0
  -17.6467  -30.6588   24.0565 C   0  0  0  0  0  0
  -25.9057  -34.9458   23.5108 C   0  0  0  0  0  0
  -16.5356  -29.9086   23.6330 C   0  0  0  0  0  0
  -16.7277  -28.6490   23.0372 C   0  0  0  0  0  0
  -26.4476  -31.6606   25.0751 C   0  0  0  0  0  0
  -25.3701  -31.3731   26.1476 C   0  0  0  0  0  0
  -27.0343  -30.3035   24.6217 C   0  0  0  0  0  0
  -27.6041  -32.4364   25.7500 C   0  0  0  0  0  0
  -27.5584  -37.1789   24.8457 C   0  0  0  0  0  0
  -21.4182  -29.3041   22.3684 N   0  0  0  0  0  0
  -26.4299  -37.3775   23.9399 N   0  0  0  0  0  0
  -24.6832  -31.0629   22.1020 N   0  0  0  0  0  0
  -23.4183  -28.8203   23.3073 O   0  0  0  0  0  0
  -28.3441  -26.5040   20.0957 O   0  0  0  0  0  0
  -26.5654  -34.8920   22.4692 O   0  0  0  0  0  0
  -23.5389  -32.1438   23.7376 O   0  0  0  0  0  0
  -29.1231  -20.5898   21.6920 C   0  0  0  0  0  0
  -28.8168  -21.9666   21.4659 C   0  0  0  0  0  0
  -28.5830  -20.0890   19.4072 C   0  0  0  0  0  0
  -28.9750  -19.6036   20.6781 C   0  0  0  0  0  0
  -28.3441  -22.4372   20.2133 C   0  0  0  0  0  0
  -28.2684  -21.4684   19.1647 C   0  0  0  0  0  0
  -29.3800  -17.6053   22.3816 C   0  0  0  0  0  0
  -29.5133  -16.0680   22.2688 C   0  0  0  0  0  0
  -29.8818  -17.0477   20.1472 C   0  0  0  0  0  0
  -29.0127  -18.0541   20.9731 C   0  0  2  0  0  0
  -26.2357  -23.7057   20.4727 C   0  0  0  0  0  0
  -27.6746  -20.9822   16.8766 C   0  0  0  0  0  0
  -28.3544  -25.1567   20.7190 C   0  0  0  0  0  0
  -27.7038  -23.8738   20.0273 C   0  0  1  0  0  0
  -29.8668  -15.7335   20.8757 N   0  0  0  0  0  0
  -27.8104  -21.9151   17.9420 O   0  0  0  0  0  0
  -31.4735  -12.5248   19.1477 H   0  0  0  0  0  0
  -30.3730  -11.3986   19.8833 H   0  0  0  0  0  0
  -29.7667  -11.7633   17.4771 H   0  0  0  0  0  0
  -29.6438  -13.4845   17.7432 H   0  0  0  0  0  0
  -27.8582  -11.2980   18.8543 H   0  0  0  0  0  0
  -27.3701  -12.5921   17.7934 H   0  0  0  0  0  0
  -27.6811  -14.2554   19.5491 H   0  0  0  0  0  0
  -28.7161  -11.9958   21.3238 H   0  0  0  0  0  0
  -28.4319  -13.6061   21.8782 H   0  0  0  0  0  0
  -25.2756   -9.5685   22.4745 H   0  0  0  0  0  0
  -23.9996   -7.4637   22.7474 H   0  0  0  0  0  0
  -21.0831   -8.8761   19.8950 H   0  0  0  0  0  0
  -22.3677  -10.9664   19.6160 H   0  0  0  0  0  0
  -21.2012   -7.6145   23.9706 H   0  0  0  0  0  0
  -21.1481   -6.0522   25.9072 H   0  0  0  0  0  0
  -22.0602   -2.7602   23.2853 H   0  0  0  0  0  0
  -22.4135  -11.9868   22.4779 H   0  0  0  0  0  0
  -21.1124  -13.1224   22.2649 H   0  0  0  0  0  0
  -24.6701  -15.8485   20.5417 H   0  0  0  0  0  0
  -26.2955  -15.6274   20.1284 H   0  0  0  0  0  0
  -26.7167  -32.5469   23.1124 H   0  0  0  0  0  0
  -24.9967  -33.9745   25.0366 H   0  0  0  0  0  0
  -22.7115  -31.3057   21.4072 H   0  0  0  0  0  0
  -23.3755  -35.9637   23.3306 H   0  0  0  0  0  0
  -24.3576  -36.8948   22.2066 H   0  0  0  0  0  0
  -23.7259  -37.6501   23.6689 H   0  0  0  0  0  0
  -26.0907  -31.5541   20.6143 H   0  0  0  0  0  0
  -26.8334  -30.8364   22.0143 H   0  0  0  0  0  0
  -28.1038  -28.9786   21.2186 H   0  0  0  0  0  0
  -26.0487  -25.9893   18.9004 H   0  0  0  0  0  0
  -23.9874  -27.3307   18.9666 H   0  0  0  0  0  0
  -23.7486  -30.5966   19.4080 H   0  0  0  0  0  0
  -22.7498  -29.2473   19.8652 H   0  0  0  0  0  0
  -25.1294  -36.1945   25.0810 H   0  0  0  0  0  0
  -20.9955  -28.3278   24.1418 H   0  0  0  0  0  0
  -20.5698  -26.2308   23.3621 H   0  0  0  0  0  0
  -21.6645  -26.7471   22.1193 H   0  0  0  0  0  0
  -19.6930  -25.6297   21.1255 H   0  0  0  0  0  0
  -19.6677  -27.3201   20.6763 H   0  0  0  0  0  0
  -17.4201  -26.6684   21.4027 H   0  0  0  0  0  0
  -18.0302  -26.0050   22.9007 H   0  0  0  0  0  0
  -19.7947  -30.7235   24.2301 H   0  0  0  0  0  0
  -17.5037  -31.6277   24.5158 H   0  0  0  0  0  0
  -15.5355  -30.2998   23.7653 H   0  0  0  0  0  0
  -15.8673  -28.0815   22.7103 H   0  0  0  0  0  0
  -24.5876  -30.7092   25.7777 H   0  0  0  0  0  0
  -24.8882  -32.2888   26.4915 H   0  0  0  0  0  0
  -25.7998  -30.8887   27.0256 H   0  0  0  0  0  0
  -26.2934  -29.6749   24.1260 H   0  0  0  0  0  0
  -27.4068  -29.7327   25.4734 H   0  0  0  0  0  0
  -27.8780  -30.4325   23.9433 H   0  0  0  0  0  0
  -27.2667  -33.3684   26.2048 H   0  0  0  0  0  0
  -28.3828  -32.6905   25.0296 H   0  0  0  0  0  0
  -28.0734  -31.8529   26.5425 H   0  0  0  0  0  0
  -28.2576  -38.0112   24.7535 H   0  0  0  0  0  0
  -28.1101  -36.2635   24.6243 H   0  0  0  0  0  0
  -27.2296  -37.1405   25.8859 H   0  0  0  0  0  0
  -20.9375  -29.8758   21.6879 H   0  0  0  0  0  0
  -26.0182  -38.2847   24.1420 H   0  0  0  0  0  0
  -29.4006  -20.2904   22.6926 H   0  0  0  0  0  0
  -28.8725  -22.6527   22.2994 H   0  0  0  0  0  0
  -28.4506  -19.3489   18.6322 H   0  0  0  0  0  0
  -30.3384  -18.0382   22.6729 H   0  0  0  0  0  0
  -28.6402  -17.9054   23.1245 H   0  0  0  0  0  0
  -28.5500  -15.6261   22.5186 H   0  0  0  0  0  0
  -30.2476  -15.6854   22.9805 H   0  0  0  0  0  0
  -30.9099  -17.4086   20.0796 H   0  0  0  0  0  0
  -29.5024  -16.9360   19.1311 H   0  0  0  0  0  0
  -27.9760  -17.7455   20.8216 H   0  0  0  0  0  0
  -25.7105  -23.0055   19.8215 H   0  0  0  0  0  0
  -25.6629  -24.6254   20.4903 H   0  0  0  0  0  0
  -26.1854  -23.3058   21.4859 H   0  0  0  0  0  0
  -27.3252  -21.5058   15.9872 H   0  0  0  0  0  0
  -26.9387  -20.2108   17.1095 H   0  0  0  0  0  0
  -28.6275  -20.5127   16.6278 H   0  0  0  0  0  0
  -29.4177  -24.9367   20.8172 H   0  0  0  0  0  0
  -27.9949  -25.2425   21.7446 H   0  0  0  0  0  0
  -27.7176  -24.0957   18.9606 H   0  0  0  0  0  0
  1 25  1  0  0  0
  1 30  2  0  0  0
  1 85  1  0  0  0
  2  3  1  0  0  0
  2 25  1  0  0  0
  2 87  1  0  0  0
  2 88  1  0  0  0
  3  4  1  0  0  0
  3 89  1  0  0  0
  3 90  1  0  0  0
  4  5  1  0  0  0
  4 91  1  0  0  0
  4 92  1  0  0  0
  5  6  1  0  0  0
  5 26  1  0  0  0
  5 93  1  0  0  0
  6 25  1  0  0  0
  6 94  1  0  0  0
  6 95  1  0  0  0
  7  8  2  0  0  0
  7 26  1  0  0  0
  7 29  1  0  0  0
  8  9  1  0  0  0
  8 22  1  0  0  0
  9 10  1  0  0  0
  9 27  2  0  0  0
 10 11  2  0  0  0
 10 15  1  0  0  0
 11 12  1  0  0  0
 11 96  1  0  0  0
 12 13  2  0  0  0
 12 97  1  0  0  0
 13 14  1  0  0  0
 13 31  1  0  0  0
 14 15  2  0  0  0
 14 98  1  0  0  0
 15 99  1  0  0  0
 16 17  2  0  0  0
 16 21  1  0  0  0
 16 31  1  0  0  0
 17 18  1  0  0  0
 17100  1  0  0  0
 18 19  2  0  0  0
 18101  1  0  0  0
 19 20  1  0  0  0
 19 24  1  0  0  0
 20 21  2  0  0  0
 20102  1  0  0  0
 21 23  1  0  0  0
 22 28  1  0  0  0
 22 32  2  0  0  0
 26 27  1  0  0  0
 28103  1  0  0  0
 28104  1  0  0  0
 29105  1  0  0  0
 29106  1  0  0  0
 33 34  1  0  0  0
 33 66  1  0  0  0
 33 70  2  0  0  0
 34 36  1  0  0  0
 34 59  1  0  0  0
 34107  1  0  0  0
 35 44  2  0  0  0
 35 45  1  0  0  0
 35 68  1  0  0  0
 36 56  1  0  0  0
 36108  1  0  0  0
 37 39  1  0  0  0
 37 47  1  0  0  0
 37 66  1  0  0  0
 37109  1  0  0  0
 38 43  2  0  0  0
 38 46  1  0  0  0
 38 47  1  0  0  0
 39 64  1  0  0  0
 39 67  2  0  0  0
 40 52  1  0  0  0
 40 53  2  0  0  0
 40 58  1  0  0  0
 41110  1  0  0  0
 41111  1  0  0  0
 41112  1  0  0  0
 41 48  1  0  0  0
 42 43  1  0  0  0
 42 66  1  0  0  0
 42113  1  0  0  0
 42114  1  0  0  0
 43 44  1  0  0  0
 44115  1  0  0  0
 45 46  2  0  0  0
 45116  1  0  0  0
 46117  1  0  0  0
 47118  1  0  0  0
 47119  1  0  0  0
 48 56  1  0  0  0
 48 65  1  0  0  0
 48120  1  0  0  0
 49 50  1  0  0  0
 49 53  1  0  0  0
 49 64  1  0  0  0
 49121  1  0  0  0
 50 51  1  0  0  0
 50122  1  0  0  0
 50123  1  0  0  0
 51 52  1  0  0  0
 51124  1  0  0  0
 51125  1  0  0  0
 52126  1  0  0  0
 52127  1  0  0  0
 53 54  1  0  0  0
 54 55  2  0  0  0
 54128  1  0  0  0
 55 57  1  0  0  0
 55129  1  0  0  0
 56 69  2  0  0  0
 57 58  2  0  0  0
 57130  1  0  0  0
 58131  1  0  0  0
 59 60  1  0  0  0
 59 61  1  0  0  0
 59 62  1  0  0  0
 60132  1  0  0  0
 60133  1  0  0  0
 60134  1  0  0  0
 61135  1  0  0  0
 61136  1  0  0  0
 61137  1  0  0  0
 62138  1  0  0  0
 62139  1  0  0  0
 62140  1  0  0  0
 63 65  1  0  0  0
 63141  1  0  0  0
 63142  1  0  0  0
 63143  1  0  0  0
 64144  1  0  0  0
 65145  1  0  0  0
 68 83  1  0  0  0
 71 72  2  0  0  0
 71 74  1  0  0  0
 71146  1  0  0  0
 72 75  1  0  0  0
 72147  1  0  0  0
 73 74  2  0  0  0
 73 76  1  0  0  0
 73148  1  0  0  0
 74 80  1  0  0  0
 75 76  2  0  0  0
 75 84  1  0  0  0
 76 86  1  0  0  0
 77 78  1  0  0  0
 77 80  1  0  0  0
 77149  1  0  0  0
 77150  1  0  0  0
 78 85  1  0  0  0
 78151  1  0  0  0
 78152  1  0  0  0
 79 80  1  0  0  0
 79 85  1  0  0  0
 79153  1  0  0  0
 79154  1  0  0  0
 80155  1  0  0  0
 81156  1  0  0  0
 81157  1  0  0  0
 81158  1  0  0  0
 81 84  1  0  0  0
 82 86  1  0  0  0
 82159  1  0  0  0
 82160  1  0  0  0
 82161  1  0  0  0
 83 84  1  0  0  0
 83162  1  0  0  0
 83163  1  0  0  0
 84164  1  0  0  0
M  ISO  4   1 100  68 101  83 101  85 100
M  END
> <chiral flag>
0

> <version>
0

> <s_m_source_file>
/data/baiqing/PycharmProjects/Reinvent-master-3.2/result/LINK_invent/BTK/process_docking_weight1_custom_sum_contain_oxygen_bond_distance_aromatic_linkinvent_7_9_3/rearranged_h_0157.sdf

> <i_m_source_file_index>
23

> <r_mmod_Potential_Energy-OPLS-2005>
316.442016601562

> <r_mmod_Stretch_Energy-OPLS-2005>
82.1656799316406

> <r_mmod_Bend_Energy-OPLS-2005>
190.877426147461

> <r_mmod_Torsional_Energy-OPLS-2005>
350.082061767578

> <r_mmod_Improper_Torsional_Energy-OPLS-2005>
13.0836973190308

> <r_mmod_Van_der_Waal_Energy-OPLS-2005>
141.28759765625

> <r_mmod_Electrostatic_Energy-OPLS-2005>
-306.039611816406

> <r_mmod_Solvation_Energy-OPLS-2005>
-196.218200683594

> <b_mmod_Minimization_Converged-OPLS-2005>
0

> <r_mmod_RMS_Derivative-OPLS-2005>
1.57151699066162

$$$$
23
                    3D
 Structure written by MMmdl.
180189  0  0  1  0            999 V2000
  -30.5180  -15.0145   20.3684 C   0  0  0  0  0  0
  -30.4391  -12.6315   19.4829 C   0  0  0  0  0  0
  -29.5160  -12.5283   18.2462 C   0  0  0  0  0  0
  -28.0507  -12.3176   18.6732 C   0  0  0  0  0  0
  -27.6226  -13.2542   19.8340 C   0  0  2  0  0  0
  -28.6707  -13.3204   20.9607 C   0  0  0  0  0  0
  -25.2434  -13.8222   20.5760 C   0  0  0  0  0  0
  -24.1763  -13.0455   20.9240 C   0  0  0  0  0  0
  -24.6377  -11.6932   20.8761 C   0  0  0  0  0  0
  -23.9064  -10.4287   21.0393 C   0  0  0  0  0  0
  -24.3608   -9.4190   21.9164 C   0  0  0  0  0  0
  -23.6253   -8.2241   22.0736 C   0  0  0  0  0  0
  -22.4233   -8.0291   21.3526 C   0  0  0  0  0  0
  -21.9879   -9.0270   20.4632 C   0  0  0  0  0  0
  -22.7228  -10.2139   20.3040 C   0  0  0  0  0  0
  -21.6838   -6.0742   22.5259 C   0  0  0  0  0  0
  -21.4021   -6.5646   23.8193 C   0  0  0  0  0  0
  -21.3650   -5.6799   24.9153 C   0  0  0  0  0  0
  -21.6017   -4.3058   24.7193 C   0  0  0  0  0  0
  -21.8815   -3.8153   23.4319 C   0  0  0  0  0  0
  -21.9191   -4.6974   22.3383 C   0  0  0  0  0  0
  -22.7775  -13.5227   21.1875 C   0  0  0  0  0  0
  -22.1668   -4.2164   21.0960 F   0  0  0  0  0  0
  -21.5611   -3.4542   25.7704 F   0  0  0  0  0  0
  -29.9273  -13.7479   20.3318 N   0  0  0  0  0  0
  -26.2865  -12.9467   20.3271 N   0  0  0  0  0  0
  -25.9314  -11.6601   20.5761 N   0  0  0  0  0  0
  -22.0434  -12.8240   22.0445 N   0  0  0  0  0  0
  -25.4079  -15.1961   20.4221 N   0  0  0  0  0  0
  -31.7421  -15.0270   20.2231 O   0  0  0  0  0  0
  -21.6621   -6.8874   21.4211 O   0  0  0  0  0  0
  -22.3458  -14.5524   20.6703 O   0  0  0  0  0  0
  -24.6454  -31.8408   23.1853 C   0  0  0  0  0  0
  -25.9229  -32.4670   23.8234 C   0  0  1  0  0  0
  -27.2183  -27.1126   20.1615 C   0  0  0  0  0  0
  -25.5983  -33.8477   24.2180 N   0  0  0  0  0  0
  -23.4483  -30.4567   21.5316 C   0  0  2  0  0  0
  -24.8976  -28.8717   20.1181 C   0  0  0  0  0  0
  -22.7573  -29.4523   22.4869 C   0  0  0  0  0  0
  -18.0321  -28.1391   22.8483 C   0  0  0  0  0  0
  -24.1486  -36.7231   23.2637 C   0  0  0  0  0  0
  -26.0026  -30.7089   21.3827 C   0  0  0  0  0  0
  -26.0765  -29.3141   20.7316 C   0  0  0  0  0  0
  -27.2406  -28.4525   20.7300 C   0  0  0  0  0  0
  -26.0114  -26.7675   19.5222 C   0  0  0  0  0  0
  -24.8788  -27.6130   19.4965 C   0  0  0  0  0  0
  -23.6761  -29.7794   20.1543 C   0  0  0  0  0  0
  -25.4123  -36.3013   24.0314 C   0  0  1  0  0  0
  -20.5928  -28.3710   23.1251 C   0  0  2  0  0  0
  -20.6803  -26.9408   22.5421 C   0  0  0  0  0  0
  -19.5792  -26.6369   21.5219 C   0  0  0  0  0  0
  -18.1969  -26.7929   22.1619 C   0  0  0  0  0  0
  -19.1574  -28.8874   23.2857 C   0  0  0  0  0  0
  -18.9476  -30.1467   23.8874 C   0  0  0  0  0  0
  -17.6473  -30.6581   24.0560 C   0  0  0  0  0  0
  -25.9081  -34.9389   23.5056 C   0  0  0  0  0  0
  -16.5371  -29.9071   23.6331 C   0  0  0  0  0  0
  -16.7304  -28.6498   23.0346 C   0  0  0  0  0  0
  -26.4569  -31.6517   25.0656 C   0  0  0  0  0  0
  -25.3771  -31.3705   26.1362 C   0  0  0  0  0  0
  -27.0417  -30.2908   24.6217 C   0  0  0  0  0  0
  -27.6099  -32.4273   25.7461 C   0  0  0  0  0  0
  -27.5578  -37.1776   24.8473 C   0  0  0  0  0  0
  -21.4267  -29.3031   22.3607 N   0  0  0  0  0  0
  -26.4283  -37.3726   23.9422 N   0  0  0  0  0  0
  -24.7183  -31.0245   22.0892 N   0  0  0  0  0  0
  -23.4210  -28.8080   23.3027 O   0  0  0  0  0  0
  -28.2845  -26.1378   20.1473 O   0  0  0  0  0  0
  -26.5644  -34.8897   22.4617 O   0  0  0  0  0  0
  -23.5575  -32.1299   23.7078 O   0  0  0  0  0  0
  -26.1633  -18.4573   19.0814 C   0  0  0  0  0  0
  -25.7421  -19.6615   19.6292 C   0  0  0  0  0  0
  -28.0975  -20.2488   20.1934 C   0  0  0  0  0  0
  -26.6862  -20.5399   20.2043 C   0  0  0  0  0  0
  -28.4745  -18.7731   19.9368 C   0  0  0  0  0  0
  -27.4835  -18.0095   19.2323 C   0  0  0  0  0  0
  -32.3297  -17.9573   19.1578 C   0  0  0  0  0  0
  -32.8467  -18.5673   17.8492 C   0  0  0  0  0  0
  -30.4764  -18.2580   17.6696 C   0  0  0  0  0  0
  -30.8575  -18.3725   19.1546 C   0  0  1  0  0  0
  -24.2542  -19.9898   19.5402 C   0  0  0  0  0  0
  -27.1195  -16.3260   17.5239 C   0  0  0  0  0  0
  -24.5005  -23.5082   20.5981 C   0  0  0  0  0  0
  -28.9530  -21.6360   20.4727 C   0  0  0  0  0  0
  -26.0943  -21.7728   20.9057 C   0  0  0  0  0  0
  -28.6034  -23.1963   19.8273 C   0  0  0  0  0  0
  -28.1262  -24.6429   20.5957 C   0  0  0  0  0  0
  -29.8279  -17.8340   20.2040 C   0  0  2  0  0  0
  -29.7242  -16.2159   20.3522 N   0  0  0  0  0  0
  -31.7092  -18.5435   16.9073 N   0  3  0  0  0  0
  -27.8254  -16.7939   18.6731 O   0  0  0  0  0  0
  -25.5053  -22.6992   19.9957 O   0  0  0  0  0  0
  -31.4695  -12.8027   19.1627 H   0  0  0  0  0  0
  -30.4547  -11.6921   20.0390 H   0  0  0  0  0  0
  -29.8344  -11.7118   17.5977 H   0  0  0  0  0  0
  -29.5942  -13.4400   17.6516 H   0  0  0  0  0  0
  -27.9461  -11.2769   18.9846 H   0  0  0  0  0  0
  -27.3905  -12.4510   17.8164 H   0  0  0  0  0  0
  -27.5710  -14.2510   19.3993 H   0  0  0  0  0  0
  -28.7777  -12.3559   21.4598 H   0  0  0  0  0  0
  -28.3649  -14.0344   21.7292 H   0  0  0  0  0  0
  -25.2747   -9.5657   22.4754 H   0  0  0  0  0  0
  -23.9931   -7.4621   22.7455 H   0  0  0  0  0  0
  -21.0805   -8.8813   19.8918 H   0  0  0  0  0  0
  -22.3680  -10.9699   19.6170 H   0  0  0  0  0  0
  -21.2036   -7.6156   23.9716 H   0  0  0  0  0  0
  -21.1475   -6.0513   25.9068 H   0  0  0  0  0  0
  -22.0601   -2.7623   23.2805 H   0  0  0  0  0  0
  -22.4064  -11.9931   22.4869 H   0  0  0  0  0  0
  -21.1083  -13.1322   22.2702 H   0  0  0  0  0  0
  -24.6282  -15.8344   20.5252 H   0  0  0  0  0  0
  -26.2495  -15.6532   20.0979 H   0  0  0  0  0  0
  -26.7272  -32.5293   23.0937 H   0  0  0  0  0  0
  -25.0149  -33.9578   25.0345 H   0  0  0  0  0  0
  -22.7503  -31.2809   21.3752 H   0  0  0  0  0  0
  -23.3759  -35.9550   23.3278 H   0  0  0  0  0  0
  -24.3566  -36.8885   22.2054 H   0  0  0  0  0  0
  -23.7229  -37.6415   23.6687 H   0  0  0  0  0  0
  -26.1473  -31.4557   20.6013 H   0  0  0  0  0  0
  -26.8755  -30.7727   22.0193 H   0  0  0  0  0  0
  -28.1453  -28.7907   21.2150 H   0  0  0  0  0  0
  -25.9328  -25.8009   19.0469 H   0  0  0  0  0  0
  -23.9809  -27.2657   19.0070 H   0  0  0  0  0  0
  -23.8201  -30.5500   19.3968 H   0  0  0  0  0  0
  -22.7882  -29.2258   19.8434 H   0  0  0  0  0  0
  -25.1303  -36.1821   25.0803 H   0  0  0  0  0  0
  -21.0024  -28.3300   24.1371 H   0  0  0  0  0  0
  -20.5703  -26.2300   23.3628 H   0  0  0  0  0  0
  -21.6666  -26.7423   22.1212 H   0  0  0  0  0  0
  -19.6948  -25.6276   21.1256 H   0  0  0  0  0  0
  -19.6732  -27.3168   20.6741 H   0  0  0  0  0  0
  -17.4235  -26.6686   21.4022 H   0  0  0  0  0  0
  -18.0363  -26.0070   22.9014 H   0  0  0  0  0  0
  -19.7947  -30.7306   24.2219 H   0  0  0  0  0  0
  -17.5021  -31.6259   24.5159 H   0  0  0  0  0  0
  -15.5368  -30.2960   23.7664 H   0  0  0  0  0  0
  -15.8708  -28.0807   22.7056 H   0  0  0  0  0  0
  -24.6000  -30.6979   25.7713 H   0  0  0  0  0  0
  -24.8899  -32.2875   26.4692 H   0  0  0  0  0  0
  -25.8088  -30.8980   27.0196 H   0  0  0  0  0  0
  -26.3014  -29.6628   24.1243 H   0  0  0  0  0  0
  -27.4052  -29.7206   25.4778 H   0  0  0  0  0  0
  -27.8918  -30.4118   23.9491 H   0  0  0  0  0  0
  -27.2704  -33.3618   26.1943 H   0  0  0  0  0  0
  -28.3979  -32.6754   25.0334 H   0  0  0  0  0  0
  -28.0680  -31.8442   26.5466 H   0  0  0  0  0  0
  -28.2574  -38.0089   24.7516 H   0  0  0  0  0  0
  -28.1092  -36.2619   24.6296 H   0  0  0  0  0  0
  -27.2292  -37.1408   25.8872 H   0  0  0  0  0  0
  -20.9474  -29.8718   21.6762 H   0  0  0  0  0  0
  -26.0145  -38.2788   24.1430 H   0  0  0  0  0  0
  -25.4224  -17.8357   18.6022 H   0  0  0  0  0  0
  -32.8780  -18.2968   20.0365 H   0  0  0  0  0  0
  -32.4591  -16.8889   19.0609 H   0  0  0  0  0  0
  -33.7060  -18.0289   17.4489 H   0  0  0  0  0  0
  -33.1495  -19.6035   18.0074 H   0  0  0  0  0  0
  -29.6825  -18.9533   17.3904 H   0  0  0  0  0  0
  -30.1343  -17.2509   17.4335 H   0  0  0  0  0  0
  -30.9001  -19.4440   19.3558 H   0  0  0  0  0  0
  -23.6919  -19.1856   19.0657 H   0  0  0  0  0  0
  -24.0882  -20.8829   18.9389 H   0  0  0  0  0  0
  -23.8151  -20.1432   20.5248 H   0  0  0  0  0  0
  -27.7066  -15.5429   17.0419 H   0  0  0  0  0  0
  -26.9561  -17.1142   16.7876 H   0  0  0  0  0  0
  -26.1588  -15.8843   17.7902 H   0  0  0  0  0  0
  -24.1106  -24.2243   19.8736 H   0  0  0  0  0  0
  -24.8821  -24.0678   21.4537 H   0  0  0  0  0  0
  -23.6617  -22.8990   20.9380 H   0  0  0  0  0  0
  -29.9650  -21.4075   20.1387 H   0  0  0  0  0  0
  -29.0631  -21.7370   21.5524 H   0  0  0  0  0  0
  -26.7917  -22.2738   21.5730 H   0  0  0  0  0  0
  -25.3347  -21.4009   21.5952 H   0  0  0  0  0  0
  -27.9466  -23.0479   18.9714 H   0  0  0  0  0  0
  -29.5445  -23.4806   19.3569 H   0  0  0  0  0  0
  -28.6679  -24.6291   21.5404 H   0  0  0  0  0  0
  -27.0923  -24.5258   20.9051 H   0  0  0  0  0  0
  -30.1889  -18.1546   21.1828 H   0  0  0  0  0  0
  -28.7507  -15.9580   20.4009 H   0  0  0  0  0  0
  -31.8449  -17.8366   16.2015 H   0  0  0  0  0  0
  -31.6423  -19.4329   16.4395 H   0  0  0  0  0  0
  1 25  1  0  0  0
  1 30  2  0  0  0
  1 89  1  0  0  0
  2  3  1  0  0  0
  2 25  1  0  0  0
  2 93  1  0  0  0
  2 94  1  0  0  0
  3  4  1  0  0  0
  3 95  1  0  0  0
  3 96  1  0  0  0
  4  5  1  0  0  0
  4 97  1  0  0  0
  4 98  1  0  0  0
  5  6  1  0  0  0
  5 26  1  0  0  0
  5 99  1  0  0  0
  6 25  1  0  0  0
  6100  1  0  0  0
  6101  1  0  0  0
  7  8  2  0  0  0
  7 26  1  0  0  0
  7 29  1  0  0  0
  8  9  1  0  0  0
  8 22  1  0  0  0
  9 10  1  0  0  0
  9 27  2  0  0  0
 10 11  2  0  0  0
 10 15  1  0  0  0
 11 12  1  0  0  0
 11102  1  0  0  0
 12 13  2  0  0  0
 12103  1  0  0  0
 13 14  1  0  0  0
 13 31  1  0  0  0
 14 15  2  0  0  0
 14104  1  0  0  0
 15105  1  0  0  0
 16 17  2  0  0  0
 16 21  1  0  0  0
 16 31  1  0  0  0
 17 18  1  0  0  0
 17106  1  0  0  0
 18 19  2  0  0  0
 18107  1  0  0  0
 19 20  1  0  0  0
 19 24  1  0  0  0
 20 21  2  0  0  0
 20108  1  0  0  0
 21 23  1  0  0  0
 22 28  1  0  0  0
 22 32  2  0  0  0
 26 27  1  0  0  0
 28109  1  0  0  0
 28110  1  0  0  0
 29111  1  0  0  0
 29112  1  0  0  0
 33 34  1  0  0  0
 33 66  1  0  0  0
 33 70  2  0  0  0
 34 36  1  0  0  0
 34 59  1  0  0  0
 34113  1  0  0  0
 35 44  2  0  0  0
 35 45  1  0  0  0
 35 68  1  0  0  0
 36 56  1  0  0  0
 36114  1  0  0  0
 37 39  1  0  0  0
 37 47  1  0  0  0
 37 66  1  0  0  0
 37115  1  0  0  0
 38 43  2  0  0  0
 38 46  1  0  0  0
 38 47  1  0  0  0
 39 64  1  0  0  0
 39 67  2  0  0  0
 40 52  1  0  0  0
 40 53  2  0  0  0
 40 58  1  0  0  0
 41116  1  0  0  0
 41117  1  0  0  0
 41118  1  0  0  0
 41 48  1  0  0  0
 42 43  1  0  0  0
 42 66  1  0  0  0
 42119  1  0  0  0
 42120  1  0  0  0
 43 44  1  0  0  0
 44121  1  0  0  0
 45 46  2  0  0  0
 45122  1  0  0  0
 46123  1  0  0  0
 47124  1  0  0  0
 47125  1  0  0  0
 48 56  1  0  0  0
 48 65  1  0  0  0
 48126  1  0  0  0
 49 50  1  0  0  0
 49 53  1  0  0  0
 49 64  1  0  0  0
 49127  1  0  0  0
 50 51  1  0  0  0
 50128  1  0  0  0
 50129  1  0  0  0
 51 52  1  0  0  0
 51130  1  0  0  0
 51131  1  0  0  0
 52132  1  0  0  0
 52133  1  0  0  0
 53 54  1  0  0  0
 54 55  2  0  0  0
 54134  1  0  0  0
 55 57  1  0  0  0
 55135  1  0  0  0
 56 69  2  0  0  0
 57 58  2  0  0  0
 57136  1  0  0  0
 58137  1  0  0  0
 59 60  1  0  0  0
 59 61  1  0  0  0
 59 62  1  0  0  0
 60138  1  0  0  0
 60139  1  0  0  0
 60140  1  0  0  0
 61141  1  0  0  0
 61142  1  0  0  0
 61143  1  0  0  0
 62144  1  0  0  0
 62145  1  0  0  0
 62146  1  0  0  0
 63 65  1  0  0  0
 63147  1  0  0  0
 63148  1  0  0  0
 63149  1  0  0  0
 64150  1  0  0  0
 65151  1  0  0  0
 68 87  1  0  0  0
 71 72  2  0  0  0
 71 76  1  0  0  0
 71152  1  0  0  0
 72 74  1  0  0  0
 72 81  1  0  0  0
 73 74  2  0  0  0
 73 75  1  0  0  0
 73 84  1  0  0  0
 74 85  1  0  0  0
 75 76  2  0  0  0
 75 88  1  0  0  0
 76 91  1  0  0  0
 77 78  1  0  0  0
 77153  1  0  0  0
 77154  1  0  0  0
 77 80  1  0  0  0
 78 90  1  0  0  0
 78155  1  0  0  0
 78156  1  0  0  0
 79 80  1  0  0  0
 79 90  1  0  0  0
 79157  1  0  0  0
 79158  1  0  0  0
 80 88  1  0  0  0
 80159  1  0  0  0
 81160  1  0  0  0
 81161  1  0  0  0
 81162  1  0  0  0
 82 91  1  0  0  0
 82163  1  0  0  0
 82164  1  0  0  0
 82165  1  0  0  0
 83 92  1  0  0  0
 83166  1  0  0  0
 83167  1  0  0  0
 83168  1  0  0  0
 84 86  1  0  0  0
 84169  1  0  0  0
 84170  1  0  0  0
 85 92  1  0  0  0
 85171  1  0  0  0
 85172  1  0  0  0
 86 87  1  0  0  0
 86173  1  0  0  0
 86174  1  0  0  0
 87175  1  0  0  0
 87176  1  0  0  0
 88 89  1  0  0  0
 88177  1  0  0  0
 89178  1  0  0  0
 90179  1  0  0  0
 90180  1  0  0  0
M  CHG  1  90   1
M  ISO  4   1 100  68 101  87 101  89 100
M  END
> <chiral flag>
0

> <version>
0

> <s_m_source_file>
/data/baiqing/PycharmProjects/Reinvent-master-3.2/result/LINK_invent/BTK/process_docking_weight1_custom_sum_contain_oxygen_bond_distance_aromatic_linkinvent_7_9_3/rearranged_h_0157.sdf

> <i_m_source_file_index>
24

> <r_mmod_Potential_Energy-OPLS-2005>
696.0185546875

> <r_mmod_Stretch_Energy-OPLS-2005>
357.187713623047

> <r_mmod_Bend_Energy-OPLS-2005>
396.419647216797

> <r_mmod_Torsional_Energy-OPLS-2005>
364.93212890625

> <r_mmod_Improper_Torsional_Energy-OPLS-2005>
4.92321252822876

> <r_mmod_Van_der_Waal_Energy-OPLS-2005>
136.261428833008

> <r_mmod_Electrostatic_Energy-OPLS-2005>
-350.802337646484

> <r_mmod_Solvation_Energy-OPLS-2005>
-438.562774658203

> <b_mmod_Minimization_Converged-OPLS-2005>
0

> <r_mmod_RMS_Derivative-OPLS-2005>
3.00295424461365

$$$$
24
                    3D
 Structure written by MMmdl.
160169  0  0  1  0            999 V2000
  -30.6800  -14.7183   20.4903 C   0  0  0  0  0  0
  -30.4024  -12.4453   19.4820 C   0  0  0  0  0  0
  -29.5069  -12.5176   18.2291 C   0  0  0  0  0  0
  -28.0327  -12.3192   18.6301 C   0  0  0  0  0  0
  -27.6299  -13.2121   19.8318 C   0  0  2  0  0  0
  -28.6728  -13.1802   20.9788 C   0  0  0  0  0  0
  -25.2448  -13.8110   20.5615 C   0  0  0  0  0  0
  -24.1768  -13.0394   20.9179 C   0  0  0  0  0  0
  -24.6343  -11.6870   20.8722 C   0  0  0  0  0  0
  -23.9008  -10.4271   21.0405 C   0  0  0  0  0  0
  -24.3594   -9.4208   21.9188 C   0  0  0  0  0  0
  -23.6308   -8.2217   22.0733 C   0  0  0  0  0  0
  -22.4302   -8.0237   21.3501 C   0  0  0  0  0  0
  -21.9914   -9.0212   20.4632 C   0  0  0  0  0  0
  -22.7190  -10.2105   20.3042 C   0  0  0  0  0  0
  -21.6861   -6.0711   22.5287 C   0  0  0  0  0  0
  -21.3998   -6.5623   23.8218 C   0  0  0  0  0  0
  -21.3670   -5.6779   24.9187 C   0  0  0  0  0  0
  -21.6052   -4.3038   24.7222 C   0  0  0  0  0  0
  -21.8822   -3.8112   23.4354 C   0  0  0  0  0  0
  -21.9181   -4.6931   22.3408 C   0  0  0  0  0  0
  -22.7820  -13.5214   21.1884 C   0  0  0  0  0  0
  -22.1668   -4.2119   21.0991 F   0  0  0  0  0  0
  -21.5650   -3.4535   25.7726 F   0  0  0  0  0  0
  -29.9719  -13.5348   20.3983 N   0  0  0  0  0  0
  -26.2854  -12.9292   20.3143 N   0  0  0  0  0  0
  -25.9243  -11.6450   20.5672 N   0  0  0  0  0  0
  -22.0462  -12.8236   22.0438 N   0  0  0  0  0  0
  -25.4045  -15.1851   20.4030 N   0  0  0  0  0  0
  -31.8617  -14.7057   20.1245 O   0  0  0  0  0  0
  -21.6636   -6.8853   21.4242 O   0  0  0  0  0  0
  -22.3547  -14.5543   20.6723 O   0  0  0  0  0  0
  -24.6283  -31.8602   23.2055 C   0  0  0  0  0  0
  -25.9133  -32.4787   23.8368 C   0  0  1  0  0  0
  -27.2230  -27.3106   20.0955 C   0  0  0  0  0  0
  -25.5960  -33.8592   24.2276 N   0  0  0  0  0  0
  -23.4233  -30.4875   21.5490 C   0  0  2  0  0  0
  -24.8674  -28.9504   20.1061 C   0  0  0  0  0  0
  -22.7502  -29.4632   22.4936 C   0  0  0  0  0  0
  -18.0292  -28.1403   22.8495 C   0  0  0  0  0  0
  -24.1486  -36.7308   23.2629 C   0  0  0  0  0  0
  -25.9692  -30.7828   21.3841 C   0  0  0  0  0  0
  -26.0390  -29.4137   20.7174 C   0  0  0  0  0  0
  -27.2174  -28.6059   20.7060 C   0  0  0  0  0  0
  -26.0256  -26.9157   19.4453 C   0  0  0  0  0  0
  -24.8635  -27.7075   19.4598 C   0  0  0  0  0  0
  -23.6378  -29.8333   20.1607 C   0  0  0  0  0  0
  -25.4103  -36.3085   24.0323 C   0  0  1  0  0  0
  -20.5899  -28.3707   23.1302 C   0  0  2  0  0  0
  -20.6792  -26.9434   22.5432 C   0  0  0  0  0  0
  -19.5763  -26.6386   21.5250 C   0  0  0  0  0  0
  -18.1933  -26.7944   22.1639 C   0  0  0  0  0  0
  -19.1541  -28.8873   23.2890 C   0  0  0  0  0  0
  -18.9454  -30.1472   23.8900 C   0  0  0  0  0  0
  -17.6450  -30.6599   24.0575 C   0  0  0  0  0  0
  -25.9061  -34.9459   23.5086 C   0  0  0  0  0  0
  -16.5347  -29.9096   23.6339 C   0  0  0  0  0  0
  -16.7273  -28.6530   23.0339 C   0  0  0  0  0  0
  -26.4465  -31.6627   25.0785 C   0  0  0  0  0  0
  -25.3655  -31.3869   26.1502 C   0  0  0  0  0  0
  -27.0250  -30.3002   24.6324 C   0  0  0  0  0  0
  -27.6020  -32.4351   25.7553 C   0  0  0  0  0  0
  -27.5585  -37.1802   24.8430 C   0  0  0  0  0  0
  -21.4219  -29.3037   22.3676 N   0  0  0  0  0  0
  -26.4269  -37.3797   23.9414 N   0  0  0  0  0  0
  -24.6922  -31.0606   22.1017 N   0  0  0  0  0  0
  -23.4241  -28.8161   23.3000 O   0  0  0  0  0  0
  -28.3319  -26.4378   20.1550 O   0  0  0  0  0  0
  -26.5618  -34.8928   22.4646 O   0  0  0  0  0  0
  -23.5439  -32.1404   23.7374 O   0  0  0  0  0  0
  -28.6177  -22.5043   20.3427 C   0  0  0  0  0  0
  -30.8375  -21.7611   20.8446 C   0  0  0  0  0  0
  -29.0992  -23.8571   20.1918 C   0  0  0  0  0  0
  -29.4880  -21.4010   20.6553 C   0  0  0  0  0  0
  -30.4988  -24.0251   20.3344 C   0  0  0  0  0  0
  -30.8841  -18.3197   20.2984 C   0  0  0  0  0  0
  -28.4209  -17.7521   20.1151 C   0  0  0  0  0  0
  -30.9785  -17.1080   21.2828 C   0  0  0  0  0  0
  -28.7350  -16.4615   20.9780 C   0  0  0  0  0  0
  -29.4607  -18.9339   20.0918 C   0  0  0  0  0  0
  -31.2093  -25.3489   20.0969 C   0  0  0  0  0  0
  -28.1069  -25.0136   19.7892 C   0  0  0  0  0  0
  -31.3265  -23.0113   20.6758 N   0  0  0  0  0  0
  -30.1298  -15.9450   20.8899 N   0  0  0  0  0  0
  -29.0341  -20.0854   20.9080 O   0  0  0  0  0  0
  -31.4558  -12.5074   19.2022 H   0  0  0  0  0  0
  -30.2882  -11.4742   19.9662 H   0  0  0  0  0  0
  -29.8116  -11.7642   17.4997 H   0  0  0  0  0  0
  -29.6322  -13.4857   17.7406 H   0  0  0  0  0  0
  -27.8890  -11.2680   18.8791 H   0  0  0  0  0  0
  -27.3822  -12.5199   17.7771 H   0  0  0  0  0  0
  -27.5991  -14.2044   19.3899 H   0  0  0  0  0  0
  -28.7169  -12.1874   21.4278 H   0  0  0  0  0  0
  -28.4013  -13.8533   21.7915 H   0  0  0  0  0  0
  -25.2745   -9.5716   22.4788 H   0  0  0  0  0  0
  -24.0007   -7.4603   22.7483 H   0  0  0  0  0  0
  -21.0815   -8.8729   19.8983 H   0  0  0  0  0  0
  -22.3642  -10.9637   19.6160 H   0  0  0  0  0  0
  -21.1984   -7.6141   23.9725 H   0  0  0  0  0  0
  -21.1528   -6.0504   25.9099 H   0  0  0  0  0  0
  -22.0594   -2.7577   23.2843 H   0  0  0  0  0  0
  -22.4027  -11.9865   22.4815 H   0  0  0  0  0  0
  -21.1080  -13.1293   22.2620 H   0  0  0  0  0  0
  -24.6329  -15.8311   20.5256 H   0  0  0  0  0  0
  -26.2532  -15.6396   20.0940 H   0  0  0  0  0  0
  -26.7217  -32.5416   23.1131 H   0  0  0  0  0  0
  -25.0133  -33.9733   25.0443 H   0  0  0  0  0  0
  -22.7170  -31.3093   21.4126 H   0  0  0  0  0  0
  -23.3758  -35.9634   23.3236 H   0  0  0  0  0  0
  -24.3580  -36.8987   22.2056 H   0  0  0  0  0  0
  -23.7220  -37.6486   23.6678 H   0  0  0  0  0  0
  -26.1102  -31.5491   20.6208 H   0  0  0  0  0  0
  -26.8459  -30.8197   22.0197 H   0  0  0  0  0  0
  -28.1144  -28.9573   21.1963 H   0  0  0  0  0  0
  -25.9457  -25.9782   18.9147 H   0  0  0  0  0  0
  -23.9713  -27.3564   18.9576 H   0  0  0  0  0  0
  -23.7609  -30.6169   19.4114 H   0  0  0  0  0  0
  -22.7555  -29.2693   19.8529 H   0  0  0  0  0  0
  -25.1278  -36.1921   25.0819 H   0  0  0  0  0  0
  -20.9983  -28.3272   24.1430 H   0  0  0  0  0  0
  -20.5753  -26.2309   23.3629 H   0  0  0  0  0  0
  -21.6644  -26.7505   22.1175 H   0  0  0  0  0  0
  -19.6923  -25.6292   21.1288 H   0  0  0  0  0  0
  -19.6716  -27.3198   20.6783 H   0  0  0  0  0  0
  -17.4227  -26.6717   21.4014 H   0  0  0  0  0  0
  -18.0307  -26.0097   22.9042 H   0  0  0  0  0  0
  -19.7914  -30.7292   24.2287 H   0  0  0  0  0  0
  -17.4992  -31.6263   24.5191 H   0  0  0  0  0  0
  -15.5345  -30.2991   23.7672 H   0  0  0  0  0  0
  -15.8672  -28.0866   22.7011 H   0  0  0  0  0  0
  -24.5761  -30.7303   25.7833 H   0  0  0  0  0  0
  -24.8941  -32.3105   26.4888 H   0  0  0  0  0  0
  -25.7914  -30.9036   27.0315 H   0  0  0  0  0  0
  -26.2852  -29.6809   24.1258 H   0  0  0  0  0  0
  -27.3737  -29.7231   25.4899 H   0  0  0  0  0  0
  -27.8823  -30.4179   23.9701 H   0  0  0  0  0  0
  -27.2610  -33.3630   26.2161 H   0  0  0  0  0  0
  -28.3836  -32.6954   25.0403 H   0  0  0  0  0  0
  -28.0700  -31.8469   26.5464 H   0  0  0  0  0  0
  -28.2542  -38.0159   24.7547 H   0  0  0  0  0  0
  -28.1130  -36.2691   24.6133 H   0  0  0  0  0  0
  -27.2329  -37.1313   25.8836 H   0  0  0  0  0  0
  -20.9413  -29.8731   21.6848 H   0  0  0  0  0  0
  -26.0137  -38.2856   24.1456 H   0  0  0  0  0  0
  -27.5624  -22.3116   20.2210 H   0  0  0  0  0  0
  -31.5648  -21.0489   21.1990 H   0  0  0  0  0  0
  -31.2324  -17.9678   19.3249 H   0  0  0  0  0  0
  -31.6138  -19.0755   20.5742 H   0  0  0  0  0  0
  -27.4403  -18.1416   20.4086 H   0  0  0  0  0  0
  -28.2737  -17.4269   19.0818 H   0  0  0  0  0  0
  -30.6817  -17.4428   22.2804 H   0  0  0  0  0  0
  -32.0272  -16.8244   21.3991 H   0  0  0  0  0  0
  -28.0109  -15.7136   20.7126 H   0  0  0  0  0  0
  -28.5182  -16.6707   22.0266 H   0  0  0  0  0  0
  -29.4369  -19.3319   19.0725 H   0  0  0  0  0  0
  -30.9300  -25.7768   19.1340 H   0  0  0  0  0  0
  -32.2953  -25.2158   20.0839 H   0  0  0  0  0  0
  -30.9765  -26.0643   20.8856 H   0  0  0  0  0  0
  -27.1483  -24.6978   20.2048 H   0  0  0  0  0  0
  -28.0044  -24.9657   18.7034 H   0  0  0  0  0  0
  1 25  1  0  0  0
  1 30  2  0  0  0
  1 84  1  0  0  0
  2  3  1  0  0  0
  2 25  1  0  0  0
  2 86  1  0  0  0
  2 87  1  0  0  0
  3  4  1  0  0  0
  3 88  1  0  0  0
  3 89  1  0  0  0
  4  5  1  0  0  0
  4 90  1  0  0  0
  4 91  1  0  0  0
  5  6  1  0  0  0
  5 26  1  0  0  0
  5 92  1  0  0  0
  6 25  1  0  0  0
  6 93  1  0  0  0
  6 94  1  0  0  0
  7  8  2  0  0  0
  7 26  1  0  0  0
  7 29  1  0  0  0
  8  9  1  0  0  0
  8 22  1  0  0  0
  9 10  1  0  0  0
  9 27  2  0  0  0
 10 11  2  0  0  0
 10 15  1  0  0  0
 11 12  1  0  0  0
 11 95  1  0  0  0
 12 13  2  0  0  0
 12 96  1  0  0  0
 13 14  1  0  0  0
 13 31  1  0  0  0
 14 15  2  0  0  0
 14 97  1  0  0  0
 15 98  1  0  0  0
 16 17  2  0  0  0
 16 21  1  0  0  0
 16 31  1  0  0  0
 17 18  1  0  0  0
 17 99  1  0  0  0
 18 19  2  0  0  0
 18100  1  0  0  0
 19 20  1  0  0  0
 19 24  1  0  0  0
 20 21  2  0  0  0
 20101  1  0  0  0
 21 23  1  0  0  0
 22 28  1  0  0  0
 22 32  2  0  0  0
 26 27  1  0  0  0
 28102  1  0  0  0
 28103  1  0  0  0
 29104  1  0  0  0
 29105  1  0  0  0
 33 34  1  0  0  0
 33 66  1  0  0  0
 33 70  2  0  0  0
 34 36  1  0  0  0
 34 59  1  0  0  0
 34106  1  0  0  0
 35 44  2  0  0  0
 35 45  1  0  0  0
 35 68  1  0  0  0
 36 56  1  0  0  0
 36107  1  0  0  0
 37 39  1  0  0  0
 37 47  1  0  0  0
 37 66  1  0  0  0
 37108  1  0  0  0
 38 43  2  0  0  0
 38 46  1  0  0  0
 38 47  1  0  0  0
 39 64  1  0  0  0
 39 67  2  0  0  0
 40 52  1  0  0  0
 40 53  2  0  0  0
 40 58  1  0  0  0
 41109  1  0  0  0
 41110  1  0  0  0
 41111  1  0  0  0
 41 48  1  0  0  0
 42 43  1  0  0  0
 42 66  1  0  0  0
 42112  1  0  0  0
 42113  1  0  0  0
 43 44  1  0  0  0
 44114  1  0  0  0
 45 46  2  0  0  0
 45115  1  0  0  0
 46116  1  0  0  0
 47117  1  0  0  0
 47118  1  0  0  0
 48 56  1  0  0  0
 48 65  1  0  0  0
 48119  1  0  0  0
 49 50  1  0  0  0
 49 53  1  0  0  0
 49 64  1  0  0  0
 49120  1  0  0  0
 50 51  1  0  0  0
 50121  1  0  0  0
 50122  1  0  0  0
 51 52  1  0  0  0
 51123  1  0  0  0
 51124  1  0  0  0
 52125  1  0  0  0
 52126  1  0  0  0
 53 54  1  0  0  0
 54 55  2  0  0  0
 54127  1  0  0  0
 55 57  1  0  0  0
 55128  1  0  0  0
 56 69  2  0  0  0
 57 58  2  0  0  0
 57129  1  0  0  0
 58130  1  0  0  0
 59 60  1  0  0  0
 59 61  1  0  0  0
 59 62  1  0  0  0
 60131  1  0  0  0
 60132  1  0  0  0
 60133  1  0  0  0
 61134  1  0  0  0
 61135  1  0  0  0
 61136  1  0  0  0
 62137  1  0  0  0
 62138  1  0  0  0
 62139  1  0  0  0
 63 65  1  0  0  0
 63140  1  0  0  0
 63141  1  0  0  0
 63142  1  0  0  0
 64143  1  0  0  0
 65144  1  0  0  0
 68 82  1  0  0  0
 71 73  2  0  0  0
 71 74  1  0  0  0
 71145  1  0  0  0
 72 74  2  0  0  0
 72 83  1  0  0  0
 72146  1  0  0  0
 73 75  1  0  0  0
 73 82  1  0  0  0
 74 85  1  0  0  0
 75 81  1  0  0  0
 75 83  2  0  0  0
 76 78  1  0  0  0
 76 80  1  0  0  0
 76147  1  0  0  0
 76148  1  0  0  0
 77 79  1  0  0  0
 77 80  1  0  0  0
 77149  1  0  0  0
 77150  1  0  0  0
 78 84  1  0  0  0
 78151  1  0  0  0
 78152  1  0  0  0
 79 84  1  0  0  0
 79153  1  0  0  0
 79154  1  0  0  0
 80 85  1  0  0  0
 80155  1  0  0  0
 81156  1  0  0  0
 81157  1  0  0  0
 81158  1  0  0  0
 82159  1  0  0  0
 82160  1  0  0  0
M  ISO  4   1 100  68 101  82 101  84 100
M  END
> <chiral flag>
0

> <version>
0

> <s_m_source_file>
/data/baiqing/PycharmProjects/Reinvent-master-3.2/result/LINK_invent/BTK/process_docking_weight1_custom_sum_contain_oxygen_bond_distance_aromatic_linkinvent_7_9_3/rearranged_h_0157.sdf

> <i_m_source_file_index>
25

> <r_mmod_Potential_Energy-OPLS-2005>
259.199035644531

> <r_mmod_Stretch_Energy-OPLS-2005>
98.2842636108398

> <r_mmod_Bend_Energy-OPLS-2005>
199.933532714844

> <r_mmod_Torsional_Energy-OPLS-2005>
332.073181152344

> <r_mmod_Improper_Torsional_Energy-OPLS-2005>
2.67251300811768

> <r_mmod_Van_der_Waal_Energy-OPLS-2005>
161.414093017578

> <r_mmod_Electrostatic_Energy-OPLS-2005>
-389.646484375

> <r_mmod_Solvation_Energy-OPLS-2005>
-215.709762573242

> <b_mmod_Minimization_Converged-OPLS-2005>
0

> <r_mmod_RMS_Derivative-OPLS-2005>
5.20051383972168

$$$$
25
                    3D
 Structure written by MMmdl.
172181  0  0  1  0            999 V2000
  -30.7892  -14.3510   20.6942 C   0  0  0  0  0  0
  -30.4104  -12.2909   19.3921 C   0  0  0  0  0  0
  -29.4806  -12.5295   18.1891 C   0  0  0  0  0  0
  -28.0072  -12.3788   18.6086 C   0  0  0  0  0  0
  -27.6647  -13.2033   19.8770 C   0  0  2  0  0  0
  -28.7032  -12.9582   20.9942 C   0  0  0  0  0  0
  -25.2587  -13.8155   20.5676 C   0  0  0  0  0  0
  -24.1826  -13.0439   20.9159 C   0  0  0  0  0  0
  -24.6370  -11.6901   20.8708 C   0  0  0  0  0  0
  -23.9031  -10.4293   21.0380 C   0  0  0  0  0  0
  -24.3595   -9.4213   21.9161 C   0  0  0  0  0  0
  -23.6293   -8.2237   22.0734 C   0  0  0  0  0  0
  -22.4270   -8.0269   21.3538 C   0  0  0  0  0  0
  -21.9893   -9.0226   20.4635 C   0  0  0  0  0  0
  -22.7203  -10.2119   20.3032 C   0  0  0  0  0  0
  -21.6848   -6.0735   22.5289 C   0  0  0  0  0  0
  -21.4009   -6.5648   23.8217 C   0  0  0  0  0  0
  -21.3658   -5.6794   24.9180 C   0  0  0  0  0  0
  -21.6046   -4.3058   24.7230 C   0  0  0  0  0  0
  -21.8824   -3.8155   23.4350 C   0  0  0  0  0  0
  -21.9185   -4.6966   22.3404 C   0  0  0  0  0  0
  -22.7852  -13.5238   21.1854 C   0  0  0  0  0  0
  -22.1662   -4.2152   21.0984 F   0  0  0  0  0  0
  -21.5620   -3.4537   25.7739 F   0  0  0  0  0  0
  -30.0476  -13.2388   20.4558 N   0  0  0  0  0  0
  -26.3031  -12.9331   20.3363 N   0  0  0  0  0  0
  -25.9295  -11.6486   20.5730 N   0  0  0  0  0  0
  -22.0474  -12.8202   22.0390 N   0  0  0  0  0  0
  -25.4333  -15.1876   20.4139 N   0  0  0  0  0  0
  -31.7957  -14.6398   20.0421 O   0  0  0  0  0  0
  -21.6632   -6.8876   21.4250 O   0  0  0  0  0  0
  -22.3544  -14.5556   20.6737 O   0  0  0  0  0  0
  -24.6113  -31.8698   23.2122 C   0  0  0  0  0  0
  -25.9024  -32.4832   23.8400 C   0  0  1  0  0  0
  -27.2418  -27.4711   20.0624 C   0  0  0  0  0  0
  -25.5896  -33.8630   24.2333 N   0  0  0  0  0  0
  -23.3970  -30.4931   21.5529 C   0  0  2  0  0  0
  -24.8441  -28.9593   20.1191 C   0  0  0  0  0  0
  -22.7386  -29.4669   22.5013 C   0  0  0  0  0  0
  -18.0260  -28.1368   22.8493 C   0  0  0  0  0  0
  -24.1485  -36.7321   23.2639 C   0  0  0  0  0  0
  -25.9243  -30.8393   21.3651 C   0  0  0  0  0  0
  -26.0014  -29.4736   20.7163 C   0  0  0  0  0  0
  -27.2001  -28.7283   20.7014 C   0  0  0  0  0  0
  -26.0606  -26.9523   19.4864 C   0  0  0  0  0  0
  -24.8647  -27.6926   19.5107 C   0  0  0  0  0  0
  -23.6041  -29.8217   20.1684 C   0  0  0  0  0  0
  -25.4112  -36.3119   24.0333 C   0  0  1  0  0  0
  -20.5848  -28.3653   23.1335 C   0  0  2  0  0  0
  -20.6755  -26.9395   22.5416 C   0  0  0  0  0  0
  -19.5739  -26.6384   21.5207 C   0  0  0  0  0  0
  -18.1914  -26.7922   22.1609 C   0  0  0  0  0  0
  -19.1508  -28.8824   23.2909 C   0  0  0  0  0  0
  -18.9445  -30.1438   23.8905 C   0  0  0  0  0  0
  -17.6450  -30.6590   24.0552 C   0  0  0  0  0  0
  -25.9033  -34.9483   23.5129 C   0  0  0  0  0  0
  -16.5337  -29.9088   23.6325 C   0  0  0  0  0  0
  -16.7254  -28.6501   23.0351 C   0  0  0  0  0  0
  -26.4462  -31.6605   25.0718 C   0  0  0  0  0  0
  -25.3754  -31.3776   26.1508 C   0  0  0  0  0  0
  -27.0234  -30.3022   24.6094 C   0  0  0  0  0  0
  -27.6091  -32.4281   25.7438 C   0  0  0  0  0  0
  -27.5568  -37.1844   24.8474 C   0  0  0  0  0  0
  -21.4115  -29.3031   22.3760 N   0  0  0  0  0  0
  -26.4306  -37.3792   23.9376 N   0  0  0  0  0  0
  -24.6621  -31.0814   22.1017 N   0  0  0  0  0  0
  -23.4177  -28.8199   23.3030 O   0  0  0  0  0  0
  -28.4231  -26.7712   20.0133 O   0  0  0  0  0  0
  -26.5588  -34.8927   22.4685 O   0  0  0  0  0  0
  -23.5312  -32.1452   23.7525 O   0  0  0  0  0  0
  -29.8730  -18.3544   22.0318 C   0  0  0  0  0  0
  -30.6539  -19.9881   20.4066 C   0  0  0  0  0  0
  -29.7456  -19.6302   21.4357 C   0  0  0  0  0  0
  -30.9090  -17.5042   21.6185 C   0  0  0  0  0  0
  -31.6319  -19.0297   20.0280 C   0  0  0  0  0  0
  -29.3081  -21.8592   19.1659 C   0  0  0  0  0  0
  -31.1659  -22.4684   20.7419 C   0  0  0  0  0  0
  -29.4619  -23.2415   18.4950 C   0  0  0  0  0  0
  -31.3092  -23.8229   20.0259 C   0  0  0  0  0  0
  -30.6477  -21.3939   19.7726 C   0  0  1  0  0  0
  -32.6679  -19.2889   18.9473 C   0  0  0  0  0  0
  -27.8967  -20.1969   22.8704 C   0  0  0  0  0  0
  -31.1649  -16.1797   22.3208 C   0  0  0  0  0  0
  -30.1592  -25.6126   18.7933 C   0  0  0  0  0  0
  -28.8251  -26.3672   18.7028 C   0  0  0  0  0  0
  -31.7540  -17.8290   20.6249 N   0  0  0  0  0  0
  -30.4119  -15.0679   21.7566 N   0  0  0  0  0  0
  -30.0250  -24.2692   19.4225 N   0  3  1  0  0  0
  -28.8052  -20.5542   21.8376 O   0  0  0  0  0  0
  -31.4545  -12.3817   19.0881 H   0  0  0  0  0  0
  -30.2998  -11.2697   19.7580 H   0  0  0  0  0  0
  -29.7167  -11.8288   17.3871 H   0  0  0  0  0  0
  -29.6481  -13.5274   17.7806 H   0  0  0  0  0  0
  -27.8204  -11.3210   18.7934 H   0  0  0  0  0  0
  -27.3517  -12.6629   17.7846 H   0  0  0  0  0  0
  -27.7204  -14.2562   19.6000 H   0  0  0  0  0  0
  -28.6627  -11.9209   21.3293 H   0  0  0  0  0  0
  -28.4490  -13.5532   21.8707 H   0  0  0  0  0  0
  -25.2734   -9.5714   22.4725 H   0  0  0  0  0  0
  -24.0017   -7.4632   22.7440 H   0  0  0  0  0  0
  -21.0822   -8.8733   19.8943 H   0  0  0  0  0  0
  -22.3645  -10.9645   19.6139 H   0  0  0  0  0  0
  -21.2009   -7.6153   23.9734 H   0  0  0  0  0  0
  -21.1478   -6.0515   25.9086 H   0  0  0  0  0  0
  -22.0603   -2.7617   23.2833 H   0  0  0  0  0  0
  -22.4062  -11.9854   22.4774 H   0  0  0  0  0  0
  -21.1088  -13.1235   22.2578 H   0  0  0  0  0  0
  -24.6753  -15.8498   20.5361 H   0  0  0  0  0  0
  -26.3036  -15.6282   20.1408 H   0  0  0  0  0  0
  -26.7093  -32.5550   23.1168 H   0  0  0  0  0  0
  -25.0049  -33.9794   25.0477 H   0  0  0  0  0  0
  -22.6845  -31.3088   21.4131 H   0  0  0  0  0  0
  -23.3760  -35.9641   23.3285 H   0  0  0  0  0  0
  -24.3576  -36.8954   22.2056 H   0  0  0  0  0  0
  -23.7219  -37.6512   23.6668 H   0  0  0  0  0  0
  -26.0328  -31.6036   20.5943 H   0  0  0  0  0  0
  -26.8146  -30.8950   21.9796 H   0  0  0  0  0  0
  -28.0981  -29.1256   21.1550 H   0  0  0  0  0  0
  -26.0505  -25.9778   19.0208 H   0  0  0  0  0  0
  -23.9713  -27.2850   19.0578 H   0  0  0  0  0  0
  -23.7075  -30.5932   19.4049 H   0  0  0  0  0  0
  -22.7309  -29.2356   19.8766 H   0  0  0  0  0  0
  -25.1296  -36.1997   25.0831 H   0  0  0  0  0  0
  -20.9935  -28.3205   24.1456 H   0  0  0  0  0  0
  -20.5667  -26.2249   23.3591 H   0  0  0  0  0  0
  -21.6627  -26.7453   22.1206 H   0  0  0  0  0  0
  -19.6905  -25.6299   21.1222 H   0  0  0  0  0  0
  -19.6696  -27.3204   20.6745 H   0  0  0  0  0  0
  -17.4198  -26.6684   21.4000 H   0  0  0  0  0  0
  -18.0308  -26.0053   22.8992 H   0  0  0  0  0  0
  -19.7924  -30.7240   24.2283 H   0  0  0  0  0  0
  -17.5015  -31.6279   24.5135 H   0  0  0  0  0  0
  -15.5338  -30.2991   23.7659 H   0  0  0  0  0  0
  -15.8651  -28.0828   22.7060 H   0  0  0  0  0  0
  -24.5744  -30.7357   25.7829 H   0  0  0  0  0  0
  -24.9186  -32.2991   26.5129 H   0  0  0  0  0  0
  -25.8078  -30.8731   27.0159 H   0  0  0  0  0  0
  -26.2735  -29.6805   24.1189 H   0  0  0  0  0  0
  -27.4015  -29.7253   25.4547 H   0  0  0  0  0  0
  -27.8587  -30.4292   23.9201 H   0  0  0  0  0  0
  -27.2817  -33.3687   26.1879 H   0  0  0  0  0  0
  -28.3968  -32.6641   25.0269 H   0  0  0  0  0  0
  -28.0653  -31.8441   26.5445 H   0  0  0  0  0  0
  -28.2672  -38.0048   24.7388 H   0  0  0  0  0  0
  -28.0962  -36.2573   24.6472 H   0  0  0  0  0  0
  -27.2262  -37.1716   25.8872 H   0  0  0  0  0  0
  -20.9263  -29.8769   21.7006 H   0  0  0  0  0  0
  -26.0203  -38.2895   24.1282 H   0  0  0  0  0  0
  -29.2270  -18.0244   22.8311 H   0  0  0  0  0  0
  -28.9653  -21.1354   18.4249 H   0  0  0  0  0  0
  -28.5207  -21.9263   19.9137 H   0  0  0  0  0  0
  -30.5016  -22.5708   21.6004 H   0  0  0  0  0  0
  -32.1378  -22.1726   21.1393 H   0  0  0  0  0  0
  -28.4866  -23.5570   18.1253 H   0  0  0  0  0  0
  -30.1080  -23.1507   17.6201 H   0  0  0  0  0  0
  -32.0704  -23.7517   19.2469 H   0  0  0  0  0  0
  -31.6648  -24.5675   20.7391 H   0  0  0  0  0  0
  -31.3380  -21.3912   18.9327 H   0  0  0  0  0  0
  -32.1865  -19.4958   17.9912 H   0  0  0  0  0  0
  -33.3209  -18.4276   18.8017 H   0  0  0  0  0  0
  -33.2968  -20.1366   19.2207 H   0  0  0  0  0  0
  -27.2078  -21.0226   23.0474 H   0  0  0  0  0  0
  -28.4186  -19.9994   23.8072 H   0  0  0  0  0  0
  -27.3023  -19.3248   22.5952 H   0  0  0  0  0  0
  -30.9017  -16.2751   23.3748 H   0  0  0  0  0  0
  -32.2335  -15.9539   22.3072 H   0  0  0  0  0  0
  -30.8545  -26.2337   19.3595 H   0  0  0  0  0  0
  -30.5955  -25.5065   17.7987 H   0  0  0  0  0  0
  -28.0758  -25.7581   18.1996 H   0  0  0  0  0  0
  -28.9597  -27.2587   18.0878 H   0  0  0  0  0  0
  -29.5942  -14.7636   22.2609 H   0  0  0  0  0  0
  -29.3764  -24.3851   20.1895 H   0  0  0  0  0  0
  1 25  1  0  0  0
  1 30  2  0  0  0
  1 87  1  0  0  0
  2  3  1  0  0  0
  2 25  1  0  0  0
  2 90  1  0  0  0
  2 91  1  0  0  0
  3  4  1  0  0  0
  3 92  1  0  0  0
  3 93  1  0  0  0
  4  5  1  0  0  0
  4 94  1  0  0  0
  4 95  1  0  0  0
  5  6  1  0  0  0
  5 26  1  0  0  0
  5 96  1  0  0  0
  6 25  1  0  0  0
  6 97  1  0  0  0
  6 98  1  0  0  0
  7  8  2  0  0  0
  7 26  1  0  0  0
  7 29  1  0  0  0
  8  9  1  0  0  0
  8 22  1  0  0  0
  9 10  1  0  0  0
  9 27  2  0  0  0
 10 11  2  0  0  0
 10 15  1  0  0  0
 11 12  1  0  0  0
 11 99  1  0  0  0
 12 13  2  0  0  0
 12100  1  0  0  0
 13 14  1  0  0  0
 13 31  1  0  0  0
 14 15  2  0  0  0
 14101  1  0  0  0
 15102  1  0  0  0
 16 17  2  0  0  0
 16 21  1  0  0  0
 16 31  1  0  0  0
 17 18  1  0  0  0
 17103  1  0  0  0
 18 19  2  0  0  0
 18104  1  0  0  0
 19 20  1  0  0  0
 19 24  1  0  0  0
 20 21  2  0  0  0
 20105  1  0  0  0
 21 23  1  0  0  0
 22 28  1  0  0  0
 22 32  2  0  0  0
 26 27  1  0  0  0
 28106  1  0  0  0
 28107  1  0  0  0
 29108  1  0  0  0
 29109  1  0  0  0
 33 34  1  0  0  0
 33 66  1  0  0  0
 33 70  2  0  0  0
 34 36  1  0  0  0
 34 59  1  0  0  0
 34110  1  0  0  0
 35 44  2  0  0  0
 35 45  1  0  0  0
 35 68  1  0  0  0
 36 56  1  0  0  0
 36111  1  0  0  0
 37 39  1  0  0  0
 37 47  1  0  0  0
 37 66  1  0  0  0
 37112  1  0  0  0
 38 43  2  0  0  0
 38 46  1  0  0  0
 38 47  1  0  0  0
 39 64  1  0  0  0
 39 67  2  0  0  0
 40 52  1  0  0  0
 40 53  2  0  0  0
 40 58  1  0  0  0
 41113  1  0  0  0
 41114  1  0  0  0
 41115  1  0  0  0
 41 48  1  0  0  0
 42 43  1  0  0  0
 42 66  1  0  0  0
 42116  1  0  0  0
 42117  1  0  0  0
 43 44  1  0  0  0
 44118  1  0  0  0
 45 46  2  0  0  0
 45119  1  0  0  0
 46120  1  0  0  0
 47121  1  0  0  0
 47122  1  0  0  0
 48 56  1  0  0  0
 48 65  1  0  0  0
 48123  1  0  0  0
 49 50  1  0  0  0
 49 53  1  0  0  0
 49 64  1  0  0  0
 49124  1  0  0  0
 50 51  1  0  0  0
 50125  1  0  0  0
 50126  1  0  0  0
 51 52  1  0  0  0
 51127  1  0  0  0
 51128  1  0  0  0
 52129  1  0  0  0
 52130  1  0  0  0
 53 54  1  0  0  0
 54 55  2  0  0  0
 54131  1  0  0  0
 55 57  1  0  0  0
 55132  1  0  0  0
 56 69  2  0  0  0
 57 58  2  0  0  0
 57133  1  0  0  0
 58134  1  0  0  0
 59 60  1  0  0  0
 59 61  1  0  0  0
 59 62  1  0  0  0
 60135  1  0  0  0
 60136  1  0  0  0
 60137  1  0  0  0
 61138  1  0  0  0
 61139  1  0  0  0
 61140  1  0  0  0
 62141  1  0  0  0
 62142  1  0  0  0
 62143  1  0  0  0
 63 65  1  0  0  0
 63144  1  0  0  0
 63145  1  0  0  0
 63146  1  0  0  0
 64147  1  0  0  0
 65148  1  0  0  0
 68 85  1  0  0  0
 71 73  2  0  0  0
 71 74  1  0  0  0
 71149  1  0  0  0
 72 73  1  0  0  0
 72 75  2  0  0  0
 72 80  1  0  0  0
 73 89  1  0  0  0
 74 83  1  0  0  0
 74 86  2  0  0  0
 75 81  1  0  0  0
 75 86  1  0  0  0
 76 78  1  0  0  0
 76 80  1  0  0  0
 76150  1  0  0  0
 76151  1  0  0  0
 77 79  1  0  0  0
 77 80  1  0  0  0
 77152  1  0  0  0
 77153  1  0  0  0
 78 88  1  0  0  0
 78154  1  0  0  0
 78155  1  0  0  0
 79 88  1  0  0  0
 79156  1  0  0  0
 79157  1  0  0  0
 80158  1  0  0  0
 81159  1  0  0  0
 81160  1  0  0  0
 81161  1  0  0  0
 82 89  1  0  0  0
 82162  1  0  0  0
 82163  1  0  0  0
 82164  1  0  0  0
 83 87  1  0  0  0
 83165  1  0  0  0
 83166  1  0  0  0
 84 85  1  0  0  0
 84167  1  0  0  0
 84168  1  0  0  0
 84 88  1  0  0  0
 85169  1  0  0  0
 85170  1  0  0  0
 87171  1  0  0  0
 88172  1  0  0  0
M  CHG  1  88   1
M  ISO  4   1 100  68 101  85 101  87 100
M  END
> <chiral flag>
0

> <version>
0

> <s_m_source_file>
/data/baiqing/PycharmProjects/Reinvent-master-3.2/result/LINK_invent/BTK/process_docking_weight1_custom_sum_contain_oxygen_bond_distance_aromatic_linkinvent_7_9_3/rearranged_h_0157.sdf

> <i_m_source_file_index>
26

> <r_mmod_Potential_Energy-OPLS-2005>
-428.965393066406

> <r_mmod_Stretch_Energy-OPLS-2005>
35.6688003540039

> <r_mmod_Bend_Energy-OPLS-2005>
99.7652816772461

> <r_mmod_Torsional_Energy-OPLS-2005>
245.892700195312

> <r_mmod_Improper_Torsional_Energy-OPLS-2005>
2.49453330039978

> <r_mmod_Van_der_Waal_Energy-OPLS-2005>
172.850311279297

> <r_mmod_Electrostatic_Energy-OPLS-2005>
-551.227722167969

> <r_mmod_Solvation_Energy-OPLS-2005>
-441.593566894531

> <b_mmod_Minimization_Converged-OPLS-2005>
0

> <r_mmod_RMS_Derivative-OPLS-2005>
1.73307633399963

$$$$
26
                    3D
 Structure written by MMmdl.
181190  0  0  1  0            999 V2000
  -30.4910  -14.8996   20.3493 C   0  0  0  0  0  0
  -30.4600  -12.5568   19.4771 C   0  0  0  0  0  0
  -29.5207  -12.5139   18.2504 C   0  0  0  0  0  0
  -28.0542  -12.3104   18.6801 C   0  0  0  0  0  0
  -27.6273  -13.2236   19.8586 C   0  0  2  0  0  0
  -28.6755  -13.2320   20.9856 C   0  0  0  0  0  0
  -25.2529  -13.7676   20.6497 C   0  0  0  0  0  0
  -24.1681  -13.0030   20.9379 C   0  0  0  0  0  0
  -24.6353  -11.6567   20.8692 C   0  0  0  0  0  0
  -23.9010  -10.4065   21.0367 C   0  0  0  0  0  0
  -24.3535   -9.4040   21.9209 C   0  0  0  0  0  0
  -23.6194   -8.2108   22.0794 C   0  0  0  0  0  0
  -22.4188   -8.0182   21.3570 C   0  0  0  0  0  0
  -21.9789   -9.0142   20.4672 C   0  0  0  0  0  0
  -22.7148  -10.1993   20.3067 C   0  0  0  0  0  0
  -21.6781   -6.0675   22.5304 C   0  0  0  0  0  0
  -21.3954   -6.5607   23.8237 C   0  0  0  0  0  0
  -21.3671   -5.6786   24.9203 C   0  0  0  0  0  0
  -21.6038   -4.3047   24.7257 C   0  0  0  0  0  0
  -21.8844   -3.8130   23.4386 C   0  0  0  0  0  0
  -21.9181   -4.6912   22.3432 C   0  0  0  0  0  0
  -22.7736  -13.4964   21.1978 C   0  0  0  0  0  0
  -22.1679   -4.2116   21.1001 F   0  0  0  0  0  0
  -21.5641   -3.4545   25.7774 F   0  0  0  0  0  0
  -29.9536  -13.6280   20.3703 N   0  0  0  0  0  0
  -26.2894  -12.9081   20.3488 N   0  0  0  0  0  0
  -25.9277  -11.6193   20.5541 N   0  0  0  0  0  0
  -22.0266  -12.8080   22.0496 N   0  0  0  0  0  0
  -25.4371  -15.1233   20.6347 N   0  0  0  0  0  0
  -31.7044  -15.0163   20.1353 O   0  0  0  0  0  0
  -21.6552   -6.8793   21.4272 O   0  0  0  0  0  0
  -22.3482  -14.5318   20.6789 O   0  0  0  0  0  0
  -24.6338  -31.8541   23.1981 C   0  0  0  0  0  0
  -25.9140  -32.4732   23.8314 C   0  0  1  0  0  0
  -27.2365  -27.2744   20.1108 C   0  0  0  0  0  0
  -25.5943  -33.8554   24.2245 N   0  0  0  0  0  0
  -23.4297  -30.4755   21.5453 C   0  0  2  0  0  0
  -24.8771  -28.9236   20.1119 C   0  0  0  0  0  0
  -22.7527  -29.4568   22.4963 C   0  0  0  0  0  0
  -18.0338  -28.1335   22.8476 C   0  0  0  0  0  0
  -24.1492  -36.7262   23.2640 C   0  0  0  0  0  0
  -25.9763  -30.7606   21.3860 C   0  0  0  0  0  0
  -26.0475  -29.3890   20.7242 C   0  0  0  0  0  0
  -27.2260  -28.5758   20.7140 C   0  0  0  0  0  0
  -26.0376  -26.8822   19.4593 C   0  0  0  0  0  0
  -24.8768  -27.6753   19.4743 C   0  0  0  0  0  0
  -23.6473  -29.8063   20.1630 C   0  0  0  0  0  0
  -25.4121  -36.3063   24.0335 C   0  0  1  0  0  0
  -20.5929  -28.3656   23.1268 C   0  0  2  0  0  0
  -20.6846  -26.9390   22.5346 C   0  0  0  0  0  0
  -19.5823  -26.6426   21.5153 C   0  0  0  0  0  0
  -18.2014  -26.7889   22.1618 C   0  0  0  0  0  0
  -19.1575  -28.8784   23.2926 C   0  0  0  0  0  0
  -18.9497  -30.1299   23.9119 C   0  0  0  0  0  0
  -17.6502  -30.6393   24.0795 C   0  0  0  0  0  0
  -25.9085  -34.9411   23.5091 C   0  0  0  0  0  0
  -16.5398  -29.8962   23.6415 C   0  0  0  0  0  0
  -16.7306  -28.6421   23.0303 C   0  0  0  0  0  0
  -26.4509  -31.6586   25.0717 C   0  0  0  0  0  0
  -25.3718  -31.3722   26.1430 C   0  0  0  0  0  0
  -27.0396  -30.3006   24.6233 C   0  0  0  0  0  0
  -27.6053  -32.4343   25.7500 C   0  0  0  0  0  0
  -27.5574  -37.1789   24.8470 C   0  0  0  0  0  0
  -21.4210  -29.3072   22.3732 N   0  0  0  0  0  0
  -26.4283  -37.3755   23.9416 N   0  0  0  0  0  0
  -24.6969  -31.0480   22.0972 N   0  0  0  0  0  0
  -23.4236  -28.8116   23.3043 O   0  0  0  0  0  0
  -28.3497  -26.3984   20.1704 O   0  0  0  0  0  0
  -26.5614  -34.8911   22.4642 O   0  0  0  0  0  0
  -23.5475  -32.1367   23.7253 O   0  0  0  0  0  0
  -25.8064  -18.5094   21.2667 C   0  0  0  0  0  0
  -25.6700  -20.5453   19.9677 C   0  0  0  0  0  0
  -25.2535  -19.7986   21.0902 C   0  0  0  0  0  0
  -26.6811  -18.0408   20.2602 C   0  0  0  0  0  0
  -26.8073  -20.1284   19.2292 C   0  0  0  0  0  0
  -27.5465  -19.0058   19.7229 C   0  0  0  0  0  0
  -30.0179  -22.8519   19.5331 C   0  0  0  0  0  0
  -29.0849  -23.7418   20.4080 C   0  0  2  0  0  0
  -28.4442  -22.3375   20.6849 C   0  0  2  0  0  0
  -24.1725  -20.3332   22.0105 C   0  0  0  0  0  0
  -25.8550  -17.4262   19.1192 C   0  0  0  0  0  0
  -27.0341  -20.8154   17.8833 C   0  0  0  0  0  0
  -28.9724  -22.0366   23.1913 C   0  0  0  0  0  0
  -26.7279  -22.9046   22.4534 C   0  0  0  0  0  0
  -28.1645  -24.9444   19.8415 C   0  0  0  0  0  0
  -29.8783  -17.5600   20.4439 C   0  0  0  0  0  0
  -29.8680  -20.2691   19.4992 C   0  0  0  0  0  0
  -29.0941  -18.8143   19.6418 C   0  0  1  0  0  0
  -27.9061  -21.9890   22.0849 C   0  0  0  0  0  0
  -29.6267  -16.0158   20.3491 N   0  0  0  0  0  0
  -29.6960  -21.6034   20.3032 N   0  3  1  0  0  0
  -31.4754  -12.7644   19.1227 H   0  0  0  0  0  0
  -30.5089  -11.5894   19.9813 H   0  0  0  0  0  0
  -29.8262  -11.7214   17.5654 H   0  0  0  0  0  0
  -29.6201  -13.4505   17.6954 H   0  0  0  0  0  0
  -27.9396  -11.2620   18.9544 H   0  0  0  0  0  0
  -27.3932  -12.4592   17.8296 H   0  0  0  0  0  0
  -27.5920  -14.2357   19.4555 H   0  0  0  0  0  0
  -28.7407  -12.2579   21.4680 H   0  0  0  0  0  0
  -28.3823  -13.9348   21.7680 H   0  0  0  0  0  0
  -25.2681   -9.5501   22.4762 H   0  0  0  0  0  0
  -23.9919   -7.4467   22.7477 H   0  0  0  0  0  0
  -21.0732   -8.8654   19.8929 H   0  0  0  0  0  0
  -22.3664  -10.9541   19.6169 H   0  0  0  0  0  0
  -21.1932   -7.6118   23.9721 H   0  0  0  0  0  0
  -21.1465   -6.0516   25.9108 H   0  0  0  0  0  0
  -22.0610   -2.7585   23.2902 H   0  0  0  0  0  0
  -22.3721  -11.9676   22.4869 H   0  0  0  0  0  0
  -21.0900  -13.1234   22.2649 H   0  0  0  0  0  0
  -24.6856  -15.7562   20.8803 H   0  0  0  0  0  0
  -26.2865  -15.6095   20.3974 H   0  0  0  0  0  0
  -26.7189  -32.5342   23.1037 H   0  0  0  0  0  0
  -25.0119  -33.9681   25.0418 H   0  0  0  0  0  0
  -22.7290  -31.2998   21.3968 H   0  0  0  0  0  0
  -23.3761  -35.9587   23.3309 H   0  0  0  0  0  0
  -24.3559  -36.8868   22.2041 H   0  0  0  0  0  0
  -23.7241  -37.6465   23.6668 H   0  0  0  0  0  0
  -26.1231  -31.5201   20.6166 H   0  0  0  0  0  0
  -26.8482  -30.8032   22.0278 H   0  0  0  0  0  0
  -28.1238  -28.9229   21.2062 H   0  0  0  0  0  0
  -25.9537  -25.9426   18.9358 H   0  0  0  0  0  0
  -23.9825  -27.3178   18.9849 H   0  0  0  0  0  0
  -23.7692  -30.5797   19.4038 H   0  0  0  0  0  0
  -22.7640  -29.2388   19.8642 H   0  0  0  0  0  0
  -25.1315  -36.1888   25.0826 H   0  0  0  0  0  0
  -21.0047  -28.3138   24.1337 H   0  0  0  0  0  0
  -21.6695  -26.7488   22.1071 H   0  0  0  0  0  0
  -20.5879  -26.2222   23.3516 H   0  0  0  0  0  0
  -19.7094  -25.6395   21.1091 H   0  0  0  0  0  0
  -19.6768  -27.3305   20.6738 H   0  0  0  0  0  0
  -17.4264  -26.6545   21.4046 H   0  0  0  0  0  0
  -18.0570  -25.9974   22.9016 H   0  0  0  0  0  0
  -19.7977  -30.7006   24.2672 H   0  0  0  0  0  0
  -17.5037  -31.5935   24.5656 H   0  0  0  0  0  0
  -15.5416  -30.2818   23.7810 H   0  0  0  0  0  0
  -15.8730  -28.0740   22.6999 H   0  0  0  0  0  0
  -24.5895  -30.7093   25.7718 H   0  0  0  0  0  0
  -24.8924  -32.2902   26.4850 H   0  0  0  0  0  0
  -25.8012  -30.8866   27.0216 H   0  0  0  0  0  0
  -26.3009  -29.6713   24.1258 H   0  0  0  0  0  0
  -27.4089  -29.7296   25.4770 H   0  0  0  0  0  0
  -27.8889  -30.4286   23.9510 H   0  0  0  0  0  0
  -27.2653  -33.3651   26.2065 H   0  0  0  0  0  0
  -28.3873  -32.6895   25.0335 H   0  0  0  0  0  0
  -28.0741  -31.8490   26.5422 H   0  0  0  0  0  0
  -28.2612  -38.0062   24.7510 H   0  0  0  0  0  0
  -28.1058  -36.2599   24.6341 H   0  0  0  0  0  0
  -27.2292  -37.1489   25.8870 H   0  0  0  0  0  0
  -20.9363  -29.8852   21.7028 H   0  0  0  0  0  0
  -26.0165  -38.2844   24.1391 H   0  0  0  0  0  0
  -25.3382  -17.8174   21.9531 H   0  0  0  0  0  0
  -25.1247  -21.4356   19.6791 H   0  0  0  0  0  0
  -31.0757  -23.1272   19.5758 H   0  0  0  0  0  0
  -29.6677  -22.8102   18.4954 H   0  0  0  0  0  0
  -29.6356  -24.0698   21.2844 H   0  0  0  0  0  0
  -27.6821  -22.2572   19.9312 H   0  0  0  0  0  0
  -23.2014  -19.9244   21.7433 H   0  0  0  0  0  0
  -24.1203  -21.4212   21.9382 H   0  0  0  0  0  0
  -24.3875  -20.0856   23.0495 H   0  0  0  0  0  0
  -25.7025  -18.0999   18.2785 H   0  0  0  0  0  0
  -24.8348  -17.2147   19.4454 H   0  0  0  0  0  0
  -26.3168  -16.5318   18.6999 H   0  0  0  0  0  0
  -26.6398  -21.8342   17.9132 H   0  0  0  0  0  0
  -26.4471  -20.2804   17.1316 H   0  0  0  0  0  0
  -28.0448  -20.8527   17.5149 H   0  0  0  0  0  0
  -29.7660  -21.3062   23.0317 H   0  0  0  0  0  0
  -28.5265  -21.8035   24.1587 H   0  0  0  0  0  0
  -29.4284  -23.0226   23.2918 H   0  0  0  0  0  0
  -26.2339  -22.5464   23.3583 H   0  0  0  0  0  0
  -25.9886  -22.9229   21.6560 H   0  0  0  0  0  0
  -27.0533  -23.9305   22.6251 H   0  0  0  0  0  0
  -27.1662  -24.6831   20.1750 H   0  0  0  0  0  0
  -28.1206  -24.8626   18.7519 H   0  0  0  0  0  0
  -30.9310  -17.6574   20.2065 H   0  0  0  0  0  0
  -29.7875  -17.7979   21.5043 H   0  0  0  0  0  0
  -30.9308  -20.0358   19.5468 H   0  0  0  0  0  0
  -29.7720  -20.5535   18.4585 H   0  0  0  0  0  0
  -29.1790  -18.4288   18.6234 H   0  0  0  0  0  0
  -27.5353  -20.9633   22.0700 H   0  0  0  0  0  0
  -28.6529  -15.7719   20.4080 H   0  0  0  0  0  0
  -30.2827  -21.5603   21.1229 H   0  0  0  0  0  0
  1 25  1  0  0  0
  1 30  2  0  0  0
  1 90  1  0  0  0
  2  3  1  0  0  0
  2 25  1  0  0  0
  2 92  1  0  0  0
  2 93  1  0  0  0
  3  4  1  0  0  0
  3 94  1  0  0  0
  3 95  1  0  0  0
  4  5  1  0  0  0
  4 96  1  0  0  0
  4 97  1  0  0  0
  5  6  1  0  0  0
  5 26  1  0  0  0
  5 98  1  0  0  0
  6 25  1  0  0  0
  6 99  1  0  0  0
  6100  1  0  0  0
  7  8  2  0  0  0
  7 26  1  0  0  0
  7 29  1  0  0  0
  8  9  1  0  0  0
  8 22  1  0  0  0
  9 10  1  0  0  0
  9 27  2  0  0  0
 10 11  2  0  0  0
 10 15  1  0  0  0
 11 12  1  0  0  0
 11101  1  0  0  0
 12 13  2  0  0  0
 12102  1  0  0  0
 13 14  1  0  0  0
 13 31  1  0  0  0
 14 15  2  0  0  0
 14103  1  0  0  0
 15104  1  0  0  0
 16 17  2  0  0  0
 16 21  1  0  0  0
 16 31  1  0  0  0
 17 18  1  0  0  0
 17105  1  0  0  0
 18 19  2  0  0  0
 18106  1  0  0  0
 19 20  1  0  0  0
 19 24  1  0  0  0
 20 21  2  0  0  0
 20107  1  0  0  0
 21 23  1  0  0  0
 22 28  1  0  0  0
 22 32  2  0  0  0
 26 27  1  0  0  0
 28108  1  0  0  0
 28109  1  0  0  0
 29110  1  0  0  0
 29111  1  0  0  0
 33 34  1  0  0  0
 33 66  1  0  0  0
 33 70  2  0  0  0
 34 36  1  0  0  0
 34 59  1  0  0  0
 34112  1  0  0  0
 35 44  2  0  0  0
 35 45  1  0  0  0
 35 68  1  0  0  0
 36 56  1  0  0  0
 36113  1  0  0  0
 37 39  1  0  0  0
 37 47  1  0  0  0
 37 66  1  0  0  0
 37114  1  0  0  0
 38 43  2  0  0  0
 38 46  1  0  0  0
 38 47  1  0  0  0
 39 64  1  0  0  0
 39 67  2  0  0  0
 40 52  1  0  0  0
 40 53  2  0  0  0
 40 58  1  0  0  0
 41115  1  0  0  0
 41116  1  0  0  0
 41117  1  0  0  0
 41 48  1  0  0  0
 42 43  1  0  0  0
 42 66  1  0  0  0
 42118  1  0  0  0
 42119  1  0  0  0
 43 44  1  0  0  0
 44120  1  0  0  0
 45 46  2  0  0  0
 45121  1  0  0  0
 46122  1  0  0  0
 47123  1  0  0  0
 47124  1  0  0  0
 48 56  1  0  0  0
 48 65  1  0  0  0
 48125  1  0  0  0
 49 50  1  0  0  0
 49 53  1  0  0  0
 49 64  1  0  0  0
 49126  1  0  0  0
 50 51  1  0  0  0
 50127  1  0  0  0
 50128  1  0  0  0
 51 52  1  0  0  0
 51129  1  0  0  0
 51130  1  0  0  0
 52131  1  0  0  0
 52132  1  0  0  0
 53 54  1  0  0  0
 54 55  2  0  0  0
 54133  1  0  0  0
 55 57  1  0  0  0
 55134  1  0  0  0
 56 69  2  0  0  0
 57 58  2  0  0  0
 57135  1  0  0  0
 58136  1  0  0  0
 59 60  1  0  0  0
 59 61  1  0  0  0
 59 62  1  0  0  0
 60137  1  0  0  0
 60138  1  0  0  0
 60139  1  0  0  0
 61140  1  0  0  0
 61141  1  0  0  0
 61142  1  0  0  0
 62143  1  0  0  0
 62144  1  0  0  0
 62145  1  0  0  0
 63 65  1  0  0  0
 63146  1  0  0  0
 63147  1  0  0  0
 63148  1  0  0  0
 64149  1  0  0  0
 65150  1  0  0  0
 68 85  1  0  0  0
 71 73  2  0  0  0
 71 74  1  0  0  0
 71151  1  0  0  0
 72 73  1  0  0  0
 72 75  2  0  0  0
 72152  1  0  0  0
 73 80  1  0  0  0
 74 76  2  0  0  0
 74 81  1  0  0  0
 75 76  1  0  0  0
 75 82  1  0  0  0
 76 88  1  0  0  0
 77 78  1  0  0  0
 77 91  1  0  0  0
 77153  1  0  0  0
 77154  1  0  0  0
 78 79  1  0  0  0
 78 85  1  0  0  0
 78155  1  0  0  0
 79 89  1  0  0  0
 79 91  1  0  0  0
 79156  1  0  0  0
 80157  1  0  0  0
 80158  1  0  0  0
 80159  1  0  0  0
 81160  1  0  0  0
 81161  1  0  0  0
 81162  1  0  0  0
 82163  1  0  0  0
 82164  1  0  0  0
 82165  1  0  0  0
 83166  1  0  0  0
 83167  1  0  0  0
 83168  1  0  0  0
 83 89  1  0  0  0
 84 89  1  0  0  0
 84169  1  0  0  0
 84170  1  0  0  0
 84171  1  0  0  0
 85172  1  0  0  0
 85173  1  0  0  0
 86 90  1  0  0  0
 86174  1  0  0  0
 86175  1  0  0  0
 86 88  1  0  0  0
 87 88  1  0  0  0
 87176  1  0  0  0
 87177  1  0  0  0
 87 91  1  0  0  0
 88178  1  0  0  0
 89179  1  0  0  0
 90180  1  0  0  0
 91181  1  0  0  0
M  CHG  1  91   1
M  ISO  4   1 100  68 101  85 101  90 100
M  END
> <chiral flag>
0

> <version>
0

> <s_m_source_file>
/data/baiqing/PycharmProjects/Reinvent-master-3.2/result/LINK_invent/BTK/process_docking_weight1_custom_sum_contain_oxygen_bond_distance_aromatic_linkinvent_7_9_3/rearranged_h_0157.sdf

> <i_m_source_file_index>
27

> <r_mmod_Potential_Energy-OPLS-2005>
615.97607421875

> <r_mmod_Stretch_Energy-OPLS-2005>
176.270706176758

> <r_mmod_Bend_Energy-OPLS-2005>
338.042633056641

> <r_mmod_Torsional_Energy-OPLS-2005>
519.400817871094

> <r_mmod_Improper_Torsional_Energy-OPLS-2005>
28.1822547912598

> <r_mmod_Van_der_Waal_Energy-OPLS-2005>
172.950942993164

> <r_mmod_Electrostatic_Energy-OPLS-2005>
-337.675933837891

> <r_mmod_Solvation_Energy-OPLS-2005>
-424.129760742188

> <b_mmod_Minimization_Converged-OPLS-2005>
0

> <r_mmod_RMS_Derivative-OPLS-2005>
9.34311389923096

$$$$
27
                    3D
 Structure written by MMmdl.
164172  0  0  1  0            999 V2000
  -30.6211  -14.7297   20.4290 C   0  0  0  0  0  0
  -30.4301  -12.4412   19.4573 C   0  0  0  0  0  0
  -29.5015  -12.4969   18.2254 C   0  0  0  0  0  0
  -28.0289  -12.3254   18.6455 C   0  0  0  0  0  0
  -27.6421  -13.2269   19.8486 C   0  0  2  0  0  0
  -28.6913  -13.1645   20.9799 C   0  0  0  0  0  0
  -25.2528  -13.8222   20.5716 C   0  0  0  0  0  0
  -24.1806  -13.0457   20.9225 C   0  0  0  0  0  0
  -24.6387  -11.6942   20.8761 C   0  0  0  0  0  0
  -23.9071  -10.4320   21.0424 C   0  0  0  0  0  0
  -24.3625   -9.4241   21.9194 C   0  0  0  0  0  0
  -23.6308   -8.2262   22.0767 C   0  0  0  0  0  0
  -22.4294   -8.0293   21.3562 C   0  0  0  0  0  0
  -21.9928   -9.0268   20.4661 C   0  0  0  0  0  0
  -22.7240  -10.2154   20.3072 C   0  0  0  0  0  0
  -21.6865   -6.0748   22.5294 C   0  0  0  0  0  0
  -21.4020   -6.5648   23.8231 C   0  0  0  0  0  0
  -21.3653   -5.6794   24.9183 C   0  0  0  0  0  0
  -21.6038   -4.3062   24.7230 C   0  0  0  0  0  0
  -21.8810   -3.8159   23.4352 C   0  0  0  0  0  0
  -21.9201   -4.6973   22.3414 C   0  0  0  0  0  0
  -22.7830  -13.5254   21.1872 C   0  0  0  0  0  0
  -22.1673   -4.2162   21.0985 F   0  0  0  0  0  0
  -21.5631   -3.4547   25.7741 F   0  0  0  0  0  0
  -29.9916  -13.5073   20.3869 N   0  0  0  0  0  0
  -26.2942  -12.9408   20.3316 N   0  0  0  0  0  0
  -25.9316  -11.6554   20.5771 N   0  0  0  0  0  0
  -22.0448  -12.8230   22.0403 N   0  0  0  0  0  0
  -25.4186  -15.1952   20.4142 N   0  0  0  0  0  0
  -31.8163  -14.8194   20.1395 O   0  0  0  0  0  0
  -21.6657   -6.8888   21.4249 O   0  0  0  0  0  0
  -22.3535  -14.5562   20.6728 O   0  0  0  0  0  0
  -24.6316  -31.8524   23.1918 C   0  0  0  0  0  0
  -25.9140  -32.4725   23.8287 C   0  0  1  0  0  0
  -27.2365  -27.2553   20.1194 C   0  0  0  0  0  0
  -25.5941  -33.8530   24.2191 N   0  0  0  0  0  0
  -23.4273  -30.4654   21.5385 C   0  0  2  0  0  0
  -24.8814  -28.9098   20.1047 C   0  0  0  0  0  0
  -22.7505  -29.4567   22.4977 C   0  0  0  0  0  0
  -18.0289  -28.1376   22.8515 C   0  0  0  0  0  0
  -24.1504  -36.7261   23.2636 C   0  0  0  0  0  0
  -25.9728  -30.7608   21.3754 C   0  0  0  0  0  0
  -26.0486  -29.3842   20.7131 C   0  0  0  0  0  0
  -27.2233  -28.5656   20.7103 C   0  0  0  0  0  0
  -26.0379  -26.8398   19.4954 C   0  0  0  0  0  0
  -24.8830  -27.6499   19.4848 C   0  0  0  0  0  0
  -23.6410  -29.7800   20.1610 C   0  0  0  0  0  0
  -25.4141  -36.3031   24.0305 C   0  0  1  0  0  0
  -20.5890  -28.3661   23.1312 C   0  0  2  0  0  0
  -20.6774  -26.9395   22.5406 C   0  0  0  0  0  0
  -19.5730  -26.6363   21.5230 C   0  0  0  0  0  0
  -18.1908  -26.7928   22.1641 C   0  0  0  0  0  0
  -19.1541  -28.8851   23.2885 C   0  0  0  0  0  0
  -18.9458  -30.1474   23.8866 C   0  0  0  0  0  0
  -17.6446  -30.6591   24.0540 C   0  0  0  0  0  0
  -25.9077  -34.9416   23.5041 C   0  0  0  0  0  0
  -16.5340  -29.9059   23.6355 C   0  0  0  0  0  0
  -16.7272  -28.6478   23.0383 C   0  0  0  0  0  0
  -26.4490  -31.6613   25.0736 C   0  0  0  0  0  0
  -25.3653  -31.3795   26.1405 C   0  0  0  0  0  0
  -27.0378  -30.3033   24.6291 C   0  0  0  0  0  0
  -27.6000  -32.4420   25.7524 C   0  0  0  0  0  0
  -27.5577  -37.1778   24.8461 C   0  0  0  0  0  0
  -21.4218  -29.3003   22.3721 N   0  0  0  0  0  0
  -26.4296  -37.3740   23.9406 N   0  0  0  0  0  0
  -24.6958  -31.0448   22.0914 N   0  0  0  0  0  0
  -23.4214  -28.8141   23.3084 O   0  0  0  0  0  0
  -28.3664  -26.4064   20.2064 O   0  0  0  0  0  0
  -26.5627  -34.8884   22.4600 O   0  0  0  0  0  0
  -23.5466  -32.1396   23.7180 O   0  0  0  0  0  0
  -27.7360  -23.6565   21.5994 C   0  0  0  0  0  0
  -29.0523  -22.4276   19.9812 C   0  0  0  0  0  0
  -28.4533  -23.6892   20.3968 C   0  0  0  0  0  0
  -27.5959  -22.4652   22.3463 C   0  0  0  0  0  0
  -28.1657  -21.2244   21.9132 C   0  0  0  0  0  0
  -28.9329  -21.1655   20.7040 C   0  0  0  0  0  0
  -26.8181  -22.5684   23.6504 C   0  0  0  0  0  0
  -26.4998  -18.0393   23.2421 C   0  0  0  0  0  0
  -27.9756  -19.9928   22.8094 C   0  0  0  0  0  0
  -28.5001  -25.0501   19.5646 C   0  0  0  0  0  0
  -29.1860  -18.5010   20.2210 C   0  0  0  0  0  0
  -30.2861  -17.3349   20.4564 C   0  0  0  0  0  0
  -29.6356  -19.9576   20.2789 N   0  0  0  0  0  0
  -29.8509  -15.8731   20.5711 N   0  0  0  0  0  0
  -26.6684  -19.3435   22.5689 N   0  3  0  0  0  0
  -31.4705  -12.5572   19.1492 H   0  0  0  0  0  0
  -30.3702  -11.4655   19.9411 H   0  0  0  0  0  0
  -29.7769  -11.7233   17.5083 H   0  0  0  0  0  0
  -29.6252  -13.4512   17.7100 H   0  0  0  0  0  0
  -27.8769  -11.2755   18.9009 H   0  0  0  0  0  0
  -27.3711  -12.5240   17.7999 H   0  0  0  0  0  0
  -27.6370  -14.2485   19.4669 H   0  0  0  0  0  0
  -28.7260  -12.1718   21.4310 H   0  0  0  0  0  0
  -28.4306  -13.8552   21.7839 H   0  0  0  0  0  0
  -25.2759   -9.5725   22.4786 H   0  0  0  0  0  0
  -24.0020   -7.4659   22.7493 H   0  0  0  0  0  0
  -21.0863   -8.8783   19.8966 H   0  0  0  0  0  0
  -22.3691  -10.9700   19.6202 H   0  0  0  0  0  0
  -21.2009   -7.6157   23.9733 H   0  0  0  0  0  0
  -21.1484   -6.0527   25.9082 H   0  0  0  0  0  0
  -22.0586   -2.7622   23.2851 H   0  0  0  0  0  0
  -22.4037  -11.9883   22.4788 H   0  0  0  0  0  0
  -21.1066  -13.1271   22.2583 H   0  0  0  0  0  0
  -24.6228  -15.8214   20.4663 H   0  0  0  0  0  0
  -26.2344  -15.6301   20.0038 H   0  0  0  0  0  0
  -26.7193  -32.5351   23.1016 H   0  0  0  0  0  0
  -25.0136  -33.9678   25.0364 H   0  0  0  0  0  0
  -22.7220  -31.2843   21.3800 H   0  0  0  0  0  0
  -23.3770  -35.9585   23.3310 H   0  0  0  0  0  0
  -24.3565  -36.8899   22.2041 H   0  0  0  0  0  0
  -23.7266  -37.6459   23.6686 H   0  0  0  0  0  0
  -26.1114  -31.5289   20.6132 H   0  0  0  0  0  0
  -26.8464  -30.8040   22.0151 H   0  0  0  0  0  0
  -28.1191  -28.9214   21.2003 H   0  0  0  0  0  0
  -25.9581  -25.8640   19.0400 H   0  0  0  0  0  0
  -23.9838  -27.2834   19.0082 H   0  0  0  0  0  0
  -23.7180  -30.5346   19.3786 H   0  0  0  0  0  0
  -22.7715  -29.1738   19.8975 H   0  0  0  0  0  0
  -25.1335  -36.1832   25.0794 H   0  0  0  0  0  0
  -20.9931  -28.3172   24.1449 H   0  0  0  0  0  0
  -20.5702  -26.2260   23.3589 H   0  0  0  0  0  0
  -21.6630  -26.7436   22.1155 H   0  0  0  0  0  0
  -19.6879  -25.6258   21.1278 H   0  0  0  0  0  0
  -19.6652  -27.3162   20.6748 H   0  0  0  0  0  0
  -17.4180  -26.6724   21.4023 H   0  0  0  0  0  0
  -18.0253  -26.0066   22.9024 H   0  0  0  0  0  0
  -19.7920  -30.7329   24.2185 H   0  0  0  0  0  0
  -17.4981  -31.6283   24.5117 H   0  0  0  0  0  0
  -15.5327  -30.2915   23.7726 H   0  0  0  0  0  0
  -15.8688  -28.0769   22.7121 H   0  0  0  0  0  0
  -24.5823  -30.7180   25.7694 H   0  0  0  0  0  0
  -24.8838  -32.2970   26.4789 H   0  0  0  0  0  0
  -25.7870  -30.8965   27.0225 H   0  0  0  0  0  0
  -26.3017  -29.6767   24.1237 H   0  0  0  0  0  0
  -27.3966  -29.7329   25.4873 H   0  0  0  0  0  0
  -27.8915  -30.4353   23.9641 H   0  0  0  0  0  0
  -27.2586  -33.3757   26.2020 H   0  0  0  0  0  0
  -28.3829  -32.6951   25.0364 H   0  0  0  0  0  0
  -28.0656  -31.8625   26.5509 H   0  0  0  0  0  0
  -28.2557  -38.0105   24.7525 H   0  0  0  0  0  0
  -28.1106  -36.2625   24.6283 H   0  0  0  0  0  0
  -27.2279  -37.1409   25.8854 H   0  0  0  0  0  0
  -20.9430  -29.8751   21.6937 H   0  0  0  0  0  0
  -26.0165  -38.2818   24.1364 H   0  0  0  0  0  0
  -27.2827  -24.5729   21.9533 H   0  0  0  0  0  0
  -29.6261  -22.4397   19.0650 H   0  0  0  0  0  0
  -26.3434  -23.5442   23.7578 H   0  0  0  0  0  0
  -27.4846  -22.4338   24.5034 H   0  0  0  0  0  0
  -26.0249  -21.8231   23.6975 H   0  0  0  0  0  0
  -25.5034  -17.6389   23.0520 H   0  0  0  0  0  0
  -26.6251  -18.1338   24.3211 H   0  0  0  0  0  0
  -27.2252  -17.3131   22.8744 H   0  0  0  0  0  0
  -28.0421  -20.2691   23.8599 H   0  0  0  0  0  0
  -28.7960  -19.2895   22.6826 H   0  0  0  0  0  0
  -27.8366  -24.9494   18.7090 H   0  0  0  0  0  0
  -29.4960  -25.0619   19.1219 H   0  0  0  0  0  0
  -28.3473  -18.3124   20.8785 H   0  0  0  0  0  0
  -28.7678  -18.3530   19.2236 H   0  0  0  0  0  0
  -30.8349  -17.5612   21.3716 H   0  0  0  0  0  0
  -31.0298  -17.3941   19.6597 H   0  0  0  0  0  0
  -30.4311  -20.1404   19.6697 H   0  0  0  0  0  0
  -28.8740  -15.7111   20.7598 H   0  0  0  0  0  0
  -25.9427  -19.9614   22.8898 H   0  0  0  0  0  0
  -26.5413  -19.2230   21.5780 H   0  0  0  0  0  0
  1 25  1  0  0  0
  1 30  2  0  0  0
  1 84  1  0  0  0
  2  3  1  0  0  0
  2 25  1  0  0  0
  2 86  1  0  0  0
  2 87  1  0  0  0
  3  4  1  0  0  0
  3 88  1  0  0  0
  3 89  1  0  0  0
  4  5  1  0  0  0
  4 90  1  0  0  0
  4 91  1  0  0  0
  5  6  1  0  0  0
  5 26  1  0  0  0
  5 92  1  0  0  0
  6 25  1  0  0  0
  6 93  1  0  0  0
  6 94  1  0  0  0
  7  8  2  0  0  0
  7 26  1  0  0  0
  7 29  1  0  0  0
  8  9  1  0  0  0
  8 22  1  0  0  0
  9 10  1  0  0  0
  9 27  2  0  0  0
 10 11  2  0  0  0
 10 15  1  0  0  0
 11 12  1  0  0  0
 11 95  1  0  0  0
 12 13  2  0  0  0
 12 96  1  0  0  0
 13 14  1  0  0  0
 13 31  1  0  0  0
 14 15  2  0  0  0
 14 97  1  0  0  0
 15 98  1  0  0  0
 16 17  2  0  0  0
 16 21  1  0  0  0
 16 31  1  0  0  0
 17 18  1  0  0  0
 17 99  1  0  0  0
 18 19  2  0  0  0
 18100  1  0  0  0
 19 20  1  0  0  0
 19 24  1  0  0  0
 20 21  2  0  0  0
 20101  1  0  0  0
 21 23  1  0  0  0
 22 28  1  0  0  0
 22 32  2  0  0  0
 26 27  1  0  0  0
 28102  1  0  0  0
 28103  1  0  0  0
 29104  1  0  0  0
 29105  1  0  0  0
 33 34  1  0  0  0
 33 66  1  0  0  0
 33 70  2  0  0  0
 34 36  1  0  0  0
 34 59  1  0  0  0
 34106  1  0  0  0
 35 44  2  0  0  0
 35 45  1  0  0  0
 35 68  1  0  0  0
 36 56  1  0  0  0
 36107  1  0  0  0
 37 39  1  0  0  0
 37 47  1  0  0  0
 37 66  1  0  0  0
 37108  1  0  0  0
 38 43  2  0  0  0
 38 46  1  0  0  0
 38 47  1  0  0  0
 39 64  1  0  0  0
 39 67  2  0  0  0
 40 52  1  0  0  0
 40 53  2  0  0  0
 40 58  1  0  0  0
 41109  1  0  0  0
 41110  1  0  0  0
 41111  1  0  0  0
 41 48  1  0  0  0
 42 43  1  0  0  0
 42 66  1  0  0  0
 42112  1  0  0  0
 42113  1  0  0  0
 43 44  1  0  0  0
 44114  1  0  0  0
 45 46  2  0  0  0
 45115  1  0  0  0
 46116  1  0  0  0
 47117  1  0  0  0
 47118  1  0  0  0
 48 56  1  0  0  0
 48 65  1  0  0  0
 48119  1  0  0  0
 49 50  1  0  0  0
 49 53  1  0  0  0
 49 64  1  0  0  0
 49120  1  0  0  0
 50 51  1  0  0  0
 50121  1  0  0  0
 50122  1  0  0  0
 51 52  1  0  0  0
 51123  1  0  0  0
 51124  1  0  0  0
 52125  1  0  0  0
 52126  1  0  0  0
 53 54  1  0  0  0
 54 55  2  0  0  0
 54127  1  0  0  0
 55 57  1  0  0  0
 55128  1  0  0  0
 56 69  2  0  0  0
 57 58  2  0  0  0
 57129  1  0  0  0
 58130  1  0  0  0
 59 60  1  0  0  0
 59 61  1  0  0  0
 59 62  1  0  0  0
 60131  1  0  0  0
 60132  1  0  0  0
 60133  1  0  0  0
 61134  1  0  0  0
 61135  1  0  0  0
 61136  1  0  0  0
 62137  1  0  0  0
 62138  1  0  0  0
 62139  1  0  0  0
 63 65  1  0  0  0
 63140  1  0  0  0
 63141  1  0  0  0
 63142  1  0  0  0
 64143  1  0  0  0
 65144  1  0  0  0
 68 80  1  0  0  0
 71 73  2  0  0  0
 71 74  1  0  0  0
 71145  1  0  0  0
 72 73  1  0  0  0
 72 76  2  0  0  0
 72146  1  0  0  0
 73 80  1  0  0  0
 74 75  2  0  0  0
 74 77  1  0  0  0
 75 76  1  0  0  0
 75 79  1  0  0  0
 76 83  1  0  0  0
 77147  1  0  0  0
 77148  1  0  0  0
 77149  1  0  0  0
 78 85  1  0  0  0
 78150  1  0  0  0
 78151  1  0  0  0
 78152  1  0  0  0
 79 85  1  0  0  0
 79153  1  0  0  0
 79154  1  0  0  0
 80155  1  0  0  0
 80156  1  0  0  0
 81 82  1  0  0  0
 81 83  1  0  0  0
 81157  1  0  0  0
 81158  1  0  0  0
 82 84  1  0  0  0
 82159  1  0  0  0
 82160  1  0  0  0
 83161  1  0  0  0
 84162  1  0  0  0
 85163  1  0  0  0
 85164  1  0  0  0
M  CHG  1  85   1
M  ISO  4   1 100  68 101  80 101  84 100
M  END
> <chiral flag>
0

> <version>
0

> <s_m_source_file>
/data/baiqing/PycharmProjects/Reinvent-master-3.2/result/LINK_invent/BTK/process_docking_weight1_custom_sum_contain_oxygen_bond_distance_aromatic_linkinvent_7_9_3/rearranged_h_0157.sdf

> <i_m_source_file_index>
28

> <r_mmod_Potential_Energy-OPLS-2005>
-78.0114135742188

> <r_mmod_Stretch_Energy-OPLS-2005>
127.309906005859

> <r_mmod_Bend_Energy-OPLS-2005>
187.731658935547

> <r_mmod_Torsional_Energy-OPLS-2005>
205.87467956543

> <r_mmod_Improper_Torsional_Energy-OPLS-2005>
7.1985821723938

> <r_mmod_Van_der_Waal_Energy-OPLS-2005>
135.981079101562

> <r_mmod_Electrostatic_Energy-OPLS-2005>
-339.749969482422

> <r_mmod_Solvation_Energy-OPLS-2005>
-484.957580566406

> <b_mmod_Minimization_Converged-OPLS-2005>
0

> <r_mmod_RMS_Derivative-OPLS-2005>
3.27932453155518

$$$$
28
                    3D
 Structure written by MMmdl.
167176  0  0  1  0            999 V2000
  -30.7434  -14.4264   20.6138 C   0  0  0  0  0  0
  -30.4217  -12.2994   19.4069 C   0  0  0  0  0  0
  -29.4881  -12.5081   18.1984 C   0  0  0  0  0  0
  -28.0109  -12.3734   18.6173 C   0  0  0  0  0  0
  -27.6654  -13.2091   19.8785 C   0  0  2  0  0  0
  -28.7094  -12.9773   20.9933 C   0  0  0  0  0  0
  -25.2610  -13.8180   20.5698 C   0  0  0  0  0  0
  -24.1847  -13.0452   20.9173 C   0  0  0  0  0  0
  -24.6406  -11.6924   20.8734 C   0  0  0  0  0  0
  -23.9078  -10.4302   21.0406 C   0  0  0  0  0  0
  -24.3628   -9.4210   21.9186 C   0  0  0  0  0  0
  -23.6295   -8.2248   22.0751 C   0  0  0  0  0  0
  -22.4278   -8.0288   21.3544 C   0  0  0  0  0  0
  -21.9915   -9.0269   20.4652 C   0  0  0  0  0  0
  -22.7258  -10.2144   20.3059 C   0  0  0  0  0  0
  -21.6849   -6.0742   22.5284 C   0  0  0  0  0  0
  -21.4003   -6.5644   23.8217 C   0  0  0  0  0  0
  -21.3648   -5.6789   24.9167 C   0  0  0  0  0  0
  -21.6039   -4.3052   24.7214 C   0  0  0  0  0  0
  -21.8820   -3.8149   23.4336 C   0  0  0  0  0  0
  -21.9199   -4.6975   22.3397 C   0  0  0  0  0  0
  -22.7870  -13.5253   21.1837 C   0  0  0  0  0  0
  -22.1663   -4.2162   21.0972 F   0  0  0  0  0  0
  -21.5634   -3.4543   25.7729 F   0  0  0  0  0  0
  -30.0441  -13.2734   20.4417 N   0  0  0  0  0  0
  -26.3055  -12.9360   20.3417 N   0  0  0  0  0  0
  -25.9344  -11.6515   20.5787 N   0  0  0  0  0  0
  -22.0497  -12.8233   22.0376 N   0  0  0  0  0  0
  -25.4337  -15.1894   20.4116 N   0  0  0  0  0  0
  -31.8304  -14.6460   20.0755 O   0  0  0  0  0  0
  -21.6638   -6.8892   21.4250 O   0  0  0  0  0  0
  -22.3565  -14.5584   20.6722 O   0  0  0  0  0  0
  -24.6133  -31.8692   23.2115 C   0  0  0  0  0  0
  -25.9047  -32.4814   23.8388 C   0  0  1  0  0  0
  -27.2335  -27.4534   20.0957 C   0  0  0  0  0  0
  -25.5944  -33.8615   24.2339 N   0  0  0  0  0  0
  -23.3992  -30.4929   21.5511 C   0  0  2  0  0  0
  -24.8465  -28.9630   20.1122 C   0  0  0  0  0  0
  -22.7392  -29.4661   22.4994 C   0  0  0  0  0  0
  -18.0265  -28.1384   22.8463 C   0  0  0  0  0  0
  -24.1486  -36.7276   23.2628 C   0  0  0  0  0  0
  -25.9262  -30.8430   21.3594 C   0  0  0  0  0  0
  -26.0056  -29.4802   20.7038 C   0  0  0  0  0  0
  -27.2055  -28.7357   20.6857 C   0  0  0  0  0  0
  -26.0568  -26.9457   19.4997 C   0  0  0  0  0  0
  -24.8671  -27.6962   19.5035 C   0  0  0  0  0  0
  -23.6055  -29.8255   20.1653 C   0  0  0  0  0  0
  -25.4107  -36.3092   24.0336 C   0  0  1  0  0  0
  -20.5855  -28.3657   23.1325 C   0  0  2  0  0  0
  -20.6754  -26.9375   22.5471 C   0  0  0  0  0  0
  -19.5775  -26.6379   21.5213 C   0  0  0  0  0  0
  -18.1911  -26.7951   22.1544 C   0  0  0  0  0  0
  -19.1517  -28.8831   23.2903 C   0  0  0  0  0  0
  -18.9444  -30.1435   23.8924 C   0  0  0  0  0  0
  -17.6448  -30.6575   24.0584 C   0  0  0  0  0  0
  -25.9047  -34.9468   23.5122 C   0  0  0  0  0  0
  -16.5340  -29.9081   23.6343 C   0  0  0  0  0  0
  -16.7249  -28.6514   23.0323 C   0  0  0  0  0  0
  -26.4473  -31.6574   25.0702 C   0  0  0  0  0  0
  -25.3759  -31.3847   26.1513 C   0  0  0  0  0  0
  -27.0127  -30.2924   24.6104 C   0  0  0  0  0  0
  -27.6203  -32.4179   25.7343 C   0  0  0  0  0  0
  -27.5599  -37.1764   24.8438 C   0  0  0  0  0  0
  -21.4125  -29.3021   22.3730 N   0  0  0  0  0  0
  -26.4276  -37.3791   23.9433 N   0  0  0  0  0  0
  -24.6642  -31.0815   22.0998 N   0  0  0  0  0  0
  -23.4171  -28.8211   23.3040 O   0  0  0  0  0  0
  -28.3975  -26.7200   20.1168 O   0  0  0  0  0  0
  -26.5592  -34.8928   22.4676 O   0  0  0  0  0  0
  -23.5337  -32.1437   23.7531 O   0  0  0  0  0  0
  -29.0243  -21.9448   19.7315 C   0  0  0  0  0  0
  -30.7578  -20.2595   21.1492 C   0  0  0  0  0  0
  -30.1874  -22.4941   20.3111 C   0  0  0  0  0  0
  -31.0743  -21.6282   21.0025 C   0  0  0  0  0  0
  -28.7136  -20.5748   19.8775 C   0  0  0  0  0  0
  -29.5601  -19.7218   20.6217 C   0  0  0  0  0  0
  -32.3920  -22.1289   21.5802 C   0  0  0  0  0  0
  -32.4715  -23.6537   21.7067 C   0  0  0  0  0  0
  -31.9412  -24.3365   20.4422 C   0  0  0  0  0  0
  -30.4566  -24.0043   20.1946 C   0  0  2  0  0  0
  -27.4469  -20.0279   19.2455 C   0  0  0  0  0  0
  -29.5447  -24.8242   21.1454 C   0  0  0  0  0  0
  -30.7044  -16.6779   21.6909 C   0  0  0  0  0  0
  -28.2405  -25.3549   20.5182 C   0  0  0  0  0  0
  -29.6001  -17.7146   21.9728 C   0  0  0  0  0  0
  -30.1498  -15.3590   21.3670 N   0  0  0  0  0  0
  -29.1831  -18.4001   20.7863 O   0  0  0  0  0  0
  -31.4651  -12.3961   19.0991 H   0  0  0  0  0  0
  -30.3219  -11.2853   19.7977 H   0  0  0  0  0  0
  -29.7190  -11.7844   17.4162 H   0  0  0  0  0  0
  -29.6605  -13.4936   17.7615 H   0  0  0  0  0  0
  -27.8183  -11.3181   18.8113 H   0  0  0  0  0  0
  -27.3576  -12.6549   17.7907 H   0  0  0  0  0  0
  -27.7152  -14.2591   19.5903 H   0  0  0  0  0  0
  -28.6808  -11.9399   21.3283 H   0  0  0  0  0  0
  -28.4706  -13.5689   21.8774 H   0  0  0  0  0  0
  -25.2771   -9.5678   22.4760 H   0  0  0  0  0  0
  -24.0001   -7.4627   22.7466 H   0  0  0  0  0  0
  -21.0838   -8.8799   19.8960 H   0  0  0  0  0  0
  -22.3727  -10.9685   19.6158 H   0  0  0  0  0  0
  -21.1977   -7.6152   23.9718 H   0  0  0  0  0  0
  -21.1465   -6.0519   25.9067 H   0  0  0  0  0  0
  -22.0609   -2.7617   23.2830 H   0  0  0  0  0  0
  -22.4090  -11.9868   22.4730 H   0  0  0  0  0  0
  -21.1110  -13.1258   22.2576 H   0  0  0  0  0  0
  -24.6718  -15.8497   20.5246 H   0  0  0  0  0  0
  -26.2953  -15.6297   20.1122 H   0  0  0  0  0  0
  -26.7122  -32.5510   23.1156 H   0  0  0  0  0  0
  -25.0193  -33.9803   25.0545 H   0  0  0  0  0  0
  -22.6868  -31.3095   21.4123 H   0  0  0  0  0  0
  -23.3829  -35.9513   23.3118 H   0  0  0  0  0  0
  -24.3639  -36.9068   22.2084 H   0  0  0  0  0  0
  -23.7116  -37.6369   23.6755 H   0  0  0  0  0  0
  -26.0355  -31.6122   20.5943 H   0  0  0  0  0  0
  -26.8155  -30.8936   21.9757 H   0  0  0  0  0  0
  -28.1033  -29.1308   21.1393 H   0  0  0  0  0  0
  -26.0532  -25.9734   19.0283 H   0  0  0  0  0  0
  -23.9763  -27.2960   19.0395 H   0  0  0  0  0  0
  -23.7067  -30.6007   19.4045 H   0  0  0  0  0  0
  -22.7315  -29.2415   19.8707 H   0  0  0  0  0  0
  -25.1284  -36.1932   25.0820 H   0  0  0  0  0  0
  -20.9948  -28.3241   24.1447 H   0  0  0  0  0  0
  -20.5574  -26.2278   23.3677 H   0  0  0  0  0  0
  -21.6641  -26.7371   22.1322 H   0  0  0  0  0  0
  -19.6953  -25.6298   21.1229 H   0  0  0  0  0  0
  -19.6786  -27.3212   20.6772 H   0  0  0  0  0  0
  -17.4245  -26.6793   21.3870 H   0  0  0  0  0  0
  -18.0203  -26.0042   22.8857 H   0  0  0  0  0  0
  -19.7924  -30.7252   24.2302 H   0  0  0  0  0  0
  -17.4998  -31.6253   24.5185 H   0  0  0  0  0  0
  -15.5345  -30.2992   23.7680 H   0  0  0  0  0  0
  -15.8638  -28.0867   22.6992 H   0  0  0  0  0  0
  -24.5940  -30.7120   25.7969 H   0  0  0  0  0  0
  -24.8944  -32.3062   26.4803 H   0  0  0  0  0  0
  -25.8120  -30.9189   27.0357 H   0  0  0  0  0  0
  -26.2562  -29.6759   24.1233 H   0  0  0  0  0  0
  -27.3839  -29.7144   25.4580 H   0  0  0  0  0  0
  -27.8481  -30.4060   23.9196 H   0  0  0  0  0  0
  -27.3054  -33.3635   26.1757 H   0  0  0  0  0  0
  -28.4072  -32.6408   25.0120 H   0  0  0  0  0  0
  -28.0746  -31.8314   26.5335 H   0  0  0  0  0  0
  -28.2617  -38.0062   24.7490 H   0  0  0  0  0  0
  -28.1090  -36.2608   24.6184 H   0  0  0  0  0  0
  -27.2369  -37.1345   25.8858 H   0  0  0  0  0  0
  -20.9290  -29.8724   21.6931 H   0  0  0  0  0  0
  -26.0153  -38.2842   24.1524 H   0  0  0  0  0  0
  -28.3505  -22.5841   19.1791 H   0  0  0  0  0  0
  -31.4561  -19.6236   21.6748 H   0  0  0  0  0  0
  -33.1922  -21.7829   20.9237 H   0  0  0  0  0  0
  -32.5703  -21.6659   22.5516 H   0  0  0  0  0  0
  -33.4997  -23.9571   21.9081 H   0  0  0  0  0  0
  -31.8829  -23.9776   22.5661 H   0  0  0  0  0  0
  -32.5322  -23.9990   19.5900 H   0  0  0  0  0  0
  -32.0906  -25.4156   20.4965 H   0  0  0  0  0  0
  -30.2379  -24.3091   19.1695 H   0  0  0  0  0  0
  -26.8686  -20.8146   18.7604 H   0  0  0  0  0  0
  -26.8134  -19.5652   20.0024 H   0  0  0  0  0  0
  -27.6896  -19.2775   18.4924 H   0  0  0  0  0  0
  -30.0835  -25.6877   21.5384 H   0  0  0  0  0  0
  -29.3163  -24.2220   22.0270 H   0  0  0  0  0  0
  -31.3095  -16.5588   22.5905 H   0  0  0  0  0  0
  -31.3777  -17.0469   20.9139 H   0  0  0  0  0  0
  -27.4521  -25.2806   21.2720 H   0  0  0  0  0  0
  -27.9259  -24.7451   19.6725 H   0  0  0  0  0  0
  -29.9262  -18.4050   22.7516 H   0  0  0  0  0  0
  -28.7312  -17.2164   22.4041 H   0  0  0  0  0  0
  -29.2503  -15.1221   21.7570 H   0  0  0  0  0  0
  1 25  1  0  0  0
  1 30  2  0  0  0
  1 86  1  0  0  0
  2  3  1  0  0  0
  2 25  1  0  0  0
  2 88  1  0  0  0
  2 89  1  0  0  0
  3  4  1  0  0  0
  3 90  1  0  0  0
  3 91  1  0  0  0
  4  5  1  0  0  0
  4 92  1  0  0  0
  4 93  1  0  0  0
  5  6  1  0  0  0
  5 26  1  0  0  0
  5 94  1  0  0  0
  6 25  1  0  0  0
  6 95  1  0  0  0
  6 96  1  0  0  0
  7  8  2  0  0  0
  7 26  1  0  0  0
  7 29  1  0  0  0
  8  9  1  0  0  0
  8 22  1  0  0  0
  9 10  1  0  0  0
  9 27  2  0  0  0
 10 11  2  0  0  0
 10 15  1  0  0  0
 11 12  1  0  0  0
 11 97  1  0  0  0
 12 13  2  0  0  0
 12 98  1  0  0  0
 13 14  1  0  0  0
 13 31  1  0  0  0
 14 15  2  0  0  0
 14 99  1  0  0  0
 15100  1  0  0  0
 16 17  2  0  0  0
 16 21  1  0  0  0
 16 31  1  0  0  0
 17 18  1  0  0  0
 17101  1  0  0  0
 18 19  2  0  0  0
 18102  1  0  0  0
 19 20  1  0  0  0
 19 24  1  0  0  0
 20 21  2  0  0  0
 20103  1  0  0  0
 21 23  1  0  0  0
 22 28  1  0  0  0
 22 32  2  0  0  0
 26 27  1  0  0  0
 28104  1  0  0  0
 28105  1  0  0  0
 29106  1  0  0  0
 29107  1  0  0  0
 33 34  1  0  0  0
 33 66  1  0  0  0
 33 70  2  0  0  0
 34 36  1  0  0  0
 34 59  1  0  0  0
 34108  1  0  0  0
 35 44  2  0  0  0
 35 45  1  0  0  0
 35 68  1  0  0  0
 36 56  1  0  0  0
 36109  1  0  0  0
 37 39  1  0  0  0
 37 47  1  0  0  0
 37 66  1  0  0  0
 37110  1  0  0  0
 38 43  2  0  0  0
 38 46  1  0  0  0
 38 47  1  0  0  0
 39 64  1  0  0  0
 39 67  2  0  0  0
 40 52  1  0  0  0
 40 53  2  0  0  0
 40 58  1  0  0  0
 41111  1  0  0  0
 41112  1  0  0  0
 41113  1  0  0  0
 41 48  1  0  0  0
 42 43  1  0  0  0
 42 66  1  0  0  0
 42114  1  0  0  0
 42115  1  0  0  0
 43 44  1  0  0  0
 44116  1  0  0  0
 45 46  2  0  0  0
 45117  1  0  0  0
 46118  1  0  0  0
 47119  1  0  0  0
 47120  1  0  0  0
 48 56  1  0  0  0
 48 65  1  0  0  0
 48121  1  0  0  0
 49 50  1  0  0  0
 49 53  1  0  0  0
 49 64  1  0  0  0
 49122  1  0  0  0
 50 51  1  0  0  0
 50123  1  0  0  0
 50124  1  0  0  0
 51 52  1  0  0  0
 51125  1  0  0  0
 51126  1  0  0  0
 52127  1  0  0  0
 52128  1  0  0  0
 53 54  1  0  0  0
 54 55  2  0  0  0
 54129  1  0  0  0
 55 57  1  0  0  0
 55130  1  0  0  0
 56 69  2  0  0  0
 57 58  2  0  0  0
 57131  1  0  0  0
 58132  1  0  0  0
 59 60  1  0  0  0
 59 61  1  0  0  0
 59 62  1  0  0  0
 60133  1  0  0  0
 60134  1  0  0  0
 60135  1  0  0  0
 61136  1  0  0  0
 61137  1  0  0  0
 61138  1  0  0  0
 62139  1  0  0  0
 62140  1  0  0  0
 62141  1  0  0  0
 63 65  1  0  0  0
 63142  1  0  0  0
 63143  1  0  0  0
 63144  1  0  0  0
 64145  1  0  0  0
 65146  1  0  0  0
 68 84  1  0  0  0
 71 73  2  0  0  0
 71 75  1  0  0  0
 71147  1  0  0  0
 72 74  2  0  0  0
 72 76  1  0  0  0
 72148  1  0  0  0
 73 74  1  0  0  0
 73 80  1  0  0  0
 74 77  1  0  0  0
 75 76  2  0  0  0
 75 81  1  0  0  0
 76 87  1  0  0  0
 77 78  1  0  0  0
 77149  1  0  0  0
 77150  1  0  0  0
 78 79  1  0  0  0
 78151  1  0  0  0
 78152  1  0  0  0
 79 80  1  0  0  0
 79153  1  0  0  0
 79154  1  0  0  0
 80 82  1  0  0  0
 80155  1  0  0  0
 81156  1  0  0  0
 81157  1  0  0  0
 81158  1  0  0  0
 82 84  1  0  0  0
 82159  1  0  0  0
 82160  1  0  0  0
 83 85  1  0  0  0
 83 86  1  0  0  0
 83161  1  0  0  0
 83162  1  0  0  0
 84163  1  0  0  0
 84164  1  0  0  0
 85 87  1  0  0  0
 85165  1  0  0  0
 85166  1  0  0  0
 86167  1  0  0  0
M  ISO  4   1 100  68 101  84 101  86 100
M  END
> <chiral flag>
0

> <version>
0

> <s_m_source_file>
/data/baiqing/PycharmProjects/Reinvent-master-3.2/result/LINK_invent/BTK/process_docking_weight1_custom_sum_contain_oxygen_bond_distance_aromatic_linkinvent_7_9_3/rearranged_h_0157.sdf

> <i_m_source_file_index>
29

> <r_mmod_Potential_Energy-OPLS-2005>
-95.0461120605469

> <r_mmod_Stretch_Energy-OPLS-2005>
36.5039978027344

> <r_mmod_Bend_Energy-OPLS-2005>
96.1212692260742

> <r_mmod_Torsional_Energy-OPLS-2005>
248.499740600586

> <r_mmod_Improper_Torsional_Energy-OPLS-2005>
1.91991138458252

> <r_mmod_Van_der_Waal_Energy-OPLS-2005>
162.939498901367

> <r_mmod_Electrostatic_Energy-OPLS-2005>
-443.284820556641

> <r_mmod_Solvation_Energy-OPLS-2005>
-207.83024597168

> <b_mmod_Minimization_Converged-OPLS-2005>
0

> <r_mmod_RMS_Derivative-OPLS-2005>
2.20540523529053

$$$$
29
                    3D
 Structure written by MMmdl.
170179  0  0  1  0            999 V2000
  -30.7709  -14.3650   20.6863 C   0  0  0  0  0  0
  -30.4185  -12.2860   19.4019 C   0  0  0  0  0  0
  -29.4859  -12.5263   18.1993 C   0  0  0  0  0  0
  -28.0110  -12.3771   18.6151 C   0  0  0  0  0  0
  -27.6674  -13.1994   19.8836 C   0  0  2  0  0  0
  -28.7060  -12.9416   21.0007 C   0  0  0  0  0  0
  -25.2542  -13.8105   20.5598 C   0  0  0  0  0  0
  -24.1823  -13.0397   20.9177 C   0  0  0  0  0  0
  -24.6392  -11.6875   20.8750 C   0  0  0  0  0  0
  -23.9058  -10.4271   21.0415 C   0  0  0  0  0  0
  -24.3610   -9.4188   21.9194 C   0  0  0  0  0  0
  -23.6283   -8.2226   22.0757 C   0  0  0  0  0  0
  -22.4267   -8.0269   21.3543 C   0  0  0  0  0  0
  -21.9904   -9.0242   20.4646 C   0  0  0  0  0  0
  -22.7233  -10.2122   20.3059 C   0  0  0  0  0  0
  -21.6847   -6.0728   22.5277 C   0  0  0  0  0  0
  -21.4008   -6.5635   23.8209 C   0  0  0  0  0  0
  -21.3659   -5.6790   24.9174 C   0  0  0  0  0  0
  -21.6046   -4.3053   24.7226 C   0  0  0  0  0  0
  -21.8819   -3.8144   23.4347 C   0  0  0  0  0  0
  -21.9190   -4.6959   22.3402 C   0  0  0  0  0  0
  -22.7847  -13.5208   21.1838 C   0  0  0  0  0  0
  -22.1662   -4.2145   21.0979 F   0  0  0  0  0  0
  -21.5632   -3.4538   25.7741 F   0  0  0  0  0  0
  -30.0551  -13.2287   20.4713 N   0  0  0  0  0  0
  -26.3036  -12.9302   20.3387 N   0  0  0  0  0  0
  -25.9324  -11.6466   20.5804 N   0  0  0  0  0  0
  -22.0491  -12.8210   22.0408 N   0  0  0  0  0  0
  -25.4108  -15.1795   20.3814 N   0  0  0  0  0  0
  -31.7778  -14.6556   20.0324 O   0  0  0  0  0  0
  -21.6630   -6.8869   21.4238 O   0  0  0  0  0  0
  -22.3534  -14.5519   20.6691 O   0  0  0  0  0  0
  -24.6101  -31.8699   23.2117 C   0  0  0  0  0  0
  -25.9013  -32.4831   23.8399 C   0  0  1  0  0  0
  -27.2431  -27.4736   20.0892 C   0  0  0  0  0  0
  -25.5892  -33.8629   24.2335 N   0  0  0  0  0  0
  -23.3958  -30.4917   21.5516 C   0  0  2  0  0  0
  -24.8424  -28.9583   20.1179 C   0  0  0  0  0  0
  -22.7384  -29.4657   22.5013 C   0  0  0  0  0  0
  -18.0262  -28.1374   22.8482 C   0  0  0  0  0  0
  -24.1489  -36.7319   23.2640 C   0  0  0  0  0  0
  -25.9192  -30.8484   21.3569 C   0  0  0  0  0  0
  -25.9980  -29.4844   20.7063 C   0  0  0  0  0  0
  -27.2003  -28.7500   20.6849 C   0  0  0  0  0  0
  -26.0683  -26.9453   19.5059 C   0  0  0  0  0  0
  -24.8706  -27.6867   19.5162 C   0  0  0  0  0  0
  -23.6011  -29.8198   20.1669 C   0  0  0  0  0  0
  -25.4107  -36.3116   24.0343 C   0  0  1  0  0  0
  -20.5851  -28.3647   23.1336 C   0  0  2  0  0  0
  -20.6755  -26.9391   22.5419 C   0  0  0  0  0  0
  -19.5735  -26.6381   21.5211 C   0  0  0  0  0  0
  -18.1911  -26.7919   22.1619 C   0  0  0  0  0  0
  -19.1512  -28.8826   23.2906 C   0  0  0  0  0  0
  -18.9449  -30.1436   23.8914 C   0  0  0  0  0  0
  -17.6454  -30.6582   24.0564 C   0  0  0  0  0  0
  -25.9030  -34.9480   23.5136 C   0  0  0  0  0  0
  -16.5341  -29.9086   23.6329 C   0  0  0  0  0  0
  -16.7254  -28.6507   23.0337 C   0  0  0  0  0  0
  -26.4462  -31.6601   25.0711 C   0  0  0  0  0  0
  -25.3745  -31.3706   26.1476 C   0  0  0  0  0  0
  -27.0286  -30.3053   24.6047 C   0  0  0  0  0  0
  -27.6040  -32.4320   25.7475 C   0  0  0  0  0  0
  -27.5583  -37.1809   24.8462 C   0  0  0  0  0  0
  -21.4116  -29.3024   22.3760 N   0  0  0  0  0  0
  -26.4295  -37.3794   23.9408 N   0  0  0  0  0  0
  -24.6596  -31.0833   22.0995 N   0  0  0  0  0  0
  -23.4178  -28.8197   23.3035 O   0  0  0  0  0  0
  -28.4468  -26.8124   20.0803 O   0  0  0  0  0  0
  -26.5582  -34.8927   22.4692 O   0  0  0  0  0  0
  -23.5303  -32.1427   23.7538 O   0  0  0  0  0  0
  -29.5285  -18.7613   21.5900 C   0  0  0  0  0  0
  -31.9103  -18.5162   22.0154 C   0  0  0  0  0  0
  -30.7938  -19.3469   21.7805 C   0  0  0  0  0  0
  -29.3743  -17.3659   21.6034 C   0  0  0  0  0  0
  -30.5039  -16.5325   21.7720 C   0  0  0  0  0  0
  -31.7787  -17.1020   22.0237 C   0  0  0  0  0  0
  -30.8694  -21.3073   20.2081 C   0  0  0  0  0  0
  -29.9287  -21.6363   22.5325 C   0  0  0  0  0  0
  -30.9557  -22.8349   20.0642 C   0  0  0  0  0  0
  -30.0394  -23.1555   22.3174 C   0  0  0  0  0  0
  -30.9571  -20.8597   21.6793 C   0  0  1  0  0  0
  -27.9904  -16.7928   21.3787 C   0  0  0  0  0  0
  -34.1130  -16.7962   22.5288 C   0  0  0  0  0  0
  -29.8273  -24.9668   20.6351 C   0  0  0  0  0  0
  -28.4290  -25.3944   20.1634 C   0  0  0  0  0  0
  -30.3272  -15.1271   21.6962 N   0  0  0  0  0  0
  -29.9090  -23.5026   20.8775 N   0  3  1  0  0  0
  -32.8297  -16.2413   22.2698 O   0  0  0  0  0  0
  -31.4619  -12.3830   19.0970 H   0  0  0  0  0  0
  -30.3144  -11.2626   19.7655 H   0  0  0  0  0  0
  -29.7195  -11.8261   17.3961 H   0  0  0  0  0  0
  -29.6550  -13.5252   17.7937 H   0  0  0  0  0  0
  -27.8213  -11.3185   18.7975 H   0  0  0  0  0  0
  -27.3564  -12.6655   17.7919 H   0  0  0  0  0  0
  -27.7252  -14.2511   19.6073 H   0  0  0  0  0  0
  -28.6653  -11.8976   21.3151 H   0  0  0  0  0  0
  -28.4492  -13.5141   21.8915 H   0  0  0  0  0  0
  -25.2754   -9.5665   22.4767 H   0  0  0  0  0  0
  -23.9990   -7.4618   22.7475 H   0  0  0  0  0  0
  -21.0837   -8.8760   19.8951 H   0  0  0  0  0  0
  -22.3693  -10.9661   19.6168 H   0  0  0  0  0  0
  -21.1996   -7.6142   23.9711 H   0  0  0  0  0  0
  -21.1484   -6.0522   25.9076 H   0  0  0  0  0  0
  -22.0599   -2.7606   23.2849 H   0  0  0  0  0  0
  -22.4104  -11.9866   22.4793 H   0  0  0  0  0  0
  -21.1114  -13.1245   22.2623 H   0  0  0  0  0  0
  -24.6281  -15.8196   20.4587 H   0  0  0  0  0  0
  -26.2389  -15.6101   19.9944 H   0  0  0  0  0  0
  -26.7089  -32.5558   23.1173 H   0  0  0  0  0  0
  -25.0066  -33.9805   25.0494 H   0  0  0  0  0  0
  -22.6818  -31.3060   21.4126 H   0  0  0  0  0  0
  -23.3749  -35.9654   23.3304 H   0  0  0  0  0  0
  -24.3591  -36.8926   22.2054 H   0  0  0  0  0  0
  -23.7239  -37.6527   23.6646 H   0  0  0  0  0  0
  -26.0223  -31.6156   20.5882 H   0  0  0  0  0  0
  -26.8107  -30.9040   21.9697 H   0  0  0  0  0  0
  -28.0973  -29.1579   21.1302 H   0  0  0  0  0  0
  -26.0675  -25.9776   19.0257 H   0  0  0  0  0  0
  -23.9817  -27.2754   19.0579 H   0  0  0  0  0  0
  -23.7020  -30.5920   19.4033 H   0  0  0  0  0  0
  -22.7273  -29.2337   19.8761 H   0  0  0  0  0  0
  -25.1284  -36.1991   25.0836 H   0  0  0  0  0  0
  -20.9934  -28.3201   24.1461 H   0  0  0  0  0  0
  -20.5660  -26.2250   23.3594 H   0  0  0  0  0  0
  -21.6626  -26.7439   22.1211 H   0  0  0  0  0  0
  -19.6900  -25.6298   21.1225 H   0  0  0  0  0  0
  -19.6690  -27.3206   20.6757 H   0  0  0  0  0  0
  -17.4183  -26.6673   21.4018 H   0  0  0  0  0  0
  -18.0307  -26.0059   22.9015 H   0  0  0  0  0  0
  -19.7928  -30.7240   24.2294 H   0  0  0  0  0  0
  -17.5012  -31.6268   24.5156 H   0  0  0  0  0  0
  -15.5343  -30.2995   23.7647 H   0  0  0  0  0  0
  -15.8650  -28.0841   22.7036 H   0  0  0  0  0  0
  -24.5894  -30.7082   25.7816 H   0  0  0  0  0  0
  -24.8973  -32.2870   26.4958 H   0  0  0  0  0  0
  -25.8107  -30.8843   27.0208 H   0  0  0  0  0  0
  -26.2808  -29.6825   24.1123 H   0  0  0  0  0  0
  -27.4103  -29.7282   25.4479 H   0  0  0  0  0  0
  -27.8623  -30.4398   23.9149 H   0  0  0  0  0  0
  -27.2651  -33.3601   26.2093 H   0  0  0  0  0  0
  -28.3829  -32.6912   25.0291 H   0  0  0  0  0  0
  -28.0728  -31.8420   26.5360 H   0  0  0  0  0  0
  -28.2592  -38.0114   24.7520 H   0  0  0  0  0  0
  -28.1088  -36.2646   24.6275 H   0  0  0  0  0  0
  -27.2305  -37.1445   25.8866 H   0  0  0  0  0  0
  -20.9259  -29.8762   21.7007 H   0  0  0  0  0  0
  -26.0192  -38.2873   24.1413 H   0  0  0  0  0  0
  -28.6634  -19.3796   21.4011 H   0  0  0  0  0  0
  -32.8696  -18.9873   22.1692 H   0  0  0  0  0  0
  -31.6687  -20.8417   19.6304 H   0  0  0  0  0  0
  -29.9350  -20.9596   19.7651 H   0  0  0  0  0  0
  -28.9093  -21.3402   22.2895 H   0  0  0  0  0  0
  -30.0669  -21.4015   23.5886 H   0  0  0  0  0  0
  -30.8384  -23.1030   19.0134 H   0  0  0  0  0  0
  -31.9415  -23.1891   20.3702 H   0  0  0  0  0  0
  -30.9945  -23.5193   22.7000 H   0  0  0  0  0  0
  -29.2604  -23.6593   22.8920 H   0  0  0  0  0  0
  -31.9510  -21.1171   22.0501 H   0  0  0  0  0  0
  -27.2171  -17.5397   21.5609 H   0  0  0  0  0  0
  -27.7887  -15.9517   22.0419 H   0  0  0  0  0  0
  -27.9017  -16.4621   20.3455 H   0  0  0  0  0  0
  -34.8253  -15.9903   22.7054 H   0  0  0  0  0  0
  -34.1046  -17.4261   23.4197 H   0  0  0  0  0  0
  -34.4780  -17.3753   21.6793 H   0  0  0  0  0  0
  -30.0859  -25.5144   21.5430 H   0  0  0  0  0  0
  -30.5593  -25.2799   19.8890 H   0  0  0  0  0  0
  -27.6720  -25.0601   20.8755 H   0  0  0  0  0  0
  -28.1994  -24.9608   19.1891 H   0  0  0  0  0  0
  -29.5140  -14.7557   22.1601 H   0  0  0  0  0  0
  -29.0283  -23.1170   20.5673 H   0  0  0  0  0  0
  1 25  1  0  0  0
  1 30  2  0  0  0
  1 86  1  0  0  0
  2  3  1  0  0  0
  2 25  1  0  0  0
  2 89  1  0  0  0
  2 90  1  0  0  0
  3  4  1  0  0  0
  3 91  1  0  0  0
  3 92  1  0  0  0
  4  5  1  0  0  0
  4 93  1  0  0  0
  4 94  1  0  0  0
  5  6  1  0  0  0
  5 26  1  0  0  0
  5 95  1  0  0  0
  6 25  1  0  0  0
  6 96  1  0  0  0
  6 97  1  0  0  0
  7  8  2  0  0  0
  7 26  1  0  0  0
  7 29  1  0  0  0
  8  9  1  0  0  0
  8 22  1  0  0  0
  9 10  1  0  0  0
  9 27  2  0  0  0
 10 11  2  0  0  0
 10 15  1  0  0  0
 11 12  1  0  0  0
 11 98  1  0  0  0
 12 13  2  0  0  0
 12 99  1  0  0  0
 13 14  1  0  0  0
 13 31  1  0  0  0
 14 15  2  0  0  0
 14100  1  0  0  0
 15101  1  0  0  0
 16 17  2  0  0  0
 16 21  1  0  0  0
 16 31  1  0  0  0
 17 18  1  0  0  0
 17102  1  0  0  0
 18 19  2  0  0  0
 18103  1  0  0  0
 19 20  1  0  0  0
 19 24  1  0  0  0
 20 21  2  0  0  0
 20104  1  0  0  0
 21 23  1  0  0  0
 22 28  1  0  0  0
 22 32  2  0  0  0
 26 27  1  0  0  0
 28105  1  0  0  0
 28106  1  0  0  0
 29107  1  0  0  0
 29108  1  0  0  0
 33 34  1  0  0  0
 33 66  1  0  0  0
 33 70  2  0  0  0
 34 36  1  0  0  0
 34 59  1  0  0  0
 34109  1  0  0  0
 35 44  2  0  0  0
 35 45  1  0  0  0
 35 68  1  0  0  0
 36 56  1  0  0  0
 36110  1  0  0  0
 37 39  1  0  0  0
 37 47  1  0  0  0
 37 66  1  0  0  0
 37111  1  0  0  0
 38 43  2  0  0  0
 38 46  1  0  0  0
 38 47  1  0  0  0
 39 64  1  0  0  0
 39 67  2  0  0  0
 40 52  1  0  0  0
 40 53  2  0  0  0
 40 58  1  0  0  0
 41112  1  0  0  0
 41113  1  0  0  0
 41114  1  0  0  0
 41 48  1  0  0  0
 42 43  1  0  0  0
 42 66  1  0  0  0
 42115  1  0  0  0
 42116  1  0  0  0
 43 44  1  0  0  0
 44117  1  0  0  0
 45 46  2  0  0  0
 45118  1  0  0  0
 46119  1  0  0  0
 47120  1  0  0  0
 47121  1  0  0  0
 48 56  1  0  0  0
 48 65  1  0  0  0
 48122  1  0  0  0
 49 50  1  0  0  0
 49 53  1  0  0  0
 49 64  1  0  0  0
 49123  1  0  0  0
 50 51  1  0  0  0
 50124  1  0  0  0
 50125  1  0  0  0
 51 52  1  0  0  0
 51126  1  0  0  0
 51127  1  0  0  0
 52128  1  0  0  0
 52129  1  0  0  0
 53 54  1  0  0  0
 54 55  2  0  0  0
 54130  1  0  0  0
 55 57  1  0  0  0
 55131  1  0  0  0
 56 69  2  0  0  0
 57 58  2  0  0  0
 57132  1  0  0  0
 58133  1  0  0  0
 59 60  1  0  0  0
 59 61  1  0  0  0
 59 62  1  0  0  0
 60134  1  0  0  0
 60135  1  0  0  0
 60136  1  0  0  0
 61137  1  0  0  0
 61138  1  0  0  0
 61139  1  0  0  0
 62140  1  0  0  0
 62141  1  0  0  0
 62142  1  0  0  0
 63 65  1  0  0  0
 63143  1  0  0  0
 63144  1  0  0  0
 63145  1  0  0  0
 64146  1  0  0  0
 65147  1  0  0  0
 68 85  1  0  0  0
 71 73  2  0  0  0
 71 74  1  0  0  0
 71148  1  0  0  0
 72 73  1  0  0  0
 72 76  2  0  0  0
 72149  1  0  0  0
 73 81  1  0  0  0
 74 75  2  0  0  0
 74 82  1  0  0  0
 75 76  1  0  0  0
 75 86  1  0  0  0
 76 88  1  0  0  0
 77 79  1  0  0  0
 77 81  1  0  0  0
 77150  1  0  0  0
 77151  1  0  0  0
 78 80  1  0  0  0
 78 81  1  0  0  0
 78152  1  0  0  0
 78153  1  0  0  0
 79 87  1  0  0  0
 79154  1  0  0  0
 79155  1  0  0  0
 80 87  1  0  0  0
 80156  1  0  0  0
 80157  1  0  0  0
 81158  1  0  0  0
 82159  1  0  0  0
 82160  1  0  0  0
 82161  1  0  0  0
 83 88  1  0  0  0
 83162  1  0  0  0
 83163  1  0  0  0
 83164  1  0  0  0
 84 85  1  0  0  0
 84165  1  0  0  0
 84166  1  0  0  0
 84 87  1  0  0  0
 85167  1  0  0  0
 85168  1  0  0  0
 86169  1  0  0  0
 87170  1  0  0  0
M  CHG  1  87   1
M  ISO  4   1 100  68 101  85 101  86 100
M  END
> <chiral flag>
0

> <version>
0

> <s_m_source_file>
/data/baiqing/PycharmProjects/Reinvent-master-3.2/result/LINK_invent/BTK/process_docking_weight1_custom_sum_contain_oxygen_bond_distance_aromatic_linkinvent_7_9_3/rearranged_h_0157.sdf

> <i_m_source_file_index>
30

> <r_mmod_Potential_Energy-OPLS-2005>
-158.345291137695

> <r_mmod_Stretch_Energy-OPLS-2005>
34.3677024841309

> <r_mmod_Bend_Energy-OPLS-2005>
98.6166915893555

> <r_mmod_Torsional_Energy-OPLS-2005>
268.480804443359

> <r_mmod_Improper_Torsional_Energy-OPLS-2005>
4.25017213821411

> <r_mmod_Van_der_Waal_Energy-OPLS-2005>
165.782958984375

> <r_mmod_Electrostatic_Energy-OPLS-2005>
-291.665954589844

> <r_mmod_Solvation_Energy-OPLS-2005>
-445.806915283203

> <b_mmod_Minimization_Converged-OPLS-2005>
0

> <r_mmod_RMS_Derivative-OPLS-2005>
0.859711647033691

$$$$
30
                    3D
 Structure written by MMmdl.
162171  0  0  1  0            999 V2000
  -30.6795  -14.5498   20.5386 C   0  0  0  0  0  0
  -30.4336  -12.3410   19.4388 C   0  0  0  0  0  0
  -29.5161  -12.5225   18.2116 C   0  0  0  0  0  0
  -28.0329  -12.3707   18.6172 C   0  0  0  0  0  0
  -27.6628  -13.2156   19.8677 C   0  0  2  0  0  0
  -28.7077  -13.0304   20.9919 C   0  0  0  0  0  0
  -25.2603  -13.8151   20.5677 C   0  0  0  0  0  0
  -24.1853  -13.0442   20.9175 C   0  0  0  0  0  0
  -24.6401  -11.6912   20.8727 C   0  0  0  0  0  0
  -23.9062  -10.4292   21.0409 C   0  0  0  0  0  0
  -24.3609   -9.4218   21.9196 C   0  0  0  0  0  0
  -23.6302   -8.2240   22.0757 C   0  0  0  0  0  0
  -22.4287   -8.0268   21.3540 C   0  0  0  0  0  0
  -21.9913   -9.0250   20.4657 C   0  0  0  0  0  0
  -22.7235  -10.2134   20.3069 C   0  0  0  0  0  0
  -21.6846   -6.0739   22.5293 C   0  0  0  0  0  0
  -21.3988   -6.5645   23.8228 C   0  0  0  0  0  0
  -21.3661   -5.6795   24.9188 C   0  0  0  0  0  0
  -21.6061   -4.3062   24.7227 C   0  0  0  0  0  0
  -21.8808   -3.8148   23.4348 C   0  0  0  0  0  0
  -21.9176   -4.6964   22.3407 C   0  0  0  0  0  0
  -22.7886  -13.5266   21.1829 C   0  0  0  0  0  0
  -22.1660   -4.2146   21.0990 F   0  0  0  0  0  0
  -21.5653   -3.4539   25.7749 F   0  0  0  0  0  0
  -30.0312  -13.3500   20.4337 N   0  0  0  0  0  0
  -26.3042  -12.9336   20.3304 N   0  0  0  0  0  0
  -25.9325  -11.6494   20.5699 N   0  0  0  0  0  0
  -22.0438  -12.8324   22.0368 N   0  0  0  0  0  0
  -25.4342  -15.1875   20.4160 N   0  0  0  0  0  0
  -31.8298  -14.7117   20.1235 O   0  0  0  0  0  0
  -21.6630   -6.8878   21.4250 O   0  0  0  0  0  0
  -22.3612  -14.5566   20.6647 O   0  0  0  0  0  0
  -24.6209  -31.8637   23.2075 C   0  0  0  0  0  0
  -25.9080  -32.4791   23.8392 C   0  0  1  0  0  0
  -27.2145  -27.3428   20.1075 C   0  0  0  0  0  0
  -25.5916  -33.8585   24.2310 N   0  0  0  0  0  0
  -23.4135  -30.4903   21.5491 C   0  0  2  0  0  0
  -24.8572  -28.9542   20.1076 C   0  0  0  0  0  0
  -22.7442  -29.4649   22.4942 C   0  0  0  0  0  0
  -18.0287  -28.1371   22.8489 C   0  0  0  0  0  0
  -24.1486  -36.7304   23.2644 C   0  0  0  0  0  0
  -25.9540  -30.7959   21.3817 C   0  0  0  0  0  0
  -26.0248  -29.4289   20.7194 C   0  0  0  0  0  0
  -27.2047  -28.6310   20.7180 C   0  0  0  0  0  0
  -26.0305  -26.9310   19.4494 C   0  0  0  0  0  0
  -24.8607  -27.7085   19.4661 C   0  0  0  0  0  0
  -23.6249  -29.8297   20.1637 C   0  0  0  0  0  0
  -25.4111  -36.3101   24.0344 C   0  0  1  0  0  0
  -20.5879  -28.3681   23.1290 C   0  0  2  0  0  0
  -20.6764  -26.9410   22.5419 C   0  0  0  0  0  0
  -19.5759  -26.6377   21.5206 C   0  0  0  0  0  0
  -18.1927  -26.7936   22.1594 C   0  0  0  0  0  0
  -19.1540  -28.8840   23.2880 C   0  0  0  0  0  0
  -18.9457  -30.1438   23.8889 C   0  0  0  0  0  0
  -17.6469  -30.6583   24.0553 C   0  0  0  0  0  0
  -25.9042  -34.9464   23.5130 C   0  0  0  0  0  0
  -16.5356  -29.9082   23.6332 C   0  0  0  0  0  0
  -16.7270  -28.6484   23.0371 C   0  0  0  0  0  0
  -26.4482  -31.6583   25.0741 C   0  0  0  0  0  0
  -25.3726  -31.3734   26.1477 C   0  0  0  0  0  0
  -27.0315  -30.3007   24.6185 C   0  0  0  0  0  0
  -27.6076  -32.4299   25.7469 C   0  0  0  0  0  0
  -27.5591  -37.1799   24.8454 C   0  0  0  0  0  0
  -21.4164  -29.3041   22.3680 N   0  0  0  0  0  0
  -26.4302  -37.3791   23.9409 N   0  0  0  0  0  0
  -24.6817  -31.0674   22.1024 N   0  0  0  0  0  0
  -23.4180  -28.8185   23.3013 O   0  0  0  0  0  0
  -28.3273  -26.4939   20.1788 O   0  0  0  0  0  0
  -26.5616  -34.8937   22.4698 O   0  0  0  0  0  0
  -23.5390  -32.1442   23.7408 O   0  0  0  0  0  0
  -28.5825  -19.1400   22.5461 C   0  0  0  0  0  0
  -29.4891  -20.2934   20.6129 C   0  0  0  0  0  0
  -29.3908  -19.0932   21.3932 C   0  0  0  0  0  0
  -27.9018  -21.4498   22.0642 C   0  0  0  0  0  0
  -27.8446  -20.2898   22.8740 C   0  0  0  0  0  0
  -28.7842  -21.5010   20.9452 C   0  0  0  0  0  0
  -30.2977  -16.5616   22.0113 C   0  0  0  0  0  0
  -29.5456  -16.7345   20.0390 C   0  0  0  0  0  0
  -30.1155  -17.7556   21.0384 C   0  0  0  0  0  0
  -26.9219  -22.5724   22.3745 C   0  0  0  0  0  0
  -27.6015  -20.6283   25.1728 C   0  0  0  0  0  0
  -28.0937  -25.0552   19.9586 C   0  0  0  0  0  0
  -29.0556  -23.9851   20.6105 C   0  0  0  0  0  0
  -29.9232  -15.6115   20.9382 N   0  0  0  0  0  0
  -26.9989  -20.2323   23.9495 O   0  0  0  0  0  0
  -28.8844  -22.6200   20.1007 O   0  0  0  0  0  0
  -31.4834  -12.4287   19.1521 H   0  0  0  0  0  0
  -30.3220  -11.3355   19.8526 H   0  0  0  0  0  0
  -29.7743  -11.7992   17.4351 H   0  0  0  0  0  0
  -29.6774  -13.5092   17.7750 H   0  0  0  0  0  0
  -27.8542  -11.3145   18.8225 H   0  0  0  0  0  0
  -27.3837  -12.6247   17.7775 H   0  0  0  0  0  0
  -27.6974  -14.2608   19.5580 H   0  0  0  0  0  0
  -28.6983  -11.9995   21.3513 H   0  0  0  0  0  0
  -28.4690  -13.6535   21.8550 H   0  0  0  0  0  0
  -25.2728   -9.5719   22.4783 H   0  0  0  0  0  0
  -24.0016   -7.4633   22.7483 H   0  0  0  0  0  0
  -21.0835   -8.8776   19.8980 H   0  0  0  0  0  0
  -22.3685  -10.9675   19.6187 H   0  0  0  0  0  0
  -21.1955   -7.6145   23.9746 H   0  0  0  0  0  0
  -21.1521   -6.0510   25.9105 H   0  0  0  0  0  0
  -22.0578   -2.7603   23.2832 H   0  0  0  0  0  0
  -22.3964  -12.0002   22.4856 H   0  0  0  0  0  0
  -21.1062  -13.1451   22.2464 H   0  0  0  0  0  0
  -24.6759  -15.8462   20.5549 H   0  0  0  0  0  0
  -26.3078  -15.6297   20.1602 H   0  0  0  0  0  0
  -26.7126  -32.5465   23.1124 H   0  0  0  0  0  0
  -25.0047  -33.9737   25.0446 H   0  0  0  0  0  0
  -22.7062  -31.3108   21.4091 H   0  0  0  0  0  0
  -23.3782  -35.9599   23.3269 H   0  0  0  0  0  0
  -24.3580  -36.8961   22.2064 H   0  0  0  0  0  0
  -23.7196  -37.6483   23.6681 H   0  0  0  0  0  0
  -26.0914  -31.5621   20.6174 H   0  0  0  0  0  0
  -26.8334  -30.8363   22.0130 H   0  0  0  0  0  0
  -28.0948  -28.9831   21.2209 H   0  0  0  0  0  0
  -25.9734  -25.9944   18.9152 H   0  0  0  0  0  0
  -23.9704  -27.3442   18.9723 H   0  0  0  0  0  0
  -23.7359  -30.6067   19.4062 H   0  0  0  0  0  0
  -22.7459  -29.2553   19.8666 H   0  0  0  0  0  0
  -25.1291  -36.1975   25.0842 H   0  0  0  0  0  0
  -20.9975  -28.3244   24.1411 H   0  0  0  0  0  0
  -20.5643  -26.2305   23.3621 H   0  0  0  0  0  0
  -21.6627  -26.7421   22.1225 H   0  0  0  0  0  0
  -19.6925  -25.6278   21.1264 H   0  0  0  0  0  0
  -19.6737  -27.3166   20.6726 H   0  0  0  0  0  0
  -17.4232  -26.6735   21.3953 H   0  0  0  0  0  0
  -18.0278  -26.0038   22.8939 H   0  0  0  0  0  0
  -19.7937  -30.7242   24.2261 H   0  0  0  0  0  0
  -17.5038  -31.6278   24.5134 H   0  0  0  0  0  0
  -15.5369  -30.2992   23.7649 H   0  0  0  0  0  0
  -15.8661  -28.0802   22.7113 H   0  0  0  0  0  0
  -24.5794  -30.7233   25.7769 H   0  0  0  0  0  0
  -24.9052  -32.2926   26.5017 H   0  0  0  0  0  0
  -25.8021  -30.8760   27.0179 H   0  0  0  0  0  0
  -26.2871  -29.6746   24.1250 H   0  0  0  0  0  0
  -27.4062  -29.7272   25.4672 H   0  0  0  0  0  0
  -27.8727  -30.4293   23.9367 H   0  0  0  0  0  0
  -27.2713  -33.3578   26.2096 H   0  0  0  0  0  0
  -28.3829  -32.6891   25.0247 H   0  0  0  0  0  0
  -28.0806  -31.8394   26.5323 H   0  0  0  0  0  0
  -28.2608  -38.0101   24.7520 H   0  0  0  0  0  0
  -28.1097  -36.2641   24.6251 H   0  0  0  0  0  0
  -27.2322  -37.1392   25.8860 H   0  0  0  0  0  0
  -20.9337  -29.8769   21.6900 H   0  0  0  0  0  0
  -26.0205  -38.2881   24.1404 H   0  0  0  0  0  0
  -28.4732  -18.2761   23.1808 H   0  0  0  0  0  0
  -30.1114  -20.2853   19.7276 H   0  0  0  0  0  0
  -29.6007  -16.5056   22.8509 H   0  0  0  0  0  0
  -31.3197  -16.4695   22.3907 H   0  0  0  0  0  0
  -30.0610  -16.7571   19.0733 H   0  0  0  0  0  0
  -28.4677  -16.8191   19.8916 H   0  0  0  0  0  0
  -31.1125  -18.0406   20.6909 H   0  0  0  0  0  0
  -26.0056  -22.1904   22.8248 H   0  0  0  0  0  0
  -26.6096  -23.0734   21.4628 H   0  0  0  0  0  0
  -27.3550  -23.2926   23.0678 H   0  0  0  0  0  0
  -26.8390  -20.6550   25.9531 H   0  0  0  0  0  0
  -28.0396  -21.6243   25.0964 H   0  0  0  0  0  0
  -28.3754  -19.9252   25.4835 H   0  0  0  0  0  0
  -27.0971  -24.7975   20.3108 H   0  0  0  0  0  0
  -28.0875  -24.8948   18.8811 H   0  0  0  0  0  0
  -28.9907  -24.0254   21.6957 H   0  0  0  0  0  0
  -30.0837  -24.2642   20.3852 H   0  0  0  0  0  0
  1 25  1  0  0  0
  1 30  2  0  0  0
  1 84  1  0  0  0
  2  3  1  0  0  0
  2 25  1  0  0  0
  2 87  1  0  0  0
  2 88  1  0  0  0
  3  4  1  0  0  0
  3 89  1  0  0  0
  3 90  1  0  0  0
  4  5  1  0  0  0
  4 91  1  0  0  0
  4 92  1  0  0  0
  5  6  1  0  0  0
  5 26  1  0  0  0
  5 93  1  0  0  0
  6 25  1  0  0  0
  6 94  1  0  0  0
  6 95  1  0  0  0
  7  8  2  0  0  0
  7 26  1  0  0  0
  7 29  1  0  0  0
  8  9  1  0  0  0
  8 22  1  0  0  0
  9 10  1  0  0  0
  9 27  2  0  0  0
 10 11  2  0  0  0
 10 15  1  0  0  0
 11 12  1  0  0  0
 11 96  1  0  0  0
 12 13  2  0  0  0
 12 97  1  0  0  0
 13 14  1  0  0  0
 13 31  1  0  0  0
 14 15  2  0  0  0
 14 98  1  0  0  0
 15 99  1  0  0  0
 16 17  2  0  0  0
 16 21  1  0  0  0
 16 31  1  0  0  0
 17 18  1  0  0  0
 17100  1  0  0  0
 18 19  2  0  0  0
 18101  1  0  0  0
 19 20  1  0  0  0
 19 24  1  0  0  0
 20 21  2  0  0  0
 20102  1  0  0  0
 21 23  1  0  0  0
 22 28  1  0  0  0
 22 32  2  0  0  0
 26 27  1  0  0  0
 28103  1  0  0  0
 28104  1  0  0  0
 29105  1  0  0  0
 29106  1  0  0  0
 33 34  1  0  0  0
 33 66  1  0  0  0
 33 70  2  0  0  0
 34 36  1  0  0  0
 34 59  1  0  0  0
 34107  1  0  0  0
 35 44  2  0  0  0
 35 45  1  0  0  0
 35 68  1  0  0  0
 36 56  1  0  0  0
 36108  1  0  0  0
 37 39  1  0  0  0
 37 47  1  0  0  0
 37 66  1  0  0  0
 37109  1  0  0  0
 38 43  2  0  0  0
 38 46  1  0  0  0
 38 47  1  0  0  0
 39 64  1  0  0  0
 39 67  2  0  0  0
 40 52  1  0  0  0
 40 53  2  0  0  0
 40 58  1  0  0  0
 41110  1  0  0  0
 41111  1  0  0  0
 41112  1  0  0  0
 41 48  1  0  0  0
 42 43  1  0  0  0
 42 66  1  0  0  0
 42113  1  0  0  0
 42114  1  0  0  0
 43 44  1  0  0  0
 44115  1  0  0  0
 45 46  2  0  0  0
 45116  1  0  0  0
 46117  1  0  0  0
 47118  1  0  0  0
 47119  1  0  0  0
 48 56  1  0  0  0
 48 65  1  0  0  0
 48120  1  0  0  0
 49 50  1  0  0  0
 49 53  1  0  0  0
 49 64  1  0  0  0
 49121  1  0  0  0
 50 51  1  0  0  0
 50122  1  0  0  0
 50123  1  0  0  0
 51 52  1  0  0  0
 51124  1  0  0  0
 51125  1  0  0  0
 52126  1  0  0  0
 52127  1  0  0  0
 53 54  1  0  0  0
 54 55  2  0  0  0
 54128  1  0  0  0
 55 57  1  0  0  0
 55129  1  0  0  0
 56 69  2  0  0  0
 57 58  2  0  0  0
 57130  1  0  0  0
 58131  1  0  0  0
 59 60  1  0  0  0
 59 61  1  0  0  0
 59 62  1  0  0  0
 60132  1  0  0  0
 60133  1  0  0  0
 60134  1  0  0  0
 61135  1  0  0  0
 61136  1  0  0  0
 61137  1  0  0  0
 62138  1  0  0  0
 62139  1  0  0  0
 62140  1  0  0  0
 63 65  1  0  0  0
 63141  1  0  0  0
 63142  1  0  0  0
 63143  1  0  0  0
 64144  1  0  0  0
 65145  1  0  0  0
 68 82  1  0  0  0
 71 73  2  0  0  0
 71 75  1  0  0  0
 71146  1  0  0  0
 72 73  1  0  0  0
 72 76  2  0  0  0
 72147  1  0  0  0
 73 79  1  0  0  0
 74 75  2  0  0  0
 74 76  1  0  0  0
 74 80  1  0  0  0
 75 85  1  0  0  0
 76 86  1  0  0  0
 77 79  1  0  0  0
 77 84  1  0  0  0
 77148  1  0  0  0
 77149  1  0  0  0
 78 79  1  0  0  0
 78 84  1  0  0  0
 78150  1  0  0  0
 78151  1  0  0  0
 79152  1  0  0  0
 80153  1  0  0  0
 80154  1  0  0  0
 80155  1  0  0  0
 81 85  1  0  0  0
 81156  1  0  0  0
 81157  1  0  0  0
 81158  1  0  0  0
 82 83  1  0  0  0
 82159  1  0  0  0
 82160  1  0  0  0
 83 86  1  0  0  0
 83161  1  0  0  0
 83162  1  0  0  0
M  ISO  4   1 100  68 101  82 101  84 100
M  END
> <chiral flag>
0

> <version>
0

> <s_m_source_file>
/data/baiqing/PycharmProjects/Reinvent-master-3.2/result/LINK_invent/BTK/process_docking_weight1_custom_sum_contain_oxygen_bond_distance_aromatic_linkinvent_7_9_3/rearranged_h_0157.sdf

> <i_m_source_file_index>
31

> <r_mmod_Potential_Energy-OPLS-2005>
172.789535522461

> <r_mmod_Stretch_Energy-OPLS-2005>
68.3356552124023

> <r_mmod_Bend_Energy-OPLS-2005>
133.461685180664

> <r_mmod_Torsional_Energy-OPLS-2005>
335.597137451172

> <r_mmod_Improper_Torsional_Energy-OPLS-2005>
11.4335746765137

> <r_mmod_Van_der_Waal_Energy-OPLS-2005>
151.708541870117

> <r_mmod_Electrostatic_Energy-OPLS-2005>
-357.667419433594

> <r_mmod_Solvation_Energy-OPLS-2005>
-203.801971435547

> <b_mmod_Minimization_Converged-OPLS-2005>
0

> <r_mmod_RMS_Derivative-OPLS-2005>
4.09332132339478

$$$$
31
                    3D
 Structure written by MMmdl.
168177  0  0  1  0            999 V2000
  -30.6783  -14.5770   20.5426 C   0  0  0  0  0  0
  -30.4243  -12.3675   19.4453 C   0  0  0  0  0  0
  -29.5009  -12.5027   18.2171 C   0  0  0  0  0  0
  -28.0190  -12.3664   18.6210 C   0  0  0  0  0  0
  -27.6480  -13.2218   19.8634 C   0  0  2  0  0  0
  -28.6905  -13.0408   20.9825 C   0  0  0  0  0  0
  -25.2495  -13.8169   20.5665 C   0  0  0  0  0  0
  -24.1779  -13.0442   20.9207 C   0  0  0  0  0  0
  -24.6375  -11.6917   20.8763 C   0  0  0  0  0  0
  -23.9067  -10.4307   21.0445 C   0  0  0  0  0  0
  -24.3631   -9.4214   21.9199 C   0  0  0  0  0  0
  -23.6306   -8.2252   22.0766 C   0  0  0  0  0  0
  -22.4284   -8.0298   21.3564 C   0  0  0  0  0  0
  -21.9940   -9.0278   20.4663 C   0  0  0  0  0  0
  -22.7269  -10.2148   20.3070 C   0  0  0  0  0  0
  -21.6821   -6.0771   22.5302 C   0  0  0  0  0  0
  -21.3990   -6.5676   23.8242 C   0  0  0  0  0  0
  -21.3655   -5.6813   24.9200 C   0  0  0  0  0  0
  -21.6057   -4.3077   24.7247 C   0  0  0  0  0  0
  -21.8804   -3.8182   23.4357 C   0  0  0  0  0  0
  -21.9182   -4.7009   22.3418 C   0  0  0  0  0  0
  -22.7795  -13.5223   21.1896 C   0  0  0  0  0  0
  -22.1654   -4.2205   21.0991 F   0  0  0  0  0  0
  -21.5640   -3.4550   25.7751 F   0  0  0  0  0  0
  -30.0000  -13.3925   20.4229 N   0  0  0  0  0  0
  -26.2946  -12.9377   20.3329 N   0  0  0  0  0  0
  -25.9305  -11.6516   20.5761 N   0  0  0  0  0  0
  -22.0434  -12.8194   22.0432 N   0  0  0  0  0  0
  -25.4163  -15.1888   20.3997 N   0  0  0  0  0  0
  -31.8630  -14.6390   20.1913 O   0  0  0  0  0  0
  -21.6627   -6.8909   21.4255 O   0  0  0  0  0  0
  -22.3473  -14.5537   20.6753 O   0  0  0  0  0  0
  -24.6203  -31.8647   23.2073 C   0  0  0  0  0  0
  -25.9082  -32.4800   23.8378 C   0  0  1  0  0  0
  -27.2213  -27.3680   20.0893 C   0  0  0  0  0  0
  -25.5921  -33.8606   24.2298 N   0  0  0  0  0  0
  -23.4099  -30.4922   21.5489 C   0  0  2  0  0  0
  -24.8507  -28.9512   20.1114 C   0  0  0  0  0  0
  -22.7427  -29.4689   22.4966 C   0  0  0  0  0  0
  -18.0272  -28.1396   22.8506 C   0  0  0  0  0  0
  -24.1482  -36.7298   23.2645 C   0  0  0  0  0  0
  -25.9462  -30.8097   21.3682 C   0  0  0  0  0  0
  -26.0180  -29.4398   20.7113 C   0  0  0  0  0  0
  -27.2023  -28.6556   20.6969 C   0  0  0  0  0  0
  -26.0219  -26.9086   19.4949 C   0  0  0  0  0  0
  -24.8528  -27.6891   19.5012 C   0  0  0  0  0  0
  -23.6174  -29.8251   20.1633 C   0  0  0  0  0  0
  -25.4109  -36.3094   24.0327 C   0  0  1  0  0  0
  -20.5868  -28.3708   23.1296 C   0  0  2  0  0  0
  -20.6768  -26.9433   22.5419 C   0  0  0  0  0  0
  -19.5739  -26.6402   21.5228 C   0  0  0  0  0  0
  -18.1920  -26.7941   22.1637 C   0  0  0  0  0  0
  -19.1526  -28.8862   23.2904 C   0  0  0  0  0  0
  -18.9449  -30.1470   23.8934 C   0  0  0  0  0  0
  -17.6450  -30.6606   24.0578 C   0  0  0  0  0  0
  -25.9055  -34.9468   23.5110 C   0  0  0  0  0  0
  -16.5352  -29.9111   23.6327 C   0  0  0  0  0  0
  -16.7264  -28.6520   23.0369 C   0  0  0  0  0  0
  -26.4484  -31.6591   25.0722 C   0  0  0  0  0  0
  -25.3716  -31.3692   26.1444 C   0  0  0  0  0  0
  -27.0336  -30.3030   24.6154 C   0  0  0  0  0  0
  -27.6054  -32.4322   25.7481 C   0  0  0  0  0  0
  -27.5573  -37.1805   24.8467 C   0  0  0  0  0  0
  -21.4146  -29.3069   22.3696 N   0  0  0  0  0  0
  -26.4285  -37.3787   23.9419 N   0  0  0  0  0  0
  -24.6783  -31.0701   22.0995 N   0  0  0  0  0  0
  -23.4151  -28.8226   23.3032 O   0  0  0  0  0  0
  -28.3793  -26.5940   20.1186 O   0  0  0  0  0  0
  -26.5637  -34.8909   22.4683 O   0  0  0  0  0  0
  -23.5386  -32.1442   23.7429 O   0  0  0  0  0  0
  -27.2871  -23.2188   19.6784 C   0  0  0  0  0  0
  -28.4418  -23.9958   19.9035 C   0  0  0  0  0  0
  -27.2087  -21.8526   20.0424 C   0  0  0  0  0  0
  -29.5324  -23.3564   20.5663 C   0  0  0  0  0  0
  -29.4699  -21.9639   20.9281 C   0  0  0  0  0  0
  -28.3028  -21.1773   20.6512 C   0  0  0  0  0  0
  -29.4975  -18.1305   19.7000 C   0  0  0  0  0  0
  -28.4417  -17.4393   21.8046 C   0  0  0  0  0  0
  -30.4506  -16.9025   19.8277 C   0  0  0  0  0  0
  -29.4565  -16.2597   21.9364 C   0  0  0  0  0  0
  -29.0453  -18.6622   21.0705 C   0  0  0  0  0  0
  -25.9052  -21.1203   19.7559 C   0  0  0  0  0  0
  -30.7908  -24.1667   20.8762 C   0  0  0  0  0  0
  -30.6576  -21.3185   21.6346 C   0  0  0  0  0  0
  -28.5247  -25.4192   19.2666 C   0  0  0  0  0  0
  -29.9542  -15.7507   20.6372 N   0  0  0  0  0  0
  -28.0952  -19.7987   20.9806 N   0  0  0  0  0  0
  -31.4669  -12.4729   19.1399 H   0  0  0  0  0  0
  -30.3445  -11.3670   19.8756 H   0  0  0  0  0  0
  -29.7502  -11.7461   17.4713 H   0  0  0  0  0  0
  -29.6640  -13.4712   17.7415 H   0  0  0  0  0  0
  -27.8377  -11.3119   18.8276 H   0  0  0  0  0  0
  -27.3735  -12.6271   17.7810 H   0  0  0  0  0  0
  -27.6731  -14.2661   19.5480 H   0  0  0  0  0  0
  -28.6981  -12.0023   21.3184 H   0  0  0  0  0  0
  -28.4288  -13.6251   21.8593 H   0  0  0  0  0  0
  -25.2796   -9.5683   22.4725 H   0  0  0  0  0  0
  -24.0049   -7.4624   22.7442 H   0  0  0  0  0  0
  -21.0902   -8.8815   19.8928 H   0  0  0  0  0  0
  -22.3782  -10.9691   19.6154 H   0  0  0  0  0  0
  -21.1932   -7.6170   23.9772 H   0  0  0  0  0  0
  -21.1498   -6.0535   25.9107 H   0  0  0  0  0  0
  -22.0565   -2.7649   23.2839 H   0  0  0  0  0  0
  -22.4065  -11.9894   22.4873 H   0  0  0  0  0  0
  -21.1033  -13.1188   22.2628 H   0  0  0  0  0  0
  -24.6524  -15.8443   20.5214 H   0  0  0  0  0  0
  -26.2717  -15.6225   20.0785 H   0  0  0  0  0  0
  -26.7159  -32.5467   23.1144 H   0  0  0  0  0  0
  -25.0015  -33.9775   25.0404 H   0  0  0  0  0  0
  -22.7030  -31.3123   21.4082 H   0  0  0  0  0  0
  -23.3746  -35.9631   23.3314 H   0  0  0  0  0  0
  -24.3567  -36.8914   22.2062 H   0  0  0  0  0  0
  -23.7232  -37.6497   23.6658 H   0  0  0  0  0  0
  -26.0693  -31.5752   20.6002 H   0  0  0  0  0  0
  -26.8324  -30.8616   21.9894 H   0  0  0  0  0  0
  -28.1027  -29.0345   21.1617 H   0  0  0  0  0  0
  -25.9474  -25.9356   19.0368 H   0  0  0  0  0  0
  -23.9515  -27.3064   19.0419 H   0  0  0  0  0  0
  -23.7282  -30.6018   19.4056 H   0  0  0  0  0  0
  -22.7376  -29.2490   19.8663 H   0  0  0  0  0  0
  -25.1293  -36.1957   25.0817 H   0  0  0  0  0  0
  -20.9976  -28.3296   24.1409 H   0  0  0  0  0  0
  -20.5690  -26.2329   23.3627 H   0  0  0  0  0  0
  -21.6634  -26.7483   22.1200 H   0  0  0  0  0  0
  -19.6913  -25.6320   21.1244 H   0  0  0  0  0  0
  -19.6660  -27.3226   20.6769 H   0  0  0  0  0  0
  -17.4185  -26.6719   21.4037 H   0  0  0  0  0  0
  -18.0313  -26.0073   22.9020 H   0  0  0  0  0  0
  -19.7923  -30.7288   24.2304 H   0  0  0  0  0  0
  -17.5005  -31.6282   24.5205 H   0  0  0  0  0  0
  -15.5355  -30.3036   23.7635 H   0  0  0  0  0  0
  -15.8653  -28.0852   22.7076 H   0  0  0  0  0  0
  -24.5913  -30.7031   25.7743 H   0  0  0  0  0  0
  -24.8870  -32.2830   26.4898 H   0  0  0  0  0  0
  -25.8038  -30.8838   27.0202 H   0  0  0  0  0  0
  -26.2906  -29.6775   24.1200 H   0  0  0  0  0  0
  -27.4080  -29.7302   25.4649 H   0  0  0  0  0  0
  -27.8736  -30.4353   23.9335 H   0  0  0  0  0  0
  -27.2706  -33.3647   26.2047 H   0  0  0  0  0  0
  -28.3859  -32.6860   25.0289 H   0  0  0  0  0  0
  -28.0726  -31.8443   26.5399 H   0  0  0  0  0  0
  -28.2591  -38.0103   24.7522 H   0  0  0  0  0  0
  -28.1057  -36.2639   24.6271 H   0  0  0  0  0  0
  -27.2287  -37.1427   25.8865 H   0  0  0  0  0  0
  -20.9323  -29.8764   21.6889 H   0  0  0  0  0  0
  -26.0161  -38.2849   24.1426 H   0  0  0  0  0  0
  -26.4461  -23.6742   19.1760 H   0  0  0  0  0  0
  -28.6329  -17.8517   19.0956 H   0  0  0  0  0  0
  -30.0050  -18.9243   19.1480 H   0  0  0  0  0  0
  -28.1083  -17.7275   22.8005 H   0  0  0  0  0  0
  -27.5463  -17.0966   21.2830 H   0  0  0  0  0  0
  -31.3935  -17.2432   20.2620 H   0  0  0  0  0  0
  -30.6894  -16.5609   18.8191 H   0  0  0  0  0  0
  -29.0161  -15.4749   22.5444 H   0  0  0  0  0  0
  -30.3175  -16.6003   22.5143 H   0  0  0  0  0  0
  -29.9209  -18.9423   21.6452 H   0  0  0  0  0  0
  -25.2267  -21.7258   19.1525 H   0  0  0  0  0  0
  -25.3948  -20.8904   20.6927 H   0  0  0  0  0  0
  -26.0797  -20.1908   19.2128 H   0  0  0  0  0  0
  -30.6913  -25.2280   20.6619 H   0  0  0  0  0  0
  -31.6368  -23.7861   20.3015 H   0  0  0  0  0  0
  -31.0346  -24.1113   21.9378 H   0  0  0  0  0  0
  -31.4622  -21.9917   21.9175 H   0  0  0  0  0  0
  -31.1098  -20.5723   20.9838 H   0  0  0  0  0  0
  -30.3186  -20.8454   22.5553 H   0  0  0  0  0  0
  -27.8756  -25.4651   18.3935 H   0  0  0  0  0  0
  -29.5105  -25.4991   18.8057 H   0  0  0  0  0  0
  -27.1402  -19.4926   20.8287 H   0  0  0  0  0  0
  1 25  1  0  0  0
  1 30  2  0  0  0
  1 86  1  0  0  0
  2  3  1  0  0  0
  2 25  1  0  0  0
  2 88  1  0  0  0
  2 89  1  0  0  0
  3  4  1  0  0  0
  3 90  1  0  0  0
  3 91  1  0  0  0
  4  5  1  0  0  0
  4 92  1  0  0  0
  4 93  1  0  0  0
  5  6  1  0  0  0
  5 26  1  0  0  0
  5 94  1  0  0  0
  6 25  1  0  0  0
  6 95  1  0  0  0
  6 96  1  0  0  0
  7  8  2  0  0  0
  7 26  1  0  0  0
  7 29  1  0  0  0
  8  9  1  0  0  0
  8 22  1  0  0  0
  9 10  1  0  0  0
  9 27  2  0  0  0
 10 11  2  0  0  0
 10 15  1  0  0  0
 11 12  1  0  0  0
 11 97  1  0  0  0
 12 13  2  0  0  0
 12 98  1  0  0  0
 13 14  1  0  0  0
 13 31  1  0  0  0
 14 15  2  0  0  0
 14 99  1  0  0  0
 15100  1  0  0  0
 16 17  2  0  0  0
 16 21  1  0  0  0
 16 31  1  0  0  0
 17 18  1  0  0  0
 17101  1  0  0  0
 18 19  2  0  0  0
 18102  1  0  0  0
 19 20  1  0  0  0
 19 24  1  0  0  0
 20 21  2  0  0  0
 20103  1  0  0  0
 21 23  1  0  0  0
 22 28  1  0  0  0
 22 32  2  0  0  0
 26 27  1  0  0  0
 28104  1  0  0  0
 28105  1  0  0  0
 29106  1  0  0  0
 29107  1  0  0  0
 33 34  1  0  0  0
 33 66  1  0  0  0
 33 70  2  0  0  0
 34 36  1  0  0  0
 34 59  1  0  0  0
 34108  1  0  0  0
 35 44  2  0  0  0
 35 45  1  0  0  0
 35 68  1  0  0  0
 36 56  1  0  0  0
 36109  1  0  0  0
 37 39  1  0  0  0
 37 47  1  0  0  0
 37 66  1  0  0  0
 37110  1  0  0  0
 38 43  2  0  0  0
 38 46  1  0  0  0
 38 47  1  0  0  0
 39 64  1  0  0  0
 39 67  2  0  0  0
 40 52  1  0  0  0
 40 53  2  0  0  0
 40 58  1  0  0  0
 41111  1  0  0  0
 41112  1  0  0  0
 41113  1  0  0  0
 41 48  1  0  0  0
 42 43  1  0  0  0
 42 66  1  0  0  0
 42114  1  0  0  0
 42115  1  0  0  0
 43 44  1  0  0  0
 44116  1  0  0  0
 45 46  2  0  0  0
 45117  1  0  0  0
 46118  1  0  0  0
 47119  1  0  0  0
 47120  1  0  0  0
 48 56  1  0  0  0
 48 65  1  0  0  0
 48121  1  0  0  0
 49 50  1  0  0  0
 49 53  1  0  0  0
 49 64  1  0  0  0
 49122  1  0  0  0
 50 51  1  0  0  0
 50123  1  0  0  0
 50124  1  0  0  0
 51 52  1  0  0  0
 51125  1  0  0  0
 51126  1  0  0  0
 52127  1  0  0  0
 52128  1  0  0  0
 53 54  1  0  0  0
 54 55  2  0  0  0
 54129  1  0  0  0
 55 57  1  0  0  0
 55130  1  0  0  0
 56 69  2  0  0  0
 57 58  2  0  0  0
 57131  1  0  0  0
 58132  1  0  0  0
 59 60  1  0  0  0
 59 61  1  0  0  0
 59 62  1  0  0  0
 60133  1  0  0  0
 60134  1  0  0  0
 60135  1  0  0  0
 61136  1  0  0  0
 61137  1  0  0  0
 61138  1  0  0  0
 62139  1  0  0  0
 62140  1  0  0  0
 62141  1  0  0  0
 63 65  1  0  0  0
 63142  1  0  0  0
 63143  1  0  0  0
 63144  1  0  0  0
 64145  1  0  0  0
 65146  1  0  0  0
 68 85  1  0  0  0
 71 72  2  0  0  0
 71 73  1  0  0  0
 71147  1  0  0  0
 72 74  1  0  0  0
 72 85  1  0  0  0
 73 76  2  0  0  0
 73 82  1  0  0  0
 74 75  2  0  0  0
 74 83  1  0  0  0
 75 76  1  0  0  0
 75 84  1  0  0  0
 76 87  1  0  0  0
 77 79  1  0  0  0
 77 81  1  0  0  0
 77148  1  0  0  0
 77149  1  0  0  0
 78 80  1  0  0  0
 78 81  1  0  0  0
 78150  1  0  0  0
 78151  1  0  0  0
 79 86  1  0  0  0
 79152  1  0  0  0
 79153  1  0  0  0
 80 86  1  0  0  0
 80154  1  0  0  0
 80155  1  0  0  0
 81 87  1  0  0  0
 81156  1  0  0  0
 82157  1  0  0  0
 82158  1  0  0  0
 82159  1  0  0  0
 83160  1  0  0  0
 83161  1  0  0  0
 83162  1  0  0  0
 84163  1  0  0  0
 84164  1  0  0  0
 84165  1  0  0  0
 85166  1  0  0  0
 85167  1  0  0  0
 87168  1  0  0  0
M  ISO  4   1 100  68 101  85 101  86 100
M  END
> <chiral flag>
0

> <version>
0

> <s_m_source_file>
/data/baiqing/PycharmProjects/Reinvent-master-3.2/result/LINK_invent/BTK/process_docking_weight1_custom_sum_contain_oxygen_bond_distance_aromatic_linkinvent_7_9_3/rearranged_h_0157.sdf

> <i_m_source_file_index>
32

> <r_mmod_Potential_Energy-OPLS-2005>
215.172576904297

> <r_mmod_Stretch_Energy-OPLS-2005>
67.1625289916992

> <r_mmod_Bend_Energy-OPLS-2005>
170.122421264648

> <r_mmod_Torsional_Energy-OPLS-2005>
311.183654785156

> <r_mmod_Improper_Torsional_Energy-OPLS-2005>
18.043758392334

> <r_mmod_Van_der_Waal_Energy-OPLS-2005>
169.656387329102

> <r_mmod_Electrostatic_Energy-OPLS-2005>
-356.905426025391

> <r_mmod_Solvation_Energy-OPLS-2005>
-194.857452392578

> <b_mmod_Minimization_Converged-OPLS-2005>
0

> <r_mmod_RMS_Derivative-OPLS-2005>
3.1686487197876

$$$$
32
                    3D
 Structure written by MMmdl.
168177  0  0  1  0            999 V2000
  -30.6877  -14.7620   20.4817 C   0  0  0  0  0  0
  -30.4027  -12.4762   19.4883 C   0  0  0  0  0  0
  -29.4967  -12.5105   18.2413 C   0  0  0  0  0  0
  -28.0283  -12.3178   18.6587 C   0  0  0  0  0  0
  -27.6289  -13.2327   19.8450 C   0  0  2  0  0  0
  -28.6754  -13.2356   20.9851 C   0  0  0  0  0  0
  -25.2440  -13.8199   20.5719 C   0  0  0  0  0  0
  -24.1740  -13.0453   20.9248 C   0  0  0  0  0  0
  -24.6334  -11.6939   20.8781 C   0  0  0  0  0  0
  -23.9014  -10.4320   21.0414 C   0  0  0  0  0  0
  -24.3585   -9.4256   21.9194 C   0  0  0  0  0  0
  -23.6297   -8.2273   22.0759 C   0  0  0  0  0  0
  -22.4282   -8.0284   21.3556 C   0  0  0  0  0  0
  -21.9897   -9.0241   20.4643 C   0  0  0  0  0  0
  -22.7195  -10.2136   20.3058 C   0  0  0  0  0  0
  -21.6871   -6.0745   22.5291 C   0  0  0  0  0  0
  -21.4023   -6.5650   23.8225 C   0  0  0  0  0  0
  -21.3640   -5.6800   24.9181 C   0  0  0  0  0  0
  -21.6031   -4.3064   24.7225 C   0  0  0  0  0  0
  -21.8819   -3.8153   23.4350 C   0  0  0  0  0  0
  -21.9206   -4.6974   22.3413 C   0  0  0  0  0  0
  -22.7759  -13.5258   21.1867 C   0  0  0  0  0  0
  -22.1677   -4.2163   21.0990 F   0  0  0  0  0  0
  -21.5609   -3.4542   25.7731 F   0  0  0  0  0  0
  -29.9708  -13.5795   20.3897 N   0  0  0  0  0  0
  -26.2859  -12.9408   20.3304 N   0  0  0  0  0  0
  -25.9269  -11.6560   20.5809 N   0  0  0  0  0  0
  -22.0354  -12.8284   22.0400 N   0  0  0  0  0  0
  -25.4074  -15.1923   20.4081 N   0  0  0  0  0  0
  -31.8782  -14.7174   20.1544 O   0  0  0  0  0  0
  -21.6670   -6.8870   21.4247 O   0  0  0  0  0  0
  -22.3476  -14.5559   20.6685 O   0  0  0  0  0  0
  -24.6359  -31.8555   23.2049 C   0  0  0  0  0  0
  -25.9197  -32.4742   23.8371 C   0  0  1  0  0  0
  -27.1962  -27.2325   20.1203 C   0  0  0  0  0  0
  -25.6000  -33.8544   24.2288 N   0  0  0  0  0  0
  -23.4301  -30.4864   21.5505 C   0  0  2  0  0  0
  -24.8750  -28.9541   20.1030 C   0  0  0  0  0  0
  -22.7528  -29.4612   22.4933 C   0  0  0  0  0  0
  -18.0290  -28.1398   22.8500 C   0  0  0  0  0  0
  -24.1481  -36.7252   23.2639 C   0  0  0  0  0  0
  -25.9841  -30.7586   21.3959 C   0  0  0  0  0  0
  -26.0509  -29.3839   20.7314 C   0  0  0  0  0  0
  -27.2115  -28.5333   20.7426 C   0  0  0  0  0  0
  -26.0012  -26.9206   19.4173 C   0  0  0  0  0  0
  -24.8593  -27.7312   19.4322 C   0  0  0  0  0  0
  -23.6467  -29.8397   20.1611 C   0  0  0  0  0  0
  -25.4102  -36.3037   24.0329 C   0  0  1  0  0  0
  -20.5902  -28.3694   23.1289 C   0  0  2  0  0  0
  -20.6789  -26.9415   22.5413 C   0  0  0  0  0  0
  -19.5752  -26.6388   21.5234 C   0  0  0  0  0  0
  -18.1926  -26.7949   22.1627 C   0  0  0  0  0  0
  -19.1548  -28.8868   23.2882 C   0  0  0  0  0  0
  -18.9460  -30.1482   23.8876 C   0  0  0  0  0  0
  -17.6452  -30.6602   24.0558 C   0  0  0  0  0  0
  -25.9063  -34.9420   23.5091 C   0  0  0  0  0  0
  -16.5344  -29.9084   23.6366 C   0  0  0  0  0  0
  -16.7272  -28.6509   23.0372 C   0  0  0  0  0  0
  -26.4559  -31.6554   25.0755 C   0  0  0  0  0  0
  -25.3791  -31.3700   26.1475 C   0  0  0  0  0  0
  -27.0420  -30.2963   24.6269 C   0  0  0  0  0  0
  -27.6104  -32.4290   25.7535 C   0  0  0  0  0  0
  -27.5564  -37.1776   24.8469 C   0  0  0  0  0  0
  -21.4233  -29.3034   22.3676 N   0  0  0  0  0  0
  -26.4256  -37.3754   23.9439 N   0  0  0  0  0  0
  -24.7026  -31.0508   22.1054 N   0  0  0  0  0  0
  -23.4226  -28.8133   23.3017 O   0  0  0  0  0  0
  -28.2282  -26.2439   20.2176 O   0  0  0  0  0  0
  -26.5596  -34.8899   22.4636 O   0  0  0  0  0  0
  -23.5505  -32.1395   23.7332 O   0  0  0  0  0  0
  -29.6259  -21.5380   21.2263 C   0  0  0  0  0  0
  -29.2913  -22.9350   21.0453 C   0  0  0  0  0  0
  -27.9960  -22.3238   19.1181 C   0  0  0  0  0  0
  -28.4514  -23.3846   19.9816 C   0  0  0  0  0  0
  -28.3939  -20.9416   19.2676 C   0  0  0  0  0  0
  -29.1820  -20.4776   20.3676 C   0  0  0  0  0  0
  -28.4555  -18.0462   20.6969 C   0  0  0  0  0  0
  -28.8674  -16.5619   20.3274 C   0  0  0  0  0  0
  -30.6249  -18.6371   21.4006 C   0  0  0  0  0  0
  -31.0788  -17.1075   21.3247 C   0  0  1  0  0  0
  -29.8213  -23.9573   22.0321 C   0  0  0  0  0  0
  -27.0135  -22.6681   17.9894 C   0  0  0  0  0  0
  -27.9898  -19.9428   18.1825 C   0  0  0  0  0  0
  -31.7211  -16.7386   22.6766 C   0  0  0  0  0  0
  -27.8268  -24.8587   19.7603 C   0  0  0  0  0  0
  -29.5161  -19.0587   20.5436 N   0  0  0  0  0  0
  -30.1417  -16.0056   20.8690 N   0  0  0  0  0  0
  -31.4499  -12.5481   19.1908 H   0  0  0  0  0  0
  -30.3135  -11.5146   19.9972 H   0  0  0  0  0  0
  -29.7891  -11.7316   17.5354 H   0  0  0  0  0  0
  -29.6143  -13.4616   17.7189 H   0  0  0  0  0  0
  -27.9019  -11.2721   18.9401 H   0  0  0  0  0  0
  -27.3628  -12.4854   17.8111 H   0  0  0  0  0  0
  -27.5969  -14.2298   19.4129 H   0  0  0  0  0  0
  -28.7257  -12.2641   21.4792 H   0  0  0  0  0  0
  -28.4063  -13.9537   21.7597 H   0  0  0  0  0  0
  -25.2702   -9.5800   22.4791 H   0  0  0  0  0  0
  -24.0036   -7.4679   22.7479 H   0  0  0  0  0  0
  -21.0837   -8.8714   19.8944 H   0  0  0  0  0  0
  -22.3611  -10.9666   19.6175 H   0  0  0  0  0  0
  -21.2024   -7.6161   23.9738 H   0  0  0  0  0  0
  -21.1444   -6.0524   25.9085 H   0  0  0  0  0  0
  -22.0603   -2.7618   23.2846 H   0  0  0  0  0  0
  -22.3927  -11.9980   22.4885 H   0  0  0  0  0  0
  -21.0951  -13.1320   22.2495 H   0  0  0  0  0  0
  -24.6316  -15.8369   20.5130 H   0  0  0  0  0  0
  -26.2419  -15.6303   20.0438 H   0  0  0  0  0  0
  -26.7260  -32.5385   23.1106 H   0  0  0  0  0  0
  -25.0214  -33.9681   25.0483 H   0  0  0  0  0  0
  -22.7265  -31.3101   21.4144 H   0  0  0  0  0  0
  -23.3764  -35.9559   23.3229 H   0  0  0  0  0  0
  -24.3602  -36.8946   22.2074 H   0  0  0  0  0  0
  -23.7192  -37.6410   23.6711 H   0  0  0  0  0  0
  -26.1318  -31.5227   20.6313 H   0  0  0  0  0  0
  -26.8598  -30.7991   22.0323 H   0  0  0  0  0  0
  -28.0973  -28.8474   21.2776 H   0  0  0  0  0  0
  -25.8715  -26.0152   18.8467 H   0  0  0  0  0  0
  -23.9692  -27.4094   18.9082 H   0  0  0  0  0  0
  -23.7658  -30.6253   19.4140 H   0  0  0  0  0  0
  -22.7645  -29.2745   19.8534 H   0  0  0  0  0  0
  -25.1276  -36.1855   25.0816 H   0  0  0  0  0  0
  -20.9974  -28.3243   24.1419 H   0  0  0  0  0  0
  -20.5745  -26.2276   23.3597 H   0  0  0  0  0  0
  -21.6641  -26.7482   22.1148 H   0  0  0  0  0  0
  -19.6901  -25.6300   21.1258 H   0  0  0  0  0  0
  -19.6702  -27.3211   20.6779 H   0  0  0  0  0  0
  -17.4204  -26.6738   21.4011 H   0  0  0  0  0  0
  -18.0280  -26.0089   22.9014 H   0  0  0  0  0  0
  -19.7928  -30.7330   24.2202 H   0  0  0  0  0  0
  -17.4999  -31.6295   24.5136 H   0  0  0  0  0  0
  -15.5338  -30.2960   23.7741 H   0  0  0  0  0  0
  -15.8670  -28.0836   22.7088 H   0  0  0  0  0  0
  -24.5976  -30.7032   25.7816 H   0  0  0  0  0  0
  -24.8996  -32.2870   26.4910 H   0  0  0  0  0  0
  -25.8134  -30.8877   27.0246 H   0  0  0  0  0  0
  -26.3031  -29.6670   24.1294 H   0  0  0  0  0  0
  -27.4091  -29.7251   25.4812 H   0  0  0  0  0  0
  -27.8918  -30.4218   23.9554 H   0  0  0  0  0  0
  -27.2739  -33.3647   26.2013 H   0  0  0  0  0  0
  -28.3998  -32.6727   25.0411 H   0  0  0  0  0  0
  -28.0672  -31.8455   26.5545 H   0  0  0  0  0  0
  -28.2524  -38.0124   24.7548 H   0  0  0  0  0  0
  -28.1103  -36.2651   24.6220 H   0  0  0  0  0  0
  -27.2300  -37.1320   25.8873 H   0  0  0  0  0  0
  -20.9405  -29.8751   21.6888 H   0  0  0  0  0  0
  -26.0108  -38.2807   24.1472 H   0  0  0  0  0  0
  -30.2432  -21.2775   22.0744 H   0  0  0  0  0  0
  -28.1509  -18.0618   21.7449 H   0  0  0  0  0  0
  -27.5542  -18.3205   20.1510 H   0  0  0  0  0  0
  -28.8937  -16.4611   19.2412 H   0  0  0  0  0  0
  -28.0530  -15.9357   20.6769 H   0  0  0  0  0  0
  -31.4892  -19.2714   21.1922 H   0  0  0  0  0  0
  -30.3378  -18.8713   22.4280 H   0  0  0  0  0  0
  -31.8766  -17.1259   20.5797 H   0  0  0  0  0  0
  -30.5494  -23.5203   22.7155 H   0  0  0  0  0  0
  -29.0045  -24.3742   22.6219 H   0  0  0  0  0  0
  -30.3121  -24.7735   21.5002 H   0  0  0  0  0  0
  -26.2755  -23.4117   18.2865 H   0  0  0  0  0  0
  -26.4060  -21.8228   17.6728 H   0  0  0  0  0  0
  -27.5526  -23.0440   17.1191 H   0  0  0  0  0  0
  -28.0625  -20.3871   17.1903 H   0  0  0  0  0  0
  -26.9667  -19.6015   18.3401 H   0  0  0  0  0  0
  -28.6396  -19.0698   18.1509 H   0  0  0  0  0  0
  -30.9736  -16.7227   23.4707 H   0  0  0  0  0  0
  -32.4795  -17.4709   22.9565 H   0  0  0  0  0  0
  -32.2109  -15.7648   22.6636 H   0  0  0  0  0  0
  -26.8249  -24.6786   20.1498 H   0  0  0  0  0  0
  -27.7797  -24.9866   18.6791 H   0  0  0  0  0  0
  1 25  1  0  0  0
  1 30  2  0  0  0
  1 87  1  0  0  0
  2  3  1  0  0  0
  2 25  1  0  0  0
  2 88  1  0  0  0
  2 89  1  0  0  0
  3  4  1  0  0  0
  3 90  1  0  0  0
  3 91  1  0  0  0
  4  5  1  0  0  0
  4 92  1  0  0  0
  4 93  1  0  0  0
  5  6  1  0  0  0
  5 26  1  0  0  0
  5 94  1  0  0  0
  6 25  1  0  0  0
  6 95  1  0  0  0
  6 96  1  0  0  0
  7  8  2  0  0  0
  7 26  1  0  0  0
  7 29  1  0  0  0
  8  9  1  0  0  0
  8 22  1  0  0  0
  9 10  1  0  0  0
  9 27  2  0  0  0
 10 11  2  0  0  0
 10 15  1  0  0  0
 11 12  1  0  0  0
 11 97  1  0  0  0
 12 13  2  0  0  0
 12 98  1  0  0  0
 13 14  1  0  0  0
 13 31  1  0  0  0
 14 15  2  0  0  0
 14 99  1  0  0  0
 15100  1  0  0  0
 16 17  2  0  0  0
 16 21  1  0  0  0
 16 31  1  0  0  0
 17 18  1  0  0  0
 17101  1  0  0  0
 18 19  2  0  0  0
 18102  1  0  0  0
 19 20  1  0  0  0
 19 24  1  0  0  0
 20 21  2  0  0  0
 20103  1  0  0  0
 21 23  1  0  0  0
 22 28  1  0  0  0
 22 32  2  0  0  0
 26 27  1  0  0  0
 28104  1  0  0  0
 28105  1  0  0  0
 29106  1  0  0  0
 29107  1  0  0  0
 33 34  1  0  0  0
 33 66  1  0  0  0
 33 70  2  0  0  0
 34 36  1  0  0  0
 34 59  1  0  0  0
 34108  1  0  0  0
 35 44  2  0  0  0
 35 45  1  0  0  0
 35 68  1  0  0  0
 36 56  1  0  0  0
 36109  1  0  0  0
 37 39  1  0  0  0
 37 47  1  0  0  0
 37 66  1  0  0  0
 37110  1  0  0  0
 38 43  2  0  0  0
 38 46  1  0  0  0
 38 47  1  0  0  0
 39 64  1  0  0  0
 39 67  2  0  0  0
 40 52  1  0  0  0
 40 53  2  0  0  0
 40 58  1  0  0  0
 41111  1  0  0  0
 41112  1  0  0  0
 41113  1  0  0  0
 41 48  1  0  0  0
 42 43  1  0  0  0
 42 66  1  0  0  0
 42114  1  0  0  0
 42115  1  0  0  0
 43 44  1  0  0  0
 44116  1  0  0  0
 45 46  2  0  0  0
 45117  1  0  0  0
 46118  1  0  0  0
 47119  1  0  0  0
 47120  1  0  0  0
 48 56  1  0  0  0
 48 65  1  0  0  0
 48121  1  0  0  0
 49 50  1  0  0  0
 49 53  1  0  0  0
 49 64  1  0  0  0
 49122  1  0  0  0
 50 51  1  0  0  0
 50123  1  0  0  0
 50124  1  0  0  0
 51 52  1  0  0  0
 51125  1  0  0  0
 51126  1  0  0  0
 52127  1  0  0  0
 52128  1  0  0  0
 53 54  1  0  0  0
 54 55  2  0  0  0
 54129  1  0  0  0
 55 57  1  0  0  0
 55130  1  0  0  0
 56 69  2  0  0  0
 57 58  2  0  0  0
 57131  1  0  0  0
 58132  1  0  0  0
 59 60  1  0  0  0
 59 61  1  0  0  0
 59 62  1  0  0  0
 60133  1  0  0  0
 60134  1  0  0  0
 60135  1  0  0  0
 61136  1  0  0  0
 61137  1  0  0  0
 61138  1  0  0  0
 62139  1  0  0  0
 62140  1  0  0  0
 62141  1  0  0  0
 63 65  1  0  0  0
 63142  1  0  0  0
 63143  1  0  0  0
 63144  1  0  0  0
 64145  1  0  0  0
 65146  1  0  0  0
 68 85  1  0  0  0
 71 72  2  0  0  0
 71 76  1  0  0  0
 71147  1  0  0  0
 72 74  1  0  0  0
 72 81  1  0  0  0
 73 74  2  0  0  0
 73 75  1  0  0  0
 73 82  1  0  0  0
 74 85  1  0  0  0
 75 76  2  0  0  0
 75 83  1  0  0  0
 76 86  1  0  0  0
 77 78  1  0  0  0
 77 86  1  0  0  0
 77148  1  0  0  0
 77149  1  0  0  0
 78 87  1  0  0  0
 78150  1  0  0  0
 78151  1  0  0  0
 79 80  1  0  0  0
 79 86  1  0  0  0
 79152  1  0  0  0
 79153  1  0  0  0
 80 84  1  0  0  0
 80 87  1  0  0  0
 80154  1  0  0  0
 81155  1  0  0  0
 81156  1  0  0  0
 81157  1  0  0  0
 82158  1  0  0  0
 82159  1  0  0  0
 82160  1  0  0  0
 83161  1  0  0  0
 83162  1  0  0  0
 83163  1  0  0  0
 84164  1  0  0  0
 84165  1  0  0  0
 84166  1  0  0  0
 85167  1  0  0  0
 85168  1  0  0  0
M  ISO  4   1 100  68 101  85 101  87 100
M  END
> <chiral flag>
0

> <version>
0

> <s_m_source_file>
/data/baiqing/PycharmProjects/Reinvent-master-3.2/result/LINK_invent/BTK/process_docking_weight1_custom_sum_contain_oxygen_bond_distance_aromatic_linkinvent_7_9_3/rearranged_h_0157.sdf

> <i_m_source_file_index>
33

> <r_mmod_Potential_Energy-OPLS-2005>
522.130554199219

> <r_mmod_Stretch_Energy-OPLS-2005>
142.167114257812

> <r_mmod_Bend_Energy-OPLS-2005>
259.172271728516

> <r_mmod_Torsional_Energy-OPLS-2005>
345.771942138672

> <r_mmod_Improper_Torsional_Energy-OPLS-2005>
8.258864402771

> <r_mmod_Van_der_Waal_Energy-OPLS-2005>
184.261184692383

> <r_mmod_Electrostatic_Energy-OPLS-2005>
-321.824890136719

> <r_mmod_Solvation_Energy-OPLS-2005>
-207.491394042969

> <b_mmod_Minimization_Converged-OPLS-2005>
0

> <r_mmod_RMS_Derivative-OPLS-2005>
2.18463325500488

$$$$
33
                    3D
 Structure written by MMmdl.
172181  0  0  1  0            999 V2000
  -30.7215  -14.5671   20.5363 C   0  0  0  0  0  0
  -30.4130  -12.3649   19.4395 C   0  0  0  0  0  0
  -29.4877  -12.4916   18.2131 C   0  0  0  0  0  0
  -28.0161  -12.3043   18.6296 C   0  0  0  0  0  0
  -27.6408  -13.1778   19.8507 C   0  0  2  0  0  0
  -28.6958  -13.0555   20.9842 C   0  0  0  0  0  0
  -25.2525  -13.8054   20.5632 C   0  0  0  0  0  0
  -24.1794  -13.0382   20.9235 C   0  0  0  0  0  0
  -24.6326  -11.6844   20.8796 C   0  0  0  0  0  0
  -23.8999  -10.4257   21.0447 C   0  0  0  0  0  0
  -24.3576   -9.4179   21.9209 C   0  0  0  0  0  0
  -23.6270   -8.2208   22.0759 C   0  0  0  0  0  0
  -22.4258   -8.0248   21.3540 C   0  0  0  0  0  0
  -21.9879   -9.0220   20.4647 C   0  0  0  0  0  0
  -22.7189  -10.2107   20.3073 C   0  0  0  0  0  0
  -21.6837   -6.0715   22.5276 C   0  0  0  0  0  0
  -21.4000   -6.5626   23.8209 C   0  0  0  0  0  0
  -21.3658   -5.6784   24.9175 C   0  0  0  0  0  0
  -21.6050   -4.3048   24.7222 C   0  0  0  0  0  0
  -21.8824   -3.8133   23.4346 C   0  0  0  0  0  0
  -21.9189   -4.6946   22.3400 C   0  0  0  0  0  0
  -22.7831  -13.5218   21.1881 C   0  0  0  0  0  0
  -22.1662   -4.2136   21.0977 F   0  0  0  0  0  0
  -21.5639   -3.4532   25.7735 F   0  0  0  0  0  0
  -30.0041  -13.4015   20.4126 N   0  0  0  0  0  0
  -26.2903  -12.9155   20.3267 N   0  0  0  0  0  0
  -25.9227  -11.6367   20.5788 N   0  0  0  0  0  0
  -22.0447  -12.8229   22.0428 N   0  0  0  0  0  0
  -25.4200  -15.1756   20.3881 N   0  0  0  0  0  0
  -31.8933  -14.5992   20.1510 O   0  0  0  0  0  0
  -21.6628   -6.8846   21.4233 O   0  0  0  0  0  0
  -22.3562  -14.5540   20.6722 O   0  0  0  0  0  0
  -24.6147  -31.8670   23.2086 C   0  0  0  0  0  0
  -25.9039  -32.4818   23.8383 C   0  0  1  0  0  0
  -27.2399  -27.4187   20.1062 C   0  0  0  0  0  0
  -25.5890  -33.8616   24.2312 N   0  0  0  0  0  0
  -23.4036  -30.4888   21.5488 C   0  0  2  0  0  0
  -24.8497  -28.9432   20.1221 C   0  0  0  0  0  0
  -22.7400  -29.4661   22.4992 C   0  0  0  0  0  0
  -18.0257  -28.1380   22.8488 C   0  0  0  0  0  0
  -24.1482  -36.7326   23.2642 C   0  0  0  0  0  0
  -25.9316  -30.8275   21.3619 C   0  0  0  0  0  0
  -26.0086  -29.4570   20.7168 C   0  0  0  0  0  0
  -27.2042  -28.7022   20.7034 C   0  0  0  0  0  0
  -26.0598  -26.9144   19.5179 C   0  0  0  0  0  0
  -24.8698  -27.6709   19.5225 C   0  0  0  0  0  0
  -23.6138  -29.8153   20.1655 C   0  0  0  0  0  0
  -25.4105  -36.3117   24.0336 C   0  0  1  0  0  0
  -20.5845  -28.3675   23.1317 C   0  0  2  0  0  0
  -20.6755  -26.9413   22.5422 C   0  0  0  0  0  0
  -19.5739  -26.6387   21.5217 C   0  0  0  0  0  0
  -18.1911  -26.7928   22.1620 C   0  0  0  0  0  0
  -19.1507  -28.8839   23.2900 C   0  0  0  0  0  0
  -18.9441  -30.1438   23.8920 C   0  0  0  0  0  0
  -17.6450  -30.6593   24.0561 C   0  0  0  0  0  0
  -25.9034  -34.9478   23.5128 C   0  0  0  0  0  0
  -16.5338  -29.9102   23.6320 C   0  0  0  0  0  0
  -16.7247  -28.6514   23.0346 C   0  0  0  0  0  0
  -26.4470  -31.6600   25.0718 C   0  0  0  0  0  0
  -25.3740  -31.3700   26.1472 C   0  0  0  0  0  0
  -27.0307  -30.3040   24.6103 C   0  0  0  0  0  0
  -27.6042  -32.4325   25.7478 C   0  0  0  0  0  0
  -27.5577  -37.1815   24.8458 C   0  0  0  0  0  0
  -21.4126  -29.3043   22.3726 N   0  0  0  0  0  0
  -26.4289  -37.3805   23.9406 N   0  0  0  0  0  0
  -24.6681  -31.0761   22.0984 N   0  0  0  0  0  0
  -23.4163  -28.8212   23.3049 O   0  0  0  0  0  0
  -28.4411  -26.7360   20.0498 O   0  0  0  0  0  0
  -26.5609  -34.8934   22.4695 O   0  0  0  0  0  0
  -23.5339  -32.1423   23.7480 O   0  0  0  0  0  0
  -29.1891  -23.4177   21.5846 C   0  0  0  0  0  0
  -28.8788  -23.1332   19.1739 C   0  0  0  0  0  0
  -29.2642  -22.5824   20.4316 C   0  0  0  0  0  0
  -28.8232  -24.7895   21.4599 C   0  0  0  0  0  0
  -28.5707  -24.5189   19.0506 C   0  0  0  0  0  0
  -28.5493  -25.3588   20.1915 C   0  0  0  0  0  0
  -28.8019  -16.1795   20.5794 C   0  0  0  0  0  0
  -31.0786  -16.8219   21.4282 C   0  0  0  0  0  0
  -28.3444  -17.6191   20.9127 C   0  0  0  0  0  0
  -30.4888  -18.2218   21.7616 C   0  0  0  0  0  0
  -29.5277  -22.8832   22.9767 C   0  0  0  0  0  0
  -28.8420  -22.2460   17.9300 C   0  0  0  0  0  0
  -28.7938  -25.6791   22.6982 C   0  0  0  0  0  0
  -28.3213  -25.1281   17.6736 C   0  0  0  0  0  0
  -29.8559  -21.1467   20.5056 C   0  0  0  0  0  0
  -28.8926  -20.0241   20.9861 C   0  0  0  0  0  0
  -30.1466  -15.7308   21.0130 N   0  0  0  0  0  0
  -29.4191  -18.6252   20.8212 N   0  3  0  0  0  0
  -31.4557  -12.4504   19.1290 H   0  0  0  0  0  0
  -30.3244  -11.3715   19.8836 H   0  0  0  0  0  0
  -29.7596  -11.7567   17.4544 H   0  0  0  0  0  0
  -29.6182  -13.4720   17.7521 H   0  0  0  0  0  0
  -27.8669  -11.2508   18.8685 H   0  0  0  0  0  0
  -27.3539  -12.5212   17.7900 H   0  0  0  0  0  0
  -27.6315  -14.1822   19.4455 H   0  0  0  0  0  0
  -28.7171  -12.0325   21.3650 H   0  0  0  0  0  0
  -28.4564  -13.6662   21.8541 H   0  0  0  0  0  0
  -25.2713   -9.5666   22.4797 H   0  0  0  0  0  0
  -23.9981   -7.4593   22.7473 H   0  0  0  0  0  0
  -21.0810   -8.8731   19.8952 H   0  0  0  0  0  0
  -22.3639  -10.9656   19.6199 H   0  0  0  0  0  0
  -21.1990   -7.6135   23.9707 H   0  0  0  0  0  0
  -21.1482   -6.0514   25.9080 H   0  0  0  0  0  0
  -22.0608   -2.7595   23.2842 H   0  0  0  0  0  0
  -22.4028  -11.9867   22.4799 H   0  0  0  0  0  0
  -21.1088  -13.1302   22.2658 H   0  0  0  0  0  0
  -24.6274  -15.8056   20.4490 H   0  0  0  0  0  0
  -26.2070  -15.5757   19.8982 H   0  0  0  0  0  0
  -26.7113  -32.5534   23.1148 H   0  0  0  0  0  0
  -25.0008  -33.9778   25.0437 H   0  0  0  0  0  0
  -22.6938  -31.3062   21.4067 H   0  0  0  0  0  0
  -23.3742  -35.9663   23.3311 H   0  0  0  0  0  0
  -24.3573  -36.8941   22.2055 H   0  0  0  0  0  0
  -23.7238  -37.6533   23.6655 H   0  0  0  0  0  0
  -26.0415  -31.5897   20.5891 H   0  0  0  0  0  0
  -26.8202  -30.8858   21.9790 H   0  0  0  0  0  0
  -28.1057  -29.1035   21.1450 H   0  0  0  0  0  0
  -26.0562  -25.9422   19.0481 H   0  0  0  0  0  0
  -23.9778  -27.2673   19.0634 H   0  0  0  0  0  0
  -23.7290  -30.5878   19.4041 H   0  0  0  0  0  0
  -22.7362  -29.2386   19.8678 H   0  0  0  0  0  0
  -25.1283  -36.1983   25.0830 H   0  0  0  0  0  0
  -20.9929  -28.3246   24.1444 H   0  0  0  0  0  0
  -20.5659  -26.2292   23.3616 H   0  0  0  0  0  0
  -21.6627  -26.7473   22.1217 H   0  0  0  0  0  0
  -19.6912  -25.6301   21.1241 H   0  0  0  0  0  0
  -19.6680  -27.3202   20.6753 H   0  0  0  0  0  0
  -17.4189  -26.6669   21.4013 H   0  0  0  0  0  0
  -18.0311  -26.0062   22.9009 H   0  0  0  0  0  0
  -19.7923  -30.7227   24.2323 H   0  0  0  0  0  0
  -17.5019  -31.6277   24.5153 H   0  0  0  0  0  0
  -15.5342  -30.3019   23.7642 H   0  0  0  0  0  0
  -15.8639  -28.0847   22.7063 H   0  0  0  0  0  0
  -24.5890  -30.7082   25.7797 H   0  0  0  0  0  0
  -24.8963  -32.2857   26.4968 H   0  0  0  0  0  0
  -25.8092  -30.8820   27.0203 H   0  0  0  0  0  0
  -26.2854  -29.6797   24.1163 H   0  0  0  0  0  0
  -27.4078  -29.7287   25.4570 H   0  0  0  0  0  0
  -27.8685  -30.4361   23.9252 H   0  0  0  0  0  0
  -27.2649  -33.3601   26.2105 H   0  0  0  0  0  0
  -28.3817  -32.6932   25.0284 H   0  0  0  0  0  0
  -28.0753  -31.8427   26.5354 H   0  0  0  0  0  0
  -28.2597  -38.0111   24.7512 H   0  0  0  0  0  0
  -28.1065  -36.2643   24.6265 H   0  0  0  0  0  0
  -27.2298  -37.1449   25.8862 H   0  0  0  0  0  0
  -20.9293  -29.8769   21.6951 H   0  0  0  0  0  0
  -26.0177  -38.2886   24.1407 H   0  0  0  0  0  0
  -28.7467  -16.0566   19.4959 H   0  0  0  0  0  0
  -28.0402  -15.5599   21.0360 H   0  0  0  0  0  0
  -31.6707  -16.4758   22.2776 H   0  0  0  0  0  0
  -31.7957  -16.9917   20.6220 H   0  0  0  0  0  0
  -27.9322  -17.6419   21.9238 H   0  0  0  0  0  0
  -27.5171  -17.8860   20.2538 H   0  0  0  0  0  0
  -31.2937  -18.9576   21.7549 H   0  0  0  0  0  0
  -30.0928  -18.2209   22.7781 H   0  0  0  0  0  0
  -29.8990  -21.8631   22.9990 H   0  0  0  0  0  0
  -28.6403  -22.9066   23.6100 H   0  0  0  0  0  0
  -30.2944  -23.4979   23.4485 H   0  0  0  0  0  0
  -28.5159  -21.2335   18.1644 H   0  0  0  0  0  0
  -29.8283  -22.1950   17.4678 H   0  0  0  0  0  0
  -28.1363  -22.6048   17.1824 H   0  0  0  0  0  0
  -29.7976  -25.8029   23.1044 H   0  0  0  0  0  0
  -28.1599  -25.2421   23.4690 H   0  0  0  0  0  0
  -28.4007  -26.6734   22.4988 H   0  0  0  0  0  0
  -29.0868  -24.8126   16.9649 H   0  0  0  0  0  0
  -28.3381  -26.2170   17.6827 H   0  0  0  0  0  0
  -27.3484  -24.8183   17.2920 H   0  0  0  0  0  0
  -30.7428  -21.1729   21.1373 H   0  0  0  0  0  0
  -30.2682  -20.8688   19.5371 H   0  0  0  0  0  0
  -27.9776  -20.1166   20.3988 H   0  0  0  0  0  0
  -28.5947  -20.1853   22.0228 H   0  0  0  0  0  0
  -29.7954  -18.5677   19.8868 H   0  0  0  0  0  0
  1 25  1  0  0  0
  1 30  2  0  0  0
  1 87  1  0  0  0
  2  3  1  0  0  0
  2 25  1  0  0  0
  2 89  1  0  0  0
  2 90  1  0  0  0
  3  4  1  0  0  0
  3 91  1  0  0  0
  3 92  1  0  0  0
  4  5  1  0  0  0
  4 93  1  0  0  0
  4 94  1  0  0  0
  5  6  1  0  0  0
  5 26  1  0  0  0
  5 95  1  0  0  0
  6 25  1  0  0  0
  6 96  1  0  0  0
  6 97  1  0  0  0
  7  8  2  0  0  0
  7 26  1  0  0  0
  7 29  1  0  0  0
  8  9  1  0  0  0
  8 22  1  0  0  0
  9 10  1  0  0  0
  9 27  2  0  0  0
 10 11  2  0  0  0
 10 15  1  0  0  0
 11 12  1  0  0  0
 11 98  1  0  0  0
 12 13  2  0  0  0
 12 99  1  0  0  0
 13 14  1  0  0  0
 13 31  1  0  0  0
 14 15  2  0  0  0
 14100  1  0  0  0
 15101  1  0  0  0
 16 17  2  0  0  0
 16 21  1  0  0  0
 16 31  1  0  0  0
 17 18  1  0  0  0
 17102  1  0  0  0
 18 19  2  0  0  0
 18103  1  0  0  0
 19 20  1  0  0  0
 19 24  1  0  0  0
 20 21  2  0  0  0
 20104  1  0  0  0
 21 23  1  0  0  0
 22 28  1  0  0  0
 22 32  2  0  0  0
 26 27  1  0  0  0
 28105  1  0  0  0
 28106  1  0  0  0
 29107  1  0  0  0
 29108  1  0  0  0
 33 34  1  0  0  0
 33 66  1  0  0  0
 33 70  2  0  0  0
 34 36  1  0  0  0
 34 59  1  0  0  0
 34109  1  0  0  0
 35 44  2  0  0  0
 35 45  1  0  0  0
 35 68  1  0  0  0
 36 56  1  0  0  0
 36110  1  0  0  0
 37 39  1  0  0  0
 37 47  1  0  0  0
 37 66  1  0  0  0
 37111  1  0  0  0
 38 43  2  0  0  0
 38 46  1  0  0  0
 38 47  1  0  0  0
 39 64  1  0  0  0
 39 67  2  0  0  0
 40 52  1  0  0  0
 40 53  2  0  0  0
 40 58  1  0  0  0
 41112  1  0  0  0
 41113  1  0  0  0
 41114  1  0  0  0
 41 48  1  0  0  0
 42 43  1  0  0  0
 42 66  1  0  0  0
 42115  1  0  0  0
 42116  1  0  0  0
 43 44  1  0  0  0
 44117  1  0  0  0
 45 46  2  0  0  0
 45118  1  0  0  0
 46119  1  0  0  0
 47120  1  0  0  0
 47121  1  0  0  0
 48 56  1  0  0  0
 48 65  1  0  0  0
 48122  1  0  0  0
 49 50  1  0  0  0
 49 53  1  0  0  0
 49 64  1  0  0  0
 49123  1  0  0  0
 50 51  1  0  0  0
 50124  1  0  0  0
 50125  1  0  0  0
 51 52  1  0  0  0
 51126  1  0  0  0
 51127  1  0  0  0
 52128  1  0  0  0
 52129  1  0  0  0
 53 54  1  0  0  0
 54 55  2  0  0  0
 54130  1  0  0  0
 55 57  1  0  0  0
 55131  1  0  0  0
 56 69  2  0  0  0
 57 58  2  0  0  0
 57132  1  0  0  0
 58133  1  0  0  0
 59 60  1  0  0  0
 59 61  1  0  0  0
 59 62  1  0  0  0
 60134  1  0  0  0
 60135  1  0  0  0
 60136  1  0  0  0
 61137  1  0  0  0
 61138  1  0  0  0
 61139  1  0  0  0
 62140  1  0  0  0
 62141  1  0  0  0
 62142  1  0  0  0
 63 65  1  0  0  0
 63143  1  0  0  0
 63144  1  0  0  0
 63145  1  0  0  0
 64146  1  0  0  0
 65147  1  0  0  0
 68 76  1  0  0  0
 71 73  2  0  0  0
 71 74  1  0  0  0
 71 81  1  0  0  0
 72 73  1  0  0  0
 72 75  2  0  0  0
 72 82  1  0  0  0
 73 85  1  0  0  0
 74 76  2  0  0  0
 74 83  1  0  0  0
 75 76  1  0  0  0
 75 84  1  0  0  0
 77 79  1  0  0  0
 77 87  1  0  0  0
 77148  1  0  0  0
 77149  1  0  0  0
 78 80  1  0  0  0
 78 87  1  0  0  0
 78150  1  0  0  0
 78151  1  0  0  0
 79 88  1  0  0  0
 79152  1  0  0  0
 79153  1  0  0  0
 80 88  1  0  0  0
 80154  1  0  0  0
 80155  1  0  0  0
 81156  1  0  0  0
 81157  1  0  0  0
 81158  1  0  0  0
 82159  1  0  0  0
 82160  1  0  0  0
 82161  1  0  0  0
 83162  1  0  0  0
 83163  1  0  0  0
 83164  1  0  0  0
 84165  1  0  0  0
 84166  1  0  0  0
 84167  1  0  0  0
 85 86  1  0  0  0
 85168  1  0  0  0
 85169  1  0  0  0
 86170  1  0  0  0
 86171  1  0  0  0
 86 88  1  0  0  0
 88172  1  0  0  0
M  CHG  1  88   1
M  ISO  4   1 100  68 101  76 101  87 100
M  END
> <chiral flag>
0

> <version>
0

> <s_m_source_file>
/data/baiqing/PycharmProjects/Reinvent-master-3.2/result/LINK_invent/BTK/process_docking_weight1_custom_sum_contain_oxygen_bond_distance_aromatic_linkinvent_7_9_3/rearranged_h_0157.sdf

> <i_m_source_file_index>
34

> <r_mmod_Potential_Energy-OPLS-2005>
89.1317749023438

> <r_mmod_Stretch_Energy-OPLS-2005>
56.5189819335938

> <r_mmod_Bend_Energy-OPLS-2005>
139.436782836914

> <r_mmod_Torsional_Energy-OPLS-2005>
374.644561767578

> <r_mmod_Improper_Torsional_Energy-OPLS-2005>
6.21590280532837

> <r_mmod_Van_der_Waal_Energy-OPLS-2005>
179.300231933594

> <r_mmod_Electrostatic_Energy-OPLS-2005>
-248.627990722656

> <r_mmod_Solvation_Energy-OPLS-2005>
-443.622863769531

> <b_mmod_Minimization_Converged-OPLS-2005>
0

> <r_mmod_RMS_Derivative-OPLS-2005>
1.23524415493011

$$$$
34
                    3D
 Structure written by MMmdl.
166175  0  0  1  0            999 V2000
  -30.6698  -14.5066   20.5689 C   0  0  0  0  0  0
  -30.4262  -12.3258   19.4230 C   0  0  0  0  0  0
  -29.4981  -12.5094   18.2046 C   0  0  0  0  0  0
  -28.0178  -12.3667   18.6141 C   0  0  0  0  0  0
  -27.6577  -13.2063   19.8696 C   0  0  2  0  0  0
  -28.6976  -12.9943   20.9920 C   0  0  0  0  0  0
  -25.2576  -13.8150   20.5658 C   0  0  0  0  0  0
  -24.1840  -13.0432   20.9186 C   0  0  0  0  0  0
  -24.6400  -11.6899   20.8733 C   0  0  0  0  0  0
  -23.9061  -10.4288   21.0408 C   0  0  0  0  0  0
  -24.3617   -9.4205   21.9183 C   0  0  0  0  0  0
  -23.6292   -8.2243   22.0753 C   0  0  0  0  0  0
  -22.4273   -8.0282   21.3546 C   0  0  0  0  0  0
  -21.9911   -9.0252   20.4645 C   0  0  0  0  0  0
  -22.7240  -10.2131   20.3052 C   0  0  0  0  0  0
  -21.6852   -6.0735   22.5280 C   0  0  0  0  0  0
  -21.4011   -6.5635   23.8211 C   0  0  0  0  0  0
  -21.3657   -5.6790   24.9171 C   0  0  0  0  0  0
  -21.6045   -4.3056   24.7226 C   0  0  0  0  0  0
  -21.8820   -3.8147   23.4348 C   0  0  0  0  0  0
  -21.9193   -4.6963   22.3404 C   0  0  0  0  0  0
  -22.7862  -13.5232   21.1850 C   0  0  0  0  0  0
  -22.1660   -4.2154   21.0982 F   0  0  0  0  0  0
  -21.5632   -3.4536   25.7737 F   0  0  0  0  0  0
  -30.0213  -13.3153   20.4366 N   0  0  0  0  0  0
  -26.3003  -12.9317   20.3314 N   0  0  0  0  0  0
  -25.9319  -11.6478   20.5734 N   0  0  0  0  0  0
  -22.0495  -12.8222   22.0404 N   0  0  0  0  0  0
  -25.4267  -15.1875   20.4050 N   0  0  0  0  0  0
  -31.8159  -14.6693   20.1328 O   0  0  0  0  0  0
  -21.6634   -6.8883   21.4246 O   0  0  0  0  0  0
  -22.3547  -14.5541   20.6702 O   0  0  0  0  0  0
  -24.6125  -31.8671   23.2134 C   0  0  0  0  0  0
  -25.9037  -32.4805   23.8403 C   0  0  1  0  0  0
  -27.2297  -27.4297   20.1104 C   0  0  0  0  0  0
  -25.5906  -33.8602   24.2357 N   0  0  0  0  0  0
  -23.4002  -30.4894   21.5521 C   0  0  2  0  0  0
  -24.8499  -28.9533   20.1169 C   0  0  0  0  0  0
  -22.7403  -29.4628   22.5003 C   0  0  0  0  0  0
  -18.0252  -28.1369   22.8496 C   0  0  0  0  0  0
  -24.1474  -36.7287   23.2646 C   0  0  0  0  0  0
  -25.9289  -30.8278   21.3698 C   0  0  0  0  0  0
  -26.0074  -29.4603   20.7228 C   0  0  0  0  0  0
  -27.2000  -28.7015   20.7268 C   0  0  0  0  0  0
  -26.0646  -26.9381   19.4903 C   0  0  0  0  0  0
  -24.8722  -27.6880   19.5019 C   0  0  0  0  0  0
  -23.6101  -29.8198   20.1667 C   0  0  0  0  0  0
  -25.4097  -36.3097   24.0355 C   0  0  1  0  0  0
  -20.5842  -28.3634   23.1345 C   0  0  2  0  0  0
  -20.6737  -26.9368   22.5434 C   0  0  0  0  0  0
  -19.5713  -26.6366   21.5226 C   0  0  0  0  0  0
  -18.1884  -26.7921   22.1619 C   0  0  0  0  0  0
  -19.1504  -28.8823   23.2903 C   0  0  0  0  0  0
  -18.9442  -30.1441   23.8898 C   0  0  0  0  0  0
  -17.6448  -30.6586   24.0562 C   0  0  0  0  0  0
  -25.9028  -34.9458   23.5148 C   0  0  0  0  0  0
  -16.5335  -29.9084   23.6347 C   0  0  0  0  0  0
  -16.7245  -28.6496   23.0375 C   0  0  0  0  0  0
  -26.4497  -31.6579   25.0720 C   0  0  0  0  0  0
  -25.3780  -31.3626   26.1474 C   0  0  0  0  0  0
  -27.0369  -30.3048   24.6070 C   0  0  0  0  0  0
  -27.6092  -32.4302   25.7458 C   0  0  0  0  0  0
  -27.5574  -37.1783   24.8468 C   0  0  0  0  0  0
  -21.4133  -29.3012   22.3764 N   0  0  0  0  0  0
  -26.4281  -37.3795   23.9430 N   0  0  0  0  0  0
  -24.6647  -31.0770   22.1029 N   0  0  0  0  0  0
  -23.4187  -28.8162   23.3017 O   0  0  0  0  0  0
  -28.3692  -26.6598   20.0880 O   0  0  0  0  0  0
  -26.5576  -34.8908   22.4701 O   0  0  0  0  0  0
  -23.5328  -32.1435   23.7534 O   0  0  0  0  0  0
  -29.0636  -23.7948   20.0689 C   0  0  0  0  0  0
  -29.0898  -22.3877   19.9707 C   0  0  0  0  0  0
  -29.3286  -17.9212   21.0234 C   0  0  0  0  0  0
  -28.5858  -24.4366   21.2311 C   0  0  0  0  0  0
  -28.1229  -23.6282   22.3095 C   0  0  0  0  0  0
  -28.1785  -22.2025   22.2188 C   0  0  0  0  0  0
  -30.9547  -19.5879   21.7046 C   0  0  0  0  0  0
  -28.6745  -21.5740   21.0466 C   0  0  0  0  0  0
  -29.6470  -19.2916   21.2177 C   0  0  0  0  0  0
  -31.8303  -18.5004   21.9480 C   0  0  0  0  0  0
  -30.2771  -16.8942   21.2564 C   0  0  0  0  0  0
  -27.5521  -24.3095   23.5523 C   0  0  0  0  0  0
  -27.7014  -21.3294   23.3721 C   0  0  0  0  0  0
  -31.4333  -21.0152   21.9647 C   0  0  0  0  0  0
  -33.2478  -18.6760   22.4669 C   0  0  0  0  0  0
  -28.6589  -25.9766   21.3165 C   0  0  0  0  0  0
  -31.4954  -17.2151   21.7305 N   0  0  0  0  0  0
  -29.9018  -15.5339   21.0135 N   0  0  0  0  0  0
  -28.6363  -20.1965   20.8882 O   0  0  0  0  0  0
  -31.4710  -12.4319   19.1235 H   0  0  0  0  0  0
  -30.3345  -11.3151   19.8233 H   0  0  0  0  0  0
  -29.7439  -11.7819   17.4298 H   0  0  0  0  0  0
  -29.6648  -13.4930   17.7616 H   0  0  0  0  0  0
  -27.8288  -11.3100   18.8055 H   0  0  0  0  0  0
  -27.3702  -12.6427   17.7817 H   0  0  0  0  0  0
  -27.6974  -14.2529   19.5681 H   0  0  0  0  0  0
  -28.6842  -11.9570   21.3309 H   0  0  0  0  0  0
  -28.4582  -13.5929   21.8725 H   0  0  0  0  0  0
  -25.2767   -9.5674   22.4750 H   0  0  0  0  0  0
  -23.9999   -7.4631   22.7472 H   0  0  0  0  0  0
  -21.0838   -8.8775   19.8947 H   0  0  0  0  0  0
  -22.3710  -10.9667   19.6152 H   0  0  0  0  0  0
  -21.2002   -7.6142   23.9719 H   0  0  0  0  0  0
  -21.1475   -6.0516   25.9076 H   0  0  0  0  0  0
  -22.0604   -2.7610   23.2843 H   0  0  0  0  0  0
  -22.4094  -11.9875   22.4783 H   0  0  0  0  0  0
  -21.1116  -13.1248   22.2609 H   0  0  0  0  0  0
  -24.6520  -15.8337   20.5093 H   0  0  0  0  0  0
  -26.2580  -15.6273   20.0319 H   0  0  0  0  0  0
  -26.7087  -32.5542   23.1147 H   0  0  0  0  0  0
  -25.0133  -33.9761   25.0554 H   0  0  0  0  0  0
  -22.6878  -31.3050   21.4125 H   0  0  0  0  0  0
  -23.3744  -35.9607   23.3331 H   0  0  0  0  0  0
  -24.3566  -36.8886   22.2054 H   0  0  0  0  0  0
  -23.7202  -37.6487   23.6653 H   0  0  0  0  0  0
  -26.0404  -31.5891   20.5969 H   0  0  0  0  0  0
  -26.8168  -30.8868   21.9867 H   0  0  0  0  0  0
  -28.0935  -29.0799   21.2039 H   0  0  0  0  0  0
  -26.0787  -25.9660   19.0171 H   0  0  0  0  0  0
  -23.9779  -27.2921   19.0398 H   0  0  0  0  0  0
  -23.7142  -30.5953   19.4064 H   0  0  0  0  0  0
  -22.7335  -29.2374   19.8730 H   0  0  0  0  0  0
  -25.1257  -36.1969   25.0849 H   0  0  0  0  0  0
  -20.9919  -28.3194   24.1476 H   0  0  0  0  0  0
  -20.5653  -26.2225   23.3609 H   0  0  0  0  0  0
  -21.6602  -26.7424   22.1205 H   0  0  0  0  0  0
  -19.6875  -25.6279   21.1246 H   0  0  0  0  0  0
  -19.6683  -27.3191   20.6770 H   0  0  0  0  0  0
  -17.4168  -26.6713   21.4001 H   0  0  0  0  0  0
  -18.0247  -26.0052   22.8993 H   0  0  0  0  0  0
  -19.7924  -30.7248   24.2269 H   0  0  0  0  0  0
  -17.5010  -31.6275   24.5138 H   0  0  0  0  0  0
  -15.5334  -30.2982   23.7694 H   0  0  0  0  0  0
  -15.8641  -28.0820   22.7118 H   0  0  0  0  0  0
  -24.5992  -30.6926   25.7812 H   0  0  0  0  0  0
  -24.8897  -32.2732   26.4958 H   0  0  0  0  0  0
  -25.8161  -30.8791   27.0218 H   0  0  0  0  0  0
  -26.2900  -29.6699   24.1287 H   0  0  0  0  0  0
  -27.4362  -29.7378   25.4490 H   0  0  0  0  0  0
  -27.8624  -30.4398   23.9077 H   0  0  0  0  0  0
  -27.2773  -33.3635   26.2019 H   0  0  0  0  0  0
  -28.3915  -32.6809   25.0280 H   0  0  0  0  0  0
  -28.0744  -31.8417   26.5379 H   0  0  0  0  0  0
  -28.2589  -38.0085   24.7561 H   0  0  0  0  0  0
  -28.1079  -36.2624   24.6258 H   0  0  0  0  0  0
  -27.2295  -37.1390   25.8870 H   0  0  0  0  0  0
  -20.9295  -29.8769   21.7016 H   0  0  0  0  0  0
  -26.0172  -38.2865   24.1482 H   0  0  0  0  0  0
  -29.4121  -24.3918   19.2378 H   0  0  0  0  0  0
  -29.4355  -21.9259   19.0561 H   0  0  0  0  0  0
  -28.3427  -17.6674   20.6616 H   0  0  0  0  0  0
  -28.3207  -24.8997   24.0520 H   0  0  0  0  0  0
  -27.1332  -23.6279   24.2896 H   0  0  0  0  0  0
  -26.7378  -24.9789   23.2731 H   0  0  0  0  0  0
  -26.6167  -21.3819   23.4624 H   0  0  0  0  0  0
  -28.1470  -21.6525   24.3135 H   0  0  0  0  0  0
  -27.9743  -20.2821   23.2499 H   0  0  0  0  0  0
  -30.8024  -21.5101   22.7026 H   0  0  0  0  0  0
  -31.4252  -21.5934   21.0423 H   0  0  0  0  0  0
  -32.4497  -21.0748   22.3467 H   0  0  0  0  0  0
  -33.8663  -19.1801   21.7248 H   0  0  0  0  0  0
  -33.7121  -17.7134   22.6850 H   0  0  0  0  0  0
  -33.2646  -19.2561   23.3889 H   0  0  0  0  0  0
  -29.6816  -26.2350   21.5919 H   0  0  0  0  0  0
  -28.0417  -26.3709   22.1252 H   0  0  0  0  0  0
  -28.9303  -15.3089   21.1546 H   0  0  0  0  0  0
  1 25  1  0  0  0
  1 30  2  0  0  0
  1 88  1  0  0  0
  2  3  1  0  0  0
  2 25  1  0  0  0
  2 90  1  0  0  0
  2 91  1  0  0  0
  3  4  1  0  0  0
  3 92  1  0  0  0
  3 93  1  0  0  0
  4  5  1  0  0  0
  4 94  1  0  0  0
  4 95  1  0  0  0
  5  6  1  0  0  0
  5 26  1  0  0  0
  5 96  1  0  0  0
  6 25  1  0  0  0
  6 97  1  0  0  0
  6 98  1  0  0  0
  7  8  2  0  0  0
  7 26  1  0  0  0
  7 29  1  0  0  0
  8  9  1  0  0  0
  8 22  1  0  0  0
  9 10  1  0  0  0
  9 27  2  0  0  0
 10 11  2  0  0  0
 10 15  1  0  0  0
 11 12  1  0  0  0
 11 99  1  0  0  0
 12 13  2  0  0  0
 12100  1  0  0  0
 13 14  1  0  0  0
 13 31  1  0  0  0
 14 15  2  0  0  0
 14101  1  0  0  0
 15102  1  0  0  0
 16 17  2  0  0  0
 16 21  1  0  0  0
 16 31  1  0  0  0
 17 18  1  0  0  0
 17103  1  0  0  0
 18 19  2  0  0  0
 18104  1  0  0  0
 19 20  1  0  0  0
 19 24  1  0  0  0
 20 21  2  0  0  0
 20105  1  0  0  0
 21 23  1  0  0  0
 22 28  1  0  0  0
 22 32  2  0  0  0
 26 27  1  0  0  0
 28106  1  0  0  0
 28107  1  0  0  0
 29108  1  0  0  0
 29109  1  0  0  0
 33 34  1  0  0  0
 33 66  1  0  0  0
 33 70  2  0  0  0
 34 36  1  0  0  0
 34 59  1  0  0  0
 34110  1  0  0  0
 35 44  2  0  0  0
 35 45  1  0  0  0
 35 68  1  0  0  0
 36 56  1  0  0  0
 36111  1  0  0  0
 37 39  1  0  0  0
 37 47  1  0  0  0
 37 66  1  0  0  0
 37112  1  0  0  0
 38 43  2  0  0  0
 38 46  1  0  0  0
 38 47  1  0  0  0
 39 64  1  0  0  0
 39 67  2  0  0  0
 40 52  1  0  0  0
 40 53  2  0  0  0
 40 58  1  0  0  0
 41113  1  0  0  0
 41114  1  0  0  0
 41115  1  0  0  0
 41 48  1  0  0  0
 42 43  1  0  0  0
 42 66  1  0  0  0
 42116  1  0  0  0
 42117  1  0  0  0
 43 44  1  0  0  0
 44118  1  0  0  0
 45 46  2  0  0  0
 45119  1  0  0  0
 46120  1  0  0  0
 47121  1  0  0  0
 47122  1  0  0  0
 48 56  1  0  0  0
 48 65  1  0  0  0
 48123  1  0  0  0
 49 50  1  0  0  0
 49 53  1  0  0  0
 49 64  1  0  0  0
 49124  1  0  0  0
 50 51  1  0  0  0
 50125  1  0  0  0
 50126  1  0  0  0
 51 52  1  0  0  0
 51127  1  0  0  0
 51128  1  0  0  0
 52129  1  0  0  0
 52130  1  0  0  0
 53 54  1  0  0  0
 54 55  2  0  0  0
 54131  1  0  0  0
 55 57  1  0  0  0
 55132  1  0  0  0
 56 69  2  0  0  0
 57 58  2  0  0  0
 57133  1  0  0  0
 58134  1  0  0  0
 59 60  1  0  0  0
 59 61  1  0  0  0
 59 62  1  0  0  0
 60135  1  0  0  0
 60136  1  0  0  0
 60137  1  0  0  0
 61138  1  0  0  0
 61139  1  0  0  0
 61140  1  0  0  0
 62141  1  0  0  0
 62142  1  0  0  0
 62143  1  0  0  0
 63 65  1  0  0  0
 63144  1  0  0  0
 63145  1  0  0  0
 63146  1  0  0  0
 64147  1  0  0  0
 65148  1  0  0  0
 68 86  1  0  0  0
 71 72  2  0  0  0
 71 74  1  0  0  0
 71149  1  0  0  0
 72 78  1  0  0  0
 72150  1  0  0  0
 73 79  2  0  0  0
 73 81  1  0  0  0
 73151  1  0  0  0
 74 75  2  0  0  0
 74 86  1  0  0  0
 75 76  1  0  0  0
 75 82  1  0  0  0
 76 78  2  0  0  0
 76 83  1  0  0  0
 77 79  1  0  0  0
 77 80  2  0  0  0
 77 84  1  0  0  0
 78 89  1  0  0  0
 79 89  1  0  0  0
 80 85  1  0  0  0
 80 87  1  0  0  0
 81 87  2  0  0  0
 81 88  1  0  0  0
 82152  1  0  0  0
 82153  1  0  0  0
 82154  1  0  0  0
 83155  1  0  0  0
 83156  1  0  0  0
 83157  1  0  0  0
 84158  1  0  0  0
 84159  1  0  0  0
 84160  1  0  0  0
 85161  1  0  0  0
 85162  1  0  0  0
 85163  1  0  0  0
 86164  1  0  0  0
 86165  1  0  0  0
 88166  1  0  0  0
M  ISO  4   1 100  68 101  86 101  88 100
M  END
> <chiral flag>
0

> <version>
0

> <s_m_source_file>
/data/baiqing/PycharmProjects/Reinvent-master-3.2/result/LINK_invent/BTK/process_docking_weight1_custom_sum_contain_oxygen_bond_distance_aromatic_linkinvent_7_9_3/rearranged_h_0157.sdf

> <i_m_source_file_index>
35

> <r_mmod_Potential_Energy-OPLS-2005>
-137.311828613281

> <r_mmod_Stretch_Energy-OPLS-2005>
46.4747123718262

> <r_mmod_Bend_Energy-OPLS-2005>
119.616851806641

> <r_mmod_Torsional_Energy-OPLS-2005>
250.188537597656

> <r_mmod_Improper_Torsional_Energy-OPLS-2005>
5.28633785247803

> <r_mmod_Van_der_Waal_Energy-OPLS-2005>
182.202026367188

> <r_mmod_Electrostatic_Energy-OPLS-2005>
-529.570983886719

> <r_mmod_Solvation_Energy-OPLS-2005>
-226.738296508789

> <b_mmod_Minimization_Converged-OPLS-2005>
0

> <r_mmod_RMS_Derivative-OPLS-2005>
2.43907594680786

$$$$
35
                    3D
 Structure written by MMmdl.
171181  0  0  1  0            999 V2000
  -30.7298  -14.4500   20.6560 C   0  0  0  0  0  0
  -30.4265  -12.3292   19.4065 C   0  0  0  0  0  0
  -29.4870  -12.5169   18.1977 C   0  0  0  0  0  0
  -28.0129  -12.3508   18.6144 C   0  0  0  0  0  0
  -27.6637  -13.1805   19.8745 C   0  0  2  0  0  0
  -28.7096  -12.9183   20.9883 C   0  0  0  0  0  0
  -25.2621  -13.8095   20.5654 C   0  0  0  0  0  0
  -24.1851  -13.0416   20.9169 C   0  0  0  0  0  0
  -24.6360  -11.6871   20.8725 C   0  0  0  0  0  0
  -23.9017  -10.4279   21.0397 C   0  0  0  0  0  0
  -24.3580   -9.4202   21.9177 C   0  0  0  0  0  0
  -23.6265   -8.2238   22.0751 C   0  0  0  0  0  0
  -22.4253   -8.0266   21.3537 C   0  0  0  0  0  0
  -21.9875   -9.0235   20.4640 C   0  0  0  0  0  0
  -22.7191  -10.2120   20.3045 C   0  0  0  0  0  0
  -21.6849   -6.0720   22.5275 C   0  0  0  0  0  0
  -21.4010   -6.5627   23.8208 C   0  0  0  0  0  0
  -21.3659   -5.6783   24.9172 C   0  0  0  0  0  0
  -21.6046   -4.3048   24.7223 C   0  0  0  0  0  0
  -21.8822   -3.8133   23.4348 C   0  0  0  0  0  0
  -21.9192   -4.6948   22.3402 C   0  0  0  0  0  0
  -22.7880  -13.5242   21.1830 C   0  0  0  0  0  0
  -22.1664   -4.2135   21.0980 F   0  0  0  0  0  0
  -21.5628   -3.4533   25.7735 F   0  0  0  0  0  0
  -30.0324  -13.2877   20.4595 N   0  0  0  0  0  0
  -26.3029  -12.9212   20.3350 N   0  0  0  0  0  0
  -25.9276  -11.6403   20.5753 N   0  0  0  0  0  0
  -22.0516  -12.8254   22.0398 N   0  0  0  0  0  0
  -25.4365  -15.1810   20.4032 N   0  0  0  0  0  0
  -31.7938  -14.6548   20.0579 O   0  0  0  0  0  0
  -21.6628   -6.8857   21.4235 O   0  0  0  0  0  0
  -22.3576  -14.5552   20.6671 O   0  0  0  0  0  0
  -24.6130  -31.8702   23.2116 C   0  0  0  0  0  0
  -25.9031  -32.4835   23.8404 C   0  0  1  0  0  0
  -27.2363  -27.4445   20.0833 C   0  0  0  0  0  0
  -25.5905  -33.8633   24.2343 N   0  0  0  0  0  0
  -23.4002  -30.4945   21.5525 C   0  0  2  0  0  0
  -24.8446  -28.9617   20.1160 C   0  0  0  0  0  0
  -22.7399  -29.4675   22.5001 C   0  0  0  0  0  0
  -18.0276  -28.1376   22.8510 C   0  0  0  0  0  0
  -24.1493  -36.7319   23.2638 C   0  0  0  0  0  0
  -25.9284  -30.8358   21.3652 C   0  0  0  0  0  0
  -26.0037  -29.4699   20.7142 C   0  0  0  0  0  0
  -27.1976  -28.7149   20.7017 C   0  0  0  0  0  0
  -26.0537  -26.9491   19.4826 C   0  0  0  0  0  0
  -24.8629  -27.6984   19.5021 C   0  0  0  0  0  0
  -23.6073  -29.8277   20.1666 C   0  0  0  0  0  0
  -25.4114  -36.3126   24.0344 C   0  0  1  0  0  0
  -20.5864  -28.3666   23.1322 C   0  0  2  0  0  0
  -20.6765  -26.9404   22.5419 C   0  0  0  0  0  0
  -19.5743  -26.6386   21.5217 C   0  0  0  0  0  0
  -18.1922  -26.7927   22.1629 C   0  0  0  0  0  0
  -19.1523  -28.8839   23.2917 C   0  0  0  0  0  0
  -18.9451  -30.1449   23.8922 C   0  0  0  0  0  0
  -17.6452  -30.6592   24.0567 C   0  0  0  0  0  0
  -25.9042  -34.9485   23.5142 C   0  0  0  0  0  0
  -16.5343  -29.9098   23.6316 C   0  0  0  0  0  0
  -16.7265  -28.6502   23.0361 C   0  0  0  0  0  0
  -26.4465  -31.6597   25.0718 C   0  0  0  0  0  0
  -25.3727  -31.3671   26.1451 C   0  0  0  0  0  0
  -27.0295  -30.3050   24.6066 C   0  0  0  0  0  0
  -27.6047  -32.4298   25.7488 C   0  0  0  0  0  0
  -27.5591  -37.1810   24.8475 C   0  0  0  0  0  0
  -21.4130  -29.3037   22.3726 N   0  0  0  0  0  0
  -26.4309  -37.3799   23.9411 N   0  0  0  0  0  0
  -24.6655  -31.0808   22.1016 N   0  0  0  0  0  0
  -23.4172  -28.8217   23.3043 O   0  0  0  0  0  0
  -28.4271  -26.7436   20.0995 O   0  0  0  0  0  0
  -26.5605  -34.8930   22.4704 O   0  0  0  0  0  0
  -23.5327  -32.1454   23.7518 O   0  0  0  0  0  0
  -30.1006  -20.1184   20.4347 C   0  0  0  0  0  0
  -29.4965  -20.6490   22.7170 C   0  0  0  0  0  0
  -29.8825  -19.6944   21.7577 C   0  0  0  0  0  0
  -29.5058  -22.4358   21.0232 C   0  0  0  0  0  0
  -29.9020  -21.4647   20.0546 C   0  0  0  0  0  0
  -29.3009  -22.0100   22.3671 C   0  0  0  0  0  0
  -28.9423  -17.3701   21.3765 C   0  0  0  0  0  0
  -31.3632  -17.5810   21.9704 C   0  0  0  0  0  0
  -29.8719  -24.8161   19.6125 C   0  0  0  0  0  0
  -27.8551  -24.3019   20.0765 C   0  0  0  0  0  0
  -28.9919  -15.8969   21.8141 C   0  0  0  0  0  0
  -31.3416  -16.0909   22.3994 C   0  0  0  0  0  0
  -29.9702  -18.2150   22.1410 C   0  0  0  0  0  0
  -29.2102  -23.9167   20.6809 C   0  0  1  0  0  0
  -28.5160  -25.5075   19.3836 C   0  0  1  0  0  0
  -30.0913  -21.7873   18.5831 C   0  0  0  0  0  0
  -28.6051  -22.5422   24.6208 C   0  0  0  0  0  0
  -30.3379  -15.3067   21.6470 N   0  0  0  0  0  0
  -28.8817  -22.9520   23.2866 O   0  0  0  0  0  0
  -31.4647  -12.4467   19.0910 H   0  0  0  0  0  0
  -30.3581  -11.3083   19.7862 H   0  0  0  0  0  0
  -29.7336  -11.7983   17.4147 H   0  0  0  0  0  0
  -29.6371  -13.5067   17.7636 H   0  0  0  0  0  0
  -27.8380  -11.2918   18.8095 H   0  0  0  0  0  0
  -27.3530  -12.6190   17.7887 H   0  0  0  0  0  0
  -27.7127  -14.2215   19.5601 H   0  0  0  0  0  0
  -28.7085  -11.8573   21.2433 H   0  0  0  0  0  0
  -28.4635  -13.4023   21.9308 H   0  0  0  0  0  0
  -25.2724   -9.5693   22.4746 H   0  0  0  0  0  0
  -23.9976   -7.4640   22.7478 H   0  0  0  0  0  0
  -21.0804   -8.8741   19.8953 H   0  0  0  0  0  0
  -22.3634  -10.9653   19.6153 H   0  0  0  0  0  0
  -21.2000   -7.6134   23.9702 H   0  0  0  0  0  0
  -21.1480   -6.0513   25.9073 H   0  0  0  0  0  0
  -22.0601   -2.7593   23.2848 H   0  0  0  0  0  0
  -22.4128  -11.9923   22.4809 H   0  0  0  0  0  0
  -21.1136  -13.1295   22.2595 H   0  0  0  0  0  0
  -24.6696  -15.8362   20.5094 H   0  0  0  0  0  0
  -26.2879  -15.6185   20.0758 H   0  0  0  0  0  0
  -26.7098  -32.5557   23.1167 H   0  0  0  0  0  0
  -25.0063  -33.9800   25.0491 H   0  0  0  0  0  0
  -22.6892  -31.3118   21.4150 H   0  0  0  0  0  0
  -23.3765  -35.9644   23.3313 H   0  0  0  0  0  0
  -24.3584  -36.8916   22.2046 H   0  0  0  0  0  0
  -23.7228  -37.6519   23.6648 H   0  0  0  0  0  0
  -26.0397  -31.6006   20.5952 H   0  0  0  0  0  0
  -26.8169  -30.8910   21.9825 H   0  0  0  0  0  0
  -28.0936  -29.1056   21.1644 H   0  0  0  0  0  0
  -26.0249  -25.9856   18.9969 H   0  0  0  0  0  0
  -23.9699  -27.3004   19.0397 H   0  0  0  0  0  0
  -23.7152  -30.6028   19.4071 H   0  0  0  0  0  0
  -22.7316  -29.2470   19.8715 H   0  0  0  0  0  0
  -25.1280  -36.2008   25.0839 H   0  0  0  0  0  0
  -20.9963  -28.3230   24.1439 H   0  0  0  0  0  0
  -20.5681  -26.2266   23.3602 H   0  0  0  0  0  0
  -21.6636  -26.7465   22.1199 H   0  0  0  0  0  0
  -19.6904  -25.6298   21.1242 H   0  0  0  0  0  0
  -19.6676  -27.3195   20.6747 H   0  0  0  0  0  0
  -17.4193  -26.6701   21.4028 H   0  0  0  0  0  0
  -18.0315  -26.0052   22.9006 H   0  0  0  0  0  0
  -19.7929  -30.7264   24.2291 H   0  0  0  0  0  0
  -17.5010  -31.6274   24.5168 H   0  0  0  0  0  0
  -15.5344  -30.3013   23.7613 H   0  0  0  0  0  0
  -15.8665  -28.0821   22.7072 H   0  0  0  0  0  0
  -24.5941  -30.6979   25.7770 H   0  0  0  0  0  0
  -24.8865  -32.2806   26.4885 H   0  0  0  0  0  0
  -25.8071  -30.8851   27.0217 H   0  0  0  0  0  0
  -26.2828  -29.6813   24.1136 H   0  0  0  0  0  0
  -27.4095  -29.7275   25.4502 H   0  0  0  0  0  0
  -27.8656  -30.4384   23.9196 H   0  0  0  0  0  0
  -27.2683  -33.3577   26.2125 H   0  0  0  0  0  0
  -28.3840  -32.6871   25.0305 H   0  0  0  0  0  0
  -28.0748  -31.8380   26.5354 H   0  0  0  0  0  0
  -28.2617  -38.0098   24.7534 H   0  0  0  0  0  0
  -28.1074  -36.2630   24.6308 H   0  0  0  0  0  0
  -27.2307  -37.1475   25.8875 H   0  0  0  0  0  0
  -20.9282  -29.8773   21.6965 H   0  0  0  0  0  0
  -26.0213  -38.2886   24.1398 H   0  0  0  0  0  0
  -30.3865  -19.3874   19.6906 H   0  0  0  0  0  0
  -29.3242  -20.3042   23.7257 H   0  0  0  0  0  0
  -27.9392  -17.7663   21.5446 H   0  0  0  0  0  0
  -29.1194  -17.4328   20.3024 H   0  0  0  0  0  0
  -31.6921  -17.6617   20.9337 H   0  0  0  0  0  0
  -32.0942  -18.1256   22.5692 H   0  0  0  0  0  0
  -30.1996  -24.3323   18.6990 H   0  0  0  0  0  0
  -30.6581  -25.4659   19.9980 H   0  0  0  0  0  0
  -27.0875  -24.5361   20.8149 H   0  0  0  0  0  0
  -27.4940  -23.5678   19.3552 H   0  0  0  0  0  0
  -28.2227  -15.4030   21.2390 H   0  0  0  0  0  0
  -28.6922  -15.8021   22.8584 H   0  0  0  0  0  0
  -31.1074  -16.0179   23.4627 H   0  0  0  0  0  0
  -32.3424  -15.6657   22.2995 H   0  0  0  0  0  0
  -29.7180  -18.1423   23.2007 H   0  0  0  0  0  0
  -29.3292  -24.4884   21.6016 H   0  0  0  0  0  0
  -28.2687  -25.6061   18.3248 H   0  0  0  0  0  0
  -30.1335  -20.8795   17.9801 H   0  0  0  0  0  0
  -31.0310  -22.3166   18.4246 H   0  0  0  0  0  0
  -29.2620  -22.3781   18.1958 H   0  0  0  0  0  0
  -28.2565  -23.4000   25.1960 H   0  0  0  0  0  0
  -29.4985  -22.1570   25.1144 H   0  0  0  0  0  0
  -27.8183  -21.7871   24.6539 H   0  0  0  0  0  0
  1 25  1  0  0  0
  1 30  2  0  0  0
  1 88  1  0  0  0
  2  3  1  0  0  0
  2 25  1  0  0  0
  2 90  1  0  0  0
  2 91  1  0  0  0
  3  4  1  0  0  0
  3 92  1  0  0  0
  3 93  1  0  0  0
  4  5  1  0  0  0
  4 94  1  0  0  0
  4 95  1  0  0  0
  5  6  1  0  0  0
  5 26  1  0  0  0
  5 96  1  0  0  0
  6 25  1  0  0  0
  6 97  1  0  0  0
  6 98  1  0  0  0
  7  8  2  0  0  0
  7 26  1  0  0  0
  7 29  1  0  0  0
  8  9  1  0  0  0
  8 22  1  0  0  0
  9 10  1  0  0  0
  9 27  2  0  0  0
 10 11  2  0  0  0
 10 15  1  0  0  0
 11 12  1  0  0  0
 11 99  1  0  0  0
 12 13  2  0  0  0
 12100  1  0  0  0
 13 14  1  0  0  0
 13 31  1  0  0  0
 14 15  2  0  0  0
 14101  1  0  0  0
 15102  1  0  0  0
 16 17  2  0  0  0
 16 21  1  0  0  0
 16 31  1  0  0  0
 17 18  1  0  0  0
 17103  1  0  0  0
 18 19  2  0  0  0
 18104  1  0  0  0
 19 20  1  0  0  0
 19 24  1  0  0  0
 20 21  2  0  0  0
 20105  1  0  0  0
 21 23  1  0  0  0
 22 28  1  0  0  0
 22 32  2  0  0  0
 26 27  1  0  0  0
 28106  1  0  0  0
 28107  1  0  0  0
 29108  1  0  0  0
 29109  1  0  0  0
 33 34  1  0  0  0
 33 66  1  0  0  0
 33 70  2  0  0  0
 34 36  1  0  0  0
 34 59  1  0  0  0
 34110  1  0  0  0
 35 44  2  0  0  0
 35 45  1  0  0  0
 35 68  1  0  0  0
 36 56  1  0  0  0
 36111  1  0  0  0
 37 39  1  0  0  0
 37 47  1  0  0  0
 37 66  1  0  0  0
 37112  1  0  0  0
 38 43  2  0  0  0
 38 46  1  0  0  0
 38 47  1  0  0  0
 39 64  1  0  0  0
 39 67  2  0  0  0
 40 52  1  0  0  0
 40 53  2  0  0  0
 40 58  1  0  0  0
 41113  1  0  0  0
 41114  1  0  0  0
 41115  1  0  0  0
 41 48  1  0  0  0
 42 43  1  0  0  0
 42 66  1  0  0  0
 42116  1  0  0  0
 42117  1  0  0  0
 43 44  1  0  0  0
 44118  1  0  0  0
 45 46  2  0  0  0
 45119  1  0  0  0
 46120  1  0  0  0
 47121  1  0  0  0
 47122  1  0  0  0
 48 56  1  0  0  0
 48 65  1  0  0  0
 48123  1  0  0  0
 49 50  1  0  0  0
 49 53  1  0  0  0
 49 64  1  0  0  0
 49124  1  0  0  0
 50 51  1  0  0  0
 50125  1  0  0  0
 50126  1  0  0  0
 51 52  1  0  0  0
 51127  1  0  0  0
 51128  1  0  0  0
 52129  1  0  0  0
 52130  1  0  0  0
 53 54  1  0  0  0
 54 55  2  0  0  0
 54131  1  0  0  0
 55 57  1  0  0  0
 55132  1  0  0  0
 56 69  2  0  0  0
 57 58  2  0  0  0
 57133  1  0  0  0
 58134  1  0  0  0
 59 60  1  0  0  0
 59 61  1  0  0  0
 59 62  1  0  0  0
 60135  1  0  0  0
 60136  1  0  0  0
 60137  1  0  0  0
 61138  1  0  0  0
 61139  1  0  0  0
 61140  1  0  0  0
 62141  1  0  0  0
 62142  1  0  0  0
 62143  1  0  0  0
 63 65  1  0  0  0
 63144  1  0  0  0
 63145  1  0  0  0
 63146  1  0  0  0
 64147  1  0  0  0
 65148  1  0  0  0
 68 85  1  0  0  0
 71 73  2  0  0  0
 71 75  1  0  0  0
 71149  1  0  0  0
 72 73  1  0  0  0
 72 76  2  0  0  0
 72150  1  0  0  0
 73 83  1  0  0  0
 74 75  2  0  0  0
 74 76  1  0  0  0
 74 84  1  0  0  0
 75 86  1  0  0  0
 76 89  1  0  0  0
 77 81  1  0  0  0
 77 83  1  0  0  0
 77151  1  0  0  0
 77152  1  0  0  0
 78 82  1  0  0  0
 78 83  1  0  0  0
 78153  1  0  0  0
 78154  1  0  0  0
 79 84  1  0  0  0
 79 85  1  0  0  0
 79155  1  0  0  0
 79156  1  0  0  0
 80 84  1  0  0  0
 80 85  1  0  0  0
 80157  1  0  0  0
 80158  1  0  0  0
 81 88  1  0  0  0
 81159  1  0  0  0
 81160  1  0  0  0
 82 88  1  0  0  0
 82161  1  0  0  0
 82162  1  0  0  0
 83163  1  0  0  0
 84164  1  0  0  0
 85165  1  0  0  0
 86166  1  0  0  0
 86167  1  0  0  0
 86168  1  0  0  0
 87 89  1  0  0  0
 87169  1  0  0  0
 87170  1  0  0  0
 87171  1  0  0  0
M  ISO  4   1 100  68 101  85 101  88 100
M  END
> <chiral flag>
0

> <version>
0

> <s_m_source_file>
/data/baiqing/PycharmProjects/Reinvent-master-3.2/result/LINK_invent/BTK/process_docking_weight1_custom_sum_contain_oxygen_bond_distance_aromatic_linkinvent_7_9_3/rearranged_h_0157.sdf

> <i_m_source_file_index>
36

> <r_mmod_Potential_Energy-OPLS-2005>
187.574783325195

> <r_mmod_Stretch_Energy-OPLS-2005>
45.1970977783203

> <r_mmod_Bend_Energy-OPLS-2005>
144.56494140625

> <r_mmod_Torsional_Energy-OPLS-2005>
308.1845703125

> <r_mmod_Improper_Torsional_Energy-OPLS-2005>
5.04139852523804

> <r_mmod_Van_der_Waal_Energy-OPLS-2005>
181.175933837891

> <r_mmod_Electrostatic_Energy-OPLS-2005>
-305.199676513672

> <r_mmod_Solvation_Energy-OPLS-2005>
-202.057495117188

> <b_mmod_Minimization_Converged-OPLS-2005>
0

> <r_mmod_RMS_Derivative-OPLS-2005>
0.957334995269775

$$$$
36
                    3D
 Structure written by MMmdl.
179188  0  0  1  0            999 V2000
  -30.7226  -14.4241   20.4773 C   0  0  0  0  0  0
  -30.4035  -12.2516   19.4237 C   0  0  0  0  0  0
  -29.4865  -12.4760   18.2043 C   0  0  0  0  0  0
  -28.0067  -12.3541   18.6164 C   0  0  0  0  0  0
  -27.6563  -13.1978   19.8721 C   0  0  2  0  0  0
  -28.7033  -13.0140   20.9956 C   0  0  0  0  0  0
  -25.2585  -13.8121   20.5717 C   0  0  0  0  0  0
  -24.1820  -13.0418   20.9180 C   0  0  0  0  0  0
  -24.6367  -11.6884   20.8735 C   0  0  0  0  0  0
  -23.9033  -10.4276   21.0411 C   0  0  0  0  0  0
  -24.3598   -9.4199   21.9188 C   0  0  0  0  0  0
  -23.6278   -8.2234   22.0751 C   0  0  0  0  0  0
  -22.4264   -8.0264   21.3540 C   0  0  0  0  0  0
  -21.9893   -9.0235   20.4639 C   0  0  0  0  0  0
  -22.7212  -10.2117   20.3054 C   0  0  0  0  0  0
  -21.6847   -6.0728   22.5277 C   0  0  0  0  0  0
  -21.4013   -6.5640   23.8209 C   0  0  0  0  0  0
  -21.3656   -5.6794   24.9169 C   0  0  0  0  0  0
  -21.6042   -4.3053   24.7227 C   0  0  0  0  0  0
  -21.8817   -3.8145   23.4349 C   0  0  0  0  0  0
  -21.9194   -4.6961   22.3405 C   0  0  0  0  0  0
  -22.7848  -13.5240   21.1843 C   0  0  0  0  0  0
  -22.1661   -4.2149   21.0982 F   0  0  0  0  0  0
  -21.5629   -3.4539   25.7737 F   0  0  0  0  0  0
  -30.0357  -13.2587   20.4244 N   0  0  0  0  0  0
  -26.3001  -12.9276   20.3385 N   0  0  0  0  0  0
  -25.9294  -11.6444   20.5781 N   0  0  0  0  0  0
  -22.0485  -12.8228   22.0395 N   0  0  0  0  0  0
  -25.4348  -15.1838   20.4196 N   0  0  0  0  0  0
  -31.9143  -14.5268   20.1809 O   0  0  0  0  0  0
  -21.6629   -6.8864   21.4233 O   0  0  0  0  0  0
  -22.3545  -14.5562   20.6707 O   0  0  0  0  0  0
  -24.6092  -31.8706   23.2154 C   0  0  0  0  0  0
  -25.9013  -32.4840   23.8430 C   0  0  1  0  0  0
  -27.2409  -27.4949   20.0882 C   0  0  0  0  0  0
  -25.5892  -33.8638   24.2374 N   0  0  0  0  0  0
  -23.3941  -30.4929   21.5552 C   0  0  2  0  0  0
  -24.8428  -28.9633   20.1179 C   0  0  0  0  0  0
  -22.7368  -29.4675   22.5044 C   0  0  0  0  0  0
  -18.0251  -28.1366   22.8503 C   0  0  0  0  0  0
  -24.1483  -36.7325   23.2640 C   0  0  0  0  0  0
  -25.9153  -30.8555   21.3575 C   0  0  0  0  0  0
  -25.9968  -29.4925   20.7098 C   0  0  0  0  0  0
  -27.2004  -28.7625   20.7001 C   0  0  0  0  0  0
  -26.0750  -26.9567   19.5107 C   0  0  0  0  0  0
  -24.8730  -27.6912   19.5166 C   0  0  0  0  0  0
  -23.5993  -29.8206   20.1695 C   0  0  0  0  0  0
  -25.4105  -36.3129   24.0347 C   0  0  1  0  0  0
  -20.5835  -28.3649   23.1337 C   0  0  2  0  0  0
  -20.6746  -26.9395   22.5424 C   0  0  0  0  0  0
  -19.5727  -26.6387   21.5215 C   0  0  0  0  0  0
  -18.1899  -26.7925   22.1616 C   0  0  0  0  0  0
  -19.1498  -28.8824   23.2921 C   0  0  0  0  0  0
  -18.9431  -30.1430   23.8936 C   0  0  0  0  0  0
  -17.6435  -30.6583   24.0566 C   0  0  0  0  0  0
  -25.9024  -34.9486   23.5159 C   0  0  0  0  0  0
  -16.5325  -29.9083   23.6326 C   0  0  0  0  0  0
  -16.7240  -28.6486   23.0375 C   0  0  0  0  0  0
  -26.4475  -31.6595   25.0718 C   0  0  0  0  0  0
  -25.3789  -31.3634   26.1488 C   0  0  0  0  0  0
  -27.0301  -30.3055   24.6035 C   0  0  0  0  0  0
  -27.6073  -32.4291   25.7477 C   0  0  0  0  0  0
  -27.5584  -37.1814   24.8464 C   0  0  0  0  0  0
  -21.4103  -29.3028   22.3766 N   0  0  0  0  0  0
  -26.4295  -37.3812   23.9410 N   0  0  0  0  0  0
  -24.6583  -31.0855   22.1025 N   0  0  0  0  0  0
  -23.4154  -28.8225   23.3081 O   0  0  0  0  0  0
  -28.3947  -26.7641   20.0659 O   0  0  0  0  0  0
  -26.5587  -34.8924   22.4720 O   0  0  0  0  0  0
  -23.5310  -32.1434   23.7587 O   0  0  0  0  0  0
  -29.9386  -24.8775   18.5626 C   0  0  0  0  0  0
  -31.1711  -25.9818   20.5083 C   0  0  0  0  0  0
  -31.0950  -17.7261   20.6013 C   0  0  0  0  0  0
  -32.0424  -18.6086   19.7644 C   0  0  0  0  0  0
  -29.9071  -19.7211   18.7385 C   0  0  0  0  0  0
  -29.5430  -26.2690   18.0446 C   0  0  0  0  0  0
  -30.7353  -27.3554   19.9762 C   0  0  0  0  0  0
  -29.4590  -18.4264   18.0419 C   0  0  0  0  0  0
  -31.2360  -24.8941   19.4105 C   0  0  1  0  0  0
  -30.3191  -16.7151   19.7314 C   0  0  2  0  0  0
  -31.4218  -19.8387   19.0601 C   0  0  1  0  0  0
  -29.4126  -27.2636   19.2031 C   0  0  2  0  0  0
  -29.0813  -17.2952   19.0227 C   0  0  2  0  0  0
  -27.1970  -16.4495   17.7735 C   0  0  0  0  0  0
  -31.5127  -23.5290   20.0772 C   0  0  0  0  0  0
  -31.6213  -22.3359   19.1120 C   0  0  0  0  0  0
  -29.9518  -15.5171   20.4963 N   0  0  0  0  0  0
  -31.7072  -21.0587   19.8516 N   0  3  0  0  0  0
  -28.4862  -16.2035   18.3239 O   0  0  0  0  0  0
  -31.4530  -12.3126   19.1289 H   0  0  0  0  0  0
  -30.2632  -11.2495   19.8315 H   0  0  0  0  0  0
  -29.7160  -11.7530   17.4203 H   0  0  0  0  0  0
  -29.6677  -13.4629   17.7744 H   0  0  0  0  0  0
  -27.8047  -11.2994   18.8083 H   0  0  0  0  0  0
  -27.3615  -12.6390   17.7840 H   0  0  0  0  0  0
  -27.6853  -14.2374   19.5611 H   0  0  0  0  0  0
  -28.6607  -12.0030   21.4024 H   0  0  0  0  0  0
  -28.4996  -13.6860   21.8308 H   0  0  0  0  0  0
  -25.2746   -9.5677   22.4761 H   0  0  0  0  0  0
  -23.9989   -7.4630   22.7471 H   0  0  0  0  0  0
  -21.0828   -8.8742   19.8946 H   0  0  0  0  0  0
  -22.3676  -10.9650   19.6159 H   0  0  0  0  0  0
  -21.1998   -7.6148   23.9708 H   0  0  0  0  0  0
  -21.1480   -6.0526   25.9069 H   0  0  0  0  0  0
  -22.0602   -2.7608   23.2848 H   0  0  0  0  0  0
  -22.4090  -11.9875   22.4757 H   0  0  0  0  0  0
  -21.1113  -13.1259   22.2617 H   0  0  0  0  0  0
  -24.6725  -15.8429   20.5331 H   0  0  0  0  0  0
  -26.3004  -15.6191   20.1324 H   0  0  0  0  0  0
  -26.7089  -32.5570   23.1216 H   0  0  0  0  0  0
  -25.0062  -33.9821   25.0531 H   0  0  0  0  0  0
  -22.6812  -31.3084   21.4165 H   0  0  0  0  0  0
  -23.3746  -35.9654   23.3297 H   0  0  0  0  0  0
  -24.3586  -36.8947   22.2054 H   0  0  0  0  0  0
  -23.7220  -37.6523   23.6658 H   0  0  0  0  0  0
  -26.0134  -31.6201   20.5858 H   0  0  0  0  0  0
  -26.8078  -30.9165   21.9675 H   0  0  0  0  0  0
  -28.0926  -29.1669   21.1585 H   0  0  0  0  0  0
  -26.1043  -25.9796   19.0503 H   0  0  0  0  0  0
  -23.9849  -27.2742   19.0622 H   0  0  0  0  0  0
  -23.6957  -30.5921   19.4043 H   0  0  0  0  0  0
  -22.7271  -29.2296   19.8824 H   0  0  0  0  0  0
  -25.1280  -36.2019   25.0843 H   0  0  0  0  0  0
  -20.9907  -28.3205   24.1459 H   0  0  0  0  0  0
  -20.5638  -26.2263   23.3608 H   0  0  0  0  0  0
  -21.6624  -26.7452   22.1217 H   0  0  0  0  0  0
  -19.6884  -25.6299   21.1234 H   0  0  0  0  0  0
  -19.6669  -27.3209   20.6755 H   0  0  0  0  0  0
  -17.4179  -26.6688   21.4003 H   0  0  0  0  0  0
  -18.0285  -26.0050   22.8986 H   0  0  0  0  0  0
  -19.7905  -30.7232   24.2336 H   0  0  0  0  0  0
  -17.4987  -31.6277   24.5138 H   0  0  0  0  0  0
  -15.5324  -30.2998   23.7644 H   0  0  0  0  0  0
  -15.8630  -28.0804   22.7115 H   0  0  0  0  0  0
  -24.5971  -30.6977   25.7816 H   0  0  0  0  0  0
  -24.8975  -32.2750   26.5026 H   0  0  0  0  0  0
  -25.8187  -30.8742   27.0188 H   0  0  0  0  0  0
  -26.2797  -29.6785   24.1197 H   0  0  0  0  0  0
  -27.4206  -29.7317   25.4454 H   0  0  0  0  0  0
  -27.8579  -30.4389   23.9065 H   0  0  0  0  0  0
  -27.2722  -33.3594   26.2074 H   0  0  0  0  0  0
  -28.3880  -32.6834   25.0297 H   0  0  0  0  0  0
  -28.0737  -31.8387   26.5375 H   0  0  0  0  0  0
  -28.2612  -38.0108   24.7537 H   0  0  0  0  0  0
  -28.1076  -36.2643   24.6269 H   0  0  0  0  0  0
  -27.2297  -37.1432   25.8866 H   0  0  0  0  0  0
  -20.9246  -29.8753   21.6996 H   0  0  0  0  0  0
  -26.0188  -38.2892   24.1421 H   0  0  0  0  0  0
  -30.0481  -24.2228   17.6992 H   0  0  0  0  0  0
  -29.1179  -24.4684   19.1546 H   0  0  0  0  0  0
  -30.4713  -25.6756   21.2874 H   0  0  0  0  0  0
  -32.1415  -26.0769   20.9978 H   0  0  0  0  0  0
  -30.4233  -18.3248   21.2169 H   0  0  0  0  0  0
  -31.7201  -17.1737   21.3044 H   0  0  0  0  0  0
  -32.5264  -17.9850   19.0114 H   0  0  0  0  0  0
  -32.8698  -18.9301   20.3991 H   0  0  0  0  0  0
  -29.3085  -19.8753   19.6367 H   0  0  0  0  0  0
  -29.6277  -20.5341   18.0697 H   0  0  0  0  0  0
  -28.6008  -26.2082   17.4983 H   0  0  0  0  0  0
  -30.2889  -26.6241   17.3329 H   0  0  0  0  0  0
  -31.5099  -27.7562   19.3207 H   0  0  0  0  0  0
  -30.6363  -28.0620   20.8008 H   0  0  0  0  0  0
  -30.2094  -18.0909   17.3247 H   0  0  0  0  0  0
  -28.5849  -18.6862   17.4477 H   0  0  0  0  0  0
  -32.0693  -25.1354   18.7481 H   0  0  0  0  0  0
  -30.9779  -16.3962   18.9198 H   0  0  0  0  0  0
  -31.9587  -19.9507   18.1157 H   0  0  0  0  0  0
  -29.1656  -28.2508   18.8050 H   0  0  0  0  0  0
  -28.3764  -17.6644   19.7700 H   0  0  0  0  0  0
  -26.7155  -15.4985   17.5443 H   0  0  0  0  0  0
  -27.2582  -17.0130   16.8425 H   0  0  0  0  0  0
  -26.5505  -16.9900   18.4659 H   0  0  0  0  0  0
  -30.7156  -23.3306   20.7954 H   0  0  0  0  0  0
  -32.4322  -23.5960   20.6604 H   0  0  0  0  0  0
  -32.4864  -22.4459   18.4567 H   0  0  0  0  0  0
  -30.7481  -22.3138   18.4681 H   0  0  0  0  0  0
  -28.9672  -15.3640   20.6464 H   0  0  0  0  0  0
  -32.6448  -20.9873   20.2150 H   0  0  0  0  0  0
  -31.0826  -21.0871   20.6409 H   0  0  0  0  0  0
  1 25  1  0  0  0
  1 30  2  0  0  0
  1 87  1  0  0  0
  2  3  1  0  0  0
  2 25  1  0  0  0
  2 90  1  0  0  0
  2 91  1  0  0  0
  3  4  1  0  0  0
  3 92  1  0  0  0
  3 93  1  0  0  0
  4  5  1  0  0  0
  4 94  1  0  0  0
  4 95  1  0  0  0
  5  6  1  0  0  0
  5 26  1  0  0  0
  5 96  1  0  0  0
  6 25  1  0  0  0
  6 97  1  0  0  0
  6 98  1  0  0  0
  7  8  2  0  0  0
  7 26  1  0  0  0
  7 29  1  0  0  0
  8  9  1  0  0  0
  8 22  1  0  0  0
  9 10  1  0  0  0
  9 27  2  0  0  0
 10 11  2  0  0  0
 10 15  1  0  0  0
 11 12  1  0  0  0
 11 99  1  0  0  0
 12 13  2  0  0  0
 12100  1  0  0  0
 13 14  1  0  0  0
 13 31  1  0  0  0
 14 15  2  0  0  0
 14101  1  0  0  0
 15102  1  0  0  0
 16 17  2  0  0  0
 16 21  1  0  0  0
 16 31  1  0  0  0
 17 18  1  0  0  0
 17103  1  0  0  0
 18 19  2  0  0  0
 18104  1  0  0  0
 19 20  1  0  0  0
 19 24  1  0  0  0
 20 21  2  0  0  0
 20105  1  0  0  0
 21 23  1  0  0  0
 22 28  1  0  0  0
 22 32  2  0  0  0
 26 27  1  0  0  0
 28106  1  0  0  0
 28107  1  0  0  0
 29108  1  0  0  0
 29109  1  0  0  0
 33 34  1  0  0  0
 33 66  1  0  0  0
 33 70  2  0  0  0
 34 36  1  0  0  0
 34 59  1  0  0  0
 34110  1  0  0  0
 35 44  2  0  0  0
 35 45  1  0  0  0
 35 68  1  0  0  0
 36 56  1  0  0  0
 36111  1  0  0  0
 37 39  1  0  0  0
 37 47  1  0  0  0
 37 66  1  0  0  0
 37112  1  0  0  0
 38 43  2  0  0  0
 38 46  1  0  0  0
 38 47  1  0  0  0
 39 64  1  0  0  0
 39 67  2  0  0  0
 40 52  1  0  0  0
 40 53  2  0  0  0
 40 58  1  0  0  0
 41113  1  0  0  0
 41114  1  0  0  0
 41115  1  0  0  0
 41 48  1  0  0  0
 42 43  1  0  0  0
 42 66  1  0  0  0
 42116  1  0  0  0
 42117  1  0  0  0
 43 44  1  0  0  0
 44118  1  0  0  0
 45 46  2  0  0  0
 45119  1  0  0  0
 46120  1  0  0  0
 47121  1  0  0  0
 47122  1  0  0  0
 48 56  1  0  0  0
 48 65  1  0  0  0
 48123  1  0  0  0
 49 50  1  0  0  0
 49 53  1  0  0  0
 49 64  1  0  0  0
 49124  1  0  0  0
 50 51  1  0  0  0
 50125  1  0  0  0
 50126  1  0  0  0
 51 52  1  0  0  0
 51127  1  0  0  0
 51128  1  0  0  0
 52129  1  0  0  0
 52130  1  0  0  0
 53 54  1  0  0  0
 54 55  2  0  0  0
 54131  1  0  0  0
 55 57  1  0  0  0
 55132  1  0  0  0
 56 69  2  0  0  0
 57 58  2  0  0  0
 57133  1  0  0  0
 58134  1  0  0  0
 59 60  1  0  0  0
 59 61  1  0  0  0
 59 62  1  0  0  0
 60135  1  0  0  0
 60136  1  0  0  0
 60137  1  0  0  0
 61138  1  0  0  0
 61139  1  0  0  0
 61140  1  0  0  0
 62141  1  0  0  0
 62142  1  0  0  0
 62143  1  0  0  0
 63 65  1  0  0  0
 63144  1  0  0  0
 63145  1  0  0  0
 63146  1  0  0  0
 64147  1  0  0  0
 65148  1  0  0  0
 68 82  1  0  0  0
 71 76  1  0  0  0
 71 79  1  0  0  0
 71149  1  0  0  0
 71150  1  0  0  0
 72 77  1  0  0  0
 72 79  1  0  0  0
 72151  1  0  0  0
 72152  1  0  0  0
 73 74  1  0  0  0
 73 80  1  0  0  0
 73153  1  0  0  0
 73154  1  0  0  0
 74 81  1  0  0  0
 74155  1  0  0  0
 74156  1  0  0  0
 75 78  1  0  0  0
 75 81  1  0  0  0
 75157  1  0  0  0
 75158  1  0  0  0
 76 82  1  0  0  0
 76159  1  0  0  0
 76160  1  0  0  0
 77 82  1  0  0  0
 77161  1  0  0  0
 77162  1  0  0  0
 78 83  1  0  0  0
 78163  1  0  0  0
 78164  1  0  0  0
 79 85  1  0  0  0
 79165  1  0  0  0
 80 83  1  0  0  0
 80 87  1  0  0  0
 80166  1  0  0  0
 81 88  1  0  0  0
 81167  1  0  0  0
 82168  1  0  0  0
 83 89  1  0  0  0
 83169  1  0  0  0
 84 89  1  0  0  0
 84170  1  0  0  0
 84171  1  0  0  0
 84172  1  0  0  0
 85 86  1  0  0  0
 85173  1  0  0  0
 85174  1  0  0  0
 86 88  1  0  0  0
 86175  1  0  0  0
 86176  1  0  0  0
 87177  1  0  0  0
 88178  1  0  0  0
 88179  1  0  0  0
M  CHG  1  88   1
M  ISO  4   1 100  68 101  82 101  87 100
M  END
> <chiral flag>
0

> <version>
0

> <s_m_source_file>
/data/baiqing/PycharmProjects/Reinvent-master-3.2/result/LINK_invent/BTK/process_docking_weight1_custom_sum_contain_oxygen_bond_distance_aromatic_linkinvent_7_9_3/rearranged_h_0157.sdf

> <i_m_source_file_index>
37

> <r_mmod_Potential_Energy-OPLS-2005>
-170.749053955078

> <r_mmod_Stretch_Energy-OPLS-2005>
31.9428043365479

> <r_mmod_Bend_Energy-OPLS-2005>
105.283554077148

> <r_mmod_Torsional_Energy-OPLS-2005>
322.882537841797

> <r_mmod_Improper_Torsional_Energy-OPLS-2005>
12.0487670898438

> <r_mmod_Van_der_Waal_Energy-OPLS-2005>
142.493545532227

> <r_mmod_Electrostatic_Energy-OPLS-2005>
-356.432678222656

> <r_mmod_Solvation_Energy-OPLS-2005>
-445.446624755859

> <b_mmod_Minimization_Converged-OPLS-2005>
0

> <r_mmod_RMS_Derivative-OPLS-2005>
1.63680291175842

$$$$
37
                    3D
 Structure written by MMmdl.
178186  0  0  1  0            999 V2000
  -30.7263  -14.3945   20.6948 C   0  0  0  0  0  0
  -30.4347  -12.3074   19.4027 C   0  0  0  0  0  0
  -29.4965  -12.5471   18.2025 C   0  0  0  0  0  0
  -28.0169  -12.3965   18.6098 C   0  0  0  0  0  0
  -27.6726  -13.1998   19.8927 C   0  0  2  0  0  0
  -28.7095  -12.9141   21.0031 C   0  0  0  0  0  0
  -25.2617  -13.8148   20.5653 C   0  0  0  0  0  0
  -24.1842  -13.0421   20.9131 C   0  0  0  0  0  0
  -24.6387  -11.6886   20.8704 C   0  0  0  0  0  0
  -23.9046  -10.4278   21.0380 C   0  0  0  0  0  0
  -24.3603   -9.4213   21.9166 C   0  0  0  0  0  0
  -23.6292   -8.2249   22.0755 C   0  0  0  0  0  0
  -22.4270   -8.0271   21.3547 C   0  0  0  0  0  0
  -21.9887   -9.0236   20.4648 C   0  0  0  0  0  0
  -22.7206  -10.2124   20.3044 C   0  0  0  0  0  0
  -21.6847   -6.0725   22.5274 C   0  0  0  0  0  0
  -21.4020   -6.5637   23.8206 C   0  0  0  0  0  0
  -21.3657   -5.6791   24.9173 C   0  0  0  0  0  0
  -21.6050   -4.3050   24.7226 C   0  0  0  0  0  0
  -21.8819   -3.8141   23.4343 C   0  0  0  0  0  0
  -21.9199   -4.6959   22.3405 C   0  0  0  0  0  0
  -22.7872  -13.5250   21.1824 C   0  0  0  0  0  0
  -22.1661   -4.2137   21.0986 F   0  0  0  0  0  0
  -21.5627   -3.4537   25.7751 F   0  0  0  0  0  0
  -30.0537  -13.2326   20.4801 N   0  0  0  0  0  0
  -26.3065  -12.9287   20.3422 N   0  0  0  0  0  0
  -25.9321  -11.6444   20.5762 N   0  0  0  0  0  0
  -22.0520  -12.8229   22.0386 N   0  0  0  0  0  0
  -25.4346  -15.1860   20.4049 N   0  0  0  0  0  0
  -31.7543  -14.7168   20.0930 O   0  0  0  0  0  0
  -21.6635   -6.8860   21.4232 O   0  0  0  0  0  0
  -22.3563  -14.5541   20.6683 O   0  0  0  0  0  0
  -24.6081  -31.8684   23.2174 C   0  0  0  0  0  0
  -25.8987  -32.4838   23.8439 C   0  0  1  0  0  0
  -27.2457  -27.4808   20.0863 C   0  0  0  0  0  0
  -25.5855  -33.8635   24.2339 N   0  0  0  0  0  0
  -23.3970  -30.4871   21.5585 C   0  0  2  0  0  0
  -24.8426  -28.9505   20.1329 C   0  0  0  0  0  0
  -22.7394  -29.4600   22.5080 C   0  0  0  0  0  0
  -18.0263  -28.1361   22.8483 C   0  0  0  0  0  0
  -24.1488  -36.7304   23.2625 C   0  0  0  0  0  0
  -25.9196  -30.8480   21.3598 C   0  0  0  0  0  0
  -26.0015  -29.4809   20.7152 C   0  0  0  0  0  0
  -27.2067  -28.7536   20.6879 C   0  0  0  0  0  0
  -26.0752  -26.9486   19.5066 C   0  0  0  0  0  0
  -24.8707  -27.6787   19.5325 C   0  0  0  0  0  0
  -23.6029  -29.8112   20.1776 C   0  0  0  0  0  0
  -25.4116  -36.3098   24.0321 C   0  0  1  0  0  0
  -20.5854  -28.3612   23.1371 C   0  0  2  0  0  0
  -20.6754  -26.9365   22.5435 C   0  0  0  0  0  0
  -19.5749  -26.6378   21.5201 C   0  0  0  0  0  0
  -18.1919  -26.7908   22.1597 C   0  0  0  0  0  0
  -19.1519  -28.8810   23.2900 C   0  0  0  0  0  0
  -18.9438  -30.1432   23.8894 C   0  0  0  0  0  0
  -17.6452  -30.6555   24.0561 C   0  0  0  0  0  0
  -25.9019  -34.9479   23.5119 C   0  0  0  0  0  0
  -16.5343  -29.9065   23.6316 C   0  0  0  0  0  0
  -16.7265  -28.6486   23.0334 C   0  0  0  0  0  0
  -26.4458  -31.6602   25.0726 C   0  0  0  0  0  0
  -25.3727  -31.3700   26.1462 C   0  0  0  0  0  0
  -27.0245  -30.3061   24.6006 C   0  0  0  0  0  0
  -27.6056  -32.4335   25.7457 C   0  0  0  0  0  0
  -27.5585  -37.1792   24.8463 C   0  0  0  0  0  0
  -21.4141  -29.2991   22.3796 N   0  0  0  0  0  0
  -26.4294  -37.3794   23.9412 N   0  0  0  0  0  0
  -24.6610  -31.0806   22.1049 N   0  0  0  0  0  0
  -23.4190  -28.8132   23.3092 O   0  0  0  0  0  0
  -28.4409  -26.8223   20.0026 O   0  0  0  0  0  0
  -26.5578  -34.8900   22.4690 O   0  0  0  0  0  0
  -23.5277  -32.1454   23.7567 O   0  0  0  0  0  0
  -30.5956  -19.3821   23.8166 C   0  0  0  0  0  0
  -31.5497  -19.6052   21.5909 C   0  0  0  0  0  0
  -31.1774  -18.7795   22.6765 C   0  0  0  0  0  0
  -30.4389  -20.7809   23.8884 C   0  0  0  0  0  0
  -31.3509  -21.0110   21.6221 C   0  0  0  0  0  0
  -30.8276  -21.5943   22.8033 C   0  0  0  0  0  0
  -29.8485  -21.3995   25.1436 C   0  0  0  0  0  0
  -32.6684  -21.2346   19.4075 C   0  0  0  0  0  0
  -31.0332  -25.4305   20.1468 C   0  0  0  0  0  0
  -32.6883  -16.6366   24.5702 C   0  0  0  0  0  0
  -30.2552  -16.6708   21.6240 C   0  0  0  0  0  0
  -30.4466  -22.4061   19.6490 C   0  0  0  0  0  0
  -28.5278  -25.5808   20.6863 C   0  0  0  0  0  0
  -31.6988  -21.8957   20.4099 C   0  0  1  0  0  0
  -31.3502  -17.2545   22.5476 C   0  0  2  0  0  0
  -29.6410  -24.7654   19.9905 C   0  0  2  0  0  0
  -30.1481  -15.2058   21.5946 N   0  0  0  0  0  0
  -31.3997  -16.5508   23.8503 N   0  3  0  0  0  0
  -29.6174  -23.3469   20.4371 N   0  3  0  0  0  0
  -30.6854  -22.9525   22.8986 O   0  0  0  0  0  0
  -31.4747  -12.4322   19.0972 H   0  0  0  0  0  0
  -30.3509  -11.2785   19.7534 H   0  0  0  0  0  0
  -29.7332  -11.8568   17.3917 H   0  0  0  0  0  0
  -29.6588  -13.5501   17.8047 H   0  0  0  0  0  0
  -27.8129  -11.3354   18.7647 H   0  0  0  0  0  0
  -27.3683  -12.7124   17.7911 H   0  0  0  0  0  0
  -27.7363  -14.2593   19.6429 H   0  0  0  0  0  0
  -28.6769  -11.8604   21.2821 H   0  0  0  0  0  0
  -28.4495  -13.4473   21.9181 H   0  0  0  0  0  0
  -25.2747   -9.5695   22.4719 H   0  0  0  0  0  0
  -24.0000   -7.4644   22.7469 H   0  0  0  0  0  0
  -21.0813   -8.8740   19.8955 H   0  0  0  0  0  0
  -22.3647  -10.9651   19.6148 H   0  0  0  0  0  0
  -21.2006   -7.6140   23.9707 H   0  0  0  0  0  0
  -21.1476   -6.0524   25.9080 H   0  0  0  0  0  0
  -22.0602   -2.7597   23.2860 H   0  0  0  0  0  0
  -22.4152  -11.9902   22.4763 H   0  0  0  0  0  0
  -21.1153  -13.1252   22.2614 H   0  0  0  0  0  0
  -24.6642  -15.8393   20.4932 H   0  0  0  0  0  0
  -26.2914  -15.6205   20.0862 H   0  0  0  0  0  0
  -26.7037  -32.5570   23.1179 H   0  0  0  0  0  0
  -25.0066  -33.9845   25.0504 H   0  0  0  0  0  0
  -22.6808  -31.2995   21.4185 H   0  0  0  0  0  0
  -23.3741  -35.9638   23.3317 H   0  0  0  0  0  0
  -24.3578  -36.8899   22.2031 H   0  0  0  0  0  0
  -23.7239  -37.6514   23.6638 H   0  0  0  0  0  0
  -26.0114  -31.6150   20.5894 H   0  0  0  0  0  0
  -26.8123  -30.9170   21.9694 H   0  0  0  0  0  0
  -28.1104  -29.1701   21.1153 H   0  0  0  0  0  0
  -26.0977  -25.9888   19.0076 H   0  0  0  0  0  0
  -23.9770  -27.2675   19.0808 H   0  0  0  0  0  0
  -23.7131  -30.5835   19.4176 H   0  0  0  0  0  0
  -22.7325  -29.2220   19.8812 H   0  0  0  0  0  0
  -25.1290  -36.1953   25.0813 H   0  0  0  0  0  0
  -20.9917  -28.3133   24.1506 H   0  0  0  0  0  0
  -20.5660  -26.2193   23.3590 H   0  0  0  0  0  0
  -21.6620  -26.7419   22.1218 H   0  0  0  0  0  0
  -19.6904  -25.6289   21.1222 H   0  0  0  0  0  0
  -19.6710  -27.3185   20.6725 H   0  0  0  0  0  0
  -17.4203  -26.6685   21.3989 H   0  0  0  0  0  0
  -18.0299  -26.0033   22.8969 H   0  0  0  0  0  0
  -19.7926  -30.7238   24.2273 H   0  0  0  0  0  0
  -17.5009  -31.6248   24.5156 H   0  0  0  0  0  0
  -15.5347  -30.2974   23.7646 H   0  0  0  0  0  0
  -15.8654  -28.0820   22.7040 H   0  0  0  0  0  0
  -24.5978  -30.6920   25.7840 H   0  0  0  0  0  0
  -24.8796  -32.2841   26.4796 H   0  0  0  0  0  0
  -25.8091  -30.9008   27.0281 H   0  0  0  0  0  0
  -26.2724  -29.6863   24.1090 H   0  0  0  0  0  0
  -27.4083  -29.7243   25.4390 H   0  0  0  0  0  0
  -27.8543  -30.4430   23.9066 H   0  0  0  0  0  0
  -27.2722  -33.3697   26.1966 H   0  0  0  0  0  0
  -28.3888  -32.6805   25.0269 H   0  0  0  0  0  0
  -28.0675  -31.8487   26.5419 H   0  0  0  0  0  0
  -28.2591  -38.0104   24.7537 H   0  0  0  0  0  0
  -28.1099  -36.2631   24.6270 H   0  0  0  0  0  0
  -27.2304  -37.1409   25.8867 H   0  0  0  0  0  0
  -20.9286  -29.8679   21.6988 H   0  0  0  0  0  0
  -26.0166  -38.2853   24.1467 H   0  0  0  0  0  0
  -30.2642  -18.7906   24.6567 H   0  0  0  0  0  0
  -31.9707  -19.1254   20.7211 H   0  0  0  0  0  0
  -29.2781  -22.3021   24.9199 H   0  0  0  0  0  0
  -30.6427  -21.6525   25.8463 H   0  0  0  0  0  0
  -29.1716  -20.7058   25.6418 H   0  0  0  0  0  0
  -33.6054  -20.9428   19.8846 H   0  0  0  0  0  0
  -32.9226  -21.9265   18.6019 H   0  0  0  0  0  0
  -32.2337  -20.3538   18.9309 H   0  0  0  0  0  0
  -31.1327  -26.2712   19.4575 H   0  0  0  0  0  0
  -31.8557  -24.7519   19.9227 H   0  0  0  0  0  0
  -31.1973  -25.8229   21.1529 H   0  0  0  0  0  0
  -32.6508  -16.0334   25.4787 H   0  0  0  0  0  0
  -32.9214  -17.6629   24.8582 H   0  0  0  0  0  0
  -33.5086  -16.2563   23.9585 H   0  0  0  0  0  0
  -30.3854  -17.0538   20.6113 H   0  0  0  0  0  0
  -29.2821  -17.0401   21.9500 H   0  0  0  0  0  0
  -29.8260  -21.5550   19.3732 H   0  0  0  0  0  0
  -30.7369  -22.8799   18.7101 H   0  0  0  0  0  0
  -27.5811  -25.0399   20.6597 H   0  0  0  0  0  0
  -28.7611  -25.7691   21.7374 H   0  0  0  0  0  0
  -32.2346  -22.7566   20.8094 H   0  0  0  0  0  0
  -32.3116  -17.0732   22.0616 H   0  0  0  0  0  0
  -29.3957  -24.7445   18.9284 H   0  0  0  0  0  0
  -29.3377  -14.8097   22.0474 H   0  0  0  0  0  0
  -30.6574  -16.8922   24.4391 H   0  0  0  0  0  0
  -31.2181  -15.5769   23.6742 H   0  0  0  0  0  0
  -29.8879  -23.2649   21.4192 H   0  0  0  0  0  0
  -28.6683  -23.0142   20.3499 H   0  0  0  0  0  0
  -30.6978  -23.2513   23.8041 H   0  0  0  0  0  0
  1 25  1  0  0  0
  1 30  2  0  0  0
  1 87  1  0  0  0
  2  3  1  0  0  0
  2 25  1  0  0  0
  2 91  1  0  0  0
  2 92  1  0  0  0
  3  4  1  0  0  0
  3 93  1  0  0  0
  3 94  1  0  0  0
  4  5  1  0  0  0
  4 95  1  0  0  0
  4 96  1  0  0  0
  5  6  1  0  0  0
  5 26  1  0  0  0
  5 97  1  0  0  0
  6 25  1  0  0  0
  6 98  1  0  0  0
  6 99  1  0  0  0
  7  8  2  0  0  0
  7 26  1  0  0  0
  7 29  1  0  0  0
  8  9  1  0  0  0
  8 22  1  0  0  0
  9 10  1  0  0  0
  9 27  2  0  0  0
 10 11  2  0  0  0
 10 15  1  0  0  0
 11 12  1  0  0  0
 11100  1  0  0  0
 12 13  2  0  0  0
 12101  1  0  0  0
 13 14  1  0  0  0
 13 31  1  0  0  0
 14 15  2  0  0  0
 14102  1  0  0  0
 15103  1  0  0  0
 16 17  2  0  0  0
 16 21  1  0  0  0
 16 31  1  0  0  0
 17 18  1  0  0  0
 17104  1  0  0  0
 18 19  2  0  0  0
 18105  1  0  0  0
 19 20  1  0  0  0
 19 24  1  0  0  0
 20 21  2  0  0  0
 20106  1  0  0  0
 21 23  1  0  0  0
 22 28  1  0  0  0
 22 32  2  0  0  0
 26 27  1  0  0  0
 28107  1  0  0  0
 28108  1  0  0  0
 29109  1  0  0  0
 29110  1  0  0  0
 33 34  1  0  0  0
 33 66  1  0  0  0
 33 70  2  0  0  0
 34 36  1  0  0  0
 34 59  1  0  0  0
 34111  1  0  0  0
 35 44  2  0  0  0
 35 45  1  0  0  0
 35 68  1  0  0  0
 36 56  1  0  0  0
 36112  1  0  0  0
 37 39  1  0  0  0
 37 47  1  0  0  0
 37 66  1  0  0  0
 37113  1  0  0  0
 38 43  2  0  0  0
 38 46  1  0  0  0
 38 47  1  0  0  0
 39 64  1  0  0  0
 39 67  2  0  0  0
 40 52  1  0  0  0
 40 53  2  0  0  0
 40 58  1  0  0  0
 41114  1  0  0  0
 41115  1  0  0  0
 41116  1  0  0  0
 41 48  1  0  0  0
 42 43  1  0  0  0
 42 66  1  0  0  0
 42117  1  0  0  0
 42118  1  0  0  0
 43 44  1  0  0  0
 44119  1  0  0  0
 45 46  2  0  0  0
 45120  1  0  0  0
 46121  1  0  0  0
 47122  1  0  0  0
 47123  1  0  0  0
 48 56  1  0  0  0
 48 65  1  0  0  0
 48124  1  0  0  0
 49 50  1  0  0  0
 49 53  1  0  0  0
 49 64  1  0  0  0
 49125  1  0  0  0
 50 51  1  0  0  0
 50126  1  0  0  0
 50127  1  0  0  0
 51 52  1  0  0  0
 51128  1  0  0  0
 51129  1  0  0  0
 52130  1  0  0  0
 52131  1  0  0  0
 53 54  1  0  0  0
 54 55  2  0  0  0
 54132  1  0  0  0
 55 57  1  0  0  0
 55133  1  0  0  0
 56 69  2  0  0  0
 57 58  2  0  0  0
 57134  1  0  0  0
 58135  1  0  0  0
 59 60  1  0  0  0
 59 61  1  0  0  0
 59 62  1  0  0  0
 60136  1  0  0  0
 60137  1  0  0  0
 60138  1  0  0  0
 61139  1  0  0  0
 61140  1  0  0  0
 61141  1  0  0  0
 62142  1  0  0  0
 62143  1  0  0  0
 62144  1  0  0  0
 63 65  1  0  0  0
 63145  1  0  0  0
 63146  1  0  0  0
 63147  1  0  0  0
 64148  1  0  0  0
 65149  1  0  0  0
 68 83  1  0  0  0
 71 73  2  0  0  0
 71 74  1  0  0  0
 71150  1  0  0  0
 72 73  1  0  0  0
 72 75  2  0  0  0
 72151  1  0  0  0
 73 85  1  0  0  0
 74 76  2  0  0  0
 74 77  1  0  0  0
 75 76  1  0  0  0
 75 84  1  0  0  0
 76 90  1  0  0  0
 77152  1  0  0  0
 77153  1  0  0  0
 77154  1  0  0  0
 78155  1  0  0  0
 78156  1  0  0  0
 78157  1  0  0  0
 78 84  1  0  0  0
 79158  1  0  0  0
 79159  1  0  0  0
 79160  1  0  0  0
 79 86  1  0  0  0
 80 88  1  0  0  0
 80161  1  0  0  0
 80162  1  0  0  0
 80163  1  0  0  0
 81 87  1  0  0  0
 81164  1  0  0  0
 81165  1  0  0  0
 81 85  1  0  0  0
 82 84  1  0  0  0
 82 89  1  0  0  0
 82166  1  0  0  0
 82167  1  0  0  0
 83 86  1  0  0  0
 83168  1  0  0  0
 83169  1  0  0  0
 84170  1  0  0  0
 85 88  1  0  0  0
 85171  1  0  0  0
 86 89  1  0  0  0
 86172  1  0  0  0
 87173  1  0  0  0
 88174  1  0  0  0
 88175  1  0  0  0
 89176  1  0  0  0
 89177  1  0  0  0
 90178  1  0  0  0
M  CHG  2  88   1  89   1
M  ISO  4   1 100  68 101  83 101  87 100
M  END
> <chiral flag>
0

> <version>
0

> <s_m_source_file>
/data/baiqing/PycharmProjects/Reinvent-master-3.2/result/LINK_invent/BTK/process_docking_weight1_custom_sum_contain_oxygen_bond_distance_aromatic_linkinvent_7_9_3/rearranged_h_0157.sdf

> <i_m_source_file_index>
38

> <r_mmod_Potential_Energy-OPLS-2005>
-470.178131103516

> <r_mmod_Stretch_Energy-OPLS-2005>
37.9664306640625

> <r_mmod_Bend_Energy-OPLS-2005>
99.6559677124023

> <r_mmod_Torsional_Energy-OPLS-2005>
286.457855224609

> <r_mmod_Improper_Torsional_Energy-OPLS-2005>
3.64814782142639

> <r_mmod_Van_der_Waal_Energy-OPLS-2005>
167.107543945312

> <r_mmod_Electrostatic_Energy-OPLS-2005>
-224.903274536133

> <r_mmod_Solvation_Energy-OPLS-2005>
-848.328247070312

> <b_mmod_Minimization_Converged-OPLS-2005>
0

> <r_mmod_RMS_Derivative-OPLS-2005>
4.78849840164185

$$$$
38
                    3D
 Structure written by MMmdl.
166175  0  0  1  0            999 V2000
  -30.7088  -14.5415   20.5540 C   0  0  0  0  0  0
  -30.4281  -12.3516   19.4258 C   0  0  0  0  0  0
  -29.4894  -12.4718   18.2083 C   0  0  0  0  0  0
  -28.0202  -12.2798   18.6313 C   0  0  0  0  0  0
  -27.6401  -13.1614   19.8406 C   0  0  2  0  0  0
  -28.6952  -13.0541   20.9730 C   0  0  0  0  0  0
  -25.2561  -13.8019   20.5654 C   0  0  0  0  0  0
  -24.1805  -13.0366   20.9282 C   0  0  0  0  0  0
  -24.6325  -11.6830   20.8855 C   0  0  0  0  0  0
  -23.8974  -10.4252   21.0511 C   0  0  0  0  0  0
  -24.3564   -9.4153   21.9246 C   0  0  0  0  0  0
  -23.6266   -8.2181   22.0762 C   0  0  0  0  0  0
  -22.4252   -8.0249   21.3547 C   0  0  0  0  0  0
  -21.9878   -9.0218   20.4646 C   0  0  0  0  0  0
  -22.7186  -10.2114   20.3099 C   0  0  0  0  0  0
  -21.6815   -6.0719   22.5297 C   0  0  0  0  0  0
  -21.3976   -6.5625   23.8227 C   0  0  0  0  0  0
  -21.3678   -5.6787   24.9198 C   0  0  0  0  0  0
  -21.6058   -4.3046   24.7252 C   0  0  0  0  0  0
  -21.8812   -3.8133   23.4368 C   0  0  0  0  0  0
  -21.9179   -4.6944   22.3421 C   0  0  0  0  0  0
  -22.7834  -13.5218   21.1925 C   0  0  0  0  0  0
  -22.1643   -4.2143   21.0988 F   0  0  0  0  0  0
  -21.5649   -3.4520   25.7754 F   0  0  0  0  0  0
  -30.0175  -13.3696   20.4063 N   0  0  0  0  0  0
  -26.2897  -12.9074   20.3244 N   0  0  0  0  0  0
  -25.9219  -11.6310   20.5827 N   0  0  0  0  0  0
  -22.0416  -12.8264   22.0480 N   0  0  0  0  0  0
  -25.4236  -15.1728   20.3949 N   0  0  0  0  0  0
  -31.8878  -14.6544   20.2083 O   0  0  0  0  0  0
  -21.6596   -6.8856   21.4259 O   0  0  0  0  0  0
  -22.3543  -14.5533   20.6743 O   0  0  0  0  0  0
  -24.6120  -31.8697   23.2099 C   0  0  0  0  0  0
  -25.9014  -32.4829   23.8399 C   0  0  1  0  0  0
  -27.2419  -27.4444   20.1220 C   0  0  0  0  0  0
  -25.5885  -33.8631   24.2329 N   0  0  0  0  0  0
  -23.4016  -30.4912   21.5487 C   0  0  2  0  0  0
  -24.8549  -28.9544   20.1199 C   0  0  0  0  0  0
  -22.7398  -29.4657   22.4974 C   0  0  0  0  0  0
  -18.0267  -28.1373   22.8491 C   0  0  0  0  0  0
  -24.1500  -36.7328   23.2641 C   0  0  0  0  0  0
  -25.9277  -30.8366   21.3661 C   0  0  0  0  0  0
  -26.0077  -29.4652   20.7308 C   0  0  0  0  0  0
  -27.2047  -28.7132   20.7402 C   0  0  0  0  0  0
  -26.0796  -26.9454   19.5022 C   0  0  0  0  0  0
  -24.8839  -27.6905   19.5046 C   0  0  0  0  0  0
  -23.6153  -29.8220   20.1639 C   0  0  0  0  0  0
  -25.4108  -36.3114   24.0345 C   0  0  1  0  0  0
  -20.5854  -28.3652   23.1327 C   0  0  2  0  0  0
  -20.6760  -26.9388   22.5420 C   0  0  0  0  0  0
  -19.5737  -26.6373   21.5221 C   0  0  0  0  0  0
  -18.1911  -26.7916   22.1626 C   0  0  0  0  0  0
  -19.1516  -28.8823   23.2915 C   0  0  0  0  0  0
  -18.9450  -30.1431   23.8919 C   0  0  0  0  0  0
  -17.6454  -30.6575   24.0572 C   0  0  0  0  0  0
  -25.9025  -34.9479   23.5125 C   0  0  0  0  0  0
  -16.5343  -29.9087   23.6319 C   0  0  0  0  0  0
  -16.7262  -28.6513   23.0329 C   0  0  0  0  0  0
  -26.4463  -31.6595   25.0714 C   0  0  0  0  0  0
  -25.3745  -31.3705   26.1480 C   0  0  0  0  0  0
  -27.0310  -30.3041   24.6069 C   0  0  0  0  0  0
  -27.6033  -32.4318   25.7479 C   0  0  0  0  0  0
  -27.5589  -37.1804   24.8450 C   0  0  0  0  0  0
  -21.4119  -29.3042   22.3735 N   0  0  0  0  0  0
  -26.4289  -37.3795   23.9418 N   0  0  0  0  0  0
  -24.6643  -31.0815   22.0996 N   0  0  0  0  0  0
  -23.4187  -28.8206   23.3010 O   0  0  0  0  0  0
  -28.3963  -26.7050   20.0307 O   0  0  0  0  0  0
  -26.5590  -34.8921   22.4687 O   0  0  0  0  0  0
  -23.5303  -32.1455   23.7473 O   0  0  0  0  0  0
  -30.6069  -21.2907   21.6582 C   0  0  0  0  0  0
  -28.9066  -21.2914   23.3739 C   0  0  0  0  0  0
  -28.7868  -19.8905   23.1793 C   0  0  0  0  0  0
  -29.8193  -22.0256   22.5805 C   0  0  0  0  0  0
  -29.6195  -19.2580   22.2149 C   0  0  0  0  0  0
  -28.8563  -17.6671   20.3775 C   0  0  0  0  0  0
  -28.9023  -16.1604   20.1936 C   0  0  0  0  0  0
  -30.5498  -16.7668   21.7777 C   0  0  0  0  0  0
  -29.3984  -17.7972   21.7814 C   0  0  2  0  0  0
  -28.0375  -22.0171   24.3965 C   0  0  0  0  0  0
  -27.7430  -19.0871   23.9582 C   0  0  0  0  0  0
  -29.7361  -24.8587   20.7901 C   0  0  0  0  0  0
  -28.8353  -26.0420   21.2184 C   0  0  0  0  0  0
  -30.6176  -24.2520   21.9020 C   0  0  0  0  0  0
  -30.5215  -19.9524   21.4890 N   0  0  0  0  0  0
  -30.0094  -15.6237   20.9994 N   0  0  0  0  0  0
  -29.8775  -23.3992   22.7763 O   0  0  0  0  0  0
  -31.4636  -12.4767   19.1045 H   0  0  0  0  0  0
  -30.3689  -11.3572   19.8733 H   0  0  0  0  0  0
  -29.7554  -11.7270   17.4572 H   0  0  0  0  0  0
  -29.6198  -13.4469   17.7334 H   0  0  0  0  0  0
  -27.8835  -11.2287   18.8859 H   0  0  0  0  0  0
  -27.3509  -12.4783   17.7930 H   0  0  0  0  0  0
  -27.6153  -14.1509   19.4114 H   0  0  0  0  0  0
  -28.7085  -12.0438   21.3838 H   0  0  0  0  0  0
  -28.4435  -13.7105   21.8065 H   0  0  0  0  0  0
  -25.2705   -9.5588   22.4840 H   0  0  0  0  0  0
  -23.9973   -7.4546   22.7471 H   0  0  0  0  0  0
  -21.0805   -8.8742   19.8951 H   0  0  0  0  0  0
  -22.3672  -10.9668   19.6215 H   0  0  0  0  0  0
  -21.1928   -7.6120   23.9719 H   0  0  0  0  0  0
  -21.1530   -6.0514   25.9107 H   0  0  0  0  0  0
  -22.0589   -2.7595   23.2870 H   0  0  0  0  0  0
  -22.3935  -11.9884   22.4852 H   0  0  0  0  0  0
  -21.1056  -13.1361   22.2670 H   0  0  0  0  0  0
  -24.6556  -15.8253   20.5012 H   0  0  0  0  0  0
  -26.2569  -15.6073   20.0200 H   0  0  0  0  0  0
  -26.7088  -32.5557   23.1173 H   0  0  0  0  0  0
  -25.0083  -33.9810   25.0504 H   0  0  0  0  0  0
  -22.6892  -31.3059   21.4044 H   0  0  0  0  0  0
  -23.3751  -35.9670   23.3289 H   0  0  0  0  0  0
  -24.3615  -36.8949   22.2059 H   0  0  0  0  0  0
  -23.7255  -37.6535   23.6657 H   0  0  0  0  0  0
  -26.0327  -31.5933   20.5869 H   0  0  0  0  0  0
  -26.8197  -30.9004   21.9779 H   0  0  0  0  0  0
  -28.0944  -29.1105   21.2074 H   0  0  0  0  0  0
  -26.1026  -25.9788   19.0196 H   0  0  0  0  0  0
  -24.0022  -27.2905   19.0239 H   0  0  0  0  0  0
  -23.7279  -30.5974   19.4053 H   0  0  0  0  0  0
  -22.7412  -29.2432   19.8621 H   0  0  0  0  0  0
  -25.1273  -36.1982   25.0836 H   0  0  0  0  0  0
  -20.9958  -28.3218   24.1446 H   0  0  0  0  0  0
  -20.5668  -26.2259   23.3608 H   0  0  0  0  0  0
  -21.6625  -26.7433   22.1202 H   0  0  0  0  0  0
  -19.6900  -25.6295   21.1227 H   0  0  0  0  0  0
  -19.6670  -27.3207   20.6773 H   0  0  0  0  0  0
  -17.4182  -26.6670   21.4027 H   0  0  0  0  0  0
  -18.0297  -26.0057   22.9019 H   0  0  0  0  0  0
  -19.7929  -30.7240   24.2284 H   0  0  0  0  0  0
  -17.5015  -31.6252   24.5178 H   0  0  0  0  0  0
  -15.5345  -30.3004   23.7620 H   0  0  0  0  0  0
  -15.8664  -28.0853   22.7004 H   0  0  0  0  0  0
  -24.5900  -30.7059   25.7842 H   0  0  0  0  0  0
  -24.8968  -32.2872   26.4943 H   0  0  0  0  0  0
  -25.8121  -30.8875   27.0225 H   0  0  0  0  0  0
  -26.2858  -29.6782   24.1143 H   0  0  0  0  0  0
  -27.4133  -29.7278   25.4506 H   0  0  0  0  0  0
  -27.8658  -30.4385   23.9186 H   0  0  0  0  0  0
  -27.2635  -33.3595   26.2097 H   0  0  0  0  0  0
  -28.3825  -32.6911   25.0301 H   0  0  0  0  0  0
  -28.0724  -31.8424   26.5370 H   0  0  0  0  0  0
  -28.2556  -38.0150   24.7546 H   0  0  0  0  0  0
  -28.1127  -36.2674   24.6192 H   0  0  0  0  0  0
  -27.2322  -37.1356   25.8856 H   0  0  0  0  0  0
  -20.9242  -29.8826   21.7026 H   0  0  0  0  0  0
  -26.0175  -38.2865   24.1443 H   0  0  0  0  0  0
  -31.3344  -21.7552   21.0111 H   0  0  0  0  0  0
  -27.8563  -18.0847   20.2585 H   0  0  0  0  0  0
  -29.5140  -18.1600   19.6600 H   0  0  0  0  0  0
  -28.9671  -15.8930   19.1366 H   0  0  0  0  0  0
  -27.9801  -15.7806   20.6211 H   0  0  0  0  0  0
  -31.4301  -17.1762   21.2788 H   0  0  0  0  0  0
  -30.8339  -16.4788   22.7903 H   0  0  0  0  0  0
  -28.6504  -17.3562   22.4360 H   0  0  0  0  0  0
  -26.9810  -21.8961   24.1529 H   0  0  0  0  0  0
  -28.2209  -23.0897   24.4327 H   0  0  0  0  0  0
  -28.2179  -21.6233   25.3979 H   0  0  0  0  0  0
  -28.2250  -18.3226   24.5682 H   0  0  0  0  0  0
  -27.0531  -18.5954   23.2700 H   0  0  0  0  0  0
  -27.1216  -19.6767   24.6292 H   0  0  0  0  0  0
  -30.4056  -25.2254   20.0123 H   0  0  0  0  0  0
  -29.1378  -24.0757   20.3237 H   0  0  0  0  0  0
  -29.3945  -26.7503   21.8313 H   0  0  0  0  0  0
  -27.9953  -25.6860   21.8185 H   0  0  0  0  0  0
  -31.0333  -25.0582   22.5059 H   0  0  0  0  0  0
  -31.4928  -23.7699   21.4724 H   0  0  0  0  0  0
  1 25  1  0  0  0
  1 30  2  0  0  0
  1 86  1  0  0  0
  2  3  1  0  0  0
  2 25  1  0  0  0
  2 88  1  0  0  0
  2 89  1  0  0  0
  3  4  1  0  0  0
  3 90  1  0  0  0
  3 91  1  0  0  0
  4  5  1  0  0  0
  4 92  1  0  0  0
  4 93  1  0  0  0
  5  6  1  0  0  0
  5 26  1  0  0  0
  5 94  1  0  0  0
  6 25  1  0  0  0
  6 95  1  0  0  0
  6 96  1  0  0  0
  7  8  2  0  0  0
  7 26  1  0  0  0
  7 29  1  0  0  0
  8  9  1  0  0  0
  8 22  1  0  0  0
  9 10  1  0  0  0
  9 27  2  0  0  0
 10 11  2  0  0  0
 10 15  1  0  0  0
 11 12  1  0  0  0
 11 97  1  0  0  0
 12 13  2  0  0  0
 12 98  1  0  0  0
 13 14  1  0  0  0
 13 31  1  0  0  0
 14 15  2  0  0  0
 14 99  1  0  0  0
 15100  1  0  0  0
 16 17  2  0  0  0
 16 21  1  0  0  0
 16 31  1  0  0  0
 17 18  1  0  0  0
 17101  1  0  0  0
 18 19  2  0  0  0
 18102  1  0  0  0
 19 20  1  0  0  0
 19 24  1  0  0  0
 20 21  2  0  0  0
 20103  1  0  0  0
 21 23  1  0  0  0
 22 28  1  0  0  0
 22 32  2  0  0  0
 26 27  1  0  0  0
 28104  1  0  0  0
 28105  1  0  0  0
 29106  1  0  0  0
 29107  1  0  0  0
 33 34  1  0  0  0
 33 66  1  0  0  0
 33 70  2  0  0  0
 34 36  1  0  0  0
 34 59  1  0  0  0
 34108  1  0  0  0
 35 44  2  0  0  0
 35 45  1  0  0  0
 35 68  1  0  0  0
 36 56  1  0  0  0
 36109  1  0  0  0
 37 39  1  0  0  0
 37 47  1  0  0  0
 37 66  1  0  0  0
 37110  1  0  0  0
 38 43  2  0  0  0
 38 46  1  0  0  0
 38 47  1  0  0  0
 39 64  1  0  0  0
 39 67  2  0  0  0
 40 52  1  0  0  0
 40 53  2  0  0  0
 40 58  1  0  0  0
 41111  1  0  0  0
 41112  1  0  0  0
 41113  1  0  0  0
 41 48  1  0  0  0
 42 43  1  0  0  0
 42 66  1  0  0  0
 42114  1  0  0  0
 42115  1  0  0  0
 43 44  1  0  0  0
 44116  1  0  0  0
 45 46  2  0  0  0
 45117  1  0  0  0
 46118  1  0  0  0
 47119  1  0  0  0
 47120  1  0  0  0
 48 56  1  0  0  0
 48 65  1  0  0  0
 48121  1  0  0  0
 49 50  1  0  0  0
 49 53  1  0  0  0
 49 64  1  0  0  0
 49122  1  0  0  0
 50 51  1  0  0  0
 50123  1  0  0  0
 50124  1  0  0  0
 51 52  1  0  0  0
 51125  1  0  0  0
 51126  1  0  0  0
 52127  1  0  0  0
 52128  1  0  0  0
 53 54  1  0  0  0
 54 55  2  0  0  0
 54129  1  0  0  0
 55 57  1  0  0  0
 55130  1  0  0  0
 56 69  2  0  0  0
 57 58  2  0  0  0
 57131  1  0  0  0
 58132  1  0  0  0
 59 60  1  0  0  0
 59 61  1  0  0  0
 59 62  1  0  0  0
 60133  1  0  0  0
 60134  1  0  0  0
 60135  1  0  0  0
 61136  1  0  0  0
 61137  1  0  0  0
 61138  1  0  0  0
 62139  1  0  0  0
 62140  1  0  0  0
 62141  1  0  0  0
 63 65  1  0  0  0
 63142  1  0  0  0
 63143  1  0  0  0
 63144  1  0  0  0
 64145  1  0  0  0
 65146  1  0  0  0
 68 83  1  0  0  0
 71 74  2  0  0  0
 71 85  1  0  0  0
 71147  1  0  0  0
 72 73  2  0  0  0
 72 74  1  0  0  0
 72 80  1  0  0  0
 73 75  1  0  0  0
 73 81  1  0  0  0
 74 87  1  0  0  0
 75 85  2  0  0  0
 75 79  1  0  0  0
 76 77  1  0  0  0
 76 79  1  0  0  0
 76148  1  0  0  0
 76149  1  0  0  0
 77 86  1  0  0  0
 77150  1  0  0  0
 77151  1  0  0  0
 78 79  1  0  0  0
 78 86  1  0  0  0
 78152  1  0  0  0
 78153  1  0  0  0
 79154  1  0  0  0
 80155  1  0  0  0
 80156  1  0  0  0
 80157  1  0  0  0
 81158  1  0  0  0
 81159  1  0  0  0
 81160  1  0  0  0
 82 83  1  0  0  0
 82 84  1  0  0  0
 82161  1  0  0  0
 82162  1  0  0  0
 83163  1  0  0  0
 83164  1  0  0  0
 84 87  1  0  0  0
 84165  1  0  0  0
 84166  1  0  0  0
M  ISO  4   1 100  68 101  83 101  86 100
M  END
> <chiral flag>
0

> <version>
0

> <s_m_source_file>
/data/baiqing/PycharmProjects/Reinvent-master-3.2/result/LINK_invent/BTK/process_docking_weight1_custom_sum_contain_oxygen_bond_distance_aromatic_linkinvent_7_9_3/rearranged_h_0157.sdf

> <i_m_source_file_index>
39

> <r_mmod_Potential_Energy-OPLS-2005>
106.749229431152

> <r_mmod_Stretch_Energy-OPLS-2005>
42.519287109375

> <r_mmod_Bend_Energy-OPLS-2005>
157.840240478516

> <r_mmod_Torsional_Energy-OPLS-2005>
333.700286865234

> <r_mmod_Improper_Torsional_Energy-OPLS-2005>
6.24622440338135

> <r_mmod_Van_der_Waal_Energy-OPLS-2005>
164.875900268555

> <r_mmod_Electrostatic_Energy-OPLS-2005>
-404.110870361328

> <r_mmod_Solvation_Energy-OPLS-2005>
-217.207382202148

> <b_mmod_Minimization_Converged-OPLS-2005>
0

> <r_mmod_RMS_Derivative-OPLS-2005>
3.17178773880005

$$$$
39
                    3D
 Structure written by MMmdl.
168177  0  0  1  0            999 V2000
  -30.7898  -14.4110   20.6407 C   0  0  0  0  0  0
  -30.4117  -12.2987   19.4272 C   0  0  0  0  0  0
  -29.4871  -12.5047   18.2136 C   0  0  0  0  0  0
  -28.0144  -12.3512   18.6308 C   0  0  0  0  0  0
  -27.6617  -13.2016   19.8785 C   0  0  2  0  0  0
  -28.7047  -13.0110   21.0068 C   0  0  0  0  0  0
  -25.2588  -13.8153   20.5720 C   0  0  0  0  0  0
  -24.1836  -13.0435   20.9181 C   0  0  0  0  0  0
  -24.6402  -11.6896   20.8761 C   0  0  0  0  0  0
  -23.9074  -10.4286   21.0413 C   0  0  0  0  0  0
  -24.3624   -9.4198   21.9192 C   0  0  0  0  0  0
  -23.6289   -8.2241   22.0762 C   0  0  0  0  0  0
  -22.4267   -8.0288   21.3555 C   0  0  0  0  0  0
  -21.9917   -9.0260   20.4647 C   0  0  0  0  0  0
  -22.7251  -10.2137   20.3057 C   0  0  0  0  0  0
  -21.6859   -6.0738   22.5281 C   0  0  0  0  0  0
  -21.4014   -6.5642   23.8213 C   0  0  0  0  0  0
  -21.3657   -5.6795   24.9180 C   0  0  0  0  0  0
  -21.6046   -4.3056   24.7229 C   0  0  0  0  0  0
  -21.8824   -3.8145   23.4349 C   0  0  0  0  0  0
  -21.9194   -4.6963   22.3398 C   0  0  0  0  0  0
  -22.7848  -13.5222   21.1833 C   0  0  0  0  0  0
  -22.1662   -4.2147   21.0978 F   0  0  0  0  0  0
  -21.5630   -3.4543   25.7744 F   0  0  0  0  0  0
  -30.0457  -13.2832   20.4606 N   0  0  0  0  0  0
  -26.3030  -12.9316   20.3421 N   0  0  0  0  0  0
  -25.9329  -11.6478   20.5802 N   0  0  0  0  0  0
  -22.0513  -12.8211   22.0399 N   0  0  0  0  0  0
  -25.4299  -15.1877   20.4139 N   0  0  0  0  0  0
  -31.8558  -14.5975   20.0434 O   0  0  0  0  0  0
  -21.6636   -6.8884   21.4244 O   0  0  0  0  0  0
  -22.3523  -14.5525   20.6672 O   0  0  0  0  0  0
  -24.6104  -31.8686   23.2106 C   0  0  0  0  0  0
  -25.9006  -32.4833   23.8396 C   0  0  1  0  0  0
  -27.2436  -27.4557   20.1069 C   0  0  0  0  0  0
  -25.5879  -33.8624   24.2329 N   0  0  0  0  0  0
  -23.4004  -30.4890   21.5493 C   0  0  2  0  0  0
  -24.8523  -28.9565   20.1168 C   0  0  0  0  0  0
  -22.7396  -29.4647   22.4989 C   0  0  0  0  0  0
  -18.0257  -28.1386   22.8485 C   0  0  0  0  0  0
  -24.1493  -36.7320   23.2639 C   0  0  0  0  0  0
  -25.9247  -30.8417   21.3627 C   0  0  0  0  0  0
  -26.0066  -29.4730   20.7209 C   0  0  0  0  0  0
  -27.2051  -28.7268   20.7230 C   0  0  0  0  0  0
  -26.0826  -26.9561   19.4857 C   0  0  0  0  0  0
  -24.8830  -27.6935   19.4979 C   0  0  0  0  0  0
  -23.6113  -29.8188   20.1636 C   0  0  0  0  0  0
  -25.4113  -36.3103   24.0337 C   0  0  1  0  0  0
  -20.5850  -28.3665   23.1311 C   0  0  2  0  0  0
  -20.6750  -26.9400   22.5406 C   0  0  0  0  0  0
  -19.5738  -26.6388   21.5195 C   0  0  0  0  0  0
  -18.1917  -26.7929   22.1606 C   0  0  0  0  0  0
  -19.1509  -28.8845   23.2898 C   0  0  0  0  0  0
  -18.9440  -30.1448   23.8917 C   0  0  0  0  0  0
  -17.6445  -30.6597   24.0565 C   0  0  0  0  0  0
  -25.9031  -34.9470   23.5130 C   0  0  0  0  0  0
  -16.5332  -29.9105   23.6317 C   0  0  0  0  0  0
  -16.7245  -28.6514   23.0349 C   0  0  0  0  0  0
  -26.4461  -31.6610   25.0711 C   0  0  0  0  0  0
  -25.3734  -31.3705   26.1457 C   0  0  0  0  0  0
  -27.0290  -30.3056   24.6052 C   0  0  0  0  0  0
  -27.6036  -32.4326   25.7487 C   0  0  0  0  0  0
  -27.5584  -37.1808   24.8462 C   0  0  0  0  0  0
  -21.4127  -29.3037   22.3729 N   0  0  0  0  0  0
  -26.4301  -37.3784   23.9405 N   0  0  0  0  0  0
  -24.6632  -31.0807   22.1001 N   0  0  0  0  0  0
  -23.4168  -28.8181   23.3022 O   0  0  0  0  0  0
  -28.3733  -26.6746   20.0656 O   0  0  0  0  0  0
  -26.5590  -34.8914   22.4690 O   0  0  0  0  0  0
  -23.5298  -32.1426   23.7511 O   0  0  0  0  0  0
  -29.5549  -21.4786   24.0879 C   0  0  0  0  0  0
  -29.3048  -22.7971   23.6498 C   0  0  0  0  0  0
  -28.8935  -23.0022   22.3121 C   0  0  0  0  0  0
  -28.7661  -21.8630   21.4849 C   0  0  0  0  0  0
  -29.3952  -20.4082   23.1905 C   0  0  0  0  0  0
  -28.9295  -17.3910   21.9144 C   0  0  0  0  0  0
  -30.7869  -16.9197   23.4617 C   0  0  0  0  0  0
  -29.5387  -16.4140   20.8952 C   0  0  0  0  0  0
  -31.3450  -15.8792   22.4649 C   0  0  0  0  0  0
  -30.0537  -18.0533   22.7246 C   0  0  0  0  0  0
  -29.4497  -23.9583   24.6164 C   0  0  0  0  0  0
  -28.2970  -21.9895   20.0496 C   0  0  0  0  0  0
  -29.0993  -26.5430   21.2884 C   0  0  0  0  0  0
  -29.6123  -25.0962   21.4459 C   0  0  0  0  0  0
  -29.0278  -20.6052   21.9083 N   0  0  0  0  0  0
  -30.3391  -15.3423   21.5174 N   0  0  0  0  0  0
  -29.5808  -19.0927   23.6406 N   0  0  0  0  0  0
  -28.5366  -24.2490   21.8484 O   0  0  0  0  0  0
  -31.4563  -12.3747   19.1188 H   0  0  0  0  0  0
  -30.3030  -11.2884   19.8253 H   0  0  0  0  0  0
  -29.7298  -11.7865   17.4296 H   0  0  0  0  0  0
  -29.6520  -13.4953   17.7867 H   0  0  0  0  0  0
  -27.8383  -11.2955   18.8405 H   0  0  0  0  0  0
  -27.3587  -12.6091   17.7986 H   0  0  0  0  0  0
  -27.6943  -14.2381   19.5529 H   0  0  0  0  0  0
  -28.6690  -11.9876   21.3851 H   0  0  0  0  0  0
  -28.4648  -13.6494   21.8582 H   0  0  0  0  0  0
  -25.2790   -9.5667   22.4744 H   0  0  0  0  0  0
  -24.0008   -7.4632   22.7480 H   0  0  0  0  0  0
  -21.0861   -8.8785   19.8932 H   0  0  0  0  0  0
  -22.3737  -10.9678   19.6148 H   0  0  0  0  0  0
  -21.2009   -7.6154   23.9717 H   0  0  0  0  0  0
  -21.1471   -6.0529   25.9086 H   0  0  0  0  0  0
  -22.0602   -2.7608   23.2856 H   0  0  0  0  0  0
  -22.4148  -11.9886   22.4789 H   0  0  0  0  0  0
  -21.1124  -13.1190   22.2608 H   0  0  0  0  0  0
  -24.6634  -15.8421   20.5232 H   0  0  0  0  0  0
  -26.2938  -15.6339   20.1352 H   0  0  0  0  0  0
  -26.7077  -32.5575   23.1169 H   0  0  0  0  0  0
  -25.0028  -33.9791   25.0472 H   0  0  0  0  0  0
  -22.6894  -31.3061   21.4070 H   0  0  0  0  0  0
  -23.3741  -35.9663   23.3300 H   0  0  0  0  0  0
  -24.3600  -36.8931   22.2055 H   0  0  0  0  0  0
  -23.7252  -37.6529   23.6654 H   0  0  0  0  0  0
  -26.0270  -31.6029   20.5878 H   0  0  0  0  0  0
  -26.8162  -30.9047   21.9746 H   0  0  0  0  0  0
  -28.0958  -29.1286   21.1859 H   0  0  0  0  0  0
  -26.1077  -25.9872   19.0062 H   0  0  0  0  0  0
  -23.9971  -27.2890   19.0262 H   0  0  0  0  0  0
  -23.7184  -30.5944   19.4036 H   0  0  0  0  0  0
  -22.7392  -29.2341   19.8658 H   0  0  0  0  0  0
  -25.1283  -36.1977   25.0828 H   0  0  0  0  0  0
  -20.9933  -28.3228   24.1438 H   0  0  0  0  0  0
  -20.5648  -26.2265   23.3587 H   0  0  0  0  0  0
  -21.6622  -26.7438   22.1214 H   0  0  0  0  0  0
  -19.6903  -25.6303   21.1229 H   0  0  0  0  0  0
  -19.6701  -27.3183   20.6722 H   0  0  0  0  0  0
  -17.4180  -26.6652   21.4023 H   0  0  0  0  0  0
  -18.0348  -26.0074   22.9010 H   0  0  0  0  0  0
  -19.7914  -30.7253   24.2316 H   0  0  0  0  0  0
  -17.4999  -31.6283   24.5159 H   0  0  0  0  0  0
  -15.5337  -30.3023   23.7643 H   0  0  0  0  0  0
  -15.8632  -28.0844   22.7074 H   0  0  0  0  0  0
  -24.5891  -30.7082   25.7775 H   0  0  0  0  0  0
  -24.8947  -32.2861   26.4936 H   0  0  0  0  0  0
  -25.8071  -30.8840   27.0202 H   0  0  0  0  0  0
  -26.2826  -29.6863   24.1058 H   0  0  0  0  0  0
  -27.4016  -29.7248   25.4496 H   0  0  0  0  0  0
  -27.8684  -30.4379   23.9221 H   0  0  0  0  0  0
  -27.2644  -33.3602   26.2100 H   0  0  0  0  0  0
  -28.3835  -32.6917   25.0317 H   0  0  0  0  0  0
  -28.0712  -31.8430   26.5378 H   0  0  0  0  0  0
  -28.2584  -38.0120   24.7519 H   0  0  0  0  0  0
  -28.1090  -36.2643   24.6279 H   0  0  0  0  0  0
  -27.2303  -37.1467   25.8864 H   0  0  0  0  0  0
  -20.9281  -29.8790   21.6979 H   0  0  0  0  0  0
  -26.0188  -38.2862   24.1404 H   0  0  0  0  0  0
  -29.8529  -21.3015   25.1130 H   0  0  0  0  0  0
  -28.2352  -16.8658   22.5726 H   0  0  0  0  0  0
  -28.3412  -18.1346   21.3792 H   0  0  0  0  0  0
  -31.6093  -17.3215   24.0557 H   0  0  0  0  0  0
  -30.1137  -16.4265   24.1662 H   0  0  0  0  0  0
  -30.1755  -16.9735   20.2061 H   0  0  0  0  0  0
  -28.7375  -15.9980   20.2881 H   0  0  0  0  0  0
  -31.7931  -15.0549   23.0244 H   0  0  0  0  0  0
  -32.1610  -16.3439   21.9068 H   0  0  0  0  0  0
  -30.7590  -18.5224   22.0351 H   0  0  0  0  0  0
  -29.2035  -23.6518   25.6322 H   0  0  0  0  0  0
  -28.7877  -24.7826   24.3508 H   0  0  0  0  0  0
  -30.4745  -24.3287   24.6103 H   0  0  0  0  0  0
  -27.5574  -22.7843   19.9506 H   0  0  0  0  0  0
  -27.8372  -21.0640   19.7029 H   0  0  0  0  0  0
  -29.1400  -22.2207   19.3990 H   0  0  0  0  0  0
  -29.9444  -27.2316   21.2536 H   0  0  0  0  0  0
  -28.5031  -26.8096   22.1630 H   0  0  0  0  0  0
  -30.4040  -25.0784   22.1954 H   0  0  0  0  0  0
  -30.0514  -24.7388   20.5134 H   0  0  0  0  0  0
  -29.8576  -18.9933   24.6108 H   0  0  0  0  0  0
  1 25  1  0  0  0
  1 30  2  0  0  0
  1 86  1  0  0  0
  2  3  1  0  0  0
  2 25  1  0  0  0
  2 89  1  0  0  0
  2 90  1  0  0  0
  3  4  1  0  0  0
  3 91  1  0  0  0
  3 92  1  0  0  0
  4  5  1  0  0  0
  4 93  1  0  0  0
  4 94  1  0  0  0
  5  6  1  0  0  0
  5 26  1  0  0  0
  5 95  1  0  0  0
  6 25  1  0  0  0
  6 96  1  0  0  0
  6 97  1  0  0  0
  7  8  2  0  0  0
  7 26  1  0  0  0
  7 29  1  0  0  0
  8  9  1  0  0  0
  8 22  1  0  0  0
  9 10  1  0  0  0
  9 27  2  0  0  0
 10 11  2  0  0  0
 10 15  1  0  0  0
 11 12  1  0  0  0
 11 98  1  0  0  0
 12 13  2  0  0  0
 12 99  1  0  0  0
 13 14  1  0  0  0
 13 31  1  0  0  0
 14 15  2  0  0  0
 14100  1  0  0  0
 15101  1  0  0  0
 16 17  2  0  0  0
 16 21  1  0  0  0
 16 31  1  0  0  0
 17 18  1  0  0  0
 17102  1  0  0  0
 18 19  2  0  0  0
 18103  1  0  0  0
 19 20  1  0  0  0
 19 24  1  0  0  0
 20 21  2  0  0  0
 20104  1  0  0  0
 21 23  1  0  0  0
 22 28  1  0  0  0
 22 32  2  0  0  0
 26 27  1  0  0  0
 28105  1  0  0  0
 28106  1  0  0  0
 29107  1  0  0  0
 29108  1  0  0  0
 33 34  1  0  0  0
 33 66  1  0  0  0
 33 70  2  0  0  0
 34 36  1  0  0  0
 34 59  1  0  0  0
 34109  1  0  0  0
 35 44  2  0  0  0
 35 45  1  0  0  0
 35 68  1  0  0  0
 36 56  1  0  0  0
 36110  1  0  0  0
 37 39  1  0  0  0
 37 47  1  0  0  0
 37 66  1  0  0  0
 37111  1  0  0  0
 38 43  2  0  0  0
 38 46  1  0  0  0
 38 47  1  0  0  0
 39 64  1  0  0  0
 39 67  2  0  0  0
 40 52  1  0  0  0
 40 53  2  0  0  0
 40 58  1  0  0  0
 41112  1  0  0  0
 41113  1  0  0  0
 41114  1  0  0  0
 41 48  1  0  0  0
 42 43  1  0  0  0
 42 66  1  0  0  0
 42115  1  0  0  0
 42116  1  0  0  0
 43 44  1  0  0  0
 44117  1  0  0  0
 45 46  2  0  0  0
 45118  1  0  0  0
 46119  1  0  0  0
 47120  1  0  0  0
 47121  1  0  0  0
 48 56  1  0  0  0
 48 65  1  0  0  0
 48122  1  0  0  0
 49 50  1  0  0  0
 49 53  1  0  0  0
 49 64  1  0  0  0
 49123  1  0  0  0
 50 51  1  0  0  0
 50124  1  0  0  0
 50125  1  0  0  0
 51 52  1  0  0  0
 51126  1  0  0  0
 51127  1  0  0  0
 52128  1  0  0  0
 52129  1  0  0  0
 53 54  1  0  0  0
 54 55  2  0  0  0
 54130  1  0  0  0
 55 57  1  0  0  0
 55131  1  0  0  0
 56 69  2  0  0  0
 57 58  2  0  0  0
 57132  1  0  0  0
 58133  1  0  0  0
 59 60  1  0  0  0
 59 61  1  0  0  0
 59 62  1  0  0  0
 60134  1  0  0  0
 60135  1  0  0  0
 60136  1  0  0  0
 61137  1  0  0  0
 61138  1  0  0  0
 61139  1  0  0  0
 62140  1  0  0  0
 62141  1  0  0  0
 62142  1  0  0  0
 63 65  1  0  0  0
 63143  1  0  0  0
 63144  1  0  0  0
 63145  1  0  0  0
 64146  1  0  0  0
 65147  1  0  0  0
 68 83  1  0  0  0
 71 72  2  0  0  0
 71 75  1  0  0  0
 71148  1  0  0  0
 72 73  1  0  0  0
 72 81  1  0  0  0
 73 74  2  0  0  0
 73 88  1  0  0  0
 74 82  1  0  0  0
 74 85  1  0  0  0
 75 85  2  0  0  0
 75 87  1  0  0  0
 76 78  1  0  0  0
 76 80  1  0  0  0
 76149  1  0  0  0
 76150  1  0  0  0
 77 79  1  0  0  0
 77 80  1  0  0  0
 77151  1  0  0  0
 77152  1  0  0  0
 78 86  1  0  0  0
 78153  1  0  0  0
 78154  1  0  0  0
 79 86  1  0  0  0
 79155  1  0  0  0
 79156  1  0  0  0
 80 87  1  0  0  0
 80157  1  0  0  0
 81158  1  0  0  0
 81159  1  0  0  0
 81160  1  0  0  0
 82161  1  0  0  0
 82162  1  0  0  0
 82163  1  0  0  0
 83 84  1  0  0  0
 83164  1  0  0  0
 83165  1  0  0  0
 84 88  1  0  0  0
 84166  1  0  0  0
 84167  1  0  0  0
 87168  1  0  0  0
M  ISO  4   1 100  68 101  83 101  86 100
M  END
> <chiral flag>
0

> <version>
0

> <s_m_source_file>
/data/baiqing/PycharmProjects/Reinvent-master-3.2/result/LINK_invent/BTK/process_docking_weight1_custom_sum_contain_oxygen_bond_distance_aromatic_linkinvent_7_9_3/rearranged_h_0157.sdf

> <i_m_source_file_index>
40

> <r_mmod_Potential_Energy-OPLS-2005>
-28.5877723693848

> <r_mmod_Stretch_Energy-OPLS-2005>
37.1812057495117

> <r_mmod_Bend_Energy-OPLS-2005>
115.141845703125

> <r_mmod_Torsional_Energy-OPLS-2005>
345.080017089844

> <r_mmod_Improper_Torsional_Energy-OPLS-2005>
8.74805545806885

> <r_mmod_Van_der_Waal_Energy-OPLS-2005>
158.19677734375

> <r_mmod_Electrostatic_Energy-OPLS-2005>
-477.46484375

> <r_mmod_Solvation_Energy-OPLS-2005>
-225.160263061523

> <b_mmod_Minimization_Converged-OPLS-2005>
0

> <r_mmod_RMS_Derivative-OPLS-2005>
1.95606923103333

$$$$
40
                    3D
 Structure written by MMmdl.
154163  0  0  1  0            999 V2000
  -30.4298  -15.2520   20.3734 C   0  0  0  0  0  0
  -30.4411  -12.8035   19.5191 C   0  0  0  0  0  0
  -29.5374  -12.5864   18.2790 C   0  0  0  0  0  0
  -28.0835  -12.3086   18.7017 C   0  0  0  0  0  0
  -27.6123  -13.2714   19.8209 C   0  0  2  0  0  0
  -28.6454  -13.4349   20.9549 C   0  0  0  0  0  0
  -25.2392  -13.8224   20.5720 C   0  0  0  0  0  0
  -24.1743  -13.0424   20.9258 C   0  0  0  0  0  0
  -24.6390  -11.6922   20.8759 C   0  0  0  0  0  0
  -23.9078  -10.4285   21.0386 C   0  0  0  0  0  0
  -24.3623   -9.4216   21.9176 C   0  0  0  0  0  0
  -23.6307   -8.2247   22.0758 C   0  0  0  0  0  0
  -22.4281   -8.0288   21.3546 C   0  0  0  0  0  0
  -21.9912   -9.0245   20.4631 C   0  0  0  0  0  0
  -22.7241  -10.2129   20.3039 C   0  0  0  0  0  0
  -21.6860   -6.0736   22.5274 C   0  0  0  0  0  0
  -21.4019   -6.5630   23.8211 C   0  0  0  0  0  0
  -21.3673   -5.6784   24.9164 C   0  0  0  0  0  0
  -21.6054   -4.3044   24.7216 C   0  0  0  0  0  0
  -21.8818   -3.8143   23.4329 C   0  0  0  0  0  0
  -21.9191   -4.6966   22.3395 C   0  0  0  0  0  0
  -22.7758  -13.5199   21.1894 C   0  0  0  0  0  0
  -22.1659   -4.2149   21.0977 F   0  0  0  0  0  0
  -21.5646   -3.4534   25.7724 F   0  0  0  0  0  0
  -29.8783  -13.9428   20.3313 N   0  0  0  0  0  0
  -26.2818  -12.9490   20.3184 N   0  0  0  0  0  0
  -25.9333  -11.6596   20.5711 N   0  0  0  0  0  0
  -22.0400  -12.8196   22.0450 N   0  0  0  0  0  0
  -25.4031  -15.1962   20.4142 N   0  0  0  0  0  0
  -31.6523  -15.2700   20.1689 O   0  0  0  0  0  0
  -21.6656   -6.8881   21.4237 O   0  0  0  0  0  0
  -22.3443  -14.5477   20.6697 O   0  0  0  0  0  0
  -24.6645  -31.8255   23.1722 C   0  0  0  0  0  0
  -25.9331  -32.4600   23.8191 C   0  0  1  0  0  0
  -27.2076  -26.9299   20.1872 C   0  0  0  0  0  0
  -25.6003  -33.8412   24.2119 N   0  0  0  0  0  0
  -23.4785  -30.4401   21.5207 C   0  0  2  0  0  0
  -24.9260  -28.8228   20.1195 C   0  0  0  0  0  0
  -22.7668  -29.4481   22.4777 C   0  0  0  0  0  0
  -18.0329  -28.1406   22.8456 C   0  0  0  0  0  0
  -24.1503  -36.7211   23.2647 C   0  0  0  0  0  0
  -26.0470  -30.6321   21.4012 C   0  0  0  0  0  0
  -26.1114  -29.2206   20.7503 C   0  0  0  0  0  0
  -27.2488  -28.2952   20.7580 C   0  0  0  0  0  0
  -25.9962  -26.6856   19.5040 C   0  0  0  0  0  0
  -24.8925  -27.5756   19.4761 C   0  0  0  0  0  0
  -23.7174  -29.7558   20.1474 C   0  0  0  0  0  0
  -25.4144  -36.2991   24.0317 C   0  0  1  0  0  0
  -20.5953  -28.3771   23.1159 C   0  0  2  0  0  0
  -20.6809  -26.9452   22.5386 C   0  0  0  0  0  0
  -19.5785  -26.6383   21.5197 C   0  0  0  0  0  0
  -18.1965  -26.7935   22.1607 C   0  0  0  0  0  0
  -19.1589  -28.8903   23.2796 C   0  0  0  0  0  0
  -18.9499  -30.1488   23.8849 C   0  0  0  0  0  0
  -17.6493  -30.6589   24.0555 C   0  0  0  0  0  0
  -25.9104  -34.9361   23.5043 C   0  0  0  0  0  0
  -16.5384  -29.9086   23.6330 C   0  0  0  0  0  0
  -16.7312  -28.6502   23.0351 C   0  0  0  0  0  0
  -26.4574  -31.6519   25.0706 C   0  0  0  0  0  0
  -25.3699  -31.3742   26.1355 C   0  0  0  0  0  0
  -27.0466  -30.2890   24.6416 C   0  0  0  0  0  0
  -27.6100  -32.4290   25.7502 C   0  0  0  0  0  0
  -27.5591  -37.1772   24.8470 C   0  0  0  0  0  0
  -21.4340  -29.3075   22.3517 N   0  0  0  0  0  0
  -26.4301  -37.3726   23.9410 N   0  0  0  0  0  0
  -24.7515  -30.9922   22.0856 N   0  0  0  0  0  0
  -23.4207  -28.8046   23.3022 O   0  0  0  0  0  0
  -28.2215  -25.8387   20.2159 O   0  0  0  0  0  0
  -26.5697  -34.8888   22.4630 O   0  0  0  0  0  0
  -23.5708  -32.1226   23.6809 O   0  0  0  0  0  0
  -26.8537  -21.1105   20.1354 C   0  0  0  0  0  0
  -28.1220  -23.6076   21.7882 C   0  0  0  0  0  0
  -28.4950  -22.0331   21.8395 C   0  0  0  0  0  0
  -28.6867  -22.7826   19.6574 C   0  0  0  0  0  0
  -27.7495  -19.2126   19.1237 C   0  0  0  0  0  0
  -28.6697  -19.4993   20.3057 C   0  0  2  0  0  0
  -27.9886  -24.2057   20.3409 C   0  0  2  0  0  0
  -28.3622  -21.2949   20.4596 C   0  0  2  0  0  0
  -29.8692  -18.1668   20.3914 C   0  0  0  0  0  0
  -29.6396  -16.5070   20.4430 N   0  0  0  0  0  0
  -25.9490  -21.8422   20.5424 O   0  0  0  0  0  0
  -26.6303  -20.0445   19.3581 O   0  0  0  0  0  0
  -31.4601  -13.0147   19.1918 H   0  0  0  0  0  0
  -30.5112  -11.8917   20.1152 H   0  0  0  0  0  0
  -29.9155  -11.7676   17.6658 H   0  0  0  0  0  0
  -29.5725  -13.4812   17.6559 H   0  0  0  0  0  0
  -28.0346  -11.2788   19.0573 H   0  0  0  0  0  0
  -27.4176  -12.3660   17.8387 H   0  0  0  0  0  0
  -27.5267  -14.2417   19.3305 H   0  0  0  0  0  0
  -28.8168  -12.4944   21.4790 H   0  0  0  0  0  0
  -28.2854  -14.1483   21.6999 H   0  0  0  0  0  0
  -25.2759   -9.5716   22.4754 H   0  0  0  0  0  0
  -24.0026   -7.4642   22.7470 H   0  0  0  0  0  0
  -21.0856   -8.8720   19.8936 H   0  0  0  0  0  0
  -22.3669  -10.9649   19.6145 H   0  0  0  0  0  0
  -21.2009   -7.6131   23.9709 H   0  0  0  0  0  0
  -21.1513   -6.0511   25.9067 H   0  0  0  0  0  0
  -22.0592   -2.7605   23.2825 H   0  0  0  0  0  0
  -22.3993  -11.9884   22.4901 H   0  0  0  0  0  0
  -21.0994  -13.1200   22.2567 H   0  0  0  0  0  0
  -24.6282  -15.8421   20.5175 H   0  0  0  0  0  0
  -26.2333  -15.6358   20.0445 H   0  0  0  0  0  0
  -26.7409  -32.5142   23.0911 H   0  0  0  0  0  0
  -25.0134  -33.9490   25.0260 H   0  0  0  0  0  0
  -22.7942  -31.2739   21.3488 H   0  0  0  0  0  0
  -23.3794  -35.9512   23.3262 H   0  0  0  0  0  0
  -24.3586  -36.8891   22.2072 H   0  0  0  0  0  0
  -23.7221  -37.6381   23.6702 H   0  0  0  0  0  0
  -26.2250  -31.3683   20.6169 H   0  0  0  0  0  0
  -26.9099  -30.6915   22.0520 H   0  0  0  0  0  0
  -28.1498  -28.5979   21.2736 H   0  0  0  0  0  0
  -25.8748  -25.7428   18.9911 H   0  0  0  0  0  0
  -23.9946  -27.2675   18.9584 H   0  0  0  0  0  0
  -23.8824  -30.5236   19.3911 H   0  0  0  0  0  0
  -22.8271  -29.2147   19.8242 H   0  0  0  0  0  0
  -25.1332  -36.1814   25.0811 H   0  0  0  0  0  0
  -21.0030  -28.3387   24.1282 H   0  0  0  0  0  0
  -20.5674  -26.2404   23.3641 H   0  0  0  0  0  0
  -21.6675  -26.7423   22.1202 H   0  0  0  0  0  0
  -19.6948  -25.6276   21.1276 H   0  0  0  0  0  0
  -19.6718  -27.3152   20.6690 H   0  0  0  0  0  0
  -17.4236  -26.6667   21.4014 H   0  0  0  0  0  0
  -18.0371  -26.0087   22.9012 H   0  0  0  0  0  0
  -19.7981  -30.7312   24.2197 H   0  0  0  0  0  0
  -17.5050  -31.6262   24.5174 H   0  0  0  0  0  0
  -15.5380  -30.2977   23.7678 H   0  0  0  0  0  0
  -15.8711  -28.0811   22.7082 H   0  0  0  0  0  0
  -24.5907  -30.7068   25.7645 H   0  0  0  0  0  0
  -24.8850  -32.2917   26.4689 H   0  0  0  0  0  0
  -25.7922  -30.8965   27.0201 H   0  0  0  0  0  0
  -26.3108  -29.6552   24.1445 H   0  0  0  0  0  0
  -27.4033  -29.7265   25.5056 H   0  0  0  0  0  0
  -27.9044  -30.4082   23.9799 H   0  0  0  0  0  0
  -27.2715  -33.3634   26.1983 H   0  0  0  0  0  0
  -28.3961  -32.6758   25.0355 H   0  0  0  0  0  0
  -28.0696  -31.8459   26.5492 H   0  0  0  0  0  0
  -28.2586  -38.0096   24.7541 H   0  0  0  0  0  0
  -28.1116  -36.2624   24.6259 H   0  0  0  0  0  0
  -27.2300  -37.1365   25.8872 H   0  0  0  0  0  0
  -20.9594  -29.8780   21.6669 H   0  0  0  0  0  0
  -26.0158  -38.2798   24.1394 H   0  0  0  0  0  0
  -28.8829  -24.1623   22.3363 H   0  0  0  0  0  0
  -27.1918  -23.7849   22.3298 H   0  0  0  0  0  0
  -27.9069  -21.5362   22.6132 H   0  0  0  0  0  0
  -29.5331  -21.9362   22.1594 H   0  0  0  0  0  0
  -29.7692  -22.9149   19.6373 H   0  0  0  0  0  0
  -28.3929  -22.7153   18.6089 H   0  0  0  0  0  0
  -27.4482  -18.1658   19.0774 H   0  0  0  0  0  0
  -28.2216  -19.4733   18.1767 H   0  0  0  0  0  0
  -28.1131  -19.1744   21.1899 H   0  0  0  0  0  0
  -26.9406  -24.1166   20.0662 H   0  0  0  0  0  0
  -30.4924  -18.3839   21.2603 H   0  0  0  0  0  0
  -30.5443  -18.3195   19.5484 H   0  0  0  0  0  0
  -28.6639  -16.2736   20.5511 H   0  0  0  0  0  0
  1 25  1  0  0  0
  1 30  2  0  0  0
  1 80  1  0  0  0
  2  3  1  0  0  0
  2 25  1  0  0  0
  2 83  1  0  0  0
  2 84  1  0  0  0
  3  4  1  0  0  0
  3 85  1  0  0  0
  3 86  1  0  0  0
  4  5  1  0  0  0
  4 87  1  0  0  0
  4 88  1  0  0  0
  5  6  1  0  0  0
  5 26  1  0  0  0
  5 89  1  0  0  0
  6 25  1  0  0  0
  6 90  1  0  0  0
  6 91  1  0  0  0
  7  8  2  0  0  0
  7 26  1  0  0  0
  7 29  1  0  0  0
  8  9  1  0  0  0
  8 22  1  0  0  0
  9 10  1  0  0  0
  9 27  2  0  0  0
 10 11  2  0  0  0
 10 15  1  0  0  0
 11 12  1  0  0  0
 11 92  1  0  0  0
 12 13  2  0  0  0
 12 93  1  0  0  0
 13 14  1  0  0  0
 13 31  1  0  0  0
 14 15  2  0  0  0
 14 94  1  0  0  0
 15 95  1  0  0  0
 16 17  2  0  0  0
 16 21  1  0  0  0
 16 31  1  0  0  0
 17 18  1  0  0  0
 17 96  1  0  0  0
 18 19  2  0  0  0
 18 97  1  0  0  0
 19 20  1  0  0  0
 19 24  1  0  0  0
 20 21  2  0  0  0
 20 98  1  0  0  0
 21 23  1  0  0  0
 22 28  1  0  0  0
 22 32  2  0  0  0
 26 27  1  0  0  0
 28 99  1  0  0  0
 28100  1  0  0  0
 29101  1  0  0  0
 29102  1  0  0  0
 33 34  1  0  0  0
 33 66  1  0  0  0
 33 70  2  0  0  0
 34 36  1  0  0  0
 34 59  1  0  0  0
 34103  1  0  0  0
 35 44  2  0  0  0
 35 45  1  0  0  0
 35 68  1  0  0  0
 36 56  1  0  0  0
 36104  1  0  0  0
 37 39  1  0  0  0
 37 47  1  0  0  0
 37 66  1  0  0  0
 37105  1  0  0  0
 38 43  2  0  0  0
 38 46  1  0  0  0
 38 47  1  0  0  0
 39 64  1  0  0  0
 39 67  2  0  0  0
 40 52  1  0  0  0
 40 53  2  0  0  0
 40 58  1  0  0  0
 41106  1  0  0  0
 41107  1  0  0  0
 41108  1  0  0  0
 41 48  1  0  0  0
 42 43  1  0  0  0
 42 66  1  0  0  0
 42109  1  0  0  0
 42110  1  0  0  0
 43 44  1  0  0  0
 44111  1  0  0  0
 45 46  2  0  0  0
 45112  1  0  0  0
 46113  1  0  0  0
 47114  1  0  0  0
 47115  1  0  0  0
 48 56  1  0  0  0
 48 65  1  0  0  0
 48116  1  0  0  0
 49 50  1  0  0  0
 49 53  1  0  0  0
 49 64  1  0  0  0
 49117  1  0  0  0
 50 51  1  0  0  0
 50118  1  0  0  0
 50119  1  0  0  0
 51 52  1  0  0  0
 51120  1  0  0  0
 51121  1  0  0  0
 52122  1  0  0  0
 52123  1  0  0  0
 53 54  1  0  0  0
 54 55  2  0  0  0
 54124  1  0  0  0
 55 57  1  0  0  0
 55125  1  0  0  0
 56 69  2  0  0  0
 57 58  2  0  0  0
 57126  1  0  0  0
 58127  1  0  0  0
 59 60  1  0  0  0
 59 61  1  0  0  0
 59 62  1  0  0  0
 60128  1  0  0  0
 60129  1  0  0  0
 60130  1  0  0  0
 61131  1  0  0  0
 61132  1  0  0  0
 61133  1  0  0  0
 62134  1  0  0  0
 62135  1  0  0  0
 62136  1  0  0  0
 63 65  1  0  0  0
 63137  1  0  0  0
 63138  1  0  0  0
 63139  1  0  0  0
 64140  1  0  0  0
 65141  1  0  0  0
 68 77  1  0  0  0
 71 81  2  0  0  0
 71 82  1  0  0  0
 71 78  1  0  0  0
 72 73  1  0  0  0
 72 77  1  0  0  0
 72142  1  0  0  0
 72143  1  0  0  0
 73144  1  0  0  0
 73145  1  0  0  0
 73 78  1  0  0  0
 74 77  1  0  0  0
 74 78  1  0  0  0
 74146  1  0  0  0
 74147  1  0  0  0
 75 76  1  0  0  0
 75 82  1  0  0  0
 75148  1  0  0  0
 75149  1  0  0  0
 76 78  1  0  0  0
 76 79  1  0  0  0
 76150  1  0  0  0
 77151  1  0  0  0
 79 80  1  0  0  0
 79152  1  0  0  0
 79153  1  0  0  0
 80154  1  0  0  0
M  ISO  4   1 100  68 101  77 101  80 100
M  END
> <chiral flag>
0

> <version>
0

> <s_m_source_file>
/data/baiqing/PycharmProjects/Reinvent-master-3.2/result/LINK_invent/BTK/process_docking_weight1_custom_sum_contain_oxygen_bond_distance_aromatic_linkinvent_7_9_3/rearranged_h_0157.sdf

> <i_m_source_file_index>
41

> <r_mmod_Potential_Energy-OPLS-2005>
1431.23876953125

> <r_mmod_Stretch_Energy-OPLS-2005>
585.372497558594

> <r_mmod_Bend_Energy-OPLS-2005>
610.498413085938

> <r_mmod_Torsional_Energy-OPLS-2005>
276.7314453125

> <r_mmod_Improper_Torsional_Energy-OPLS-2005>
4.00755500793457

> <r_mmod_Van_der_Waal_Energy-OPLS-2005>
110.899841308594

> <r_mmod_Electrostatic_Energy-OPLS-2005>
-368.692047119141

> <r_mmod_Solvation_Energy-OPLS-2005>
-233.735229492188

> <b_mmod_Minimization_Converged-OPLS-2005>
0

> <r_mmod_RMS_Derivative-OPLS-2005>
2.83676075935364

$$$$
41
                    3D
 Structure written by MMmdl.
168178  0  0  1  0            999 V2000
  -30.7049  -14.6124   20.4101 C   0  0  0  0  0  0
  -30.4099  -12.3720   19.4284 C   0  0  0  0  0  0
  -29.4824  -12.4690   18.2025 C   0  0  0  0  0  0
  -28.0112  -12.3165   18.6358 C   0  0  0  0  0  0
  -27.6391  -13.2047   19.8549 C   0  0  2  0  0  0
  -28.7032  -13.1564   20.9701 C   0  0  0  0  0  0
  -25.2532  -13.8130   20.5729 C   0  0  0  0  0  0
  -24.1783  -13.0421   20.9220 C   0  0  0  0  0  0
  -24.6348  -11.6890   20.8791 C   0  0  0  0  0  0
  -23.9029  -10.4284   21.0431 C   0  0  0  0  0  0
  -24.3595   -9.4197   21.9196 C   0  0  0  0  0  0
  -23.6284   -8.2226   22.0750 C   0  0  0  0  0  0
  -22.4266   -8.0272   21.3540 C   0  0  0  0  0  0
  -21.9898   -9.0245   20.4641 C   0  0  0  0  0  0
  -22.7216  -10.2126   20.3062 C   0  0  0  0  0  0
  -21.6851   -6.0733   22.5271 C   0  0  0  0  0  0
  -21.4014   -6.5640   23.8204 C   0  0  0  0  0  0
  -21.3654   -5.6794   24.9165 C   0  0  0  0  0  0
  -21.6045   -4.3058   24.7218 C   0  0  0  0  0  0
  -21.8827   -3.8146   23.4341 C   0  0  0  0  0  0
  -21.9193   -4.6963   22.3396 C   0  0  0  0  0  0
  -22.7809  -13.5235   21.1854 C   0  0  0  0  0  0
  -22.1660   -4.2146   21.0977 F   0  0  0  0  0  0
  -21.5627   -3.4544   25.7735 F   0  0  0  0  0  0
  -29.9934  -13.4497   20.3393 N   0  0  0  0  0  0
  -26.2937  -12.9278   20.3402 N   0  0  0  0  0  0
  -25.9276  -11.6454   20.5857 N   0  0  0  0  0  0
  -22.0460  -12.8222   22.0405 N   0  0  0  0  0  0
  -25.4279  -15.1836   20.4123 N   0  0  0  0  0  0
  -31.9286  -14.6027   20.3202 O   0  0  0  0  0  0
  -21.6635   -6.8866   21.4230 O   0  0  0  0  0  0
  -22.3509  -14.5538   20.6690 O   0  0  0  0  0  0
  -24.6203  -31.8615   23.2043 C   0  0  0  0  0  0
  -25.9070  -32.4792   23.8357 C   0  0  1  0  0  0
  -27.2297  -27.3619   20.1094 C   0  0  0  0  0  0
  -25.5909  -33.8593   24.2285 N   0  0  0  0  0  0
  -23.4123  -30.4846   21.5453 C   0  0  2  0  0  0
  -24.8572  -28.9385   20.1121 C   0  0  0  0  0  0
  -22.7443  -29.4630   22.4947 C   0  0  0  0  0  0
  -18.0283  -28.1382   22.8493 C   0  0  0  0  0  0
  -24.1487  -36.7300   23.2637 C   0  0  0  0  0  0
  -25.9463  -30.8068   21.3653 C   0  0  0  0  0  0
  -26.0205  -29.4354   20.7108 C   0  0  0  0  0  0
  -27.2068  -28.6562   20.7008 C   0  0  0  0  0  0
  -26.0418  -26.8925   19.5058 C   0  0  0  0  0  0
  -24.8662  -27.6710   19.5046 C   0  0  0  0  0  0
  -23.6242  -29.8157   20.1604 C   0  0  0  0  0  0
  -25.4111  -36.3095   24.0332 C   0  0  1  0  0  0
  -20.5880  -28.3674   23.1303 C   0  0  2  0  0  0
  -20.6773  -26.9403   22.5417 C   0  0  0  0  0  0
  -19.5754  -26.6382   21.5217 C   0  0  0  0  0  0
  -18.1932  -26.7928   22.1626 C   0  0  0  0  0  0
  -19.1534  -28.8845   23.2895 C   0  0  0  0  0  0
  -18.9458  -30.1451   23.8903 C   0  0  0  0  0  0
  -17.6458  -30.6588   24.0568 C   0  0  0  0  0  0
  -25.9043  -34.9465   23.5105 C   0  0  0  0  0  0
  -16.5350  -29.9093   23.6330 C   0  0  0  0  0  0
  -16.7269  -28.6513   23.0346 C   0  0  0  0  0  0
  -26.4473  -31.6601   25.0715 C   0  0  0  0  0  0
  -25.3736  -31.3727   26.1467 C   0  0  0  0  0  0
  -27.0292  -30.3037   24.6116 C   0  0  0  0  0  0
  -27.6039  -32.4330   25.7484 C   0  0  0  0  0  0
  -27.5582  -37.1801   24.8460 C   0  0  0  0  0  0
  -21.4163  -29.3033   22.3697 N   0  0  0  0  0  0
  -26.4285  -37.3792   23.9420 N   0  0  0  0  0  0
  -24.6788  -31.0670   22.0969 N   0  0  0  0  0  0
  -23.4192  -28.8173   23.3011 O   0  0  0  0  0  0
  -28.3987  -26.6065   20.1521 O   0  0  0  0  0  0
  -26.5606  -34.8930   22.4670 O   0  0  0  0  0  0
  -23.5383  -32.1376   23.7415 O   0  0  0  0  0  0
  -30.3068  -21.8761   20.7206 C   0  0  0  0  0  0
  -28.0123  -21.7599   20.0382 C   0  0  0  0  0  0
  -29.1007  -22.5607   20.4487 C   0  0  0  0  0  0
  -29.3861  -19.6771   20.0327 C   0  0  0  0  0  0
  -30.4578  -20.4770   20.5297 C   0  0  0  0  0  0
  -28.1339  -20.3451   19.8374 C   0  0  0  0  0  0
  -29.0297  -17.8066   18.1929 C   0  0  0  0  0  0
  -28.1547  -16.7993   18.9422 C   0  0  0  0  0  0
  -29.9236  -24.9082   19.7540 C   0  0  0  0  0  0
  -29.0329  -24.0908   20.6505 C   0  0  1  0  0  0
  -29.6643  -18.2012   19.5359 C   0  0  2  0  0  0
  -29.1995  -16.7710   20.0748 C   0  0  2  0  0  0
  -28.4444  -25.2067   19.7277 C   0  0  1  0  0  0
  -31.8178  -19.8681   20.8372 C   0  0  0  0  0  0
  -24.9740  -19.1364   18.3715 C   0  0  0  0  0  0
  -25.8855  -20.2144   18.9619 C   0  0  0  0  0  0
  -30.1747  -15.6833   19.7646 N   0  0  0  0  0  0
  -27.0632  -19.5784   19.4367 O   0  0  0  0  0  0
  -31.4536  -12.4611   19.1217 H   0  0  0  0  0  0
  -30.3147  -11.4000   19.9140 H   0  0  0  0  0  0
  -29.7369  -11.7002   17.4718 H   0  0  0  0  0  0
  -29.6225  -13.4285   17.7016 H   0  0  0  0  0  0
  -27.8523  -11.2664   18.8845 H   0  0  0  0  0  0
  -27.3450  -12.5322   17.7993 H   0  0  0  0  0  0
  -27.6242  -14.2196   19.4889 H   0  0  0  0  0  0
  -28.7250  -12.1781   21.4529 H   0  0  0  0  0  0
  -28.4786  -13.8911   21.7457 H   0  0  0  0  0  0
  -25.2742   -9.5678   22.4767 H   0  0  0  0  0  0
  -24.0007   -7.4612   22.7460 H   0  0  0  0  0  0
  -21.0833   -8.8761   19.8940 H   0  0  0  0  0  0
  -22.3689  -10.9668   19.6169 H   0  0  0  0  0  0
  -21.2010   -7.6152   23.9707 H   0  0  0  0  0  0
  -21.1464   -6.0521   25.9068 H   0  0  0  0  0  0
  -22.0614   -2.7611   23.2835 H   0  0  0  0  0  0
  -22.4107  -11.9892   22.4783 H   0  0  0  0  0  0
  -21.1066  -13.1213   22.2617 H   0  0  0  0  0  0
  -24.6682  -15.8455   20.5187 H   0  0  0  0  0  0
  -26.2930  -15.6120   20.1097 H   0  0  0  0  0  0
  -26.7137  -32.5470   23.1110 H   0  0  0  0  0  0
  -25.0090  -33.9747   25.0451 H   0  0  0  0  0  0
  -22.7044  -31.3034   21.4020 H   0  0  0  0  0  0
  -23.3757  -35.9623   23.3293 H   0  0  0  0  0  0
  -24.3585  -36.8924   22.2052 H   0  0  0  0  0  0
  -23.7229  -37.6499   23.6658 H   0  0  0  0  0  0
  -26.0659  -31.5710   20.5962 H   0  0  0  0  0  0
  -26.8319  -30.8591   21.9872 H   0  0  0  0  0  0
  -28.1050  -29.0352   21.1681 H   0  0  0  0  0  0
  -25.9940  -25.9199   19.0397 H   0  0  0  0  0  0
  -23.9697  -27.2829   19.0411 H   0  0  0  0  0  0
  -23.7430  -30.5901   19.4013 H   0  0  0  0  0  0
  -22.7446  -29.2434   19.8604 H   0  0  0  0  0  0
  -25.1292  -36.1940   25.0823 H   0  0  0  0  0  0
  -20.9971  -28.3237   24.1424 H   0  0  0  0  0  0
  -20.5681  -26.2275   23.3604 H   0  0  0  0  0  0
  -21.6639  -26.7446   22.1201 H   0  0  0  0  0  0
  -19.6917  -25.6296   21.1242 H   0  0  0  0  0  0
  -19.6702  -27.3196   20.6751 H   0  0  0  0  0  0
  -17.4204  -26.6677   21.4026 H   0  0  0  0  0  0
  -18.0334  -26.0067   22.9018 H   0  0  0  0  0  0
  -19.7933  -30.7269   24.2265 H   0  0  0  0  0  0
  -17.5017  -31.6268   24.5168 H   0  0  0  0  0  0
  -15.5353  -30.2999   23.7650 H   0  0  0  0  0  0
  -15.8669  -28.0842   22.7044 H   0  0  0  0  0  0
  -24.5903  -30.7076   25.7822 H   0  0  0  0  0  0
  -24.8936  -32.2885   26.4924 H   0  0  0  0  0  0
  -25.8092  -30.8900   27.0221 H   0  0  0  0  0  0
  -26.2830  -29.6819   24.1151 H   0  0  0  0  0  0
  -27.4025  -29.7266   25.4585 H   0  0  0  0  0  0
  -27.8691  -30.4353   23.9290 H   0  0  0  0  0  0
  -27.2652  -33.3632   26.2058 H   0  0  0  0  0  0
  -28.3852  -32.6882   25.0314 H   0  0  0  0  0  0
  -28.0694  -31.8451   26.5402 H   0  0  0  0  0  0
  -28.2580  -38.0118   24.7540 H   0  0  0  0  0  0
  -28.1094  -36.2652   24.6237 H   0  0  0  0  0  0
  -27.2305  -37.1392   25.8861 H   0  0  0  0  0  0
  -20.9320  -29.8753   21.6918 H   0  0  0  0  0  0
  -26.0164  -38.2858   24.1455 H   0  0  0  0  0  0
  -31.1546  -22.4521   21.0672 H   0  0  0  0  0  0
  -27.0743  -22.2678   19.8687 H   0  0  0  0  0  0
  -28.4858  -18.5913   17.6687 H   0  0  0  0  0  0
  -29.7402  -17.3227   17.5199 H   0  0  0  0  0  0
  -28.0208  -15.8934   18.3549 H   0  0  0  0  0  0
  -27.1930  -17.1992   19.2589 H   0  0  0  0  0  0
  -30.3324  -24.4295   18.8663 H   0  0  0  0  0  0
  -30.5920  -25.6156   20.2419 H   0  0  0  0  0  0
  -29.0553  -24.3122   21.7161 H   0  0  0  0  0  0
  -30.7371  -18.1462   19.3669 H   0  0  0  0  0  0
  -28.7944  -16.7661   21.0878 H   0  0  0  0  0  0
  -27.9354  -24.9660   18.7968 H   0  0  0  0  0  0
  -32.4265  -20.5294   21.4546 H   0  0  0  0  0  0
  -32.3696  -19.6757   19.9167 H   0  0  0  0  0  0
  -31.7101  -18.9286   21.3807 H   0  0  0  0  0  0
  -24.0451  -19.5713   18.0017 H   0  0  0  0  0  0
  -24.7173  -18.3837   19.1175 H   0  0  0  0  0  0
  -25.4591  -18.6296   17.5367 H   0  0  0  0  0  0
  -25.3756  -20.7271   19.7783 H   0  0  0  0  0  0
  -26.1273  -20.9454   18.1889 H   0  0  0  0  0  0
  -30.9218  -16.0689   19.2072 H   0  0  0  0  0  0
  1 25  1  0  0  0
  1 30  2  0  0  0
  1 87  1  0  0  0
  2  3  1  0  0  0
  2 25  1  0  0  0
  2 89  1  0  0  0
  2 90  1  0  0  0
  3  4  1  0  0  0
  3 91  1  0  0  0
  3 92  1  0  0  0
  4  5  1  0  0  0
  4 93  1  0  0  0
  4 94  1  0  0  0
  5  6  1  0  0  0
  5 26  1  0  0  0
  5 95  1  0  0  0
  6 25  1  0  0  0
  6 96  1  0  0  0
  6 97  1  0  0  0
  7  8  2  0  0  0
  7 26  1  0  0  0
  7 29  1  0  0  0
  8  9  1  0  0  0
  8 22  1  0  0  0
  9 10  1  0  0  0
  9 27  2  0  0  0
 10 11  2  0  0  0
 10 15  1  0  0  0
 11 12  1  0  0  0
 11 98  1  0  0  0
 12 13  2  0  0  0
 12 99  1  0  0  0
 13 14  1  0  0  0
 13 31  1  0  0  0
 14 15  2  0  0  0
 14100  1  0  0  0
 15101  1  0  0  0
 16 17  2  0  0  0
 16 21  1  0  0  0
 16 31  1  0  0  0
 17 18  1  0  0  0
 17102  1  0  0  0
 18 19  2  0  0  0
 18103  1  0  0  0
 19 20  1  0  0  0
 19 24  1  0  0  0
 20 21  2  0  0  0
 20104  1  0  0  0
 21 23  1  0  0  0
 22 28  1  0  0  0
 22 32  2  0  0  0
 26 27  1  0  0  0
 28105  1  0  0  0
 28106  1  0  0  0
 29107  1  0  0  0
 29108  1  0  0  0
 33 34  1  0  0  0
 33 66  1  0  0  0
 33 70  2  0  0  0
 34 36  1  0  0  0
 34 59  1  0  0  0
 34109  1  0  0  0
 35 44  2  0  0  0
 35 45  1  0  0  0
 35 68  1  0  0  0
 36 56  1  0  0  0
 36110  1  0  0  0
 37 39  1  0  0  0
 37 47  1  0  0  0
 37 66  1  0  0  0
 37111  1  0  0  0
 38 43  2  0  0  0
 38 46  1  0  0  0
 38 47  1  0  0  0
 39 64  1  0  0  0
 39 67  2  0  0  0
 40 52  1  0  0  0
 40 53  2  0  0  0
 40 58  1  0  0  0
 41112  1  0  0  0
 41113  1  0  0  0
 41114  1  0  0  0
 41 48  1  0  0  0
 42 43  1  0  0  0
 42 66  1  0  0  0
 42115  1  0  0  0
 42116  1  0  0  0
 43 44  1  0  0  0
 44117  1  0  0  0
 45 46  2  0  0  0
 45118  1  0  0  0
 46119  1  0  0  0
 47120  1  0  0  0
 47121  1  0  0  0
 48 56  1  0  0  0
 48 65  1  0  0  0
 48122  1  0  0  0
 49 50  1  0  0  0
 49 53  1  0  0  0
 49 64  1  0  0  0
 49123  1  0  0  0
 50 51  1  0  0  0
 50124  1  0  0  0
 50125  1  0  0  0
 51 52  1  0  0  0
 51126  1  0  0  0
 51127  1  0  0  0
 52128  1  0  0  0
 52129  1  0  0  0
 53 54  1  0  0  0
 54 55  2  0  0  0
 54130  1  0  0  0
 55 57  1  0  0  0
 55131  1  0  0  0
 56 69  2  0  0  0
 57 58  2  0  0  0
 57132  1  0  0  0
 58133  1  0  0  0
 59 60  1  0  0  0
 59 61  1  0  0  0
 59 62  1  0  0  0
 60134  1  0  0  0
 60135  1  0  0  0
 60136  1  0  0  0
 61137  1  0  0  0
 61138  1  0  0  0
 61139  1  0  0  0
 62140  1  0  0  0
 62141  1  0  0  0
 62142  1  0  0  0
 63 65  1  0  0  0
 63143  1  0  0  0
 63144  1  0  0  0
 63145  1  0  0  0
 64146  1  0  0  0
 65147  1  0  0  0
 68 83  1  0  0  0
 71 73  2  0  0  0
 71 75  1  0  0  0
 71148  1  0  0  0
 72 73  1  0  0  0
 72 76  2  0  0  0
 72149  1  0  0  0
 73 80  1  0  0  0
 74 75  2  0  0  0
 74 76  1  0  0  0
 74 81  1  0  0  0
 75 84  1  0  0  0
 76 88  1  0  0  0
 77 78  1  0  0  0
 77 81  1  0  0  0
 77150  1  0  0  0
 77151  1  0  0  0
 78 82  1  0  0  0
 78152  1  0  0  0
 78153  1  0  0  0
 79 80  1  0  0  0
 79 83  1  0  0  0
 79154  1  0  0  0
 79155  1  0  0  0
 80 83  1  0  0  0
 80156  1  0  0  0
 81 82  1  0  0  0
 81157  1  0  0  0
 82 87  1  0  0  0
 82158  1  0  0  0
 83159  1  0  0  0
 84160  1  0  0  0
 84161  1  0  0  0
 84162  1  0  0  0
 85 86  1  0  0  0
 85163  1  0  0  0
 85164  1  0  0  0
 85165  1  0  0  0
 86 88  1  0  0  0
 86166  1  0  0  0
 86167  1  0  0  0
 87168  1  0  0  0
M  ISO  4   1 100  68 101  83 101  87 100
M  END
> <chiral flag>
0

> <version>
0

> <s_m_source_file>
/data/baiqing/PycharmProjects/Reinvent-master-3.2/result/LINK_invent/BTK/process_docking_weight1_custom_sum_contain_oxygen_bond_distance_aromatic_linkinvent_7_9_3/rearranged_h_0157.sdf

> <i_m_source_file_index>
42

> <r_mmod_Potential_Energy-OPLS-2005>
242.502716064453

> <r_mmod_Stretch_Energy-OPLS-2005>
66.7633895874023

> <r_mmod_Bend_Energy-OPLS-2005>
210.359573364258

> <r_mmod_Torsional_Energy-OPLS-2005>
337.680114746094

> <r_mmod_Improper_Torsional_Energy-OPLS-2005>
36.910343170166

> <r_mmod_Van_der_Waal_Energy-OPLS-2005>
144.206008911133

> <r_mmod_Electrostatic_Energy-OPLS-2005>
-411.096130371094

> <r_mmod_Solvation_Energy-OPLS-2005>
-195.102737426758

> <b_mmod_Minimization_Converged-OPLS-2005>
0

> <r_mmod_RMS_Derivative-OPLS-2005>
1.4111213684082

$$$$
42
                    3D
 Structure written by MMmdl.
174184  0  0  1  0            999 V2000
  -30.7659  -14.5002   20.6644 C   0  0  0  0  0  0
  -30.4109  -12.3556   19.4519 C   0  0  0  0  0  0
  -29.4994  -12.5290   18.2204 C   0  0  0  0  0  0
  -28.0224  -12.3637   18.6179 C   0  0  0  0  0  0
  -27.6522  -13.2183   19.8551 C   0  0  2  0  0  0
  -28.6789  -13.0433   20.9893 C   0  0  0  0  0  0
  -25.2547  -13.8188   20.5650 C   0  0  0  0  0  0
  -24.1819  -13.0447   20.9163 C   0  0  0  0  0  0
  -24.6389  -11.6919   20.8706 C   0  0  0  0  0  0
  -23.9064  -10.4301   21.0397 C   0  0  0  0  0  0
  -24.3618   -9.4219   21.9178 C   0  0  0  0  0  0
  -23.6296   -8.2253   22.0752 C   0  0  0  0  0  0
  -22.4276   -8.0285   21.3546 C   0  0  0  0  0  0
  -21.9910   -9.0256   20.4645 C   0  0  0  0  0  0
  -22.7237  -10.2137   20.3050 C   0  0  0  0  0  0
  -21.6852   -6.0739   22.5283 C   0  0  0  0  0  0
  -21.4013   -6.5641   23.8216 C   0  0  0  0  0  0
  -21.3662   -5.6795   24.9179 C   0  0  0  0  0  0
  -21.6045   -4.3057   24.7228 C   0  0  0  0  0  0
  -21.8818   -3.8151   23.4348 C   0  0  0  0  0  0
  -21.9190   -4.6967   22.3406 C   0  0  0  0  0  0
  -22.7846  -13.5237   21.1855 C   0  0  0  0  0  0
  -22.1659   -4.2155   21.0982 F   0  0  0  0  0  0
  -21.5631   -3.4540   25.7739 F   0  0  0  0  0  0
  -30.0265  -13.3553   20.4747 N   0  0  0  0  0  0
  -26.2960  -12.9374   20.3220 N   0  0  0  0  0  0
  -25.9305  -11.6523   20.5674 N   0  0  0  0  0  0
  -22.0496  -12.8221   22.0412 N   0  0  0  0  0  0
  -25.4271  -15.1913   20.4118 N   0  0  0  0  0  0
  -31.7739  -14.6991   19.9773 O   0  0  0  0  0  0
  -21.6639   -6.8883   21.4245 O   0  0  0  0  0  0
  -22.3527  -14.5546   20.6715 O   0  0  0  0  0  0
  -24.6201  -31.8638   23.2064 C   0  0  0  0  0  0
  -25.9073  -32.4796   23.8374 C   0  0  1  0  0  0
  -27.2262  -27.3779   20.1086 C   0  0  0  0  0  0
  -25.5907  -33.8598   24.2300 N   0  0  0  0  0  0
  -23.4100  -30.4876   21.5478 C   0  0  2  0  0  0
  -24.8547  -28.9469   20.1132 C   0  0  0  0  0  0
  -22.7438  -29.4643   22.4969 C   0  0  0  0  0  0
  -18.0279  -28.1370   22.8499 C   0  0  0  0  0  0
  -24.1487  -36.7306   23.2640 C   0  0  0  0  0  0
  -25.9443  -30.8138   21.3658 C   0  0  0  0  0  0
  -26.0200  -29.4450   20.7099 C   0  0  0  0  0  0
  -27.2100  -28.6718   20.6959 C   0  0  0  0  0  0
  -26.0405  -26.9106   19.4997 C   0  0  0  0  0  0
  -24.8632  -27.6823   19.5016 C   0  0  0  0  0  0
  -23.6201  -29.8207   20.1629 C   0  0  0  0  0  0
  -25.4111  -36.3097   24.0330 C   0  0  1  0  0  0
  -20.5876  -28.3670   23.1307 C   0  0  2  0  0  0
  -20.6770  -26.9402   22.5413 C   0  0  0  0  0  0
  -19.5746  -26.6382   21.5213 C   0  0  0  0  0  0
  -18.1926  -26.7918   22.1627 C   0  0  0  0  0  0
  -19.1530  -28.8837   23.2898 C   0  0  0  0  0  0
  -18.9454  -30.1442   23.8910 C   0  0  0  0  0  0
  -17.6457  -30.6580   24.0567 C   0  0  0  0  0  0
  -25.9044  -34.9462   23.5118 C   0  0  0  0  0  0
  -16.5349  -29.9081   23.6327 C   0  0  0  0  0  0
  -16.7269  -28.6495   23.0358 C   0  0  0  0  0  0
  -26.4481  -31.6594   25.0726 C   0  0  0  0  0  0
  -25.3734  -31.3692   26.1467 C   0  0  0  0  0  0
  -27.0330  -30.3040   24.6129 C   0  0  0  0  0  0
  -27.6055  -32.4321   25.7488 C   0  0  0  0  0  0
  -27.5576  -37.1808   24.8463 C   0  0  0  0  0  0
  -21.4161  -29.3032   22.3707 N   0  0  0  0  0  0
  -26.4291  -37.3787   23.9407 N   0  0  0  0  0  0
  -24.6769  -31.0703   22.0979 N   0  0  0  0  0  0
  -23.4192  -28.8184   23.3028 O   0  0  0  0  0  0
  -28.3773  -26.5985   20.1303 O   0  0  0  0  0  0
  -26.5616  -34.8917   22.4687 O   0  0  0  0  0  0
  -23.5381  -32.1413   23.7428 O   0  0  0  0  0  0
  -31.0088  -20.2798   20.0287 C   0  0  0  0  0  0
  -28.8690  -19.9638   21.0881 C   0  0  0  0  0  0
  -29.7856  -20.8380   20.4535 C   0  0  0  0  0  0
  -30.4980  -18.0910   21.0628 C   0  0  0  0  0  0
  -31.3702  -18.9428   20.3223 C   0  0  0  0  0  0
  -29.2066  -18.6017   21.3875 C   0  0  0  0  0  0
  -31.1118  -15.6815   23.8757 C   0  0  0  0  0  0
  -29.2885  -23.1406   21.5871 C   0  0  0  0  0  0
  -28.4730  -22.7903   19.2445 C   0  0  0  0  0  0
  -31.2637  -17.0340   23.2213 C   0  0  0  0  0  0
  -29.2789  -24.6820   21.3721 C   0  0  0  0  0  0
  -28.4613  -24.3372   19.0166 C   0  0  0  0  0  0
  -30.1027  -14.9860   22.9739 C   0  0  0  0  0  0
  -29.5487  -22.3676   20.2729 C   0  0  2  0  0  0
  -31.0556  -16.7777   21.7166 C   0  0  1  0  0  0
  -28.2473  -25.1558   20.3199 C   0  0  2  0  0  0
  -32.7518  -18.4865   19.8778 C   0  0  0  0  0  0
  -27.0672  -18.2167   22.4254 C   0  0  0  0  0  0
  -30.3719  -15.4356   21.5943 N   0  0  0  0  0  0
  -28.3556  -17.7460   22.0555 O   0  0  0  0  0  0
  -31.4589  -12.4320   19.1572 H   0  0  0  0  0  0
  -30.3029  -11.3501   19.8619 H   0  0  0  0  0  0
  -29.7621  -11.8030   17.4495 H   0  0  0  0  0  0
  -29.6566  -13.5151   17.7802 H   0  0  0  0  0  0
  -27.8500  -11.3078   18.8302 H   0  0  0  0  0  0
  -27.3740  -12.6151   17.7779 H   0  0  0  0  0  0
  -27.6858  -14.2617   19.5395 H   0  0  0  0  0  0
  -28.6599  -12.0222   21.3732 H   0  0  0  0  0  0
  -28.3567  -13.6736   21.8114 H   0  0  0  0  0  0
  -25.2766   -9.5697   22.4746 H   0  0  0  0  0  0
  -24.0007   -7.4647   22.7474 H   0  0  0  0  0  0
  -21.0841   -8.8773   19.8955 H   0  0  0  0  0  0
  -22.3695  -10.9669   19.6155 H   0  0  0  0  0  0
  -21.2004   -7.6147   23.9723 H   0  0  0  0  0  0
  -21.1486   -6.0523   25.9082 H   0  0  0  0  0  0
  -22.0594   -2.7613   23.2846 H   0  0  0  0  0  0
  -22.4107  -11.9872   22.4785 H   0  0  0  0  0  0
  -21.1115  -13.1247   22.2628 H   0  0  0  0  0  0
  -24.6646  -15.8489   20.5287 H   0  0  0  0  0  0
  -26.2914  -15.6315   20.1215 H   0  0  0  0  0  0
  -26.7145  -32.5487   23.1130 H   0  0  0  0  0  0
  -25.0054  -33.9755   25.0443 H   0  0  0  0  0  0
  -22.7005  -31.3056   21.4065 H   0  0  0  0  0  0
  -23.3744  -35.9646   23.3310 H   0  0  0  0  0  0
  -24.3578  -36.8928   22.2054 H   0  0  0  0  0  0
  -23.7248  -37.6512   23.6663 H   0  0  0  0  0  0
  -26.0649  -31.5785   20.5971 H   0  0  0  0  0  0
  -26.8290  -30.8645   21.9891 H   0  0  0  0  0  0
  -28.1092  -29.0514   21.1605 H   0  0  0  0  0  0
  -26.0108  -25.9430   19.0216 H   0  0  0  0  0  0
  -23.9686  -27.2945   19.0345 H   0  0  0  0  0  0
  -23.7331  -30.5962   19.4042 H   0  0  0  0  0  0
  -22.7415  -29.2459   19.8656 H   0  0  0  0  0  0
  -25.1289  -36.1955   25.0821 H   0  0  0  0  0  0
  -20.9970  -28.3232   24.1427 H   0  0  0  0  0  0
  -20.5680  -26.2273   23.3601 H   0  0  0  0  0  0
  -21.6637  -26.7438   22.1203 H   0  0  0  0  0  0
  -19.6911  -25.6301   21.1229 H   0  0  0  0  0  0
  -19.6683  -27.3201   20.6753 H   0  0  0  0  0  0
  -17.4198  -26.6683   21.4021 H   0  0  0  0  0  0
  -18.0318  -26.0042   22.9004 H   0  0  0  0  0  0
  -19.7931  -30.7257   24.2282 H   0  0  0  0  0  0
  -17.5011  -31.6261   24.5165 H   0  0  0  0  0  0
  -15.5352  -30.2990   23.7634 H   0  0  0  0  0  0
  -15.8670  -28.0815   22.7070 H   0  0  0  0  0  0
  -24.5915  -30.7031   25.7793 H   0  0  0  0  0  0
  -24.8906  -32.2836   26.4927 H   0  0  0  0  0  0
  -25.8081  -30.8852   27.0223 H   0  0  0  0  0  0
  -26.2890  -29.6783   24.1182 H   0  0  0  0  0  0
  -27.4099  -29.7294   25.4600 H   0  0  0  0  0  0
  -27.8719  -30.4364   23.9294 H   0  0  0  0  0  0
  -27.2688  -33.3631   26.2063 H   0  0  0  0  0  0
  -28.3863  -32.6869   25.0307 H   0  0  0  0  0  0
  -28.0723  -31.8442   26.5402 H   0  0  0  0  0  0
  -28.2593  -38.0104   24.7519 H   0  0  0  0  0  0
  -28.1072  -36.2638   24.6282 H   0  0  0  0  0  0
  -27.2294  -37.1456   25.8864 H   0  0  0  0  0  0
  -20.9323  -29.8758   21.6934 H   0  0  0  0  0  0
  -26.0172  -38.2863   24.1410 H   0  0  0  0  0  0
  -31.7207  -20.9124   19.5154 H   0  0  0  0  0  0
  -27.9197  -20.3809   21.3895 H   0  0  0  0  0  0
  -30.7824  -15.7459   24.9136 H   0  0  0  0  0  0
  -32.0640  -15.1481   23.8568 H   0  0  0  0  0  0
  -28.3420  -22.8226   22.0263 H   0  0  0  0  0  0
  -30.0620  -22.8903   22.3142 H   0  0  0  0  0  0
  -28.6617  -22.2904   18.2938 H   0  0  0  0  0  0
  -27.4893  -22.4553   19.5761 H   0  0  0  0  0  0
  -32.2200  -17.5111   23.4391 H   0  0  0  0  0  0
  -30.4858  -17.6878   23.6181 H   0  0  0  0  0  0
  -30.2748  -25.0041   21.0657 H   0  0  0  0  0  0
  -29.0811  -25.1813   22.3217 H   0  0  0  0  0  0
  -27.6945  -24.5907   18.2856 H   0  0  0  0  0  0
  -29.4092  -24.6340   18.5654 H   0  0  0  0  0  0
  -29.0904  -15.2884   23.2472 H   0  0  0  0  0  0
  -30.1791  -13.9063   23.1191 H   0  0  0  0  0  0
  -30.4926  -22.7563   19.8870 H   0  0  0  0  0  0
  -32.0702  -16.6219   21.3602 H   0  0  0  0  0  0
  -27.2616  -24.9158   20.7230 H   0  0  0  0  0  0
  -33.2080  -19.1971   19.1877 H   0  0  0  0  0  0
  -32.6962  -17.5276   19.3614 H   0  0  0  0  0  0
  -33.4182  -18.3876   20.7351 H   0  0  0  0  0  0
  -26.5176  -17.4127   22.9147 H   0  0  0  0  0  0
  -26.4876  -18.5272   21.5546 H   0  0  0  0  0  0
  -27.1338  -19.0455   23.1317 H   0  0  0  0  0  0
  1 25  1  0  0  0
  1 30  2  0  0  0
  1 89  1  0  0  0
  2  3  1  0  0  0
  2 25  1  0  0  0
  2 91  1  0  0  0
  2 92  1  0  0  0
  3  4  1  0  0  0
  3 93  1  0  0  0
  3 94  1  0  0  0
  4  5  1  0  0  0
  4 95  1  0  0  0
  4 96  1  0  0  0
  5  6  1  0  0  0
  5 26  1  0  0  0
  5 97  1  0  0  0
  6 25  1  0  0  0
  6 98  1  0  0  0
  6 99  1  0  0  0
  7  8  2  0  0  0
  7 26  1  0  0  0
  7 29  1  0  0  0
  8  9  1  0  0  0
  8 22  1  0  0  0
  9 10  1  0  0  0
  9 27  2  0  0  0
 10 11  2  0  0  0
 10 15  1  0  0  0
 11 12  1  0  0  0
 11100  1  0  0  0
 12 13  2  0  0  0
 12101  1  0  0  0
 13 14  1  0  0  0
 13 31  1  0  0  0
 14 15  2  0  0  0
 14102  1  0  0  0
 15103  1  0  0  0
 16 17  2  0  0  0
 16 21  1  0  0  0
 16 31  1  0  0  0
 17 18  1  0  0  0
 17104  1  0  0  0
 18 19  2  0  0  0
 18105  1  0  0  0
 19 20  1  0  0  0
 19 24  1  0  0  0
 20 21  2  0  0  0
 20106  1  0  0  0
 21 23  1  0  0  0
 22 28  1  0  0  0
 22 32  2  0  0  0
 26 27  1  0  0  0
 28107  1  0  0  0
 28108  1  0  0  0
 29109  1  0  0  0
 29110  1  0  0  0
 33 34  1  0  0  0
 33 66  1  0  0  0
 33 70  2  0  0  0
 34 36  1  0  0  0
 34 59  1  0  0  0
 34111  1  0  0  0
 35 44  2  0  0  0
 35 45  1  0  0  0
 35 68  1  0  0  0
 36 56  1  0  0  0
 36112  1  0  0  0
 37 39  1  0  0  0
 37 47  1  0  0  0
 37 66  1  0  0  0
 37113  1  0  0  0
 38 43  2  0  0  0
 38 46  1  0  0  0
 38 47  1  0  0  0
 39 64  1  0  0  0
 39 67  2  0  0  0
 40 52  1  0  0  0
 40 53  2  0  0  0
 40 58  1  0  0  0
 41114  1  0  0  0
 41115  1  0  0  0
 41116  1  0  0  0
 41 48  1  0  0  0
 42 43  1  0  0  0
 42 66  1  0  0  0
 42117  1  0  0  0
 42118  1  0  0  0
 43 44  1  0  0  0
 44119  1  0  0  0
 45 46  2  0  0  0
 45120  1  0  0  0
 46121  1  0  0  0
 47122  1  0  0  0
 47123  1  0  0  0
 48 56  1  0  0  0
 48 65  1  0  0  0
 48124  1  0  0  0
 49 50  1  0  0  0
 49 53  1  0  0  0
 49 64  1  0  0  0
 49125  1  0  0  0
 50 51  1  0  0  0
 50126  1  0  0  0
 50127  1  0  0  0
 51 52  1  0  0  0
 51128  1  0  0  0
 51129  1  0  0  0
 52130  1  0  0  0
 52131  1  0  0  0
 53 54  1  0  0  0
 54 55  2  0  0  0
 54132  1  0  0  0
 55 57  1  0  0  0
 55133  1  0  0  0
 56 69  2  0  0  0
 57 58  2  0  0  0
 57134  1  0  0  0
 58135  1  0  0  0
 59 60  1  0  0  0
 59 61  1  0  0  0
 59 62  1  0  0  0
 60136  1  0  0  0
 60137  1  0  0  0
 60138  1  0  0  0
 61139  1  0  0  0
 61140  1  0  0  0
 61141  1  0  0  0
 62142  1  0  0  0
 62143  1  0  0  0
 62144  1  0  0  0
 63 65  1  0  0  0
 63145  1  0  0  0
 63146  1  0  0  0
 63147  1  0  0  0
 64148  1  0  0  0
 65149  1  0  0  0
 68 86  1  0  0  0
 71 73  2  0  0  0
 71 75  1  0  0  0
 71150  1  0  0  0
 72 73  1  0  0  0
 72 76  2  0  0  0
 72151  1  0  0  0
 73 84  1  0  0  0
 74 75  2  0  0  0
 74 76  1  0  0  0
 74 85  1  0  0  0
 75 87  1  0  0  0
 76 90  1  0  0  0
 77 80  1  0  0  0
 77 83  1  0  0  0
 77152  1  0  0  0
 77153  1  0  0  0
 78 81  1  0  0  0
 78 84  1  0  0  0
 78154  1  0  0  0
 78155  1  0  0  0
 79 82  1  0  0  0
 79 84  1  0  0  0
 79156  1  0  0  0
 79157  1  0  0  0
 80 85  1  0  0  0
 80158  1  0  0  0
 80159  1  0  0  0
 81 86  1  0  0  0
 81160  1  0  0  0
 81161  1  0  0  0
 82 86  1  0  0  0
 82162  1  0  0  0
 82163  1  0  0  0
 83 89  1  0  0  0
 83164  1  0  0  0
 83165  1  0  0  0
 84166  1  0  0  0
 85 89  1  0  0  0
 85167  1  0  0  0
 86168  1  0  0  0
 87169  1  0  0  0
 87170  1  0  0  0
 87171  1  0  0  0
 88 90  1  0  0  0
 88172  1  0  0  0
 88173  1  0  0  0
 88174  1  0  0  0
M  ISO  4   1 100  68 101  86 101  89 100
M  END
> <chiral flag>
0

> <version>
0

> <s_m_source_file>
/data/baiqing/PycharmProjects/Reinvent-master-3.2/result/LINK_invent/BTK/process_docking_weight1_custom_sum_contain_oxygen_bond_distance_aromatic_linkinvent_7_9_3/rearranged_h_0157.sdf

> <i_m_source_file_index>
43

> <r_mmod_Potential_Energy-OPLS-2005>
269.083801269531

> <r_mmod_Stretch_Energy-OPLS-2005>
67.6164932250977

> <r_mmod_Bend_Energy-OPLS-2005>
165.344024658203

> <r_mmod_Torsional_Energy-OPLS-2005>
338.500396728516

> <r_mmod_Improper_Torsional_Energy-OPLS-2005>
7.61864233016968

> <r_mmod_Van_der_Waal_Energy-OPLS-2005>
159.439819335938

> <r_mmod_Electrostatic_Energy-OPLS-2005>
-307.839111328125

> <r_mmod_Solvation_Energy-OPLS-2005>
-182.822235107422

> <b_mmod_Minimization_Converged-OPLS-2005>
0

> <r_mmod_RMS_Derivative-OPLS-2005>
0.703966319561005

$$$$
43
                    3D
 Structure written by MMmdl.
161170  0  0  1  0            999 V2000
  -30.6453  -14.6185   20.4785 C   0  0  0  0  0  0
  -30.4247  -12.3769   19.4412 C   0  0  0  0  0  0
  -29.4959  -12.4974   18.2145 C   0  0  0  0  0  0
  -28.0186  -12.3462   18.6297 C   0  0  0  0  0  0
  -27.6451  -13.2146   19.8600 C   0  0  2  0  0  0
  -28.6956  -13.0911   20.9843 C   0  0  0  0  0  0
  -25.2546  -13.8162   20.5726 C   0  0  0  0  0  0
  -24.1810  -13.0418   20.9199 C   0  0  0  0  0  0
  -24.6383  -11.6896   20.8766 C   0  0  0  0  0  0
  -23.9053  -10.4286   21.0429 C   0  0  0  0  0  0
  -24.3610   -9.4196   21.9195 C   0  0  0  0  0  0
  -23.6285   -8.2236   22.0755 C   0  0  0  0  0  0
  -22.4269   -8.0285   21.3545 C   0  0  0  0  0  0
  -21.9918   -9.0253   20.4639 C   0  0  0  0  0  0
  -22.7243  -10.2131   20.3060 C   0  0  0  0  0  0
  -21.6846   -6.0745   22.5283 C   0  0  0  0  0  0
  -21.4014   -6.5647   23.8219 C   0  0  0  0  0  0
  -21.3662   -5.6797   24.9178 C   0  0  0  0  0  0
  -21.6045   -4.3061   24.7228 C   0  0  0  0  0  0
  -21.8825   -3.8154   23.4354 C   0  0  0  0  0  0
  -21.9194   -4.6974   22.3409 C   0  0  0  0  0  0
  -22.7841  -13.5222   21.1846 C   0  0  0  0  0  0
  -22.1662   -4.2157   21.0989 F   0  0  0  0  0  0
  -21.5611   -3.4550   25.7743 F   0  0  0  0  0  0
  -30.0049  -13.4119   20.4027 N   0  0  0  0  0  0
  -26.2952  -12.9326   20.3348 N   0  0  0  0  0  0
  -25.9304  -11.6484   20.5784 N   0  0  0  0  0  0
  -22.0488  -12.8212   22.0404 N   0  0  0  0  0  0
  -25.4274  -15.1875   20.4147 N   0  0  0  0  0  0
  -31.8319  -14.7388   20.1600 O   0  0  0  0  0  0
  -21.6627   -6.8889   21.4248 O   0  0  0  0  0  0
  -22.3537  -14.5531   20.6696 O   0  0  0  0  0  0
  -24.6247  -31.8585   23.2025 C   0  0  0  0  0  0
  -25.9101  -32.4773   23.8355 C   0  0  1  0  0  0
  -27.2380  -27.3410   20.1003 C   0  0  0  0  0  0
  -25.5929  -33.8574   24.2289 N   0  0  0  0  0  0
  -23.4177  -30.4806   21.5444 C   0  0  2  0  0  0
  -24.8656  -28.9330   20.1112 C   0  0  0  0  0  0
  -22.7466  -29.4614   22.4947 C   0  0  0  0  0  0
  -18.0280  -28.1379   22.8492 C   0  0  0  0  0  0
  -24.1487  -36.7291   23.2640 C   0  0  0  0  0  0
  -25.9561  -30.7944   21.3698 C   0  0  0  0  0  0
  -26.0310  -29.4223   20.7131 C   0  0  0  0  0  0
  -27.2151  -28.6329   20.7059 C   0  0  0  0  0  0
  -26.0415  -26.8854   19.4999 C   0  0  0  0  0  0
  -24.8705  -27.6679   19.5010 C   0  0  0  0  0  0
  -23.6314  -29.8092   20.1617 C   0  0  0  0  0  0
  -25.4114  -36.3081   24.0333 C   0  0  1  0  0  0
  -20.5874  -28.3680   23.1293 C   0  0  2  0  0  0
  -20.6759  -26.9405   22.5419 C   0  0  0  0  0  0
  -19.5741  -26.6376   21.5215 C   0  0  0  0  0  0
  -18.1916  -26.7929   22.1620 C   0  0  0  0  0  0
  -19.1530  -28.8847   23.2884 C   0  0  0  0  0  0
  -18.9457  -30.1454   23.8894 C   0  0  0  0  0  0
  -17.6457  -30.6586   24.0557 C   0  0  0  0  0  0
  -25.9053  -34.9450   23.5110 C   0  0  0  0  0  0
  -16.5346  -29.9079   23.6332 C   0  0  0  0  0  0
  -16.7266  -28.6497   23.0359 C   0  0  0  0  0  0
  -26.4491  -31.6583   25.0719 C   0  0  0  0  0  0
  -25.3736  -31.3711   26.1455 C   0  0  0  0  0  0
  -27.0334  -30.3009   24.6166 C   0  0  0  0  0  0
  -27.6053  -32.4312   25.7492 C   0  0  0  0  0  0
  -27.5587  -37.1795   24.8462 C   0  0  0  0  0  0
  -21.4180  -29.3036   22.3694 N   0  0  0  0  0  0
  -26.4294  -37.3781   23.9415 N   0  0  0  0  0  0
  -24.6847  -31.0606   22.0964 N   0  0  0  0  0  0
  -23.4193  -28.8158   23.3027 O   0  0  0  0  0  0
  -28.3845  -26.5400   20.1668 O   0  0  0  0  0  0
  -26.5610  -34.8919   22.4670 O   0  0  0  0  0  0
  -23.5407  -32.1376   23.7348 O   0  0  0  0  0  0
  -29.9162  -23.1900   19.3470 C   0  0  0  0  0  0
  -30.0458  -21.8009   19.6336 C   0  0  0  0  0  0
  -27.8277  -23.2659   20.5263 C   0  0  0  0  0  0
  -28.8012  -23.9600   19.7693 C   0  0  0  0  0  0
  -27.9549  -21.8726   20.8225 C   0  0  0  0  0  0
  -29.0604  -21.0908   20.3720 C   0  0  0  0  0  0
  -30.7014  -17.9755   21.5570 C   0  0  0  0  0  0
  -29.9090  -17.8156   19.1821 C   0  0  0  0  0  0
  -29.9713  -16.6256   21.8476 C   0  0  0  0  0  0
  -29.2121  -16.4715   19.5690 C   0  0  0  0  0  0
  -30.1881  -18.8079   20.3450 C   0  0  0  0  0  0
  -26.8597  -21.2002   21.6286 C   0  0  0  0  0  0
  -28.6101  -25.4255   19.2408 C   0  0  0  0  0  0
  -29.8627  -15.7333   20.6771 N   0  0  0  0  0  0
  -29.0808  -19.7079   20.6711 O   0  0  0  0  0  0
  -31.4666  -12.4878   19.1368 H   0  0  0  0  0  0
  -30.3459  -11.3864   19.8916 H   0  0  0  0  0  0
  -29.7524  -11.7430   17.4689 H   0  0  0  0  0  0
  -29.6447  -13.4645   17.7317 H   0  0  0  0  0  0
  -27.8423  -11.2942   18.8529 H   0  0  0  0  0  0
  -27.3680  -12.5906   17.7894 H   0  0  0  0  0  0
  -27.6473  -14.2442   19.5119 H   0  0  0  0  0  0
  -28.7058  -12.0827   21.4001 H   0  0  0  0  0  0
  -28.4545  -13.7606   21.8112 H   0  0  0  0  0  0
  -25.2767   -9.5657   22.4754 H   0  0  0  0  0  0
  -23.9993   -7.4633   22.7476 H   0  0  0  0  0  0
  -21.0854   -8.8783   19.8943 H   0  0  0  0  0  0
  -22.3723  -10.9671   19.6164 H   0  0  0  0  0  0
  -21.2016   -7.6158   23.9726 H   0  0  0  0  0  0
  -21.1466   -6.0526   25.9076 H   0  0  0  0  0  0
  -22.0600   -2.7615   23.2852 H   0  0  0  0  0  0
  -22.4123  -11.9873   22.4775 H   0  0  0  0  0  0
  -21.1098  -13.1221   22.2606 H   0  0  0  0  0  0
  -24.6651  -15.8474   20.5220 H   0  0  0  0  0  0
  -26.2898  -15.6240   20.1154 H   0  0  0  0  0  0
  -26.7166  -32.5457   23.1107 H   0  0  0  0  0  0
  -25.0086  -33.9724   25.0438 H   0  0  0  0  0  0
  -22.7109  -31.2999   21.3984 H   0  0  0  0  0  0
  -23.3755  -35.9620   23.3288 H   0  0  0  0  0  0
  -24.3573  -36.8927   22.2056 H   0  0  0  0  0  0
  -23.7229  -37.6487   23.6666 H   0  0  0  0  0  0
  -26.0832  -31.5572   20.5998 H   0  0  0  0  0  0
  -26.8389  -30.8449   21.9966 H   0  0  0  0  0  0
  -28.1117  -29.0034   21.1836 H   0  0  0  0  0  0
  -25.9717  -25.9009   19.0617 H   0  0  0  0  0  0
  -23.9706  -27.2781   19.0462 H   0  0  0  0  0  0
  -23.7447  -30.5802   19.3992 H   0  0  0  0  0  0
  -22.7536  -29.2324   19.8644 H   0  0  0  0  0  0
  -25.1284  -36.1939   25.0821 H   0  0  0  0  0  0
  -20.9969  -28.3254   24.1412 H   0  0  0  0  0  0
  -20.5650  -26.2293   23.3614 H   0  0  0  0  0  0
  -21.6633  -26.7416   22.1232 H   0  0  0  0  0  0
  -19.6900  -25.6285   21.1237 H   0  0  0  0  0  0
  -19.6680  -27.3185   20.6740 H   0  0  0  0  0  0
  -17.4194  -26.6698   21.4010 H   0  0  0  0  0  0
  -18.0297  -26.0061   22.9004 H   0  0  0  0  0  0
  -19.7928  -30.7269   24.2274 H   0  0  0  0  0  0
  -17.5004  -31.6263   24.5161 H   0  0  0  0  0  0
  -15.5346  -30.2979   23.7648 H   0  0  0  0  0  0
  -15.8671  -28.0807   22.7076 H   0  0  0  0  0  0
  -24.5920  -30.7045   25.7796 H   0  0  0  0  0  0
  -24.8919  -32.2871   26.4880 H   0  0  0  0  0  0
  -25.8081  -30.8900   27.0229 H   0  0  0  0  0  0
  -26.2903  -29.6749   24.1209 H   0  0  0  0  0  0
  -27.4055  -29.7267   25.4665 H   0  0  0  0  0  0
  -27.8760  -30.4293   23.9367 H   0  0  0  0  0  0
  -27.2673  -33.3619   26.2058 H   0  0  0  0  0  0
  -28.3876  -32.6853   25.0330 H   0  0  0  0  0  0
  -28.0705  -31.8439   26.5422 H   0  0  0  0  0  0
  -28.2583  -38.0111   24.7535 H   0  0  0  0  0  0
  -28.1097  -36.2641   24.6248 H   0  0  0  0  0  0
  -27.2303  -37.1403   25.8862 H   0  0  0  0  0  0
  -20.9355  -29.8775   21.6915 H   0  0  0  0  0  0
  -26.0167  -38.2854   24.1432 H   0  0  0  0  0  0
  -30.6826  -23.6600   18.7465 H   0  0  0  0  0  0
  -30.9170  -21.3038   19.2361 H   0  0  0  0  0  0
  -26.9495  -23.8055   20.8518 H   0  0  0  0  0  0
  -31.7479  -17.7316   21.3665 H   0  0  0  0  0  0
  -30.7092  -18.5989   22.4517 H   0  0  0  0  0  0
  -29.3469  -18.3168   18.3930 H   0  0  0  0  0  0
  -30.8682  -17.5549   18.7311 H   0  0  0  0  0  0
  -28.9633  -16.8380   22.2071 H   0  0  0  0  0  0
  -30.4743  -16.1038   22.6635 H   0  0  0  0  0  0
  -29.1550  -15.8385   18.6811 H   0  0  0  0  0  0
  -28.1799  -16.6758   19.8554 H   0  0  0  0  0  0
  -31.0402  -19.4107   20.0440 H   0  0  0  0  0  0
  -26.0373  -21.8830   21.8439 H   0  0  0  0  0  0
  -27.2566  -20.8378   22.5770 H   0  0  0  0  0  0
  -26.4547  -20.3475   21.0841 H   0  0  0  0  0  0
  -27.8983  -25.4006   18.4179 H   0  0  0  0  0  0
  -29.5450  -25.6867   18.7440 H   0  0  0  0  0  0
  1 25  1  0  0  0
  1 30  2  0  0  0
  1 84  1  0  0  0
  2  3  1  0  0  0
  2 25  1  0  0  0
  2 86  1  0  0  0
  2 87  1  0  0  0
  3  4  1  0  0  0
  3 88  1  0  0  0
  3 89  1  0  0  0
  4  5  1  0  0  0
  4 90  1  0  0  0
  4 91  1  0  0  0
  5  6  1  0  0  0
  5 26  1  0  0  0
  5 92  1  0  0  0
  6 25  1  0  0  0
  6 93  1  0  0  0
  6 94  1  0  0  0
  7  8  2  0  0  0
  7 26  1  0  0  0
  7 29  1  0  0  0
  8  9  1  0  0  0
  8 22  1  0  0  0
  9 10  1  0  0  0
  9 27  2  0  0  0
 10 11  2  0  0  0
 10 15  1  0  0  0
 11 12  1  0  0  0
 11 95  1  0  0  0
 12 13  2  0  0  0
 12 96  1  0  0  0
 13 14  1  0  0  0
 13 31  1  0  0  0
 14 15  2  0  0  0
 14 97  1  0  0  0
 15 98  1  0  0  0
 16 17  2  0  0  0
 16 21  1  0  0  0
 16 31  1  0  0  0
 17 18  1  0  0  0
 17 99  1  0  0  0
 18 19  2  0  0  0
 18100  1  0  0  0
 19 20  1  0  0  0
 19 24  1  0  0  0
 20 21  2  0  0  0
 20101  1  0  0  0
 21 23  1  0  0  0
 22 28  1  0  0  0
 22 32  2  0  0  0
 26 27  1  0  0  0
 28102  1  0  0  0
 28103  1  0  0  0
 29104  1  0  0  0
 29105  1  0  0  0
 33 34  1  0  0  0
 33 66  1  0  0  0
 33 70  2  0  0  0
 34 36  1  0  0  0
 34 59  1  0  0  0
 34106  1  0  0  0
 35 44  2  0  0  0
 35 45  1  0  0  0
 35 68  1  0  0  0
 36 56  1  0  0  0
 36107  1  0  0  0
 37 39  1  0  0  0
 37 47  1  0  0  0
 37 66  1  0  0  0
 37108  1  0  0  0
 38 43  2  0  0  0
 38 46  1  0  0  0
 38 47  1  0  0  0
 39 64  1  0  0  0
 39 67  2  0  0  0
 40 52  1  0  0  0
 40 53  2  0  0  0
 40 58  1  0  0  0
 41109  1  0  0  0
 41110  1  0  0  0
 41111  1  0  0  0
 41 48  1  0  0  0
 42 43  1  0  0  0
 42 66  1  0  0  0
 42112  1  0  0  0
 42113  1  0  0  0
 43 44  1  0  0  0
 44114  1  0  0  0
 45 46  2  0  0  0
 45115  1  0  0  0
 46116  1  0  0  0
 47117  1  0  0  0
 47118  1  0  0  0
 48 56  1  0  0  0
 48 65  1  0  0  0
 48119  1  0  0  0
 49 50  1  0  0  0
 49 53  1  0  0  0
 49 64  1  0  0  0
 49120  1  0  0  0
 50 51  1  0  0  0
 50121  1  0  0  0
 50122  1  0  0  0
 51 52  1  0  0  0
 51123  1  0  0  0
 51124  1  0  0  0
 52125  1  0  0  0
 52126  1  0  0  0
 53 54  1  0  0  0
 54 55  2  0  0  0
 54127  1  0  0  0
 55 57  1  0  0  0
 55128  1  0  0  0
 56 69  2  0  0  0
 57 58  2  0  0  0
 57129  1  0  0  0
 58130  1  0  0  0
 59 60  1  0  0  0
 59 61  1  0  0  0
 59 62  1  0  0  0
 60131  1  0  0  0
 60132  1  0  0  0
 60133  1  0  0  0
 61134  1  0  0  0
 61135  1  0  0  0
 61136  1  0  0  0
 62137  1  0  0  0
 62138  1  0  0  0
 62139  1  0  0  0
 63 65  1  0  0  0
 63140  1  0  0  0
 63141  1  0  0  0
 63142  1  0  0  0
 64143  1  0  0  0
 65144  1  0  0  0
 68 83  1  0  0  0
 71 72  2  0  0  0
 71 74  1  0  0  0
 71145  1  0  0  0
 72 76  1  0  0  0
 72146  1  0  0  0
 73 74  2  0  0  0
 73 75  1  0  0  0
 73147  1  0  0  0
 74 83  1  0  0  0
 75 76  2  0  0  0
 75 82  1  0  0  0
 76 85  1  0  0  0
 77 79  1  0  0  0
 77 81  1  0  0  0
 77148  1  0  0  0
 77149  1  0  0  0
 78 80  1  0  0  0
 78 81  1  0  0  0
 78150  1  0  0  0
 78151  1  0  0  0
 79 84  1  0  0  0
 79152  1  0  0  0
 79153  1  0  0  0
 80 84  1  0  0  0
 80154  1  0  0  0
 80155  1  0  0  0
 81 85  1  0  0  0
 81156  1  0  0  0
 82157  1  0  0  0
 82158  1  0  0  0
 82159  1  0  0  0
 83160  1  0  0  0
 83161  1  0  0  0
M  ISO  4   1 100  68 101  83 101  84 100
M  END
> <chiral flag>
0

> <version>
0

> <s_m_source_file>
/data/baiqing/PycharmProjects/Reinvent-master-3.2/result/LINK_invent/BTK/process_docking_weight1_custom_sum_contain_oxygen_bond_distance_aromatic_linkinvent_7_9_3/rearranged_h_0157.sdf

> <i_m_source_file_index>
44

> <r_mmod_Potential_Energy-OPLS-2005>
288.428070068359

> <r_mmod_Stretch_Energy-OPLS-2005>
69.4054565429688

> <r_mmod_Bend_Energy-OPLS-2005>
155.73974609375

> <r_mmod_Torsional_Energy-OPLS-2005>
351.812530517578

> <r_mmod_Improper_Torsional_Energy-OPLS-2005>
7.80050182342529

> <r_mmod_Van_der_Waal_Energy-OPLS-2005>
142.098846435547

> <r_mmod_Electrostatic_Energy-OPLS-2005>
-286.606048583984

> <r_mmod_Solvation_Energy-OPLS-2005>
-194.088272094727

> <b_mmod_Minimization_Converged-OPLS-2005>
0

> <r_mmod_RMS_Derivative-OPLS-2005>
1.8013356924057

$$$$
44
                    3D
 Structure written by MMmdl.
169178  0  0  1  0            999 V2000
  -30.7127  -14.6741   20.3942 C   0  0  0  0  0  0
  -30.4166  -12.3797   19.4741 C   0  0  0  0  0  0
  -29.5207  -12.4321   18.2201 C   0  0  0  0  0  0
  -28.0338  -12.3277   18.6225 C   0  0  0  0  0  0
  -27.6428  -13.2159   19.8395 C   0  0  2  0  0  0
  -28.7027  -13.2003   20.9648 C   0  0  0  0  0  0
  -25.2604  -13.8134   20.5733 C   0  0  0  0  0  0
  -24.1856  -13.0399   20.9221 C   0  0  0  0  0  0
  -24.6423  -11.6878   20.8746 C   0  0  0  0  0  0
  -23.9077  -10.4264   21.0393 C   0  0  0  0  0  0
  -24.3616   -9.4187   21.9173 C   0  0  0  0  0  0
  -23.6288   -8.2226   22.0746 C   0  0  0  0  0  0
  -22.4279   -8.0264   21.3527 C   0  0  0  0  0  0
  -21.9916   -9.0234   20.4624 C   0  0  0  0  0  0
  -22.7258  -10.2104   20.3031 C   0  0  0  0  0  0
  -21.6856   -6.0719   22.5267 C   0  0  0  0  0  0
  -21.4019   -6.5635   23.8204 C   0  0  0  0  0  0
  -21.3678   -5.6780   24.9173 C   0  0  0  0  0  0
  -21.6053   -4.3037   24.7228 C   0  0  0  0  0  0
  -21.8823   -3.8137   23.4342 C   0  0  0  0  0  0
  -21.9201   -4.6945   22.3393 C   0  0  0  0  0  0
  -22.7898  -13.5219   21.1893 C   0  0  0  0  0  0
  -22.1676   -4.2141   21.0973 F   0  0  0  0  0  0
  -21.5631   -3.4522   25.7735 F   0  0  0  0  0  0
  -30.0052  -13.4935   20.3546 N   0  0  0  0  0  0
  -26.2995  -12.9283   20.3297 N   0  0  0  0  0  0
  -25.9355  -11.6446   20.5763 N   0  0  0  0  0  0
  -22.0552  -12.8177   22.0427 N   0  0  0  0  0  0
  -25.4301  -15.1848   20.4213 N   0  0  0  0  0  0
  -31.9369  -14.6562   20.2603 O   0  0  0  0  0  0
  -21.6637   -6.8867   21.4230 O   0  0  0  0  0  0
  -22.3612  -14.5543   20.6788 O   0  0  0  0  0  0
  -24.6200  -31.8620   23.2071 C   0  0  0  0  0  0
  -25.9061  -32.4785   23.8379 C   0  0  1  0  0  0
  -27.2163  -27.3454   20.1116 C   0  0  0  0  0  0
  -25.5904  -33.8586   24.2304 N   0  0  0  0  0  0
  -23.4121  -30.4883   21.5455 C   0  0  2  0  0  0
  -24.8659  -28.9585   20.1011 C   0  0  0  0  0  0
  -22.7445  -29.4629   22.4924 C   0  0  0  0  0  0
  -18.0271  -28.1383   22.8496 C   0  0  0  0  0  0
  -24.1471  -36.7278   23.2646 C   0  0  0  0  0  0
  -25.9537  -30.7981   21.3810 C   0  0  0  0  0  0
  -26.0309  -29.4288   20.7218 C   0  0  0  0  0  0
  -27.2108  -28.6283   20.7317 C   0  0  0  0  0  0
  -26.0463  -26.9467   19.4262 C   0  0  0  0  0  0
  -24.8734  -27.7207   19.4433 C   0  0  0  0  0  0
  -23.6277  -29.8295   20.1586 C   0  0  0  0  0  0
  -25.4095  -36.3078   24.0336 C   0  0  1  0  0  0
  -20.5857  -28.3681   23.1279 C   0  0  2  0  0  0
  -20.6760  -26.9414   22.5395 C   0  0  0  0  0  0
  -19.5749  -26.6384   21.5192 C   0  0  0  0  0  0
  -18.1918  -26.7927   22.1605 C   0  0  0  0  0  0
  -19.1525  -28.8849   23.2877 C   0  0  0  0  0  0
  -18.9467  -30.1434   23.8926 C   0  0  0  0  0  0
  -17.6481  -30.6607   24.0559 C   0  0  0  0  0  0
  -25.9039  -34.9449   23.5123 C   0  0  0  0  0  0
  -16.5366  -29.9114   23.6330 C   0  0  0  0  0  0
  -16.7259  -28.6509   23.0385 C   0  0  0  0  0  0
  -26.4476  -31.6604   25.0737 C   0  0  0  0  0  0
  -25.3734  -31.3703   26.1480 C   0  0  0  0  0  0
  -27.0374  -30.3070   24.6154 C   0  0  0  0  0  0
  -27.6027  -32.4361   25.7511 C   0  0  0  0  0  0
  -27.5562  -37.1774   24.8470 C   0  0  0  0  0  0
  -21.4159  -29.3053   22.3693 N   0  0  0  0  0  0
  -26.4265  -37.3776   23.9430 N   0  0  0  0  0  0
  -24.6791  -31.0659   22.0999 N   0  0  0  0  0  0
  -23.4195  -28.8139   23.2953 O   0  0  0  0  0  0
  -28.2781  -26.4378   20.2028 O   0  0  0  0  0  0
  -26.5618  -34.8926   22.4689 O   0  0  0  0  0  0
  -23.5368  -32.1439   23.7406 O   0  0  0  0  0  0
  -29.1954  -21.5571   20.0147 C   0  0  0  0  0  0
  -28.6101  -22.8404   19.8311 C   0  0  0  0  0  0
  -29.9203  -21.2142   21.1770 C   0  0  0  0  0  0
  -30.0894  -22.2463   22.1529 C   0  0  0  0  0  0
  -29.5714  -23.5714   21.9370 C   0  0  0  0  0  0
  -28.7586  -23.8708   20.8059 C   0  0  0  0  0  0
  -29.9157  -17.2608   18.2392 C   0  0  0  0  0  0
  -31.1683  -17.5916   19.0252 C   0  0  0  0  0  0
  -29.2922  -16.0983   19.0232 C   0  0  0  0  0  0
  -30.7477  -17.2354   20.4607 C   0  0  1  0  0  0
  -27.8130  -23.0750   18.5582 C   0  0  0  0  0  0
  -30.8291  -21.9188   23.4482 C   0  0  0  0  0  0
  -29.8954  -24.6941   22.9214 C   0  0  0  0  0  0
  -30.6620  -19.8303   21.2524 C   0  0  0  0  0  0
  -27.8500  -25.1499   20.7811 C   0  0  0  0  0  0
  -29.8953  -18.4467   21.0749 C   0  0  0  0  0  0
  -30.0478  -15.8962   20.2818 N   0  0  0  0  0  0
  -31.4724  -12.4257   19.2028 H   0  0  0  0  0  0
  -30.2807  -11.4253   19.9855 H   0  0  0  0  0  0
  -29.7820  -11.6192   17.5413 H   0  0  0  0  0  0
  -29.7127  -13.3332   17.6444 H   0  0  0  0  0  0
  -27.8387  -11.2808   18.8528 H   0  0  0  0  0  0
  -27.4038  -12.5713   17.7658 H   0  0  0  0  0  0
  -27.5946  -14.2230   19.4469 H   0  0  0  0  0  0
  -28.7259  -12.2362   21.4757 H   0  0  0  0  0  0
  -28.4696  -13.9499   21.7218 H   0  0  0  0  0  0
  -25.2746   -9.5668   22.4756 H   0  0  0  0  0  0
  -24.0001   -7.4621   22.7474 H   0  0  0  0  0  0
  -21.0860   -8.8770   19.8911 H   0  0  0  0  0  0
  -22.3746  -10.9649   19.6134 H   0  0  0  0  0  0
  -21.2012   -7.6135   23.9715 H   0  0  0  0  0  0
  -21.1509   -6.0503   25.9081 H   0  0  0  0  0  0
  -22.0586   -2.7592   23.2844 H   0  0  0  0  0  0
  -22.4220  -11.9838   22.4766 H   0  0  0  0  0  0
  -21.1173  -13.1191   22.2673 H   0  0  0  0  0  0
  -24.6641  -15.8378   20.5496 H   0  0  0  0  0  0
  -26.2900  -15.6303   20.1249 H   0  0  0  0  0  0
  -26.7121  -32.5474   23.1130 H   0  0  0  0  0  0
  -25.0056  -33.9741   25.0448 H   0  0  0  0  0  0
  -22.7007  -31.3050   21.4035 H   0  0  0  0  0  0
  -23.3747  -35.9594   23.3309 H   0  0  0  0  0  0
  -24.3559  -36.8910   22.2057 H   0  0  0  0  0  0
  -23.7201  -37.6458   23.6690 H   0  0  0  0  0  0
  -26.0804  -31.5599   20.6110 H   0  0  0  0  0  0
  -26.8356  -30.8500   22.0075 H   0  0  0  0  0  0
  -28.0913  -28.9650   21.2600 H   0  0  0  0  0  0
  -26.0178  -26.0105   18.8866 H   0  0  0  0  0  0
  -23.9875  -27.3641   18.9350 H   0  0  0  0  0  0
  -23.7306  -30.6078   19.4014 H   0  0  0  0  0  0
  -22.7526  -29.2466   19.8644 H   0  0  0  0  0  0
  -25.1259  -36.1935   25.0825 H   0  0  0  0  0  0
  -20.9936  -28.3282   24.1405 H   0  0  0  0  0  0
  -20.5640  -26.2310   23.3589 H   0  0  0  0  0  0
  -21.6634  -26.7447   22.1203 H   0  0  0  0  0  0
  -19.6913  -25.6289   21.1232 H   0  0  0  0  0  0
  -19.6689  -27.3185   20.6705 H   0  0  0  0  0  0
  -17.4172  -26.6667   21.4017 H   0  0  0  0  0  0
  -18.0333  -26.0044   22.8988 H   0  0  0  0  0  0
  -19.7955  -30.7194   24.2360 H   0  0  0  0  0  0
  -17.5068  -31.6298   24.5138 H   0  0  0  0  0  0
  -15.5382  -30.3047   23.7650 H   0  0  0  0  0  0
  -15.8637  -28.0831   22.7147 H   0  0  0  0  0  0
  -24.5913  -30.7045   25.7828 H   0  0  0  0  0  0
  -24.8893  -32.2836   26.4944 H   0  0  0  0  0  0
  -25.8070  -30.8873   27.0246 H   0  0  0  0  0  0
  -26.2979  -29.6754   24.1215 H   0  0  0  0  0  0
  -27.4201  -29.7367   25.4622 H   0  0  0  0  0  0
  -27.8768  -30.4441   23.9331 H   0  0  0  0  0  0
  -27.2663  -33.3707   26.2030 H   0  0  0  0  0  0
  -28.3865  -32.6853   25.0343 H   0  0  0  0  0  0
  -28.0664  -31.8511   26.5467 H   0  0  0  0  0  0
  -28.2557  -38.0090   24.7545 H   0  0  0  0  0  0
  -28.1071  -36.2610   24.6266 H   0  0  0  0  0  0
  -27.2288  -37.1410   25.8876 H   0  0  0  0  0  0
  -20.9337  -29.8807   21.6931 H   0  0  0  0  0  0
  -26.0146  -38.2846   24.1462 H   0  0  0  0  0  0
  -29.0903  -20.8101   19.2407 H   0  0  0  0  0  0
  -30.1282  -17.0153   17.1974 H   0  0  0  0  0  0
  -29.2334  -18.1117   18.2292 H   0  0  0  0  0  0
  -31.4897  -18.6185   18.8665 H   0  0  0  0  0  0
  -31.9935  -16.9527   18.7034 H   0  0  0  0  0  0
  -29.3216  -15.2338   18.3681 H   0  0  0  0  0  0
  -28.2455  -16.3107   19.2382 H   0  0  0  0  0  0
  -31.6396  -17.1112   21.0793 H   0  0  0  0  0  0
  -28.1973  -22.4611   17.7409 H   0  0  0  0  0  0
  -27.8728  -24.1160   18.2427 H   0  0  0  0  0  0
  -26.7633  -22.8182   18.7054 H   0  0  0  0  0  0
  -30.3880  -21.0350   23.9132 H   0  0  0  0  0  0
  -30.7870  -22.7018   24.2031 H   0  0  0  0  0  0
  -31.8804  -21.7132   23.2472 H   0  0  0  0  0  0
  -30.9612  -24.7029   23.1513 H   0  0  0  0  0  0
  -29.3301  -24.5828   23.8466 H   0  0  0  0  0  0
  -29.6884  -25.6853   22.5148 H   0  0  0  0  0  0
  -31.2598  -19.7515   22.1572 H   0  0  0  0  0  0
  -31.4190  -19.9264   20.4792 H   0  0  0  0  0  0
  -27.5628  -25.3636   21.8117 H   0  0  0  0  0  0
  -26.9154  -24.7991   20.3521 H   0  0  0  0  0  0
  -29.5034  -18.1525   22.0499 H   0  0  0  0  0  0
  -29.0132  -18.6232   20.4598 H   0  0  0  0  0  0
  1 25  1  0  0  0
  1 30  2  0  0  0
  1 87  1  0  0  0
  2  3  1  0  0  0
  2 25  1  0  0  0
  2 88  1  0  0  0
  2 89  1  0  0  0
  3  4  1  0  0  0
  3 90  1  0  0  0
  3 91  1  0  0  0
  4  5  1  0  0  0
  4 92  1  0  0  0
  4 93  1  0  0  0
  5  6  1  0  0  0
  5 26  1  0  0  0
  5 94  1  0  0  0
  6 25  1  0  0  0
  6 95  1  0  0  0
  6 96  1  0  0  0
  7  8  2  0  0  0
  7 26  1  0  0  0
  7 29  1  0  0  0
  8  9  1  0  0  0
  8 22  1  0  0  0
  9 10  1  0  0  0
  9 27  2  0  0  0
 10 11  2  0  0  0
 10 15  1  0  0  0
 11 12  1  0  0  0
 11 97  1  0  0  0
 12 13  2  0  0  0
 12 98  1  0  0  0
 13 14  1  0  0  0
 13 31  1  0  0  0
 14 15  2  0  0  0
 14 99  1  0  0  0
 15100  1  0  0  0
 16 17  2  0  0  0
 16 21  1  0  0  0
 16 31  1  0  0  0
 17 18  1  0  0  0
 17101  1  0  0  0
 18 19  2  0  0  0
 18102  1  0  0  0
 19 20  1  0  0  0
 19 24  1  0  0  0
 20 21  2  0  0  0
 20103  1  0  0  0
 21 23  1  0  0  0
 22 28  1  0  0  0
 22 32  2  0  0  0
 26 27  1  0  0  0
 28104  1  0  0  0
 28105  1  0  0  0
 29106  1  0  0  0
 29107  1  0  0  0
 33 34  1  0  0  0
 33 66  1  0  0  0
 33 70  2  0  0  0
 34 36  1  0  0  0
 34 59  1  0  0  0
 34108  1  0  0  0
 35 44  2  0  0  0
 35 45  1  0  0  0
 35 68  1  0  0  0
 36 56  1  0  0  0
 36109  1  0  0  0
 37 39  1  0  0  0
 37 47  1  0  0  0
 37 66  1  0  0  0
 37110  1  0  0  0
 38 43  2  0  0  0
 38 46  1  0  0  0
 38 47  1  0  0  0
 39 64  1  0  0  0
 39 67  2  0  0  0
 40 52  1  0  0  0
 40 53  2  0  0  0
 40 58  1  0  0  0
 41111  1  0  0  0
 41112  1  0  0  0
 41113  1  0  0  0
 41 48  1  0  0  0
 42 43  1  0  0  0
 42 66  1  0  0  0
 42114  1  0  0  0
 42115  1  0  0  0
 43 44  1  0  0  0
 44116  1  0  0  0
 45 46  2  0  0  0
 45117  1  0  0  0
 46118  1  0  0  0
 47119  1  0  0  0
 47120  1  0  0  0
 48 56  1  0  0  0
 48 65  1  0  0  0
 48121  1  0  0  0
 49 50  1  0  0  0
 49 53  1  0  0  0
 49 64  1  0  0  0
 49122  1  0  0  0
 50 51  1  0  0  0
 50123  1  0  0  0
 50124  1  0  0  0
 51 52  1  0  0  0
 51125  1  0  0  0
 51126  1  0  0  0
 52127  1  0  0  0
 52128  1  0  0  0
 53 54  1  0  0  0
 54 55  2  0  0  0
 54129  1  0  0  0
 55 57  1  0  0  0
 55130  1  0  0  0
 56 69  2  0  0  0
 57 58  2  0  0  0
 57131  1  0  0  0
 58132  1  0  0  0
 59 60  1  0  0  0
 59 61  1  0  0  0
 59 62  1  0  0  0
 60133  1  0  0  0
 60134  1  0  0  0
 60135  1  0  0  0
 61136  1  0  0  0
 61137  1  0  0  0
 61138  1  0  0  0
 62139  1  0  0  0
 62140  1  0  0  0
 62141  1  0  0  0
 63 65  1  0  0  0
 63142  1  0  0  0
 63143  1  0  0  0
 63144  1  0  0  0
 64145  1  0  0  0
 65146  1  0  0  0
 68 85  1  0  0  0
 71 72  2  0  0  0
 71 73  1  0  0  0
 71147  1  0  0  0
 72 76  1  0  0  0
 72 81  1  0  0  0
 73 74  2  0  0  0
 73 84  1  0  0  0
 74 75  1  0  0  0
 74 82  1  0  0  0
 75 76  2  0  0  0
 75 83  1  0  0  0
 76 85  1  0  0  0
 77 78  1  0  0  0
 77 79  1  0  0  0
 77148  1  0  0  0
 77149  1  0  0  0
 78 80  1  0  0  0
 78150  1  0  0  0
 78151  1  0  0  0
 79 87  1  0  0  0
 79152  1  0  0  0
 79153  1  0  0  0
 80 86  1  0  0  0
 80 87  1  0  0  0
 80154  1  0  0  0
 81155  1  0  0  0
 81156  1  0  0  0
 81157  1  0  0  0
 82158  1  0  0  0
 82159  1  0  0  0
 82160  1  0  0  0
 83161  1  0  0  0
 83162  1  0  0  0
 83163  1  0  0  0
 84 86  1  0  0  0
 84164  1  0  0  0
 84165  1  0  0  0
 85166  1  0  0  0
 85167  1  0  0  0
 86168  1  0  0  0
 86169  1  0  0  0
M  ISO  4   1 100  68 101  85 101  87 100
M  END
> <chiral flag>
0

> <version>
0

> <s_m_source_file>
/data/baiqing/PycharmProjects/Reinvent-master-3.2/result/LINK_invent/BTK/process_docking_weight1_custom_sum_contain_oxygen_bond_distance_aromatic_linkinvent_7_9_3/rearranged_h_0157.sdf

> <i_m_source_file_index>
45

> <r_mmod_Potential_Energy-OPLS-2005>
453.494720458984

> <r_mmod_Stretch_Energy-OPLS-2005>
89.3798828125

> <r_mmod_Bend_Energy-OPLS-2005>
181.41438293457

> <r_mmod_Torsional_Energy-OPLS-2005>
393.932098388672

> <r_mmod_Improper_Torsional_Energy-OPLS-2005>
14.7509326934814

> <r_mmod_Van_der_Waal_Energy-OPLS-2005>
165.895050048828

> <r_mmod_Electrostatic_Energy-OPLS-2005>
-272.891876220703

> <r_mmod_Solvation_Energy-OPLS-2005>
-191.244445800781

> <b_mmod_Minimization_Converged-OPLS-2005>
0

> <r_mmod_RMS_Derivative-OPLS-2005>
4.19865894317627

$$$$
45
                    3D
 Structure written by MMmdl.
172181  0  0  1  0            999 V2000
  -30.6949  -14.7321   20.5282 C   0  0  0  0  0  0
  -30.4177  -12.4549   19.5034 C   0  0  0  0  0  0
  -29.5135  -12.5119   18.2545 C   0  0  0  0  0  0
  -28.0449  -12.3232   18.6653 C   0  0  0  0  0  0
  -27.6415  -13.2387   19.8501 C   0  0  2  0  0  0
  -28.6780  -13.1970   20.9964 C   0  0  0  0  0  0
  -25.2401  -13.8128   20.5553 C   0  0  0  0  0  0
  -24.1747  -13.0356   20.9190 C   0  0  0  0  0  0
  -24.6409  -11.6882   20.8761 C   0  0  0  0  0  0
  -23.9088  -10.4256   21.0408 C   0  0  0  0  0  0
  -24.3626   -9.4165   21.9173 C   0  0  0  0  0  0
  -23.6290   -8.2211   22.0750 C   0  0  0  0  0  0
  -22.4263   -8.0266   21.3550 C   0  0  0  0  0  0
  -21.9919   -9.0243   20.4642 C   0  0  0  0  0  0
  -22.7269  -10.2104   20.3052 C   0  0  0  0  0  0
  -21.6854   -6.0729   22.5286 C   0  0  0  0  0  0
  -21.4017   -6.5631   23.8221 C   0  0  0  0  0  0
  -21.3670   -5.6780   24.9181 C   0  0  0  0  0  0
  -21.6046   -4.3047   24.7224 C   0  0  0  0  0  0
  -21.8813   -3.8136   23.4346 C   0  0  0  0  0  0
  -21.9183   -4.6956   22.3400 C   0  0  0  0  0  0
  -22.7773  -13.5146   21.1846 C   0  0  0  0  0  0
  -22.1646   -4.2142   21.0980 F   0  0  0  0  0  0
  -21.5634   -3.4530   25.7735 F   0  0  0  0  0  0
  -30.0007  -13.5332   20.4414 N   0  0  0  0  0  0
  -26.2919  -12.9414   20.3243 N   0  0  0  0  0  0
  -25.9343  -11.6542   20.5772 N   0  0  0  0  0  0
  -22.0449  -12.8158   22.0459 N   0  0  0  0  0  0
  -25.3842  -15.1789   20.3661 N   0  0  0  0  0  0
  -31.7844  -14.8075   19.9571 O   0  0  0  0  0  0
  -21.6631   -6.8865   21.4249 O   0  0  0  0  0  0
  -22.3444  -14.5455   20.6707 O   0  0  0  0  0  0
  -24.6345  -31.8532   23.2003 C   0  0  0  0  0  0
  -25.9157  -32.4750   23.8345 C   0  0  1  0  0  0
  -27.2174  -27.2532   20.1171 C   0  0  0  0  0  0
  -25.5930  -33.8543   24.2274 N   0  0  0  0  0  0
  -23.4323  -30.4772   21.5441 C   0  0  2  0  0  0
  -24.8742  -28.9246   20.1130 C   0  0  0  0  0  0
  -22.7539  -29.4572   22.4911 C   0  0  0  0  0  0
  -18.0288  -28.1395   22.8506 C   0  0  0  0  0  0
  -24.1468  -36.7269   23.2645 C   0  0  0  0  0  0
  -25.9793  -30.7660   21.3777 C   0  0  0  0  0  0
  -26.0486  -29.3873   20.7190 C   0  0  0  0  0  0
  -27.2218  -28.5662   20.7047 C   0  0  0  0  0  0
  -26.0101  -26.8550   19.4977 C   0  0  0  0  0  0
  -24.8609  -27.6679   19.4923 C   0  0  0  0  0  0
  -23.6531  -29.8199   20.1584 C   0  0  0  0  0  0
  -25.4094  -36.3059   24.0340 C   0  0  1  0  0  0
  -20.5903  -28.3688   23.1280 C   0  0  2  0  0  0
  -20.6776  -26.9402   22.5416 C   0  0  0  0  0  0
  -19.5732  -26.6392   21.5231 C   0  0  0  0  0  0
  -18.1914  -26.7938   22.1649 C   0  0  0  0  0  0
  -19.1547  -28.8856   23.2890 C   0  0  0  0  0  0
  -18.9470  -30.1466   23.8899 C   0  0  0  0  0  0
  -17.6460  -30.6588   24.0571 C   0  0  0  0  0  0
  -25.9053  -34.9434   23.5111 C   0  0  0  0  0  0
  -16.5350  -29.9094   23.6326 C   0  0  0  0  0  0
  -16.7276  -28.6515   23.0349 C   0  0  0  0  0  0
  -26.4512  -31.6567   25.0732 C   0  0  0  0  0  0
  -25.3753  -31.3720   26.1478 C   0  0  0  0  0  0
  -27.0342  -30.2978   24.6201 C   0  0  0  0  0  0
  -27.6073  -32.4293   25.7505 C   0  0  0  0  0  0
  -27.5558  -37.1786   24.8471 C   0  0  0  0  0  0
  -21.4238  -29.3020   22.3663 N   0  0  0  0  0  0
  -26.4258  -37.3771   23.9431 N   0  0  0  0  0  0
  -24.7021  -31.0499   22.0982 N   0  0  0  0  0  0
  -23.4233  -28.8096   23.2997 O   0  0  0  0  0  0
  -28.3382  -26.3890   20.1491 O   0  0  0  0  0  0
  -26.5622  -34.8914   22.4682 O   0  0  0  0  0  0
  -23.5485  -32.1339   23.7290 O   0  0  0  0  0  0
  -28.5482  -19.3308   20.7918 C   0  0  0  0  0  0
  -29.5713  -20.2380   20.4087 C   0  0  0  0  0  0
  -28.7493  -17.9252   21.0063 C   0  0  0  0  0  0
  -30.8352  -19.5891   20.1759 C   0  0  0  0  0  0
  -31.0688  -18.1749   20.4478 C   0  0  0  0  0  0
  -30.0157  -17.2673   20.8418 C   0  0  0  0  0  0
  -27.9490  -22.4130   20.8943 C   0  0  0  0  0  0
  -29.6605  -22.7358   19.1702 C   0  0  0  0  0  0
  -27.8629  -23.9912   21.1107 C   0  0  0  0  0  0
  -29.6202  -24.3019   19.4235 C   0  0  0  0  0  0
  -29.3446  -21.8501   20.4302 C   0  0  2  0  0  0
  -28.2584  -24.9014   19.8930 C   0  0  1  0  0  0
  -27.5463  -17.1633   21.5266 C   0  0  0  0  0  0
  -31.9618  -20.4439   19.5972 C   0  0  0  0  0  0
  -32.5064  -17.6567   20.4031 C   0  0  0  0  0  0
  -31.3772  -16.2862   23.4474 C   0  0  0  0  0  0
  -30.2015  -15.6029   22.7232 C   0  0  0  0  0  0
  -30.1999  -15.8224   21.2586 N   0  0  0  0  0  0
  -31.4650  -12.5289   19.2093 H   0  0  0  0  0  0
  -30.3223  -11.4805   19.9887 H   0  0  0  0  0  0
  -29.8052  -11.7408   17.5391 H   0  0  0  0  0  0
  -29.6419  -13.4702   17.7502 H   0  0  0  0  0  0
  -27.9237  -11.2773   18.9513 H   0  0  0  0  0  0
  -27.3844  -12.4826   17.8135 H   0  0  0  0  0  0
  -27.6322  -14.2566   19.4587 H   0  0  0  0  0  0
  -28.6988  -12.2150   21.4688 H   0  0  0  0  0  0
  -28.3768  -13.8987   21.7722 H   0  0  0  0  0  0
  -25.2771   -9.5644   22.4743 H   0  0  0  0  0  0
  -23.9997   -7.4615   22.7477 H   0  0  0  0  0  0
  -21.0844   -8.8765   19.8958 H   0  0  0  0  0  0
  -22.3732  -10.9635   19.6157 H   0  0  0  0  0  0
  -21.2025   -7.6143   23.9731 H   0  0  0  0  0  0
  -21.1497   -6.0505   25.9088 H   0  0  0  0  0  0
  -22.0585   -2.7599   23.2840 H   0  0  0  0  0  0
  -22.4053  -11.9810   22.4836 H   0  0  0  0  0  0
  -21.1080  -13.1191   22.2675 H   0  0  0  0  0  0
  -24.6050  -15.8196   20.4711 H   0  0  0  0  0  0
  -26.2180  -15.6222   20.0061 H   0  0  0  0  0  0
  -26.7222  -32.5401   23.1091 H   0  0  0  0  0  0
  -25.0058  -33.9676   25.0403 H   0  0  0  0  0  0
  -22.7274  -31.2995   21.4007 H   0  0  0  0  0  0
  -23.3739  -35.9597   23.3309 H   0  0  0  0  0  0
  -24.3549  -36.8889   22.2060 H   0  0  0  0  0  0
  -23.7215  -37.6466   23.6664 H   0  0  0  0  0  0
  -26.1134  -31.5261   20.6051 H   0  0  0  0  0  0
  -26.8611  -30.8197   22.0054 H   0  0  0  0  0  0
  -28.1272  -28.9238   21.1747 H   0  0  0  0  0  0
  -25.9106  -25.8975   19.0113 H   0  0  0  0  0  0
  -23.9594  -27.3079   19.0130 H   0  0  0  0  0  0
  -23.7966  -30.6030   19.4131 H   0  0  0  0  0  0
  -22.7684  -29.2678   19.8374 H   0  0  0  0  0  0
  -25.1268  -36.1908   25.0829 H   0  0  0  0  0  0
  -20.9994  -28.3263   24.1406 H   0  0  0  0  0  0
  -20.5680  -26.2291   23.3628 H   0  0  0  0  0  0
  -21.6638  -26.7422   22.1189 H   0  0  0  0  0  0
  -19.6881  -25.6314   21.1230 H   0  0  0  0  0  0
  -19.6661  -27.3237   20.6787 H   0  0  0  0  0  0
  -17.4189  -26.6707   21.4050 H   0  0  0  0  0  0
  -18.0295  -26.0089   22.9045 H   0  0  0  0  0  0
  -19.7931  -30.7293   24.2270 H   0  0  0  0  0  0
  -17.5000  -31.6267   24.5182 H   0  0  0  0  0  0
  -15.5344  -30.2988   23.7645 H   0  0  0  0  0  0
  -15.8685  -28.0836   22.7042 H   0  0  0  0  0  0
  -24.5938  -30.7040   25.7842 H   0  0  0  0  0  0
  -24.8939  -32.2888   26.4882 H   0  0  0  0  0  0
  -25.8101  -30.8936   27.0270 H   0  0  0  0  0  0
  -26.2916  -29.6742   24.1215 H   0  0  0  0  0  0
  -27.4016  -29.7212   25.4700 H   0  0  0  0  0  0
  -27.8799  -30.4245   23.9446 H   0  0  0  0  0  0
  -27.2690  -33.3610   26.2056 H   0  0  0  0  0  0
  -28.3906  -32.6829   25.0348 H   0  0  0  0  0  0
  -28.0724  -31.8439   26.5451 H   0  0  0  0  0  0
  -28.2583  -38.0073   24.7501 H   0  0  0  0  0  0
  -28.1037  -36.2602   24.6304 H   0  0  0  0  0  0
  -27.2280  -37.1456   25.8875 H   0  0  0  0  0  0
  -20.9432  -29.8762   21.6882 H   0  0  0  0  0  0
  -26.0134  -38.2833   24.1467 H   0  0  0  0  0  0
  -27.5637  -19.7323   20.9760 H   0  0  0  0  0  0
  -27.1878  -22.1101   20.1725 H   0  0  0  0  0  0
  -27.6660  -21.9349   21.8319 H   0  0  0  0  0  0
  -30.6529  -22.5343   18.7864 H   0  0  0  0  0  0
  -28.9732  -22.4777   18.3650 H   0  0  0  0  0  0
  -28.5079  -24.2476   21.9491 H   0  0  0  0  0  0
  -26.8543  -24.2513   21.4331 H   0  0  0  0  0  0
  -29.9341  -24.8176   18.5140 H   0  0  0  0  0  0
  -30.3765  -24.5515   20.1681 H   0  0  0  0  0  0
  -30.0476  -22.1710   21.2008 H   0  0  0  0  0  0
  -27.5705  -24.7011   19.0741 H   0  0  0  0  0  0
  -27.6345  -16.0877   21.3920 H   0  0  0  0  0  0
  -26.6379  -17.4958   21.0230 H   0  0  0  0  0  0
  -27.4262  -17.3604   22.5927 H   0  0  0  0  0  0
  -31.6905  -20.7183   18.5793 H   0  0  0  0  0  0
  -32.9214  -19.9536   19.4809 H   0  0  0  0  0  0
  -32.1279  -21.3515   20.1771 H   0  0  0  0  0  0
  -32.7815  -17.3628   19.3895 H   0  0  0  0  0  0
  -32.6669  -16.8095   21.0624 H   0  0  0  0  0  0
  -33.2300  -18.3843   20.7689 H   0  0  0  0  0  0
  -31.2730  -16.1713   24.5257 H   0  0  0  0  0  0
  -31.4227  -17.3571   23.2476 H   0  0  0  0  0  0
  -32.3340  -15.8421   23.1710 H   0  0  0  0  0  0
  -29.2678  -15.9585   23.1523 H   0  0  0  0  0  0
  -30.2374  -14.5395   22.9766 H   0  0  0  0  0  0
  1 25  1  0  0  0
  1 30  2  0  0  0
  1 88  1  0  0  0
  2  3  1  0  0  0
  2 25  1  0  0  0
  2 89  1  0  0  0
  2 90  1  0  0  0
  3  4  1  0  0  0
  3 91  1  0  0  0
  3 92  1  0  0  0
  4  5  1  0  0  0
  4 93  1  0  0  0
  4 94  1  0  0  0
  5  6  1  0  0  0
  5 26  1  0  0  0
  5 95  1  0  0  0
  6 25  1  0  0  0
  6 96  1  0  0  0
  6 97  1  0  0  0
  7  8  2  0  0  0
  7 26  1  0  0  0
  7 29  1  0  0  0
  8  9  1  0  0  0
  8 22  1  0  0  0
  9 10  1  0  0  0
  9 27  2  0  0  0
 10 11  2  0  0  0
 10 15  1  0  0  0
 11 12  1  0  0  0
 11 98  1  0  0  0
 12 13  2  0  0  0
 12 99  1  0  0  0
 13 14  1  0  0  0
 13 31  1  0  0  0
 14 15  2  0  0  0
 14100  1  0  0  0
 15101  1  0  0  0
 16 17  2  0  0  0
 16 21  1  0  0  0
 16 31  1  0  0  0
 17 18  1  0  0  0
 17102  1  0  0  0
 18 19  2  0  0  0
 18103  1  0  0  0
 19 20  1  0  0  0
 19 24  1  0  0  0
 20 21  2  0  0  0
 20104  1  0  0  0
 21 23  1  0  0  0
 22 28  1  0  0  0
 22 32  2  0  0  0
 26 27  1  0  0  0
 28105  1  0  0  0
 28106  1  0  0  0
 29107  1  0  0  0
 29108  1  0  0  0
 33 34  1  0  0  0
 33 66  1  0  0  0
 33 70  2  0  0  0
 34 36  1  0  0  0
 34 59  1  0  0  0
 34109  1  0  0  0
 35 44  2  0  0  0
 35 45  1  0  0  0
 35 68  1  0  0  0
 36 56  1  0  0  0
 36110  1  0  0  0
 37 39  1  0  0  0
 37 47  1  0  0  0
 37 66  1  0  0  0
 37111  1  0  0  0
 38 43  2  0  0  0
 38 46  1  0  0  0
 38 47  1  0  0  0
 39 64  1  0  0  0
 39 67  2  0  0  0
 40 52  1  0  0  0
 40 53  2  0  0  0
 40 58  1  0  0  0
 41112  1  0  0  0
 41113  1  0  0  0
 41114  1  0  0  0
 41 48  1  0  0  0
 42 43  1  0  0  0
 42 66  1  0  0  0
 42115  1  0  0  0
 42116  1  0  0  0
 43 44  1  0  0  0
 44117  1  0  0  0
 45 46  2  0  0  0
 45118  1  0  0  0
 46119  1  0  0  0
 47120  1  0  0  0
 47121  1  0  0  0
 48 56  1  0  0  0
 48 65  1  0  0  0
 48122  1  0  0  0
 49 50  1  0  0  0
 49 53  1  0  0  0
 49 64  1  0  0  0
 49123  1  0  0  0
 50 51  1  0  0  0
 50124  1  0  0  0
 50125  1  0  0  0
 51 52  1  0  0  0
 51126  1  0  0  0
 51127  1  0  0  0
 52128  1  0  0  0
 52129  1  0  0  0
 53 54  1  0  0  0
 54 55  2  0  0  0
 54130  1  0  0  0
 55 57  1  0  0  0
 55131  1  0  0  0
 56 69  2  0  0  0
 57 58  2  0  0  0
 57132  1  0  0  0
 58133  1  0  0  0
 59 60  1  0  0  0
 59 61  1  0  0  0
 59 62  1  0  0  0
 60134  1  0  0  0
 60135  1  0  0  0
 60136  1  0  0  0
 61137  1  0  0  0
 61138  1  0  0  0
 61139  1  0  0  0
 62140  1  0  0  0
 62141  1  0  0  0
 62142  1  0  0  0
 63 65  1  0  0  0
 63143  1  0  0  0
 63144  1  0  0  0
 63145  1  0  0  0
 64146  1  0  0  0
 65147  1  0  0  0
 68 82  1  0  0  0
 71 72  2  0  0  0
 71 73  1  0  0  0
 71148  1  0  0  0
 72 74  1  0  0  0
 72 81  1  0  0  0
 73 76  2  0  0  0
 73 83  1  0  0  0
 74 75  2  0  0  0
 74 84  1  0  0  0
 75 76  1  0  0  0
 75 85  1  0  0  0
 76 88  1  0  0  0
 77 79  1  0  0  0
 77 81  1  0  0  0
 77149  1  0  0  0
 77150  1  0  0  0
 78 80  1  0  0  0
 78 81  1  0  0  0
 78151  1  0  0  0
 78152  1  0  0  0
 79 82  1  0  0  0
 79153  1  0  0  0
 79154  1  0  0  0
 80 82  1  0  0  0
 80155  1  0  0  0
 80156  1  0  0  0
 81157  1  0  0  0
 82158  1  0  0  0
 83159  1  0  0  0
 83160  1  0  0  0
 83161  1  0  0  0
 84162  1  0  0  0
 84163  1  0  0  0
 84164  1  0  0  0
 85165  1  0  0  0
 85166  1  0  0  0
 85167  1  0  0  0
 86 87  1  0  0  0
 86168  1  0  0  0
 86169  1  0  0  0
 86170  1  0  0  0
 87 88  1  0  0  0
 87171  1  0  0  0
 87172  1  0  0  0
M  ISO  4   1 100  68 101  82 101  88 100
M  END
> <chiral flag>
0

> <version>
0

> <s_m_source_file>
/data/baiqing/PycharmProjects/Reinvent-master-3.2/result/LINK_invent/BTK/process_docking_weight1_custom_sum_contain_oxygen_bond_distance_aromatic_linkinvent_7_9_3/rearranged_h_0157.sdf

> <i_m_source_file_index>
46

> <r_mmod_Potential_Energy-OPLS-2005>
428.290924072266

> <r_mmod_Stretch_Energy-OPLS-2005>
145.274078369141

> <r_mmod_Bend_Energy-OPLS-2005>
203.507339477539

> <r_mmod_Torsional_Energy-OPLS-2005>
327.391540527344

> <r_mmod_Improper_Torsional_Energy-OPLS-2005>
4.67056369781494

> <r_mmod_Van_der_Waal_Energy-OPLS-2005>
161.244842529297

> <r_mmod_Electrostatic_Energy-OPLS-2005>
-320.247680664062

> <r_mmod_Solvation_Energy-OPLS-2005>
-175.221206665039

> <b_mmod_Minimization_Converged-OPLS-2005>
0

> <r_mmod_RMS_Derivative-OPLS-2005>
3.28448271751404

$$$$
46
                    3D
 Structure written by MMmdl.
160169  0  0  1  0            999 V2000
  -30.5868  -14.6942   20.4780 C   0  0  0  0  0  0
  -30.4341  -12.4331   19.4213 C   0  0  0  0  0  0
  -29.4979  -12.5335   18.1975 C   0  0  0  0  0  0
  -28.0134  -12.3772   18.5979 C   0  0  0  0  0  0
  -27.6381  -13.2324   19.8394 C   0  0  2  0  0  0
  -28.6895  -13.0961   20.9612 C   0  0  0  0  0  0
  -25.2466  -13.8217   20.5639 C   0  0  0  0  0  0
  -24.1785  -13.0411   20.9257 C   0  0  0  0  0  0
  -24.6392  -11.6929   20.8754 C   0  0  0  0  0  0
  -23.9086  -10.4287   21.0379 C   0  0  0  0  0  0
  -24.3642   -9.4230   21.9173 C   0  0  0  0  0  0
  -23.6339   -8.2253   22.0714 C   0  0  0  0  0  0
  -22.4309   -8.0286   21.3536 C   0  0  0  0  0  0
  -21.9956   -9.0242   20.4625 C   0  0  0  0  0  0
  -22.7255  -10.2131   20.3038 C   0  0  0  0  0  0
  -21.6837   -6.0778   22.5336 C   0  0  0  0  0  0
  -21.4002   -6.5675   23.8283 C   0  0  0  0  0  0
  -21.3672   -5.6799   24.9234 C   0  0  0  0  0  0
  -21.6044   -4.3074   24.7257 C   0  0  0  0  0  0
  -21.8829   -3.8179   23.4370 C   0  0  0  0  0  0
  -21.9189   -4.7005   22.3440 C   0  0  0  0  0  0
  -22.7816  -13.5179   21.1949 C   0  0  0  0  0  0
  -22.1640   -4.2215   21.1007 F   0  0  0  0  0  0
  -21.5638   -3.4540   25.7745 F   0  0  0  0  0  0
  -29.9885  -13.4635   20.3850 N   0  0  0  0  0  0
  -26.2898  -12.9417   20.3192 N   0  0  0  0  0  0
  -25.9313  -11.6573   20.5705 N   0  0  0  0  0  0
  -22.0455  -12.8155   22.0513 N   0  0  0  0  0  0
  -25.4011  -15.1942   20.4019 N   0  0  0  0  0  0
  -31.7926  -14.8235   20.2417 O   0  0  0  0  0  0
  -21.6642   -6.8896   21.4276 O   0  0  0  0  0  0
  -22.3510  -14.5473   20.6810 O   0  0  0  0  0  0
  -24.6236  -31.8567   23.2021 C   0  0  0  0  0  0
  -25.9074  -32.4781   23.8357 C   0  0  1  0  0  0
  -27.2274  -27.3186   20.0734 C   0  0  0  0  0  0
  -25.5869  -33.8583   24.2286 N   0  0  0  0  0  0
  -23.4155  -30.4776   21.5490 C   0  0  2  0  0  0
  -24.8623  -28.9253   20.1124 C   0  0  0  0  0  0
  -22.7456  -29.4580   22.4975 C   0  0  0  0  0  0
  -18.0272  -28.1358   22.8501 C   0  0  0  0  0  0
  -24.1472  -36.7307   23.2652 C   0  0  0  0  0  0
  -25.9545  -30.7855   21.3641 C   0  0  0  0  0  0
  -26.0329  -29.4068   20.7143 C   0  0  0  0  0  0
  -27.2221  -28.6162   20.6829 C   0  0  0  0  0  0
  -26.0363  -26.8851   19.4628 C   0  0  0  0  0  0
  -24.8664  -27.6696   19.4799 C   0  0  0  0  0  0
  -23.6283  -29.8074   20.1652 C   0  0  0  0  0  0
  -25.4091  -36.3105   24.0354 C   0  0  1  0  0  0
  -20.5874  -28.3642   23.1306 C   0  0  2  0  0  0
  -20.6730  -26.9353   22.5419 C   0  0  0  0  0  0
  -19.5705  -26.6362   21.5209 C   0  0  0  0  0  0
  -18.1901  -26.7900   22.1642 C   0  0  0  0  0  0
  -19.1530  -28.8822   23.2905 C   0  0  0  0  0  0
  -18.9471  -30.1436   23.8905 C   0  0  0  0  0  0
  -17.6465  -30.6563   24.0571 C   0  0  0  0  0  0
  -25.9037  -34.9464   23.5143 C   0  0  0  0  0  0
  -16.5344  -29.9076   23.6319 C   0  0  0  0  0  0
  -16.7258  -28.6489   23.0334 C   0  0  0  0  0  0
  -26.4458  -31.6578   25.0708 C   0  0  0  0  0  0
  -25.3712  -31.3686   26.1450 C   0  0  0  0  0  0
  -27.0292  -30.3031   24.6069 C   0  0  0  0  0  0
  -27.6032  -32.4283   25.7473 C   0  0  0  0  0  0
  -27.5582  -37.1786   24.8446 C   0  0  0  0  0  0
  -21.4162  -29.3027   22.3743 N   0  0  0  0  0  0
  -26.4255  -37.3812   23.9457 N   0  0  0  0  0  0
  -24.6854  -31.0563   22.0974 N   0  0  0  0  0  0
  -23.4186  -28.8103   23.3038 O   0  0  0  0  0  0
  -28.3524  -26.4840   20.0025 O   0  0  0  0  0  0
  -26.5633  -34.8929   22.4728 O   0  0  0  0  0  0
  -23.5397  -32.1366   23.7352 O   0  0  0  0  0  0
  -29.0007  -20.7236   18.2911 C   0  0  0  0  0  0
  -29.2020  -19.7657   20.4955 C   0  0  0  0  0  0
  -28.8608  -20.9165   19.6802 C   0  0  0  0  0  0
  -29.4583  -19.5005   17.7409 C   0  0  0  0  0  0
  -29.6613  -18.4833   19.9799 C   0  0  0  0  0  0
  -29.8506  -18.4089   18.5707 C   0  0  0  0  0  0
  -27.0135  -22.8801   19.6225 C   0  0  0  0  0  0
  -28.2783  -22.2881   20.2249 C   0  0  2  0  0  0
  -28.2499  -23.7612   19.6007 C   0  0  2  0  0  0
  -29.4332  -19.3731   16.2231 C   0  0  0  0  0  0
  -30.5161  -17.1792   17.9623 C   0  0  0  0  0  0
  -30.0275  -17.2605   20.9445 C   0  0  0  0  0  0
  -28.2622  -25.0802   20.4890 C   0  0  0  0  0  0
  -29.7541  -15.7861   20.6395 N   0  0  0  0  0  0
  -31.4688  -12.5772   19.1093 H   0  0  0  0  0  0
  -30.3887  -11.4354   19.8602 H   0  0  0  0  0  0
  -29.7662  -11.7947   17.4395 H   0  0  0  0  0  0
  -29.6422  -13.5081   17.7288 H   0  0  0  0  0  0
  -27.8184  -11.3216   18.7888 H   0  0  0  0  0  0
  -27.3744  -12.6486   17.7555 H   0  0  0  0  0  0
  -27.6390  -14.2694   19.4994 H   0  0  0  0  0  0
  -28.7253  -12.0708   21.3298 H   0  0  0  0  0  0
  -28.4458  -13.7286   21.8156 H   0  0  0  0  0  0
  -25.2794   -9.5742   22.4763 H   0  0  0  0  0  0
  -24.0101   -7.4634   22.7401 H   0  0  0  0  0  0
  -21.0891   -8.8735   19.8949 H   0  0  0  0  0  0
  -22.3667  -10.9676   19.6171 H   0  0  0  0  0  0
  -21.1969   -7.6165   23.9822 H   0  0  0  0  0  0
  -21.1471   -6.0502   25.9141 H   0  0  0  0  0  0
  -22.0582   -2.7644   23.2840 H   0  0  0  0  0  0
  -22.3987  -11.9753   22.4850 H   0  0  0  0  0  0
  -21.1081  -13.1210   22.2755 H   0  0  0  0  0  0
  -24.6108  -15.8199   20.5086 H   0  0  0  0  0  0
  -26.2181  -15.6580   20.0222 H   0  0  0  0  0  0
  -26.7123  -32.5457   23.1090 H   0  0  0  0  0  0
  -24.9932  -33.9731   25.0371 H   0  0  0  0  0  0
  -22.7070  -31.2972   21.4089 H   0  0  0  0  0  0
  -23.3763  -35.9603   23.3226 H   0  0  0  0  0  0
  -24.3591  -36.9017   22.2088 H   0  0  0  0  0  0
  -23.7156  -37.6456   23.6723 H   0  0  0  0  0  0
  -26.0566  -31.5366   20.5806 H   0  0  0  0  0  0
  -26.8463  -30.8598   21.9723 H   0  0  0  0  0  0
  -28.1289  -28.9961   21.1353 H   0  0  0  0  0  0
  -26.0194  -25.9375   18.9442 H   0  0  0  0  0  0
  -23.9769  -27.3019   18.9873 H   0  0  0  0  0  0
  -23.7376  -30.5830   19.4065 H   0  0  0  0  0  0
  -22.7458  -29.2356   19.8752 H   0  0  0  0  0  0
  -25.1252  -36.1955   25.0839 H   0  0  0  0  0  0
  -20.9972  -28.3193   24.1429 H   0  0  0  0  0  0
  -20.5551  -26.2262   23.3631 H   0  0  0  0  0  0
  -21.6605  -26.7322   22.1253 H   0  0  0  0  0  0
  -19.6839  -25.6286   21.1206 H   0  0  0  0  0  0
  -19.6636  -27.3200   20.6769 H   0  0  0  0  0  0
  -17.4160  -26.6662   21.4058 H   0  0  0  0  0  0
  -18.0295  -26.0028   22.9025 H   0  0  0  0  0  0
  -19.7960  -30.7245   24.2254 H   0  0  0  0  0  0
  -17.5025  -31.6239   24.5167 H   0  0  0  0  0  0
  -15.5335  -30.2979   23.7619 H   0  0  0  0  0  0
  -15.8666  -28.0806   22.7010 H   0  0  0  0  0  0
  -24.5843  -30.7089   25.7772 H   0  0  0  0  0  0
  -24.8946  -32.2849   26.4951 H   0  0  0  0  0  0
  -25.8036  -30.8787   27.0182 H   0  0  0  0  0  0
  -26.2845  -29.6788   24.1115 H   0  0  0  0  0  0
  -27.4090  -29.7253   25.4500 H   0  0  0  0  0  0
  -27.8656  -30.4389   23.9212 H   0  0  0  0  0  0
  -27.2674  -33.3605   26.2026 H   0  0  0  0  0  0
  -28.3857  -32.6784   25.0302 H   0  0  0  0  0  0
  -28.0658  -31.8395   26.5400 H   0  0  0  0  0  0
  -28.2514  -38.0169   24.7619 H   0  0  0  0  0  0
  -28.1160  -36.2707   24.6088 H   0  0  0  0  0  0
  -27.2338  -37.1215   25.8852 H   0  0  0  0  0  0
  -20.9296  -29.8865   21.7079 H   0  0  0  0  0  0
  -26.0128  -38.2863   24.1551 H   0  0  0  0  0  0
  -28.7288  -21.5348   17.6301 H   0  0  0  0  0  0
  -29.1194  -19.8802   21.5663 H   0  0  0  0  0  0
  -26.2197  -23.1755   20.3082 H   0  0  0  0  0  0
  -26.6501  -22.5236   18.6566 H   0  0  0  0  0  0
  -28.3058  -22.2555   21.3115 H   0  0  0  0  0  0
  -28.7738  -23.8653   18.6519 H   0  0  0  0  0  0
  -29.3533  -20.3513   15.7473 H   0  0  0  0  0  0
  -28.5555  -18.7955   15.9300 H   0  0  0  0  0  0
  -30.3106  -18.8931   15.7982 H   0  0  0  0  0  0
  -31.1426  -17.4224   17.1067 H   0  0  0  0  0  0
  -29.7917  -16.4168   17.6718 H   0  0  0  0  0  0
  -31.2174  -16.7391   18.6661 H   0  0  0  0  0  0
  -29.4570  -17.4476   21.8563 H   0  0  0  0  0  0
  -31.0683  -17.3644   21.2542 H   0  0  0  0  0  0
  -29.1600  -24.9702   21.0943 H   0  0  0  0  0  0
  -27.4403  -25.0210   21.2007 H   0  0  0  0  0  0
  -28.7838  -15.5284   20.7216 H   0  0  0  0  0  0
  1 25  1  0  0  0
  1 30  2  0  0  0
  1 84  1  0  0  0
  2  3  1  0  0  0
  2 25  1  0  0  0
  2 85  1  0  0  0
  2 86  1  0  0  0
  3  4  1  0  0  0
  3 87  1  0  0  0
  3 88  1  0  0  0
  4  5  1  0  0  0
  4 89  1  0  0  0
  4 90  1  0  0  0
  5  6  1  0  0  0
  5 26  1  0  0  0
  5 91  1  0  0  0
  6 25  1  0  0  0
  6 92  1  0  0  0
  6 93  1  0  0  0
  7  8  2  0  0  0
  7 26  1  0  0  0
  7 29  1  0  0  0
  8  9  1  0  0  0
  8 22  1  0  0  0
  9 10  1  0  0  0
  9 27  2  0  0  0
 10 11  2  0  0  0
 10 15  1  0  0  0
 11 12  1  0  0  0
 11 94  1  0  0  0
 12 13  2  0  0  0
 12 95  1  0  0  0
 13 14  1  0  0  0
 13 31  1  0  0  0
 14 15  2  0  0  0
 14 96  1  0  0  0
 15 97  1  0  0  0
 16 17  2  0  0  0
 16 21  1  0  0  0
 16 31  1  0  0  0
 17 18  1  0  0  0
 17 98  1  0  0  0
 18 19  2  0  0  0
 18 99  1  0  0  0
 19 20  1  0  0  0
 19 24  1  0  0  0
 20 21  2  0  0  0
 20100  1  0  0  0
 21 23  1  0  0  0
 22 28  1  0  0  0
 22 32  2  0  0  0
 26 27  1  0  0  0
 28101  1  0  0  0
 28102  1  0  0  0
 29103  1  0  0  0
 29104  1  0  0  0
 33 34  1  0  0  0
 33 66  1  0  0  0
 33 70  2  0  0  0
 34 36  1  0  0  0
 34 59  1  0  0  0
 34105  1  0  0  0
 35 44  2  0  0  0
 35 45  1  0  0  0
 35 68  1  0  0  0
 36 56  1  0  0  0
 36106  1  0  0  0
 37 39  1  0  0  0
 37 47  1  0  0  0
 37 66  1  0  0  0
 37107  1  0  0  0
 38 43  2  0  0  0
 38 46  1  0  0  0
 38 47  1  0  0  0
 39 64  1  0  0  0
 39 67  2  0  0  0
 40 52  1  0  0  0
 40 53  2  0  0  0
 40 58  1  0  0  0
 41108  1  0  0  0
 41109  1  0  0  0
 41110  1  0  0  0
 41 48  1  0  0  0
 42 43  1  0  0  0
 42 66  1  0  0  0
 42111  1  0  0  0
 42112  1  0  0  0
 43 44  1  0  0  0
 44113  1  0  0  0
 45 46  2  0  0  0
 45114  1  0  0  0
 46115  1  0  0  0
 47116  1  0  0  0
 47117  1  0  0  0
 48 56  1  0  0  0
 48 65  1  0  0  0
 48118  1  0  0  0
 49 50  1  0  0  0
 49 53  1  0  0  0
 49 64  1  0  0  0
 49119  1  0  0  0
 50 51  1  0  0  0
 50120  1  0  0  0
 50121  1  0  0  0
 51 52  1  0  0  0
 51122  1  0  0  0
 51123  1  0  0  0
 52124  1  0  0  0
 52125  1  0  0  0
 53 54  1  0  0  0
 54 55  2  0  0  0
 54126  1  0  0  0
 55 57  1  0  0  0
 55127  1  0  0  0
 56 69  2  0  0  0
 57 58  2  0  0  0
 57128  1  0  0  0
 58129  1  0  0  0
 59 60  1  0  0  0
 59 61  1  0  0  0
 59 62  1  0  0  0
 60130  1  0  0  0
 60131  1  0  0  0
 60132  1  0  0  0
 61133  1  0  0  0
 61134  1  0  0  0
 61135  1  0  0  0
 62136  1  0  0  0
 62137  1  0  0  0
 62138  1  0  0  0
 63 65  1  0  0  0
 63139  1  0  0  0
 63140  1  0  0  0
 63141  1  0  0  0
 64142  1  0  0  0
 65143  1  0  0  0
 68 83  1  0  0  0
 71 73  2  0  0  0
 71 74  1  0  0  0
 71144  1  0  0  0
 72 73  1  0  0  0
 72 75  2  0  0  0
 72145  1  0  0  0
 73 78  1  0  0  0
 74 76  2  0  0  0
 74 80  1  0  0  0
 75 76  1  0  0  0
 75 82  1  0  0  0
 76 81  1  0  0  0
 77 78  1  0  0  0
 77 79  1  0  0  0
 77146  1  0  0  0
 77147  1  0  0  0
 78 79  1  0  0  0
 78148  1  0  0  0
 79 83  1  0  0  0
 79149  1  0  0  0
 80150  1  0  0  0
 80151  1  0  0  0
 80152  1  0  0  0
 81153  1  0  0  0
 81154  1  0  0  0
 81155  1  0  0  0
 82 84  1  0  0  0
 82156  1  0  0  0
 82157  1  0  0  0
 83158  1  0  0  0
 83159  1  0  0  0
 84160  1  0  0  0
M  ISO  4   1 100  68 101  83 101  84 100
M  END
> <chiral flag>
0

> <version>
0

> <s_m_source_file>
/data/baiqing/PycharmProjects/Reinvent-master-3.2/result/LINK_invent/BTK/process_docking_weight1_custom_sum_contain_oxygen_bond_distance_aromatic_linkinvent_7_9_3/rearranged_h_0157.sdf

> <i_m_source_file_index>
47

> <r_mmod_Potential_Energy-OPLS-2005>
118.777160644531

> <r_mmod_Stretch_Energy-OPLS-2005>
114.122413635254

> <r_mmod_Bend_Energy-OPLS-2005>
171.876861572266

> <r_mmod_Torsional_Energy-OPLS-2005>
261.997467041016

> <r_mmod_Improper_Torsional_Energy-OPLS-2005>
5.52573919296265

> <r_mmod_Van_der_Waal_Energy-OPLS-2005>
135.610870361328

> <r_mmod_Electrostatic_Energy-OPLS-2005>
-426.500091552734

> <r_mmod_Solvation_Energy-OPLS-2005>
-203.936752319336

> <b_mmod_Minimization_Converged-OPLS-2005>
0

> <r_mmod_RMS_Derivative-OPLS-2005>
6.84144926071167

$$$$
47
                    3D
 Structure written by MMmdl.
166175  0  0  1  0            999 V2000
  -30.6604  -14.6803   20.4869 C   0  0  0  0  0  0
  -30.4228  -12.4305   19.4449 C   0  0  0  0  0  0
  -29.5008  -12.5024   18.2100 C   0  0  0  0  0  0
  -28.0243  -12.3387   18.6260 C   0  0  0  0  0  0
  -27.6354  -13.2316   19.8352 C   0  0  2  0  0  0
  -28.6830  -13.1666   20.9661 C   0  0  0  0  0  0
  -25.2468  -13.8186   20.5647 C   0  0  0  0  0  0
  -24.1784  -13.0437   20.9230 C   0  0  0  0  0  0
  -24.6384  -11.6921   20.8754 C   0  0  0  0  0  0
  -23.9058  -10.4297   21.0403 C   0  0  0  0  0  0
  -24.3613   -9.4214   21.9179 C   0  0  0  0  0  0
  -23.6285   -8.2247   22.0759 C   0  0  0  0  0  0
  -22.4264   -8.0285   21.3552 C   0  0  0  0  0  0
  -21.9895   -9.0263   20.4654 C   0  0  0  0  0  0
  -22.7232  -10.2136   20.3055 C   0  0  0  0  0  0
  -21.6856   -6.0732   22.5283 C   0  0  0  0  0  0
  -21.4019   -6.5629   23.8215 C   0  0  0  0  0  0
  -21.3656   -5.6782   24.9173 C   0  0  0  0  0  0
  -21.6045   -4.3046   24.7228 C   0  0  0  0  0  0
  -21.8812   -3.8140   23.4344 C   0  0  0  0  0  0
  -21.9198   -4.6961   22.3407 C   0  0  0  0  0  0
  -22.7803  -13.5223   21.1880 C   0  0  0  0  0  0
  -22.1660   -4.2146   21.0982 F   0  0  0  0  0  0
  -21.5632   -3.4531   25.7737 F   0  0  0  0  0  0
  -29.9819  -13.4949   20.3704 N   0  0  0  0  0  0
  -26.2895  -12.9402   20.3180 N   0  0  0  0  0  0
  -25.9301  -11.6546   20.5690 N   0  0  0  0  0  0
  -22.0432  -12.8230   22.0430 N   0  0  0  0  0  0
  -25.4092  -15.1911   20.4034 N   0  0  0  0  0  0
  -31.8731  -14.7402   20.2655 O   0  0  0  0  0  0
  -21.6639   -6.8879   21.4245 O   0  0  0  0  0  0
  -22.3499  -14.5532   20.6721 O   0  0  0  0  0  0
  -24.6268  -31.8578   23.1995 C   0  0  0  0  0  0
  -25.9117  -32.4763   23.8330 C   0  0  1  0  0  0
  -27.2226  -27.3047   20.1352 C   0  0  0  0  0  0
  -25.5917  -33.8562   24.2259 N   0  0  0  0  0  0
  -23.4219  -30.4796   21.5415 C   0  0  2  0  0  0
  -24.8699  -28.9235   20.1181 C   0  0  0  0  0  0
  -22.7475  -29.4617   22.4922 C   0  0  0  0  0  0
  -18.0293  -28.1387   22.8487 C   0  0  0  0  0  0
  -24.1489  -36.7287   23.2635 C   0  0  0  0  0  0
  -25.9629  -30.7864   21.3709 C   0  0  0  0  0  0
  -26.0383  -29.4090   20.7202 C   0  0  0  0  0  0
  -27.2219  -28.6123   20.7143 C   0  0  0  0  0  0
  -26.0358  -26.8642   19.5188 C   0  0  0  0  0  0
  -24.8703  -27.6571   19.5081 C   0  0  0  0  0  0
  -23.6394  -29.8082   20.1591 C   0  0  0  0  0  0
  -25.4109  -36.3069   24.0326 C   0  0  1  0  0  0
  -20.5889  -28.3688   23.1285 C   0  0  2  0  0  0
  -20.6776  -26.9407   22.5415 C   0  0  0  0  0  0
  -19.5754  -26.6388   21.5213 C   0  0  0  0  0  0
  -18.1933  -26.7934   22.1622 C   0  0  0  0  0  0
  -19.1541  -28.8854   23.2884 C   0  0  0  0  0  0
  -18.9461  -30.1457   23.8902 C   0  0  0  0  0  0
  -17.6459  -30.6585   24.0568 C   0  0  0  0  0  0
  -25.9049  -34.9442   23.5096 C   0  0  0  0  0  0
  -16.5354  -29.9085   23.6324 C   0  0  0  0  0  0
  -16.7279  -28.6503   23.0344 C   0  0  0  0  0  0
  -26.4490  -31.6578   25.0706 C   0  0  0  0  0  0
  -25.3716  -31.3734   26.1430 C   0  0  0  0  0  0
  -27.0335  -30.2998   24.6176 C   0  0  0  0  0  0
  -27.6038  -32.4316   25.7493 C   0  0  0  0  0  0
  -27.5582  -37.1793   24.8450 C   0  0  0  0  0  0
  -21.4185  -29.3042   22.3672 N   0  0  0  0  0  0
  -26.4280  -37.3771   23.9413 N   0  0  0  0  0  0
  -24.6895  -31.0587   22.0948 N   0  0  0  0  0  0
  -23.4193  -28.8156   23.3005 O   0  0  0  0  0  0
  -28.3410  -26.4642   20.0998 O   0  0  0  0  0  0
  -26.5631  -34.8916   22.4673 O   0  0  0  0  0  0
  -23.5427  -32.1380   23.7317 O   0  0  0  0  0  0
  -29.6583  -21.0240   21.3658 C   0  0  0  0  0  0
  -29.7812  -18.6045   20.6806 C   0  0  0  0  0  0
  -30.0386  -19.6659   21.6056 C   0  0  0  0  0  0
  -29.1298  -19.0125   19.4722 C   0  0  0  0  0  0
  -29.0432  -21.4449   20.1643 C   0  0  0  0  0  0
  -28.7633  -20.3902   19.2268 C   0  0  0  0  0  0
  -30.3983  -17.2106   20.9539 C   0  0  0  0  0  0
  -30.9027  -19.3746   22.8214 C   0  0  0  0  0  0
  -32.0340  -18.3813   22.4746 C   0  0  2  0  0  0
  -28.8854  -17.9820   18.3701 C   0  0  0  0  0  0
  -33.2151  -19.0643   21.7667 C   0  0  0  0  0  0
  -27.0864  -21.5392   17.9754 C   0  0  0  0  0  0
  -28.3376  -25.2081   20.8905 C   0  0  0  0  0  0
  -27.9520  -23.7476   20.3378 C   0  0  0  0  0  0
  -31.5357  -17.2377   21.6820 N   0  3  0  0  0  0
  -29.9114  -15.9629   20.5863 N   0  0  0  0  0  0
  -28.1992  -20.6587   17.9980 O   0  0  0  0  0  0
  -28.9885  -22.8276   19.8362 O   0  0  0  0  0  0
  -31.4663  -12.5445   19.1432 H   0  0  0  0  0  0
  -30.3503  -11.4532   19.9249 H   0  0  0  0  0  0
  -29.7735  -11.7317   17.4877 H   0  0  0  0  0  0
  -29.6364  -13.4584   17.7006 H   0  0  0  0  0  0
  -27.8629  -11.2888   18.8723 H   0  0  0  0  0  0
  -27.3732  -12.5519   17.7777 H   0  0  0  0  0  0
  -27.6274  -14.2523   19.4530 H   0  0  0  0  0  0
  -28.7080  -12.1726   21.4152 H   0  0  0  0  0  0
  -28.4295  -13.8631   21.7675 H   0  0  0  0  0  0
  -25.2762   -9.5693   22.4744 H   0  0  0  0  0  0
  -24.0013   -7.4624   22.7457 H   0  0  0  0  0  0
  -21.0840   -8.8768   19.8946 H   0  0  0  0  0  0
  -22.3688  -10.9668   19.6155 H   0  0  0  0  0  0
  -21.2004   -7.6133   23.9717 H   0  0  0  0  0  0
  -21.1482   -6.0508   25.9074 H   0  0  0  0  0  0
  -22.0592   -2.7605   23.2847 H   0  0  0  0  0  0
  -22.4041  -11.9901   22.4853 H   0  0  0  0  0  0
  -21.1038  -13.1245   22.2586 H   0  0  0  0  0  0
  -24.6177  -15.8199   20.4892 H   0  0  0  0  0  0
  -26.2030  -15.6251   19.9544 H   0  0  0  0  0  0
  -26.7190  -32.5429   23.1079 H   0  0  0  0  0  0
  -25.0052  -33.9703   25.0397 H   0  0  0  0  0  0
  -22.7159  -31.2995   21.3943 H   0  0  0  0  0  0
  -23.3756  -35.9613   23.3269 H   0  0  0  0  0  0
  -24.3595  -36.8944   22.2058 H   0  0  0  0  0  0
  -23.7237  -37.6476   23.6682 H   0  0  0  0  0  0
  -26.0944  -31.5469   20.5996 H   0  0  0  0  0  0
  -26.8426  -30.8384   22.0010 H   0  0  0  0  0  0
  -28.1249  -28.9852   21.1773 H   0  0  0  0  0  0
  -26.0101  -25.8938   19.0440 H   0  0  0  0  0  0
  -23.9750  -27.2797   19.0343 H   0  0  0  0  0  0
  -23.7634  -30.5818   19.4000 H   0  0  0  0  0  0
  -22.7594  -29.2381   19.8553 H   0  0  0  0  0  0
  -25.1291  -36.1910   25.0815 H   0  0  0  0  0  0
  -20.9994  -28.3271   24.1403 H   0  0  0  0  0  0
  -20.5678  -26.2290   23.3614 H   0  0  0  0  0  0
  -21.6645  -26.7437   22.1209 H   0  0  0  0  0  0
  -19.6908  -25.6300   21.1240 H   0  0  0  0  0  0
  -19.6696  -27.3205   20.6747 H   0  0  0  0  0  0
  -17.4203  -26.6694   21.4024 H   0  0  0  0  0  0
  -18.0324  -26.0076   22.9016 H   0  0  0  0  0  0
  -19.7932  -30.7275   24.2273 H   0  0  0  0  0  0
  -17.5010  -31.6265   24.5171 H   0  0  0  0  0  0
  -15.5353  -30.2985   23.7641 H   0  0  0  0  0  0
  -15.8685  -28.0828   22.7047 H   0  0  0  0  0  0
  -24.5873  -30.7109   25.7759 H   0  0  0  0  0  0
  -24.8926  -32.2909   26.4854 H   0  0  0  0  0  0
  -25.8022  -30.8902   27.0207 H   0  0  0  0  0  0
  -26.2920  -29.6754   24.1176 H   0  0  0  0  0  0
  -27.4005  -29.7251   25.4690 H   0  0  0  0  0  0
  -27.8798  -30.4284   23.9425 H   0  0  0  0  0  0
  -27.2639  -33.3618   26.2062 H   0  0  0  0  0  0
  -28.3857  -32.6876   25.0331 H   0  0  0  0  0  0
  -28.0694  -31.8444   26.5419 H   0  0  0  0  0  0
  -28.2557  -38.0131   24.7537 H   0  0  0  0  0  0
  -28.1119  -36.2661   24.6209 H   0  0  0  0  0  0
  -27.2313  -37.1367   25.8854 H   0  0  0  0  0  0
  -20.9354  -29.8762   21.6890 H   0  0  0  0  0  0
  -26.0153  -38.2838   24.1434 H   0  0  0  0  0  0
  -29.9485  -21.7854   22.0749 H   0  0  0  0  0  0
  -30.2718  -18.9662   23.6120 H   0  0  0  0  0  0
  -31.3247  -20.2976   23.2212 H   0  0  0  0  0  0
  -32.4218  -17.9785   23.4120 H   0  0  0  0  0  0
  -28.0606  -17.3233   18.6397 H   0  0  0  0  0  0
  -29.7759  -17.3775   18.1953 H   0  0  0  0  0  0
  -28.6393  -18.4287   17.4084 H   0  0  0  0  0  0
  -32.8807  -19.6767   20.9278 H   0  0  0  0  0  0
  -33.9312  -18.3361   21.3848 H   0  0  0  0  0  0
  -33.7516  -19.7164   22.4569 H   0  0  0  0  0  0
  -26.4095  -21.2477   17.1729 H   0  0  0  0  0  0
  -27.4103  -22.5575   17.7669 H   0  0  0  0  0  0
  -26.5140  -21.5153   18.9050 H   0  0  0  0  0  0
  -29.3175  -25.1313   21.3616 H   0  0  0  0  0  0
  -27.6639  -25.3975   21.7284 H   0  0  0  0  0  0
  -27.1870  -23.8697   19.5739 H   0  0  0  0  0  0
  -27.4468  -23.2223   21.1501 H   0  0  0  0  0  0
  -32.1152  -16.4043   21.6730 H   0  0  0  0  0  0
  -28.9129  -15.9771   20.4875 H   0  0  0  0  0  0
  1 25  1  0  0  0
  1 30  2  0  0  0
  1 86  1  0  0  0
  2  3  1  0  0  0
  2 25  1  0  0  0
  2 89  1  0  0  0
  2 90  1  0  0  0
  3  4  1  0  0  0
  3 91  1  0  0  0
  3 92  1  0  0  0
  4  5  1  0  0  0
  4 93  1  0  0  0
  4 94  1  0  0  0
  5  6  1  0  0  0
  5 26  1  0  0  0
  5 95  1  0  0  0
  6 25  1  0  0  0
  6 96  1  0  0  0
  6 97  1  0  0  0
  7  8  2  0  0  0
  7 26  1  0  0  0
  7 29  1  0  0  0
  8  9  1  0  0  0
  8 22  1  0  0  0
  9 10  1  0  0  0
  9 27  2  0  0  0
 10 11  2  0  0  0
 10 15  1  0  0  0
 11 12  1  0  0  0
 11 98  1  0  0  0
 12 13  2  0  0  0
 12 99  1  0  0  0
 13 14  1  0  0  0
 13 31  1  0  0  0
 14 15  2  0  0  0
 14100  1  0  0  0
 15101  1  0  0  0
 16 17  2  0  0  0
 16 21  1  0  0  0
 16 31  1  0  0  0
 17 18  1  0  0  0
 17102  1  0  0  0
 18 19  2  0  0  0
 18103  1  0  0  0
 19 20  1  0  0  0
 19 24  1  0  0  0
 20 21  2  0  0  0
 20104  1  0  0  0
 21 23  1  0  0  0
 22 28  1  0  0  0
 22 32  2  0  0  0
 26 27  1  0  0  0
 28105  1  0  0  0
 28106  1  0  0  0
 29107  1  0  0  0
 29108  1  0  0  0
 33 34  1  0  0  0
 33 66  1  0  0  0
 33 70  2  0  0  0
 34 36  1  0  0  0
 34 59  1  0  0  0
 34109  1  0  0  0
 35 44  2  0  0  0
 35 45  1  0  0  0
 35 68  1  0  0  0
 36 56  1  0  0  0
 36110  1  0  0  0
 37 39  1  0  0  0
 37 47  1  0  0  0
 37 66  1  0  0  0
 37111  1  0  0  0
 38 43  2  0  0  0
 38 46  1  0  0  0
 38 47  1  0  0  0
 39 64  1  0  0  0
 39 67  2  0  0  0
 40 52  1  0  0  0
 40 53  2  0  0  0
 40 58  1  0  0  0
 41112  1  0  0  0
 41113  1  0  0  0
 41114  1  0  0  0
 41 48  1  0  0  0
 42 43  1  0  0  0
 42 66  1  0  0  0
 42115  1  0  0  0
 42116  1  0  0  0
 43 44  1  0  0  0
 44117  1  0  0  0
 45 46  2  0  0  0
 45118  1  0  0  0
 46119  1  0  0  0
 47120  1  0  0  0
 47121  1  0  0  0
 48 56  1  0  0  0
 48 65  1  0  0  0
 48122  1  0  0  0
 49 50  1  0  0  0
 49 53  1  0  0  0
 49 64  1  0  0  0
 49123  1  0  0  0
 50 51  1  0  0  0
 50124  1  0  0  0
 50125  1  0  0  0
 51 52  1  0  0  0
 51126  1  0  0  0
 51127  1  0  0  0
 52128  1  0  0  0
 52129  1  0  0  0
 53 54  1  0  0  0
 54 55  2  0  0  0
 54130  1  0  0  0
 55 57  1  0  0  0
 55131  1  0  0  0
 56 69  2  0  0  0
 57 58  2  0  0  0
 57132  1  0  0  0
 58133  1  0  0  0
 59 60  1  0  0  0
 59 61  1  0  0  0
 59 62  1  0  0  0
 60134  1  0  0  0
 60135  1  0  0  0
 60136  1  0  0  0
 61137  1  0  0  0
 61138  1  0  0  0
 61139  1  0  0  0
 62140  1  0  0  0
 62141  1  0  0  0
 62142  1  0  0  0
 63 65  1  0  0  0
 63143  1  0  0  0
 63144  1  0  0  0
 63145  1  0  0  0
 64146  1  0  0  0
 65147  1  0  0  0
 68 83  1  0  0  0
 71 73  2  0  0  0
 71 75  1  0  0  0
 71148  1  0  0  0
 72 73  1  0  0  0
 72 74  2  0  0  0
 72 77  1  0  0  0
 73 78  1  0  0  0
 74 76  1  0  0  0
 74 80  1  0  0  0
 75 76  2  0  0  0
 75 88  1  0  0  0
 76 87  1  0  0  0
 77 85  2  0  0  0
 77 86  1  0  0  0
 78 79  1  0  0  0
 78149  1  0  0  0
 78150  1  0  0  0
 79 81  1  0  0  0
 79 85  1  0  0  0
 79151  1  0  0  0
 80152  1  0  0  0
 80153  1  0  0  0
 80154  1  0  0  0
 81155  1  0  0  0
 81156  1  0  0  0
 81157  1  0  0  0
 82 87  1  0  0  0
 82158  1  0  0  0
 82159  1  0  0  0
 82160  1  0  0  0
 83 84  1  0  0  0
 83161  1  0  0  0
 83162  1  0  0  0
 84 88  1  0  0  0
 84163  1  0  0  0
 84164  1  0  0  0
 85165  1  0  0  0
 86166  1  0  0  0
M  CHG  1  85   1
M  ISO  4   1 100  68 101  83 101  86 100
M  END
> <chiral flag>
0

> <version>
0

> <s_m_source_file>
/data/baiqing/PycharmProjects/Reinvent-master-3.2/result/LINK_invent/BTK/process_docking_weight1_custom_sum_contain_oxygen_bond_distance_aromatic_linkinvent_7_9_3/rearranged_h_0157.sdf

> <i_m_source_file_index>
48

> <r_mmod_Potential_Energy-OPLS-2005>
126.576240539551

> <r_mmod_Stretch_Energy-OPLS-2005>
102.741020202637

> <r_mmod_Bend_Energy-OPLS-2005>
181.491058349609

> <r_mmod_Torsional_Energy-OPLS-2005>
315.939880371094

> <r_mmod_Improper_Torsional_Energy-OPLS-2005>
10.908673286438

> <r_mmod_Van_der_Waal_Energy-OPLS-2005>
155.165176391602

> <r_mmod_Electrostatic_Energy-OPLS-2005>
-310.846252441406

> <r_mmod_Solvation_Energy-OPLS-2005>
-393.264190673828

> <b_mmod_Minimization_Converged-OPLS-2005>
0

> <r_mmod_RMS_Derivative-OPLS-2005>
2.00539064407349

$$$$
48
                    3D
 Structure written by MMmdl.
168178  0  0  1  0            999 V2000
  -30.6640  -14.6759   20.5629 C   0  0  0  0  0  0
  -30.4308  -12.4326   19.4742 C   0  0  0  0  0  0
  -29.5108  -12.5258   18.2375 C   0  0  0  0  0  0
  -28.0355  -12.3508   18.6435 C   0  0  0  0  0  0
  -27.6485  -13.2305   19.8612 C   0  0  2  0  0  0
  -28.6872  -13.1156   20.9978 C   0  0  0  0  0  0
  -25.2454  -13.8163   20.5570 C   0  0  0  0  0  0
  -24.1781  -13.0411   20.9174 C   0  0  0  0  0  0
  -24.6402  -11.6905   20.8752 C   0  0  0  0  0  0
  -23.9082  -10.4281   21.0414 C   0  0  0  0  0  0
  -24.3628   -9.4198   21.9193 C   0  0  0  0  0  0
  -23.6296   -8.2236   22.0760 C   0  0  0  0  0  0
  -22.4280   -8.0277   21.3550 C   0  0  0  0  0  0
  -21.9922   -9.0252   20.4651 C   0  0  0  0  0  0
  -22.7253  -10.2128   20.3064 C   0  0  0  0  0  0
  -21.6854   -6.0735   22.5280 C   0  0  0  0  0  0
  -21.4017   -6.5638   23.8213 C   0  0  0  0  0  0
  -21.3658   -5.6790   24.9173 C   0  0  0  0  0  0
  -21.6041   -4.3052   24.7224 C   0  0  0  0  0  0
  -21.8819   -3.8145   23.4346 C   0  0  0  0  0  0
  -21.9191   -4.6963   22.3403 C   0  0  0  0  0  0
  -22.7803  -13.5194   21.1845 C   0  0  0  0  0  0
  -22.1656   -4.2150   21.0979 F   0  0  0  0  0  0
  -21.5630   -3.4536   25.7738 F   0  0  0  0  0  0
  -30.0076  -13.4674   20.4485 N   0  0  0  0  0  0
  -26.2951  -12.9406   20.3291 N   0  0  0  0  0  0
  -25.9343  -11.6547   20.5786 N   0  0  0  0  0  0
  -22.0455  -12.8198   22.0417 N   0  0  0  0  0  0
  -25.3979  -15.1861   20.3774 N   0  0  0  0  0  0
  -31.7665  -14.8355   20.0298 O   0  0  0  0  0  0
  -21.6640   -6.8878   21.4244 O   0  0  0  0  0  0
  -22.3476  -14.5496   20.6696 O   0  0  0  0  0  0
  -24.6287  -31.8569   23.1997 C   0  0  0  0  0  0
  -25.9122  -32.4765   23.8342 C   0  0  1  0  0  0
  -27.2279  -27.2978   20.1327 C   0  0  0  0  0  0
  -25.5928  -33.8567   24.2268 N   0  0  0  0  0  0
  -23.4252  -30.4781   21.5417 C   0  0  2  0  0  0
  -24.8760  -28.9260   20.1136 C   0  0  0  0  0  0
  -22.7490  -29.4610   22.4922 C   0  0  0  0  0  0
  -18.0288  -28.1389   22.8483 C   0  0  0  0  0  0
  -24.1486  -36.7285   23.2641 C   0  0  0  0  0  0
  -25.9679  -30.7819   21.3742 C   0  0  0  0  0  0
  -26.0455  -29.4058   20.7193 C   0  0  0  0  0  0
  -27.2289  -28.6041   20.7171 C   0  0  0  0  0  0
  -26.0403  -26.8718   19.5045 C   0  0  0  0  0  0
  -24.8761  -27.6650   19.4952 C   0  0  0  0  0  0
  -23.6439  -29.8086   20.1590 C   0  0  0  0  0  0
  -25.4111  -36.3075   24.0329 C   0  0  1  0  0  0
  -20.5891  -28.3697   23.1272 C   0  0  2  0  0  0
  -20.6778  -26.9417   22.5408 C   0  0  0  0  0  0
  -19.5754  -26.6385   21.5210 C   0  0  0  0  0  0
  -18.1934  -26.7931   22.1622 C   0  0  0  0  0  0
  -19.1542  -28.8859   23.2872 C   0  0  0  0  0  0
  -18.9466  -30.1460   23.8890 C   0  0  0  0  0  0
  -17.6466  -30.6590   24.0562 C   0  0  0  0  0  0
  -25.9052  -34.9445   23.5101 C   0  0  0  0  0  0
  -16.5356  -29.9087   23.6336 C   0  0  0  0  0  0
  -16.7276  -28.6505   23.0354 C   0  0  0  0  0  0
  -26.4500  -31.6582   25.0720 C   0  0  0  0  0  0
  -25.3730  -31.3724   26.1445 C   0  0  0  0  0  0
  -27.0352  -30.3005   24.6190 C   0  0  0  0  0  0
  -27.6054  -32.4324   25.7494 C   0  0  0  0  0  0
  -27.5574  -37.1797   24.8466 C   0  0  0  0  0  0
  -21.4200  -29.3044   22.3661 N   0  0  0  0  0  0
  -26.4286  -37.3773   23.9411 N   0  0  0  0  0  0
  -24.6926  -31.0563   22.0955 N   0  0  0  0  0  0
  -23.4196  -28.8157   23.3020 O   0  0  0  0  0  0
  -28.3102  -26.4018   20.1467 O   0  0  0  0  0  0
  -26.5621  -34.8915   22.4668 O   0  0  0  0  0  0
  -23.5443  -32.1377   23.7309 O   0  0  0  0  0  0
  -27.5973  -22.9014   19.8930 C   0  0  0  0  0  0
  -29.8544  -21.5948   20.8930 C   0  0  0  0  0  0
  -27.7479  -21.4859   19.7445 C   0  0  0  0  0  0
  -28.5348  -23.7177   20.5740 C   0  0  0  0  0  0
  -29.6928  -23.0183   21.0514 C   0  0  0  0  0  0
  -28.8759  -20.7797   20.2584 C   0  0  0  0  0  0
  -28.8928  -16.6612   23.1105 C   0  0  0  0  0  0
  -25.1967  -20.9935   19.2990 C   0  0  0  0  0  0
  -25.8193  -19.7106   19.7946 C   0  0  0  0  0  0
  -28.1559  -16.9680   21.8097 C   0  0  0  0  0  0
  -30.0546  -15.7500   22.6962 C   0  0  0  0  0  0
  -26.6633  -20.7174   19.0459 C   0  0  0  0  0  0
  -29.2472  -16.9129   20.7344 C   0  0  1  0  0  0
  -30.7739  -23.7772   21.7998 C   0  0  0  0  0  0
  -28.1375  -25.2011   21.0051 C   0  0  0  0  0  0
  -29.8777  -18.3957   20.6156 C   0  0  0  0  0  0
  -30.0580  -15.7265   21.2314 N   0  0  0  0  0  0
  -28.8978  -19.3678   20.0916 O   0  0  0  0  0  0
  -31.4740  -12.5455   19.1754 H   0  0  0  0  0  0
  -30.3625  -11.4419   19.9263 H   0  0  0  0  0  0
  -29.7888  -11.7683   17.5031 H   0  0  0  0  0  0
  -29.6469  -13.4917   17.7487 H   0  0  0  0  0  0
  -27.8825  -11.2986   18.8859 H   0  0  0  0  0  0
  -27.3810  -12.5645   17.7978 H   0  0  0  0  0  0
  -27.6591  -14.2638   19.5133 H   0  0  0  0  0  0
  -28.7069  -12.1039   21.4050 H   0  0  0  0  0  0
  -28.3935  -13.7617   21.8233 H   0  0  0  0  0  0
  -25.2774   -9.5673   22.4771 H   0  0  0  0  0  0
  -23.9999   -7.4629   22.7485 H   0  0  0  0  0  0
  -21.0849   -8.8776   19.8960 H   0  0  0  0  0  0
  -22.3711  -10.9670   19.6177 H   0  0  0  0  0  0
  -21.2014   -7.6146   23.9722 H   0  0  0  0  0  0
  -21.1479   -6.0515   25.9076 H   0  0  0  0  0  0
  -22.0601   -2.7609   23.2842 H   0  0  0  0  0  0
  -22.4061  -11.9863   22.4820 H   0  0  0  0  0  0
  -21.1077  -13.1235   22.2618 H   0  0  0  0  0  0
  -24.6219  -15.8300   20.4815 H   0  0  0  0  0  0
  -26.2408  -15.6322   20.0410 H   0  0  0  0  0  0
  -26.7193  -32.5432   23.1092 H   0  0  0  0  0  0
  -25.0081  -33.9709   25.0418 H   0  0  0  0  0  0
  -22.7212  -31.2993   21.3942 H   0  0  0  0  0  0
  -23.3749  -35.9617   23.3306 H   0  0  0  0  0  0
  -24.3574  -36.8904   22.2055 H   0  0  0  0  0  0
  -23.7239  -37.6487   23.6662 H   0  0  0  0  0  0
  -26.1007  -31.5427   20.6037 H   0  0  0  0  0  0
  -26.8473  -30.8335   22.0047 H   0  0  0  0  0  0
  -28.1270  -28.9666   21.1974 H   0  0  0  0  0  0
  -26.0084  -25.8978   19.0362 H   0  0  0  0  0  0
  -23.9805  -27.2903   19.0192 H   0  0  0  0  0  0
  -23.7658  -30.5832   19.4011 H   0  0  0  0  0  0
  -22.7640  -29.2381   19.8561 H   0  0  0  0  0  0
  -25.1293  -36.1924   25.0823 H   0  0  0  0  0  0
  -20.9982  -28.3276   24.1392 H   0  0  0  0  0  0
  -20.5679  -26.2309   23.3612 H   0  0  0  0  0  0
  -21.6647  -26.7444   22.1202 H   0  0  0  0  0  0
  -19.6921  -25.6293   21.1246 H   0  0  0  0  0  0
  -19.6695  -27.3190   20.6736 H   0  0  0  0  0  0
  -17.4205  -26.6677   21.4023 H   0  0  0  0  0  0
  -18.0335  -26.0073   22.9019 H   0  0  0  0  0  0
  -19.7943  -30.7276   24.2257 H   0  0  0  0  0  0
  -17.5023  -31.6270   24.5165 H   0  0  0  0  0  0
  -15.5358  -30.2987   23.7664 H   0  0  0  0  0  0
  -15.8675  -28.0821   22.7076 H   0  0  0  0  0  0
  -24.5905  -30.7073   25.7773 H   0  0  0  0  0  0
  -24.8921  -32.2892   26.4867 H   0  0  0  0  0  0
  -25.8052  -30.8903   27.0223 H   0  0  0  0  0  0
  -26.2935  -29.6746   24.1214 H   0  0  0  0  0  0
  -27.4046  -29.7269   25.4701 H   0  0  0  0  0  0
  -27.8803  -30.4289   23.9423 H   0  0  0  0  0  0
  -27.2661  -33.3625   26.2063 H   0  0  0  0  0  0
  -28.3868  -32.6883   25.0327 H   0  0  0  0  0  0
  -28.0720  -31.8458   26.5418 H   0  0  0  0  0  0
  -28.2595  -38.0091   24.7509 H   0  0  0  0  0  0
  -28.1066  -36.2624   24.6297 H   0  0  0  0  0  0
  -27.2293  -37.1451   25.8869 H   0  0  0  0  0  0
  -20.9387  -29.8758   21.6858 H   0  0  0  0  0  0
  -26.0165  -38.2847   24.1415 H   0  0  0  0  0  0
  -26.6927  -23.3668   19.5277 H   0  0  0  0  0  0
  -30.7384  -21.1201   21.2950 H   0  0  0  0  0  0
  -28.2398  -16.1941   23.8489 H   0  0  0  0  0  0
  -29.2780  -17.5812   23.5526 H   0  0  0  0  0  0
  -24.9277  -21.7330   20.0510 H   0  0  0  0  0  0
  -24.5119  -20.9126   18.4568 H   0  0  0  0  0  0
  -25.5467  -18.7931   19.2760 H   0  0  0  0  0  0
  -25.9777  -19.6126   20.8670 H   0  0  0  0  0  0
  -27.6133  -17.9140   21.8428 H   0  0  0  0  0  0
  -27.4251  -16.1824   21.6341 H   0  0  0  0  0  0
  -29.9393  -14.7513   23.1208 H   0  0  0  0  0  0
  -31.0061  -16.1416   23.0594 H   0  0  0  0  0  0
  -26.9629  -20.4639   18.0304 H   0  0  0  0  0  0
  -28.8085  -16.6507   19.7706 H   0  0  0  0  0  0
  -31.7081  -23.2154   21.8255 H   0  0  0  0  0  0
  -30.4652  -23.9635   22.8287 H   0  0  0  0  0  0
  -30.9806  -24.7351   21.3216 H   0  0  0  0  0  0
  -28.6620  -25.4266   21.9331 H   0  0  0  0  0  0
  -27.0942  -25.1367   21.3190 H   0  0  0  0  0  0
  -30.7362  -18.3782   19.9441 H   0  0  0  0  0  0
  -30.2464  -18.7317   21.5851 H   0  0  0  0  0  0
  1 25  1  0  0  0
  1 30  2  0  0  0
  1 87  1  0  0  0
  2  3  1  0  0  0
  2 25  1  0  0  0
  2 89  1  0  0  0
  2 90  1  0  0  0
  3  4  1  0  0  0
  3 91  1  0  0  0
  3 92  1  0  0  0
  4  5  1  0  0  0
  4 93  1  0  0  0
  4 94  1  0  0  0
  5  6  1  0  0  0
  5 26  1  0  0  0
  5 95  1  0  0  0
  6 25  1  0  0  0
  6 96  1  0  0  0
  6 97  1  0  0  0
  7  8  2  0  0  0
  7 26  1  0  0  0
  7 29  1  0  0  0
  8  9  1  0  0  0
  8 22  1  0  0  0
  9 10  1  0  0  0
  9 27  2  0  0  0
 10 11  2  0  0  0
 10 15  1  0  0  0
 11 12  1  0  0  0
 11 98  1  0  0  0
 12 13  2  0  0  0
 12 99  1  0  0  0
 13 14  1  0  0  0
 13 31  1  0  0  0
 14 15  2  0  0  0
 14100  1  0  0  0
 15101  1  0  0  0
 16 17  2  0  0  0
 16 21  1  0  0  0
 16 31  1  0  0  0
 17 18  1  0  0  0
 17102  1  0  0  0
 18 19  2  0  0  0
 18103  1  0  0  0
 19 20  1  0  0  0
 19 24  1  0  0  0
 20 21  2  0  0  0
 20104  1  0  0  0
 21 23  1  0  0  0
 22 28  1  0  0  0
 22 32  2  0  0  0
 26 27  1  0  0  0
 28105  1  0  0  0
 28106  1  0  0  0
 29107  1  0  0  0
 29108  1  0  0  0
 33 34  1  0  0  0
 33 66  1  0  0  0
 33 70  2  0  0  0
 34 36  1  0  0  0
 34 59  1  0  0  0
 34109  1  0  0  0
 35 44  2  0  0  0
 35 45  1  0  0  0
 35 68  1  0  0  0
 36 56  1  0  0  0
 36110  1  0  0  0
 37 39  1  0  0  0
 37 47  1  0  0  0
 37 66  1  0  0  0
 37111  1  0  0  0
 38 43  2  0  0  0
 38 46  1  0  0  0
 38 47  1  0  0  0
 39 64  1  0  0  0
 39 67  2  0  0  0
 40 52  1  0  0  0
 40 53  2  0  0  0
 40 58  1  0  0  0
 41112  1  0  0  0
 41113  1  0  0  0
 41114  1  0  0  0
 41 48  1  0  0  0
 42 43  1  0  0  0
 42 66  1  0  0  0
 42115  1  0  0  0
 42116  1  0  0  0
 43 44  1  0  0  0
 44117  1  0  0  0
 45 46  2  0  0  0
 45118  1  0  0  0
 46119  1  0  0  0
 47120  1  0  0  0
 47121  1  0  0  0
 48 56  1  0  0  0
 48 65  1  0  0  0
 48122  1  0  0  0
 49 50  1  0  0  0
 49 53  1  0  0  0
 49 64  1  0  0  0
 49123  1  0  0  0
 50 51  1  0  0  0
 50124  1  0  0  0
 50125  1  0  0  0
 51 52  1  0  0  0
 51126  1  0  0  0
 51127  1  0  0  0
 52128  1  0  0  0
 52129  1  0  0  0
 53 54  1  0  0  0
 54 55  2  0  0  0
 54130  1  0  0  0
 55 57  1  0  0  0
 55131  1  0  0  0
 56 69  2  0  0  0
 57 58  2  0  0  0
 57132  1  0  0  0
 58133  1  0  0  0
 59 60  1  0  0  0
 59 61  1  0  0  0
 59 62  1  0  0  0
 60134  1  0  0  0
 60135  1  0  0  0
 60136  1  0  0  0
 61137  1  0  0  0
 61138  1  0  0  0
 61139  1  0  0  0
 62140  1  0  0  0
 62141  1  0  0  0
 62142  1  0  0  0
 63 65  1  0  0  0
 63143  1  0  0  0
 63144  1  0  0  0
 63145  1  0  0  0
 64146  1  0  0  0
 65147  1  0  0  0
 68 85  1  0  0  0
 71 73  2  0  0  0
 71 74  1  0  0  0
 71148  1  0  0  0
 72 75  1  0  0  0
 72 76  2  0  0  0
 72149  1  0  0  0
 73 76  1  0  0  0
 73 82  1  0  0  0
 74 75  2  0  0  0
 74 85  1  0  0  0
 75 84  1  0  0  0
 76 88  1  0  0  0
 77 80  1  0  0  0
 77 81  1  0  0  0
 77150  1  0  0  0
 77151  1  0  0  0
 78 79  1  0  0  0
 78 82  1  0  0  0
 78152  1  0  0  0
 78153  1  0  0  0
 79 82  1  0  0  0
 79154  1  0  0  0
 79155  1  0  0  0
 80 83  1  0  0  0
 80156  1  0  0  0
 80157  1  0  0  0
 81 87  1  0  0  0
 81158  1  0  0  0
 81159  1  0  0  0
 82160  1  0  0  0
 83 86  1  0  0  0
 83 87  1  0  0  0
 83161  1  0  0  0
 84162  1  0  0  0
 84163  1  0  0  0
 84164  1  0  0  0
 85165  1  0  0  0
 85166  1  0  0  0
 86 88  1  0  0  0
 86167  1  0  0  0
 86168  1  0  0  0
M  ISO  4   1 100  68 101  85 101  87 100
M  END
> <chiral flag>
0

> <version>
0

> <s_m_source_file>
/data/baiqing/PycharmProjects/Reinvent-master-3.2/result/LINK_invent/BTK/process_docking_weight1_custom_sum_contain_oxygen_bond_distance_aromatic_linkinvent_7_9_3/rearranged_h_0157.sdf

> <i_m_source_file_index>
49

> <r_mmod_Potential_Energy-OPLS-2005>
459.537902832031

> <r_mmod_Stretch_Energy-OPLS-2005>
101.94312286377

> <r_mmod_Bend_Energy-OPLS-2005>
208.37190246582

> <r_mmod_Torsional_Energy-OPLS-2005>
438.664611816406

> <r_mmod_Improper_Torsional_Energy-OPLS-2005>
3.90670442581177

> <r_mmod_Van_der_Waal_Energy-OPLS-2005>
119.97779083252

> <r_mmod_Electrostatic_Energy-OPLS-2005>
-282.277801513672

> <r_mmod_Solvation_Energy-OPLS-2005>
-192.068176269531

> <b_mmod_Minimization_Converged-OPLS-2005>
0

> <r_mmod_RMS_Derivative-OPLS-2005>
0.588146448135376

$$$$
49
                    3D
 Structure written by MMmdl.
179188  0  0  1  0            999 V2000
  -30.5973  -14.8660   20.4379 C   0  0  0  0  0  0
  -30.4226  -12.5359   19.4918 C   0  0  0  0  0  0
  -29.5112  -12.5232   18.2459 C   0  0  0  0  0  0
  -28.0410  -12.3297   18.6606 C   0  0  0  0  0  0
  -27.6286  -13.2511   19.8401 C   0  0  2  0  0  0
  -28.6702  -13.2604   20.9777 C   0  0  0  0  0  0
  -25.2454  -13.8233   20.5723 C   0  0  0  0  0  0
  -24.1772  -13.0444   20.9223 C   0  0  0  0  0  0
  -24.6397  -11.6931   20.8749 C   0  0  0  0  0  0
  -23.9085  -10.4294   21.0396 C   0  0  0  0  0  0
  -24.3635   -9.4208   21.9177 C   0  0  0  0  0  0
  -23.6309   -8.2242   22.0748 C   0  0  0  0  0  0
  -22.4289   -8.0280   21.3540 C   0  0  0  0  0  0
  -21.9926   -9.0249   20.4638 C   0  0  0  0  0  0
  -22.7255  -10.2131   20.3045 C   0  0  0  0  0  0
  -21.6858   -6.0742   22.5282 C   0  0  0  0  0  0
  -21.4013   -6.5642   23.8214 C   0  0  0  0  0  0
  -21.3662   -5.6793   24.9176 C   0  0  0  0  0  0
  -21.6048   -4.3058   24.7227 C   0  0  0  0  0  0
  -21.8819   -3.8151   23.4346 C   0  0  0  0  0  0
  -21.9192   -4.6970   22.3405 C   0  0  0  0  0  0
  -22.7789  -13.5200   21.1883 C   0  0  0  0  0  0
  -22.1658   -4.2157   21.0983 F   0  0  0  0  0  0
  -21.5633   -3.4539   25.7738 F   0  0  0  0  0  0
  -29.9525  -13.6382   20.3760 N   0  0  0  0  0  0
  -26.2880  -12.9470   20.3258 N   0  0  0  0  0  0
  -25.9330  -11.6594   20.5742 N   0  0  0  0  0  0
  -22.0448  -12.8177   22.0442 N   0  0  0  0  0  0
  -25.4139  -15.1963   20.4199 N   0  0  0  0  0  0
  -31.7995  -14.8825   20.1491 O   0  0  0  0  0  0
  -21.6647   -6.8880   21.4241 O   0  0  0  0  0  0
  -22.3459  -14.5504   20.6732 O   0  0  0  0  0  0
  -24.6390  -31.8484   23.1909 C   0  0  0  0  0  0
  -25.9179  -32.4713   23.8288 C   0  0  1  0  0  0
  -27.2128  -27.1772   20.1481 C   0  0  0  0  0  0
  -25.5941  -33.8519   24.2207 N   0  0  0  0  0  0
  -23.4402  -30.4686   21.5356 C   0  0  2  0  0  0
  -24.8891  -28.9031   20.1079 C   0  0  0  0  0  0
  -22.7542  -29.4569   22.4872 C   0  0  0  0  0  0
  -18.0300  -28.1392   22.8478 C   0  0  0  0  0  0
  -24.1490  -36.7262   23.2642 C   0  0  0  0  0  0
  -25.9931  -30.7355   21.3837 C   0  0  0  0  0  0
  -26.0640  -29.3508   20.7247 C   0  0  0  0  0  0
  -27.2283  -28.5024   20.7295 C   0  0  0  0  0  0
  -26.0169  -26.8241   19.4854 C   0  0  0  0  0  0
  -24.8762  -27.6523   19.4731 C   0  0  0  0  0  0
  -23.6633  -29.7995   20.1534 C   0  0  0  0  0  0
  -25.4121  -36.3043   24.0319 C   0  0  1  0  0  0
  -20.5909  -28.3715   23.1244 C   0  0  2  0  0  0
  -20.6785  -26.9422   22.5407 C   0  0  0  0  0  0
  -19.5759  -26.6382   21.5213 C   0  0  0  0  0  0
  -18.1939  -26.7934   22.1622 C   0  0  0  0  0  0
  -19.1554  -28.8873   23.2856 C   0  0  0  0  0  0
  -18.9476  -30.1469   23.8886 C   0  0  0  0  0  0
  -17.6471  -30.6594   24.0562 C   0  0  0  0  0  0
  -25.9070  -34.9416   23.5071 C   0  0  0  0  0  0
  -16.5363  -29.9089   23.6334 C   0  0  0  0  0  0
  -16.7284  -28.6505   23.0360 C   0  0  0  0  0  0
  -26.4514  -31.6564   25.0712 C   0  0  0  0  0  0
  -25.3700  -31.3741   26.1406 C   0  0  0  0  0  0
  -27.0367  -30.2961   24.6262 C   0  0  0  0  0  0
  -27.6046  -32.4319   25.7498 C   0  0  0  0  0  0
  -27.5578  -37.1786   24.8462 C   0  0  0  0  0  0
  -21.4242  -29.3047   22.3620 N   0  0  0  0  0  0
  -26.4286  -37.3753   23.9407 N   0  0  0  0  0  0
  -24.7100  -31.0374   22.0923 N   0  0  0  0  0  0
  -23.4205  -28.8118   23.3010 O   0  0  0  0  0  0
  -28.2679  -26.2131   20.2391 O   0  0  0  0  0  0
  -26.5658  -34.8906   22.4651 O   0  0  0  0  0  0
  -23.5519  -32.1347   23.7150 O   0  0  0  0  0  0
  -29.6993  -21.0049   21.0326 C   0  0  0  0  0  0
  -28.8588  -22.0552   20.4168 C   0  0  0  0  0  0
  -30.6487  -21.5038   21.9949 C   0  0  0  0  0  0
  -29.7766  -23.8334   21.8367 C   0  0  0  0  0  0
  -28.9041  -23.5000   20.7695 C   0  0  0  0  0  0
  -30.7196  -22.8936   22.3589 C   0  0  0  0  0  0
  -29.1373  -18.3444   21.7674 C   0  0  0  0  0  0
  -29.4627  -18.6095   19.4242 C   0  0  0  0  0  0
  -29.7637  -16.8663   21.7655 C   0  0  0  0  0  0
  -30.0614  -17.1057   19.3540 C   0  0  0  0  0  0
  -29.7645  -19.3665   20.7518 C   0  0  0  0  0  0
  -27.8597  -21.5986   19.3690 C   0  0  0  0  0  0
  -29.6489  -25.2269   22.4651 C   0  0  0  0  0  0
  -33.2783  -23.1080   22.9666 C   0  0  0  0  0  0
  -31.4669  -23.2533   24.8139 C   0  0  0  0  0  0
  -33.5562  -19.1909   22.4041 C   0  0  0  0  0  0
  -31.6130  -20.5119   22.6716 C   0  0  0  0  0  0
  -27.9817  -24.6980   20.1242 C   0  0  0  0  0  0
  -31.8130  -23.4429   23.3214 C   0  0  0  0  0  0
  -29.8813  -16.0973   20.4792 N   0  0  0  0  0  0
  -32.7274  -20.1985   21.8426 O   0  0  0  0  0  0
  -31.4629  -12.6593   19.1866 H   0  0  0  0  0  0
  -30.3794  -11.5790   20.0140 H   0  0  0  0  0  0
  -29.8150  -11.7319   17.5595 H   0  0  0  0  0  0
  -29.6212  -13.4620   17.7004 H   0  0  0  0  0  0
  -27.9174  -11.2848   18.9476 H   0  0  0  0  0  0
  -27.3826  -12.4904   17.8064 H   0  0  0  0  0  0
  -27.5975  -14.2609   19.4294 H   0  0  0  0  0  0
  -28.7349  -12.2852   21.4619 H   0  0  0  0  0  0
  -28.3858  -13.9755   21.7505 H   0  0  0  0  0  0
  -25.2776   -9.5688   22.4758 H   0  0  0  0  0  0
  -24.0024   -7.4634   22.7469 H   0  0  0  0  0  0
  -21.0857   -8.8763   19.8940 H   0  0  0  0  0  0
  -22.3707  -10.9670   19.6156 H   0  0  0  0  0  0
  -21.1997   -7.6148   23.9724 H   0  0  0  0  0  0
  -21.1487   -6.0520   25.9081 H   0  0  0  0  0  0
  -22.0596   -2.7615   23.2847 H   0  0  0  0  0  0
  -22.4081  -11.9852   22.4837 H   0  0  0  0  0  0
  -21.1053  -13.1170   22.2634 H   0  0  0  0  0  0
  -24.6513  -15.8526   20.5471 H   0  0  0  0  0  0
  -26.2784  -15.6421   20.1383 H   0  0  0  0  0  0
  -26.7244  -32.5333   23.1023 H   0  0  0  0  0  0
  -25.0050  -33.9638   25.0327 H   0  0  0  0  0  0
  -22.7403  -31.2930   21.3829 H   0  0  0  0  0  0
  -23.3761  -35.9584   23.3284 H   0  0  0  0  0  0
  -24.3579  -36.8915   22.2060 H   0  0  0  0  0  0
  -23.7235  -37.6448   23.6693 H   0  0  0  0  0  0
  -26.1428  -31.4930   20.6132 H   0  0  0  0  0  0
  -26.8657  -30.7852   22.0232 H   0  0  0  0  0  0
  -28.1231  -28.8356   21.2361 H   0  0  0  0  0  0
  -25.9320  -25.8686   18.9901 H   0  0  0  0  0  0
  -23.9794  -27.3056   18.9785 H   0  0  0  0  0  0
  -23.7945  -30.5746   19.3974 H   0  0  0  0  0  0
  -22.7796  -29.2377   19.8453 H   0  0  0  0  0  0
  -25.1308  -36.1879   25.0813 H   0  0  0  0  0  0
  -21.0003  -28.3307   24.1365 H   0  0  0  0  0  0
  -20.5679  -26.2330   23.3624 H   0  0  0  0  0  0
  -21.6652  -26.7436   22.1201 H   0  0  0  0  0  0
  -19.6921  -25.6289   21.1255 H   0  0  0  0  0  0
  -19.6700  -27.3182   20.6735 H   0  0  0  0  0  0
  -17.4209  -26.6685   21.4024 H   0  0  0  0  0  0
  -18.0336  -26.0079   22.9023 H   0  0  0  0  0  0
  -19.7953  -30.7286   24.2254 H   0  0  0  0  0  0
  -17.5027  -31.6274   24.5164 H   0  0  0  0  0  0
  -15.5364  -30.2989   23.7667 H   0  0  0  0  0  0
  -15.8683  -28.0819   22.7092 H   0  0  0  0  0  0
  -24.5889  -30.7085   25.7720 H   0  0  0  0  0  0
  -24.8882  -32.2919   26.4782 H   0  0  0  0  0  0
  -25.7982  -30.8943   27.0216 H   0  0  0  0  0  0
  -26.2975  -29.6690   24.1268 H   0  0  0  0  0  0
  -27.3988  -29.7249   25.4822 H   0  0  0  0  0  0
  -27.8878  -30.4197   23.9563 H   0  0  0  0  0  0
  -27.2646  -33.3635   26.2031 H   0  0  0  0  0  0
  -28.3885  -32.6852   25.0349 H   0  0  0  0  0  0
  -28.0682  -31.8474   26.5455 H   0  0  0  0  0  0
  -28.2577  -38.0099   24.7521 H   0  0  0  0  0  0
  -28.1094  -36.2630   24.6275 H   0  0  0  0  0  0
  -27.2295  -37.1414   25.8863 H   0  0  0  0  0  0
  -20.9444  -29.8760   21.6804 H   0  0  0  0  0  0
  -26.0157  -38.2820   24.1420 H   0  0  0  0  0  0
  -29.1965  -18.7342   22.7822 H   0  0  0  0  0  0
  -28.0636  -18.2788   21.5834 H   0  0  0  0  0  0
  -28.3864  -18.5851   19.2499 H   0  0  0  0  0  0
  -29.8799  -19.1793   18.5931 H   0  0  0  0  0  0
  -29.1955  -16.2534   22.4658 H   0  0  0  0  0  0
  -30.7680  -16.9310   22.1888 H   0  0  0  0  0  0
  -31.1349  -17.2080   19.1881 H   0  0  0  0  0  0
  -29.6819  -16.6377   18.4448 H   0  0  0  0  0  0
  -30.8330  -19.1791   20.7720 H   0  0  0  0  0  0
  -27.3290  -20.7115   19.7155 H   0  0  0  0  0  0
  -28.3713  -21.3491   18.4389 H   0  0  0  0  0  0
  -27.1044  -22.3518   19.1523 H   0  0  0  0  0  0
  -28.6099  -25.5498   22.5028 H   0  0  0  0  0  0
  -30.2349  -25.9633   21.9137 H   0  0  0  0  0  0
  -29.9421  -25.2669   23.5114 H   0  0  0  0  0  0
  -33.4620  -23.2417   21.9000 H   0  0  0  0  0  0
  -33.6045  -22.1101   23.2424 H   0  0  0  0  0  0
  -33.9528  -23.7843   23.4932 H   0  0  0  0  0  0
  -30.5049  -23.7050   25.0547 H   0  0  0  0  0  0
  -32.2125  -23.7329   25.4485 H   0  0  0  0  0  0
  -31.4030  -22.2131   25.1244 H   0  0  0  0  0  0
  -34.3974  -18.9906   21.7407 H   0  0  0  0  0  0
  -33.0084  -18.2568   22.5370 H   0  0  0  0  0  0
  -33.9580  -19.4979   23.3707 H   0  0  0  0  0  0
  -31.1033  -19.5988   22.9546 H   0  0  0  0  0  0
  -31.9577  -20.8571   23.6363 H   0  0  0  0  0  0
  -26.9891  -24.5226   20.5398 H   0  0  0  0  0  0
  -27.9022  -24.4919   19.0571 H   0  0  0  0  0  0
  -31.8673  -24.5180   23.1755 H   0  0  0  0  0  0
  1 25  1  0  0  0
  1 30  2  0  0  0
  1 90  1  0  0  0
  2  3  1  0  0  0
  2 25  1  0  0  0
  2 92  1  0  0  0
  2 93  1  0  0  0
  3  4  1  0  0  0
  3 94  1  0  0  0
  3 95  1  0  0  0
  4  5  1  0  0  0
  4 96  1  0  0  0
  4 97  1  0  0  0
  5  6  1  0  0  0
  5 26  1  0  0  0
  5 98  1  0  0  0
  6 25  1  0  0  0
  6 99  1  0  0  0
  6100  1  0  0  0
  7  8  2  0  0  0
  7 26  1  0  0  0
  7 29  1  0  0  0
  8  9  1  0  0  0
  8 22  1  0  0  0
  9 10  1  0  0  0
  9 27  2  0  0  0
 10 11  2  0  0  0
 10 15  1  0  0  0
 11 12  1  0  0  0
 11101  1  0  0  0
 12 13  2  0  0  0
 12102  1  0  0  0
 13 14  1  0  0  0
 13 31  1  0  0  0
 14 15  2  0  0  0
 14103  1  0  0  0
 15104  1  0  0  0
 16 17  2  0  0  0
 16 21  1  0  0  0
 16 31  1  0  0  0
 17 18  1  0  0  0
 17105  1  0  0  0
 18 19  2  0  0  0
 18106  1  0  0  0
 19 20  1  0  0  0
 19 24  1  0  0  0
 20 21  2  0  0  0
 20107  1  0  0  0
 21 23  1  0  0  0
 22 28  1  0  0  0
 22 32  2  0  0  0
 26 27  1  0  0  0
 28108  1  0  0  0
 28109  1  0  0  0
 29110  1  0  0  0
 29111  1  0  0  0
 33 34  1  0  0  0
 33 66  1  0  0  0
 33 70  2  0  0  0
 34 36  1  0  0  0
 34 59  1  0  0  0
 34112  1  0  0  0
 35 44  2  0  0  0
 35 45  1  0  0  0
 35 68  1  0  0  0
 36 56  1  0  0  0
 36113  1  0  0  0
 37 39  1  0  0  0
 37 47  1  0  0  0
 37 66  1  0  0  0
 37114  1  0  0  0
 38 43  2  0  0  0
 38 46  1  0  0  0
 38 47  1  0  0  0
 39 64  1  0  0  0
 39 67  2  0  0  0
 40 52  1  0  0  0
 40 53  2  0  0  0
 40 58  1  0  0  0
 41115  1  0  0  0
 41116  1  0  0  0
 41117  1  0  0  0
 41 48  1  0  0  0
 42 43  1  0  0  0
 42 66  1  0  0  0
 42118  1  0  0  0
 42119  1  0  0  0
 43 44  1  0  0  0
 44120  1  0  0  0
 45 46  2  0  0  0
 45121  1  0  0  0
 46122  1  0  0  0
 47123  1  0  0  0
 47124  1  0  0  0
 48 56  1  0  0  0
 48 65  1  0  0  0
 48125  1  0  0  0
 49 50  1  0  0  0
 49 53  1  0  0  0
 49 64  1  0  0  0
 49126  1  0  0  0
 50 51  1  0  0  0
 50127  1  0  0  0
 50128  1  0  0  0
 51 52  1  0  0  0
 51129  1  0  0  0
 51130  1  0  0  0
 52131  1  0  0  0
 52132  1  0  0  0
 53 54  1  0  0  0
 54 55  2  0  0  0
 54133  1  0  0  0
 55 57  1  0  0  0
 55134  1  0  0  0
 56 69  2  0  0  0
 57 58  2  0  0  0
 57135  1  0  0  0
 58136  1  0  0  0
 59 60  1  0  0  0
 59 61  1  0  0  0
 59 62  1  0  0  0
 60137  1  0  0  0
 60138  1  0  0  0
 60139  1  0  0  0
 61140  1  0  0  0
 61141  1  0  0  0
 61142  1  0  0  0
 62143  1  0  0  0
 62144  1  0  0  0
 62145  1  0  0  0
 63 65  1  0  0  0
 63146  1  0  0  0
 63147  1  0  0  0
 63148  1  0  0  0
 64149  1  0  0  0
 65150  1  0  0  0
 68 88  1  0  0  0
 71 72  2  0  0  0
 71 73  1  0  0  0
 71 81  1  0  0  0
 72 75  1  0  0  0
 72 82  1  0  0  0
 73 76  2  0  0  0
 73 87  1  0  0  0
 74 75  2  0  0  0
 74 76  1  0  0  0
 74 83  1  0  0  0
 75 88  1  0  0  0
 76 89  1  0  0  0
 77 79  1  0  0  0
 77 81  1  0  0  0
 77151  1  0  0  0
 77152  1  0  0  0
 78 80  1  0  0  0
 78 81  1  0  0  0
 78153  1  0  0  0
 78154  1  0  0  0
 79 90  1  0  0  0
 79155  1  0  0  0
 79156  1  0  0  0
 80 90  1  0  0  0
 80157  1  0  0  0
 80158  1  0  0  0
 81159  1  0  0  0
 82160  1  0  0  0
 82161  1  0  0  0
 82162  1  0  0  0
 83163  1  0  0  0
 83164  1  0  0  0
 83165  1  0  0  0
 84166  1  0  0  0
 84167  1  0  0  0
 84168  1  0  0  0
 84 89  1  0  0  0
 85 89  1  0  0  0
 85169  1  0  0  0
 85170  1  0  0  0
 85171  1  0  0  0
 86 91  1  0  0  0
 86172  1  0  0  0
 86173  1  0  0  0
 86174  1  0  0  0
 87 91  1  0  0  0
 87175  1  0  0  0
 87176  1  0  0  0
 88177  1  0  0  0
 88178  1  0  0  0
 89179  1  0  0  0
M  ISO  4   1 100  68 101  88 101  90 100
M  END
> <chiral flag>
0

> <version>
0

> <s_m_source_file>
/data/baiqing/PycharmProjects/Reinvent-master-3.2/result/LINK_invent/BTK/process_docking_weight1_custom_sum_contain_oxygen_bond_distance_aromatic_linkinvent_7_9_3/rearranged_h_0157.sdf

> <i_m_source_file_index>
50

> <r_mmod_Potential_Energy-OPLS-2005>
717.709899902344

> <r_mmod_Stretch_Energy-OPLS-2005>
223.001953125

> <r_mmod_Bend_Energy-OPLS-2005>
274.626159667969

> <r_mmod_Torsional_Energy-OPLS-2005>
360.309143066406

> <r_mmod_Improper_Torsional_Energy-OPLS-2005>
12.7382049560547

> <r_mmod_Van_der_Waal_Energy-OPLS-2005>
172.83366394043

> <r_mmod_Electrostatic_Energy-OPLS-2005>
-281.697296142578

> <r_mmod_Solvation_Energy-OPLS-2005>
-193.397857666016

> <b_mmod_Minimization_Converged-OPLS-2005>
0

> <r_mmod_RMS_Derivative-OPLS-2005>
0.981525957584381

$$$$
50
                    3D
 Structure written by MMmdl.
165174  0  0  1  0            999 V2000
  -30.7330  -14.6209   20.5355 C   0  0  0  0  0  0
  -30.4110  -12.3949   19.4732 C   0  0  0  0  0  0
  -29.4981  -12.4855   18.2350 C   0  0  0  0  0  0
  -28.0273  -12.3026   18.6499 C   0  0  0  0  0  0
  -27.6382  -13.2058   19.8461 C   0  0  2  0  0  0
  -28.6850  -13.1489   20.9891 C   0  0  0  0  0  0
  -25.2497  -13.8135   20.5686 C   0  0  0  0  0  0
  -24.1778  -13.0417   20.9236 C   0  0  0  0  0  0
  -24.6352  -11.6896   20.8765 C   0  0  0  0  0  0
  -23.9029  -10.4286   21.0410 C   0  0  0  0  0  0
  -24.3593   -9.4203   21.9183 C   0  0  0  0  0  0
  -23.6273   -8.2243   22.0747 C   0  0  0  0  0  0
  -22.4250   -8.0285   21.3547 C   0  0  0  0  0  0
  -21.9890   -9.0244   20.4632 C   0  0  0  0  0  0
  -22.7214  -10.2127   20.3043 C   0  0  0  0  0  0
  -21.6844   -6.0735   22.5279 C   0  0  0  0  0  0
  -21.4008   -6.5632   23.8214 C   0  0  0  0  0  0
  -21.3662   -5.6779   24.9172 C   0  0  0  0  0  0
  -21.6058   -4.3042   24.7223 C   0  0  0  0  0  0
  -21.8820   -3.8139   23.4335 C   0  0  0  0  0  0
  -21.9186   -4.6960   22.3400 C   0  0  0  0  0  0
  -22.7811  -13.5214   21.1888 C   0  0  0  0  0  0
  -22.1640   -4.2164   21.0973 F   0  0  0  0  0  0
  -21.5634   -3.4517   25.7724 F   0  0  0  0  0  0
  -30.0037  -13.4593   20.4203 N   0  0  0  0  0  0
  -26.2905  -12.9304   20.3269 N   0  0  0  0  0  0
  -25.9276  -11.6473   20.5762 N   0  0  0  0  0  0
  -22.0444  -12.8212   22.0441 N   0  0  0  0  0  0
  -25.4144  -15.1853   20.4040 N   0  0  0  0  0  0
  -31.8834  -14.6588   20.0892 O   0  0  0  0  0  0
  -21.6629   -6.8875   21.4241 O   0  0  0  0  0  0
  -22.3502  -14.5522   20.6711 O   0  0  0  0  0  0
  -24.6269  -31.8646   23.2121 C   0  0  0  0  0  0
  -25.9131  -32.4799   23.8434 C   0  0  1  0  0  0
  -27.1994  -27.3265   20.0909 C   0  0  0  0  0  0
  -25.5951  -33.8602   24.2349 N   0  0  0  0  0  0
  -23.4171  -30.4964   21.5570 C   0  0  2  0  0  0
  -24.8565  -28.9732   20.1088 C   0  0  0  0  0  0
  -22.7478  -29.4653   22.4976 C   0  0  0  0  0  0
  -18.0266  -28.1383   22.8473 C   0  0  0  0  0  0
  -24.1482  -36.7290   23.2628 C   0  0  0  0  0  0
  -25.9631  -30.7911   21.3918 C   0  0  0  0  0  0
  -26.0294  -29.4248   20.7263 C   0  0  0  0  0  0
  -27.2023  -28.6090   20.7217 C   0  0  0  0  0  0
  -26.0071  -26.9690   19.4048 C   0  0  0  0  0  0
  -24.8470  -27.7483   19.4418 C   0  0  0  0  0  0
  -23.6270  -29.8510   20.1670 C   0  0  0  0  0  0
  -25.4101  -36.3096   24.0349 C   0  0  1  0  0  0
  -20.5869  -28.3689   23.1259 C   0  0  2  0  0  0
  -20.6769  -26.9416   22.5382 C   0  0  0  0  0  0
  -19.5751  -26.6383   21.5187 C   0  0  0  0  0  0
  -18.1918  -26.7926   22.1595 C   0  0  0  0  0  0
  -19.1523  -28.8850   23.2860 C   0  0  0  0  0  0
  -18.9459  -30.1444   23.8900 C   0  0  0  0  0  0
  -17.6459  -30.6589   24.0555 C   0  0  0  0  0  0
  -25.9046  -34.9464   23.5137 C   0  0  0  0  0  0
  -16.5345  -29.9079   23.6342 C   0  0  0  0  0  0
  -16.7256  -28.6492   23.0371 C   0  0  0  0  0  0
  -26.4505  -31.6598   25.0798 C   0  0  0  0  0  0
  -25.3740  -31.3714   26.1508 C   0  0  0  0  0  0
  -27.0356  -30.3014   24.6267 C   0  0  0  0  0  0
  -27.6067  -32.4327   25.7564 C   0  0  0  0  0  0
  -27.5599  -37.1769   24.8435 C   0  0  0  0  0  0
  -21.4189  -29.3061   22.3698 N   0  0  0  0  0  0
  -26.4266  -37.3802   23.9458 N   0  0  0  0  0  0
  -24.6875  -31.0670   22.1082 N   0  0  0  0  0  0
  -23.4202  -28.8156   23.3033 O   0  0  0  0  0  0
  -28.2768  -26.4187   20.1738 O   0  0  0  0  0  0
  -26.5613  -34.8927   22.4701 O   0  0  0  0  0  0
  -23.5429  -32.1451   23.7441 O   0  0  0  0  0  0
  -29.3449  -23.5316   21.3100 C   0  0  0  0  0  0
  -28.9652  -21.3044   19.6605 C   0  0  0  0  0  0
  -29.7902  -22.2392   21.7429 C   0  0  0  0  0  0
  -28.6985  -23.7387   20.0687 C   0  0  0  0  0  0
  -28.5159  -22.5855   19.2503 C   0  0  0  0  0  0
  -29.5933  -21.0828   20.9070 C   0  0  0  0  0  0
  -30.4792  -22.1635   23.0900 C   0  0  0  0  0  0
  -31.4982  -17.9172   20.8781 C   0  0  0  0  0  0
  -29.1386  -17.7338   20.0080 C   0  0  0  0  0  0
  -31.1523  -16.7217   21.8118 C   0  0  0  0  0  0
  -28.9737  -16.4725   20.9197 C   0  0  0  0  0  0
  -30.2777  -18.7306   20.3812 C   0  0  0  0  0  0
  -27.7618  -22.6700   17.9293 C   0  0  0  0  0  0
  -27.9745  -25.0644   19.6704 C   0  0  0  0  0  0
  -30.2400  -15.7459   21.1715 N   0  0  0  0  0  0
  -30.5824  -20.9750   23.6655 N   0  0  0  0  0  0
  -30.8923  -23.1737   23.6634 O   0  0  0  0  0  0
  -29.9393  -19.7836   21.3283 O   0  0  0  0  0  0
  -31.4556  -12.4682   19.1690 H   0  0  0  0  0  0
  -30.3196  -11.4160   19.9472 H   0  0  0  0  0  0
  -29.7775  -11.7252   17.5042 H   0  0  0  0  0  0
  -29.6323  -13.4498   17.7416 H   0  0  0  0  0  0
  -27.8864  -11.2544   18.9157 H   0  0  0  0  0  0
  -27.3685  -12.4921   17.8022 H   0  0  0  0  0  0
  -27.6177  -14.2015   19.4144 H   0  0  0  0  0  0
  -28.7031  -12.1573   21.4434 H   0  0  0  0  0  0
  -28.4222  -13.8412   21.7901 H   0  0  0  0  0  0
  -25.2763   -9.5671   22.4727 H   0  0  0  0  0  0
  -23.9984   -7.4632   22.7464 H   0  0  0  0  0  0
  -21.0833   -8.8756   19.8926 H   0  0  0  0  0  0
  -22.3699  -10.9641   19.6112 H   0  0  0  0  0  0
  -21.1991   -7.6132   23.9722 H   0  0  0  0  0  0
  -21.1472   -6.0501   25.9076 H   0  0  0  0  0  0
  -22.0595   -2.7607   23.2820 H   0  0  0  0  0  0
  -22.4040  -11.9882   22.4860 H   0  0  0  0  0  0
  -21.1033  -13.1204   22.2599 H   0  0  0  0  0  0
  -24.6408  -15.8319   20.5222 H   0  0  0  0  0  0
  -26.2549  -15.6284   20.0607 H   0  0  0  0  0  0
  -26.7189  -32.5464   23.1168 H   0  0  0  0  0  0
  -25.0141  -33.9747   25.0525 H   0  0  0  0  0  0
  -22.7104  -31.3175   21.4238 H   0  0  0  0  0  0
  -23.3800  -35.9553   23.3173 H   0  0  0  0  0  0
  -24.3628  -36.9030   22.2077 H   0  0  0  0  0  0
  -23.7154  -37.6423   23.6721 H   0  0  0  0  0  0
  -26.1054  -31.5573   20.6286 H   0  0  0  0  0  0
  -26.8408  -30.8255   22.0260 H   0  0  0  0  0  0
  -28.0946  -28.9426   21.2314 H   0  0  0  0  0  0
  -25.9047  -26.0692   18.8195 H   0  0  0  0  0  0
  -23.9561  -27.4093   18.9317 H   0  0  0  0  0  0
  -23.7451  -30.6361   19.4195 H   0  0  0  0  0  0
  -22.7455  -29.2827   19.8617 H   0  0  0  0  0  0
  -25.1251  -36.1945   25.0832 H   0  0  0  0  0  0
  -20.9927  -28.3255   24.1387 H   0  0  0  0  0  0
  -20.5641  -26.2317   23.3590 H   0  0  0  0  0  0
  -21.6642  -26.7420   22.1186 H   0  0  0  0  0  0
  -19.6909  -25.6272   21.1264 H   0  0  0  0  0  0
  -19.6708  -27.3169   20.6706 H   0  0  0  0  0  0
  -17.4185  -26.6665   21.3996 H   0  0  0  0  0  0
  -18.0311  -26.0055   22.8970 H   0  0  0  0  0  0
  -19.7933  -30.7254   24.2286 H   0  0  0  0  0  0
  -17.5015  -31.6289   24.5116 H   0  0  0  0  0  0
  -15.5348  -30.2990   23.7677 H   0  0  0  0  0  0
  -15.8637  -28.0805   22.7123 H   0  0  0  0  0  0
  -24.5929  -30.7040   25.7842 H   0  0  0  0  0  0
  -24.8904  -32.2861   26.4956 H   0  0  0  0  0  0
  -25.8046  -30.8893   27.0291 H   0  0  0  0  0  0
  -26.2938  -29.6783   24.1259 H   0  0  0  0  0  0
  -27.3997  -29.7260   25.4798 H   0  0  0  0  0  0
  -27.8832  -30.4307   23.9538 H   0  0  0  0  0  0
  -27.2678  -33.3634   26.2142 H   0  0  0  0  0  0
  -28.3873  -32.6890   25.0387 H   0  0  0  0  0  0
  -28.0738  -31.8472   26.5494 H   0  0  0  0  0  0
  -28.2465  -38.0221   24.7700 H   0  0  0  0  0  0
  -28.1258  -36.2770   24.5953 H   0  0  0  0  0  0
  -27.2375  -37.1018   25.8840 H   0  0  0  0  0  0
  -20.9377  -29.8846   21.6947 H   0  0  0  0  0  0
  -26.0145  -38.2844   24.1586 H   0  0  0  0  0  0
  -29.4590  -24.3821   21.9676 H   0  0  0  0  0  0
  -28.7665  -20.4626   19.0139 H   0  0  0  0  0  0
  -32.0218  -17.5190   20.0073 H   0  0  0  0  0  0
  -32.2130  -18.5817   21.3641 H   0  0  0  0  0  0
  -28.1915  -18.2678   19.9301 H   0  0  0  0  0  0
  -29.3446  -17.3667   19.0000 H   0  0  0  0  0  0
  -30.6944  -17.1022   22.7254 H   0  0  0  0  0  0
  -32.0732  -16.2344   22.1358 H   0  0  0  0  0  0
  -28.2260  -15.8309   20.4816 H   0  0  0  0  0  0
  -28.5496  -16.7788   21.8768 H   0  0  0  0  0  0
  -30.6019  -19.2257   19.4641 H   0  0  0  0  0  0
  -27.6165  -21.6875   17.4790 H   0  0  0  0  0  0
  -28.3088  -23.2800   17.2108 H   0  0  0  0  0  0
  -26.7716  -23.1034   18.0738 H   0  0  0  0  0  0
  -26.9744  -24.7824   20.0000 H   0  0  0  0  0  0
  -27.9751  -25.1512   18.5840 H   0  0  0  0  0  0
  -30.2707  -20.1690   23.1361 H   0  0  0  0  0  0
  -31.0198  -20.8677   24.5682 H   0  0  0  0  0  0
  1 25  1  0  0  0
  1 30  2  0  0  0
  1 85  1  0  0  0
  2  3  1  0  0  0
  2 25  1  0  0  0
  2 89  1  0  0  0
  2 90  1  0  0  0
  3  4  1  0  0  0
  3 91  1  0  0  0
  3 92  1  0  0  0
  4  5  1  0  0  0
  4 93  1  0  0  0
  4 94  1  0  0  0
  5  6  1  0  0  0
  5 26  1  0  0  0
  5 95  1  0  0  0
  6 25  1  0  0  0
  6 96  1  0  0  0
  6 97  1  0  0  0
  7  8  2  0  0  0
  7 26  1  0  0  0
  7 29  1  0  0  0
  8  9  1  0  0  0
  8 22  1  0  0  0
  9 10  1  0  0  0
  9 27  2  0  0  0
 10 11  2  0  0  0
 10 15  1  0  0  0
 11 12  1  0  0  0
 11 98  1  0  0  0
 12 13  2  0  0  0
 12 99  1  0  0  0
 13 14  1  0  0  0
 13 31  1  0  0  0
 14 15  2  0  0  0
 14100  1  0  0  0
 15101  1  0  0  0
 16 17  2  0  0  0
 16 21  1  0  0  0
 16 31  1  0  0  0
 17 18  1  0  0  0
 17102  1  0  0  0
 18 19  2  0  0  0
 18103  1  0  0  0
 19 20  1  0  0  0
 19 24  1  0  0  0
 20 21  2  0  0  0
 20104  1  0  0  0
 21 23  1  0  0  0
 22 28  1  0  0  0
 22 32  2  0  0  0
 26 27  1  0  0  0
 28105  1  0  0  0
 28106  1  0  0  0
 29107  1  0  0  0
 29108  1  0  0  0
 33 34  1  0  0  0
 33 66  1  0  0  0
 33 70  2  0  0  0
 34 36  1  0  0  0
 34 59  1  0  0  0
 34109  1  0  0  0
 35 44  2  0  0  0
 35 45  1  0  0  0
 35 68  1  0  0  0
 36 56  1  0  0  0
 36110  1  0  0  0
 37 39  1  0  0  0
 37 47  1  0  0  0
 37 66  1  0  0  0
 37111  1  0  0  0
 38 43  2  0  0  0
 38 46  1  0  0  0
 38 47  1  0  0  0
 39 64  1  0  0  0
 39 67  2  0  0  0
 40 52  1  0  0  0
 40 53  2  0  0  0
 40 58  1  0  0  0
 41112  1  0  0  0
 41113  1  0  0  0
 41114  1  0  0  0
 41 48  1  0  0  0
 42 43  1  0  0  0
 42 66  1  0  0  0
 42115  1  0  0  0
 42116  1  0  0  0
 43 44  1  0  0  0
 44117  1  0  0  0
 45 46  2  0  0  0
 45118  1  0  0  0
 46119  1  0  0  0
 47120  1  0  0  0
 47121  1  0  0  0
 48 56  1  0  0  0
 48 65  1  0  0  0
 48122  1  0  0  0
 49 50  1  0  0  0
 49 53  1  0  0  0
 49 64  1  0  0  0
 49123  1  0  0  0
 50 51  1  0  0  0
 50124  1  0  0  0
 50125  1  0  0  0
 51 52  1  0  0  0
 51126  1  0  0  0
 51127  1  0  0  0
 52128  1  0  0  0
 52129  1  0  0  0
 53 54  1  0  0  0
 54 55  2  0  0  0
 54130  1  0  0  0
 55 57  1  0  0  0
 55131  1  0  0  0
 56 69  2  0  0  0
 57 58  2  0  0  0
 57132  1  0  0  0
 58133  1  0  0  0
 59 60  1  0  0  0
 59 61  1  0  0  0
 59 62  1  0  0  0
 60134  1  0  0  0
 60135  1  0  0  0
 60136  1  0  0  0
 61137  1  0  0  0
 61138  1  0  0  0
 61139  1  0  0  0
 62140  1  0  0  0
 62141  1  0  0  0
 62142  1  0  0  0
 63 65  1  0  0  0
 63143  1  0  0  0
 63144  1  0  0  0
 63145  1  0  0  0
 64146  1  0  0  0
 65147  1  0  0  0
 68 84  1  0  0  0
 71 73  2  0  0  0
 71 74  1  0  0  0
 71148  1  0  0  0
 72 75  1  0  0  0
 72 76  2  0  0  0
 72149  1  0  0  0
 73 76  1  0  0  0
 73 77  1  0  0  0
 74 75  2  0  0  0
 74 84  1  0  0  0
 75 83  1  0  0  0
 76 88  1  0  0  0
 77 86  1  0  0  0
 77 87  2  0  0  0
 78 80  1  0  0  0
 78 82  1  0  0  0
 78150  1  0  0  0
 78151  1  0  0  0
 79 81  1  0  0  0
 79 82  1  0  0  0
 79152  1  0  0  0
 79153  1  0  0  0
 80 85  1  0  0  0
 80154  1  0  0  0
 80155  1  0  0  0
 81 85  1  0  0  0
 81156  1  0  0  0
 81157  1  0  0  0
 82 88  1  0  0  0
 82158  1  0  0  0
 83159  1  0  0  0
 83160  1  0  0  0
 83161  1  0  0  0
 84162  1  0  0  0
 84163  1  0  0  0
 86164  1  0  0  0
 86165  1  0  0  0
M  ISO  4   1 100  68 101  84 101  85 100
M  END
> <chiral flag>
0

> <version>
0

> <s_m_source_file>
/data/baiqing/PycharmProjects/Reinvent-master-3.2/result/LINK_invent/BTK/process_docking_weight1_custom_sum_contain_oxygen_bond_distance_aromatic_linkinvent_7_9_3/rearranged_h_0157.sdf

> <i_m_source_file_index>
51

> <r_mmod_Potential_Energy-OPLS-2005>
226.861389160156

> <r_mmod_Stretch_Energy-OPLS-2005>
76.769905090332

> <r_mmod_Bend_Energy-OPLS-2005>
180.615936279297

> <r_mmod_Torsional_Energy-OPLS-2005>
327.453125

> <r_mmod_Improper_Torsional_Energy-OPLS-2005>
5.14715576171875

> <r_mmod_Van_der_Waal_Energy-OPLS-2005>
182.629104614258

> <r_mmod_Electrostatic_Energy-OPLS-2005>
-369.371765136719

> <r_mmod_Solvation_Energy-OPLS-2005>
-232.893905639648

> <b_mmod_Minimization_Converged-OPLS-2005>
0

> <r_mmod_RMS_Derivative-OPLS-2005>
2.63040494918823

$$$$
51
                    3D
 Structure written by MMmdl.
177186  0  0  1  0            999 V2000
  -30.7196  -14.5913   20.4654 C   0  0  0  0  0  0
  -30.4081  -12.3639   19.4534 C   0  0  0  0  0  0
  -29.4937  -12.4839   18.2189 C   0  0  0  0  0  0
  -28.0195  -12.3369   18.6375 C   0  0  0  0  0  0
  -27.6442  -13.2302   19.8511 C   0  0  2  0  0  0
  -28.6932  -13.1473   20.9820 C   0  0  0  0  0  0
  -25.2513  -13.8187   20.5697 C   0  0  0  0  0  0
  -24.1801  -13.0435   20.9204 C   0  0  0  0  0  0
  -24.6402  -11.6921   20.8761 C   0  0  0  0  0  0
  -23.9083  -10.4295   21.0418 C   0  0  0  0  0  0
  -24.3629   -9.4205   21.9193 C   0  0  0  0  0  0
  -23.6298   -8.2244   22.0759 C   0  0  0  0  0  0
  -22.4281   -8.0285   21.3547 C   0  0  0  0  0  0
  -21.9924   -9.0262   20.4647 C   0  0  0  0  0  0
  -22.7260  -10.2140   20.3061 C   0  0  0  0  0  0
  -21.6853   -6.0741   22.5277 C   0  0  0  0  0  0
  -21.4016   -6.5644   23.8212 C   0  0  0  0  0  0
  -21.3658   -5.6795   24.9170 C   0  0  0  0  0  0
  -21.6041   -4.3059   24.7224 C   0  0  0  0  0  0
  -21.8820   -3.8151   23.4344 C   0  0  0  0  0  0
  -21.9196   -4.6968   22.3399 C   0  0  0  0  0  0
  -22.7824  -13.5218   21.1860 C   0  0  0  0  0  0
  -22.1662   -4.2155   21.0976 F   0  0  0  0  0  0
  -21.5629   -3.4541   25.7735 F   0  0  0  0  0  0
  -30.0057  -13.4293   20.3911 N   0  0  0  0  0  0
  -26.2957  -12.9412   20.3316 N   0  0  0  0  0  0
  -25.9337  -11.6555   20.5787 N   0  0  0  0  0  0
  -22.0472  -12.8204   22.0410 N   0  0  0  0  0  0
  -25.4187  -15.1895   20.4092 N   0  0  0  0  0  0
  -31.9260  -14.5953   20.2244 O   0  0  0  0  0  0
  -21.6638   -6.8885   21.4238 O   0  0  0  0  0  0
  -22.3515  -14.5529   20.6712 O   0  0  0  0  0  0
  -24.6253  -31.8628   23.2078 C   0  0  0  0  0  0
  -25.9112  -32.4793   23.8392 C   0  0  1  0  0  0
  -27.2088  -27.3401   20.1040 C   0  0  0  0  0  0
  -25.5935  -33.8594   24.2309 N   0  0  0  0  0  0
  -23.4165  -30.4919   21.5505 C   0  0  2  0  0  0
  -24.8600  -28.9645   20.1038 C   0  0  0  0  0  0
  -22.7470  -29.4641   22.4943 C   0  0  0  0  0  0
  -18.0280  -28.1377   22.8483 C   0  0  0  0  0  0
  -24.1490  -36.7306   23.2636 C   0  0  0  0  0  0
  -25.9591  -30.7990   21.3794 C   0  0  0  0  0  0
  -26.0301  -29.4325   20.7154 C   0  0  0  0  0  0
  -27.2091  -28.6299   20.7139 C   0  0  0  0  0  0
  -26.0214  -26.9456   19.4372 C   0  0  0  0  0  0
  -24.8561  -27.7244   19.4560 C   0  0  0  0  0  0
  -23.6282  -29.8400   20.1611 C   0  0  0  0  0  0
  -25.4111  -36.3091   24.0332 C   0  0  1  0  0  0
  -20.5884  -28.3683   23.1282 C   0  0  2  0  0  0
  -20.6776  -26.9409   22.5403 C   0  0  0  0  0  0
  -19.5746  -26.6379   21.5211 C   0  0  0  0  0  0
  -18.1923  -26.7920   22.1623 C   0  0  0  0  0  0
  -19.1536  -28.8845   23.2875 C   0  0  0  0  0  0
  -18.9461  -30.1445   23.8898 C   0  0  0  0  0  0
  -17.6463  -30.6582   24.0561 C   0  0  0  0  0  0
  -25.9048  -34.9458   23.5117 C   0  0  0  0  0  0
  -16.5353  -29.9082   23.6332 C   0  0  0  0  0  0
  -16.7271  -28.6499   23.0357 C   0  0  0  0  0  0
  -26.4499  -31.6594   25.0756 C   0  0  0  0  0  0
  -25.3737  -31.3720   26.1483 C   0  0  0  0  0  0
  -27.0344  -30.3022   24.6191 C   0  0  0  0  0  0
  -27.6045  -32.4341   25.7530 C   0  0  0  0  0  0
  -27.5579  -37.1809   24.8460 C   0  0  0  0  0  0
  -21.4187  -29.3045   22.3685 N   0  0  0  0  0  0
  -26.4288  -37.3782   23.9408 N   0  0  0  0  0  0
  -24.6858  -31.0670   22.1021 N   0  0  0  0  0  0
  -23.4208  -28.8156   23.2993 O   0  0  0  0  0  0
  -28.2920  -26.4495   20.1924 O   0  0  0  0  0  0
  -26.5606  -34.8914   22.4676 O   0  0  0  0  0  0
  -23.5422  -32.1419   23.7421 O   0  0  0  0  0  0
  -28.1052  -20.1002   20.0113 C   0  0  0  0  0  0
  -28.6695  -18.7874   19.9181 C   0  0  0  0  0  0
  -30.5830  -19.5736   21.2066 C   0  0  0  0  0  0
  -29.9327  -18.4912   20.5132 C   0  0  0  0  0  0
  -29.9719  -20.8704   21.3426 C   0  0  0  0  0  0
  -28.7487  -21.1830   20.6814 C   0  0  0  0  0  0
  -26.7217  -20.3938   19.4476 C   0  0  0  0  0  0
  -25.9415  -21.1149   20.5358 C   0  0  0  0  0  0
  -26.6268  -22.4331   20.9352 C   0  0  1  0  0  0
  -27.9062  -17.7291   19.1196 C   0  0  0  0  0  0
  -30.5925  -21.9168   22.2700 C   0  0  0  0  0  0
  -26.2734  -22.8192   22.3801 C   0  0  0  0  0  0
  -31.9530  -18.7012   23.1780 C   0  0  0  0  0  0
  -31.2655  -17.2124   18.8162 C   0  0  0  0  0  0
  -31.9867  -19.3689   21.7945 C   0  0  0  0  0  0
  -28.7696  -23.8231   20.7136 C   0  0  0  0  0  0
  -27.9249  -25.0201   20.0998 C   0  0  0  0  0  0
  -30.6859  -17.1234   20.2517 C   0  0  2  0  0  0
  -28.0893  -22.4729   20.7088 N   0  0  0  0  0  0
  -30.0472  -15.7833   20.5294 N   0  0  0  0  0  0
  -31.4544  -12.4362   19.1518 H   0  0  0  0  0  0
  -30.2995  -11.3857   19.9240 H   0  0  0  0  0  0
  -29.7509  -11.7205   17.4832 H   0  0  0  0  0  0
  -29.6474  -13.4476   17.7309 H   0  0  0  0  0  0
  -27.8566  -11.2882   18.8869 H   0  0  0  0  0  0
  -27.3637  -12.5514   17.7930 H   0  0  0  0  0  0
  -27.6465  -14.2555   19.4814 H   0  0  0  0  0  0
  -28.6935  -12.1590   21.4439 H   0  0  0  0  0  0
  -28.4623  -13.8602   21.7753 H   0  0  0  0  0  0
  -25.2772   -9.5677   22.4774 H   0  0  0  0  0  0
  -24.0002   -7.4635   22.7483 H   0  0  0  0  0  0
  -21.0857   -8.8787   19.8949 H   0  0  0  0  0  0
  -22.3723  -10.9683   19.6172 H   0  0  0  0  0  0
  -21.2007   -7.6153   23.9714 H   0  0  0  0  0  0
  -21.1480   -6.0525   25.9071 H   0  0  0  0  0  0
  -22.0602   -2.7615   23.2840 H   0  0  0  0  0  0
  -22.4096  -11.9859   22.4782 H   0  0  0  0  0  0
  -21.1090  -13.1228   22.2625 H   0  0  0  0  0  0
  -24.6496  -15.8418   20.5147 H   0  0  0  0  0  0
  -26.2663  -15.6247   20.0742 H   0  0  0  0  0  0
  -26.7180  -32.5464   23.1141 H   0  0  0  0  0  0
  -25.0109  -33.9746   25.0470 H   0  0  0  0  0  0
  -22.7091  -31.3125   21.4148 H   0  0  0  0  0  0
  -23.3748  -35.9644   23.3296 H   0  0  0  0  0  0
  -24.3585  -36.8933   22.2052 H   0  0  0  0  0  0
  -23.7248  -37.6509   23.6661 H   0  0  0  0  0  0
  -26.0930  -31.5654   20.6151 H   0  0  0  0  0  0
  -26.8390  -30.8410   22.0094 H   0  0  0  0  0  0
  -28.0997  -28.9748   21.2208 H   0  0  0  0  0  0
  -25.9494  -26.0086   18.9069 H   0  0  0  0  0  0
  -23.9641  -27.3647   18.9614 H   0  0  0  0  0  0
  -23.7427  -30.6225   19.4100 H   0  0  0  0  0  0
  -22.7489  -29.2688   19.8580 H   0  0  0  0  0  0
  -25.1285  -36.1958   25.0827 H   0  0  0  0  0  0
  -20.9970  -28.3257   24.1407 H   0  0  0  0  0  0
  -20.5693  -26.2293   23.3603 H   0  0  0  0  0  0
  -21.6642  -26.7446   22.1187 H   0  0  0  0  0  0
  -19.6916  -25.6291   21.1236 H   0  0  0  0  0  0
  -19.6689  -27.3195   20.6747 H   0  0  0  0  0  0
  -17.4199  -26.6676   21.4016 H   0  0  0  0  0  0
  -18.0311  -26.0055   22.9013 H   0  0  0  0  0  0
  -19.7938  -30.7248   24.2280 H   0  0  0  0  0  0
  -17.5022  -31.6270   24.5149 H   0  0  0  0  0  0
  -15.5354  -30.2988   23.7649 H   0  0  0  0  0  0
  -15.8670  -28.0818   22.7080 H   0  0  0  0  0  0
  -24.5913  -30.7068   25.7812 H   0  0  0  0  0  0
  -24.8927  -32.2880   26.4918 H   0  0  0  0  0  0
  -25.8064  -30.8893   27.0253 H   0  0  0  0  0  0
  -26.2918  -29.6783   24.1202 H   0  0  0  0  0  0
  -27.4033  -29.7266   25.4689 H   0  0  0  0  0  0
  -27.8792  -30.4315   23.9425 H   0  0  0  0  0  0
  -27.2637  -33.3637   26.2096 H   0  0  0  0  0  0
  -28.3857  -32.6912   25.0368 H   0  0  0  0  0  0
  -28.0708  -31.8486   26.5459 H   0  0  0  0  0  0
  -28.2579  -38.0119   24.7514 H   0  0  0  0  0  0
  -28.1090  -36.2649   24.6277 H   0  0  0  0  0  0
  -27.2297  -37.1452   25.8862 H   0  0  0  0  0  0
  -20.9358  -29.8816   21.6942 H   0  0  0  0  0  0
  -26.0177  -38.2862   24.1401 H   0  0  0  0  0  0
  -26.1574  -19.5107   19.1576 H   0  0  0  0  0  0
  -26.8169  -21.0177   18.5582 H   0  0  0  0  0  0
  -25.8626  -20.4515   21.3986 H   0  0  0  0  0  0
  -24.9178  -21.3079   20.2106 H   0  0  0  0  0  0
  -26.1699  -23.1524   20.2588 H   0  0  0  0  0  0
  -26.9927  -17.4542   19.6459 H   0  0  0  0  0  0
  -28.4479  -16.8125   18.9157 H   0  0  0  0  0  0
  -27.6302  -18.1223   18.1409 H   0  0  0  0  0  0
  -31.2189  -21.4970   23.0527 H   0  0  0  0  0  0
  -29.8129  -22.4418   22.8189 H   0  0  0  0  0  0
  -31.1833  -22.6387   21.7068 H   0  0  0  0  0  0
  -26.6992  -22.1129   23.0938 H   0  0  0  0  0  0
  -25.1928  -22.8248   22.5271 H   0  0  0  0  0  0
  -26.6377  -23.8116   22.6436 H   0  0  0  0  0  0
  -32.9617  -18.5662   23.5683 H   0  0  0  0  0  0
  -31.4784  -17.7210   23.1425 H   0  0  0  0  0  0
  -31.3990  -19.3047   23.8977 H   0  0  0  0  0  0
  -31.8601  -18.1199   18.7058 H   0  0  0  0  0  0
  -30.4852  -17.2549   18.0576 H   0  0  0  0  0  0
  -31.9247  -16.3880   18.5527 H   0  0  0  0  0  0
  -32.5296  -20.3104   21.8539 H   0  0  0  0  0  0
  -32.6198  -18.8090   21.1085 H   0  0  0  0  0  0
  -29.0057  -24.0938   21.7418 H   0  0  0  0  0  0
  -29.7197  -23.7483   20.1834 H   0  0  0  0  0  0
  -26.9788  -24.9725   20.6317 H   0  0  0  0  0  0
  -27.7335  -24.7813   19.0531 H   0  0  0  0  0  0
  -31.5377  -17.0690   20.9205 H   0  0  0  0  0  0
  -29.0537  -15.7613   20.6982 H   0  0  0  0  0  0
  1 25  1  0  0  0
  1 30  2  0  0  0
  1 90  1  0  0  0
  2  3  1  0  0  0
  2 25  1  0  0  0
  2 91  1  0  0  0
  2 92  1  0  0  0
  3  4  1  0  0  0
  3 93  1  0  0  0
  3 94  1  0  0  0
  4  5  1  0  0  0
  4 95  1  0  0  0
  4 96  1  0  0  0
  5  6  1  0  0  0
  5 26  1  0  0  0
  5 97  1  0  0  0
  6 25  1  0  0  0
  6 98  1  0  0  0
  6 99  1  0  0  0
  7  8  2  0  0  0
  7 26  1  0  0  0
  7 29  1  0  0  0
  8  9  1  0  0  0
  8 22  1  0  0  0
  9 10  1  0  0  0
  9 27  2  0  0  0
 10 11  2  0  0  0
 10 15  1  0  0  0
 11 12  1  0  0  0
 11100  1  0  0  0
 12 13  2  0  0  0
 12101  1  0  0  0
 13 14  1  0  0  0
 13 31  1  0  0  0
 14 15  2  0  0  0
 14102  1  0  0  0
 15103  1  0  0  0
 16 17  2  0  0  0
 16 21  1  0  0  0
 16 31  1  0  0  0
 17 18  1  0  0  0
 17104  1  0  0  0
 18 19  2  0  0  0
 18105  1  0  0  0
 19 20  1  0  0  0
 19 24  1  0  0  0
 20 21  2  0  0  0
 20106  1  0  0  0
 21 23  1  0  0  0
 22 28  1  0  0  0
 22 32  2  0  0  0
 26 27  1  0  0  0
 28107  1  0  0  0
 28108  1  0  0  0
 29109  1  0  0  0
 29110  1  0  0  0
 33 34  1  0  0  0
 33 66  1  0  0  0
 33 70  2  0  0  0
 34 36  1  0  0  0
 34 59  1  0  0  0
 34111  1  0  0  0
 35 44  2  0  0  0
 35 45  1  0  0  0
 35 68  1  0  0  0
 36 56  1  0  0  0
 36112  1  0  0  0
 37 39  1  0  0  0
 37 47  1  0  0  0
 37 66  1  0  0  0
 37113  1  0  0  0
 38 43  2  0  0  0
 38 46  1  0  0  0
 38 47  1  0  0  0
 39 64  1  0  0  0
 39 67  2  0  0  0
 40 52  1  0  0  0
 40 53  2  0  0  0
 40 58  1  0  0  0
 41114  1  0  0  0
 41115  1  0  0  0
 41116  1  0  0  0
 41 48  1  0  0  0
 42 43  1  0  0  0
 42 66  1  0  0  0
 42117  1  0  0  0
 42118  1  0  0  0
 43 44  1  0  0  0
 44119  1  0  0  0
 45 46  2  0  0  0
 45120  1  0  0  0
 46121  1  0  0  0
 47122  1  0  0  0
 47123  1  0  0  0
 48 56  1  0  0  0
 48 65  1  0  0  0
 48124  1  0  0  0
 49 50  1  0  0  0
 49 53  1  0  0  0
 49 64  1  0  0  0
 49125  1  0  0  0
 50 51  1  0  0  0
 50126  1  0  0  0
 50127  1  0  0  0
 51 52  1  0  0  0
 51128  1  0  0  0
 51129  1  0  0  0
 52130  1  0  0  0
 52131  1  0  0  0
 53 54  1  0  0  0
 54 55  2  0  0  0
 54132  1  0  0  0
 55 57  1  0  0  0
 55133  1  0  0  0
 56 69  2  0  0  0
 57 58  2  0  0  0
 57134  1  0  0  0
 58135  1  0  0  0
 59 60  1  0  0  0
 59 61  1  0  0  0
 59 62  1  0  0  0
 60136  1  0  0  0
 60137  1  0  0  0
 60138  1  0  0  0
 61139  1  0  0  0
 61140  1  0  0  0
 61141  1  0  0  0
 62142  1  0  0  0
 62143  1  0  0  0
 62144  1  0  0  0
 63 65  1  0  0  0
 63145  1  0  0  0
 63146  1  0  0  0
 63147  1  0  0  0
 64148  1  0  0  0
 65149  1  0  0  0
 68 87  1  0  0  0
 71 72  2  0  0  0
 71 76  1  0  0  0
 71 77  1  0  0  0
 72 74  1  0  0  0
 72 80  1  0  0  0
 73 74  2  0  0  0
 73 75  1  0  0  0
 73 85  1  0  0  0
 74 88  1  0  0  0
 75 76  2  0  0  0
 75 81  1  0  0  0
 76 89  1  0  0  0
 77 78  1  0  0  0
 77150  1  0  0  0
 77151  1  0  0  0
 78 79  1  0  0  0
 78152  1  0  0  0
 78153  1  0  0  0
 79 82  1  0  0  0
 79 89  1  0  0  0
 79154  1  0  0  0
 80155  1  0  0  0
 80156  1  0  0  0
 80157  1  0  0  0
 81158  1  0  0  0
 81159  1  0  0  0
 81160  1  0  0  0
 82161  1  0  0  0
 82162  1  0  0  0
 82163  1  0  0  0
 83 85  1  0  0  0
 83164  1  0  0  0
 83165  1  0  0  0
 83166  1  0  0  0
 84167  1  0  0  0
 84168  1  0  0  0
 84169  1  0  0  0
 84 88  1  0  0  0
 85170  1  0  0  0
 85171  1  0  0  0
 86 87  1  0  0  0
 86 89  1  0  0  0
 86172  1  0  0  0
 86173  1  0  0  0
 87174  1  0  0  0
 87175  1  0  0  0
 88 90  1  0  0  0
 88176  1  0  0  0
 90177  1  0  0  0
M  ISO  4   1 100  68 101  87 101  90 100
M  END
> <chiral flag>
0

> <version>
0

> <s_m_source_file>
/data/baiqing/PycharmProjects/Reinvent-master-3.2/result/LINK_invent/BTK/process_docking_weight1_custom_sum_contain_oxygen_bond_distance_aromatic_linkinvent_7_9_3/rearranged_h_0157.sdf

> <i_m_source_file_index>
52

> <r_mmod_Potential_Energy-OPLS-2005>
100.493911743164

> <r_mmod_Stretch_Energy-OPLS-2005>
90.8241729736328

> <r_mmod_Bend_Energy-OPLS-2005>
173.740493774414

> <r_mmod_Torsional_Energy-OPLS-2005>
247.42951965332

> <r_mmod_Improper_Torsional_Energy-OPLS-2005>
8.06252193450928

> <r_mmod_Van_der_Waal_Energy-OPLS-2005>
201.533950805664

> <r_mmod_Electrostatic_Energy-OPLS-2005>
-470.138763427734

> <r_mmod_Solvation_Energy-OPLS-2005>
-204.879486083984

> <b_mmod_Minimization_Converged-OPLS-2005>
0

> <r_mmod_RMS_Derivative-OPLS-2005>
1.15353727340698

$$$$
52
                    3D
 Structure written by MMmdl.
170179  0  0  1  0            999 V2000
  -30.6722  -14.5544   20.4806 C   0  0  0  0  0  0
  -30.4308  -12.3377   19.4348 C   0  0  0  0  0  0
  -29.4968  -12.5036   18.2172 C   0  0  0  0  0  0
  -28.0222  -12.3523   18.6368 C   0  0  0  0  0  0
  -27.6608  -13.2137   19.8772 C   0  0  2  0  0  0
  -28.7129  -13.0449   20.9995 C   0  0  0  0  0  0
  -25.2597  -13.8176   20.5725 C   0  0  0  0  0  0
  -24.1844  -13.0428   20.9175 C   0  0  0  0  0  0
  -24.6401  -11.6904   20.8737 C   0  0  0  0  0  0
  -23.9066  -10.4289   21.0422 C   0  0  0  0  0  0
  -24.3614   -9.4202   21.9193 C   0  0  0  0  0  0
  -23.6284   -8.2245   22.0751 C   0  0  0  0  0  0
  -22.4279   -8.0281   21.3538 C   0  0  0  0  0  0
  -21.9902   -9.0253   20.4645 C   0  0  0  0  0  0
  -22.7234  -10.2129   20.3068 C   0  0  0  0  0  0
  -21.6854   -6.0741   22.5286 C   0  0  0  0  0  0
  -21.4013   -6.5643   23.8212 C   0  0  0  0  0  0
  -21.3646   -5.6797   24.9175 C   0  0  0  0  0  0
  -21.6048   -4.3053   24.7238 C   0  0  0  0  0  0
  -21.8818   -3.8149   23.4352 C   0  0  0  0  0  0
  -21.9189   -4.6964   22.3410 C   0  0  0  0  0  0
  -22.7847  -13.5202   21.1835 C   0  0  0  0  0  0
  -22.1664   -4.2152   21.0982 F   0  0  0  0  0  0
  -21.5622   -3.4529   25.7746 F   0  0  0  0  0  0
  -30.0351  -13.3510   20.4288 N   0  0  0  0  0  0
  -26.3050  -12.9341   20.3449 N   0  0  0  0  0  0
  -25.9349  -11.6501   20.5818 N   0  0  0  0  0  0
  -22.0519  -12.8197   22.0399 N   0  0  0  0  0  0
  -25.4243  -15.1892   20.4098 N   0  0  0  0  0  0
  -31.8315  -14.7078   20.0926 O   0  0  0  0  0  0
  -21.6629   -6.8885   21.4255 O   0  0  0  0  0  0
  -22.3517  -14.5505   20.6656 O   0  0  0  0  0  0
  -24.6183  -31.8628   23.2050 C   0  0  0  0  0  0
  -25.9052  -32.4814   23.8367 C   0  0  1  0  0  0
  -27.2477  -27.3782   20.1077 C   0  0  0  0  0  0
  -25.5886  -33.8609   24.2296 N   0  0  0  0  0  0
  -23.4136  -30.4817   21.5451 C   0  0  2  0  0  0
  -24.8678  -28.9359   20.1199 C   0  0  0  0  0  0
  -22.7430  -29.4618   22.4961 C   0  0  0  0  0  0
  -18.0273  -28.1389   22.8481 C   0  0  0  0  0  0
  -24.1489  -36.7283   23.2646 C   0  0  0  0  0  0
  -25.9500  -30.8086   21.3725 C   0  0  0  0  0  0
  -26.0293  -29.4390   20.7172 C   0  0  0  0  0  0
  -27.2219  -28.6701   20.6995 C   0  0  0  0  0  0
  -26.0573  -26.8951   19.5218 C   0  0  0  0  0  0
  -24.8785  -27.6654   19.5200 C   0  0  0  0  0  0
  -23.6306  -29.8065   20.1648 C   0  0  0  0  0  0
  -25.4122  -36.3103   24.0336 C   0  0  1  0  0  0
  -20.5862  -28.3653   23.1321 C   0  0  2  0  0  0
  -20.6761  -26.9386   22.5421 C   0  0  0  0  0  0
  -19.5757  -26.6393   21.5203 C   0  0  0  0  0  0
  -18.1927  -26.7945   22.1594 C   0  0  0  0  0  0
  -19.1522  -28.8835   23.2909 C   0  0  0  0  0  0
  -18.9444  -30.1440   23.8931 C   0  0  0  0  0  0
  -17.6443  -30.6596   24.0554 C   0  0  0  0  0  0
  -25.9039  -34.9473   23.5115 C   0  0  0  0  0  0
  -16.5335  -29.9087   23.6343 C   0  0  0  0  0  0
  -16.7251  -28.6504   23.0362 C   0  0  0  0  0  0
  -26.4481  -31.6622   25.0716 C   0  0  0  0  0  0
  -25.3706  -31.3732   26.1423 C   0  0  0  0  0  0
  -27.0347  -30.3068   24.6163 C   0  0  0  0  0  0
  -27.6057  -32.4345   25.7457 C   0  0  0  0  0  0
  -27.5587  -37.1788   24.8462 C   0  0  0  0  0  0
  -21.4141  -29.3023   22.3717 N   0  0  0  0  0  0
  -26.4302  -37.3783   23.9410 N   0  0  0  0  0  0
  -24.6790  -31.0662   22.0994 N   0  0  0  0  0  0
  -23.4169  -28.8161   23.3032 O   0  0  0  0  0  0
  -28.4241  -26.6384   20.0667 O   0  0  0  0  0  0
  -26.5581  -34.8917   22.4669 O   0  0  0  0  0  0
  -23.5346  -32.1403   23.7385 O   0  0  0  0  0  0
  -31.2865  -20.6601   20.2398 C   0  0  0  0  0  0
  -29.1188  -21.7454   20.1200 C   0  0  0  0  0  0
  -31.8969  -21.8533   19.8118 C   0  0  0  0  0  0
  -31.1235  -23.0111   19.5271 C   0  0  0  0  0  0
  -29.7056  -22.9858   19.7040 C   0  0  0  0  0  0
  -29.8863  -20.5646   20.3671 C   0  0  0  0  0  0
  -31.8257  -24.2146   18.8828 C   0  0  0  0  0  0
  -33.4055  -21.8366   19.5762 C   0  0  0  0  0  0
  -33.3591  -24.1057   18.7692 C   0  0  0  0  0  0
  -27.6085  -23.7711   18.4562 C   0  0  0  0  0  0
  -35.1787  -22.5889   18.0428 C   0  0  0  0  0  0
  -30.0334  -16.9887   20.1316 C   0  0  0  0  0  0
  -29.9438  -18.1797   21.1419 C   0  0  0  0  0  0
  -28.4146  -25.2234   20.4247 C   0  0  0  0  0  0
  -28.8242  -24.2188   19.2864 C   0  0  1  0  0  0
  -29.8810  -15.6263   20.7167 N   0  0  0  0  0  0
  -33.7626  -22.7202   18.4527 N   0  3  1  0  0  0
  -29.2398  -19.3631   20.6596 O   0  0  0  0  0  0
  -31.4719  -12.4460   19.1247 H   0  0  0  0  0  0
  -30.3469  -11.3344   19.8573 H   0  0  0  0  0  0
  -29.7419  -11.7741   17.4444 H   0  0  0  0  0  0
  -29.6500  -13.4842   17.7644 H   0  0  0  0  0  0
  -27.8476  -11.2972   18.8536 H   0  0  0  0  0  0
  -27.3653  -12.6000   17.8015 H   0  0  0  0  0  0
  -27.6813  -14.2538   19.5497 H   0  0  0  0  0  0
  -28.7069  -12.0219   21.3812 H   0  0  0  0  0  0
  -28.4867  -13.6835   21.8551 H   0  0  0  0  0  0
  -25.2771   -9.5649   22.4744 H   0  0  0  0  0  0
  -23.9985   -7.4620   22.7457 H   0  0  0  0  0  0
  -21.0832   -8.8760   19.8941 H   0  0  0  0  0  0
  -22.3711  -10.9650   19.6149 H   0  0  0  0  0  0
  -21.2023   -7.6150   23.9710 H   0  0  0  0  0  0
  -21.1458   -6.0538   25.9072 H   0  0  0  0  0  0
  -22.0614   -2.7614   23.2856 H   0  0  0  0  0  0
  -22.4133  -11.9850   22.4785 H   0  0  0  0  0  0
  -21.1134  -13.1217   22.2616 H   0  0  0  0  0  0
  -24.6506  -15.8367   20.5041 H   0  0  0  0  0  0
  -26.2728  -15.6364   20.0859 H   0  0  0  0  0  0
  -26.7106  -32.5511   23.1100 H   0  0  0  0  0  0
  -25.0058  -33.9780   25.0457 H   0  0  0  0  0  0
  -22.7047  -31.2988   21.3953 H   0  0  0  0  0  0
  -23.3784  -35.9578   23.3309 H   0  0  0  0  0  0
  -24.3583  -36.8899   22.2061 H   0  0  0  0  0  0
  -23.7199  -37.6466   23.6661 H   0  0  0  0  0  0
  -26.0751  -31.5770   20.6084 H   0  0  0  0  0  0
  -26.8309  -30.8576   22.0011 H   0  0  0  0  0  0
  -28.1225  -29.0535   21.1566 H   0  0  0  0  0  0
  -26.0283  -25.9247   19.0558 H   0  0  0  0  0  0
  -23.9840  -27.2722   19.0575 H   0  0  0  0  0  0
  -23.7409  -30.5763   19.4007 H   0  0  0  0  0  0
  -22.7571  -29.2227   19.8691 H   0  0  0  0  0  0
  -25.1315  -36.1963   25.0827 H   0  0  0  0  0  0
  -20.9944  -28.3216   24.1444 H   0  0  0  0  0  0
  -20.5683  -26.2230   23.3586 H   0  0  0  0  0  0
  -21.6635  -26.7445   22.1205 H   0  0  0  0  0  0
  -19.6930  -25.6312   21.1222 H   0  0  0  0  0  0
  -19.6755  -27.3213   20.6751 H   0  0  0  0  0  0
  -17.4200  -26.6677   21.3995 H   0  0  0  0  0  0
  -18.0334  -26.0093   22.9000 H   0  0  0  0  0  0
  -19.7911  -30.7245   24.2338 H   0  0  0  0  0  0
  -17.4998  -31.6301   24.5107 H   0  0  0  0  0  0
  -15.5342  -30.2988   23.7703 H   0  0  0  0  0  0
  -15.8631  -28.0842   22.7081 H   0  0  0  0  0  0
  -24.5867  -30.7132   25.7697 H   0  0  0  0  0  0
  -24.8911  -32.2887   26.4894 H   0  0  0  0  0  0
  -25.7996  -30.8832   27.0169 H   0  0  0  0  0  0
  -26.2937  -29.6776   24.1218 H   0  0  0  0  0  0
  -27.4113  -29.7368   25.4672 H   0  0  0  0  0  0
  -27.8765  -30.4407   23.9357 H   0  0  0  0  0  0
  -27.2720  -33.3645   26.2059 H   0  0  0  0  0  0
  -28.3832  -32.6896   25.0245 H   0  0  0  0  0  0
  -28.0764  -31.8450   26.5331 H   0  0  0  0  0  0
  -28.2590  -38.0097   24.7533 H   0  0  0  0  0  0
  -28.1090  -36.2628   24.6273 H   0  0  0  0  0  0
  -27.2287  -37.1413   25.8854 H   0  0  0  0  0  0
  -20.9289  -29.8703   21.6901 H   0  0  0  0  0  0
  -26.0200  -38.2853   24.1436 H   0  0  0  0  0  0
  -31.9215  -19.8041   20.4020 H   0  0  0  0  0  0
  -28.0433  -21.6730   20.1951 H   0  0  0  0  0  0
  -31.5767  -25.1271   19.4237 H   0  0  0  0  0  0
  -31.4316  -24.3254   17.8740 H   0  0  0  0  0  0
  -33.7272  -20.8198   19.3469 H   0  0  0  0  0  0
  -33.9288  -22.1419   20.4842 H   0  0  0  0  0  0
  -33.8307  -24.4055   19.7058 H   0  0  0  0  0  0
  -33.7185  -24.7953   18.0025 H   0  0  0  0  0  0
  -27.8735  -22.9794   17.7540 H   0  0  0  0  0  0
  -27.2189  -24.5947   17.8596 H   0  0  0  0  0  0
  -26.7966  -23.4025   19.0840 H   0  0  0  0  0  0
  -35.4380  -21.5436   17.8657 H   0  0  0  0  0  0
  -35.8534  -22.9797   18.8041 H   0  0  0  0  0  0
  -35.3623  -23.1284   17.1134 H   0  0  0  0  0  0
  -30.9454  -17.0717   19.5370 H   0  0  0  0  0  0
  -29.2193  -17.0896   19.4139 H   0  0  0  0  0  0
  -30.9275  -18.3877   21.5596 H   0  0  0  0  0  0
  -29.3660  -17.8444   22.0016 H   0  0  0  0  0  0
  -29.1660  -25.1371   21.2091 H   0  0  0  0  0  0
  -27.4807  -24.9192   20.9023 H   0  0  0  0  0  0
  -29.4099  -24.8175   18.5932 H   0  0  0  0  0  0
  -28.9621  -15.4041   21.0688 H   0  0  0  0  0  0
  -33.2064  -22.4153   17.6686 H   0  0  0  0  0  0
  1 25  1  0  0  0
  1 30  2  0  0  0
  1 86  1  0  0  0
  2  3  1  0  0  0
  2 25  1  0  0  0
  2 89  1  0  0  0
  2 90  1  0  0  0
  3  4  1  0  0  0
  3 91  1  0  0  0
  3 92  1  0  0  0
  4  5  1  0  0  0
  4 93  1  0  0  0
  4 94  1  0  0  0
  5  6  1  0  0  0
  5 26  1  0  0  0
  5 95  1  0  0  0
  6 25  1  0  0  0
  6 96  1  0  0  0
  6 97  1  0  0  0
  7  8  2  0  0  0
  7 26  1  0  0  0
  7 29  1  0  0  0
  8  9  1  0  0  0
  8 22  1  0  0  0
  9 10  1  0  0  0
  9 27  2  0  0  0
 10 11  2  0  0  0
 10 15  1  0  0  0
 11 12  1  0  0  0
 11 98  1  0  0  0
 12 13  2  0  0  0
 12 99  1  0  0  0
 13 14  1  0  0  0
 13 31  1  0  0  0
 14 15  2  0  0  0
 14100  1  0  0  0
 15101  1  0  0  0
 16 17  2  0  0  0
 16 21  1  0  0  0
 16 31  1  0  0  0
 17 18  1  0  0  0
 17102  1  0  0  0
 18 19  2  0  0  0
 18103  1  0  0  0
 19 20  1  0  0  0
 19 24  1  0  0  0
 20 21  2  0  0  0
 20104  1  0  0  0
 21 23  1  0  0  0
 22 28  1  0  0  0
 22 32  2  0  0  0
 26 27  1  0  0  0
 28105  1  0  0  0
 28106  1  0  0  0
 29107  1  0  0  0
 29108  1  0  0  0
 33 34  1  0  0  0
 33 66  1  0  0  0
 33 70  2  0  0  0
 34 36  1  0  0  0
 34 59  1  0  0  0
 34109  1  0  0  0
 35 44  2  0  0  0
 35 45  1  0  0  0
 35 68  1  0  0  0
 36 56  1  0  0  0
 36110  1  0  0  0
 37 39  1  0  0  0
 37 47  1  0  0  0
 37 66  1  0  0  0
 37111  1  0  0  0
 38 43  2  0  0  0
 38 46  1  0  0  0
 38 47  1  0  0  0
 39 64  1  0  0  0
 39 67  2  0  0  0
 40 52  1  0  0  0
 40 53  2  0  0  0
 40 58  1  0  0  0
 41112  1  0  0  0
 41113  1  0  0  0
 41114  1  0  0  0
 41 48  1  0  0  0
 42 43  1  0  0  0
 42 66  1  0  0  0
 42115  1  0  0  0
 42116  1  0  0  0
 43 44  1  0  0  0
 44117  1  0  0  0
 45 46  2  0  0  0
 45118  1  0  0  0
 46119  1  0  0  0
 47120  1  0  0  0
 47121  1  0  0  0
 48 56  1  0  0  0
 48 65  1  0  0  0
 48122  1  0  0  0
 49 50  1  0  0  0
 49 53  1  0  0  0
 49 64  1  0  0  0
 49123  1  0  0  0
 50 51  1  0  0  0
 50124  1  0  0  0
 50125  1  0  0  0
 51 52  1  0  0  0
 51126  1  0  0  0
 51127  1  0  0  0
 52128  1  0  0  0
 52129  1  0  0  0
 53 54  1  0  0  0
 54 55  2  0  0  0
 54130  1  0  0  0
 55 57  1  0  0  0
 55131  1  0  0  0
 56 69  2  0  0  0
 57 58  2  0  0  0
 57132  1  0  0  0
 58133  1  0  0  0
 59 60  1  0  0  0
 59 61  1  0  0  0
 59 62  1  0  0  0
 60134  1  0  0  0
 60135  1  0  0  0
 60136  1  0  0  0
 61137  1  0  0  0
 61138  1  0  0  0
 61139  1  0  0  0
 62140  1  0  0  0
 62141  1  0  0  0
 62142  1  0  0  0
 63 65  1  0  0  0
 63143  1  0  0  0
 63144  1  0  0  0
 63145  1  0  0  0
 64146  1  0  0  0
 65147  1  0  0  0
 68 84  1  0  0  0
 71 73  2  0  0  0
 71 76  1  0  0  0
 71148  1  0  0  0
 72 75  1  0  0  0
 72 76  2  0  0  0
 72149  1  0  0  0
 73 74  1  0  0  0
 73 78  1  0  0  0
 74 75  2  0  0  0
 74 77  1  0  0  0
 75 85  1  0  0  0
 76 88  1  0  0  0
 77 79  1  0  0  0
 77150  1  0  0  0
 77151  1  0  0  0
 78 87  1  0  0  0
 78152  1  0  0  0
 78153  1  0  0  0
 79 87  1  0  0  0
 79154  1  0  0  0
 79155  1  0  0  0
 80156  1  0  0  0
 80157  1  0  0  0
 80158  1  0  0  0
 80 85  1  0  0  0
 81159  1  0  0  0
 81160  1  0  0  0
 81161  1  0  0  0
 81 87  1  0  0  0
 82 83  1  0  0  0
 82 86  1  0  0  0
 82162  1  0  0  0
 82163  1  0  0  0
 83 88  1  0  0  0
 83164  1  0  0  0
 83165  1  0  0  0
 84 85  1  0  0  0
 84166  1  0  0  0
 84167  1  0  0  0
 85168  1  0  0  0
 86169  1  0  0  0
 87170  1  0  0  0
M  CHG  1  87   1
M  ISO  4   1 100  68 101  84 101  86 100
M  END
> <chiral flag>
0

> <version>
0

> <s_m_source_file>
/data/baiqing/PycharmProjects/Reinvent-master-3.2/result/LINK_invent/BTK/process_docking_weight1_custom_sum_contain_oxygen_bond_distance_aromatic_linkinvent_7_9_3/rearranged_h_0157.sdf

> <i_m_source_file_index>
53

> <r_mmod_Potential_Energy-OPLS-2005>
-152.086303710938

> <r_mmod_Stretch_Energy-OPLS-2005>
61.2434959411621

> <r_mmod_Bend_Energy-OPLS-2005>
132.706878662109

> <r_mmod_Torsional_Energy-OPLS-2005>
263.359313964844

> <r_mmod_Improper_Torsional_Energy-OPLS-2005>
9.08812808990479

> <r_mmod_Van_der_Waal_Energy-OPLS-2005>
160.173706054688

> <r_mmod_Electrostatic_Energy-OPLS-2005>
-354.806182861328

> <r_mmod_Solvation_Energy-OPLS-2005>
-448.720977783203

> <b_mmod_Minimization_Converged-OPLS-2005>
0

> <r_mmod_RMS_Derivative-OPLS-2005>
3.66981220245361

$$$$
53
                    3D
 Structure written by MMmdl.
166175  0  0  1  0            999 V2000
  -30.6094  -14.8286   20.4349 C   0  0  0  0  0  0
  -30.4234  -12.5120   19.4866 C   0  0  0  0  0  0
  -29.5117  -12.5222   18.2411 C   0  0  0  0  0  0
  -28.0392  -12.3347   18.6546 C   0  0  0  0  0  0
  -27.6319  -13.2475   19.8425 C   0  0  2  0  0  0
  -28.6739  -13.2359   20.9805 C   0  0  0  0  0  0
  -25.2472  -13.8215   20.5708 C   0  0  0  0  0  0
  -24.1788  -13.0445   20.9230 C   0  0  0  0  0  0
  -24.6399  -11.6929   20.8735 C   0  0  0  0  0  0
  -23.9076  -10.4289   21.0397 C   0  0  0  0  0  0
  -24.3618   -9.4207   21.9169 C   0  0  0  0  0  0
  -23.6301   -8.2240   22.0727 C   0  0  0  0  0  0
  -22.4278   -8.0269   21.3517 C   0  0  0  0  0  0
  -21.9923   -9.0244   20.4633 C   0  0  0  0  0  0
  -22.7262  -10.2122   20.3045 C   0  0  0  0  0  0
  -21.6864   -6.0730   22.5277 C   0  0  0  0  0  0
  -21.4010   -6.5625   23.8207 C   0  0  0  0  0  0
  -21.3658   -5.6765   24.9158 C   0  0  0  0  0  0
  -21.6048   -4.3031   24.7221 C   0  0  0  0  0  0
  -21.8822   -3.8140   23.4340 C   0  0  0  0  0  0
  -21.9208   -4.6956   22.3389 C   0  0  0  0  0  0
  -22.7812  -13.5229   21.1881 C   0  0  0  0  0  0
  -22.1684   -4.2132   21.0979 F   0  0  0  0  0  0
  -21.5637   -3.4523   25.7734 F   0  0  0  0  0  0
  -29.9610  -13.6069   20.3805 N   0  0  0  0  0  0
  -26.2893  -12.9465   20.3247 N   0  0  0  0  0  0
  -25.9329  -11.6583   20.5714 N   0  0  0  0  0  0
  -22.0451  -12.8207   22.0421 N   0  0  0  0  0  0
  -25.4155  -15.1937   20.4107 N   0  0  0  0  0  0
  -31.8112  -14.8448   20.1413 O   0  0  0  0  0  0
  -21.6636   -6.8877   21.4240 O   0  0  0  0  0  0
  -22.3508  -14.5545   20.6744 O   0  0  0  0  0  0
  -24.6356  -31.8539   23.1956 C   0  0  0  0  0  0
  -25.9164  -32.4745   23.8320 C   0  0  1  0  0  0
  -27.2170  -27.2408   20.1469 C   0  0  0  0  0  0
  -25.5939  -33.8550   24.2244 N   0  0  0  0  0  0
  -23.4340  -30.4757   21.5368 C   0  0  2  0  0  0
  -24.8836  -28.9129   20.1154 C   0  0  0  0  0  0
  -22.7524  -29.4599   22.4877 C   0  0  0  0  0  0
  -18.0294  -28.1411   22.8483 C   0  0  0  0  0  0
  -24.1471  -36.7262   23.2641 C   0  0  0  0  0  0
  -25.9813  -30.7635   21.3758 C   0  0  0  0  0  0
  -26.0559  -29.3805   20.7249 C   0  0  0  0  0  0
  -27.2309  -28.5580   20.7269 C   0  0  0  0  0  0
  -26.0264  -26.8423   19.5125 C   0  0  0  0  0  0
  -24.8728  -27.6521   19.4988 C   0  0  0  0  0  0
  -23.6579  -29.8067   20.1548 C   0  0  0  0  0  0
  -25.4095  -36.3052   24.0332 C   0  0  1  0  0  0
  -20.5906  -28.3731   23.1252 C   0  0  2  0  0  0
  -20.6785  -26.9437   22.5417 C   0  0  0  0  0  0
  -19.5755  -26.6404   21.5223 C   0  0  0  0  0  0
  -18.1936  -26.7954   22.1634 C   0  0  0  0  0  0
  -19.1561  -28.8882   23.2871 C   0  0  0  0  0  0
  -18.9481  -30.1474   23.8907 C   0  0  0  0  0  0
  -17.6484  -30.6604   24.0578 C   0  0  0  0  0  0
  -25.9062  -34.9435   23.5096 C   0  0  0  0  0  0
  -16.5367  -29.9113   23.6333 C   0  0  0  0  0  0
  -16.7292  -28.6535   23.0351 C   0  0  0  0  0  0
  -26.4509  -31.6581   25.0725 C   0  0  0  0  0  0
  -25.3715  -31.3750   26.1431 C   0  0  0  0  0  0
  -27.0351  -30.2984   24.6223 C   0  0  0  0  0  0
  -27.6057  -32.4321   25.7516 C   0  0  0  0  0  0
  -27.5575  -37.1765   24.8459 C   0  0  0  0  0  0
  -21.4221  -29.3063   22.3626 N   0  0  0  0  0  0
  -26.4249  -37.3776   23.9444 N   0  0  0  0  0  0
  -24.7026  -31.0497   22.0926 N   0  0  0  0  0  0
  -23.4215  -28.8155   23.2991 O   0  0  0  0  0  0
  -28.2677  -26.2909   20.1428 O   0  0  0  0  0  0
  -26.5646  -34.8929   22.4670 O   0  0  0  0  0  0
  -23.5496  -32.1355   23.7232 O   0  0  0  0  0  0
  -28.7166  -22.9804   19.6297 C   0  0  0  0  0  0
  -28.9006  -21.2618   21.7960 C   0  0  0  0  0  0
  -28.9437  -21.5570   19.4443 C   0  0  0  0  0  0
  -28.5532  -23.6121   20.8994 C   0  0  0  0  0  0
  -29.0603  -20.6152   20.5353 C   0  0  0  0  0  0
  -28.6458  -22.6715   21.9848 C   0  0  0  0  0  0
  -30.3280  -18.5533   19.6122 C   0  0  0  0  0  0
  -29.0644  -18.2475   21.5934 C   0  0  0  0  0  0
  -30.1064  -17.0291   19.2286 C   0  0  0  0  0  0
  -28.9534  -16.6681   21.3170 C   0  0  0  0  0  0
  -29.0027  -21.0769   18.0046 C   0  0  0  0  0  0
  -29.1049  -25.8044   22.2648 C   0  0  0  0  0  0
  -29.1419  -22.5675   24.3340 C   0  0  0  0  0  0
  -28.2106  -25.1897   21.1653 C   0  0  1  0  0  0
  -29.2481  -19.1509   20.4246 N   0  0  0  0  0  0
  -29.8861  -16.0391   20.3326 N   0  0  0  0  0  0
  -28.4176  -23.1512   23.2548 O   0  0  0  0  0  0
  -31.4662  -12.6271   19.1829 H   0  0  0  0  0  0
  -30.3717  -11.5496   19.9984 H   0  0  0  0  0  0
  -29.8127  -11.7373   17.5481 H   0  0  0  0  0  0
  -29.6240  -13.4690   17.7078 H   0  0  0  0  0  0
  -27.9068  -11.2908   18.9374 H   0  0  0  0  0  0
  -27.3792  -12.5012   17.8029 H   0  0  0  0  0  0
  -27.6122  -14.2602   19.4399 H   0  0  0  0  0  0
  -28.7316  -12.2587   21.4603 H   0  0  0  0  0  0
  -28.3901  -13.9462   21.7580 H   0  0  0  0  0  0
  -25.2756   -9.5703   22.4748 H   0  0  0  0  0  0
  -24.0023   -7.4635   22.7446 H   0  0  0  0  0  0
  -21.0846   -8.8771   19.8945 H   0  0  0  0  0  0
  -22.3722  -10.9644   19.6149 H   0  0  0  0  0  0
  -21.1987   -7.6125   23.9716 H   0  0  0  0  0  0
  -21.1489   -6.0476   25.9064 H   0  0  0  0  0  0
  -22.0622   -2.7615   23.2815 H   0  0  0  0  0  0
  -22.4073  -11.9873   22.4786 H   0  0  0  0  0  0
  -21.1071  -13.1248   22.2632 H   0  0  0  0  0  0
  -24.6436  -15.8422   20.5127 H   0  0  0  0  0  0
  -26.2627  -15.6312   20.0724 H   0  0  0  0  0  0
  -26.7236  -32.5401   23.1072 H   0  0  0  0  0  0
  -25.0029  -33.9665   25.0355 H   0  0  0  0  0  0
  -22.7311  -31.2977   21.3859 H   0  0  0  0  0  0
  -23.3763  -35.9566   23.3246 H   0  0  0  0  0  0
  -24.3567  -36.8952   22.2067 H   0  0  0  0  0  0
  -23.7182  -37.6425   23.6709 H   0  0  0  0  0  0
  -26.1170  -31.5200   20.6005 H   0  0  0  0  0  0
  -26.8605  -30.8206   22.0061 H   0  0  0  0  0  0
  -28.1321  -28.9122   21.2082 H   0  0  0  0  0  0
  -25.9841  -25.8681   19.0461 H   0  0  0  0  0  0
  -23.9738  -27.2850   19.0225 H   0  0  0  0  0  0
  -23.7941  -30.5817   19.4002 H   0  0  0  0  0  0
  -22.7759  -29.2456   19.8436 H   0  0  0  0  0  0
  -25.1268  -36.1868   25.0817 H   0  0  0  0  0  0
  -21.0015  -28.3324   24.1369 H   0  0  0  0  0  0
  -20.5683  -26.2346   23.3631 H   0  0  0  0  0  0
  -21.6650  -26.7449   22.1214 H   0  0  0  0  0  0
  -19.6913  -25.6311   21.1265 H   0  0  0  0  0  0
  -19.6697  -27.3206   20.6732 H   0  0  0  0  0  0
  -17.4209  -26.6707   21.4025 H   0  0  0  0  0  0
  -18.0324  -26.0104   22.9029 H   0  0  0  0  0  0
  -19.7957  -30.7279   24.2291 H   0  0  0  0  0  0
  -17.5041  -31.6275   24.5201 H   0  0  0  0  0  0
  -15.5373  -30.3027   23.7646 H   0  0  0  0  0  0
  -15.8686  -28.0864   22.7050 H   0  0  0  0  0  0
  -24.5871  -30.7127   25.7752 H   0  0  0  0  0  0
  -24.8916  -32.2927   26.4833 H   0  0  0  0  0  0
  -25.8005  -30.8927   27.0218 H   0  0  0  0  0  0
  -26.2923  -29.6720   24.1256 H   0  0  0  0  0  0
  -27.4024  -29.7267   25.4757 H   0  0  0  0  0  0
  -27.8814  -30.4243   23.9463 H   0  0  0  0  0  0
  -27.2652  -33.3623   26.2073 H   0  0  0  0  0  0
  -28.3881  -32.6874   25.0365 H   0  0  0  0  0  0
  -28.0697  -31.8444   26.5442 H   0  0  0  0  0  0
  -28.2543  -38.0118   24.7586 H   0  0  0  0  0  0
  -28.1110  -36.2642   24.6158 H   0  0  0  0  0  0
  -27.2316  -37.1284   25.8869 H   0  0  0  0  0  0
  -20.9416  -29.8762   21.6808 H   0  0  0  0  0  0
  -26.0112  -38.2830   24.1522 H   0  0  0  0  0  0
  -28.6361  -23.6109   18.7574 H   0  0  0  0  0  0
  -28.9469  -20.6394   22.6752 H   0  0  0  0  0  0
  -30.4827  -19.1191   18.6960 H   0  0  0  0  0  0
  -31.2630  -18.6488   20.1637 H   0  0  0  0  0  0
  -29.9003  -18.4153   22.2763 H   0  0  0  0  0  0
  -28.1749  -18.5605   22.1429 H   0  0  0  0  0  0
  -30.9379  -16.7045   18.6010 H   0  0  0  0  0  0
  -29.2311  -16.9737   18.5790 H   0  0  0  0  0  0
  -27.9486  -16.4685   20.9466 H   0  0  0  0  0  0
  -29.0277  -16.1419   22.2694 H   0  0  0  0  0  0
  -28.4486  -21.7402   17.3397 H   0  0  0  0  0  0
  -28.5678  -20.0820   17.8988 H   0  0  0  0  0  0
  -30.0380  -21.0525   17.6653 H   0  0  0  0  0  0
  -28.9157  -25.4016   23.2560 H   0  0  0  0  0  0
  -28.9381  -26.8760   22.3662 H   0  0  0  0  0  0
  -30.1596  -25.6593   22.0331 H   0  0  0  0  0  0
  -29.1817  -23.2770   25.1613 H   0  0  0  0  0  0
  -30.1727  -22.3374   24.0602 H   0  0  0  0  0  0
  -28.6610  -21.6599   24.6998 H   0  0  0  0  0  0
  -27.1910  -25.1743   21.5561 H   0  0  0  0  0  0
  1 25  1  0  0  0
  1 30  2  0  0  0
  1 86  1  0  0  0
  2  3  1  0  0  0
  2 25  1  0  0  0
  2 88  1  0  0  0
  2 89  1  0  0  0
  3  4  1  0  0  0
  3 90  1  0  0  0
  3 91  1  0  0  0
  4  5  1  0  0  0
  4 92  1  0  0  0
  4 93  1  0  0  0
  5  6  1  0  0  0
  5 26  1  0  0  0
  5 94  1  0  0  0
  6 25  1  0  0  0
  6 95  1  0  0  0
  6 96  1  0  0  0
  7  8  2  0  0  0
  7 26  1  0  0  0
  7 29  1  0  0  0
  8  9  1  0  0  0
  8 22  1  0  0  0
  9 10  1  0  0  0
  9 27  2  0  0  0
 10 11  2  0  0  0
 10 15  1  0  0  0
 11 12  1  0  0  0
 11 97  1  0  0  0
 12 13  2  0  0  0
 12 98  1  0  0  0
 13 14  1  0  0  0
 13 31  1  0  0  0
 14 15  2  0  0  0
 14 99  1  0  0  0
 15100  1  0  0  0
 16 17  2  0  0  0
 16 21  1  0  0  0
 16 31  1  0  0  0
 17 18  1  0  0  0
 17101  1  0  0  0
 18 19  2  0  0  0
 18102  1  0  0  0
 19 20  1  0  0  0
 19 24  1  0  0  0
 20 21  2  0  0  0
 20103  1  0  0  0
 21 23  1  0  0  0
 22 28  1  0  0  0
 22 32  2  0  0  0
 26 27  1  0  0  0
 28104  1  0  0  0
 28105  1  0  0  0
 29106  1  0  0  0
 29107  1  0  0  0
 33 34  1  0  0  0
 33 66  1  0  0  0
 33 70  2  0  0  0
 34 36  1  0  0  0
 34 59  1  0  0  0
 34108  1  0  0  0
 35 44  2  0  0  0
 35 45  1  0  0  0
 35 68  1  0  0  0
 36 56  1  0  0  0
 36109  1  0  0  0
 37 39  1  0  0  0
 37 47  1  0  0  0
 37 66  1  0  0  0
 37110  1  0  0  0
 38 43  2  0  0  0
 38 46  1  0  0  0
 38 47  1  0  0  0
 39 64  1  0  0  0
 39 67  2  0  0  0
 40 52  1  0  0  0
 40 53  2  0  0  0
 40 58  1  0  0  0
 41111  1  0  0  0
 41112  1  0  0  0
 41113  1  0  0  0
 41 48  1  0  0  0
 42 43  1  0  0  0
 42 66  1  0  0  0
 42114  1  0  0  0
 42115  1  0  0  0
 43 44  1  0  0  0
 44116  1  0  0  0
 45 46  2  0  0  0
 45117  1  0  0  0
 46118  1  0  0  0
 47119  1  0  0  0
 47120  1  0  0  0
 48 56  1  0  0  0
 48 65  1  0  0  0
 48121  1  0  0  0
 49 50  1  0  0  0
 49 53  1  0  0  0
 49 64  1  0  0  0
 49122  1  0  0  0
 50 51  1  0  0  0
 50123  1  0  0  0
 50124  1  0  0  0
 51 52  1  0  0  0
 51125  1  0  0  0
 51126  1  0  0  0
 52127  1  0  0  0
 52128  1  0  0  0
 53 54  1  0  0  0
 54 55  2  0  0  0
 54129  1  0  0  0
 55 57  1  0  0  0
 55130  1  0  0  0
 56 69  2  0  0  0
 57 58  2  0  0  0
 57131  1  0  0  0
 58132  1  0  0  0
 59 60  1  0  0  0
 59 61  1  0  0  0
 59 62  1  0  0  0
 60133  1  0  0  0
 60134  1  0  0  0
 60135  1  0  0  0
 61136  1  0  0  0
 61137  1  0  0  0
 61138  1  0  0  0
 62139  1  0  0  0
 62140  1  0  0  0
 62141  1  0  0  0
 63 65  1  0  0  0
 63142  1  0  0  0
 63143  1  0  0  0
 63144  1  0  0  0
 64145  1  0  0  0
 65146  1  0  0  0
 68 84  1  0  0  0
 71 73  2  0  0  0
 71 74  1  0  0  0
 71147  1  0  0  0
 72 75  2  0  0  0
 72 76  1  0  0  0
 72148  1  0  0  0
 73 75  1  0  0  0
 73 81  1  0  0  0
 74 76  2  0  0  0
 74 84  1  0  0  0
 75 85  1  0  0  0
 76 87  1  0  0  0
 77 79  1  0  0  0
 77 85  1  0  0  0
 77149  1  0  0  0
 77150  1  0  0  0
 78 80  1  0  0  0
 78 85  1  0  0  0
 78151  1  0  0  0
 78152  1  0  0  0
 79 86  1  0  0  0
 79153  1  0  0  0
 79154  1  0  0  0
 80 86  1  0  0  0
 80155  1  0  0  0
 80156  1  0  0  0
 81157  1  0  0  0
 81158  1  0  0  0
 81159  1  0  0  0
 82160  1  0  0  0
 82161  1  0  0  0
 82162  1  0  0  0
 82 84  1  0  0  0
 83 87  1  0  0  0
 83163  1  0  0  0
 83164  1  0  0  0
 83165  1  0  0  0
 84166  1  0  0  0
M  ISO  4   1 100  68 101  84 101  86 100
M  END
> <chiral flag>
0

> <version>
0

> <s_m_source_file>
/data/baiqing/PycharmProjects/Reinvent-master-3.2/result/LINK_invent/BTK/process_docking_weight1_custom_sum_contain_oxygen_bond_distance_aromatic_linkinvent_7_9_3/rearranged_h_0157.sdf

> <i_m_source_file_index>
54

> <r_mmod_Potential_Energy-OPLS-2005>
496.533386230469

> <r_mmod_Stretch_Energy-OPLS-2005>
148.709365844727

> <r_mmod_Bend_Energy-OPLS-2005>
227.094863891602

> <r_mmod_Torsional_Energy-OPLS-2005>
389.026763916016

> <r_mmod_Improper_Torsional_Energy-OPLS-2005>
19.012487411499

> <r_mmod_Van_der_Waal_Energy-OPLS-2005>
149.000396728516

> <r_mmod_Electrostatic_Energy-OPLS-2005>
-341.476409912109

> <r_mmod_Solvation_Energy-OPLS-2005>
-211.723709106445

> <b_mmod_Minimization_Converged-OPLS-2005>
0

> <r_mmod_RMS_Derivative-OPLS-2005>
3.18454098701477

$$$$
54
                    3D
 Structure written by MMmdl.
164173  0  0  1  0            999 V2000
  -30.7219  -14.4822   20.6239 C   0  0  0  0  0  0
  -30.4193  -12.3391   19.4144 C   0  0  0  0  0  0
  -29.4879  -12.5206   18.2009 C   0  0  0  0  0  0
  -28.0124  -12.3727   18.6175 C   0  0  0  0  0  0
  -27.6592  -13.2131   19.8734 C   0  0  2  0  0  0
  -28.7015  -12.9976   20.9913 C   0  0  0  0  0  0
  -25.2587  -13.8176   20.5707 C   0  0  0  0  0  0
  -24.1842  -13.0446   20.9186 C   0  0  0  0  0  0
  -24.6400  -11.6914   20.8734 C   0  0  0  0  0  0
  -23.9070  -10.4297   21.0403 C   0  0  0  0  0  0
  -24.3612   -9.4212   21.9188 C   0  0  0  0  0  0
  -23.6288   -8.2249   22.0756 C   0  0  0  0  0  0
  -22.4273   -8.0288   21.3547 C   0  0  0  0  0  0
  -21.9910   -9.0261   20.4648 C   0  0  0  0  0  0
  -22.7238  -10.2140   20.3053 C   0  0  0  0  0  0
  -21.6856   -6.0734   22.5282 C   0  0  0  0  0  0
  -21.4013   -6.5639   23.8218 C   0  0  0  0  0  0
  -21.3659   -5.6791   24.9179 C   0  0  0  0  0  0
  -21.6040   -4.3054   24.7228 C   0  0  0  0  0  0
  -21.8817   -3.8149   23.4349 C   0  0  0  0  0  0
  -21.9192   -4.6964   22.3406 C   0  0  0  0  0  0
  -22.7865  -13.5245   21.1840 C   0  0  0  0  0  0
  -22.1662   -4.2149   21.0987 F   0  0  0  0  0  0
  -21.5626   -3.4539   25.7743 F   0  0  0  0  0  0
  -30.0294  -13.3202   20.4424 N   0  0  0  0  0  0
  -26.3021  -12.9357   20.3370 N   0  0  0  0  0  0
  -25.9329  -11.6511   20.5765 N   0  0  0  0  0  0
  -22.0491  -12.8244   22.0386 N   0  0  0  0  0  0
  -25.4308  -15.1896   20.4141 N   0  0  0  0  0  0
  -31.8003  -14.6986   20.0629 O   0  0  0  0  0  0
  -21.6640   -6.8881   21.4244 O   0  0  0  0  0  0
  -22.3559  -14.5556   20.6691 O   0  0  0  0  0  0
  -24.6180  -31.8643   23.2062 C   0  0  0  0  0  0
  -25.9059  -32.4799   23.8369 C   0  0  1  0  0  0
  -27.2292  -27.3978   20.1059 C   0  0  0  0  0  0
  -25.5902  -33.8600   24.2297 N   0  0  0  0  0  0
  -23.4079  -30.4869   21.5483 C   0  0  2  0  0  0
  -24.8540  -28.9472   20.1146 C   0  0  0  0  0  0
  -22.7427  -29.4638   22.4976 C   0  0  0  0  0  0
  -18.0270  -28.1370   22.8485 C   0  0  0  0  0  0
  -24.1487  -36.7311   23.2640 C   0  0  0  0  0  0
  -25.9400  -30.8198   21.3638 C   0  0  0  0  0  0
  -26.0172  -29.4520   20.7095 C   0  0  0  0  0  0
  -27.2105  -28.6878   20.6953 C   0  0  0  0  0  0
  -26.0501  -26.9177   19.4974 C   0  0  0  0  0  0
  -24.8675  -27.6817   19.5022 C   0  0  0  0  0  0
  -23.6180  -29.8178   20.1641 C   0  0  0  0  0  0
  -25.4109  -36.3095   24.0334 C   0  0  1  0  0  0
  -20.5862  -28.3662   23.1308 C   0  0  2  0  0  0
  -20.6761  -26.9394   22.5415 C   0  0  0  0  0  0
  -19.5743  -26.6374   21.5209 C   0  0  0  0  0  0
  -18.1918  -26.7913   22.1617 C   0  0  0  0  0  0
  -19.1522  -28.8832   23.2889 C   0  0  0  0  0  0
  -18.9453  -30.1436   23.8901 C   0  0  0  0  0  0
  -17.6459  -30.6577   24.0561 C   0  0  0  0  0  0
  -25.9043  -34.9466   23.5114 C   0  0  0  0  0  0
  -16.5346  -29.9080   23.6327 C   0  0  0  0  0  0
  -16.7260  -28.6497   23.0345 C   0  0  0  0  0  0
  -26.4478  -31.6595   25.0715 C   0  0  0  0  0  0
  -25.3737  -31.3714   26.1463 C   0  0  0  0  0  0
  -27.0306  -30.3035   24.6099 C   0  0  0  0  0  0
  -27.6044  -32.4327   25.7485 C   0  0  0  0  0  0
  -27.5574  -37.1808   24.8463 C   0  0  0  0  0  0
  -21.4151  -29.3033   22.3724 N   0  0  0  0  0  0
  -26.4289  -37.3782   23.9405 N   0  0  0  0  0  0
  -24.6738  -31.0717   22.0978 N   0  0  0  0  0  0
  -23.4187  -28.8175   23.3025 O   0  0  0  0  0  0
  -28.3773  -26.6250   20.1091 O   0  0  0  0  0  0
  -26.5609  -34.8924   22.4676 O   0  0  0  0  0  0
  -23.5366  -32.1407   23.7443 O   0  0  0  0  0  0
  -30.2768  -18.0726   20.1185 C   0  0  0  0  0  0
  -30.2698  -19.3677   19.5511 C   0  0  0  0  0  0
  -29.2806  -17.7187   21.0567 C   0  0  0  0  0  0
  -29.2666  -20.2919   19.9193 C   0  0  0  0  0  0
  -28.3271  -18.7263   21.3609 C   0  0  0  0  0  0
  -29.7279  -16.3640   23.2232 C   0  0  0  0  0  0
  -31.0827  -15.9248   22.6685 C   0  0  0  0  0  0
  -29.2310  -16.3349   21.7725 C   0  0  2  0  0  0
  -28.2527  -21.5241   17.9801 C   0  0  0  0  0  0
  -28.6617  -24.1568   19.5854 C   0  0  0  0  0  0
  -28.2517  -25.2639   20.6067 C   0  0  0  0  0  0
  -29.1474  -21.6682   19.2262 C   0  0  1  0  0  0
  -28.3101  -19.9625   20.8182 N   0  0  0  0  0  0
  -30.2938  -15.2986   21.6153 N   0  0  0  0  0  0
  -27.3117  -18.5136   22.2776 N   0  0  0  0  0  0
  -28.6625  -22.7522   20.1372 N   0  3  0  0  0  0
  -31.4615  -12.4430   19.1089 H   0  0  0  0  0  0
  -30.3308  -11.3284   19.8157 H   0  0  0  0  0  0
  -29.7315  -11.7913   17.4267 H   0  0  0  0  0  0
  -29.6468  -13.5044   17.7564 H   0  0  0  0  0  0
  -27.8290  -11.3167   18.8167 H   0  0  0  0  0  0
  -27.3577  -12.6425   17.7880 H   0  0  0  0  0  0
  -27.7015  -14.2621   19.5786 H   0  0  0  0  0  0
  -28.6886  -11.9590   21.3242 H   0  0  0  0  0  0
  -28.4505  -13.5827   21.8756 H   0  0  0  0  0  0
  -25.2750   -9.5695   22.4773 H   0  0  0  0  0  0
  -23.9995   -7.4643   22.7478 H   0  0  0  0  0  0
  -21.0841   -8.8776   19.8959 H   0  0  0  0  0  0
  -22.3689  -10.9679   19.6165 H   0  0  0  0  0  0
  -21.2005   -7.6148   23.9721 H   0  0  0  0  0  0
  -21.1482   -6.0522   25.9080 H   0  0  0  0  0  0
  -22.0595   -2.7611   23.2854 H   0  0  0  0  0  0
  -22.4091  -11.9905   22.4785 H   0  0  0  0  0  0
  -21.1108  -13.1283   22.2575 H   0  0  0  0  0  0
  -24.6713  -15.8480   20.5483 H   0  0  0  0  0  0
  -26.2888  -15.6338   20.1136 H   0  0  0  0  0  0
  -26.7131  -32.5504   23.1132 H   0  0  0  0  0  0
  -25.0064  -33.9757   25.0448 H   0  0  0  0  0  0
  -22.6984  -31.3050   21.4063 H   0  0  0  0  0  0
  -23.3744  -35.9647   23.3310 H   0  0  0  0  0  0
  -24.3586  -36.8919   22.2052 H   0  0  0  0  0  0
  -23.7248  -37.6520   23.6660 H   0  0  0  0  0  0
  -26.0555  -31.5831   20.5934 H   0  0  0  0  0  0
  -26.8269  -30.8734   21.9839 H   0  0  0  0  0  0
  -28.1087  -29.0737   21.1580 H   0  0  0  0  0  0
  -26.0387  -25.9498   19.0166 H   0  0  0  0  0  0
  -23.9747  -27.2885   19.0354 H   0  0  0  0  0  0
  -23.7289  -30.5925   19.4040 H   0  0  0  0  0  0
  -22.7407  -29.2394   19.8673 H   0  0  0  0  0  0
  -25.1282  -36.1960   25.0828 H   0  0  0  0  0  0
  -20.9942  -28.3224   24.1432 H   0  0  0  0  0  0
  -20.5659  -26.2266   23.3602 H   0  0  0  0  0  0
  -21.6633  -26.7429   22.1209 H   0  0  0  0  0  0
  -19.6916  -25.6288   21.1229 H   0  0  0  0  0  0
  -19.6694  -27.3194   20.6745 H   0  0  0  0  0  0
  -17.4192  -26.6662   21.4015 H   0  0  0  0  0  0
  -18.0321  -26.0045   22.9001 H   0  0  0  0  0  0
  -19.7932  -30.7240   24.2275 H   0  0  0  0  0  0
  -17.5018  -31.6263   24.5154 H   0  0  0  0  0  0
  -15.5349  -30.2986   23.7650 H   0  0  0  0  0  0
  -15.8655  -28.0823   22.7055 H   0  0  0  0  0  0
  -24.5902  -30.7066   25.7807 H   0  0  0  0  0  0
  -24.8942  -32.2875   26.4921 H   0  0  0  0  0  0
  -25.8083  -30.8879   27.0220 H   0  0  0  0  0  0
  -26.2841  -29.6809   24.1149 H   0  0  0  0  0  0
  -27.4068  -29.7263   25.4556 H   0  0  0  0  0  0
  -27.8683  -30.4351   23.9246 H   0  0  0  0  0  0
  -27.2648  -33.3626   26.2065 H   0  0  0  0  0  0
  -28.3853  -32.6895   25.0313 H   0  0  0  0  0  0
  -28.0713  -31.8455   26.5400 H   0  0  0  0  0  0
  -28.2593  -38.0101   24.7503 H   0  0  0  0  0  0
  -28.1068  -36.2635   24.6297 H   0  0  0  0  0  0
  -27.2300  -37.1462   25.8868 H   0  0  0  0  0  0
  -20.9314  -29.8778   21.6965 H   0  0  0  0  0  0
  -26.0180  -38.2861   24.1406 H   0  0  0  0  0  0
  -31.0427  -17.3662   19.8351 H   0  0  0  0  0  0
  -31.0167  -19.6358   18.8156 H   0  0  0  0  0  0
  -29.7208  -17.3404   23.7093 H   0  0  0  0  0  0
  -29.2638  -15.6009   23.8532 H   0  0  0  0  0  0
  -31.6246  -15.2328   23.3141 H   0  0  0  0  0  0
  -31.7194  -16.7446   22.3285 H   0  0  0  0  0  0
  -28.2229  -15.9220   21.7067 H   0  0  0  0  0  0
  -28.6409  -20.7467   17.3216 H   0  0  0  0  0  0
  -28.2070  -22.4385   17.3918 H   0  0  0  0  0  0
  -27.2354  -21.2417   18.2516 H   0  0  0  0  0  0
  -29.6581  -24.3845   19.2062 H   0  0  0  0  0  0
  -27.9843  -24.2177   18.7345 H   0  0  0  0  0  0
  -28.9033  -25.1955   21.4785 H   0  0  0  0  0  0
  -27.2480  -25.0621   20.9850 H   0  0  0  0  0  0
  -30.1500  -21.9485   18.8992 H   0  0  0  0  0  0
  -27.3858  -17.7412   22.9258 H   0  0  0  0  0  0
  -26.8151  -19.3164   22.6416 H   0  0  0  0  0  0
  -27.7427  -22.4753   20.4439 H   0  0  0  0  0  0
  -29.2553  -22.7066   20.9512 H   0  0  0  0  0  0
  1 25  1  0  0  0
  1 30  2  0  0  0
  1 84  1  0  0  0
  2  3  1  0  0  0
  2 25  1  0  0  0
  2 87  1  0  0  0
  2 88  1  0  0  0
  3  4  1  0  0  0
  3 89  1  0  0  0
  3 90  1  0  0  0
  4  5  1  0  0  0
  4 91  1  0  0  0
  4 92  1  0  0  0
  5  6  1  0  0  0
  5 26  1  0  0  0
  5 93  1  0  0  0
  6 25  1  0  0  0
  6 94  1  0  0  0
  6 95  1  0  0  0
  7  8  2  0  0  0
  7 26  1  0  0  0
  7 29  1  0  0  0
  8  9  1  0  0  0
  8 22  1  0  0  0
  9 10  1  0  0  0
  9 27  2  0  0  0
 10 11  2  0  0  0
 10 15  1  0  0  0
 11 12  1  0  0  0
 11 96  1  0  0  0
 12 13  2  0  0  0
 12 97  1  0  0  0
 13 14  1  0  0  0
 13 31  1  0  0  0
 14 15  2  0  0  0
 14 98  1  0  0  0
 15 99  1  0  0  0
 16 17  2  0  0  0
 16 21  1  0  0  0
 16 31  1  0  0  0
 17 18  1  0  0  0
 17100  1  0  0  0
 18 19  2  0  0  0
 18101  1  0  0  0
 19 20  1  0  0  0
 19 24  1  0  0  0
 20 21  2  0  0  0
 20102  1  0  0  0
 21 23  1  0  0  0
 22 28  1  0  0  0
 22 32  2  0  0  0
 26 27  1  0  0  0
 28103  1  0  0  0
 28104  1  0  0  0
 29105  1  0  0  0
 29106  1  0  0  0
 33 34  1  0  0  0
 33 66  1  0  0  0
 33 70  2  0  0  0
 34 36  1  0  0  0
 34 59  1  0  0  0
 34107  1  0  0  0
 35 44  2  0  0  0
 35 45  1  0  0  0
 35 68  1  0  0  0
 36 56  1  0  0  0
 36108  1  0  0  0
 37 39  1  0  0  0
 37 47  1  0  0  0
 37 66  1  0  0  0
 37109  1  0  0  0
 38 43  2  0  0  0
 38 46  1  0  0  0
 38 47  1  0  0  0
 39 64  1  0  0  0
 39 67  2  0  0  0
 40 52  1  0  0  0
 40 53  2  0  0  0
 40 58  1  0  0  0
 41110  1  0  0  0
 41111  1  0  0  0
 41112  1  0  0  0
 41 48  1  0  0  0
 42 43  1  0  0  0
 42 66  1  0  0  0
 42113  1  0  0  0
 42114  1  0  0  0
 43 44  1  0  0  0
 44115  1  0  0  0
 45 46  2  0  0  0
 45116  1  0  0  0
 46117  1  0  0  0
 47118  1  0  0  0
 47119  1  0  0  0
 48 56  1  0  0  0
 48 65  1  0  0  0
 48120  1  0  0  0
 49 50  1  0  0  0
 49 53  1  0  0  0
 49 64  1  0  0  0
 49121  1  0  0  0
 50 51  1  0  0  0
 50122  1  0  0  0
 50123  1  0  0  0
 51 52  1  0  0  0
 51124  1  0  0  0
 51125  1  0  0  0
 52126  1  0  0  0
 52127  1  0  0  0
 53 54  1  0  0  0
 54 55  2  0  0  0
 54128  1  0  0  0
 55 57  1  0  0  0
 55129  1  0  0  0
 56 69  2  0  0  0
 57 58  2  0  0  0
 57130  1  0  0  0
 58131  1  0  0  0
 59 60  1  0  0  0
 59 61  1  0  0  0
 59 62  1  0  0  0
 60132  1  0  0  0
 60133  1  0  0  0
 60134  1  0  0  0
 61135  1  0  0  0
 61136  1  0  0  0
 61137  1  0  0  0
 62138  1  0  0  0
 62139  1  0  0  0
 62140  1  0  0  0
 63 65  1  0  0  0
 63141  1  0  0  0
 63142  1  0  0  0
 63143  1  0  0  0
 64144  1  0  0  0
 65145  1  0  0  0
 68 81  1  0  0  0
 71 72  2  0  0  0
 71 73  1  0  0  0
 71146  1  0  0  0
 72 74  1  0  0  0
 72147  1  0  0  0
 73 75  2  0  0  0
 73 78  1  0  0  0
 74 82  1  0  0  0
 74 83  2  0  0  0
 75 83  1  0  0  0
 75 85  1  0  0  0
 76 77  1  0  0  0
 76 78  1  0  0  0
 76148  1  0  0  0
 76149  1  0  0  0
 77 84  1  0  0  0
 77150  1  0  0  0
 77151  1  0  0  0
 78 84  1  0  0  0
 78152  1  0  0  0
 79153  1  0  0  0
 79154  1  0  0  0
 79155  1  0  0  0
 79 82  1  0  0  0
 80 81  1  0  0  0
 80 86  1  0  0  0
 80156  1  0  0  0
 80157  1  0  0  0
 81158  1  0  0  0
 81159  1  0  0  0
 82 86  1  0  0  0
 82160  1  0  0  0
 85161  1  0  0  0
 85162  1  0  0  0
 86163  1  0  0  0
 86164  1  0  0  0
M  CHG  1  86   1
M  ISO  4   1 100  68 101  81 101  84 100
M  END
> <chiral flag>
0

> <version>
0

> <s_m_source_file>
/data/baiqing/PycharmProjects/Reinvent-master-3.2/result/LINK_invent/BTK/process_docking_weight1_custom_sum_contain_oxygen_bond_distance_aromatic_linkinvent_7_9_3/rearranged_h_0157.sdf

> <i_m_source_file_index>
55

> <r_mmod_Potential_Energy-OPLS-2005>
-347.702453613281

> <r_mmod_Stretch_Energy-OPLS-2005>
49.3796157836914

> <r_mmod_Bend_Energy-OPLS-2005>
143.11784362793

> <r_mmod_Torsional_Energy-OPLS-2005>
277.286682128906

> <r_mmod_Improper_Torsional_Energy-OPLS-2005>
9.80598449707031

> <r_mmod_Van_der_Waal_Energy-OPLS-2005>
142.511993408203

> <r_mmod_Electrostatic_Energy-OPLS-2005>
-547.630615234375

> <r_mmod_Solvation_Energy-OPLS-2005>
-437.597747802734

> <b_mmod_Minimization_Converged-OPLS-2005>
0

> <r_mmod_RMS_Derivative-OPLS-2005>
1.11696839332581

$$$$
55
                    3D
 Structure written by MMmdl.
177187  0  0  1  0            999 V2000
  -30.7316  -14.4912   20.4420 C   0  0  0  0  0  0
  -30.4186  -12.2903   19.4213 C   0  0  0  0  0  0
  -29.4877  -12.4220   18.1999 C   0  0  0  0  0  0
  -28.0065  -12.3077   18.6232 C   0  0  0  0  0  0
  -27.6362  -13.1764   19.8634 C   0  0  2  0  0  0
  -28.7068  -13.0673   20.9767 C   0  0  0  0  0  0
  -25.2566  -13.8009   20.5802 C   0  0  0  0  0  0
  -24.1776  -13.0349   20.9259 C   0  0  0  0  0  0
  -24.6283  -11.6806   20.8848 C   0  0  0  0  0  0
  -23.8989  -10.4232   21.0543 C   0  0  0  0  0  0
  -24.3575   -9.4144   21.9277 C   0  0  0  0  0  0
  -23.6258   -8.2182   22.0763 C   0  0  0  0  0  0
  -22.4255   -8.0244   21.3540 C   0  0  0  0  0  0
  -21.9912   -9.0215   20.4659 C   0  0  0  0  0  0
  -22.7198  -10.2117   20.3134 C   0  0  0  0  0  0
  -21.6811   -6.0763   22.5346 C   0  0  0  0  0  0
  -21.3946   -6.5656   23.8293 C   0  0  0  0  0  0
  -21.3646   -5.6822   24.9273 C   0  0  0  0  0  0
  -21.6047   -4.3095   24.7276 C   0  0  0  0  0  0
  -21.8801   -3.8160   23.4402 C   0  0  0  0  0  0
  -21.9166   -4.6989   22.3448 C   0  0  0  0  0  0
  -22.7831  -13.5215   21.1880 C   0  0  0  0  0  0
  -22.1625   -4.2198   21.1022 F   0  0  0  0  0  0
  -21.5634   -3.4544   25.7773 F   0  0  0  0  0  0
  -30.0255  -13.3285   20.3783 N   0  0  0  0  0  0
  -26.2921  -12.9088   20.3486 N   0  0  0  0  0  0
  -25.9215  -11.6290   20.5890 N   0  0  0  0  0  0
  -22.0378  -12.8290   22.0421 N   0  0  0  0  0  0
  -25.4357  -15.1699   20.4190 N   0  0  0  0  0  0
  -31.9386  -14.5589   20.2283 O   0  0  0  0  0  0
  -21.6567   -6.8881   21.4312 O   0  0  0  0  0  0
  -22.3660  -14.5549   20.6681 O   0  0  0  0  0  0
  -24.6172  -31.8676   23.2139 C   0  0  0  0  0  0
  -25.9022  -32.4864   23.8465 C   0  0  1  0  0  0
  -27.2533  -27.4605   20.0404 C   0  0  0  0  0  0
  -25.5890  -33.8679   24.2359 N   0  0  0  0  0  0
  -23.4099  -30.4826   21.5567 C   0  0  2  0  0  0
  -24.8554  -28.9477   20.1337 C   0  0  0  0  0  0
  -22.7443  -29.4648   22.5082 C   0  0  0  0  0  0
  -18.0260  -28.1404   22.8542 C   0  0  0  0  0  0
  -24.1482  -36.7342   23.2639 C   0  0  0  0  0  0
  -25.9340  -30.8280   21.3733 C   0  0  0  0  0  0
  -26.0157  -29.4610   20.7267 C   0  0  0  0  0  0
  -27.2185  -28.7144   20.6958 C   0  0  0  0  0  0
  -26.0633  -26.9448   19.4842 C   0  0  0  0  0  0
  -24.8687  -27.6825   19.5268 C   0  0  0  0  0  0
  -23.6102  -29.8008   20.1814 C   0  0  0  0  0  0
  -25.4105  -36.3163   24.0322 C   0  0  1  0  0  0
  -20.5873  -28.3690   23.1342 C   0  0  2  0  0  0
  -20.6777  -26.9433   22.5425 C   0  0  0  0  0  0
  -19.5742  -26.6405   21.5251 C   0  0  0  0  0  0
  -18.1921  -26.7970   22.1637 C   0  0  0  0  0  0
  -19.1511  -28.8847   23.2954 C   0  0  0  0  0  0
  -18.9393  -30.1463   23.8967 C   0  0  0  0  0  0
  -17.6397  -30.6618   24.0564 C   0  0  0  0  0  0
  -25.8994  -34.9524   23.5117 C   0  0  0  0  0  0
  -16.5299  -29.9095   23.6363 C   0  0  0  0  0  0
  -16.7242  -28.6487   23.0432 C   0  0  0  0  0  0
  -26.4491  -31.6681   25.0812 C   0  0  0  0  0  0
  -25.3746  -31.3764   26.1535 C   0  0  0  0  0  0
  -27.0308  -30.3111   24.6214 C   0  0  0  0  0  0
  -27.6044  -32.4500   25.7556 C   0  0  0  0  0  0
  -27.5586  -37.1818   24.8463 C   0  0  0  0  0  0
  -21.4187  -29.3060   22.3774 N   0  0  0  0  0  0
  -26.4315  -37.3833   23.9391 N   0  0  0  0  0  0
  -24.6707  -31.0731   22.1085 N   0  0  0  0  0  0
  -23.4155  -28.8148   23.3143 O   0  0  0  0  0  0
  -28.4425  -26.7789   19.8937 O   0  0  0  0  0  0
  -26.5589  -34.8969   22.4715 O   0  0  0  0  0  0
  -23.5320  -32.1423   23.7510 O   0  0  0  0  0  0
  -32.0653  -20.5410   16.6677 C   0  0  0  0  0  0
  -30.1380  -20.8203   18.6746 C   0  0  0  0  0  0
  -30.3703  -21.8753   17.7791 C   0  0  0  0  0  0
  -30.7996  -19.5670   18.5505 C   0  0  0  0  0  0
  -31.3277  -21.7418   16.7416 C   0  0  0  0  0  0
  -31.7905  -19.4469   17.5312 C   0  0  0  0  0  0
  -29.0251  -21.1600   19.6511 C   0  0  0  0  0  0
  -28.5474  -22.5630   19.2336 C   0  0  0  0  0  0
  -29.9797  -17.1277   18.5153 C   0  0  0  0  0  0
  -31.1974  -17.8817   20.5396 C   0  0  0  0  0  0
  -29.2357  -16.0792   19.3473 C   0  0  0  0  0  0
  -30.4694  -16.7675   21.3557 C   0  0  0  0  0  0
  -30.3124  -18.3530   19.3732 C   0  0  0  0  0  0
  -29.3270  -22.9763   17.9641 C   0  0  1  0  0  0
  -31.5684  -22.7853   15.6621 C   0  0  0  0  0  0
  -32.7136  -17.8328   16.0277 C   0  0  0  0  0  0
  -28.7109  -25.3570   17.8565 C   0  0  0  0  0  0
  -28.9209  -26.7284   18.5338 C   0  0  0  0  0  0
  -30.0087  -15.6360   20.5250 N   0  0  0  0  0  0
  -29.8059  -24.3702   18.0938 N   0  3  0  0  0  0
  -32.4546  -18.2534   17.3703 O   0  0  0  0  0  0
  -31.4572  -12.3930   19.1029 H   0  0  0  0  0  0
  -30.3391  -11.3055   19.8850 H   0  0  0  0  0  0
  -29.7321  -11.6355   17.4876 H   0  0  0  0  0  0
  -29.6764  -13.3586   17.6671 H   0  0  0  0  0  0
  -27.8049  -11.2574   18.8327 H   0  0  0  0  0  0
  -27.3672  -12.5511   17.7753 H   0  0  0  0  0  0
  -27.5872  -14.1963   19.5238 H   0  0  0  0  0  0
  -28.6946  -12.0691   21.4253 H   0  0  0  0  0  0
  -28.4887  -13.7732   21.7839 H   0  0  0  0  0  0
  -25.2761   -9.5531   22.4856 H   0  0  0  0  0  0
  -23.9951   -7.4554   22.7448 H   0  0  0  0  0  0
  -21.0842   -8.8710   19.8958 H   0  0  0  0  0  0
  -22.3714  -10.9640   19.6195 H   0  0  0  0  0  0
  -21.1918   -7.6158   23.9787 H   0  0  0  0  0  0
  -21.1473   -6.0566   25.9173 H   0  0  0  0  0  0
  -22.0586   -2.7612   23.2905 H   0  0  0  0  0  0
  -22.3865  -11.9940   22.4897 H   0  0  0  0  0  0
  -21.0943  -13.1340   22.2420 H   0  0  0  0  0  0
  -24.6702  -15.8258   20.5277 H   0  0  0  0  0  0
  -26.3036  -15.6116   20.1381 H   0  0  0  0  0  0
  -26.7093  -32.5526   23.1209 H   0  0  0  0  0  0
  -25.0169  -33.9974   25.0568 H   0  0  0  0  0  0
  -22.7031  -31.3011   21.4122 H   0  0  0  0  0  0
  -23.3796  -35.9624   23.3310 H   0  0  0  0  0  0
  -24.3585  -36.8981   22.2061 H   0  0  0  0  0  0
  -23.7157  -37.6496   23.6691 H   0  0  0  0  0  0
  -26.0445  -31.5803   20.5920 H   0  0  0  0  0  0
  -26.8172  -30.8935   21.9954 H   0  0  0  0  0  0
  -28.1275  -29.1090   21.1261 H   0  0  0  0  0  0
  -26.0427  -25.9728   19.0115 H   0  0  0  0  0  0
  -23.9670  -27.2835   19.0825 H   0  0  0  0  0  0
  -23.7002  -30.5567   19.4023 H   0  0  0  0  0  0
  -22.7406  -29.2012   19.9048 H   0  0  0  0  0  0
  -25.1283  -36.2042   25.0812 H   0  0  0  0  0  0
  -20.9945  -28.3214   24.1472 H   0  0  0  0  0  0
  -20.5819  -26.2274   23.3628 H   0  0  0  0  0  0
  -21.6605  -26.7601   22.1097 H   0  0  0  0  0  0
  -19.6929  -25.6314   21.1300 H   0  0  0  0  0  0
  -19.6662  -27.3185   20.6767 H   0  0  0  0  0  0
  -17.4238  -26.6817   21.3993 H   0  0  0  0  0  0
  -18.0268  -26.0008   22.8901 H   0  0  0  0  0  0
  -19.7830  -30.7292   24.2364 H   0  0  0  0  0  0
  -17.4911  -31.6310   24.5115 H   0  0  0  0  0  0
  -15.5297  -30.3004   23.7635 H   0  0  0  0  0  0
  -15.8646  -28.0773   22.7238 H   0  0  0  0  0  0
  -24.5900  -30.7158   25.7835 H   0  0  0  0  0  0
  -24.8951  -32.2897   26.5086 H   0  0  0  0  0  0
  -25.8035  -30.8837   27.0246 H   0  0  0  0  0  0
  -26.2792  -29.6885   24.1296 H   0  0  0  0  0  0
  -27.4072  -29.7395   25.4705 H   0  0  0  0  0  0
  -27.8701  -30.4491   23.9374 H   0  0  0  0  0  0
  -27.2656  -33.3871   26.2029 H   0  0  0  0  0  0
  -28.3851  -32.6955   25.0342 H   0  0  0  0  0  0
  -28.0716  -31.8704   26.5539 H   0  0  0  0  0  0
  -28.2593  -38.0130   24.7523 H   0  0  0  0  0  0
  -28.1102  -36.2643   24.6274 H   0  0  0  0  0  0
  -27.2329  -37.1431   25.8884 H   0  0  0  0  0  0
  -20.9439  -29.8704   21.6852 H   0  0  0  0  0  0
  -26.0222  -38.2927   24.1358 H   0  0  0  0  0  0
  -32.8221  -20.4380   15.8944 H   0  0  0  0  0  0
  -29.3978  -21.1680   20.6785 H   0  0  0  0  0  0
  -28.1892  -20.4597   19.5952 H   0  0  0  0  0  0
  -28.7525  -23.2603   20.0499 H   0  0  0  0  0  0
  -27.4718  -22.5920   19.0715 H   0  0  0  0  0  0
  -29.3815  -17.4044   17.6476 H   0  0  0  0  0  0
  -30.8843  -16.6632   18.1238 H   0  0  0  0  0  0
  -32.1539  -17.5182   20.1559 H   0  0  0  0  0  0
  -31.4308  -18.7230   21.1948 H   0  0  0  0  0  0
  -29.0576  -15.2657   18.6538 H   0  0  0  0  0  0
  -28.2592  -16.4510   19.6622 H   0  0  0  0  0  0
  -29.5814  -17.1833   21.8385 H   0  0  0  0  0  0
  -31.1154  -16.4181   22.1648 H   0  0  0  0  0  0
  -29.3698  -18.6456   19.8280 H   0  0  0  0  0  0
  -28.6803  -22.8996   17.0886 H   0  0  0  0  0  0
  -31.8240  -22.3000   14.7147 H   0  0  0  0  0  0
  -32.4055  -23.4355   15.9268 H   0  0  0  0  0  0
  -30.6886  -23.4005   15.4714 H   0  0  0  0  0  0
  -32.7393  -16.7429   15.9986 H   0  0  0  0  0  0
  -33.6762  -18.1932   15.6616 H   0  0  0  0  0  0
  -31.9425  -18.1561   15.3215 H   0  0  0  0  0  0
  -28.6296  -25.4816   16.7738 H   0  0  0  0  0  0
  -27.7531  -24.9459   18.1778 H   0  0  0  0  0  0
  -28.4141  -27.4911   17.9397 H   0  0  0  0  0  0
  -29.9722  -27.0084   18.4979 H   0  0  0  0  0  0
  -30.5540  -24.5371   17.4380 H   0  0  0  0  0  0
  -30.1904  -24.4942   19.0173 H   0  0  0  0  0  0
  1 25  1  0  0  0
  1 30  2  0  0  0
  1 89  1  0  0  0
  2  3  1  0  0  0
  2 25  1  0  0  0
  2 92  1  0  0  0
  2 93  1  0  0  0
  3  4  1  0  0  0
  3 94  1  0  0  0
  3 95  1  0  0  0
  4  5  1  0  0  0
  4 96  1  0  0  0
  4 97  1  0  0  0
  5  6  1  0  0  0
  5 26  1  0  0  0
  5 98  1  0  0  0
  6 25  1  0  0  0
  6 99  1  0  0  0
  6100  1  0  0  0
  7  8  2  0  0  0
  7 26  1  0  0  0
  7 29  1  0  0  0
  8  9  1  0  0  0
  8 22  1  0  0  0
  9 10  1  0  0  0
  9 27  2  0  0  0
 10 11  2  0  0  0
 10 15  1  0  0  0
 11 12  1  0  0  0
 11101  1  0  0  0
 12 13  2  0  0  0
 12102  1  0  0  0
 13 14  1  0  0  0
 13 31  1  0  0  0
 14 15  2  0  0  0
 14103  1  0  0  0
 15104  1  0  0  0
 16 17  2  0  0  0
 16 21  1  0  0  0
 16 31  1  0  0  0
 17 18  1  0  0  0
 17105  1  0  0  0
 18 19  2  0  0  0
 18106  1  0  0  0
 19 20  1  0  0  0
 19 24  1  0  0  0
 20 21  2  0  0  0
 20107  1  0  0  0
 21 23  1  0  0  0
 22 28  1  0  0  0
 22 32  2  0  0  0
 26 27  1  0  0  0
 28108  1  0  0  0
 28109  1  0  0  0
 29110  1  0  0  0
 29111  1  0  0  0
 33 34  1  0  0  0
 33 66  1  0  0  0
 33 70  2  0  0  0
 34 36  1  0  0  0
 34 59  1  0  0  0
 34112  1  0  0  0
 35 44  2  0  0  0
 35 45  1  0  0  0
 35 68  1  0  0  0
 36 56  1  0  0  0
 36113  1  0  0  0
 37 39  1  0  0  0
 37 47  1  0  0  0
 37 66  1  0  0  0
 37114  1  0  0  0
 38 43  2  0  0  0
 38 46  1  0  0  0
 38 47  1  0  0  0
 39 64  1  0  0  0
 39 67  2  0  0  0
 40 52  1  0  0  0
 40 53  2  0  0  0
 40 58  1  0  0  0
 41115  1  0  0  0
 41116  1  0  0  0
 41117  1  0  0  0
 41 48  1  0  0  0
 42 43  1  0  0  0
 42 66  1  0  0  0
 42118  1  0  0  0
 42119  1  0  0  0
 43 44  1  0  0  0
 44120  1  0  0  0
 45 46  2  0  0  0
 45121  1  0  0  0
 46122  1  0  0  0
 47123  1  0  0  0
 47124  1  0  0  0
 48 56  1  0  0  0
 48 65  1  0  0  0
 48125  1  0  0  0
 49 50  1  0  0  0
 49 53  1  0  0  0
 49 64  1  0  0  0
 49126  1  0  0  0
 50 51  1  0  0  0
 50127  1  0  0  0
 50128  1  0  0  0
 51 52  1  0  0  0
 51129  1  0  0  0
 51130  1  0  0  0
 52131  1  0  0  0
 52132  1  0  0  0
 53 54  1  0  0  0
 54 55  2  0  0  0
 54133  1  0  0  0
 55 57  1  0  0  0
 55134  1  0  0  0
 56 69  2  0  0  0
 57 58  2  0  0  0
 57135  1  0  0  0
 58136  1  0  0  0
 59 60  1  0  0  0
 59 61  1  0  0  0
 59 62  1  0  0  0
 60137  1  0  0  0
 60138  1  0  0  0
 60139  1  0  0  0
 61140  1  0  0  0
 61141  1  0  0  0
 61142  1  0  0  0
 62143  1  0  0  0
 62144  1  0  0  0
 62145  1  0  0  0
 63 65  1  0  0  0
 63146  1  0  0  0
 63147  1  0  0  0
 63148  1  0  0  0
 64149  1  0  0  0
 65150  1  0  0  0
 68 88  1  0  0  0
 71 75  2  0  0  0
 71 76  1  0  0  0
 71151  1  0  0  0
 72 73  2  0  0  0
 72 74  1  0  0  0
 72 77  1  0  0  0
 73 75  1  0  0  0
 73 84  1  0  0  0
 74 76  2  0  0  0
 74 83  1  0  0  0
 75 85  1  0  0  0
 76 91  1  0  0  0
 77 78  1  0  0  0
 77152  1  0  0  0
 77153  1  0  0  0
 78 84  1  0  0  0
 78154  1  0  0  0
 78155  1  0  0  0
 79 81  1  0  0  0
 79 83  1  0  0  0
 79156  1  0  0  0
 79157  1  0  0  0
 80 82  1  0  0  0
 80 83  1  0  0  0
 80158  1  0  0  0
 80159  1  0  0  0
 81 89  1  0  0  0
 81160  1  0  0  0
 81161  1  0  0  0
 82 89  1  0  0  0
 82162  1  0  0  0
 82163  1  0  0  0
 83164  1  0  0  0
 84 90  1  0  0  0
 84165  1  0  0  0
 85166  1  0  0  0
 85167  1  0  0  0
 85168  1  0  0  0
 86 91  1  0  0  0
 86169  1  0  0  0
 86170  1  0  0  0
 86171  1  0  0  0
 87 88  1  0  0  0
 87 90  1  0  0  0
 87172  1  0  0  0
 87173  1  0  0  0
 88174  1  0  0  0
 88175  1  0  0  0
 90176  1  0  0  0
 90177  1  0  0  0
M  CHG  1  90   1
M  ISO  4   1 100  68 101  88 101  89 100
M  END
> <chiral flag>
0

> <version>
0

> <s_m_source_file>
/data/baiqing/PycharmProjects/Reinvent-master-3.2/result/LINK_invent/BTK/process_docking_weight1_custom_sum_contain_oxygen_bond_distance_aromatic_linkinvent_7_9_3/rearranged_h_0157.sdf

> <i_m_source_file_index>
56

> <r_mmod_Potential_Energy-OPLS-2005>
142.333557128906

> <r_mmod_Stretch_Energy-OPLS-2005>
44.0552864074707

> <r_mmod_Bend_Energy-OPLS-2005>
152.22607421875

> <r_mmod_Torsional_Energy-OPLS-2005>
401.930236816406

> <r_mmod_Improper_Torsional_Energy-OPLS-2005>
9.50799560546875

> <r_mmod_Van_der_Waal_Energy-OPLS-2005>
163.570266723633

> <r_mmod_Electrostatic_Energy-OPLS-2005>
-219.998962402344

> <r_mmod_Solvation_Energy-OPLS-2005>
-438.052337646484

> <b_mmod_Minimization_Converged-OPLS-2005>
0

> <r_mmod_RMS_Derivative-OPLS-2005>
9.08519840240479

$$$$
56
                    3D
 Structure written by MMmdl.
170179  0  0  1  0            999 V2000
  -30.7333  -14.3818   20.5476 C   0  0  0  0  0  0
  -30.4100  -12.2409   19.4195 C   0  0  0  0  0  0
  -29.4988  -12.5067   18.2034 C   0  0  0  0  0  0
  -28.0126  -12.3910   18.5995 C   0  0  0  0  0  0
  -27.6660  -13.2043   19.8773 C   0  0  2  0  0  0
  -28.7052  -12.9610   20.9997 C   0  0  0  0  0  0
  -25.2607  -13.8160   20.5680 C   0  0  0  0  0  0
  -24.1860  -13.0440   20.9177 C   0  0  0  0  0  0
  -24.6403  -11.6898   20.8725 C   0  0  0  0  0  0
  -23.9065  -10.4294   21.0400 C   0  0  0  0  0  0
  -24.3618   -9.4213   21.9177 C   0  0  0  0  0  0
  -23.6293   -8.2250   22.0755 C   0  0  0  0  0  0
  -22.4278   -8.0285   21.3547 C   0  0  0  0  0  0
  -21.9913   -9.0251   20.4653 C   0  0  0  0  0  0
  -22.7238  -10.2135   20.3052 C   0  0  0  0  0  0
  -21.6847   -6.0744   22.5289 C   0  0  0  0  0  0
  -21.4013   -6.5640   23.8231 C   0  0  0  0  0  0
  -21.3668   -5.6793   24.9187 C   0  0  0  0  0  0
  -21.6049   -4.3052   24.7239 C   0  0  0  0  0  0
  -21.8810   -3.8153   23.4355 C   0  0  0  0  0  0
  -21.9192   -4.6970   22.3421 C   0  0  0  0  0  0
  -22.7899  -13.5258   21.1855 C   0  0  0  0  0  0
  -22.1656   -4.2161   21.0992 F   0  0  0  0  0  0
  -21.5631   -3.4537   25.7747 F   0  0  0  0  0  0
  -30.0482  -13.2179   20.4529 N   0  0  0  0  0  0
  -26.3035  -12.9328   20.3354 N   0  0  0  0  0  0
  -25.9322  -11.6484   20.5748 N   0  0  0  0  0  0
  -22.0507  -12.8239   22.0385 N   0  0  0  0  0  0
  -25.4320  -15.1880   20.4094 N   0  0  0  0  0  0
  -31.8868  -14.5346   20.1377 O   0  0  0  0  0  0
  -21.6635   -6.8878   21.4254 O   0  0  0  0  0  0
  -22.3602  -14.5573   20.6715 O   0  0  0  0  0  0
  -24.6103  -31.8691   23.2151 C   0  0  0  0  0  0
  -25.8998  -32.4844   23.8430 C   0  0  1  0  0  0
  -27.2428  -27.4979   20.0859 C   0  0  0  0  0  0
  -25.5857  -33.8644   24.2348 N   0  0  0  0  0  0
  -23.3962  -30.4930   21.5517 C   0  0  2  0  0  0
  -24.8454  -28.9653   20.1141 C   0  0  0  0  0  0
  -22.7380  -29.4671   22.5010 C   0  0  0  0  0  0
  -18.0251  -28.1404   22.8475 C   0  0  0  0  0  0
  -24.1484  -36.7332   23.2636 C   0  0  0  0  0  0
  -25.9165  -30.8560   21.3572 C   0  0  0  0  0  0
  -25.9964  -29.4922   20.7120 C   0  0  0  0  0  0
  -27.1997  -28.7610   20.7054 C   0  0  0  0  0  0
  -26.0846  -26.9689   19.4832 C   0  0  0  0  0  0
  -24.8789  -27.6992   19.5007 C   0  0  0  0  0  0
  -23.6022  -29.8231   20.1656 C   0  0  0  0  0  0
  -25.4107  -36.3141   24.0343 C   0  0  1  0  0  0
  -20.5840  -28.3660   23.1335 C   0  0  2  0  0  0
  -20.6761  -26.9406   22.5434 C   0  0  0  0  0  0
  -19.5749  -26.6398   21.5230 C   0  0  0  0  0  0
  -18.1908  -26.7947   22.1614 C   0  0  0  0  0  0
  -19.1498  -28.8850   23.2909 C   0  0  0  0  0  0
  -18.9439  -30.1450   23.8928 C   0  0  0  0  0  0
  -17.6441  -30.6608   24.0562 C   0  0  0  0  0  0
  -25.9018  -34.9494   23.5147 C   0  0  0  0  0  0
  -16.5331  -29.9121   23.6322 C   0  0  0  0  0  0
  -16.7235  -28.6538   23.0351 C   0  0  0  0  0  0
  -26.4444  -31.6612   25.0737 C   0  0  0  0  0  0
  -25.3693  -31.3715   26.1466 C   0  0  0  0  0  0
  -27.0272  -30.3064   24.6096 C   0  0  0  0  0  0
  -27.6051  -32.4309   25.7480 C   0  0  0  0  0  0
  -27.5592  -37.1819   24.8458 C   0  0  0  0  0  0
  -21.4112  -29.3028   22.3745 N   0  0  0  0  0  0
  -26.4303  -37.3823   23.9406 N   0  0  0  0  0  0
  -24.6589  -31.0860   22.1018 N   0  0  0  0  0  0
  -23.4172  -28.8203   23.3042 O   0  0  0  0  0  0
  -28.4102  -26.7837   20.0639 O   0  0  0  0  0  0
  -26.5615  -34.8927   22.4733 O   0  0  0  0  0  0
  -23.5305  -32.1401   23.7585 O   0  0  0  0  0  0
  -30.0886  -19.1921   20.8043 C   0  0  0  0  0  0
  -28.4123  -17.7003   21.8079 C   0  0  0  0  0  0
  -29.4479  -20.2652   21.4298 C   0  0  0  0  0  0
  -28.3366  -20.0747   22.2326 C   0  0  0  0  0  0
  -29.5630  -17.8948   20.9939 C   0  0  0  0  0  0
  -27.7866  -18.8014   22.4542 C   0  0  0  0  0  0
  -29.7628  -21.7263   21.2914 C   0  0  0  0  0  0
  -27.8103  -21.3988   22.7128 C   0  0  0  0  0  0
  -29.8400  -16.7723   18.7649 C   0  0  0  0  0  0
  -29.6056  -23.9950   23.4249 C   0  0  0  0  0  0
  -26.0265  -17.4663   23.3855 C   0  0  0  0  0  0
  -28.8478  -24.6800   21.0526 C   0  0  0  0  0  0
  -28.7257  -26.1845   21.3156 C   0  0  0  0  0  0
  -30.2403  -16.7556   20.2565 C   0  0  2  0  0  0
  -28.6032  -23.7701   22.2724 C   0  0  1  0  0  0
  -29.9666  -15.4390   20.8238 N   0  0  0  0  0  0
  -28.5216  -22.3560   21.8205 N   0  3  1  0  0  0
  -26.6766  -18.7227   23.2635 O   0  0  0  0  0  0
  -31.4620  -12.2986   19.1307 H   0  0  0  0  0  0
  -30.2588  -11.2282   19.7934 H   0  0  0  0  0  0
  -29.7282  -11.8082   17.3969 H   0  0  0  0  0  0
  -29.6975  -13.5052   17.8080 H   0  0  0  0  0  0
  -27.7838  -11.3364   18.7499 H   0  0  0  0  0  0
  -27.3819  -12.7181   17.7732 H   0  0  0  0  0  0
  -27.7157  -14.2577   19.6000 H   0  0  0  0  0  0
  -28.6524  -11.9291   21.3477 H   0  0  0  0  0  0
  -28.4944  -13.5786   21.8747 H   0  0  0  0  0  0
  -25.2759   -9.5701   22.4757 H   0  0  0  0  0  0
  -24.0010   -7.4650   22.7464 H   0  0  0  0  0  0
  -21.0848   -8.8759   19.8965 H   0  0  0  0  0  0
  -22.3676  -10.9670   19.6173 H   0  0  0  0  0  0
  -21.1993   -7.6148   23.9743 H   0  0  0  0  0  0
  -21.1501   -6.0516   25.9091 H   0  0  0  0  0  0
  -22.0581   -2.7616   23.2860 H   0  0  0  0  0  0
  -22.4055  -11.9868   22.4765 H   0  0  0  0  0  0
  -21.1137  -13.1310   22.2566 H   0  0  0  0  0  0
  -24.6527  -15.8284   20.5046 H   0  0  0  0  0  0
  -26.2656  -15.6322   20.0476 H   0  0  0  0  0  0
  -26.7065  -32.5569   23.1207 H   0  0  0  0  0  0
  -24.9972  -33.9820   25.0472 H   0  0  0  0  0  0
  -22.6820  -31.3079   21.4157 H   0  0  0  0  0  0
  -23.3762  -35.9652   23.3314 H   0  0  0  0  0  0
  -24.3552  -36.8946   22.2044 H   0  0  0  0  0  0
  -23.7228  -37.6542   23.6631 H   0  0  0  0  0  0
  -26.0145  -31.6199   20.5833 H   0  0  0  0  0  0
  -26.8103  -30.9182   21.9663 H   0  0  0  0  0  0
  -28.0901  -29.1690   21.1628 H   0  0  0  0  0  0
  -26.1132  -25.9983   19.0074 H   0  0  0  0  0  0
  -23.9918  -27.2900   19.0361 H   0  0  0  0  0  0
  -23.6934  -30.5929   19.3978 H   0  0  0  0  0  0
  -22.7331  -29.2303   19.8771 H   0  0  0  0  0  0
  -25.1296  -36.2025   25.0842 H   0  0  0  0  0  0
  -20.9895  -28.3222   24.1473 H   0  0  0  0  0  0
  -20.5692  -26.2253   23.3612 H   0  0  0  0  0  0
  -21.6625  -26.7493   22.1204 H   0  0  0  0  0  0
  -19.6904  -25.6319   21.1251 H   0  0  0  0  0  0
  -19.6722  -27.3207   20.6770 H   0  0  0  0  0  0
  -17.4195  -26.6670   21.4008 H   0  0  0  0  0  0
  -18.0309  -26.0119   22.9035 H   0  0  0  0  0  0
  -19.7916  -30.7251   24.2323 H   0  0  0  0  0  0
  -17.5014  -31.6291   24.5171 H   0  0  0  0  0  0
  -15.5341  -30.3062   23.7670 H   0  0  0  0  0  0
  -15.8610  -28.0887   22.7086 H   0  0  0  0  0  0
  -24.5878  -30.7073   25.7761 H   0  0  0  0  0  0
  -24.8869  -32.2873   26.4887 H   0  0  0  0  0  0
  -25.8006  -30.8868   27.0229 H   0  0  0  0  0  0
  -26.2808  -29.6828   24.1161 H   0  0  0  0  0  0
  -27.4072  -29.7306   25.4547 H   0  0  0  0  0  0
  -27.8622  -30.4426   23.9225 H   0  0  0  0  0  0
  -27.2718  -33.3618   26.2076 H   0  0  0  0  0  0
  -28.3837  -32.6837   25.0271 H   0  0  0  0  0  0
  -28.0728  -31.8395   26.5369 H   0  0  0  0  0  0
  -28.2632  -38.0101   24.7520 H   0  0  0  0  0  0
  -28.1076  -36.2637   24.6284 H   0  0  0  0  0  0
  -27.2279  -37.1465   25.8852 H   0  0  0  0  0  0
  -20.9274  -29.8700   21.6912 H   0  0  0  0  0  0
  -26.0210  -38.2910   24.1421 H   0  0  0  0  0  0
  -30.9454  -19.3602   20.1646 H   0  0  0  0  0  0
  -28.0027  -16.7083   21.9166 H   0  0  0  0  0  0
  -29.9436  -22.0015   20.2529 H   0  0  0  0  0  0
  -30.6479  -21.9609   21.8810 H   0  0  0  0  0  0
  -28.0583  -21.5332   23.7646 H   0  0  0  0  0  0
  -26.7282  -21.4679   22.5911 H   0  0  0  0  0  0
  -30.0974  -17.7186   18.2903 H   0  0  0  0  0  0
  -28.7663  -16.6251   18.6397 H   0  0  0  0  0  0
  -30.3487  -15.9889   18.2003 H   0  0  0  0  0  0
  -29.4057  -23.3261   24.2625 H   0  0  0  0  0  0
  -29.5255  -25.0091   23.8174 H   0  0  0  0  0  0
  -30.6416  -23.8506   23.1207 H   0  0  0  0  0  0
  -25.1978  -17.5652   24.0853 H   0  0  0  0  0  0
  -26.6916  -16.6935   23.7743 H   0  0  0  0  0  0
  -25.6109  -17.1470   22.4295 H   0  0  0  0  0  0
  -29.8169  -24.4754   20.5972 H   0  0  0  0  0  0
  -28.1055  -24.4167   20.2979 H   0  0  0  0  0  0
  -29.6622  -26.5940   21.6983 H   0  0  0  0  0  0
  -27.9601  -26.3803   22.0720 H   0  0  0  0  0  0
  -31.3141  -16.9471   20.3357 H   0  0  0  0  0  0
  -27.6128  -24.0138   22.6563 H   0  0  0  0  0  0
  -29.0344  -15.2536   21.1568 H   0  0  0  0  0  0
  -27.9185  -22.3701   21.0124 H   0  0  0  0  0  0
  1 25  1  0  0  0
  1 30  2  0  0  0
  1 86  1  0  0  0
  2  3  1  0  0  0
  2 25  1  0  0  0
  2 89  1  0  0  0
  2 90  1  0  0  0
  3  4  1  0  0  0
  3 91  1  0  0  0
  3 92  1  0  0  0
  4  5  1  0  0  0
  4 93  1  0  0  0
  4 94  1  0  0  0
  5  6  1  0  0  0
  5 26  1  0  0  0
  5 95  1  0  0  0
  6 25  1  0  0  0
  6 96  1  0  0  0
  6 97  1  0  0  0
  7  8  2  0  0  0
  7 26  1  0  0  0
  7 29  1  0  0  0
  8  9  1  0  0  0
  8 22  1  0  0  0
  9 10  1  0  0  0
  9 27  2  0  0  0
 10 11  2  0  0  0
 10 15  1  0  0  0
 11 12  1  0  0  0
 11 98  1  0  0  0
 12 13  2  0  0  0
 12 99  1  0  0  0
 13 14  1  0  0  0
 13 31  1  0  0  0
 14 15  2  0  0  0
 14100  1  0  0  0
 15101  1  0  0  0
 16 17  2  0  0  0
 16 21  1  0  0  0
 16 31  1  0  0  0
 17 18  1  0  0  0
 17102  1  0  0  0
 18 19  2  0  0  0
 18103  1  0  0  0
 19 20  1  0  0  0
 19 24  1  0  0  0
 20 21  2  0  0  0
 20104  1  0  0  0
 21 23  1  0  0  0
 22 28  1  0  0  0
 22 32  2  0  0  0
 26 27  1  0  0  0
 28105  1  0  0  0
 28106  1  0  0  0
 29107  1  0  0  0
 29108  1  0  0  0
 33 34  1  0  0  0
 33 66  1  0  0  0
 33 70  2  0  0  0
 34 36  1  0  0  0
 34 59  1  0  0  0
 34109  1  0  0  0
 35 44  2  0  0  0
 35 45  1  0  0  0
 35 68  1  0  0  0
 36 56  1  0  0  0
 36110  1  0  0  0
 37 39  1  0  0  0
 37 47  1  0  0  0
 37 66  1  0  0  0
 37111  1  0  0  0
 38 43  2  0  0  0
 38 46  1  0  0  0
 38 47  1  0  0  0
 39 64  1  0  0  0
 39 67  2  0  0  0
 40 52  1  0  0  0
 40 53  2  0  0  0
 40 58  1  0  0  0
 41112  1  0  0  0
 41113  1  0  0  0
 41114  1  0  0  0
 41 48  1  0  0  0
 42 43  1  0  0  0
 42 66  1  0  0  0
 42115  1  0  0  0
 42116  1  0  0  0
 43 44  1  0  0  0
 44117  1  0  0  0
 45 46  2  0  0  0
 45118  1  0  0  0
 46119  1  0  0  0
 47120  1  0  0  0
 47121  1  0  0  0
 48 56  1  0  0  0
 48 65  1  0  0  0
 48122  1  0  0  0
 49 50  1  0  0  0
 49 53  1  0  0  0
 49 64  1  0  0  0
 49123  1  0  0  0
 50 51  1  0  0  0
 50124  1  0  0  0
 50125  1  0  0  0
 51 52  1  0  0  0
 51126  1  0  0  0
 51127  1  0  0  0
 52128  1  0  0  0
 52129  1  0  0  0
 53 54  1  0  0  0
 54 55  2  0  0  0
 54130  1  0  0  0
 55 57  1  0  0  0
 55131  1  0  0  0
 56 69  2  0  0  0
 57 58  2  0  0  0
 57132  1  0  0  0
 58133  1  0  0  0
 59 60  1  0  0  0
 59 61  1  0  0  0
 59 62  1  0  0  0
 60134  1  0  0  0
 60135  1  0  0  0
 60136  1  0  0  0
 61137  1  0  0  0
 61138  1  0  0  0
 61139  1  0  0  0
 62140  1  0  0  0
 62141  1  0  0  0
 62142  1  0  0  0
 63 65  1  0  0  0
 63143  1  0  0  0
 63144  1  0  0  0
 63145  1  0  0  0
 64146  1  0  0  0
 65147  1  0  0  0
 68 83  1  0  0  0
 71 73  2  0  0  0
 71 75  1  0  0  0
 71148  1  0  0  0
 72 75  2  0  0  0
 72 76  1  0  0  0
 72149  1  0  0  0
 73 74  1  0  0  0
 73 77  1  0  0  0
 74 76  2  0  0  0
 74 78  1  0  0  0
 75 84  1  0  0  0
 76 88  1  0  0  0
 77150  1  0  0  0
 77151  1  0  0  0
 77 87  1  0  0  0
 78 87  1  0  0  0
 78152  1  0  0  0
 78153  1  0  0  0
 79154  1  0  0  0
 79155  1  0  0  0
 79156  1  0  0  0
 79 84  1  0  0  0
 80157  1  0  0  0
 80158  1  0  0  0
 80159  1  0  0  0
 80 85  1  0  0  0
 81 88  1  0  0  0
 81160  1  0  0  0
 81161  1  0  0  0
 81162  1  0  0  0
 82 83  1  0  0  0
 82 85  1  0  0  0
 82163  1  0  0  0
 82164  1  0  0  0
 83165  1  0  0  0
 83166  1  0  0  0
 84 86  1  0  0  0
 84167  1  0  0  0
 85 87  1  0  0  0
 85168  1  0  0  0
 86169  1  0  0  0
 87170  1  0  0  0
M  CHG  1  87   1
M  ISO  4   1 100  68 101  83 101  86 100
M  END
> <chiral flag>
0

> <version>
0

> <s_m_source_file>
/data/baiqing/PycharmProjects/Reinvent-master-3.2/result/LINK_invent/BTK/process_docking_weight1_custom_sum_contain_oxygen_bond_distance_aromatic_linkinvent_7_9_3/rearranged_h_0157.sdf

> <i_m_source_file_index>
57

> <r_mmod_Potential_Energy-OPLS-2005>
-182.459579467773

> <r_mmod_Stretch_Energy-OPLS-2005>
33.5689086914062

> <r_mmod_Bend_Energy-OPLS-2005>
149.073745727539

> <r_mmod_Torsional_Energy-OPLS-2005>
252.834106445312

> <r_mmod_Improper_Torsional_Energy-OPLS-2005>
9.47124004364014

> <r_mmod_Van_der_Waal_Energy-OPLS-2005>
150.349868774414

> <r_mmod_Electrostatic_Energy-OPLS-2005>
-355.489807128906

> <r_mmod_Solvation_Energy-OPLS-2005>
-433.441711425781

> <b_mmod_Minimization_Converged-OPLS-2005>
0

> <r_mmod_RMS_Derivative-OPLS-2005>
3.44865846633911

$$$$
57
                    3D
 Structure written by MMmdl.
164174  0  0  1  0            999 V2000
  -30.6455  -14.6038   20.5425 C   0  0  0  0  0  0
  -30.4356  -12.3867   19.4368 C   0  0  0  0  0  0
  -29.5006  -12.5196   18.2141 C   0  0  0  0  0  0
  -28.0210  -12.3651   18.6247 C   0  0  0  0  0  0
  -27.6566  -13.2089   19.8762 C   0  0  2  0  0  0
  -28.7056  -12.9933   20.9892 C   0  0  0  0  0  0
  -25.2567  -13.8154   20.5683 C   0  0  0  0  0  0
  -24.1824  -13.0431   20.9182 C   0  0  0  0  0  0
  -24.6384  -11.6898   20.8743 C   0  0  0  0  0  0
  -23.9052  -10.4287   21.0408 C   0  0  0  0  0  0
  -24.3607   -9.4204   21.9185 C   0  0  0  0  0  0
  -23.6288   -8.2238   22.0754 C   0  0  0  0  0  0
  -22.4271   -8.0276   21.3545 C   0  0  0  0  0  0
  -21.9901   -9.0248   20.4651 C   0  0  0  0  0  0
  -22.7225  -10.2130   20.3059 C   0  0  0  0  0  0
  -21.6848   -6.0730   22.5280 C   0  0  0  0  0  0
  -21.4009   -6.5637   23.8212 C   0  0  0  0  0  0
  -21.3661   -5.6792   24.9177 C   0  0  0  0  0  0
  -21.6045   -4.3054   24.7226 C   0  0  0  0  0  0
  -21.8819   -3.8144   23.4348 C   0  0  0  0  0  0
  -21.9192   -4.6959   22.3404 C   0  0  0  0  0  0
  -22.7852  -13.5237   21.1839 C   0  0  0  0  0  0
  -22.1661   -4.2145   21.0981 F   0  0  0  0  0  0
  -21.5633   -3.4538   25.7740 F   0  0  0  0  0  0
  -30.0069  -13.3910   20.4337 N   0  0  0  0  0  0
  -26.3002  -12.9322   20.3387 N   0  0  0  0  0  0
  -25.9311  -11.6481   20.5780 N   0  0  0  0  0  0
  -22.0490  -12.8241   22.0403 N   0  0  0  0  0  0
  -25.4279  -15.1870   20.4060 N   0  0  0  0  0  0
  -31.8009  -14.7306   20.1200 O   0  0  0  0  0  0
  -21.6635   -6.8872   21.4243 O   0  0  0  0  0  0
  -22.3542  -14.5542   20.6684 O   0  0  0  0  0  0
  -24.6213  -31.8622   23.2039 C   0  0  0  0  0  0
  -25.9075  -32.4792   23.8359 C   0  0  1  0  0  0
  -27.2334  -27.3597   20.1060 C   0  0  0  0  0  0
  -25.5906  -33.8594   24.2291 N   0  0  0  0  0  0
  -23.4124  -30.4848   21.5459 C   0  0  2  0  0  0
  -24.8581  -28.9387   20.1139 C   0  0  0  0  0  0
  -22.7442  -29.4633   22.4956 C   0  0  0  0  0  0
  -18.0279  -28.1380   22.8491 C   0  0  0  0  0  0
  -24.1488  -36.7304   23.2642 C   0  0  0  0  0  0
  -25.9481  -30.8051   21.3668 C   0  0  0  0  0  0
  -26.0225  -29.4339   20.7121 C   0  0  0  0  0  0
  -27.2098  -28.6543   20.6987 C   0  0  0  0  0  0
  -26.0414  -26.8934   19.5061 C   0  0  0  0  0  0
  -24.8666  -27.6720   19.5065 C   0  0  0  0  0  0
  -23.6242  -29.8151   20.1619 C   0  0  0  0  0  0
  -25.4113  -36.3096   24.0332 C   0  0  1  0  0  0
  -20.5874  -28.3677   23.1300 C   0  0  2  0  0  0
  -20.6768  -26.9405   22.5416 C   0  0  0  0  0  0
  -19.5747  -26.6384   21.5213 C   0  0  0  0  0  0
  -18.1925  -26.7926   22.1623 C   0  0  0  0  0  0
  -19.1530  -28.8844   23.2894 C   0  0  0  0  0  0
  -18.9454  -30.1447   23.8908 C   0  0  0  0  0  0
  -17.6456  -30.6587   24.0563 C   0  0  0  0  0  0
  -25.9042  -34.9461   23.5113 C   0  0  0  0  0  0
  -16.5347  -29.9087   23.6326 C   0  0  0  0  0  0
  -16.7267  -28.6502   23.0351 C   0  0  0  0  0  0
  -26.4482  -31.6596   25.0718 C   0  0  0  0  0  0
  -25.3734  -31.3723   26.1458 C   0  0  0  0  0  0
  -27.0317  -30.3028   24.6138 C   0  0  0  0  0  0
  -27.6055  -32.4323   25.7477 C   0  0  0  0  0  0
  -27.5575  -37.1814   24.8471 C   0  0  0  0  0  0
  -21.4161  -29.3036   22.3698 N   0  0  0  0  0  0
  -26.4301  -37.3779   23.9396 N   0  0  0  0  0  0
  -24.6793  -31.0666   22.0968 N   0  0  0  0  0  0
  -23.4186  -28.8178   23.3024 O   0  0  0  0  0  0
  -28.4040  -26.6025   20.1380 O   0  0  0  0  0  0
  -26.5611  -34.8920   22.4680 O   0  0  0  0  0  0
  -23.5388  -32.1404   23.7395 O   0  0  0  0  0  0
  -27.9751  -21.8197   20.2136 C   0  0  0  0  0  0
  -30.2705  -21.8422   20.8851 C   0  0  0  0  0  0
  -29.1116  -22.5828   20.5502 C   0  0  0  0  0  0
  -29.1554  -19.6406   20.5853 C   0  0  0  0  0  0
  -27.9848  -20.3939   20.2328 C   0  0  0  0  0  0
  -30.3076  -20.4178   20.9171 C   0  0  0  0  0  0
  -28.8375  -17.5055   22.0825 C   0  0  0  0  0  0
  -29.9101  -24.8769   19.5922 C   0  0  0  0  0  0
  -28.9903  -15.9815   21.9050 C   0  0  0  0  0  0
  -30.1832  -17.0786   20.1683 C   0  0  0  0  0  0
  -29.1274  -24.1273   20.6373 C   0  0  1  0  0  0
  -29.0833  -18.0623   20.6877 C   0  0  2  0  0  0
  -28.4382  -25.1945   19.7318 C   0  0  1  0  0  0
  -26.6707  -19.7029   19.8969 C   0  0  0  0  0  0
  -31.6148  -19.7775   21.3512 C   0  0  0  0  0  0
  -29.8853  -15.7372   20.7599 N   0  0  0  0  0  0
  -31.4744  -12.5148   19.1286 H   0  0  0  0  0  0
  -30.3804  -11.3808   19.8558 H   0  0  0  0  0  0
  -29.7591  -11.7759   17.4589 H   0  0  0  0  0  0
  -29.6478  -13.4937   17.7448 H   0  0  0  0  0  0
  -27.8444  -11.3086   18.8296 H   0  0  0  0  0  0
  -27.3681  -12.6243   17.7908 H   0  0  0  0  0  0
  -27.6924  -14.2553   19.5733 H   0  0  0  0  0  0
  -28.7296  -11.9400   21.2724 H   0  0  0  0  0  0
  -28.4565  -13.5034   21.9147 H   0  0  0  0  0  0
  -25.2752   -9.5684   22.4757 H   0  0  0  0  0  0
  -24.0001   -7.4628   22.7470 H   0  0  0  0  0  0
  -21.0831   -8.8765   19.8958 H   0  0  0  0  0  0
  -22.3682  -10.9668   19.6169 H   0  0  0  0  0  0
  -21.1996   -7.6144   23.9715 H   0  0  0  0  0  0
  -21.1487   -6.0521   25.9080 H   0  0  0  0  0  0
  -22.0597   -2.7606   23.2846 H   0  0  0  0  0  0
  -22.4098  -11.9906   22.4801 H   0  0  0  0  0  0
  -21.1111  -13.1281   22.2604 H   0  0  0  0  0  0
  -24.6610  -15.8417   20.5106 H   0  0  0  0  0  0
  -26.2816  -15.6230   20.0832 H   0  0  0  0  0  0
  -26.7141  -32.5475   23.1111 H   0  0  0  0  0  0
  -25.0048  -33.9749   25.0429 H   0  0  0  0  0  0
  -22.7044  -31.3040   21.4034 H   0  0  0  0  0  0
  -23.3736  -35.9656   23.3348 H   0  0  0  0  0  0
  -24.3565  -36.8877   22.2046 H   0  0  0  0  0  0
  -23.7266  -37.6531   23.6633 H   0  0  0  0  0  0
  -26.0708  -31.5685   20.5972 H   0  0  0  0  0  0
  -26.8320  -30.8570   21.9910 H   0  0  0  0  0  0
  -28.1085  -29.0356   21.1633 H   0  0  0  0  0  0
  -25.9853  -25.9234   19.0377 H   0  0  0  0  0  0
  -23.9701  -27.2837   19.0430 H   0  0  0  0  0  0
  -23.7387  -30.5896   19.4025 H   0  0  0  0  0  0
  -22.7456  -29.2402   19.8638 H   0  0  0  0  0  0
  -25.1298  -36.1960   25.0827 H   0  0  0  0  0  0
  -20.9970  -28.3247   24.1420 H   0  0  0  0  0  0
  -20.5665  -26.2285   23.3610 H   0  0  0  0  0  0
  -21.6637  -26.7438   22.1210 H   0  0  0  0  0  0
  -19.6908  -25.6296   21.1240 H   0  0  0  0  0  0
  -19.6690  -27.3198   20.6746 H   0  0  0  0  0  0
  -17.4197  -26.6678   21.4023 H   0  0  0  0  0  0
  -18.0323  -26.0064   22.9014 H   0  0  0  0  0  0
  -19.7931  -30.7257   24.2285 H   0  0  0  0  0  0
  -17.5014  -31.6270   24.5160 H   0  0  0  0  0  0
  -15.5349  -30.2995   23.7643 H   0  0  0  0  0  0
  -15.8665  -28.0825   22.7063 H   0  0  0  0  0  0
  -24.5904  -30.7075   25.7792 H   0  0  0  0  0  0
  -24.8929  -32.2886   26.4899 H   0  0  0  0  0  0
  -25.8072  -30.8893   27.0223 H   0  0  0  0  0  0
  -26.2873  -29.6781   24.1187 H   0  0  0  0  0  0
  -27.4059  -29.7277   25.4619 H   0  0  0  0  0  0
  -27.8723  -30.4327   23.9319 H   0  0  0  0  0  0
  -27.2676  -33.3617   26.2073 H   0  0  0  0  0  0
  -28.3851  -32.6894   25.0294 H   0  0  0  0  0  0
  -28.0743  -31.8439   26.5375 H   0  0  0  0  0  0
  -28.2632  -38.0070   24.7458 H   0  0  0  0  0  0
  -28.1030  -36.2600   24.6375 H   0  0  0  0  0  0
  -27.2283  -37.1558   25.8873 H   0  0  0  0  0  0
  -20.9328  -29.8759   21.6916 H   0  0  0  0  0  0
  -26.0192  -38.2865   24.1361 H   0  0  0  0  0  0
  -27.0629  -22.3441   19.9625 H   0  0  0  0  0  0
  -31.1597  -22.3952   21.1576 H   0  0  0  0  0  0
  -29.5860  -17.8779   22.7817 H   0  0  0  0  0  0
  -27.8580  -17.7815   22.4751 H   0  0  0  0  0  0
  -30.2047  -24.3392   18.6932 H   0  0  0  0  0  0
  -30.6342  -25.6069   19.9498 H   0  0  0  0  0  0
  -28.0034  -15.5791   21.6822 H   0  0  0  0  0  0
  -29.3545  -15.5090   22.8187 H   0  0  0  0  0  0
  -31.1830  -17.3579   20.4894 H   0  0  0  0  0  0
  -30.1937  -17.0342   19.0783 H   0  0  0  0  0  0
  -29.2796  -24.4187   21.6749 H   0  0  0  0  0  0
  -28.2203  -17.7617   20.0972 H   0  0  0  0  0  0
  -27.8345  -24.9126   18.8725 H   0  0  0  0  0  0
  -25.8587  -20.4193   19.7676 H   0  0  0  0  0  0
  -26.3721  -19.0219   20.6943 H   0  0  0  0  0  0
  -26.7581  -19.1398   18.9674 H   0  0  0  0  0  0
  -32.2691  -20.5026   21.8361 H   0  0  0  0  0  0
  -32.1517  -19.3851   20.4878 H   0  0  0  0  0  0
  -31.4539  -18.9760   22.0701 H   0  0  0  0  0  0
  1 25  1  0  0  0
  1 30  2  0  0  0
  1 86  1  0  0  0
  2  3  1  0  0  0
  2 25  1  0  0  0
  2 87  1  0  0  0
  2 88  1  0  0  0
  3  4  1  0  0  0
  3 89  1  0  0  0
  3 90  1  0  0  0
  4  5  1  0  0  0
  4 91  1  0  0  0
  4 92  1  0  0  0
  5  6  1  0  0  0
  5 26  1  0  0  0
  5 93  1  0  0  0
  6 25  1  0  0  0
  6 94  1  0  0  0
  6 95  1  0  0  0
  7  8  2  0  0  0
  7 26  1  0  0  0
  7 29  1  0  0  0
  8  9  1  0  0  0
  8 22  1  0  0  0
  9 10  1  0  0  0
  9 27  2  0  0  0
 10 11  2  0  0  0
 10 15  1  0  0  0
 11 12  1  0  0  0
 11 96  1  0  0  0
 12 13  2  0  0  0
 12 97  1  0  0  0
 13 14  1  0  0  0
 13 31  1  0  0  0
 14 15  2  0  0  0
 14 98  1  0  0  0
 15 99  1  0  0  0
 16 17  2  0  0  0
 16 21  1  0  0  0
 16 31  1  0  0  0
 17 18  1  0  0  0
 17100  1  0  0  0
 18 19  2  0  0  0
 18101  1  0  0  0
 19 20  1  0  0  0
 19 24  1  0  0  0
 20 21  2  0  0  0
 20102  1  0  0  0
 21 23  1  0  0  0
 22 28  1  0  0  0
 22 32  2  0  0  0
 26 27  1  0  0  0
 28103  1  0  0  0
 28104  1  0  0  0
 29105  1  0  0  0
 29106  1  0  0  0
 33 34  1  0  0  0
 33 66  1  0  0  0
 33 70  2  0  0  0
 34 36  1  0  0  0
 34 59  1  0  0  0
 34107  1  0  0  0
 35 44  2  0  0  0
 35 45  1  0  0  0
 35 68  1  0  0  0
 36 56  1  0  0  0
 36108  1  0  0  0
 37 39  1  0  0  0
 37 47  1  0  0  0
 37 66  1  0  0  0
 37109  1  0  0  0
 38 43  2  0  0  0
 38 46  1  0  0  0
 38 47  1  0  0  0
 39 64  1  0  0  0
 39 67  2  0  0  0
 40 52  1  0  0  0
 40 53  2  0  0  0
 40 58  1  0  0  0
 41110  1  0  0  0
 41111  1  0  0  0
 41112  1  0  0  0
 41 48  1  0  0  0
 42 43  1  0  0  0
 42 66  1  0  0  0
 42113  1  0  0  0
 42114  1  0  0  0
 43 44  1  0  0  0
 44115  1  0  0  0
 45 46  2  0  0  0
 45116  1  0  0  0
 46117  1  0  0  0
 47118  1  0  0  0
 47119  1  0  0  0
 48 56  1  0  0  0
 48 65  1  0  0  0
 48120  1  0  0  0
 49 50  1  0  0  0
 49 53  1  0  0  0
 49 64  1  0  0  0
 49121  1  0  0  0
 50 51  1  0  0  0
 50122  1  0  0  0
 50123  1  0  0  0
 51 52  1  0  0  0
 51124  1  0  0  0
 51125  1  0  0  0
 52126  1  0  0  0
 52127  1  0  0  0
 53 54  1  0  0  0
 54 55  2  0  0  0
 54128  1  0  0  0
 55 57  1  0  0  0
 55129  1  0  0  0
 56 69  2  0  0  0
 57 58  2  0  0  0
 57130  1  0  0  0
 58131  1  0  0  0
 59 60  1  0  0  0
 59 61  1  0  0  0
 59 62  1  0  0  0
 60132  1  0  0  0
 60133  1  0  0  0
 60134  1  0  0  0
 61135  1  0  0  0
 61136  1  0  0  0
 61137  1  0  0  0
 62138  1  0  0  0
 62139  1  0  0  0
 62140  1  0  0  0
 63 65  1  0  0  0
 63141  1  0  0  0
 63142  1  0  0  0
 63143  1  0  0  0
 64144  1  0  0  0
 65145  1  0  0  0
 68 83  1  0  0  0
 71 73  2  0  0  0
 71 75  1  0  0  0
 71146  1  0  0  0
 72 73  1  0  0  0
 72 76  2  0  0  0
 72147  1  0  0  0
 73 81  1  0  0  0
 74 75  2  0  0  0
 74 76  1  0  0  0
 74 82  1  0  0  0
 75 84  1  0  0  0
 76 85  1  0  0  0
 77 79  1  0  0  0
 77 82  1  0  0  0
 77148  1  0  0  0
 77149  1  0  0  0
 78 81  1  0  0  0
 78 83  1  0  0  0
 78150  1  0  0  0
 78151  1  0  0  0
 79 86  1  0  0  0
 79152  1  0  0  0
 79153  1  0  0  0
 80 82  1  0  0  0
 80 86  1  0  0  0
 80154  1  0  0  0
 80155  1  0  0  0
 81 83  1  0  0  0
 81156  1  0  0  0
 82157  1  0  0  0
 83158  1  0  0  0
 84159  1  0  0  0
 84160  1  0  0  0
 84161  1  0  0  0
 85162  1  0  0  0
 85163  1  0  0  0
 85164  1  0  0  0
M  ISO  4   1 100  68 101  83 101  86 100
M  END
> <chiral flag>
0

> <version>
0

> <s_m_source_file>
/data/baiqing/PycharmProjects/Reinvent-master-3.2/result/LINK_invent/BTK/process_docking_weight1_custom_sum_contain_oxygen_bond_distance_aromatic_linkinvent_7_9_3/rearranged_h_0157.sdf

> <i_m_source_file_index>
58

> <r_mmod_Potential_Energy-OPLS-2005>
263.011444091797

> <r_mmod_Stretch_Energy-OPLS-2005>
71.1488189697266

> <r_mmod_Bend_Energy-OPLS-2005>
187.551651000977

> <r_mmod_Torsional_Energy-OPLS-2005>
326.933837890625

> <r_mmod_Improper_Torsional_Energy-OPLS-2005>
11.9077081680298

> <r_mmod_Van_der_Waal_Energy-OPLS-2005>
145.495254516602

> <r_mmod_Electrostatic_Energy-OPLS-2005>
-314.5380859375

> <r_mmod_Solvation_Energy-OPLS-2005>
-196.319915771484

> <b_mmod_Minimization_Converged-OPLS-2005>
0

> <r_mmod_RMS_Derivative-OPLS-2005>
0.515783369541168

$$$$
58
                    3D
 Structure written by MMmdl.
162171  0  0  1  0            999 V2000
  -30.6745  -14.5446   20.5223 C   0  0  0  0  0  0
  -30.4270  -12.3546   19.4330 C   0  0  0  0  0  0
  -29.4934  -12.5491   18.2185 C   0  0  0  0  0  0
  -28.0153  -12.4152   18.6270 C   0  0  0  0  0  0
  -27.6665  -13.2223   19.9041 C   0  0  2  0  0  0
  -28.7209  -13.0102   21.0175 C   0  0  0  0  0  0
  -25.2625  -13.8150   20.5894 C   0  0  0  0  0  0
  -24.1812  -13.0419   20.9177 C   0  0  0  0  0  0
  -24.6346  -11.6865   20.8690 C   0  0  0  0  0  0
  -23.9021  -10.4272   21.0341 C   0  0  0  0  0  0
  -24.3556   -9.4207   21.9172 C   0  0  0  0  0  0
  -23.6246   -8.2247   22.0731 C   0  0  0  0  0  0
  -22.4251   -8.0252   21.3510 C   0  0  0  0  0  0
  -21.9878   -9.0216   20.4651 C   0  0  0  0  0  0
  -22.7167  -10.2108   20.3052 C   0  0  0  0  0  0
  -21.6885   -6.0685   22.5267 C   0  0  0  0  0  0
  -21.3994   -6.5586   23.8179 C   0  0  0  0  0  0
  -21.3684   -5.6739   24.9172 C   0  0  0  0  0  0
  -21.6064   -4.3015   24.7237 C   0  0  0  0  0  0
  -21.8811   -3.8095   23.4366 C   0  0  0  0  0  0
  -21.9182   -4.6894   22.3418 C   0  0  0  0  0  0
  -22.7857  -13.5263   21.1809 C   0  0  0  0  0  0
  -22.1668   -4.2065   21.1001 F   0  0  0  0  0  0
  -21.5660   -3.4511   25.7774 F   0  0  0  0  0  0
  -30.0413  -13.3369   20.4571 N   0  0  0  0  0  0
  -26.3046  -12.9352   20.3586 N   0  0  0  0  0  0
  -25.9314  -11.6462   20.5749 N   0  0  0  0  0  0
  -22.0475  -12.8296   22.0342 N   0  0  0  0  0  0
  -25.4438  -15.1908   20.4638 N   0  0  0  0  0  0
  -31.7902  -14.7308   20.0286 O   0  0  0  0  0  0
  -21.6623   -6.8827   21.4234 O   0  0  0  0  0  0
  -22.3589  -14.5577   20.6648 O   0  0  0  0  0  0
  -24.6214  -31.8661   23.2053 C   0  0  0  0  0  0
  -25.9106  -32.4791   23.8370 C   0  0  1  0  0  0
  -27.2436  -27.3988   20.1218 C   0  0  0  0  0  0
  -25.5995  -33.8577   24.2315 N   0  0  0  0  0  0
  -23.4106  -30.4898   21.5434 C   0  0  2  0  0  0
  -24.8672  -28.9466   20.1156 C   0  0  0  0  0  0
  -22.7425  -29.4694   22.4944 C   0  0  0  0  0  0
  -18.0301  -28.1355   22.8513 C   0  0  0  0  0  0
  -24.1498  -36.7286   23.2624 C   0  0  0  0  0  0
  -25.9451  -30.8153   21.3747 C   0  0  0  0  0  0
  -26.0226  -29.4475   20.7216 C   0  0  0  0  0  0
  -27.2167  -28.6794   20.7285 C   0  0  0  0  0  0
  -26.0746  -26.9277   19.4884 C   0  0  0  0  0  0
  -24.8888  -27.6809   19.4972 C   0  0  0  0  0  0
  -23.6295  -29.8183   20.1595 C   0  0  0  0  0  0
  -25.4113  -36.3074   24.0328 C   0  0  1  0  0  0
  -20.5869  -28.3750   23.1301 C   0  0  2  0  0  0
  -20.6837  -26.9452   22.5529 C   0  0  0  0  0  0
  -19.5802  -26.6225   21.5405 C   0  0  0  0  0  0
  -18.2021  -26.7780   22.1902 C   0  0  0  0  0  0
  -19.1519  -28.8873   23.2876 C   0  0  0  0  0  0
  -18.9410  -30.1488   23.8861 C   0  0  0  0  0  0
  -17.6401  -30.6593   24.0508 C   0  0  0  0  0  0
  -25.9045  -34.9447   23.5089 C   0  0  0  0  0  0
  -16.5324  -29.9047   23.6290 C   0  0  0  0  0  0
  -16.7274  -28.6450   23.0340 C   0  0  0  0  0  0
  -26.4513  -31.6600   25.0716 C   0  0  0  0  0  0
  -25.3758  -31.3789   26.1466 C   0  0  0  0  0  0
  -27.0400  -30.3027   24.6188 C   0  0  0  0  0  0
  -27.6087  -32.4336   25.7479 C   0  0  0  0  0  0
  -27.5597  -37.1778   24.8449 C   0  0  0  0  0  0
  -21.4134  -29.3086   22.3658 N   0  0  0  0  0  0
  -26.4298  -37.3776   23.9419 N   0  0  0  0  0  0
  -24.6746  -31.0764   22.0962 N   0  0  0  0  0  0
  -23.4162  -28.8255   23.3043 O   0  0  0  0  0  0
  -28.3451  -26.5595   20.1079 O   0  0  0  0  0  0
  -26.5571  -34.8912   22.4630 O   0  0  0  0  0  0
  -23.5401  -32.1442   23.7418 O   0  0  0  0  0  0
  -28.5729  -22.9786   20.2493 C   0  0  0  0  0  0
  -30.0363  -21.0483   21.6326 C   0  0  0  0  0  0
  -29.3594  -23.4134   21.3512 C   0  0  0  0  0  0
  -30.0817  -22.4023   22.0443 C   0  0  0  0  0  0
  -28.4847  -21.6108   19.8606 C   0  0  0  0  0  0
  -29.2562  -20.6103   20.5432 C   0  0  0  0  0  0
  -30.3524  -25.8852   21.2526 C   0  0  0  0  0  0
  -29.4174  -24.8675   21.8707 C   0  0  1  0  0  0
  -28.8872  -26.2434   21.4005 C   0  0  2  0  0  0
  -30.8991  -22.6991   23.2962 C   0  0  0  0  0  0
  -27.1494  -20.0308   18.5847 C   0  0  0  0  0  0
  -29.8410  -16.8667   20.1471 C   0  0  0  0  0  0
  -29.8353  -18.2184   20.9334 C   0  0  0  0  0  0
  -29.9176  -15.5934   20.9220 N   0  0  0  0  0  0
  -27.6166  -21.3584   18.8142 O   0  0  0  0  0  0
  -29.2655  -19.2747   20.1219 O   0  0  0  0  0  0
  -31.4677  -12.4679   19.1249 H   0  0  0  0  0  0
  -30.3490  -11.3358   19.8198 H   0  0  0  0  0  0
  -29.7350  -11.8349   17.4305 H   0  0  0  0  0  0
  -29.6617  -13.5398   17.7923 H   0  0  0  0  0  0
  -27.8027  -11.3599   18.7763 H   0  0  0  0  0  0
  -27.3790  -12.7338   17.8045 H   0  0  0  0  0  0
  -27.7069  -14.2739   19.6196 H   0  0  0  0  0  0
  -28.7115  -11.9685   21.3519 H   0  0  0  0  0  0
  -28.4867  -13.6024   21.9029 H   0  0  0  0  0  0
  -25.2684   -9.5713   22.4775 H   0  0  0  0  0  0
  -23.9940   -7.4665   22.7481 H   0  0  0  0  0  0
  -21.0805   -8.8731   19.9012 H   0  0  0  0  0  0
  -22.3598  -10.9626   19.6172 H   0  0  0  0  0  0
  -21.1974   -7.6084   23.9663 H   0  0  0  0  0  0
  -21.1543   -6.0493   25.9054 H   0  0  0  0  0  0
  -22.0581   -2.7549   23.2918 H   0  0  0  0  0  0
  -22.3994  -11.9977   22.4824 H   0  0  0  0  0  0
  -21.1100  -13.1393   22.2496 H   0  0  0  0  0  0
  -24.7121  -15.8524   20.6901 H   0  0  0  0  0  0
  -26.3502  -15.6271   20.3480 H   0  0  0  0  0  0
  -26.7186  -32.5517   23.1152 H   0  0  0  0  0  0
  -25.0325  -33.9750   25.0576 H   0  0  0  0  0  0
  -22.7028  -31.3090   21.3938 H   0  0  0  0  0  0
  -23.3769  -35.9615   23.3253 H   0  0  0  0  0  0
  -24.3619  -36.8920   22.2055 H   0  0  0  0  0  0
  -23.7248  -37.6469   23.6652 H   0  0  0  0  0  0
  -26.0824  -31.5802   20.6125 H   0  0  0  0  0  0
  -26.8221  -30.8572   22.0077 H   0  0  0  0  0  0
  -28.1083  -29.0720   21.2003 H   0  0  0  0  0  0
  -26.0882  -25.9593   19.0072 H   0  0  0  0  0  0
  -24.0024  -27.2913   19.0178 H   0  0  0  0  0  0
  -23.7469  -30.5908   19.3989 H   0  0  0  0  0  0
  -22.7529  -29.2441   19.8575 H   0  0  0  0  0  0
  -25.1285  -36.1909   25.0825 H   0  0  0  0  0  0
  -20.9940  -28.3395   24.1425 H   0  0  0  0  0  0
  -20.5840  -26.2432   23.3819 H   0  0  0  0  0  0
  -21.6710  -26.7513   22.1316 H   0  0  0  0  0  0
  -19.7002  -25.6055   21.1680 H   0  0  0  0  0  0
  -19.6656  -27.2839   20.6783 H   0  0  0  0  0  0
  -17.4188  -26.6148   21.4499 H   0  0  0  0  0  0
  -18.0658  -26.0141   22.9563 H   0  0  0  0  0  0
  -19.7865  -30.7314   24.2248 H   0  0  0  0  0  0
  -17.4946  -31.6288   24.5081 H   0  0  0  0  0  0
  -15.5325  -30.2960   23.7581 H   0  0  0  0  0  0
  -15.8676  -28.0735   22.7073 H   0  0  0  0  0  0
  -24.5884  -30.7184   25.7816 H   0  0  0  0  0  0
  -24.9014  -32.2990   26.4888 H   0  0  0  0  0  0
  -25.8077  -30.8965   27.0244 H   0  0  0  0  0  0
  -26.2989  -29.6731   24.1239 H   0  0  0  0  0  0
  -27.4148  -29.7338   25.4720 H   0  0  0  0  0  0
  -27.8836  -30.4330   23.9395 H   0  0  0  0  0  0
  -27.2702  -33.3624   26.2098 H   0  0  0  0  0  0
  -28.3884  -32.6934   25.0293 H   0  0  0  0  0  0
  -28.0794  -31.8444   26.5373 H   0  0  0  0  0  0
  -28.2550  -38.0121   24.7569 H   0  0  0  0  0  0
  -28.1146  -36.2677   24.6166 H   0  0  0  0  0  0
  -27.2347  -37.1295   25.8846 H   0  0  0  0  0  0
  -20.9312  -29.8743   21.6802 H   0  0  0  0  0  0
  -26.0163  -38.2829   24.1465 H   0  0  0  0  0  0
  -27.9922  -23.7159   19.7113 H   0  0  0  0  0  0
  -30.6170  -20.3382   22.1982 H   0  0  0  0  0  0
  -30.7095  -25.7141   20.2379 H   0  0  0  0  0  0
  -31.0645  -26.3727   21.9182 H   0  0  0  0  0  0
  -29.4211  -24.8205   22.9572 H   0  0  0  0  0  0
  -28.6453  -26.9638   22.1800 H   0  0  0  0  0  0
  -31.7437  -22.0143   23.3847 H   0  0  0  0  0  0
  -30.2607  -22.5644   24.1721 H   0  0  0  0  0  0
  -31.3104  -23.7060   23.3158 H   0  0  0  0  0  0
  -27.9006  -19.4326   18.0661 H   0  0  0  0  0  0
  -26.2643  -20.0464   17.9506 H   0  0  0  0  0  0
  -26.8616  -19.5228   19.5083 H   0  0  0  0  0  0
  -30.6326  -16.9116   19.4034 H   0  0  0  0  0  0
  -28.9077  -16.7885   19.5909 H   0  0  0  0  0  0
  -30.8686  -18.4567   21.1903 H   0  0  0  0  0  0
  -29.2560  -18.1313   21.8549 H   0  0  0  0  0  0
  -29.1128  -15.3857   21.4925 H   0  0  0  0  0  0
  1 25  1  0  0  0
  1 30  2  0  0  0
  1 84  1  0  0  0
  2  3  1  0  0  0
  2 25  1  0  0  0
  2 87  1  0  0  0
  2 88  1  0  0  0
  3  4  1  0  0  0
  3 89  1  0  0  0
  3 90  1  0  0  0
  4  5  1  0  0  0
  4 91  1  0  0  0
  4 92  1  0  0  0
  5  6  1  0  0  0
  5 26  1  0  0  0
  5 93  1  0  0  0
  6 25  1  0  0  0
  6 94  1  0  0  0
  6 95  1  0  0  0
  7  8  2  0  0  0
  7 26  1  0  0  0
  7 29  1  0  0  0
  8  9  1  0  0  0
  8 22  1  0  0  0
  9 10  1  0  0  0
  9 27  2  0  0  0
 10 11  2  0  0  0
 10 15  1  0  0  0
 11 12  1  0  0  0
 11 96  1  0  0  0
 12 13  2  0  0  0
 12 97  1  0  0  0
 13 14  1  0  0  0
 13 31  1  0  0  0
 14 15  2  0  0  0
 14 98  1  0  0  0
 15 99  1  0  0  0
 16 17  2  0  0  0
 16 21  1  0  0  0
 16 31  1  0  0  0
 17 18  1  0  0  0
 17100  1  0  0  0
 18 19  2  0  0  0
 18101  1  0  0  0
 19 20  1  0  0  0
 19 24  1  0  0  0
 20 21  2  0  0  0
 20102  1  0  0  0
 21 23  1  0  0  0
 22 28  1  0  0  0
 22 32  2  0  0  0
 26 27  1  0  0  0
 28103  1  0  0  0
 28104  1  0  0  0
 29105  1  0  0  0
 29106  1  0  0  0
 33 34  1  0  0  0
 33 66  1  0  0  0
 33 70  2  0  0  0
 34 36  1  0  0  0
 34 59  1  0  0  0
 34107  1  0  0  0
 35 44  2  0  0  0
 35 45  1  0  0  0
 35 68  1  0  0  0
 36 56  1  0  0  0
 36108  1  0  0  0
 37 39  1  0  0  0
 37 47  1  0  0  0
 37 66  1  0  0  0
 37109  1  0  0  0
 38 43  2  0  0  0
 38 46  1  0  0  0
 38 47  1  0  0  0
 39 64  1  0  0  0
 39 67  2  0  0  0
 40 52  1  0  0  0
 40 53  2  0  0  0
 40 58  1  0  0  0
 41110  1  0  0  0
 41111  1  0  0  0
 41112  1  0  0  0
 41 48  1  0  0  0
 42 43  1  0  0  0
 42 66  1  0  0  0
 42113  1  0  0  0
 42114  1  0  0  0
 43 44  1  0  0  0
 44115  1  0  0  0
 45 46  2  0  0  0
 45116  1  0  0  0
 46117  1  0  0  0
 47118  1  0  0  0
 47119  1  0  0  0
 48 56  1  0  0  0
 48 65  1  0  0  0
 48120  1  0  0  0
 49 50  1  0  0  0
 49 53  1  0  0  0
 49 64  1  0  0  0
 49121  1  0  0  0
 50 51  1  0  0  0
 50122  1  0  0  0
 50123  1  0  0  0
 51 52  1  0  0  0
 51124  1  0  0  0
 51125  1  0  0  0
 52126  1  0  0  0
 52127  1  0  0  0
 53 54  1  0  0  0
 54 55  2  0  0  0
 54128  1  0  0  0
 55 57  1  0  0  0
 55129  1  0  0  0
 56 69  2  0  0  0
 57 58  2  0  0  0
 57130  1  0  0  0
 58131  1  0  0  0
 59 60  1  0  0  0
 59 61  1  0  0  0
 59 62  1  0  0  0
 60132  1  0  0  0
 60133  1  0  0  0
 60134  1  0  0  0
 61135  1  0  0  0
 61136  1  0  0  0
 61137  1  0  0  0
 62138  1  0  0  0
 62139  1  0  0  0
 62140  1  0  0  0
 63 65  1  0  0  0
 63141  1  0  0  0
 63142  1  0  0  0
 63143  1  0  0  0
 64144  1  0  0  0
 65145  1  0  0  0
 68 79  1  0  0  0
 71 73  2  0  0  0
 71 75  1  0  0  0
 71146  1  0  0  0
 72 74  2  0  0  0
 72 76  1  0  0  0
 72147  1  0  0  0
 73 74  1  0  0  0
 73 78  1  0  0  0
 74 80  1  0  0  0
 75 76  2  0  0  0
 75 85  1  0  0  0
 76 86  1  0  0  0
 77 78  1  0  0  0
 77 79  1  0  0  0
 77148  1  0  0  0
 77149  1  0  0  0
 78 79  1  0  0  0
 78150  1  0  0  0
 79151  1  0  0  0
 80152  1  0  0  0
 80153  1  0  0  0
 80154  1  0  0  0
 81 85  1  0  0  0
 81155  1  0  0  0
 81156  1  0  0  0
 81157  1  0  0  0
 82 83  1  0  0  0
 82 84  1  0  0  0
 82158  1  0  0  0
 82159  1  0  0  0
 83 86  1  0  0  0
 83160  1  0  0  0
 83161  1  0  0  0
 84162  1  0  0  0
M  ISO  4   1 100  68 101  79 101  84 100
M  END
> <chiral flag>
0

> <version>
0

> <s_m_source_file>
/data/baiqing/PycharmProjects/Reinvent-master-3.2/result/LINK_invent/BTK/process_docking_weight1_custom_sum_contain_oxygen_bond_distance_aromatic_linkinvent_7_9_3/rearranged_h_0157.sdf

> <i_m_source_file_index>
59

> <r_mmod_Potential_Energy-OPLS-2005>
36.5040855407715

> <r_mmod_Stretch_Energy-OPLS-2005>
54.4598274230957

> <r_mmod_Bend_Energy-OPLS-2005>
168.224990844727

> <r_mmod_Torsional_Energy-OPLS-2005>
264.853881835938

> <r_mmod_Improper_Torsional_Energy-OPLS-2005>
8.36128044128418

> <r_mmod_Van_der_Waal_Energy-OPLS-2005>
157.243347167969

> <r_mmod_Electrostatic_Energy-OPLS-2005>
-415.595062255859

> <r_mmod_Solvation_Energy-OPLS-2005>
-225.434341430664

> <b_mmod_Minimization_Converged-OPLS-2005>
0

> <r_mmod_RMS_Derivative-OPLS-2005>
11.1530990600586

$$$$
59
                    3D
 Structure written by MMmdl.
165174  0  0  1  0            999 V2000
  -30.5874  -14.8987   20.4277 C   0  0  0  0  0  0
  -30.4249  -12.5561   19.4979 C   0  0  0  0  0  0
  -29.5133  -12.5217   18.2523 C   0  0  0  0  0  0
  -28.0449  -12.3218   18.6693 C   0  0  0  0  0  0
  -27.6276  -13.2515   19.8401 C   0  0  2  0  0  0
  -28.6691  -13.2749   20.9781 C   0  0  0  0  0  0
  -25.2447  -13.8228   20.5721 C   0  0  0  0  0  0
  -24.1764  -13.0444   20.9226 C   0  0  0  0  0  0
  -24.6384  -11.6932   20.8750 C   0  0  0  0  0  0
  -23.9072  -10.4295   21.0406 C   0  0  0  0  0  0
  -24.3618   -9.4209   21.9181 C   0  0  0  0  0  0
  -23.6295   -8.2243   22.0749 C   0  0  0  0  0  0
  -22.4275   -8.0276   21.3541 C   0  0  0  0  0  0
  -21.9912   -9.0251   20.4646 C   0  0  0  0  0  0
  -22.7244  -10.2130   20.3057 C   0  0  0  0  0  0
  -21.6858   -6.0730   22.5273 C   0  0  0  0  0  0
  -21.4020   -6.5634   23.8207 C   0  0  0  0  0  0
  -21.3661   -5.6785   24.9167 C   0  0  0  0  0  0
  -21.6045   -4.3048   24.7221 C   0  0  0  0  0  0
  -21.8820   -3.8141   23.4344 C   0  0  0  0  0  0
  -21.9198   -4.6957   22.3398 C   0  0  0  0  0  0
  -22.7785  -13.5213   21.1884 C   0  0  0  0  0  0
  -22.1666   -4.2139   21.0977 F   0  0  0  0  0  0
  -21.5628   -3.4534   25.7738 F   0  0  0  0  0  0
  -29.9464  -13.6653   20.3722 N   0  0  0  0  0  0
  -26.2871  -12.9473   20.3260 N   0  0  0  0  0  0
  -25.9319  -11.6594   20.5745 N   0  0  0  0  0  0
  -22.0438  -12.8201   22.0441 N   0  0  0  0  0  0
  -25.4122  -15.1952   20.4149 N   0  0  0  0  0  0
  -31.7893  -14.9053   20.1371 O   0  0  0  0  0  0
  -21.6641   -6.8873   21.4236 O   0  0  0  0  0  0
  -22.3466  -14.5516   20.6731 O   0  0  0  0  0  0
  -24.6413  -31.8459   23.1900 C   0  0  0  0  0  0
  -25.9190  -32.4705   23.8283 C   0  0  1  0  0  0
  -27.2124  -27.1543   20.1453 C   0  0  0  0  0  0
  -25.5947  -33.8511   24.2199 N   0  0  0  0  0  0
  -23.4439  -30.4661   21.5352 C   0  0  2  0  0  0
  -24.8925  -28.8976   20.1074 C   0  0  0  0  0  0
  -22.7559  -29.4552   22.4863 C   0  0  0  0  0  0
  -18.0302  -28.1393   22.8477 C   0  0  0  0  0  0
  -24.1492  -36.7261   23.2642 C   0  0  0  0  0  0
  -25.9986  -30.7245   21.3870 C   0  0  0  0  0  0
  -26.0689  -29.3382   20.7271 C   0  0  0  0  0  0
  -27.2302  -28.4809   20.7311 C   0  0  0  0  0  0
  -26.0133  -26.8141   19.4809 C   0  0  0  0  0  0
  -24.8768  -27.6490   19.4688 C   0  0  0  0  0  0
  -23.6690  -29.7978   20.1530 C   0  0  0  0  0  0
  -25.4122  -36.3039   24.0319 C   0  0  1  0  0  0
  -20.5915  -28.3716   23.1244 C   0  0  2  0  0  0
  -20.6787  -26.9422   22.5406 C   0  0  0  0  0  0
  -19.5761  -26.6380   21.5214 C   0  0  0  0  0  0
  -18.1943  -26.7932   22.1626 C   0  0  0  0  0  0
  -19.1559  -28.8873   23.2853 C   0  0  0  0  0  0
  -18.9475  -30.1468   23.8879 C   0  0  0  0  0  0
  -17.6472  -30.6591   24.0561 C   0  0  0  0  0  0
  -25.9070  -34.9413   23.5067 C   0  0  0  0  0  0
  -16.5362  -29.9083   23.6334 C   0  0  0  0  0  0
  -16.7287  -28.6502   23.0355 C   0  0  0  0  0  0
  -26.4518  -31.6565   25.0719 C   0  0  0  0  0  0
  -25.3705  -31.3750   26.1415 C   0  0  0  0  0  0
  -27.0379  -30.2964   24.6286 C   0  0  0  0  0  0
  -27.6050  -32.4328   25.7501 C   0  0  0  0  0  0
  -27.5577  -37.1786   24.8464 C   0  0  0  0  0  0
  -21.4252  -29.3042   22.3616 N   0  0  0  0  0  0
  -26.4288  -37.3749   23.9409 N   0  0  0  0  0  0
  -24.7141  -31.0329   22.0927 N   0  0  0  0  0  0
  -23.4211  -28.8100   23.3006 O   0  0  0  0  0  0
  -28.2608  -26.1734   20.2322 O   0  0  0  0  0  0
  -26.5657  -34.8907   22.4645 O   0  0  0  0  0  0
  -23.5535  -32.1328   23.7130 O   0  0  0  0  0  0
  -30.9209  -22.6283   21.7139 C   0  0  0  0  0  0
  -30.0952  -23.6747   21.2590 C   0  0  0  0  0  0
  -30.6874  -21.2577   21.4622 C   0  0  0  0  0  0
  -28.9396  -23.4029   20.4911 C   0  0  0  0  0  0
  -28.7070  -21.9483   20.2253 C   0  0  0  0  0  0
  -29.5574  -20.8165   20.7008 C   0  0  0  0  0  0
  -30.2135  -18.6714   19.4630 C   0  0  0  0  0  0
  -29.2326  -18.4014   21.6220 C   0  0  0  0  0  0
  -30.0088  -17.0988   19.1995 C   0  0  0  0  0  0
  -29.0158  -16.8219   21.3531 C   0  0  0  0  0  0
  -30.4941  -25.0911   21.6373 C   0  0  0  0  0  0
  -31.7248  -20.3292   22.0882 C   0  0  0  0  0  0
  -27.4761  -21.5940   19.4069 C   0  0  0  0  0  0
  -27.9783  -24.6604   20.0272 C   0  0  0  0  0  0
  -29.3471  -19.3524   20.4655 N   0  0  0  0  0  0
  -29.8683  -16.1268   20.3378 N   0  0  0  0  0  0
  -31.4642  -12.6836   19.1894 H   0  0  0  0  0  0
  -30.3903  -11.6041   20.0301 H   0  0  0  0  0  0
  -29.8230  -11.7235   17.5770 H   0  0  0  0  0  0
  -29.6140  -13.4547   17.6947 H   0  0  0  0  0  0
  -27.9299  -11.2800   18.9702 H   0  0  0  0  0  0
  -27.3829  -12.4657   17.8148 H   0  0  0  0  0  0
  -27.5948  -14.2567   19.4184 H   0  0  0  0  0  0
  -28.7436  -12.3035   21.4681 H   0  0  0  0  0  0
  -28.3768  -13.9902   21.7480 H   0  0  0  0  0  0
  -25.2761   -9.5691   22.4758 H   0  0  0  0  0  0
  -24.0008   -7.4636   22.7468 H   0  0  0  0  0  0
  -21.0843   -8.8778   19.8954 H   0  0  0  0  0  0
  -22.3703  -10.9668   19.6169 H   0  0  0  0  0  0
  -21.2012   -7.6142   23.9710 H   0  0  0  0  0  0
  -21.1483   -6.0512   25.9071 H   0  0  0  0  0  0
  -22.0602   -2.7605   23.2842 H   0  0  0  0  0  0
  -22.4071  -11.9872   22.4833 H   0  0  0  0  0  0
  -21.1052  -13.1218   22.2647 H   0  0  0  0  0  0
  -24.6461  -15.8493   20.5303 H   0  0  0  0  0  0
  -26.2633  -15.6338   20.0882 H   0  0  0  0  0  0
  -26.7255  -32.5315   23.1011 H   0  0  0  0  0  0
  -25.0067  -33.9627   25.0331 H   0  0  0  0  0  0
  -22.7452  -31.2913   21.3830 H   0  0  0  0  0  0
  -23.3756  -35.9591   23.3299 H   0  0  0  0  0  0
  -24.3576  -36.8895   22.2057 H   0  0  0  0  0  0
  -23.7246  -37.6457   23.6679 H   0  0  0  0  0  0
  -26.1524  -31.4803   20.6157 H   0  0  0  0  0  0
  -26.8700  -30.7736   22.0283 H   0  0  0  0  0  0
  -28.1246  -28.8084   21.2423 H   0  0  0  0  0  0
  -25.9194  -25.8612   18.9823 H   0  0  0  0  0  0
  -23.9795  -27.3096   18.9696 H   0  0  0  0  0  0
  -23.8051  -30.5739   19.3989 H   0  0  0  0  0  0
  -22.7838  -29.2400   19.8418 H   0  0  0  0  0  0
  -25.1309  -36.1871   25.0812 H   0  0  0  0  0  0
  -21.0007  -28.3304   24.1366 H   0  0  0  0  0  0
  -20.5686  -26.2329   23.3622 H   0  0  0  0  0  0
  -21.6654  -26.7431   22.1204 H   0  0  0  0  0  0
  -19.6925  -25.6286   21.1256 H   0  0  0  0  0  0
  -19.6699  -27.3182   20.6737 H   0  0  0  0  0  0
  -17.4213  -26.6675   21.4028 H   0  0  0  0  0  0
  -18.0342  -26.0080   22.9028 H   0  0  0  0  0  0
  -19.7950  -30.7287   24.2245 H   0  0  0  0  0  0
  -17.5024  -31.6268   24.5167 H   0  0  0  0  0  0
  -15.5362  -30.2978   23.7668 H   0  0  0  0  0  0
  -15.8688  -28.0814   22.7080 H   0  0  0  0  0  0
  -24.5887  -30.7097   25.7732 H   0  0  0  0  0  0
  -24.8890  -32.2932   26.4791 H   0  0  0  0  0  0
  -25.7991  -30.8952   27.0225 H   0  0  0  0  0  0
  -26.2991  -29.6687   24.1292 H   0  0  0  0  0  0
  -27.3994  -29.7260   25.4852 H   0  0  0  0  0  0
  -27.8899  -30.4200   23.9598 H   0  0  0  0  0  0
  -27.2644  -33.3641   26.2038 H   0  0  0  0  0  0
  -28.3883  -32.6870   25.0348 H   0  0  0  0  0  0
  -28.0697  -31.8483   26.5452 H   0  0  0  0  0  0
  -28.2586  -38.0091   24.7513 H   0  0  0  0  0  0
  -28.1082  -36.2619   24.6288 H   0  0  0  0  0  0
  -27.2296  -37.1432   25.8868 H   0  0  0  0  0  0
  -20.9461  -29.8751   21.6794 H   0  0  0  0  0  0
  -26.0157  -38.2819   24.1409 H   0  0  0  0  0  0
  -31.7876  -22.8944   22.3035 H   0  0  0  0  0  0
  -30.0678  -19.1868   18.5120 H   0  0  0  0  0  0
  -31.2616  -18.8364   19.6947 H   0  0  0  0  0  0
  -30.1120  -18.4709   22.2528 H   0  0  0  0  0  0
  -28.4140  -18.7545   22.2509 H   0  0  0  0  0  0
  -30.8060  -16.7606   18.5358 H   0  0  0  0  0  0
  -29.0979  -16.9826   18.6100 H   0  0  0  0  0  0
  -27.9807  -16.6678   21.0472 H   0  0  0  0  0  0
  -29.1136  -16.2948   22.3034 H   0  0  0  0  0  0
  -31.4020  -25.1101   22.2409 H   0  0  0  0  0  0
  -29.7090  -25.5703   22.2227 H   0  0  0  0  0  0
  -30.6883  -25.6879   20.7458 H   0  0  0  0  0  0
  -32.6823  -20.8370   22.2066 H   0  0  0  0  0  0
  -31.9387  -19.4387   21.5085 H   0  0  0  0  0  0
  -31.4007  -20.0265   23.0837 H   0  0  0  0  0  0
  -27.3630  -22.2666   18.5575 H   0  0  0  0  0  0
  -26.5806  -21.6630   20.0240 H   0  0  0  0  0  0
  -27.5316  -20.5821   19.0064 H   0  0  0  0  0  0
  -27.0157  -24.4525   20.4957 H   0  0  0  0  0  0
  -27.8200  -24.5318   18.9567 H   0  0  0  0  0  0
  1 25  1  0  0  0
  1 30  2  0  0  0
  1 86  1  0  0  0
  2  3  1  0  0  0
  2 25  1  0  0  0
  2 87  1  0  0  0
  2 88  1  0  0  0
  3  4  1  0  0  0
  3 89  1  0  0  0
  3 90  1  0  0  0
  4  5  1  0  0  0
  4 91  1  0  0  0
  4 92  1  0  0  0
  5  6  1  0  0  0
  5 26  1  0  0  0
  5 93  1  0  0  0
  6 25  1  0  0  0
  6 94  1  0  0  0
  6 95  1  0  0  0
  7  8  2  0  0  0
  7 26  1  0  0  0
  7 29  1  0  0  0
  8  9  1  0  0  0
  8 22  1  0  0  0
  9 10  1  0  0  0
  9 27  2  0  0  0
 10 11  2  0  0  0
 10 15  1  0  0  0
 11 12  1  0  0  0
 11 96  1  0  0  0
 12 13  2  0  0  0
 12 97  1  0  0  0
 13 14  1  0  0  0
 13 31  1  0  0  0
 14 15  2  0  0  0
 14 98  1  0  0  0
 15 99  1  0  0  0
 16 17  2  0  0  0
 16 21  1  0  0  0
 16 31  1  0  0  0
 17 18  1  0  0  0
 17100  1  0  0  0
 18 19  2  0  0  0
 18101  1  0  0  0
 19 20  1  0  0  0
 19 24  1  0  0  0
 20 21  2  0  0  0
 20102  1  0  0  0
 21 23  1  0  0  0
 22 28  1  0  0  0
 22 32  2  0  0  0
 26 27  1  0  0  0
 28103  1  0  0  0
 28104  1  0  0  0
 29105  1  0  0  0
 29106  1  0  0  0
 33 34  1  0  0  0
 33 66  1  0  0  0
 33 70  2  0  0  0
 34 36  1  0  0  0
 34 59  1  0  0  0
 34107  1  0  0  0
 35 44  2  0  0  0
 35 45  1  0  0  0
 35 68  1  0  0  0
 36 56  1  0  0  0
 36108  1  0  0  0
 37 39  1  0  0  0
 37 47  1  0  0  0
 37 66  1  0  0  0
 37109  1  0  0  0
 38 43  2  0  0  0
 38 46  1  0  0  0
 38 47  1  0  0  0
 39 64  1  0  0  0
 39 67  2  0  0  0
 40 52  1  0  0  0
 40 53  2  0  0  0
 40 58  1  0  0  0
 41110  1  0  0  0
 41111  1  0  0  0
 41112  1  0  0  0
 41 48  1  0  0  0
 42 43  1  0  0  0
 42 66  1  0  0  0
 42113  1  0  0  0
 42114  1  0  0  0
 43 44  1  0  0  0
 44115  1  0  0  0
 45 46  2  0  0  0
 45116  1  0  0  0
 46117  1  0  0  0
 47118  1  0  0  0
 47119  1  0  0  0
 48 56  1  0  0  0
 48 65  1  0  0  0
 48120  1  0  0  0
 49 50  1  0  0  0
 49 53  1  0  0  0
 49 64  1  0  0  0
 49121  1  0  0  0
 50 51  1  0  0  0
 50122  1  0  0  0
 50123  1  0  0  0
 51 52  1  0  0  0
 51124  1  0  0  0
 51125  1  0  0  0
 52126  1  0  0  0
 52127  1  0  0  0
 53 54  1  0  0  0
 54 55  2  0  0  0
 54128  1  0  0  0
 55 57  1  0  0  0
 55129  1  0  0  0
 56 69  2  0  0  0
 57 58  2  0  0  0
 57130  1  0  0  0
 58131  1  0  0  0
 59 60  1  0  0  0
 59 61  1  0  0  0
 59 62  1  0  0  0
 60132  1  0  0  0
 60133  1  0  0  0
 60134  1  0  0  0
 61135  1  0  0  0
 61136  1  0  0  0
 61137  1  0  0  0
 62138  1  0  0  0
 62139  1  0  0  0
 62140  1  0  0  0
 63 65  1  0  0  0
 63141  1  0  0  0
 63142  1  0  0  0
 63143  1  0  0  0
 64144  1  0  0  0
 65145  1  0  0  0
 68 84  1  0  0  0
 71 72  2  0  0  0
 71 73  1  0  0  0
 71146  1  0  0  0
 72 74  1  0  0  0
 72 81  1  0  0  0
 73 76  2  0  0  0
 73 82  1  0  0  0
 74 75  2  0  0  0
 74 84  1  0  0  0
 75 76  1  0  0  0
 75 83  1  0  0  0
 76 85  1  0  0  0
 77 79  1  0  0  0
 77 85  1  0  0  0
 77147  1  0  0  0
 77148  1  0  0  0
 78 80  1  0  0  0
 78 85  1  0  0  0
 78149  1  0  0  0
 78150  1  0  0  0
 79 86  1  0  0  0
 79151  1  0  0  0
 79152  1  0  0  0
 80 86  1  0  0  0
 80153  1  0  0  0
 80154  1  0  0  0
 81155  1  0  0  0
 81156  1  0  0  0
 81157  1  0  0  0
 82158  1  0  0  0
 82159  1  0  0  0
 82160  1  0  0  0
 83161  1  0  0  0
 83162  1  0  0  0
 83163  1  0  0  0
 84164  1  0  0  0
 84165  1  0  0  0
M  ISO  4   1 100  68 101  84 101  86 100
M  END
> <chiral flag>
0

> <version>
0

> <s_m_source_file>
/data/baiqing/PycharmProjects/Reinvent-master-3.2/result/LINK_invent/BTK/process_docking_weight1_custom_sum_contain_oxygen_bond_distance_aromatic_linkinvent_7_9_3/rearranged_h_0157.sdf

> <i_m_source_file_index>
60

> <r_mmod_Potential_Energy-OPLS-2005>
605.840270996094

> <r_mmod_Stretch_Energy-OPLS-2005>
219.387405395508

> <r_mmod_Bend_Energy-OPLS-2005>
245.419418334961

> <r_mmod_Torsional_Energy-OPLS-2005>
375.270080566406

> <r_mmod_Improper_Torsional_Energy-OPLS-2005>
19.1697692871094

> <r_mmod_Van_der_Waal_Energy-OPLS-2005>
147.506210327148

> <r_mmod_Electrostatic_Energy-OPLS-2005>
-367.096069335938

> <r_mmod_Solvation_Energy-OPLS-2005>
-202.119186401367

> <b_mmod_Minimization_Converged-OPLS-2005>
0

> <r_mmod_RMS_Derivative-OPLS-2005>
0.877461314201355

$$$$
60
                    3D
 Structure written by MMmdl.
165174  0  0  1  0            999 V2000
  -30.6620  -14.5824   20.5121 C   0  0  0  0  0  0
  -30.4260  -12.3597   19.4466 C   0  0  0  0  0  0
  -29.5021  -12.5036   18.2183 C   0  0  0  0  0  0
  -28.0225  -12.3551   18.6275 C   0  0  0  0  0  0
  -27.6528  -13.2141   19.8671 C   0  0  2  0  0  0
  -28.6969  -13.0466   20.9925 C   0  0  0  0  0  0
  -25.2558  -13.8167   20.5705 C   0  0  0  0  0  0
  -24.1816  -13.0436   20.9186 C   0  0  0  0  0  0
  -24.6377  -11.6906   20.8731 C   0  0  0  0  0  0
  -23.9041  -10.4292   21.0400 C   0  0  0  0  0  0
  -24.3599   -9.4210   21.9181 C   0  0  0  0  0  0
  -23.6277   -8.2242   22.0752 C   0  0  0  0  0  0
  -22.4261   -8.0273   21.3541 C   0  0  0  0  0  0
  -21.9889   -9.0249   20.4650 C   0  0  0  0  0  0
  -22.7212  -10.2130   20.3055 C   0  0  0  0  0  0
  -21.6853   -6.0721   22.5271 C   0  0  0  0  0  0
  -21.4017   -6.5626   23.8203 C   0  0  0  0  0  0
  -21.3665   -5.6782   24.9168 C   0  0  0  0  0  0
  -21.6048   -4.3045   24.7223 C   0  0  0  0  0  0
  -21.8821   -3.8134   23.4346 C   0  0  0  0  0  0
  -21.9194   -4.6948   22.3401 C   0  0  0  0  0  0
  -22.7837  -13.5234   21.1847 C   0  0  0  0  0  0
  -22.1664   -4.2133   21.0978 F   0  0  0  0  0  0
  -21.5630   -3.4531   25.7738 F   0  0  0  0  0  0
  -30.0115  -13.3809   20.4278 N   0  0  0  0  0  0
  -26.2982  -12.9343   20.3343 N   0  0  0  0  0  0
  -25.9303  -11.6498   20.5748 N   0  0  0  0  0  0
  -22.0480  -12.8236   22.0411 N   0  0  0  0  0  0
  -25.4279  -15.1887   20.4142 N   0  0  0  0  0  0
  -31.8330  -14.6945   20.1343 O   0  0  0  0  0  0
  -21.6638   -6.8864   21.4232 O   0  0  0  0  0  0
  -22.3529  -14.5542   20.6696 O   0  0  0  0  0  0
  -24.6209  -31.8631   23.2052 C   0  0  0  0  0  0
  -25.9079  -32.4793   23.8361 C   0  0  1  0  0  0
  -27.2270  -27.3666   20.0962 C   0  0  0  0  0  0
  -25.5909  -33.8592   24.2293 N   0  0  0  0  0  0
  -23.4108  -30.4873   21.5476 C   0  0  2  0  0  0
  -24.8542  -28.9475   20.1116 C   0  0  0  0  0  0
  -22.7440  -29.4637   22.4964 C   0  0  0  0  0  0
  -18.0280  -28.1376   22.8487 C   0  0  0  0  0  0
  -24.1488  -36.7302   23.2638 C   0  0  0  0  0  0
  -25.9470  -30.8071   21.3687 C   0  0  0  0  0  0
  -26.0194  -29.4382   20.7115 C   0  0  0  0  0  0
  -27.2043  -28.6551   20.7003 C   0  0  0  0  0  0
  -26.0287  -26.9020   19.5043 C   0  0  0  0  0  0
  -24.8574  -27.6817   19.5053 C   0  0  0  0  0  0
  -23.6207  -29.8221   20.1619 C   0  0  0  0  0  0
  -25.4109  -36.3092   24.0334 C   0  0  1  0  0  0
  -20.5872  -28.3670   23.1302 C   0  0  2  0  0  0
  -20.6769  -26.9399   22.5416 C   0  0  0  0  0  0
  -19.5748  -26.6381   21.5210 C   0  0  0  0  0  0
  -18.1926  -26.7921   22.1621 C   0  0  0  0  0  0
  -19.1527  -28.8841   23.2893 C   0  0  0  0  0  0
  -18.9455  -30.1444   23.8908 C   0  0  0  0  0  0
  -17.6454  -30.6583   24.0564 C   0  0  0  0  0  0
  -25.9042  -34.9461   23.5115 C   0  0  0  0  0  0
  -16.5346  -29.9080   23.6327 C   0  0  0  0  0  0
  -16.7267  -28.6497   23.0351 C   0  0  0  0  0  0
  -26.4481  -31.6591   25.0716 C   0  0  0  0  0  0
  -25.3735  -31.3724   26.1461 C   0  0  0  0  0  0
  -27.0311  -30.3018   24.6137 C   0  0  0  0  0  0
  -27.6057  -32.4318   25.7477 C   0  0  0  0  0  0
  -27.5585  -37.1797   24.8458 C   0  0  0  0  0  0
  -21.4162  -29.3032   22.3705 N   0  0  0  0  0  0
  -26.4290  -37.3785   23.9412 N   0  0  0  0  0  0
  -24.6783  -31.0685   22.0981 N   0  0  0  0  0  0
  -23.4189  -28.8180   23.3025 O   0  0  0  0  0  0
  -28.3884  -26.5965   20.1479 O   0  0  0  0  0  0
  -26.5609  -34.8924   22.4678 O   0  0  0  0  0  0
  -23.5387  -32.1408   23.7415 O   0  0  0  0  0  0
  -28.1687  -22.8781   19.5074 C   0  0  0  0  0  0
  -28.4923  -21.5665   19.9436 C   0  0  0  0  0  0
  -28.8312  -24.0297   20.0050 C   0  0  0  0  0  0
  -29.8249  -23.8223   21.0030 C   0  0  0  0  0  0
  -30.1140  -22.5021   21.4848 C   0  0  0  0  0  0
  -29.4865  -21.3480   20.9233 C   0  0  0  0  0  0
  -29.5527  -17.6961   22.1002 C   0  0  0  0  0  0
  -30.2104  -18.1250   19.7600 C   0  0  0  0  0  0
  -29.1770  -16.2241   21.7437 C   0  0  0  0  0  0
  -29.8141  -16.6575   19.4126 C   0  0  0  0  0  0
  -29.4071  -18.7157   20.9391 C   0  0  0  0  0  0
  -30.6163  -25.0173   21.5327 C   0  0  0  0  0  0
  -31.1340  -22.3226   22.6108 C   0  0  0  0  0  0
  -28.5685  -25.4087   19.3193 C   0  0  0  0  0  0
  -29.8677  -15.7040   20.5472 N   0  0  0  0  0  0
  -29.8933  -20.0526   21.3559 N   0  0  0  0  0  0
  -31.4700  -12.4644   19.1460 H   0  0  0  0  0  0
  -30.3402  -11.3614   19.8783 H   0  0  0  0  0  0
  -29.7577  -11.7590   17.4632 H   0  0  0  0  0  0
  -29.6584  -13.4777   17.7519 H   0  0  0  0  0  0
  -27.8460  -11.3003   18.8430 H   0  0  0  0  0  0
  -27.3720  -12.6070   17.7891 H   0  0  0  0  0  0
  -27.6768  -14.2538   19.5418 H   0  0  0  0  0  0
  -28.6984  -12.0203   21.3625 H   0  0  0  0  0  0
  -28.4484  -13.6664   21.8519 H   0  0  0  0  0  0
  -25.2748   -9.5688   22.4747 H   0  0  0  0  0  0
  -23.9991   -7.4634   22.7469 H   0  0  0  0  0  0
  -21.0819   -8.8762   19.8959 H   0  0  0  0  0  0
  -22.3666  -10.9663   19.6158 H   0  0  0  0  0  0
  -21.2009   -7.6135   23.9699 H   0  0  0  0  0  0
  -21.1488   -6.0517   25.9070 H   0  0  0  0  0  0
  -22.0598   -2.7594   23.2853 H   0  0  0  0  0  0
  -22.4091  -11.9898   22.4805 H   0  0  0  0  0  0
  -21.1102  -13.1268   22.2616 H   0  0  0  0  0  0
  -24.6659  -15.8468   20.5347 H   0  0  0  0  0  0
  -26.2864  -15.6272   20.1065 H   0  0  0  0  0  0
  -26.7144  -32.5475   23.1111 H   0  0  0  0  0  0
  -25.0054  -33.9741   25.0437 H   0  0  0  0  0  0
  -22.7024  -31.3063   21.4079 H   0  0  0  0  0  0
  -23.3752  -35.9633   23.3295 H   0  0  0  0  0  0
  -24.3590  -36.8925   22.2053 H   0  0  0  0  0  0
  -23.7240  -37.6504   23.6660 H   0  0  0  0  0  0
  -26.0732  -31.5728   20.6022 H   0  0  0  0  0  0
  -26.8301  -30.8548   21.9940 H   0  0  0  0  0  0
  -28.1020  -29.0297   21.1720 H   0  0  0  0  0  0
  -25.9482  -25.9214   19.0636 H   0  0  0  0  0  0
  -23.9567  -27.2922   19.0510 H   0  0  0  0  0  0
  -23.7348  -30.5979   19.4039 H   0  0  0  0  0  0
  -22.7420  -29.2471   19.8640 H   0  0  0  0  0  0
  -25.1286  -36.1949   25.0826 H   0  0  0  0  0  0
  -20.9963  -28.3241   24.1422 H   0  0  0  0  0  0
  -20.5665  -26.2275   23.3606 H   0  0  0  0  0  0
  -21.6642  -26.7438   22.1214 H   0  0  0  0  0  0
  -19.6909  -25.6295   21.1233 H   0  0  0  0  0  0
  -19.6688  -27.3199   20.6744 H   0  0  0  0  0  0
  -17.4196  -26.6670   21.4023 H   0  0  0  0  0  0
  -18.0328  -26.0062   22.9016 H   0  0  0  0  0  0
  -19.7933  -30.7254   24.2284 H   0  0  0  0  0  0
  -17.5013  -31.6265   24.5159 H   0  0  0  0  0  0
  -15.5346  -30.2984   23.7647 H   0  0  0  0  0  0
  -15.8669  -28.0816   22.7063 H   0  0  0  0  0  0
  -24.5904  -30.7072   25.7806 H   0  0  0  0  0  0
  -24.8929  -32.2889   26.4897 H   0  0  0  0  0  0
  -25.8075  -30.8904   27.0229 H   0  0  0  0  0  0
  -26.2863  -29.6781   24.1178 H   0  0  0  0  0  0
  -27.4040  -29.7262   25.4620 H   0  0  0  0  0  0
  -27.8724  -30.4314   23.9325 H   0  0  0  0  0  0
  -27.2675  -33.3614   26.2068 H   0  0  0  0  0  0
  -28.3852  -32.6881   25.0291 H   0  0  0  0  0  0
  -28.0738  -31.8433   26.5377 H   0  0  0  0  0  0
  -28.2590  -38.0108   24.7531 H   0  0  0  0  0  0
  -28.1092  -36.2642   24.6244 H   0  0  0  0  0  0
  -27.2313  -37.1410   25.8864 H   0  0  0  0  0  0
  -20.9323  -29.8750   21.6924 H   0  0  0  0  0  0
  -26.0173  -38.2859   24.1428 H   0  0  0  0  0  0
  -27.4228  -22.9900   18.7331 H   0  0  0  0  0  0
  -27.9758  -20.7299   19.4956 H   0  0  0  0  0  0
  -30.5840  -17.7026   22.4570 H   0  0  0  0  0  0
  -28.9448  -18.0191   22.9468 H   0  0  0  0  0  0
  -30.0758  -18.7517   18.8769 H   0  0  0  0  0  0
  -31.2764  -18.1526   19.9898 H   0  0  0  0  0  0
  -28.1019  -16.1543   21.5730 H   0  0  0  0  0  0
  -29.3935  -15.5919   22.6063 H   0  0  0  0  0  0
  -30.4358  -16.3064   18.5865 H   0  0  0  0  0  0
  -28.7936  -16.6473   19.0277 H   0  0  0  0  0  0
  -28.3537  -18.7842   20.6634 H   0  0  0  0  0  0
  -30.6901  -25.8235   20.8053 H   0  0  0  0  0  0
  -31.6467  -24.7508   21.7660 H   0  0  0  0  0  0
  -30.1486  -25.4146   22.4339 H   0  0  0  0  0  0
  -31.1099  -23.1555   23.3128 H   0  0  0  0  0  0
  -32.1417  -22.2437   22.2029 H   0  0  0  0  0  0
  -30.9395  -21.4378   23.2156 H   0  0  0  0  0  0
  -27.8178  -25.2945   18.5416 H   0  0  0  0  0  0
  -29.4710  -25.6107   18.7416 H   0  0  0  0  0  0
  -30.6530  -20.0391   22.0286 H   0  0  0  0  0  0
  1 25  1  0  0  0
  1 30  2  0  0  0
  1 85  1  0  0  0
  2  3  1  0  0  0
  2 25  1  0  0  0
  2 87  1  0  0  0
  2 88  1  0  0  0
  3  4  1  0  0  0
  3 89  1  0  0  0
  3 90  1  0  0  0
  4  5  1  0  0  0
  4 91  1  0  0  0
  4 92  1  0  0  0
  5  6  1  0  0  0
  5 26  1  0  0  0
  5 93  1  0  0  0
  6 25  1  0  0  0
  6 94  1  0  0  0
  6 95  1  0  0  0
  7  8  2  0  0  0
  7 26  1  0  0  0
  7 29  1  0  0  0
  8  9  1  0  0  0
  8 22  1  0  0  0
  9 10  1  0  0  0
  9 27  2  0  0  0
 10 11  2  0  0  0
 10 15  1  0  0  0
 11 12  1  0  0  0
 11 96  1  0  0  0
 12 13  2  0  0  0
 12 97  1  0  0  0
 13 14  1  0  0  0
 13 31  1  0  0  0
 14 15  2  0  0  0
 14 98  1  0  0  0
 15 99  1  0  0  0
 16 17  2  0  0  0
 16 21  1  0  0  0
 16 31  1  0  0  0
 17 18  1  0  0  0
 17100  1  0  0  0
 18 19  2  0  0  0
 18101  1  0  0  0
 19 20  1  0  0  0
 19 24  1  0  0  0
 20 21  2  0  0  0
 20102  1  0  0  0
 21 23  1  0  0  0
 22 28  1  0  0  0
 22 32  2  0  0  0
 26 27  1  0  0  0
 28103  1  0  0  0
 28104  1  0  0  0
 29105  1  0  0  0
 29106  1  0  0  0
 33 34  1  0  0  0
 33 66  1  0  0  0
 33 70  2  0  0  0
 34 36  1  0  0  0
 34 59  1  0  0  0
 34107  1  0  0  0
 35 44  2  0  0  0
 35 45  1  0  0  0
 35 68  1  0  0  0
 36 56  1  0  0  0
 36108  1  0  0  0
 37 39  1  0  0  0
 37 47  1  0  0  0
 37 66  1  0  0  0
 37109  1  0  0  0
 38 43  2  0  0  0
 38 46  1  0  0  0
 38 47  1  0  0  0
 39 64  1  0  0  0
 39 67  2  0  0  0
 40 52  1  0  0  0
 40 53  2  0  0  0
 40 58  1  0  0  0
 41110  1  0  0  0
 41111  1  0  0  0
 41112  1  0  0  0
 41 48  1  0  0  0
 42 43  1  0  0  0
 42 66  1  0  0  0
 42113  1  0  0  0
 42114  1  0  0  0
 43 44  1  0  0  0
 44115  1  0  0  0
 45 46  2  0  0  0
 45116  1  0  0  0
 46117  1  0  0  0
 47118  1  0  0  0
 47119  1  0  0  0
 48 56  1  0  0  0
 48 65  1  0  0  0
 48120  1  0  0  0
 49 50  1  0  0  0
 49 53  1  0  0  0
 49 64  1  0  0  0
 49121  1  0  0  0
 50 51  1  0  0  0
 50122  1  0  0  0
 50123  1  0  0  0
 51 52  1  0  0  0
 51124  1  0  0  0
 51125  1  0  0  0
 52126  1  0  0  0
 52127  1  0  0  0
 53 54  1  0  0  0
 54 55  2  0  0  0
 54128  1  0  0  0
 55 57  1  0  0  0
 55129  1  0  0  0
 56 69  2  0  0  0
 57 58  2  0  0  0
 57130  1  0  0  0
 58131  1  0  0  0
 59 60  1  0  0  0
 59 61  1  0  0  0
 59 62  1  0  0  0
 60132  1  0  0  0
 60133  1  0  0  0
 60134  1  0  0  0
 61135  1  0  0  0
 61136  1  0  0  0
 61137  1  0  0  0
 62138  1  0  0  0
 62139  1  0  0  0
 62140  1  0  0  0
 63 65  1  0  0  0
 63141  1  0  0  0
 63142  1  0  0  0
 63143  1  0  0  0
 64144  1  0  0  0
 65145  1  0  0  0
 68 84  1  0  0  0
 71 72  2  0  0  0
 71 73  1  0  0  0
 71146  1  0  0  0
 72 76  1  0  0  0
 72147  1  0  0  0
 73 74  2  0  0  0
 73 84  1  0  0  0
 74 75  1  0  0  0
 74 82  1  0  0  0
 75 76  2  0  0  0
 75 83  1  0  0  0
 76 86  1  0  0  0
 77 79  1  0  0  0
 77 81  1  0  0  0
 77148  1  0  0  0
 77149  1  0  0  0
 78 80  1  0  0  0
 78 81  1  0  0  0
 78150  1  0  0  0
 78151  1  0  0  0
 79 85  1  0  0  0
 79152  1  0  0  0
 79153  1  0  0  0
 80 85  1  0  0  0
 80154  1  0  0  0
 80155  1  0  0  0
 81 86  1  0  0  0
 81156  1  0  0  0
 82157  1  0  0  0
 82158  1  0  0  0
 82159  1  0  0  0
 83160  1  0  0  0
 83161  1  0  0  0
 83162  1  0  0  0
 84163  1  0  0  0
 84164  1  0  0  0
 86165  1  0  0  0
M  ISO  4   1 100  68 101  84 101  85 100
M  END
> <chiral flag>
0

> <version>
0

> <s_m_source_file>
/data/baiqing/PycharmProjects/Reinvent-master-3.2/result/LINK_invent/BTK/process_docking_weight1_custom_sum_contain_oxygen_bond_distance_aromatic_linkinvent_7_9_3/rearranged_h_0157.sdf

> <i_m_source_file_index>
61

> <r_mmod_Potential_Energy-OPLS-2005>
211.585250854492

> <r_mmod_Stretch_Energy-OPLS-2005>
61.5182609558105

> <r_mmod_Bend_Energy-OPLS-2005>
149.91291809082

> <r_mmod_Torsional_Energy-OPLS-2005>
323.255554199219

> <r_mmod_Improper_Torsional_Energy-OPLS-2005>
16.0550155639648

> <r_mmod_Van_der_Waal_Energy-OPLS-2005>
155.894180297852

> <r_mmod_Electrostatic_Energy-OPLS-2005>
-327.304809570312

> <r_mmod_Solvation_Energy-OPLS-2005>
-198.300720214844

> <b_mmod_Minimization_Converged-OPLS-2005>
0

> <r_mmod_RMS_Derivative-OPLS-2005>
0.91121381521225

$$$$
61
                    3D
 Structure written by MMmdl.
167176  0  0  1  0            999 V2000
  -30.6590  -14.5849   20.4906 C   0  0  0  0  0  0
  -30.4275  -12.3545   19.4461 C   0  0  0  0  0  0
  -29.5002  -12.4888   18.2186 C   0  0  0  0  0  0
  -28.0233  -12.3384   18.6338 C   0  0  0  0  0  0
  -27.6508  -13.2126   19.8616 C   0  0  2  0  0  0
  -28.6977  -13.0742   20.9911 C   0  0  0  0  0  0
  -25.2560  -13.8164   20.5696 C   0  0  0  0  0  0
  -24.1820  -13.0434   20.9195 C   0  0  0  0  0  0
  -24.6382  -11.6904   20.8748 C   0  0  0  0  0  0
  -23.9054  -10.4286   21.0400 C   0  0  0  0  0  0
  -24.3610   -9.4205   21.9179 C   0  0  0  0  0  0
  -23.6291   -8.2238   22.0750 C   0  0  0  0  0  0
  -22.4272   -8.0271   21.3539 C   0  0  0  0  0  0
  -21.9903   -9.0244   20.4640 C   0  0  0  0  0  0
  -22.7229  -10.2126   20.3047 C   0  0  0  0  0  0
  -21.6849   -6.0729   22.5279 C   0  0  0  0  0  0
  -21.4006   -6.5634   23.8210 C   0  0  0  0  0  0
  -21.3664   -5.6790   24.9175 C   0  0  0  0  0  0
  -21.6047   -4.3055   24.7226 C   0  0  0  0  0  0
  -21.8819   -3.8139   23.4349 C   0  0  0  0  0  0
  -21.9191   -4.6953   22.3404 C   0  0  0  0  0  0
  -22.7842  -13.5231   21.1856 C   0  0  0  0  0  0
  -22.1659   -4.2138   21.0981 F   0  0  0  0  0  0
  -21.5640   -3.4539   25.7740 F   0  0  0  0  0  0
  -30.0144  -13.3825   20.4175 N   0  0  0  0  0  0
  -26.2977  -12.9336   20.3331 N   0  0  0  0  0  0
  -25.9307  -11.6499   20.5764 N   0  0  0  0  0  0
  -22.0480  -12.8220   22.0406 N   0  0  0  0  0  0
  -25.4304  -15.1881   20.4121 N   0  0  0  0  0  0
  -31.8369  -14.7133   20.1461 O   0  0  0  0  0  0
  -21.6641   -6.8867   21.4238 O   0  0  0  0  0  0
  -22.3532  -14.5542   20.6709 O   0  0  0  0  0  0
  -24.6197  -31.8644   23.2062 C   0  0  0  0  0  0
  -25.9072  -32.4803   23.8377 C   0  0  1  0  0  0
  -27.2277  -27.3849   20.1113 C   0  0  0  0  0  0
  -25.5913  -33.8603   24.2305 N   0  0  0  0  0  0
  -23.4118  -30.4865   21.5469 C   0  0  2  0  0  0
  -24.8618  -28.9502   20.1092 C   0  0  0  0  0  0
  -22.7448  -29.4637   22.4962 C   0  0  0  0  0  0
  -18.0276  -28.1377   22.8491 C   0  0  0  0  0  0
  -24.1489  -36.7303   23.2636 C   0  0  0  0  0  0
  -25.9457  -30.8160   21.3671 C   0  0  0  0  0  0
  -26.0257  -29.4477   20.7116 C   0  0  0  0  0  0
  -27.2168  -28.6735   20.7084 C   0  0  0  0  0  0
  -26.0519  -26.9211   19.4878 C   0  0  0  0  0  0
  -24.8727  -27.6894   19.4892 C   0  0  0  0  0  0
  -23.6237  -29.8200   20.1613 C   0  0  0  0  0  0
  -25.4110  -36.3102   24.0334 C   0  0  1  0  0  0
  -20.5875  -28.3671   23.1301 C   0  0  2  0  0  0
  -20.6765  -26.9402   22.5412 C   0  0  0  0  0  0
  -19.5746  -26.6382   21.5210 C   0  0  0  0  0  0
  -18.1925  -26.7925   22.1616 C   0  0  0  0  0  0
  -19.1529  -28.8838   23.2892 C   0  0  0  0  0  0
  -18.9455  -30.1444   23.8905 C   0  0  0  0  0  0
  -17.6458  -30.6583   24.0557 C   0  0  0  0  0  0
  -25.9039  -34.9468   23.5116 C   0  0  0  0  0  0
  -16.5347  -29.9081   23.6331 C   0  0  0  0  0  0
  -16.7264  -28.6494   23.0356 C   0  0  0  0  0  0
  -26.4483  -31.6595   25.0723 C   0  0  0  0  0  0
  -25.3733  -31.3714   26.1462 C   0  0  0  0  0  0
  -27.0307  -30.3031   24.6123 C   0  0  0  0  0  0
  -27.6060  -32.4312   25.7485 C   0  0  0  0  0  0
  -27.5584  -37.1801   24.8461 C   0  0  0  0  0  0
  -21.4167  -29.3036   22.3709 N   0  0  0  0  0  0
  -26.4289  -37.3795   23.9415 N   0  0  0  0  0  0
  -24.6775  -31.0704   22.0981 N   0  0  0  0  0  0
  -23.4197  -28.8181   23.3022 O   0  0  0  0  0  0
  -28.3167  -26.5271   20.1577 O   0  0  0  0  0  0
  -26.5603  -34.8927   22.4678 O   0  0  0  0  0  0
  -23.5378  -32.1408   23.7424 O   0  0  0  0  0  0
  -29.0336  -23.5491   19.6454 C   0  0  0  0  0  0
  -29.4800  -21.8961   21.8629 C   0  0  0  0  0  0
  -29.5515  -22.2343   19.4656 C   0  0  0  0  0  0
  -28.7514  -24.0667   20.9298 C   0  0  0  0  0  0
  -29.8138  -21.3884   20.5850 C   0  0  0  0  0  0
  -28.9453  -23.2069   22.0458 C   0  0  0  0  0  0
  -29.5047  -16.4713   21.6991 C   0  0  0  0  0  0
  -29.6253  -16.4766   19.2697 C   0  0  0  0  0  0
  -30.1056  -17.9206   21.7217 C   0  0  0  0  0  0
  -30.2798  -17.8866   19.2901 C   0  0  0  0  0  0
  -29.8559  -21.7778   18.0492 C   0  0  0  0  0  0
  -28.7114  -22.8691   24.4255 C   0  0  0  0  0  0
  -30.6190  -20.0532   20.4779 C   0  0  0  0  0  0
  -28.1476  -25.4828   21.1590 C   0  0  0  0  0  0
  -29.8466  -15.6882   20.4972 N   0  0  0  0  0  0
  -29.9020  -18.7192   20.4704 N   0  3  0  0  0  0
  -28.6029  -23.7110   23.2844 O   0  0  0  0  0  0
  -31.4710  -12.4609   19.1441 H   0  0  0  0  0  0
  -30.3423  -11.3601   19.8877 H   0  0  0  0  0  0
  -29.7547  -11.7371   17.4704 H   0  0  0  0  0  0
  -29.6524  -13.4578   17.7401 H   0  0  0  0  0  0
  -27.8553  -11.2865   18.8685 H   0  0  0  0  0  0
  -27.3681  -12.5671   17.7919 H   0  0  0  0  0  0
  -27.6650  -14.2454   19.5170 H   0  0  0  0  0  0
  -28.6952  -12.0622   21.3980 H   0  0  0  0  0  0
  -28.4595  -13.7403   21.8222 H   0  0  0  0  0  0
  -25.2748   -9.5688   22.4766 H   0  0  0  0  0  0
  -24.0002   -7.4624   22.7466 H   0  0  0  0  0  0
  -21.0833   -8.8749   19.8948 H   0  0  0  0  0  0
  -22.3673  -10.9662   19.6159 H   0  0  0  0  0  0
  -21.1987   -7.6141   23.9710 H   0  0  0  0  0  0
  -21.1496   -6.0522   25.9082 H   0  0  0  0  0  0
  -22.0596   -2.7600   23.2850 H   0  0  0  0  0  0
  -22.4084  -11.9875   22.4793 H   0  0  0  0  0  0
  -21.1099  -13.1243   22.2607 H   0  0  0  0  0  0
  -24.6677  -15.8478   20.5221 H   0  0  0  0  0  0
  -26.2888  -15.6219   20.1005 H   0  0  0  0  0  0
  -26.7143  -32.5509   23.1138 H   0  0  0  0  0  0
  -25.0085  -33.9758   25.0465 H   0  0  0  0  0  0
  -22.7025  -31.3046   21.4053 H   0  0  0  0  0  0
  -23.3761  -35.9625   23.3289 H   0  0  0  0  0  0
  -24.3596  -36.8929   22.2054 H   0  0  0  0  0  0
  -23.7223  -37.6497   23.6658 H   0  0  0  0  0  0
  -26.0643  -31.5819   20.5993 H   0  0  0  0  0  0
  -26.8300  -30.8683   21.9901 H   0  0  0  0  0  0
  -28.1101  -29.0442   21.1916 H   0  0  0  0  0  0
  -26.0430  -25.9443   19.0251 H   0  0  0  0  0  0
  -23.9805  -27.3014   19.0169 H   0  0  0  0  0  0
  -23.7314  -30.5949   19.4013 H   0  0  0  0  0  0
  -22.7478  -29.2395   19.8650 H   0  0  0  0  0  0
  -25.1287  -36.1958   25.0826 H   0  0  0  0  0  0
  -20.9956  -28.3231   24.1425 H   0  0  0  0  0  0
  -20.5659  -26.2280   23.3603 H   0  0  0  0  0  0
  -21.6637  -26.7438   22.1210 H   0  0  0  0  0  0
  -19.6909  -25.6294   21.1239 H   0  0  0  0  0  0
  -19.6692  -27.3190   20.6740 H   0  0  0  0  0  0
  -17.4201  -26.6678   21.4015 H   0  0  0  0  0  0
  -18.0325  -26.0056   22.8999 H   0  0  0  0  0  0
  -19.7932  -30.7256   24.2279 H   0  0  0  0  0  0
  -17.5013  -31.6268   24.5150 H   0  0  0  0  0  0
  -15.5350  -30.2983   23.7652 H   0  0  0  0  0  0
  -15.8663  -28.0811   22.7076 H   0  0  0  0  0  0
  -24.5914  -30.7053   25.7801 H   0  0  0  0  0  0
  -24.8915  -32.2867   26.4904 H   0  0  0  0  0  0
  -25.8073  -30.8892   27.0227 H   0  0  0  0  0  0
  -26.2855  -29.6799   24.1163 H   0  0  0  0  0  0
  -27.4049  -29.7268   25.4596 H   0  0  0  0  0  0
  -27.8710  -30.4344   23.9299 H   0  0  0  0  0  0
  -27.2690  -33.3609   26.2077 H   0  0  0  0  0  0
  -28.3861  -32.6865   25.0301 H   0  0  0  0  0  0
  -28.0733  -31.8420   26.5384 H   0  0  0  0  0  0
  -28.2589  -38.0113   24.7540 H   0  0  0  0  0  0
  -28.1092  -36.2649   24.6242 H   0  0  0  0  0  0
  -27.2313  -37.1393   25.8865 H   0  0  0  0  0  0
  -20.9334  -29.8766   21.6936 H   0  0  0  0  0  0
  -26.0177  -38.2870   24.1433 H   0  0  0  0  0  0
  -28.8549  -24.1812   18.7863 H   0  0  0  0  0  0
  -29.6866  -21.2664   22.7156 H   0  0  0  0  0  0
  -28.4168  -16.5306   21.7565 H   0  0  0  0  0  0
  -29.8177  -15.9366   22.5977 H   0  0  0  0  0  0
  -29.9867  -15.9311   18.3955 H   0  0  0  0  0  0
  -28.5497  -16.5789   19.1216 H   0  0  0  0  0  0
  -31.1772  -17.8359   21.9090 H   0  0  0  0  0  0
  -29.6943  -18.4735   22.5678 H   0  0  0  0  0  0
  -30.0161  -18.4186   18.3747 H   0  0  0  0  0  0
  -31.3644  -17.7666   19.2719 H   0  0  0  0  0  0
  -29.3999  -22.4425   17.3138 H   0  0  0  0  0  0
  -29.4622  -20.7787   17.8657 H   0  0  0  0  0  0
  -30.9313  -21.7704   17.8692 H   0  0  0  0  0  0
  -28.3496  -23.4073   25.3015 H   0  0  0  0  0  0
  -29.7475  -22.5892   24.6182 H   0  0  0  0  0  0
  -28.1057  -21.9677   24.3230 H   0  0  0  0  0  0
  -31.3445  -20.0579   21.2924 H   0  0  0  0  0  0
  -31.2544  -20.1249   19.5951 H   0  0  0  0  0  0
  -28.5795  -25.8881   22.0748 H   0  0  0  0  0  0
  -27.0921  -25.3196   21.3861 H   0  0  0  0  0  0
  -28.9171  -18.9247   20.3907 H   0  0  0  0  0  0
  1 25  1  0  0  0
  1 30  2  0  0  0
  1 85  1  0  0  0
  2  3  1  0  0  0
  2 25  1  0  0  0
  2 88  1  0  0  0
  2 89  1  0  0  0
  3  4  1  0  0  0
  3 90  1  0  0  0
  3 91  1  0  0  0
  4  5  1  0  0  0
  4 92  1  0  0  0
  4 93  1  0  0  0
  5  6  1  0  0  0
  5 26  1  0  0  0
  5 94  1  0  0  0
  6 25  1  0  0  0
  6 95  1  0  0  0
  6 96  1  0  0  0
  7  8  2  0  0  0
  7 26  1  0  0  0
  7 29  1  0  0  0
  8  9  1  0  0  0
  8 22  1  0  0  0
  9 10  1  0  0  0
  9 27  2  0  0  0
 10 11  2  0  0  0
 10 15  1  0  0  0
 11 12  1  0  0  0
 11 97  1  0  0  0
 12 13  2  0  0  0
 12 98  1  0  0  0
 13 14  1  0  0  0
 13 31  1  0  0  0
 14 15  2  0  0  0
 14 99  1  0  0  0
 15100  1  0  0  0
 16 17  2  0  0  0
 16 21  1  0  0  0
 16 31  1  0  0  0
 17 18  1  0  0  0
 17101  1  0  0  0
 18 19  2  0  0  0
 18102  1  0  0  0
 19 20  1  0  0  0
 19 24  1  0  0  0
 20 21  2  0  0  0
 20103  1  0  0  0
 21 23  1  0  0  0
 22 28  1  0  0  0
 22 32  2  0  0  0
 26 27  1  0  0  0
 28104  1  0  0  0
 28105  1  0  0  0
 29106  1  0  0  0
 29107  1  0  0  0
 33 34  1  0  0  0
 33 66  1  0  0  0
 33 70  2  0  0  0
 34 36  1  0  0  0
 34 59  1  0  0  0
 34108  1  0  0  0
 35 44  2  0  0  0
 35 45  1  0  0  0
 35 68  1  0  0  0
 36 56  1  0  0  0
 36109  1  0  0  0
 37 39  1  0  0  0
 37 47  1  0  0  0
 37 66  1  0  0  0
 37110  1  0  0  0
 38 43  2  0  0  0
 38 46  1  0  0  0
 38 47  1  0  0  0
 39 64  1  0  0  0
 39 67  2  0  0  0
 40 52  1  0  0  0
 40 53  2  0  0  0
 40 58  1  0  0  0
 41111  1  0  0  0
 41112  1  0  0  0
 41113  1  0  0  0
 41 48  1  0  0  0
 42 43  1  0  0  0
 42 66  1  0  0  0
 42114  1  0  0  0
 42115  1  0  0  0
 43 44  1  0  0  0
 44116  1  0  0  0
 45 46  2  0  0  0
 45117  1  0  0  0
 46118  1  0  0  0
 47119  1  0  0  0
 47120  1  0  0  0
 48 56  1  0  0  0
 48 65  1  0  0  0
 48121  1  0  0  0
 49 50  1  0  0  0
 49 53  1  0  0  0
 49 64  1  0  0  0
 49122  1  0  0  0
 50 51  1  0  0  0
 50123  1  0  0  0
 50124  1  0  0  0
 51 52  1  0  0  0
 51125  1  0  0  0
 51126  1  0  0  0
 52127  1  0  0  0
 52128  1  0  0  0
 53 54  1  0  0  0
 54 55  2  0  0  0
 54129  1  0  0  0
 55 57  1  0  0  0
 55130  1  0  0  0
 56 69  2  0  0  0
 57 58  2  0  0  0
 57131  1  0  0  0
 58132  1  0  0  0
 59 60  1  0  0  0
 59 61  1  0  0  0
 59 62  1  0  0  0
 60133  1  0  0  0
 60134  1  0  0  0
 60135  1  0  0  0
 61136  1  0  0  0
 61137  1  0  0  0
 61138  1  0  0  0
 62139  1  0  0  0
 62140  1  0  0  0
 62141  1  0  0  0
 63 65  1  0  0  0
 63142  1  0  0  0
 63143  1  0  0  0
 63144  1  0  0  0
 64145  1  0  0  0
 65146  1  0  0  0
 68 84  1  0  0  0
 71 73  2  0  0  0
 71 74  1  0  0  0
 71147  1  0  0  0
 72 75  2  0  0  0
 72 76  1  0  0  0
 72148  1  0  0  0
 73 75  1  0  0  0
 73 81  1  0  0  0
 74 76  2  0  0  0
 74 84  1  0  0  0
 75 83  1  0  0  0
 76 87  1  0  0  0
 77 79  1  0  0  0
 77 85  1  0  0  0
 77149  1  0  0  0
 77150  1  0  0  0
 78 80  1  0  0  0
 78 85  1  0  0  0
 78151  1  0  0  0
 78152  1  0  0  0
 79 86  1  0  0  0
 79153  1  0  0  0
 79154  1  0  0  0
 80 86  1  0  0  0
 80155  1  0  0  0
 80156  1  0  0  0
 81157  1  0  0  0
 81158  1  0  0  0
 81159  1  0  0  0
 82 87  1  0  0  0
 82160  1  0  0  0
 82161  1  0  0  0
 82162  1  0  0  0
 83163  1  0  0  0
 83164  1  0  0  0
 83 86  1  0  0  0
 84165  1  0  0  0
 84166  1  0  0  0
 86167  1  0  0  0
M  CHG  1  86   1
M  ISO  4   1 100  68 101  84 101  85 100
M  END
> <chiral flag>
0

> <version>
0

> <s_m_source_file>
/data/baiqing/PycharmProjects/Reinvent-master-3.2/result/LINK_invent/BTK/process_docking_weight1_custom_sum_contain_oxygen_bond_distance_aromatic_linkinvent_7_9_3/rearranged_h_0157.sdf

> <i_m_source_file_index>
62

> <r_mmod_Potential_Energy-OPLS-2005>
145.715118408203

> <r_mmod_Stretch_Energy-OPLS-2005>
60.0187072753906

> <r_mmod_Bend_Energy-OPLS-2005>
126.461227416992

> <r_mmod_Torsional_Energy-OPLS-2005>
425.610778808594

> <r_mmod_Improper_Torsional_Energy-OPLS-2005>
16.2517871856689

> <r_mmod_Van_der_Waal_Energy-OPLS-2005>
147.565536499023

> <r_mmod_Electrostatic_Energy-OPLS-2005>
-220.59211730957

> <r_mmod_Solvation_Energy-OPLS-2005>
-443.951904296875

> <b_mmod_Minimization_Converged-OPLS-2005>
0

> <r_mmod_RMS_Derivative-OPLS-2005>
1.07456922531128

$$$$
62
                    3D
 Structure written by MMmdl.
174183  0  0  1  0            999 V2000
  -30.5769  -14.8651   20.4653 C   0  0  0  0  0  0
  -30.4376  -12.5506   19.4711 C   0  0  0  0  0  0
  -29.5111  -12.5624   18.2341 C   0  0  0  0  0  0
  -28.0449  -12.3492   18.6550 C   0  0  0  0  0  0
  -27.6404  -13.2423   19.8589 C   0  0  2  0  0  0
  -28.6899  -13.2144   20.9911 C   0  0  0  0  0  0
  -25.2504  -13.8191   20.5753 C   0  0  0  0  0  0
  -24.1796  -13.0391   20.9192 C   0  0  0  0  0  0
  -24.6440  -11.6886   20.8742 C   0  0  0  0  0  0
  -23.9115  -10.4262   21.0409 C   0  0  0  0  0  0
  -24.3676   -9.4175   21.9203 C   0  0  0  0  0  0
  -23.6325   -8.2226   22.0791 C   0  0  0  0  0  0
  -22.4322   -8.0269   21.3558 C   0  0  0  0  0  0
  -21.9948   -9.0259   20.4681 C   0  0  0  0  0  0
  -22.7281  -10.2127   20.3074 C   0  0  0  0  0  0
  -21.6821   -6.0733   22.5297 C   0  0  0  0  0  0
  -21.3989   -6.5652   23.8220 C   0  0  0  0  0  0
  -21.3667   -5.6808   24.9192 C   0  0  0  0  0  0
  -21.6047   -4.3071   24.7238 C   0  0  0  0  0  0
  -21.8797   -3.8155   23.4361 C   0  0  0  0  0  0
  -21.9187   -4.6970   22.3408 C   0  0  0  0  0  0
  -22.7845  -13.5232   21.1780 C   0  0  0  0  0  0
  -22.1652   -4.2161   21.0974 F   0  0  0  0  0  0
  -21.5647   -3.4551   25.7747 F   0  0  0  0  0  0
  -29.9639  -13.6198   20.3937 N   0  0  0  0  0  0
  -26.2960  -12.9422   20.3381 N   0  0  0  0  0  0
  -25.9400  -11.6534   20.5778 N   0  0  0  0  0  0
  -22.0487  -12.8276   22.0374 N   0  0  0  0  0  0
  -25.4110  -15.1909   20.4239 N   0  0  0  0  0  0
  -31.7754  -14.9160   20.1634 O   0  0  0  0  0  0
  -21.6639   -6.8902   21.4268 O   0  0  0  0  0  0
  -22.3571  -14.5534   20.6636 O   0  0  0  0  0  0
  -24.6385  -31.8552   23.1891 C   0  0  0  0  0  0
  -25.9139  -32.4761   23.8278 C   0  0  1  0  0  0
  -27.2246  -27.1648   20.1742 C   0  0  0  0  0  0
  -25.5881  -33.8536   24.2287 N   0  0  0  0  0  0
  -23.4439  -30.4698   21.5325 C   0  0  2  0  0  0
  -24.8953  -28.8950   20.1075 C   0  0  0  0  0  0
  -22.7546  -29.4640   22.4872 C   0  0  0  0  0  0
  -18.0311  -28.1386   22.8524 C   0  0  0  0  0  0
  -24.1509  -36.7248   23.2654 C   0  0  0  0  0  0
  -25.9950  -30.7305   21.3908 C   0  0  0  0  0  0
  -26.0636  -29.3410   20.7386 C   0  0  0  0  0  0
  -27.2245  -28.4898   20.7562 C   0  0  0  0  0  0
  -26.0361  -26.8200   19.4826 C   0  0  0  0  0  0
  -24.8941  -27.6507   19.4568 C   0  0  0  0  0  0
  -23.6662  -29.7836   20.1590 C   0  0  0  0  0  0
  -25.4127  -36.3098   24.0396 C   0  0  1  0  0  0
  -20.5925  -28.3784   23.1197 C   0  0  2  0  0  0
  -20.6757  -26.9498   22.5367 C   0  0  0  0  0  0
  -19.5747  -26.6430   21.5162 C   0  0  0  0  0  0
  -18.1952  -26.7925   22.1613 C   0  0  0  0  0  0
  -19.1559  -28.8888   23.2869 C   0  0  0  0  0  0
  -18.9487  -30.1427   23.8995 C   0  0  0  0  0  0
  -17.6490  -30.6603   24.0575 C   0  0  0  0  0  0
  -25.9050  -34.9440   23.5177 C   0  0  0  0  0  0
  -16.5388  -29.9129   23.6287 C   0  0  0  0  0  0
  -16.7306  -28.6465   23.0479 C   0  0  0  0  0  0
  -26.4502  -31.6516   25.0636 C   0  0  0  0  0  0
  -25.3671  -31.3648   26.1331 C   0  0  0  0  0  0
  -27.0344  -30.2941   24.6036 C   0  0  0  0  0  0
  -27.6099  -32.4195   25.7364 C   0  0  0  0  0  0
  -27.5618  -37.1796   24.8501 C   0  0  0  0  0  0
  -21.4247  -29.3114   22.3536 N   0  0  0  0  0  0
  -26.4343  -37.3784   23.9441 N   0  0  0  0  0  0
  -24.7119  -31.0407   22.0913 N   0  0  0  0  0  0
  -23.4119  -28.8232   23.3111 O   0  0  0  0  0  0
  -28.3067  -26.2237   20.3030 O   0  0  0  0  0  0
  -26.5678  -34.8907   22.4765 O   0  0  0  0  0  0
  -23.5501  -32.1456   23.7074 O   0  0  0  0  0  0
  -27.5496  -21.6085   18.2343 C   0  0  0  0  0  0
  -28.8782  -21.3504   17.8067 C   0  0  0  0  0  0
  -27.3003  -21.7866   19.6097 C   0  0  0  0  0  0
  -29.8419  -20.9432   18.7809 C   0  0  0  0  0  0
  -28.4356  -21.8453   20.4346 C   0  0  0  0  0  0
  -29.3815  -20.7556   20.1081 C   0  0  0  0  0  0
  -28.8293  -18.2855   19.4517 C   0  0  0  0  0  0
  -30.0057  -18.5951   21.5154 C   0  0  0  0  0  0
  -29.7515  -16.9767   19.3375 C   0  0  0  0  0  0
  -29.7170  -16.9982   21.7010 C   0  0  0  0  0  0
  -29.1830  -21.4277   16.3220 C   0  0  0  0  0  0
  -25.9194  -22.1069   20.1336 C   0  0  0  0  0  0
  -31.6533  -19.6558   17.3920 C   0  0  0  0  0  0
  -30.3451  -23.5297   20.9993 C   0  0  0  0  0  0
  -31.3141  -20.6861   18.4776 C   0  0  0  0  0  0
  -28.2309  -24.7209   19.9301 C   0  0  0  0  0  0
  -28.8208  -23.4032   20.7952 C   0  0  1  0  0  0
  -29.2346  -19.3108   20.4572 N   0  0  0  0  0  0
  -29.8099  -16.0601   20.5189 N   0  0  0  0  0  0
  -31.4696  -12.7115   19.1509 H   0  0  0  0  0  0
  -30.4362  -11.5805   19.9669 H   0  0  0  0  0  0
  -29.8143  -11.8026   17.5165 H   0  0  0  0  0  0
  -29.6045  -13.5205   17.7200 H   0  0  0  0  0  0
  -27.9267  -11.2955   18.9157 H   0  0  0  0  0  0
  -27.3921  -12.5446   17.8033 H   0  0  0  0  0  0
  -27.6230  -14.2668   19.4837 H   0  0  0  0  0  0
  -28.7634  -12.2277   21.4567 H   0  0  0  0  0  0
  -28.4164  -13.9068   21.7874 H   0  0  0  0  0  0
  -25.2817   -9.5624   22.4810 H   0  0  0  0  0  0
  -23.9985   -7.4604   22.7542 H   0  0  0  0  0  0
  -21.0865   -8.8814   19.9021 H   0  0  0  0  0  0
  -22.3729  -10.9717   19.6217 H   0  0  0  0  0  0
  -21.1954   -7.6154   23.9731 H   0  0  0  0  0  0
  -21.1526   -6.0536   25.9082 H   0  0  0  0  0  0
  -22.0570   -2.7627   23.2858 H   0  0  0  0  0  0
  -22.4125  -11.9978   22.4802 H   0  0  0  0  0  0
  -21.1135  -13.1381   22.2567 H   0  0  0  0  0  0
  -24.6333  -15.8329   20.5453 H   0  0  0  0  0  0
  -26.2690  -15.6523   20.1438 H   0  0  0  0  0  0
  -26.7140  -32.5445   23.0948 H   0  0  0  0  0  0
  -24.9886  -33.9602   25.0347 H   0  0  0  0  0  0
  -22.7476  -31.2978   21.3703 H   0  0  0  0  0  0
  -23.3810  -35.9530   23.3316 H   0  0  0  0  0  0
  -24.3633  -36.8851   22.2066 H   0  0  0  0  0  0
  -23.7154  -37.6429   23.6610 H   0  0  0  0  0  0
  -26.1382  -31.4816   20.6112 H   0  0  0  0  0  0
  -26.8739  -30.7925   22.0206 H   0  0  0  0  0  0
  -28.1118  -28.8335   21.2698 H   0  0  0  0  0  0
  -25.9295  -25.8726   18.9784 H   0  0  0  0  0  0
  -23.9987  -27.3069   18.9529 H   0  0  0  0  0  0
  -23.7698  -30.5504   19.3895 H   0  0  0  0  0  0
  -22.7916  -29.1920   19.8743 H   0  0  0  0  0  0
  -25.1256  -36.2045   25.0899 H   0  0  0  0  0  0
  -21.0044  -28.3442   24.1304 H   0  0  0  0  0  0
  -20.5591  -26.2502   23.3659 H   0  0  0  0  0  0
  -21.6647  -26.7463   22.1233 H   0  0  0  0  0  0
  -19.6965  -25.6338   21.1232 H   0  0  0  0  0  0
  -19.6636  -27.3202   20.6658 H   0  0  0  0  0  0
  -17.4221  -26.6751   21.4010 H   0  0  0  0  0  0
  -18.0347  -26.0012   22.8958 H   0  0  0  0  0  0
  -19.7980  -30.7152   24.2507 H   0  0  0  0  0  0
  -17.5094  -31.6298   24.5143 H   0  0  0  0  0  0
  -15.5416  -30.3114   23.7465 H   0  0  0  0  0  0
  -15.8704  -28.0693   22.7374 H   0  0  0  0  0  0
  -24.5920  -30.6898   25.7671 H   0  0  0  0  0  0
  -24.8727  -32.2795   26.4590 H   0  0  0  0  0  0
  -25.7957  -30.8969   27.0200 H   0  0  0  0  0  0
  -26.2967  -29.6776   24.0874 H   0  0  0  0  0  0
  -27.3932  -29.7058   25.4486 H   0  0  0  0  0  0
  -27.8857  -30.4279   23.9349 H   0  0  0  0  0  0
  -27.2778  -33.3557   26.1804 H   0  0  0  0  0  0
  -28.3910  -32.6611   25.0154 H   0  0  0  0  0  0
  -28.0698  -31.8355   26.5351 H   0  0  0  0  0  0
  -28.2657  -38.0088   24.7580 H   0  0  0  0  0  0
  -28.1110  -36.2619   24.6282 H   0  0  0  0  0  0
  -27.2360  -37.1388   25.8923 H   0  0  0  0  0  0
  -20.9514  -29.8771   21.6631 H   0  0  0  0  0  0
  -26.0276  -38.2899   24.1381 H   0  0  0  0  0  0
  -26.7602  -21.7692   17.5153 H   0  0  0  0  0  0
  -27.8097  -17.9874   19.6875 H   0  0  0  0  0  0
  -28.7431  -18.7312   18.4658 H   0  0  0  0  0  0
  -31.0733  -18.7478   21.3357 H   0  0  0  0  0  0
  -29.7923  -19.0946   22.4657 H   0  0  0  0  0  0
  -30.7817  -17.2593   19.1140 H   0  0  0  0  0  0
  -29.4156  -16.4047   18.4721 H   0  0  0  0  0  0
  -28.6968  -16.8876   22.0750 H   0  0  0  0  0  0
  -30.3402  -16.6159   22.5058 H   0  0  0  0  0  0
  -29.1885  -20.4316   15.8823 H   0  0  0  0  0  0
  -30.1463  -21.8930   16.1280 H   0  0  0  0  0  0
  -28.4319  -22.0219   15.8029 H   0  0  0  0  0  0
  -25.2388  -21.2946   19.8690 H   0  0  0  0  0  0
  -25.5191  -23.0390   19.7371 H   0  0  0  0  0  0
  -25.9492  -22.1849   21.2201 H   0  0  0  0  0  0
  -32.7285  -19.4908   17.3827 H   0  0  0  0  0  0
  -31.3788  -19.9647   16.3858 H   0  0  0  0  0  0
  -31.1761  -18.6996   17.5821 H   0  0  0  0  0  0
  -30.6736  -22.9310   21.8492 H   0  0  0  0  0  0
  -30.6512  -24.5579   21.2053 H   0  0  0  0  0  0
  -30.9069  -23.1958   20.1294 H   0  0  0  0  0  0
  -31.7862  -20.3547   19.4034 H   0  0  0  0  0  0
  -31.7632  -21.6478   18.2396 H   0  0  0  0  0  0
  -27.1938  -24.4840   19.7319 H   0  0  0  0  0  0
  -28.7147  -24.6758   18.9498 H   0  0  0  0  0  0
  -28.3967  -23.5109   21.7952 H   0  0  0  0  0  0
  1 25  1  0  0  0
  1 30  2  0  0  0
  1 89  1  0  0  0
  2  3  1  0  0  0
  2 25  1  0  0  0
  2 90  1  0  0  0
  2 91  1  0  0  0
  3  4  1  0  0  0
  3 92  1  0  0  0
  3 93  1  0  0  0
  4  5  1  0  0  0
  4 94  1  0  0  0
  4 95  1  0  0  0
  5  6  1  0  0  0
  5 26  1  0  0  0
  5 96  1  0  0  0
  6 25  1  0  0  0
  6 97  1  0  0  0
  6 98  1  0  0  0
  7  8  2  0  0  0
  7 26  1  0  0  0
  7 29  1  0  0  0
  8  9  1  0  0  0
  8 22  1  0  0  0
  9 10  1  0  0  0
  9 27  2  0  0  0
 10 11  2  0  0  0
 10 15  1  0  0  0
 11 12  1  0  0  0
 11 99  1  0  0  0
 12 13  2  0  0  0
 12100  1  0  0  0
 13 14  1  0  0  0
 13 31  1  0  0  0
 14 15  2  0  0  0
 14101  1  0  0  0
 15102  1  0  0  0
 16 17  2  0  0  0
 16 21  1  0  0  0
 16 31  1  0  0  0
 17 18  1  0  0  0
 17103  1  0  0  0
 18 19  2  0  0  0
 18104  1  0  0  0
 19 20  1  0  0  0
 19 24  1  0  0  0
 20 21  2  0  0  0
 20105  1  0  0  0
 21 23  1  0  0  0
 22 28  1  0  0  0
 22 32  2  0  0  0
 26 27  1  0  0  0
 28106  1  0  0  0
 28107  1  0  0  0
 29108  1  0  0  0
 29109  1  0  0  0
 33 34  1  0  0  0
 33 66  1  0  0  0
 33 70  2  0  0  0
 34 36  1  0  0  0
 34 59  1  0  0  0
 34110  1  0  0  0
 35 44  2  0  0  0
 35 45  1  0  0  0
 35 68  1  0  0  0
 36 56  1  0  0  0
 36111  1  0  0  0
 37 39  1  0  0  0
 37 47  1  0  0  0
 37 66  1  0  0  0
 37112  1  0  0  0
 38 43  2  0  0  0
 38 46  1  0  0  0
 38 47  1  0  0  0
 39 64  1  0  0  0
 39 67  2  0  0  0
 40 52  1  0  0  0
 40 53  2  0  0  0
 40 58  1  0  0  0
 41113  1  0  0  0
 41114  1  0  0  0
 41115  1  0  0  0
 41 48  1  0  0  0
 42 43  1  0  0  0
 42 66  1  0  0  0
 42116  1  0  0  0
 42117  1  0  0  0
 43 44  1  0  0  0
 44118  1  0  0  0
 45 46  2  0  0  0
 45119  1  0  0  0
 46120  1  0  0  0
 47121  1  0  0  0
 47122  1  0  0  0
 48 56  1  0  0  0
 48 65  1  0  0  0
 48123  1  0  0  0
 49 50  1  0  0  0
 49 53  1  0  0  0
 49 64  1  0  0  0
 49124  1  0  0  0
 50 51  1  0  0  0
 50125  1  0  0  0
 50126  1  0  0  0
 51 52  1  0  0  0
 51127  1  0  0  0
 51128  1  0  0  0
 52129  1  0  0  0
 52130  1  0  0  0
 53 54  1  0  0  0
 54 55  2  0  0  0
 54131  1  0  0  0
 55 57  1  0  0  0
 55132  1  0  0  0
 56 69  2  0  0  0
 57 58  2  0  0  0
 57133  1  0  0  0
 58134  1  0  0  0
 59 60  1  0  0  0
 59 61  1  0  0  0
 59 62  1  0  0  0
 60135  1  0  0  0
 60136  1  0  0  0
 60137  1  0  0  0
 61138  1  0  0  0
 61139  1  0  0  0
 61140  1  0  0  0
 62141  1  0  0  0
 62142  1  0  0  0
 62143  1  0  0  0
 63 65  1  0  0  0
 63144  1  0  0  0
 63145  1  0  0  0
 63146  1  0  0  0
 64147  1  0  0  0
 65148  1  0  0  0
 68 86  1  0  0  0
 71 72  2  0  0  0
 71 73  1  0  0  0
 71149  1  0  0  0
 72 74  1  0  0  0
 72 81  1  0  0  0
 73 75  2  0  0  0
 73 82  1  0  0  0
 74 76  2  0  0  0
 74 85  1  0  0  0
 75 76  1  0  0  0
 75 87  1  0  0  0
 76 88  1  0  0  0
 77 79  1  0  0  0
 77 88  1  0  0  0
 77150  1  0  0  0
 77151  1  0  0  0
 78 80  1  0  0  0
 78 88  1  0  0  0
 78152  1  0  0  0
 78153  1  0  0  0
 79 89  1  0  0  0
 79154  1  0  0  0
 79155  1  0  0  0
 80 89  1  0  0  0
 80156  1  0  0  0
 80157  1  0  0  0
 81158  1  0  0  0
 81159  1  0  0  0
 81160  1  0  0  0
 82161  1  0  0  0
 82162  1  0  0  0
 82163  1  0  0  0
 83 85  1  0  0  0
 83164  1  0  0  0
 83165  1  0  0  0
 83166  1  0  0  0
 84167  1  0  0  0
 84168  1  0  0  0
 84169  1  0  0  0
 84 87  1  0  0  0
 85170  1  0  0  0
 85171  1  0  0  0
 86 87  1  0  0  0
 86172  1  0  0  0
 86173  1  0  0  0
 87174  1  0  0  0
M  ISO  4   1 100  68 101  86 101  89 100
M  END
> <chiral flag>
0

> <version>
0

> <s_m_source_file>
/data/baiqing/PycharmProjects/Reinvent-master-3.2/result/LINK_invent/BTK/process_docking_weight1_custom_sum_contain_oxygen_bond_distance_aromatic_linkinvent_7_9_3/rearranged_h_0157.sdf

> <i_m_source_file_index>
63

> <r_mmod_Potential_Energy-OPLS-2005>
946.754455566406

> <r_mmod_Stretch_Energy-OPLS-2005>
219.698989868164

> <r_mmod_Bend_Energy-OPLS-2005>
281.8095703125

> <r_mmod_Torsional_Energy-OPLS-2005>
646.166687011719

> <r_mmod_Improper_Torsional_Energy-OPLS-2005>
45.752311706543

> <r_mmod_Van_der_Waal_Energy-OPLS-2005>
152.340118408203

> <r_mmod_Electrostatic_Energy-OPLS-2005>
-346.141235351562

> <r_mmod_Solvation_Energy-OPLS-2005>
-202.170379638672

> <b_mmod_Minimization_Converged-OPLS-2005>
0

> <r_mmod_RMS_Derivative-OPLS-2005>
8.0731201171875

$$$$
63
                    3D
 Structure written by MMmdl.
160168  0  0  1  0            999 V2000
  -30.5291  -14.9310   20.1523 C   0  0  0  0  0  0
  -30.4280  -12.6692   19.1456 C   0  0  0  0  0  0
  -29.4163  -12.4919   18.0067 C   0  0  0  0  0  0
  -27.9211  -12.6009   18.5011 C   0  0  0  0  0  0
  -27.6538  -13.2938   19.8996 C   0  0  2  0  0  0
  -28.7846  -13.2089   20.9129 C   0  0  0  0  0  0
  -25.2542  -13.8579   20.6346 C   0  0  0  0  0  0
  -24.1614  -13.0746   20.9655 C   0  0  0  0  0  0
  -24.6566  -11.7605   20.9817 C   0  0  0  0  0  0
  -23.9161  -10.4800   21.0805 C   0  0  0  0  0  0
  -24.3572   -9.4509   21.9217 C   0  0  0  0  0  0
  -23.6048   -8.2671   22.0593 C   0  0  0  0  0  0
  -22.4112   -8.0655   21.3338 C   0  0  0  0  0  0
  -22.0179   -9.0665   20.4334 C   0  0  0  0  0  0
  -22.7596  -10.2659   20.3232 C   0  0  0  0  0  0
  -21.6756   -6.1148   22.5372 C   0  0  0  0  0  0
  -21.4005   -6.5914   23.8412 C   0  0  0  0  0  0
  -21.3369   -5.6955   24.9197 C   0  0  0  0  0  0
  -21.5964   -4.3232   24.7171 C   0  0  0  0  0  0
  -21.8745   -3.8528   23.4261 C   0  0  0  0  0  0
  -21.9187   -4.7413   22.3366 C   0  0  0  0  0  0
  -22.7403  -13.5439   21.1660 C   0  0  0  0  0  0
  -22.1641   -4.2659   21.0970 F   0  0  0  0  0  0
  -21.5733   -3.4576   25.7451 F   0  0  0  0  0  0
  -29.9321  -13.6783   20.1078 N   0  0  0  0  0  0
  -26.3177  -12.9822   20.4753 N   0  0  0  0  0  0
  -25.9534  -11.7116   20.7200 N   0  0  0  0  0  0
  -22.0473  -12.8090   22.0242 N   0  0  0  0  0  0
  -25.4121  -15.2201   20.4053 N   0  0  0  0  0  0
  -31.7277  -14.9906   20.4178 O   0  0  0  0  0  0
  -21.6506   -6.9316   21.4215 O   0  0  0  0  0  0
  -22.2806  -14.5564   20.6563 O   0  0  0  0  0  0
  -24.6210  -31.8782   23.2261 C   0  0  0  0  0  0
  -25.9156  -32.4876   23.8465 C   0  0  1  0  0  0
  -27.2089  -27.4072   20.0223 C   0  0  0  0  0  0
  -25.6004  -33.8656   24.2392 N   0  0  0  0  0  0
  -23.3920  -30.5365   21.5641 C   0  0  2  0  0  0
  -24.8285  -29.0027   20.1133 C   0  0  0  0  0  0
  -22.7298  -29.4876   22.4896 C   0  0  0  0  0  0
  -18.0300  -28.1371   22.8494 C   0  0  0  0  0  0
  -24.1509  -36.7330   23.2616 C   0  0  0  0  0  0
  -25.9416  -30.8400   21.3802 C   0  0  0  0  0  0
  -26.0117  -29.4726   20.7142 C   0  0  0  0  0  0
  -27.1939  -28.6743   20.6899 C   0  0  0  0  0  0
  -25.9786  -26.9752   19.4539 C   0  0  0  0  0  0
  -24.8147  -27.7430   19.5035 C   0  0  0  0  0  0
  -23.5990  -29.8981   20.1738 C   0  0  0  0  0  0
  -25.4130  -36.3148   24.0334 C   0  0  1  0  0  0
  -20.5918  -28.3738   23.1209 C   0  0  2  0  0  0
  -20.6796  -26.9488   22.5310 C   0  0  0  0  0  0
  -19.5720  -26.6416   21.5136 C   0  0  0  0  0  0
  -18.1953  -26.7918   22.1609 C   0  0  0  0  0  0
  -19.1575  -28.8854   23.2884 C   0  0  0  0  0  0
  -18.9486  -30.1463   23.8919 C   0  0  0  0  0  0
  -17.6482  -30.6585   24.0607 C   0  0  0  0  0  0
  -25.9053  -34.9483   23.5105 C   0  0  0  0  0  0
  -16.5371  -29.9114   23.6311 C   0  0  0  0  0  0
  -16.7296  -28.6521   23.0354 C   0  0  0  0  0  0
  -26.4538  -31.6557   25.0760 C   0  0  0  0  0  0
  -25.3772  -31.3735   26.1522 C   0  0  0  0  0  0
  -27.0373  -30.2925   24.6175 C   0  0  0  0  0  0
  -27.6094  -32.4256   25.7546 C   0  0  0  0  0  0
  -27.5563  -37.1818   24.8450 C   0  0  0  0  0  0
  -21.4054  -29.3193   22.3580 N   0  0  0  0  0  0
  -26.4303  -37.3823   23.9397 N   0  0  0  0  0  0
  -24.6732  -31.0950   22.1120 N   0  0  0  0  0  0
  -23.4047  -28.8410   23.2995 O   0  0  0  0  0  0
  -28.3622  -26.5902   19.9217 O   0  0  0  0  0  0
  -26.5535  -34.8896   22.4604 O   0  0  0  0  0  0
  -23.5373  -32.1590   23.7586 O   0  0  0  0  0  0
  -28.5711  -18.1683   16.4444 C   0  0  0  0  0  0
  -28.5742  -20.5167   16.7402 C   0  0  0  0  0  0
  -28.4013  -19.4483   15.8839 C   0  0  0  0  0  0
  -29.0134  -17.9998   17.8150 C   0  0  0  0  0  0
  -28.9970  -20.3504   18.0751 C   0  0  0  0  0  0
  -29.6447  -15.6564   17.2112 C   0  0  0  0  0  0
  -27.6680  -20.8419   13.9696 C   0  0  0  0  0  0
  -29.2702  -24.1120   19.1877 C   0  0  0  0  0  0
  -28.1955  -25.2818   19.2226 C   0  0  0  0  0  0
  -28.7721  -22.8312   18.4303 C   0  0  0  0  0  0
  -29.1917  -16.5311   18.3880 C   0  0  2  0  0  0
  -29.2608  -19.0941   18.5923 N   0  0  0  0  0  0
  -29.8489  -16.1017   19.7337 N   0  0  0  0  0  0
  -28.1292  -19.5727   14.5235 O   0  0  0  0  0  0
  -29.2140  -21.4837   18.8908 O   0  0  0  0  0  0
  -31.3228  -13.0827   18.6156 H   0  0  0  0  0  0
  -30.6696  -11.6972   19.5734 H   0  0  0  0  0  0
  -29.5596  -11.5441   17.4761 H   0  0  0  0  0  0
  -29.7138  -13.1606   17.1885 H   0  0  0  0  0  0
  -27.4599  -11.6004   18.4065 H   0  0  0  0  0  0
  -27.4103  -13.3330   17.8558 H   0  0  0  0  0  0
  -27.6237  -14.3357   19.6924 H   0  0  0  0  0  0
  -28.8645  -12.1955   21.2864 H   0  0  0  0  0  0
  -28.5341  -13.7996   21.8054 H   0  0  0  0  0  0
  -25.3034   -9.5755   22.4204 H   0  0  0  0  0  0
  -24.0047   -7.5231   22.7459 H   0  0  0  0  0  0
  -21.1572   -8.9143   19.7906 H   0  0  0  0  0  0
  -22.4555  -10.9988   19.5902 H   0  0  0  0  0  0
  -21.2144   -7.6521   24.0237 H   0  0  0  0  0  0
  -21.1086   -6.0753   25.9039 H   0  0  0  0  0  0
  -22.0723   -2.7959   23.2610 H   0  0  0  0  0  0
  -22.5107  -11.9946   22.3701 H   0  0  0  0  0  0
  -21.1079  -13.0216   22.3484 H   0  0  0  0  0  0
  -24.6781  -15.9337   20.4279 H   0  0  0  0  0  0
  -26.3257  -15.6101   20.1799 H   0  0  0  0  0  0
  -26.7272  -32.5570   23.1248 H   0  0  0  0  0  0
  -25.0367  -33.9907   25.0634 H   0  0  0  0  0  0
  -22.6928  -31.3662   21.4437 H   0  0  0  0  0  0
  -23.3765  -35.9661   23.3290 H   0  0  0  0  0  0
  -24.3644  -36.8921   22.2045 H   0  0  0  0  0  0
  -23.7296  -37.6517   23.6624 H   0  0  0  0  0  0
  -26.0411  -31.6309   20.6368 H   0  0  0  0  0  0
  -26.8206  -30.8810   22.0102 H   0  0  0  0  0  0
  -28.0836  -29.0387   21.1721 H   0  0  0  0  0  0
  -25.8651  -26.0318   18.9430 H   0  0  0  0  0  0
  -23.9152  -27.3618   19.0658 H   0  0  0  0  0  0
  -23.7000  -30.6920   19.4385 H   0  0  0  0  0  0
  -22.7101  -29.3539   19.8579 H   0  0  0  0  0  0
  -25.1304  -36.1990   25.0830 H   0  0  0  0  0  0
  -21.0134  -28.3404   24.1261 H   0  0  0  0  0  0
  -20.5687  -26.2442   23.3562 H   0  0  0  0  0  0
  -21.6693  -26.7528   22.1122 H   0  0  0  0  0  0
  -19.6918  -25.6331   21.1206 H   0  0  0  0  0  0
  -19.6607  -27.3230   20.6672 H   0  0  0  0  0  0
  -17.4205  -26.6688   21.4067 H   0  0  0  0  0  0
  -18.0393  -26.0060   22.8992 H   0  0  0  0  0  0
  -19.7995  -30.7268   24.2281 H   0  0  0  0  0  0
  -17.5075  -31.6279   24.5225 H   0  0  0  0  0  0
  -15.5403  -30.3026   23.7622 H   0  0  0  0  0  0
  -15.8697  -28.0853   22.6999 H   0  0  0  0  0  0
  -24.5923  -30.7127   25.7872 H   0  0  0  0  0  0
  -24.9060  -32.2961   26.4841 H   0  0  0  0  0  0
  -25.8123  -30.8974   27.0292 H   0  0  0  0  0  0
  -26.2959  -29.6633   24.1302 H   0  0  0  0  0  0
  -27.4126  -29.7234   25.4669 H   0  0  0  0  0  0
  -27.8774  -30.4134   23.9366 H   0  0  0  0  0  0
  -27.2643  -33.3461   26.2171 H   0  0  0  0  0  0
  -28.3857  -32.6894   25.0398 H   0  0  0  0  0  0
  -28.0748  -31.8357   26.5413 H   0  0  0  0  0  0
  -28.2584  -38.0110   24.7495 H   0  0  0  0  0  0
  -28.1050  -36.2629   24.6288 H   0  0  0  0  0  0
  -27.2257  -37.1474   25.8841 H   0  0  0  0  0  0
  -20.9126  -29.9010   21.6888 H   0  0  0  0  0  0
  -26.0167  -38.2865   24.1396 H   0  0  0  0  0  0
  -28.3526  -17.3775   15.7223 H   0  0  0  0  0  0
  -28.4187  -21.4816   16.3069 H   0  0  0  0  0  0
  -28.9761  -14.8673   17.3603 H   0  0  0  0  0  0
  -30.6764  -15.3530   17.2392 H   0  0  0  0  0  0
  -29.3488  -15.8237   16.1660 H   0  0  0  0  0  0
  -26.6095  -20.9689   14.2502 H   0  0  0  0  0  0
  -27.6433  -20.8497   12.8764 H   0  0  0  0  0  0
  -28.2478  -21.7372   14.2641 H   0  0  0  0  0  0
  -29.5142  -23.8858   20.2114 H   0  0  0  0  0  0
  -30.1912  -24.4697   18.7216 H   0  0  0  0  0  0
  -27.3412  -24.8132   19.7160 H   0  0  0  0  0  0
  -27.8946  -25.4850   18.1877 H   0  0  0  0  0  0
  -27.6804  -22.8165   18.4392 H   0  0  0  0  0  0
  -29.0058  -23.0492   17.3896 H   0  0  0  0  0  0
  -28.1555  -16.2503   18.5996 H   0  0  0  0  0  0
  -30.2886  -16.9072   20.1959 H   0  0  0  0  0  0
  1 25  1  0  0  0
  1 30  2  0  0  0
  1 83  1  0  0  0
  2  3  1  0  0  0
  2 25  1  0  0  0
  2 86  1  0  0  0
  2 87  1  0  0  0
  3  4  1  0  0  0
  3 88  1  0  0  0
  3 89  1  0  0  0
  4  5  1  0  0  0
  4 90  1  0  0  0
  4 91  1  0  0  0
  5  6  1  0  0  0
  5 26  1  0  0  0
  5 92  1  0  0  0
  6 25  1  0  0  0
  6 93  1  0  0  0
  6 94  1  0  0  0
  7  8  2  0  0  0
  7 26  1  0  0  0
  7 29  1  0  0  0
  8  9  1  0  0  0
  8 22  1  0  0  0
  9 10  1  0  0  0
  9 27  2  0  0  0
 10 11  2  0  0  0
 10 15  1  0  0  0
 11 12  1  0  0  0
 11 95  1  0  0  0
 12 13  2  0  0  0
 12 96  1  0  0  0
 13 14  1  0  0  0
 13 31  1  0  0  0
 14 15  2  0  0  0
 14 97  1  0  0  0
 15 98  1  0  0  0
 16 17  2  0  0  0
 16 21  1  0  0  0
 16 31  1  0  0  0
 17 18  1  0  0  0
 17 99  1  0  0  0
 18 19  2  0  0  0
 18100  1  0  0  0
 19 20  1  0  0  0
 19 24  1  0  0  0
 20 21  2  0  0  0
 20101  1  0  0  0
 21 23  1  0  0  0
 22 28  1  0  0  0
 22 32  2  0  0  0
 26 27  1  0  0  0
 28102  1  0  0  0
 28103  1  0  0  0
 29104  1  0  0  0
 29105  1  0  0  0
 33 34  1  0  0  0
 33 66  1  0  0  0
 33 70  2  0  0  0
 34 36  1  0  0  0
 34 59  1  0  0  0
 34106  1  0  0  0
 35 44  2  0  0  0
 35 45  1  0  0  0
 35 68  1  0  0  0
 36 56  1  0  0  0
 36107  1  0  0  0
 37 39  1  0  0  0
 37 47  1  0  0  0
 37 66  1  0  0  0
 37108  1  0  0  0
 38 43  2  0  0  0
 38 46  1  0  0  0
 38 47  1  0  0  0
 39 64  1  0  0  0
 39 67  2  0  0  0
 40 52  1  0  0  0
 40 53  2  0  0  0
 40 58  1  0  0  0
 41109  1  0  0  0
 41110  1  0  0  0
 41111  1  0  0  0
 41 48  1  0  0  0
 42 43  1  0  0  0
 42 66  1  0  0  0
 42112  1  0  0  0
 42113  1  0  0  0
 43 44  1  0  0  0
 44114  1  0  0  0
 45 46  2  0  0  0
 45115  1  0  0  0
 46116  1  0  0  0
 47117  1  0  0  0
 47118  1  0  0  0
 48 56  1  0  0  0
 48 65  1  0  0  0
 48119  1  0  0  0
 49 50  1  0  0  0
 49 53  1  0  0  0
 49 64  1  0  0  0
 49120  1  0  0  0
 50 51  1  0  0  0
 50121  1  0  0  0
 50122  1  0  0  0
 51 52  1  0  0  0
 51123  1  0  0  0
 51124  1  0  0  0
 52125  1  0  0  0
 52126  1  0  0  0
 53 54  1  0  0  0
 54 55  2  0  0  0
 54127  1  0  0  0
 55 57  1  0  0  0
 55128  1  0  0  0
 56 69  2  0  0  0
 57 58  2  0  0  0
 57129  1  0  0  0
 58130  1  0  0  0
 59 60  1  0  0  0
 59 61  1  0  0  0
 59 62  1  0  0  0
 60131  1  0  0  0
 60132  1  0  0  0
 60133  1  0  0  0
 61134  1  0  0  0
 61135  1  0  0  0
 61136  1  0  0  0
 62137  1  0  0  0
 62138  1  0  0  0
 62139  1  0  0  0
 63 65  1  0  0  0
 63140  1  0  0  0
 63141  1  0  0  0
 63142  1  0  0  0
 64143  1  0  0  0
 65144  1  0  0  0
 68 79  1  0  0  0
 71 73  2  0  0  0
 71 74  1  0  0  0
 71145  1  0  0  0
 72 73  1  0  0  0
 72 75  2  0  0  0
 72146  1  0  0  0
 73 84  1  0  0  0
 74 81  1  0  0  0
 74 82  2  0  0  0
 75 82  1  0  0  0
 75 85  1  0  0  0
 76147  1  0  0  0
 76148  1  0  0  0
 76149  1  0  0  0
 76 81  1  0  0  0
 77 84  1  0  0  0
 77150  1  0  0  0
 77151  1  0  0  0
 77152  1  0  0  0
 78 79  1  0  0  0
 78 80  1  0  0  0
 78153  1  0  0  0
 78154  1  0  0  0
 79155  1  0  0  0
 79156  1  0  0  0
 80 85  1  0  0  0
 80157  1  0  0  0
 80158  1  0  0  0
 81 83  1  0  0  0
 81159  1  0  0  0
 83160  1  0  0  0
M  ISO  4   1 100  68 101  79 101  83 100
M  END
> <chiral flag>
0

> <version>
0

> <s_m_source_file>
/data/baiqing/PycharmProjects/Reinvent-master-3.2/result/LINK_invent/BTK/process_docking_weight1_custom_sum_contain_oxygen_bond_distance_aromatic_linkinvent_7_9_3/rearranged_h_0157.sdf

> <i_m_source_file_index>
64

> <r_mmod_Potential_Energy-OPLS-2005>
259.868316650391

> <r_mmod_Stretch_Energy-OPLS-2005>
147.330490112305

> <r_mmod_Bend_Energy-OPLS-2005>
290.579833984375

> <r_mmod_Torsional_Energy-OPLS-2005>
329.675720214844

> <r_mmod_Improper_Torsional_Energy-OPLS-2005>
7.69750356674194

> <r_mmod_Van_der_Waal_Energy-OPLS-2005>
209.709655761719

> <r_mmod_Electrostatic_Energy-OPLS-2005>
-687.274841308594

> <r_mmod_Solvation_Energy-OPLS-2005>
-231.183059692383

> <b_mmod_Minimization_Converged-OPLS-2005>
0

> <r_mmod_RMS_Derivative-OPLS-2005>
46.7888565063477

$$$$
64
                    3D
 Structure written by MMmdl.
165174  0  0  1  0            999 V2000
  -30.5944  -14.7874   20.4363 C   0  0  0  0  0  0
  -30.4323  -12.4744   19.4729 C   0  0  0  0  0  0
  -29.5100  -12.5206   18.2345 C   0  0  0  0  0  0
  -28.0398  -12.3278   18.6481 C   0  0  0  0  0  0
  -27.6352  -13.2340   19.8395 C   0  0  2  0  0  0
  -28.6836  -13.1932   20.9734 C   0  0  0  0  0  0
  -25.2487  -13.8181   20.5705 C   0  0  0  0  0  0
  -24.1788  -13.0421   20.9223 C   0  0  0  0  0  0
  -24.6400  -11.6904   20.8738 C   0  0  0  0  0  0
  -23.9094  -10.4279   21.0407 C   0  0  0  0  0  0
  -24.3642   -9.4190   21.9190 C   0  0  0  0  0  0
  -23.6301   -8.2230   22.0742 C   0  0  0  0  0  0
  -22.4278   -8.0288   21.3545 C   0  0  0  0  0  0
  -21.9956   -9.0258   20.4636 C   0  0  0  0  0  0
  -22.7280  -10.2129   20.3044 C   0  0  0  0  0  0
  -21.6853   -6.0747   22.5282 C   0  0  0  0  0  0
  -21.4027   -6.5660   23.8219 C   0  0  0  0  0  0
  -21.3657   -5.6802   24.9183 C   0  0  0  0  0  0
  -21.6034   -4.3058   24.7225 C   0  0  0  0  0  0
  -21.8812   -3.8157   23.4344 C   0  0  0  0  0  0
  -21.9197   -4.6978   22.3408 C   0  0  0  0  0  0
  -22.7814  -13.5216   21.1873 C   0  0  0  0  0  0
  -22.1655   -4.2172   21.0972 F   0  0  0  0  0  0
  -21.5621   -3.4538   25.7730 F   0  0  0  0  0  0
  -29.9813  -13.5509   20.3838 N   0  0  0  0  0  0
  -26.2898  -12.9396   20.3235 N   0  0  0  0  0  0
  -25.9330  -11.6536   20.5726 N   0  0  0  0  0  0
  -22.0455  -12.8185   22.0394 N   0  0  0  0  0  0
  -25.4179  -15.1904   20.4139 N   0  0  0  0  0  0
  -31.7928  -14.8838   20.1616 O   0  0  0  0  0  0
  -21.6634   -6.8888   21.4238 O   0  0  0  0  0  0
  -22.3511  -14.5541   20.6746 O   0  0  0  0  0  0
  -24.6304  -31.8514   23.1892 C   0  0  0  0  0  0
  -25.9128  -32.4736   23.8240 C   0  0  1  0  0  0
  -27.2188  -27.2017   20.1315 C   0  0  0  0  0  0
  -25.5890  -33.8530   24.2144 N   0  0  0  0  0  0
  -23.4336  -30.4735   21.5312 C   0  0  2  0  0  0
  -24.8848  -28.9122   20.1088 C   0  0  0  0  0  0
  -22.7529  -29.4591   22.4836 C   0  0  0  0  0  0
  -18.0333  -28.1403   22.8522 C   0  0  0  0  0  0
  -24.1460  -36.7273   23.2653 C   0  0  0  0  0  0
  -25.9856  -30.7439   21.3856 C   0  0  0  0  0  0
  -26.0562  -29.3595   20.7312 C   0  0  0  0  0  0
  -27.2227  -28.5149   20.7376 C   0  0  0  0  0  0
  -26.0256  -26.8524   19.4616 C   0  0  0  0  0  0
  -24.8779  -27.6676   19.4675 C   0  0  0  0  0  0
  -23.6564  -29.8045   20.1476 C   0  0  0  0  0  0
  -25.4096  -36.3048   24.0312 C   0  0  1  0  0  0
  -20.5918  -28.3699   23.1244 C   0  0  2  0  0  0
  -20.6809  -26.9401   22.5401 C   0  0  0  0  0  0
  -19.5763  -26.6387   21.5222 C   0  0  0  0  0  0
  -18.1947  -26.7951   22.1637 C   0  0  0  0  0  0
  -19.1580  -28.8862   23.2900 C   0  0  0  0  0  0
  -18.9510  -30.1478   23.8906 C   0  0  0  0  0  0
  -17.6507  -30.6605   24.0565 C   0  0  0  0  0  0
  -25.9049  -34.9443   23.5027 C   0  0  0  0  0  0
  -16.5396  -29.9110   23.6331 C   0  0  0  0  0  0
  -16.7321  -28.6523   23.0362 C   0  0  0  0  0  0
  -26.4462  -31.6594   25.0676 C   0  0  0  0  0  0
  -25.3676  -31.3847   26.1387 C   0  0  0  0  0  0
  -27.0336  -30.2986   24.6272 C   0  0  0  0  0  0
  -27.5976  -32.4378   25.7503 C   0  0  0  0  0  0
  -27.5560  -37.1798   24.8473 C   0  0  0  0  0  0
  -21.4224  -29.3056   22.3613 N   0  0  0  0  0  0
  -26.4261  -37.3763   23.9442 N   0  0  0  0  0  0
  -24.7028  -31.0457   22.0893 N   0  0  0  0  0  0
  -23.4231  -28.8141   23.2967 O   0  0  0  0  0  0
  -28.3027  -26.2705   20.2175 O   0  0  0  0  0  0
  -26.5677  -34.8954   22.4631 O   0  0  0  0  0  0
  -23.5429  -32.1361   23.7132 O   0  0  0  0  0  0
  -26.1629  -19.0710   19.2573 C   0  0  0  0  0  0
  -25.8060  -20.3107   19.7866 C   0  0  0  0  0  0
  -27.5163  -18.7326   19.2490 C   0  0  0  0  0  0
  -28.5295  -19.5439   19.7912 C   0  0  0  0  0  0
  -26.7836  -21.2499   20.1868 C   0  0  0  0  0  0
  -28.1916  -20.9738   20.0876 C   0  0  0  0  0  0
  -28.0414  -17.5440   18.4874 C   0  0  0  0  0  0
  -29.5430  -17.8489   18.3770 C   0  0  0  0  0  0
  -29.8426  -18.6288   19.6760 C   0  0  1  0  0  0
  -31.0878  -19.5214   19.5447 C   0  0  0  0  0  0
  -25.4050  -22.4621   21.6850 C   0  0  0  0  0  0
  -30.1403  -17.4272   20.7769 C   0  0  0  0  0  0
  -28.1955  -24.7935   19.8011 C   0  0  0  0  0  0
  -28.7964  -23.5136   20.6575 C   0  0  0  0  0  0
  -29.8030  -15.9222   20.6026 N   0  0  0  0  0  0
  -26.3182  -22.4755   20.5917 O   0  0  0  0  0  0
  -29.0906  -22.0958   20.1532 O   0  0  0  0  0  0
  -31.4744  -12.5997   19.1749 H   0  0  0  0  0  0
  -30.3706  -11.5013   19.9665 H   0  0  0  0  0  0
  -29.8066  -11.7607   17.5105 H   0  0  0  0  0  0
  -29.6197  -13.4822   17.7303 H   0  0  0  0  0  0
  -27.9098  -11.2812   18.9215 H   0  0  0  0  0  0
  -27.3818  -12.5044   17.7976 H   0  0  0  0  0  0
  -27.6187  -14.2472   19.4428 H   0  0  0  0  0  0
  -28.7260  -12.2031   21.4316 H   0  0  0  0  0  0
  -28.4162  -13.8892   21.7714 H   0  0  0  0  0  0
  -25.2797   -9.5674   22.4755 H   0  0  0  0  0  0
  -24.0014   -7.4640   22.7472 H   0  0  0  0  0  0
  -21.0897   -8.8798   19.8947 H   0  0  0  0  0  0
  -22.3766  -10.9674   19.6143 H   0  0  0  0  0  0
  -21.2014   -7.6169   23.9749 H   0  0  0  0  0  0
  -21.1495   -6.0516   25.9092 H   0  0  0  0  0  0
  -22.0596   -2.7627   23.2823 H   0  0  0  0  0  0
  -22.4100  -11.9836   22.4734 H   0  0  0  0  0  0
  -21.1057  -13.1172   22.2574 H   0  0  0  0  0  0
  -24.6535  -15.8428   20.5493 H   0  0  0  0  0  0
  -26.2611  -15.6393   20.0845 H   0  0  0  0  0  0
  -26.7206  -32.5396   23.0995 H   0  0  0  0  0  0
  -24.9942  -33.9608   25.0216 H   0  0  0  0  0  0
  -22.7307  -31.2943   21.3770 H   0  0  0  0  0  0
  -23.3734  -35.9603   23.3318 H   0  0  0  0  0  0
  -24.3552  -36.8887   22.2076 H   0  0  0  0  0  0
  -23.7219  -37.6469   23.6684 H   0  0  0  0  0  0
  -26.1283  -31.4990   20.6113 H   0  0  0  0  0  0
  -26.8616  -30.7969   22.0202 H   0  0  0  0  0  0
  -28.1069  -28.8531   21.2549 H   0  0  0  0  0  0
  -25.9184  -25.9258   18.9234 H   0  0  0  0  0  0
  -23.9859  -27.3153   18.9699 H   0  0  0  0  0  0
  -23.7866  -30.5735   19.3844 H   0  0  0  0  0  0
  -22.7761  -29.2390   19.8371 H   0  0  0  0  0  0
  -25.1291  -36.1850   25.0811 H   0  0  0  0  0  0
  -21.0057  -28.3295   24.1349 H   0  0  0  0  0  0
  -20.5668  -26.2309   23.3618 H   0  0  0  0  0  0
  -21.6675  -26.7408   22.1199 H   0  0  0  0  0  0
  -19.6876  -25.6302   21.1229 H   0  0  0  0  0  0
  -19.6675  -27.3240   20.6778 H   0  0  0  0  0  0
  -17.4216  -26.6738   21.4043 H   0  0  0  0  0  0
  -18.0329  -26.0089   22.9026 H   0  0  0  0  0  0
  -19.7987  -30.7314   24.2227 H   0  0  0  0  0  0
  -17.5064  -31.6282   24.5177 H   0  0  0  0  0  0
  -15.5388  -30.3022   23.7635 H   0  0  0  0  0  0
  -15.8725  -28.0857   22.7032 H   0  0  0  0  0  0
  -24.5854  -30.7175   25.7788 H   0  0  0  0  0  0
  -24.8867  -32.3038   26.4719 H   0  0  0  0  0  0
  -25.7934  -30.9137   27.0235 H   0  0  0  0  0  0
  -26.2934  -29.6720   24.1272 H   0  0  0  0  0  0
  -27.3966  -29.7258   25.4822 H   0  0  0  0  0  0
  -27.8822  -30.4272   23.9553 H   0  0  0  0  0  0
  -27.2522  -33.3711   26.1989 H   0  0  0  0  0  0
  -28.3851  -32.6891   25.0390 H   0  0  0  0  0  0
  -28.0544  -31.8555   26.5521 H   0  0  0  0  0  0
  -28.2580  -38.0085   24.7498 H   0  0  0  0  0  0
  -28.1011  -36.2614   24.6279 H   0  0  0  0  0  0
  -27.2263  -37.1438   25.8862 H   0  0  0  0  0  0
  -20.9414  -29.8774   21.6802 H   0  0  0  0  0  0
  -26.0098  -38.2818   24.1470 H   0  0  0  0  0  0
  -25.4139  -18.4107   18.8385 H   0  0  0  0  0  0
  -24.7579  -20.5713   19.7819 H   0  0  0  0  0  0
  -27.5682  -17.4425   17.5107 H   0  0  0  0  0  0
  -27.8405  -16.6373   19.0514 H   0  0  0  0  0  0
  -29.6962  -18.4960   17.5107 H   0  0  0  0  0  0
  -30.1609  -16.9684   18.2080 H   0  0  0  0  0  0
  -30.9768  -20.2607   18.7503 H   0  0  0  0  0  0
  -31.9774  -18.9321   19.3217 H   0  0  0  0  0  0
  -31.2747  -20.0612   20.4733 H   0  0  0  0  0  0
  -24.4447  -22.0084   21.4358 H   0  0  0  0  0  0
  -25.2105  -23.4863   22.0030 H   0  0  0  0  0  0
  -25.8218  -21.9147   22.5340 H   0  0  0  0  0  0
  -29.7243  -17.7479   21.7316 H   0  0  0  0  0  0
  -31.2161  -17.4214   20.9485 H   0  0  0  0  0  0
  -27.1646  -24.5318   19.6119 H   0  0  0  0  0  0
  -28.6681  -24.7541   18.8218 H   0  0  0  0  0  0
  -28.2379  -23.4219   21.5893 H   0  0  0  0  0  0
  -29.7735  -23.8537   20.9965 H   0  0  0  0  0  0
  -28.8275  -15.7020   20.7326 H   0  0  0  0  0  0
  1 25  1  0  0  0
  1 30  2  0  0  0
  1 85  1  0  0  0
  2  3  1  0  0  0
  2 25  1  0  0  0
  2 88  1  0  0  0
  2 89  1  0  0  0
  3  4  1  0  0  0
  3 90  1  0  0  0
  3 91  1  0  0  0
  4  5  1  0  0  0
  4 92  1  0  0  0
  4 93  1  0  0  0
  5  6  1  0  0  0
  5 26  1  0  0  0
  5 94  1  0  0  0
  6 25  1  0  0  0
  6 95  1  0  0  0
  6 96  1  0  0  0
  7  8  2  0  0  0
  7 26  1  0  0  0
  7 29  1  0  0  0
  8  9  1  0  0  0
  8 22  1  0  0  0
  9 10  1  0  0  0
  9 27  2  0  0  0
 10 11  2  0  0  0
 10 15  1  0  0  0
 11 12  1  0  0  0
 11 97  1  0  0  0
 12 13  2  0  0  0
 12 98  1  0  0  0
 13 14  1  0  0  0
 13 31  1  0  0  0
 14 15  2  0  0  0
 14 99  1  0  0  0
 15100  1  0  0  0
 16 17  2  0  0  0
 16 21  1  0  0  0
 16 31  1  0  0  0
 17 18  1  0  0  0
 17101  1  0  0  0
 18 19  2  0  0  0
 18102  1  0  0  0
 19 20  1  0  0  0
 19 24  1  0  0  0
 20 21  2  0  0  0
 20103  1  0  0  0
 21 23  1  0  0  0
 22 28  1  0  0  0
 22 32  2  0  0  0
 26 27  1  0  0  0
 28104  1  0  0  0
 28105  1  0  0  0
 29106  1  0  0  0
 29107  1  0  0  0
 33 34  1  0  0  0
 33 66  1  0  0  0
 33 70  2  0  0  0
 34 36  1  0  0  0
 34 59  1  0  0  0
 34108  1  0  0  0
 35 44  2  0  0  0
 35 45  1  0  0  0
 35 68  1  0  0  0
 36 56  1  0  0  0
 36109  1  0  0  0
 37 39  1  0  0  0
 37 47  1  0  0  0
 37 66  1  0  0  0
 37110  1  0  0  0
 38 43  2  0  0  0
 38 46  1  0  0  0
 38 47  1  0  0  0
 39 64  1  0  0  0
 39 67  2  0  0  0
 40 52  1  0  0  0
 40 53  2  0  0  0
 40 58  1  0  0  0
 41111  1  0  0  0
 41112  1  0  0  0
 41113  1  0  0  0
 41 48  1  0  0  0
 42 43  1  0  0  0
 42 66  1  0  0  0
 42114  1  0  0  0
 42115  1  0  0  0
 43 44  1  0  0  0
 44116  1  0  0  0
 45 46  2  0  0  0
 45117  1  0  0  0
 46118  1  0  0  0
 47119  1  0  0  0
 47120  1  0  0  0
 48 56  1  0  0  0
 48 65  1  0  0  0
 48121  1  0  0  0
 49 50  1  0  0  0
 49 53  1  0  0  0
 49 64  1  0  0  0
 49122  1  0  0  0
 50 51  1  0  0  0
 50123  1  0  0  0
 50124  1  0  0  0
 51 52  1  0  0  0
 51125  1  0  0  0
 51126  1  0  0  0
 52127  1  0  0  0
 52128  1  0  0  0
 53 54  1  0  0  0
 54 55  2  0  0  0
 54129  1  0  0  0
 55 57  1  0  0  0
 55130  1  0  0  0
 56 69  2  0  0  0
 57 58  2  0  0  0
 57131  1  0  0  0
 58132  1  0  0  0
 59 60  1  0  0  0
 59 61  1  0  0  0
 59 62  1  0  0  0
 60133  1  0  0  0
 60134  1  0  0  0
 60135  1  0  0  0
 61136  1  0  0  0
 61137  1  0  0  0
 61138  1  0  0  0
 62139  1  0  0  0
 62140  1  0  0  0
 62141  1  0  0  0
 63 65  1  0  0  0
 63142  1  0  0  0
 63143  1  0  0  0
 63144  1  0  0  0
 64145  1  0  0  0
 65146  1  0  0  0
 68 83  1  0  0  0
 71 72  2  0  0  0
 71 73  1  0  0  0
 71147  1  0  0  0
 72 75  1  0  0  0
 72148  1  0  0  0
 73 74  2  0  0  0
 73 77  1  0  0  0
 74 76  1  0  0  0
 74 79  1  0  0  0
 75 76  2  0  0  0
 75 86  1  0  0  0
 76 87  1  0  0  0
 77 78  1  0  0  0
 77149  1  0  0  0
 77150  1  0  0  0
 78 79  1  0  0  0
 78151  1  0  0  0
 78152  1  0  0  0
 79 80  1  0  0  0
 79 82  1  0  0  0
 80153  1  0  0  0
 80154  1  0  0  0
 80155  1  0  0  0
 81 86  1  0  0  0
 81156  1  0  0  0
 81157  1  0  0  0
 81158  1  0  0  0
 82 85  1  0  0  0
 82159  1  0  0  0
 82160  1  0  0  0
 83 84  1  0  0  0
 83161  1  0  0  0
 83162  1  0  0  0
 84 87  1  0  0  0
 84163  1  0  0  0
 84164  1  0  0  0
 85165  1  0  0  0
M  ISO  4   1 100  68 101  83 101  85 100
M  END
> <chiral flag>
0

> <version>
0

> <s_m_source_file>
/data/baiqing/PycharmProjects/Reinvent-master-3.2/result/LINK_invent/BTK/process_docking_weight1_custom_sum_contain_oxygen_bond_distance_aromatic_linkinvent_7_9_3/rearranged_h_0157.sdf

> <i_m_source_file_index>
65

> <r_mmod_Potential_Energy-OPLS-2005>
447.569366455078

> <r_mmod_Stretch_Energy-OPLS-2005>
196.885757446289

> <r_mmod_Bend_Energy-OPLS-2005>
333.850860595703

> <r_mmod_Torsional_Energy-OPLS-2005>
284.433227539062

> <r_mmod_Improper_Torsional_Energy-OPLS-2005>
7.11881971359253

> <r_mmod_Van_der_Waal_Energy-OPLS-2005>
145.100204467773

> <r_mmod_Electrostatic_Energy-OPLS-2005>
-423.124969482422

> <r_mmod_Solvation_Energy-OPLS-2005>
-212.68586730957

> <b_mmod_Minimization_Converged-OPLS-2005>
0

> <r_mmod_RMS_Derivative-OPLS-2005>
5.0500340461731

$$$$
65
                    3D
 Structure written by MMmdl.
172181  0  0  1  0            999 V2000
  -30.6572  -14.4861   20.5926 C   0  0  0  0  0  0
  -30.4420  -12.3185   19.4221 C   0  0  0  0  0  0
  -29.5055  -12.5249   18.2097 C   0  0  0  0  0  0
  -28.0251  -12.3750   18.6174 C   0  0  0  0  0  0
  -27.6711  -13.1967   19.8853 C   0  0  2  0  0  0
  -28.7109  -12.9365   21.0014 C   0  0  0  0  0  0
  -25.2635  -13.8124   20.5671 C   0  0  0  0  0  0
  -24.1864  -13.0425   20.9161 C   0  0  0  0  0  0
  -24.6398  -11.6885   20.8718 C   0  0  0  0  0  0
  -23.9052  -10.4281   21.0390 C   0  0  0  0  0  0
  -24.3606   -9.4204   21.9174 C   0  0  0  0  0  0
  -23.6285   -8.2238   22.0746 C   0  0  0  0  0  0
  -22.4267   -8.0274   21.3538 C   0  0  0  0  0  0
  -21.9897   -9.0245   20.4640 C   0  0  0  0  0  0
  -22.7223  -10.2123   20.3040 C   0  0  0  0  0  0
  -21.6849   -6.0729   22.5281 C   0  0  0  0  0  0
  -21.4010   -6.5632   23.8213 C   0  0  0  0  0  0
  -21.3661   -5.6783   24.9176 C   0  0  0  0  0  0
  -21.6048   -4.3044   24.7224 C   0  0  0  0  0  0
  -21.8821   -3.8137   23.4343 C   0  0  0  0  0  0
  -21.9193   -4.6959   22.3402 C   0  0  0  0  0  0
  -22.7890  -13.5243   21.1826 C   0  0  0  0  0  0
  -22.1663   -4.2143   21.0980 F   0  0  0  0  0  0
  -21.5632   -3.4531   25.7736 F   0  0  0  0  0  0
  -30.0486  -13.2722   20.4722 N   0  0  0  0  0  0
  -26.3071  -12.9278   20.3383 N   0  0  0  0  0  0
  -25.9327  -11.6446   20.5753 N   0  0  0  0  0  0
  -22.0510  -12.8247   22.0380 N   0  0  0  0  0  0
  -25.4378  -15.1841   20.4085 N   0  0  0  0  0  0
  -31.7204  -14.7716   20.0341 O   0  0  0  0  0  0
  -21.6631   -6.8875   21.4240 O   0  0  0  0  0  0
  -22.3592  -14.5560   20.6685 O   0  0  0  0  0  0
  -24.6168  -31.8659   23.2078 C   0  0  0  0  0  0
  -25.9058  -32.4810   23.8381 C   0  0  1  0  0  0
  -27.2411  -27.4178   20.0785 C   0  0  0  0  0  0
  -25.5911  -33.8610   24.2310 N   0  0  0  0  0  0
  -23.4057  -30.4892   21.5485 C   0  0  2  0  0  0
  -24.8517  -28.9513   20.1125 C   0  0  0  0  0  0
  -22.7415  -29.4654   22.4977 C   0  0  0  0  0  0
  -18.0268  -28.1388   22.8485 C   0  0  0  0  0  0
  -24.1490  -36.7303   23.2642 C   0  0  0  0  0  0
  -25.9371  -30.8224   21.3660 C   0  0  0  0  0  0
  -26.0122  -29.4563   20.7097 C   0  0  0  0  0  0
  -27.2041  -28.6926   20.6970 C   0  0  0  0  0  0
  -26.0508  -26.9212   19.4986 C   0  0  0  0  0  0
  -24.8655  -27.6817   19.5096 C   0  0  0  0  0  0
  -23.6145  -29.8202   20.1638 C   0  0  0  0  0  0
  -25.4114  -36.3104   24.0339 C   0  0  1  0  0  0
  -20.5861  -28.3673   23.1316 C   0  0  2  0  0  0
  -20.6762  -26.9405   22.5428 C   0  0  0  0  0  0
  -19.5750  -26.6388   21.5217 C   0  0  0  0  0  0
  -18.1918  -26.7940   22.1604 C   0  0  0  0  0  0
  -19.1518  -28.8845   23.2901 C   0  0  0  0  0  0
  -18.9446  -30.1449   23.8913 C   0  0  0  0  0  0
  -17.6449  -30.6591   24.0565 C   0  0  0  0  0  0
  -25.9043  -34.9472   23.5121 C   0  0  0  0  0  0
  -16.5338  -29.9090   23.6336 C   0  0  0  0  0  0
  -16.7257  -28.6511   23.0348 C   0  0  0  0  0  0
  -26.4477  -31.6602   25.0725 C   0  0  0  0  0  0
  -25.3738  -31.3723   26.1475 C   0  0  0  0  0  0
  -27.0309  -30.3035   24.6138 C   0  0  0  0  0  0
  -27.6061  -32.4323   25.7479 C   0  0  0  0  0  0
  -27.5585  -37.1808   24.8458 C   0  0  0  0  0  0
  -21.4140  -29.3036   22.3718 N   0  0  0  0  0  0
  -26.4297  -37.3791   23.9408 N   0  0  0  0  0  0
  -24.6715  -31.0739   22.0989 N   0  0  0  0  0  0
  -23.4174  -28.8206   23.3038 O   0  0  0  0  0  0
  -28.4164  -26.6855   20.1201 O   0  0  0  0  0  0
  -26.5598  -34.8926   22.4679 O   0  0  0  0  0  0
  -23.5357  -32.1424   23.7460 O   0  0  0  0  0  0
  -28.8597  -23.2400   18.6547 C   0  0  0  0  0  0
  -30.4141  -22.6718   20.8900 C   0  0  0  0  0  0
  -29.3463  -21.9242   18.8466 C   0  0  0  0  0  0
  -30.1548  -21.6264   19.9720 C   0  0  0  0  0  0
  -29.1734  -24.3054   19.5325 C   0  0  0  0  0  0
  -29.9751  -24.0092   20.6754 C   0  0  0  0  0  0
  -28.9769  -17.6081   22.0127 C   0  0  0  0  0  0
  -29.1849  -19.0859   21.6100 C   0  0  0  0  0  0
  -30.6679  -17.7462   20.3308 C   0  0  0  0  0  0
  -29.5860  -16.7890   20.8666 C   0  0  1  0  0  0
  -29.0212  -20.8690   17.8007 C   0  0  0  0  0  0
  -31.8282  -24.9163   22.2195 C   0  0  0  0  0  0
  -29.3907  -25.2435   22.8034 C   0  0  0  0  0  0
  -30.8697  -20.2628   20.1509 C   0  0  0  0  0  0
  -28.7357  -25.7267   19.0918 C   0  0  0  0  0  0
  -30.4064  -25.1030   21.6604 C   0  0  0  0  0  0
  -29.9229  -15.4011   21.2539 N   0  0  0  0  0  0
  -29.9955  -19.0757   20.3706 N   0  3  2  0  0  0
  -31.4842  -12.4445   19.1235 H   0  0  0  0  0  0
  -30.3630  -11.2964   19.7962 H   0  0  0  0  0  0
  -29.7492  -11.8122   17.4207 H   0  0  0  0  0  0
  -29.6682  -13.5165   17.7846 H   0  0  0  0  0  0
  -27.8374  -11.3161   18.8000 H   0  0  0  0  0  0
  -27.3742  -12.6595   17.7893 H   0  0  0  0  0  0
  -27.7253  -14.2498   19.6100 H   0  0  0  0  0  0
  -28.6911  -11.8851   21.2917 H   0  0  0  0  0  0
  -28.4565  -13.4835   21.9103 H   0  0  0  0  0  0
  -25.2754   -9.5684   22.4744 H   0  0  0  0  0  0
  -23.9996   -7.4629   22.7464 H   0  0  0  0  0  0
  -21.0822   -8.8760   19.8952 H   0  0  0  0  0  0
  -22.3683  -10.9654   19.6140 H   0  0  0  0  0  0
  -21.1995   -7.6139   23.9719 H   0  0  0  0  0  0
  -21.1484   -6.0507   25.9080 H   0  0  0  0  0  0
  -22.0599   -2.7598   23.2839 H   0  0  0  0  0  0
  -22.4089  -11.9894   22.4762 H   0  0  0  0  0  0
  -21.1132  -13.1293   22.2564 H   0  0  0  0  0  0
  -24.6692  -15.8384   20.5082 H   0  0  0  0  0  0
  -26.2889  -15.6188   20.0773 H   0  0  0  0  0  0
  -26.7128  -32.5508   23.1139 H   0  0  0  0  0  0
  -25.0077  -33.9772   25.0467 H   0  0  0  0  0  0
  -22.6962  -31.3076   21.4083 H   0  0  0  0  0  0
  -23.3761  -35.9625   23.3292 H   0  0  0  0  0  0
  -24.3589  -36.8935   22.2059 H   0  0  0  0  0  0
  -23.7231  -37.6503   23.6659 H   0  0  0  0  0  0
  -26.0577  -31.5898   20.5995 H   0  0  0  0  0  0
  -26.8216  -30.8701   21.9895 H   0  0  0  0  0  0
  -28.0996  -29.0786   21.1638 H   0  0  0  0  0  0
  -26.0077  -25.9348   19.0612 H   0  0  0  0  0  0
  -23.9665  -27.2793   19.0631 H   0  0  0  0  0  0
  -23.7217  -30.5944   19.4028 H   0  0  0  0  0  0
  -22.7378  -29.2403   19.8696 H   0  0  0  0  0  0
  -25.1292  -36.1966   25.0832 H   0  0  0  0  0  0
  -20.9951  -28.3242   24.1439 H   0  0  0  0  0  0
  -20.5656  -26.2278   23.3618 H   0  0  0  0  0  0
  -21.6637  -26.7445   22.1228 H   0  0  0  0  0  0
  -19.6912  -25.6299   21.1246 H   0  0  0  0  0  0
  -19.6716  -27.3198   20.6750 H   0  0  0  0  0  0
  -17.4207  -26.6709   21.3985 H   0  0  0  0  0  0
  -18.0289  -26.0069   22.8980 H   0  0  0  0  0  0
  -19.7926  -30.7254   24.2289 H   0  0  0  0  0  0
  -17.5010  -31.6277   24.5156 H   0  0  0  0  0  0
  -15.5341  -30.2993   23.7669 H   0  0  0  0  0  0
  -15.8654  -28.0841   22.7050 H   0  0  0  0  0  0
  -24.5920  -30.7057   25.7815 H   0  0  0  0  0  0
  -24.8918  -32.2883   26.4907 H   0  0  0  0  0  0
  -25.8091  -30.8909   27.0244 H   0  0  0  0  0  0
  -26.2863  -29.6791   24.1188 H   0  0  0  0  0  0
  -27.4055  -29.7284   25.4616 H   0  0  0  0  0  0
  -27.8709  -30.4327   23.9311 H   0  0  0  0  0  0
  -27.2694  -33.3621   26.2071 H   0  0  0  0  0  0
  -28.3860  -32.6886   25.0295 H   0  0  0  0  0  0
  -28.0743  -31.8442   26.5382 H   0  0  0  0  0  0
  -28.2604  -38.0103   24.7507 H   0  0  0  0  0  0
  -28.1082  -36.2641   24.6270 H   0  0  0  0  0  0
  -27.2311  -37.1439   25.8865 H   0  0  0  0  0  0
  -20.9297  -29.8749   21.6937 H   0  0  0  0  0  0
  -26.0185  -38.2871   24.1411 H   0  0  0  0  0  0
  -28.2707  -23.4526   17.7729 H   0  0  0  0  0  0
  -31.0268  -22.4455   21.7497 H   0  0  0  0  0  0
  -27.9249  -17.3704   22.1735 H   0  0  0  0  0  0
  -29.5037  -17.4101   22.9480 H   0  0  0  0  0  0
  -29.6985  -19.6219   22.4097 H   0  0  0  0  0  0
  -28.2374  -19.5957   21.4306 H   0  0  0  0  0  0
  -30.9911  -17.4899   19.3210 H   0  0  0  0  0  0
  -31.5453  -17.7430   20.9799 H   0  0  0  0  0  0
  -28.8273  -16.6978   20.0868 H   0  0  0  0  0  0
  -28.4428  -21.2899   16.9772 H   0  0  0  0  0  0
  -28.4260  -20.0644   18.2320 H   0  0  0  0  0  0
  -29.9302  -20.4456   17.3720 H   0  0  0  0  0  0
  -32.5540  -24.7800   21.4169 H   0  0  0  0  0  0
  -31.9025  -24.0648   22.8956 H   0  0  0  0  0  0
  -32.1337  -25.7951   22.7881 H   0  0  0  0  0  0
  -28.3916  -25.4614   22.4250 H   0  0  0  0  0  0
  -29.6684  -26.0540   23.4776 H   0  0  0  0  0  0
  -29.3269  -24.3280   23.3923 H   0  0  0  0  0  0
  -31.5899  -20.3275   20.9675 H   0  0  0  0  0  0
  -31.4660  -20.0881   19.2549 H   0  0  0  0  0  0
  -27.9665  -25.6513   18.3257 H   0  0  0  0  0  0
  -29.5891  -26.1463   18.5585 H   0  0  0  0  0  0
  -30.4555  -26.0468   21.1214 H   0  0  0  0  0  0
  -29.1994  -14.9603   21.8031 H   0  0  0  0  0  0
  -29.3363  -19.0713   19.6075 H   0  0  0  0  0  0
  1 25  1  0  0  0
  1 30  2  0  0  0
  1 87  1  0  0  0
  2  3  1  0  0  0
  2 25  1  0  0  0
  2 89  1  0  0  0
  2 90  1  0  0  0
  3  4  1  0  0  0
  3 91  1  0  0  0
  3 92  1  0  0  0
  4  5  1  0  0  0
  4 93  1  0  0  0
  4 94  1  0  0  0
  5  6  1  0  0  0
  5 26  1  0  0  0
  5 95  1  0  0  0
  6 25  1  0  0  0
  6 96  1  0  0  0
  6 97  1  0  0  0
  7  8  2  0  0  0
  7 26  1  0  0  0
  7 29  1  0  0  0
  8  9  1  0  0  0
  8 22  1  0  0  0
  9 10  1  0  0  0
  9 27  2  0  0  0
 10 11  2  0  0  0
 10 15  1  0  0  0
 11 12  1  0  0  0
 11 98  1  0  0  0
 12 13  2  0  0  0
 12 99  1  0  0  0
 13 14  1  0  0  0
 13 31  1  0  0  0
 14 15  2  0  0  0
 14100  1  0  0  0
 15101  1  0  0  0
 16 17  2  0  0  0
 16 21  1  0  0  0
 16 31  1  0  0  0
 17 18  1  0  0  0
 17102  1  0  0  0
 18 19  2  0  0  0
 18103  1  0  0  0
 19 20  1  0  0  0
 19 24  1  0  0  0
 20 21  2  0  0  0
 20104  1  0  0  0
 21 23  1  0  0  0
 22 28  1  0  0  0
 22 32  2  0  0  0
 26 27  1  0  0  0
 28105  1  0  0  0
 28106  1  0  0  0
 29107  1  0  0  0
 29108  1  0  0  0
 33 34  1  0  0  0
 33 66  1  0  0  0
 33 70  2  0  0  0
 34 36  1  0  0  0
 34 59  1  0  0  0
 34109  1  0  0  0
 35 44  2  0  0  0
 35 45  1  0  0  0
 35 68  1  0  0  0
 36 56  1  0  0  0
 36110  1  0  0  0
 37 39  1  0  0  0
 37 47  1  0  0  0
 37 66  1  0  0  0
 37111  1  0  0  0
 38 43  2  0  0  0
 38 46  1  0  0  0
 38 47  1  0  0  0
 39 64  1  0  0  0
 39 67  2  0  0  0
 40 52  1  0  0  0
 40 53  2  0  0  0
 40 58  1  0  0  0
 41112  1  0  0  0
 41113  1  0  0  0
 41114  1  0  0  0
 41 48  1  0  0  0
 42 43  1  0  0  0
 42 66  1  0  0  0
 42115  1  0  0  0
 42116  1  0  0  0
 43 44  1  0  0  0
 44117  1  0  0  0
 45 46  2  0  0  0
 45118  1  0  0  0
 46119  1  0  0  0
 47120  1  0  0  0
 47121  1  0  0  0
 48 56  1  0  0  0
 48 65  1  0  0  0
 48122  1  0  0  0
 49 50  1  0  0  0
 49 53  1  0  0  0
 49 64  1  0  0  0
 49123  1  0  0  0
 50 51  1  0  0  0
 50124  1  0  0  0
 50125  1  0  0  0
 51 52  1  0  0  0
 51126  1  0  0  0
 51127  1  0  0  0
 52128  1  0  0  0
 52129  1  0  0  0
 53 54  1  0  0  0
 54 55  2  0  0  0
 54130  1  0  0  0
 55 57  1  0  0  0
 55131  1  0  0  0
 56 69  2  0  0  0
 57 58  2  0  0  0
 57132  1  0  0  0
 58133  1  0  0  0
 59 60  1  0  0  0
 59 61  1  0  0  0
 59 62  1  0  0  0
 60134  1  0  0  0
 60135  1  0  0  0
 60136  1  0  0  0
 61137  1  0  0  0
 61138  1  0  0  0
 61139  1  0  0  0
 62140  1  0  0  0
 62141  1  0  0  0
 62142  1  0  0  0
 63 65  1  0  0  0
 63143  1  0  0  0
 63144  1  0  0  0
 63145  1  0  0  0
 64146  1  0  0  0
 65147  1  0  0  0
 68 85  1  0  0  0
 71 73  2  0  0  0
 71 75  1  0  0  0
 71148  1  0  0  0
 72 74  2  0  0  0
 72 76  1  0  0  0
 72149  1  0  0  0
 73 74  1  0  0  0
 73 81  1  0  0  0
 74 84  1  0  0  0
 75 76  2  0  0  0
 75 85  1  0  0  0
 76 86  1  0  0  0
 77 78  1  0  0  0
 77 80  1  0  0  0
 77150  1  0  0  0
 77151  1  0  0  0
 78 88  1  0  0  0
 78152  1  0  0  0
 78153  1  0  0  0
 79 80  1  0  0  0
 79 88  1  0  0  0
 79154  1  0  0  0
 79155  1  0  0  0
 80 87  1  0  0  0
 80156  1  0  0  0
 81157  1  0  0  0
 81158  1  0  0  0
 81159  1  0  0  0
 82160  1  0  0  0
 82161  1  0  0  0
 82162  1  0  0  0
 82 86  1  0  0  0
 83 86  1  0  0  0
 83163  1  0  0  0
 83164  1  0  0  0
 83165  1  0  0  0
 84166  1  0  0  0
 84167  1  0  0  0
 84 88  1  0  0  0
 85168  1  0  0  0
 85169  1  0  0  0
 86170  1  0  0  0
 87171  1  0  0  0
 88172  1  0  0  0
M  CHG  1  88   1
M  ISO  4   1 100  68 101  85 101  87 100
M  END
> <chiral flag>
0

> <version>
0

> <s_m_source_file>
/data/baiqing/PycharmProjects/Reinvent-master-3.2/result/LINK_invent/BTK/process_docking_weight1_custom_sum_contain_oxygen_bond_distance_aromatic_linkinvent_7_9_3/rearranged_h_0157.sdf

> <i_m_source_file_index>
66

> <r_mmod_Potential_Energy-OPLS-2005>
-90.8694610595703

> <r_mmod_Stretch_Energy-OPLS-2005>
46.465087890625

> <r_mmod_Bend_Energy-OPLS-2005>
158.115325927734

> <r_mmod_Torsional_Energy-OPLS-2005>
281.870758056641

> <r_mmod_Improper_Torsional_Energy-OPLS-2005>
7.01101589202881

> <r_mmod_Van_der_Waal_Energy-OPLS-2005>
144.313491821289

> <r_mmod_Electrostatic_Energy-OPLS-2005>
-309.8544921875

> <r_mmod_Solvation_Energy-OPLS-2005>
-434.623138427734

> <b_mmod_Minimization_Converged-OPLS-2005>
0

> <r_mmod_RMS_Derivative-OPLS-2005>
1.08119356632233

$$$$
66
                    3D
 Structure written by MMmdl.
168177  0  0  1  0            999 V2000
  -30.7073  -14.4965   20.6232 C   0  0  0  0  0  0
  -30.4204  -12.3392   19.4313 C   0  0  0  0  0  0
  -29.4945  -12.5151   18.2093 C   0  0  0  0  0  0
  -28.0159  -12.3465   18.6131 C   0  0  0  0  0  0
  -27.6562  -13.1822   19.8678 C   0  0  2  0  0  0
  -28.6992  -12.9539   20.9931 C   0  0  0  0  0  0
  -25.2558  -13.8081   20.5610 C   0  0  0  0  0  0
  -24.1812  -13.0395   20.9166 C   0  0  0  0  0  0
  -24.6357  -11.6862   20.8770 C   0  0  0  0  0  0
  -23.9035  -10.4259   21.0439 C   0  0  0  0  0  0
  -24.3589   -9.4175   21.9211 C   0  0  0  0  0  0
  -23.6256   -8.2213   22.0770 C   0  0  0  0  0  0
  -22.4247   -8.0264   21.3550 C   0  0  0  0  0  0
  -21.9890   -9.0237   20.4646 C   0  0  0  0  0  0
  -22.7222  -10.2109   20.3065 C   0  0  0  0  0  0
  -21.6828   -6.0740   22.5284 C   0  0  0  0  0  0
  -21.3992   -6.5651   23.8221 C   0  0  0  0  0  0
  -21.3658   -5.6801   24.9177 C   0  0  0  0  0  0
  -21.6048   -4.3059   24.7224 C   0  0  0  0  0  0
  -21.8816   -3.8159   23.4344 C   0  0  0  0  0  0
  -21.9173   -4.6976   22.3398 C   0  0  0  0  0  0
  -22.7841  -13.5230   21.1824 C   0  0  0  0  0  0
  -22.1637   -4.2164   21.0978 F   0  0  0  0  0  0
  -21.5637   -3.4544   25.7735 F   0  0  0  0  0  0
  -30.0171  -13.3225   20.4589 N   0  0  0  0  0  0
  -26.2976  -12.9205   20.3307 N   0  0  0  0  0  0
  -25.9270  -11.6404   20.5787 N   0  0  0  0  0  0
  -22.0469  -12.8238   22.0382 N   0  0  0  0  0  0
  -25.4243  -15.1792   20.3925 N   0  0  0  0  0  0
  -31.8072  -14.6481   20.0782 O   0  0  0  0  0  0
  -21.6601   -6.8879   21.4245 O   0  0  0  0  0  0
  -22.3543  -14.5548   20.6676 O   0  0  0  0  0  0
  -24.6160  -31.8667   23.2091 C   0  0  0  0  0  0
  -25.9055  -32.4804   23.8389 C   0  0  1  0  0  0
  -27.2345  -27.4347   20.1077 C   0  0  0  0  0  0
  -25.5928  -33.8599   24.2349 N   0  0  0  0  0  0
  -23.4027  -30.4885   21.5504 C   0  0  2  0  0  0
  -24.8505  -28.9495   20.1176 C   0  0  0  0  0  0
  -22.7397  -29.4661   22.5011 C   0  0  0  0  0  0
  -18.0268  -28.1359   22.8502 C   0  0  0  0  0  0
  -24.1473  -36.7280   23.2644 C   0  0  0  0  0  0
  -25.9284  -30.8367   21.3541 C   0  0  0  0  0  0
  -26.0093  -29.4669   20.7114 C   0  0  0  0  0  0
  -27.2076  -28.7177   20.7003 C   0  0  0  0  0  0
  -26.0630  -26.9248   19.5130 C   0  0  0  0  0  0
  -24.8718  -27.6784   19.5149 C   0  0  0  0  0  0
  -23.6101  -29.8146   20.1663 C   0  0  0  0  0  0
  -25.4097  -36.3088   24.0349 C   0  0  1  0  0  0
  -20.5856  -28.3637   23.1316 C   0  0  2  0  0  0
  -20.6760  -26.9377   22.5401 C   0  0  0  0  0  0
  -19.5741  -26.6380   21.5191 C   0  0  0  0  0  0
  -18.1916  -26.7911   22.1613 C   0  0  0  0  0  0
  -19.1513  -28.8819   23.2911 C   0  0  0  0  0  0
  -18.9447  -30.1431   23.8911 C   0  0  0  0  0  0
  -17.6453  -30.6575   24.0559 C   0  0  0  0  0  0
  -25.9034  -34.9461   23.5140 C   0  0  0  0  0  0
  -16.5340  -29.9068   23.6341 C   0  0  0  0  0  0
  -16.7255  -28.6483   23.0364 C   0  0  0  0  0  0
  -26.4500  -31.6552   25.0688 C   0  0  0  0  0  0
  -25.3788  -31.3547   26.1418 C   0  0  0  0  0  0
  -27.0378  -30.3042   24.5970 C   0  0  0  0  0  0
  -27.6068  -32.4263   25.7494 C   0  0  0  0  0  0
  -27.5565  -37.1809   24.8481 C   0  0  0  0  0  0
  -21.4124  -29.3013   22.3735 N   0  0  0  0  0  0
  -26.4283  -37.3785   23.9422 N   0  0  0  0  0  0
  -24.6682  -31.0767   22.0978 N   0  0  0  0  0  0
  -23.4165  -28.8220   23.3071 O   0  0  0  0  0  0
  -28.3906  -26.6911   20.0873 O   0  0  0  0  0  0
  -26.5567  -34.8916   22.4684 O   0  0  0  0  0  0
  -23.5357  -32.1415   23.7493 O   0  0  0  0  0  0
  -30.0125  -19.6679   19.0103 C   0  0  0  0  0  0
  -29.5295  -20.9862   20.9945 C   0  0  0  0  0  0
  -29.7697  -19.7227   20.3981 C   0  0  0  0  0  0
  -29.8725  -22.1048   18.8481 C   0  0  0  0  0  0
  -30.0532  -20.8463   18.2251 C   0  0  0  0  0  0
  -29.5607  -22.1802   20.2314 C   0  0  0  0  0  0
  -28.7865  -17.3657   20.7272 C   0  0  0  0  0  0
  -31.1910  -17.7903   21.3369 C   0  0  0  0  0  0
  -28.8838  -16.0546   21.5396 C   0  0  0  0  0  0
  -31.1744  -16.4335   22.0956 C   0  0  0  0  0  0
  -29.7852  -18.4292   21.2341 C   0  0  0  0  0  0
  -30.0804  -23.3657   18.0186 C   0  0  0  0  0  0
  -30.2986  -19.5921   16.1844 C   0  0  0  0  0  0
  -28.4555  -25.6493   21.0756 C   0  0  0  0  0  0
  -28.2789  -24.2147   20.5106 C   0  0  0  0  0  0
  -30.2406  -15.4685   21.4742 N   0  0  0  0  0  0
  -30.2855  -20.8405   16.8646 O   0  0  0  0  0  0
  -29.3969  -23.3883   20.8834 O   0  0  0  0  0  0
  -31.4646  -12.4392   19.1305 H   0  0  0  0  0  0
  -30.3378  -11.3264   19.8287 H   0  0  0  0  0  0
  -29.7584  -11.7946   17.4337 H   0  0  0  0  0  0
  -29.6443  -13.5031   17.7726 H   0  0  0  0  0  0
  -27.8379  -11.2886   18.8065 H   0  0  0  0  0  0
  -27.3642  -12.6159   17.7809 H   0  0  0  0  0  0
  -27.6935  -14.2169   19.5324 H   0  0  0  0  0  0
  -28.7026  -11.9000   21.2741 H   0  0  0  0  0  0
  -28.4548  -13.4676   21.9212 H   0  0  0  0  0  0
  -25.2740   -9.5623   22.4789 H   0  0  0  0  0  0
  -23.9953   -7.4598   22.7494 H   0  0  0  0  0  0
  -21.0828   -8.8756   19.8934 H   0  0  0  0  0  0
  -22.3713  -10.9646   19.6158 H   0  0  0  0  0  0
  -21.1976   -7.6154   23.9729 H   0  0  0  0  0  0
  -21.1487   -6.0529   25.9086 H   0  0  0  0  0  0
  -22.0597   -2.7623   23.2835 H   0  0  0  0  0  0
  -22.4044  -11.9868   22.4748 H   0  0  0  0  0  0
  -21.1084  -13.1264   22.2588 H   0  0  0  0  0  0
  -24.6532  -15.8298   20.4961 H   0  0  0  0  0  0
  -26.2700  -15.6166   20.0524 H   0  0  0  0  0  0
  -26.7133  -32.5524   23.1163 H   0  0  0  0  0  0
  -25.0152  -33.9763   25.0554 H   0  0  0  0  0  0
  -22.6934  -31.3064   21.4078 H   0  0  0  0  0  0
  -23.3747  -35.9594   23.3290 H   0  0  0  0  0  0
  -24.3572  -36.8906   22.2061 H   0  0  0  0  0  0
  -23.7206  -37.6475   23.6661 H   0  0  0  0  0  0
  -26.0238  -31.5940   20.5740 H   0  0  0  0  0  0
  -26.8239  -30.9054   21.9588 H   0  0  0  0  0  0
  -28.1067  -29.1166   21.1493 H   0  0  0  0  0  0
  -26.0724  -25.9498   19.0464 H   0  0  0  0  0  0
  -23.9800  -27.2744   19.0553 H   0  0  0  0  0  0
  -23.7113  -30.5856   19.4022 H   0  0  0  0  0  0
  -22.7360  -29.2292   19.8764 H   0  0  0  0  0  0
  -25.1282  -36.1944   25.0844 H   0  0  0  0  0  0
  -20.9952  -28.3170   24.1429 H   0  0  0  0  0  0
  -20.5651  -26.2235   23.3582 H   0  0  0  0  0  0
  -21.6622  -26.7421   22.1176 H   0  0  0  0  0  0
  -19.6886  -25.6303   21.1194 H   0  0  0  0  0  0
  -19.6680  -27.3214   20.6741 H   0  0  0  0  0  0
  -17.4192  -26.6684   21.4004 H   0  0  0  0  0  0
  -18.0307  -26.0031   22.8984 H   0  0  0  0  0  0
  -19.7937  -30.7246   24.2277 H   0  0  0  0  0  0
  -17.5012  -31.6270   24.5137 H   0  0  0  0  0  0
  -15.5339  -30.2974   23.7683 H   0  0  0  0  0  0
  -15.8647  -28.0811   22.7082 H   0  0  0  0  0  0
  -24.6033  -30.6828   25.7721 H   0  0  0  0  0  0
  -24.8885  -32.2638   26.4914 H   0  0  0  0  0  0
  -25.8171  -30.8699   27.0146 H   0  0  0  0  0  0
  -26.2896  -29.6743   24.1136 H   0  0  0  0  0  0
  -27.4377  -29.7311   25.4341 H   0  0  0  0  0  0
  -27.8605  -30.4459   23.8959 H   0  0  0  0  0  0
  -27.2711  -33.3610   26.2001 H   0  0  0  0  0  0
  -28.3946  -32.6720   25.0366 H   0  0  0  0  0  0
  -28.0625  -31.8391   26.5476 H   0  0  0  0  0  0
  -28.2564  -38.0125   24.7544 H   0  0  0  0  0  0
  -28.1090  -36.2656   24.6301 H   0  0  0  0  0  0
  -27.2281  -37.1421   25.8886 H   0  0  0  0  0  0
  -20.9289  -29.8711   21.6934 H   0  0  0  0  0  0
  -26.0152  -38.2858   24.1415 H   0  0  0  0  0  0
  -30.1911  -18.7019   18.5624 H   0  0  0  0  0  0
  -29.3386  -21.0485   22.0565 H   0  0  0  0  0  0
  -27.7719  -17.7598   20.7878 H   0  0  0  0  0  0
  -28.9625  -17.1413   19.6748 H   0  0  0  0  0  0
  -31.5994  -17.6305   20.3387 H   0  0  0  0  0  0
  -31.8703  -18.4834   21.8351 H   0  0  0  0  0  0
  -28.0951  -15.4060   21.1987 H   0  0  0  0  0  0
  -28.6378  -16.2528   22.5840 H   0  0  0  0  0  0
  -30.8745  -16.5932   23.1325 H   0  0  0  0  0  0
  -32.1863  -16.0283   22.1558 H   0  0  0  0  0  0
  -29.4764  -18.6954   22.2464 H   0  0  0  0  0  0
  -30.8594  -23.2207   17.2699 H   0  0  0  0  0  0
  -30.3982  -24.2044   18.6380 H   0  0  0  0  0  0
  -29.1628  -23.6376   17.4980 H   0  0  0  0  0  0
  -30.3597  -19.7654   15.1106 H   0  0  0  0  0  0
  -29.3852  -19.0244   16.3710 H   0  0  0  0  0  0
  -31.1655  -18.9945   16.4714 H   0  0  0  0  0  0
  -29.4419  -25.7295   21.5348 H   0  0  0  0  0  0
  -27.7468  -25.8188   21.8888 H   0  0  0  0  0  0
  -28.1234  -24.2620   19.4365 H   0  0  0  0  0  0
  -27.3707  -23.7711   20.9186 H   0  0  0  0  0  0
  1 25  1  0  0  0
  1 30  2  0  0  0
  1 86  1  0  0  0
  2  3  1  0  0  0
  2 25  1  0  0  0
  2 89  1  0  0  0
  2 90  1  0  0  0
  3  4  1  0  0  0
  3 91  1  0  0  0
  3 92  1  0  0  0
  4  5  1  0  0  0
  4 93  1  0  0  0
  4 94  1  0  0  0
  5  6  1  0  0  0
  5 26  1  0  0  0
  5 95  1  0  0  0
  6 25  1  0  0  0
  6 96  1  0  0  0
  6 97  1  0  0  0
  7  8  2  0  0  0
  7 26  1  0  0  0
  7 29  1  0  0  0
  8  9  1  0  0  0
  8 22  1  0  0  0
  9 10  1  0  0  0
  9 27  2  0  0  0
 10 11  2  0  0  0
 10 15  1  0  0  0
 11 12  1  0  0  0
 11 98  1  0  0  0
 12 13  2  0  0  0
 12 99  1  0  0  0
 13 14  1  0  0  0
 13 31  1  0  0  0
 14 15  2  0  0  0
 14100  1  0  0  0
 15101  1  0  0  0
 16 17  2  0  0  0
 16 21  1  0  0  0
 16 31  1  0  0  0
 17 18  1  0  0  0
 17102  1  0  0  0
 18 19  2  0  0  0
 18103  1  0  0  0
 19 20  1  0  0  0
 19 24  1  0  0  0
 20 21  2  0  0  0
 20104  1  0  0  0
 21 23  1  0  0  0
 22 28  1  0  0  0
 22 32  2  0  0  0
 26 27  1  0  0  0
 28105  1  0  0  0
 28106  1  0  0  0
 29107  1  0  0  0
 29108  1  0  0  0
 33 34  1  0  0  0
 33 66  1  0  0  0
 33 70  2  0  0  0
 34 36  1  0  0  0
 34 59  1  0  0  0
 34109  1  0  0  0
 35 44  2  0  0  0
 35 45  1  0  0  0
 35 68  1  0  0  0
 36 56  1  0  0  0
 36110  1  0  0  0
 37 39  1  0  0  0
 37 47  1  0  0  0
 37 66  1  0  0  0
 37111  1  0  0  0
 38 43  2  0  0  0
 38 46  1  0  0  0
 38 47  1  0  0  0
 39 64  1  0  0  0
 39 67  2  0  0  0
 40 52  1  0  0  0
 40 53  2  0  0  0
 40 58  1  0  0  0
 41112  1  0  0  0
 41113  1  0  0  0
 41114  1  0  0  0
 41 48  1  0  0  0
 42 43  1  0  0  0
 42 66  1  0  0  0
 42115  1  0  0  0
 42116  1  0  0  0
 43 44  1  0  0  0
 44117  1  0  0  0
 45 46  2  0  0  0
 45118  1  0  0  0
 46119  1  0  0  0
 47120  1  0  0  0
 47121  1  0  0  0
 48 56  1  0  0  0
 48 65  1  0  0  0
 48122  1  0  0  0
 49 50  1  0  0  0
 49 53  1  0  0  0
 49 64  1  0  0  0
 49123  1  0  0  0
 50 51  1  0  0  0
 50124  1  0  0  0
 50125  1  0  0  0
 51 52  1  0  0  0
 51126  1  0  0  0
 51127  1  0  0  0
 52128  1  0  0  0
 52129  1  0  0  0
 53 54  1  0  0  0
 54 55  2  0  0  0
 54130  1  0  0  0
 55 57  1  0  0  0
 55131  1  0  0  0
 56 69  2  0  0  0
 57 58  2  0  0  0
 57132  1  0  0  0
 58133  1  0  0  0
 59 60  1  0  0  0
 59 61  1  0  0  0
 59 62  1  0  0  0
 60134  1  0  0  0
 60135  1  0  0  0
 60136  1  0  0  0
 61137  1  0  0  0
 61138  1  0  0  0
 61139  1  0  0  0
 62140  1  0  0  0
 62141  1  0  0  0
 62142  1  0  0  0
 63 65  1  0  0  0
 63143  1  0  0  0
 63144  1  0  0  0
 63145  1  0  0  0
 64146  1  0  0  0
 65147  1  0  0  0
 68 84  1  0  0  0
 71 73  2  0  0  0
 71 75  1  0  0  0
 71148  1  0  0  0
 72 73  1  0  0  0
 72 76  2  0  0  0
 72149  1  0  0  0
 73 81  1  0  0  0
 74 75  2  0  0  0
 74 76  1  0  0  0
 74 82  1  0  0  0
 75 87  1  0  0  0
 76 88  1  0  0  0
 77 79  1  0  0  0
 77 81  1  0  0  0
 77150  1  0  0  0
 77151  1  0  0  0
 78 80  1  0  0  0
 78 81  1  0  0  0
 78152  1  0  0  0
 78153  1  0  0  0
 79 86  1  0  0  0
 79154  1  0  0  0
 79155  1  0  0  0
 80 86  1  0  0  0
 80156  1  0  0  0
 80157  1  0  0  0
 81158  1  0  0  0
 82159  1  0  0  0
 82160  1  0  0  0
 82161  1  0  0  0
 83 87  1  0  0  0
 83162  1  0  0  0
 83163  1  0  0  0
 83164  1  0  0  0
 84 85  1  0  0  0
 84165  1  0  0  0
 84166  1  0  0  0
 85 88  1  0  0  0
 85167  1  0  0  0
 85168  1  0  0  0
M  ISO  4   1 100  68 101  84 101  86 100
M  END
> <chiral flag>
0

> <version>
0

> <s_m_source_file>
/data/baiqing/PycharmProjects/Reinvent-master-3.2/result/LINK_invent/BTK/process_docking_weight1_custom_sum_contain_oxygen_bond_distance_aromatic_linkinvent_7_9_3/rearranged_h_0157.sdf

> <i_m_source_file_index>
67

> <r_mmod_Potential_Energy-OPLS-2005>
200.247375488281

> <r_mmod_Stretch_Energy-OPLS-2005>
47.6209831237793

> <r_mmod_Bend_Energy-OPLS-2005>
127.137893676758

> <r_mmod_Torsional_Energy-OPLS-2005>
344.810943603516

> <r_mmod_Improper_Torsional_Energy-OPLS-2005>
4.307541847229

> <r_mmod_Van_der_Waal_Energy-OPLS-2005>
169.561965942383

> <r_mmod_Electrostatic_Energy-OPLS-2005>
-302.409210205078

> <r_mmod_Solvation_Energy-OPLS-2005>
-203.697769165039

> <b_mmod_Minimization_Converged-OPLS-2005>
0

> <r_mmod_RMS_Derivative-OPLS-2005>
2.05200266838074

$$$$
67
                    3D
 Structure written by MMmdl.
166174  0  0  1  0            999 V2000
  -30.6963  -14.4961   20.6261 C   0  0  0  0  0  0
  -30.4292  -12.3553   19.4021 C   0  0  0  0  0  0
  -29.4877  -12.5161   18.1918 C   0  0  0  0  0  0
  -28.0120  -12.3676   18.6081 C   0  0  0  0  0  0
  -27.6547  -13.2120   19.8600 C   0  0  2  0  0  0
  -28.6964  -12.9962   20.9794 C   0  0  0  0  0  0
  -25.2571  -13.8173   20.5683 C   0  0  0  0  0  0
  -24.1829  -13.0442   20.9205 C   0  0  0  0  0  0
  -24.6384  -11.6914   20.8720 C   0  0  0  0  0  0
  -23.9044  -10.4300   21.0397 C   0  0  0  0  0  0
  -24.3597   -9.4221   21.9178 C   0  0  0  0  0  0
  -23.6286   -8.2241   22.0746 C   0  0  0  0  0  0
  -22.4275   -8.0266   21.3525 C   0  0  0  0  0  0
  -21.9901   -9.0240   20.4637 C   0  0  0  0  0  0
  -22.7218  -10.2123   20.3054 C   0  0  0  0  0  0
  -21.6844   -6.0730   22.5276 C   0  0  0  0  0  0
  -21.4002   -6.5637   23.8204 C   0  0  0  0  0  0
  -21.3657   -5.6797   24.9169 C   0  0  0  0  0  0
  -21.6046   -4.3061   24.7226 C   0  0  0  0  0  0
  -21.8827   -3.8142   23.4351 C   0  0  0  0  0  0
  -21.9200   -4.6959   22.3401 C   0  0  0  0  0  0
  -22.7861  -13.5231   21.1868 C   0  0  0  0  0  0
  -22.1678   -4.2138   21.0985 F   0  0  0  0  0  0
  -21.5625   -3.4551   25.7740 F   0  0  0  0  0  0
  -30.0225  -13.3283   20.4295 N   0  0  0  0  0  0
  -26.2978  -12.9338   20.3278 N   0  0  0  0  0  0
  -25.9294  -11.6504   20.5706 N   0  0  0  0  0  0
  -22.0498  -12.8213   22.0429 N   0  0  0  0  0  0
  -25.4315  -15.1883   20.4097 N   0  0  0  0  0  0
  -31.8131  -14.7066   20.1441 O   0  0  0  0  0  0
  -21.6650   -6.8852   21.4226 O   0  0  0  0  0  0
  -22.3548  -14.5535   20.6725 O   0  0  0  0  0  0
  -24.6171  -31.8642   23.2059 C   0  0  0  0  0  0
  -25.9016  -32.4819   23.8402 C   0  0  1  0  0  0
  -27.2346  -27.4036   20.1159 C   0  0  0  0  0  0
  -25.5810  -33.8620   24.2303 N   0  0  0  0  0  0
  -23.4114  -30.4838   21.5456 C   0  0  2  0  0  0
  -24.8602  -28.9471   20.1118 C   0  0  0  0  0  0
  -22.7439  -29.4623   22.4945 C   0  0  0  0  0  0
  -18.0257  -28.1391   22.8460 C   0  0  0  0  0  0
  -24.1455  -36.7361   23.2657 C   0  0  0  0  0  0
  -25.9391  -30.8273   21.3580 C   0  0  0  0  0  0
  -26.0217  -29.4564   20.7089 C   0  0  0  0  0  0
  -27.2147  -28.6924   20.7059 C   0  0  0  0  0  0
  -26.0579  -26.9120   19.5154 C   0  0  0  0  0  0
  -24.8737  -27.6754   19.5118 C   0  0  0  0  0  0
  -23.6233  -29.8175   20.1593 C   0  0  0  0  0  0
  -25.4075  -36.3134   24.0342 C   0  0  1  0  0  0
  -20.5865  -28.3684   23.1281 C   0  0  2  0  0  0
  -20.6763  -26.9409   22.5424 C   0  0  0  0  0  0
  -19.5745  -26.6376   21.5219 C   0  0  0  0  0  0
  -18.1899  -26.7930   22.1602 C   0  0  0  0  0  0
  -19.1522  -28.8850   23.2848 C   0  0  0  0  0  0
  -18.9469  -30.1457   23.8849 C   0  0  0  0  0  0
  -17.6475  -30.6595   24.0561 C   0  0  0  0  0  0
  -25.9013  -34.9482   23.5145 C   0  0  0  0  0  0
  -16.5349  -29.9097   23.6364 C   0  0  0  0  0  0
  -16.7245  -28.6529   23.0348 C   0  0  0  0  0  0
  -26.4401  -31.6640   25.0763 C   0  0  0  0  0  0
  -25.3615  -31.3787   26.1485 C   0  0  0  0  0  0
  -27.0277  -30.3078   24.6219 C   0  0  0  0  0  0
  -27.5973  -32.4387   25.7518 C   0  0  0  0  0  0
  -27.5556  -37.1810   24.8451 C   0  0  0  0  0  0
  -21.4170  -29.3029   22.3675 N   0  0  0  0  0  0
  -26.4271  -37.3809   23.9414 N   0  0  0  0  0  0
  -24.6753  -31.0723   22.0965 N   0  0  0  0  0  0
  -23.4176  -28.8159   23.3004 O   0  0  0  0  0  0
  -28.3646  -26.6105   20.1276 O   0  0  0  0  0  0
  -26.5644  -34.8939   22.4752 O   0  0  0  0  0  0
  -23.5340  -32.1415   23.7416 O   0  0  0  0  0  0
  -29.2547  -21.1365   20.0969 C   0  0  0  0  0  0
  -29.8414  -19.8465   20.0499 C   0  0  0  0  0  0
  -30.1959  -19.9325   22.4621 C   0  0  0  0  0  0
  -30.3157  -19.2056   21.2352 C   0  0  0  0  0  0
  -29.5350  -21.1977   22.5036 C   0  0  0  0  0  0
  -29.0987  -21.8307   21.3149 C   0  0  0  0  0  0
  -29.9828  -19.2042   18.6752 C   0  0  0  0  0  0
  -30.8400  -19.3969   23.7377 C   0  0  0  0  0  0
  -29.3130  -21.9232   23.8286 C   0  0  0  0  0  0
  -31.6061  -16.1548   23.0783 C   0  0  0  0  0  0
  -31.0380  -17.8185   21.1493 C   0  0  0  0  0  0
  -28.2685  -25.4462   20.9852 C   0  0  0  0  0  0
  -28.5964  -24.0548   20.3588 C   0  0  0  0  0  0
  -30.5434  -16.6316   22.0588 C   0  0  1  0  0  0
  -30.0387  -15.4314   21.3488 N   0  0  0  0  0  0
  -28.5239  -23.0899   21.4237 O   0  0  0  0  0  0
  -31.4642  -12.4939   19.0824 H   0  0  0  0  0  0
  -30.3735  -11.3416   19.8018 H   0  0  0  0  0  0
  -29.7348  -11.7818   17.4242 H   0  0  0  0  0  0
  -29.6440  -13.4947   17.7357 H   0  0  0  0  0  0
  -27.8261  -11.3106   18.8061 H   0  0  0  0  0  0
  -27.3603  -12.6362   17.7760 H   0  0  0  0  0  0
  -27.6934  -14.2597   19.5594 H   0  0  0  0  0  0
  -28.6878  -11.9572   21.3111 H   0  0  0  0  0  0
  -28.4362  -13.5827   21.8614 H   0  0  0  0  0  0
  -25.2724   -9.5718   22.4772 H   0  0  0  0  0  0
  -24.0002   -7.4639   22.7474 H   0  0  0  0  0  0
  -21.0822   -8.8741   19.8950 H   0  0  0  0  0  0
  -22.3646  -10.9658   19.6177 H   0  0  0  0  0  0
  -21.1986   -7.6148   23.9684 H   0  0  0  0  0  0
  -21.1472   -6.0541   25.9060 H   0  0  0  0  0  0
  -22.0607   -2.7609   23.2861 H   0  0  0  0  0  0
  -22.4101  -11.9898   22.4857 H   0  0  0  0  0  0
  -21.1081  -13.1210   22.2573 H   0  0  0  0  0  0
  -24.6704  -15.8496   20.5279 H   0  0  0  0  0  0
  -26.2848  -15.6230   20.0803 H   0  0  0  0  0  0
  -26.7113  -32.5527   23.1202 H   0  0  0  0  0  0
  -24.9776  -33.9783   25.0314 H   0  0  0  0  0  0
  -22.6997  -31.2993   21.4006 H   0  0  0  0  0  0
  -23.3701  -35.9712   23.3340 H   0  0  0  0  0  0
  -24.3528  -36.8987   22.2071 H   0  0  0  0  0  0
  -23.7225  -37.6569   23.6675 H   0  0  0  0  0  0
  -26.0412  -31.5889   20.5827 H   0  0  0  0  0  0
  -26.8288  -30.8922   21.9736 H   0  0  0  0  0  0
  -28.1095  -29.0682   21.1838 H   0  0  0  0  0  0
  -26.0556  -25.9278   19.0677 H   0  0  0  0  0  0
  -23.9791  -27.2748   19.0567 H   0  0  0  0  0  0
  -23.7348  -30.5929   19.4000 H   0  0  0  0  0  0
  -22.7470  -29.2390   19.8613 H   0  0  0  0  0  0
  -25.1234  -36.2027   25.0833 H   0  0  0  0  0  0
  -20.9917  -28.3287   24.1428 H   0  0  0  0  0  0
  -20.5700  -26.2277   23.3619 H   0  0  0  0  0  0
  -21.6626  -26.7485   22.1179 H   0  0  0  0  0  0
  -19.6957  -25.6291   21.1251 H   0  0  0  0  0  0
  -19.6727  -27.3190   20.6745 H   0  0  0  0  0  0
  -17.4193  -26.6669   21.3979 H   0  0  0  0  0  0
  -18.0274  -26.0089   22.9010 H   0  0  0  0  0  0
  -19.7972  -30.7243   24.2195 H   0  0  0  0  0  0
  -17.5073  -31.6272   24.5175 H   0  0  0  0  0  0
  -15.5368  -30.2974   23.7771 H   0  0  0  0  0  0
  -15.8635  -28.0851   22.7086 H   0  0  0  0  0  0
  -24.5806  -30.7115   25.7808 H   0  0  0  0  0  0
  -24.8755  -32.2943   26.4867 H   0  0  0  0  0  0
  -25.7887  -30.9004   27.0309 H   0  0  0  0  0  0
  -26.2871  -29.6775   24.1271 H   0  0  0  0  0  0
  -27.3998  -29.7385   25.4750 H   0  0  0  0  0  0
  -27.8697  -30.4379   23.9418 H   0  0  0  0  0  0
  -27.2599  -33.3695   26.2104 H   0  0  0  0  0  0
  -28.3747  -32.6956   25.0310 H   0  0  0  0  0  0
  -28.0670  -31.8525   26.5432 H   0  0  0  0  0  0
  -28.2567  -38.0108   24.7498 H   0  0  0  0  0  0
  -28.1047  -36.2632   24.6257 H   0  0  0  0  0  0
  -27.2276  -37.1455   25.8855 H   0  0  0  0  0  0
  -20.9352  -29.8761   21.6899 H   0  0  0  0  0  0
  -26.0174  -38.2894   24.1441 H   0  0  0  0  0  0
  -28.9050  -21.5909   19.1822 H   0  0  0  0  0  0
  -29.6653  -19.8833   17.8826 H   0  0  0  0  0  0
  -29.3722  -18.3037   18.5976 H   0  0  0  0  0  0
  -31.0228  -18.9508   18.4645 H   0  0  0  0  0  0
  -31.8495  -19.0500   23.5253 H   0  0  0  0  0  0
  -30.2519  -18.5857   24.1671 H   0  0  0  0  0  0
  -30.9739  -20.1505   24.5118 H   0  0  0  0  0  0
  -30.2135  -22.4665   24.1148 H   0  0  0  0  0  0
  -29.0438  -21.2304   24.6265 H   0  0  0  0  0  0
  -28.4937  -22.6389   23.7774 H   0  0  0  0  0  0
  -31.8717  -16.9069   23.8158 H   0  0  0  0  0  0
  -32.5325  -15.8582   22.5848 H   0  0  0  0  0  0
  -31.2450  -15.2942   23.6430 H   0  0  0  0  0  0
  -32.0868  -18.0176   21.3714 H   0  0  0  0  0  0
  -31.0667  -17.4557   20.1250 H   0  0  0  0  0  0
  -28.9686  -25.6117   21.8051 H   0  0  0  0  0  0
  -27.2901  -25.3854   21.4654 H   0  0  0  0  0  0
  -29.5911  -24.0586   19.9113 H   0  0  0  0  0  0
  -27.8816  -23.8063   19.5741 H   0  0  0  0  0  0
  -29.6835  -16.9874   22.6283 H   0  0  0  0  0  0
  -29.0916  -15.1757   21.5860 H   0  0  0  0  0  0
  1 25  1  0  0  0
  1 30  2  0  0  0
  1 85  1  0  0  0
  2  3  1  0  0  0
  2 25  1  0  0  0
  2 87  1  0  0  0
  2 88  1  0  0  0
  3  4  1  0  0  0
  3 89  1  0  0  0
  3 90  1  0  0  0
  4  5  1  0  0  0
  4 91  1  0  0  0
  4 92  1  0  0  0
  5  6  1  0  0  0
  5 26  1  0  0  0
  5 93  1  0  0  0
  6 25  1  0  0  0
  6 94  1  0  0  0
  6 95  1  0  0  0
  7  8  2  0  0  0
  7 26  1  0  0  0
  7 29  1  0  0  0
  8  9  1  0  0  0
  8 22  1  0  0  0
  9 10  1  0  0  0
  9 27  2  0  0  0
 10 11  2  0  0  0
 10 15  1  0  0  0
 11 12  1  0  0  0
 11 96  1  0  0  0
 12 13  2  0  0  0
 12 97  1  0  0  0
 13 14  1  0  0  0
 13 31  1  0  0  0
 14 15  2  0  0  0
 14 98  1  0  0  0
 15 99  1  0  0  0
 16 17  2  0  0  0
 16 21  1  0  0  0
 16 31  1  0  0  0
 17 18  1  0  0  0
 17100  1  0  0  0
 18 19  2  0  0  0
 18101  1  0  0  0
 19 20  1  0  0  0
 19 24  1  0  0  0
 20 21  2  0  0  0
 20102  1  0  0  0
 21 23  1  0  0  0
 22 28  1  0  0  0
 22 32  2  0  0  0
 26 27  1  0  0  0
 28103  1  0  0  0
 28104  1  0  0  0
 29105  1  0  0  0
 29106  1  0  0  0
 33 34  1  0  0  0
 33 66  1  0  0  0
 33 70  2  0  0  0
 34 36  1  0  0  0
 34 59  1  0  0  0
 34107  1  0  0  0
 35 44  2  0  0  0
 35 45  1  0  0  0
 35 68  1  0  0  0
 36 56  1  0  0  0
 36108  1  0  0  0
 37 39  1  0  0  0
 37 47  1  0  0  0
 37 66  1  0  0  0
 37109  1  0  0  0
 38 43  2  0  0  0
 38 46  1  0  0  0
 38 47  1  0  0  0
 39 64  1  0  0  0
 39 67  2  0  0  0
 40 52  1  0  0  0
 40 53  2  0  0  0
 40 58  1  0  0  0
 41110  1  0  0  0
 41111  1  0  0  0
 41112  1  0  0  0
 41 48  1  0  0  0
 42 43  1  0  0  0
 42 66  1  0  0  0
 42113  1  0  0  0
 42114  1  0  0  0
 43 44  1  0  0  0
 44115  1  0  0  0
 45 46  2  0  0  0
 45116  1  0  0  0
 46117  1  0  0  0
 47118  1  0  0  0
 47119  1  0  0  0
 48 56  1  0  0  0
 48 65  1  0  0  0
 48120  1  0  0  0
 49 50  1  0  0  0
 49 53  1  0  0  0
 49 64  1  0  0  0
 49121  1  0  0  0
 50 51  1  0  0  0
 50122  1  0  0  0
 50123  1  0  0  0
 51 52  1  0  0  0
 51124  1  0  0  0
 51125  1  0  0  0
 52126  1  0  0  0
 52127  1  0  0  0
 53 54  1  0  0  0
 54 55  2  0  0  0
 54128  1  0  0  0
 55 57  1  0  0  0
 55129  1  0  0  0
 56 69  2  0  0  0
 57 58  2  0  0  0
 57130  1  0  0  0
 58131  1  0  0  0
 59 60  1  0  0  0
 59 61  1  0  0  0
 59 62  1  0  0  0
 60132  1  0  0  0
 60133  1  0  0  0
 60134  1  0  0  0
 61135  1  0  0  0
 61136  1  0  0  0
 61137  1  0  0  0
 62138  1  0  0  0
 62139  1  0  0  0
 62140  1  0  0  0
 63 65  1  0  0  0
 63141  1  0  0  0
 63142  1  0  0  0
 63143  1  0  0  0
 64144  1  0  0  0
 65145  1  0  0  0
 68 82  1  0  0  0
 71 72  2  0  0  0
 71 76  1  0  0  0
 71146  1  0  0  0
 72 74  1  0  0  0
 72 77  1  0  0  0
 73 74  2  0  0  0
 73 75  1  0  0  0
 73 78  1  0  0  0
 74 81  1  0  0  0
 75 76  2  0  0  0
 75 79  1  0  0  0
 76 86  1  0  0  0
 77147  1  0  0  0
 77148  1  0  0  0
 77149  1  0  0  0
 78150  1  0  0  0
 78151  1  0  0  0
 78152  1  0  0  0
 79153  1  0  0  0
 79154  1  0  0  0
 79155  1  0  0  0
 80156  1  0  0  0
 80157  1  0  0  0
 80158  1  0  0  0
 80 84  1  0  0  0
 81 84  1  0  0  0
 81159  1  0  0  0
 81160  1  0  0  0
 82 83  1  0  0  0
 82161  1  0  0  0
 82162  1  0  0  0
 83 86  1  0  0  0
 83163  1  0  0  0
 83164  1  0  0  0
 84 85  1  0  0  0
 84165  1  0  0  0
 85166  1  0  0  0
M  ISO  4   1 100  68 101  82 101  85 100
M  END
> <chiral flag>
0

> <version>
0

> <s_m_source_file>
/data/baiqing/PycharmProjects/Reinvent-master-3.2/result/LINK_invent/BTK/process_docking_weight1_custom_sum_contain_oxygen_bond_distance_aromatic_linkinvent_7_9_3/rearranged_h_0157.sdf

> <i_m_source_file_index>
68

> <r_mmod_Potential_Energy-OPLS-2005>
-0.543575406074524

> <r_mmod_Stretch_Energy-OPLS-2005>
52.5826606750488

> <r_mmod_Bend_Energy-OPLS-2005>
124.821701049805

> <r_mmod_Torsional_Energy-OPLS-2005>
240.409805297852

> <r_mmod_Improper_Torsional_Energy-OPLS-2005>
2.71101546287537

> <r_mmod_Van_der_Waal_Energy-OPLS-2005>
161.730560302734

> <r_mmod_Electrostatic_Energy-OPLS-2005>
-397.643615722656

> <r_mmod_Solvation_Energy-OPLS-2005>
-203.455444335938

> <b_mmod_Minimization_Converged-OPLS-2005>
0

> <r_mmod_RMS_Derivative-OPLS-2005>
3.5793149471283

$$$$
68
                    3D
 Structure written by MMmdl.
170179  0  0  1  0            999 V2000
  -30.7309  -14.6106   20.5425 C   0  0  0  0  0  0
  -30.4077  -12.3898   19.4714 C   0  0  0  0  0  0
  -29.4981  -12.4977   18.2317 C   0  0  0  0  0  0
  -28.0248  -12.3175   18.6394 C   0  0  0  0  0  0
  -27.6389  -13.2064   19.8468 C   0  0  2  0  0  0
  -28.6846  -13.1354   20.9900 C   0  0  0  0  0  0
  -25.2501  -13.8126   20.5661 C   0  0  0  0  0  0
  -24.1784  -13.0424   20.9221 C   0  0  0  0  0  0
  -24.6363  -11.6897   20.8754 C   0  0  0  0  0  0
  -23.9041  -10.4281   21.0408 C   0  0  0  0  0  0
  -24.3606   -9.4203   21.9185 C   0  0  0  0  0  0
  -23.6279   -8.2243   22.0757 C   0  0  0  0  0  0
  -22.4253   -8.0293   21.3552 C   0  0  0  0  0  0
  -21.9895   -9.0246   20.4635 C   0  0  0  0  0  0
  -22.7227  -10.2128   20.3047 C   0  0  0  0  0  0
  -21.6844   -6.0737   22.5284 C   0  0  0  0  0  0
  -21.3998   -6.5634   23.8219 C   0  0  0  0  0  0
  -21.3660   -5.6785   24.9175 C   0  0  0  0  0  0
  -21.6059   -4.3045   24.7219 C   0  0  0  0  0  0
  -21.8820   -3.8144   23.4330 C   0  0  0  0  0  0
  -21.9180   -4.6968   22.3402 C   0  0  0  0  0  0
  -22.7811  -13.5211   21.1872 C   0  0  0  0  0  0
  -22.1644   -4.2177   21.0976 F   0  0  0  0  0  0
  -21.5642   -3.4521   25.7716 F   0  0  0  0  0  0
  -30.0044  -13.4478   20.4256 N   0  0  0  0  0  0
  -26.2910  -12.9302   20.3250 N   0  0  0  0  0  0
  -25.9278  -11.6470   20.5746 N   0  0  0  0  0  0
  -22.0445  -12.8202   22.0417 N   0  0  0  0  0  0
  -25.4136  -15.1847   20.4014 N   0  0  0  0  0  0
  -31.8776  -14.6577   20.0884 O   0  0  0  0  0  0
  -21.6640   -6.8881   21.4244 O   0  0  0  0  0  0
  -22.3508  -14.5522   20.6701 O   0  0  0  0  0  0
  -24.6265  -31.8662   23.2122 C   0  0  0  0  0  0
  -25.9137  -32.4803   23.8434 C   0  0  1  0  0  0
  -27.2041  -27.3272   20.0977 C   0  0  0  0  0  0
  -25.5967  -33.8604   24.2350 N   0  0  0  0  0  0
  -23.4175  -30.4970   21.5556 C   0  0  2  0  0  0
  -24.8601  -28.9758   20.1065 C   0  0  0  0  0  0
  -22.7495  -29.4643   22.4956 C   0  0  0  0  0  0
  -18.0283  -28.1382   22.8471 C   0  0  0  0  0  0
  -24.1476  -36.7273   23.2613 C   0  0  0  0  0  0
  -25.9644  -30.7927   21.3934 C   0  0  0  0  0  0
  -26.0324  -29.4273   20.7260 C   0  0  0  0  0  0
  -27.2063  -28.6127   20.7235 C   0  0  0  0  0  0
  -26.0102  -26.9674   19.4133 C   0  0  0  0  0  0
  -24.8516  -27.7495   19.4422 C   0  0  0  0  0  0
  -23.6304  -29.8539   20.1645 C   0  0  0  0  0  0
  -25.4090  -36.3088   24.0336 C   0  0  1  0  0  0
  -20.5888  -28.3681   23.1264 C   0  0  2  0  0  0
  -20.6780  -26.9410   22.5385 C   0  0  0  0  0  0
  -19.5760  -26.6385   21.5189 C   0  0  0  0  0  0
  -18.1928  -26.7927   22.1595 C   0  0  0  0  0  0
  -19.1541  -28.8845   23.2863 C   0  0  0  0  0  0
  -18.9464  -30.1443   23.8899 C   0  0  0  0  0  0
  -17.6467  -30.6572   24.0563 C   0  0  0  0  0  0
  -25.9054  -34.9463   23.5133 C   0  0  0  0  0  0
  -16.5352  -29.9068   23.6351 C   0  0  0  0  0  0
  -16.7270  -28.6486   23.0358 C   0  0  0  0  0  0
  -26.4510  -31.6583   25.0790 C   0  0  0  0  0  0
  -25.3735  -31.3719   26.1506 C   0  0  0  0  0  0
  -27.0337  -30.2983   24.6264 C   0  0  0  0  0  0
  -27.6084  -32.4291   25.7561 C   0  0  0  0  0  0
  -27.5619  -37.1737   24.8409 C   0  0  0  0  0  0
  -21.4208  -29.3048   22.3687 N   0  0  0  0  0  0
  -26.4234  -37.3819   23.9500 N   0  0  0  0  0  0
  -24.6874  -31.0684   22.1083 N   0  0  0  0  0  0
  -23.4221  -28.8160   23.3012 O   0  0  0  0  0  0
  -28.2804  -26.4156   20.1851 O   0  0  0  0  0  0
  -26.5618  -34.8928   22.4692 O   0  0  0  0  0  0
  -23.5429  -32.1471   23.7433 O   0  0  0  0  0  0
  -29.5000  -23.5269   21.2264 C   0  0  0  0  0  0
  -28.8087  -21.2599   19.7214 C   0  0  0  0  0  0
  -28.6784  -23.7181   20.0892 C   0  0  0  0  0  0
  -29.9463  -22.2242   21.6247 C   0  0  0  0  0  0
  -28.3458  -22.5466   19.3424 C   0  0  0  0  0  0
  -29.5912  -21.0575   20.8784 C   0  0  0  0  0  0
  -31.4966  -17.8970   20.9163 C   0  0  0  0  0  0
  -29.1382  -17.7063   20.0305 C   0  0  0  0  0  0
  -31.1475  -16.6954   21.8428 C   0  0  0  0  0  0
  -28.9713  -16.4531   20.9511 C   0  0  0  0  0  0
  -30.2782  -18.7059   20.3982 C   0  0  0  0  0  0
  -27.4161  -22.6233   18.1379 C   0  0  0  0  0  0
  -30.2469  -22.7764   24.1046 C   0  0  0  0  0  0
  -32.2630  -22.5802   22.5701 C   0  0  0  0  0  0
  -27.9517  -25.0526   19.7193 C   0  0  0  0  0  0
  -30.8373  -22.0874   22.8620 C   0  0  0  0  0  0
  -30.2370  -15.7237   21.1958 N   0  0  0  0  0  0
  -29.9499  -19.7759   21.3285 O   0  0  0  0  0  0
  -31.4544  -12.4588   19.1736 H   0  0  0  0  0  0
  -30.3069  -11.4073   19.9361 H   0  0  0  0  0  0
  -29.7776  -11.7482   17.4898 H   0  0  0  0  0  0
  -29.6358  -13.4686   17.7534 H   0  0  0  0  0  0
  -27.8715  -11.2656   18.8819 H   0  0  0  0  0  0
  -27.3723  -12.5305   17.7923 H   0  0  0  0  0  0
  -27.6208  -14.2056   19.4245 H   0  0  0  0  0  0
  -28.6977  -12.1386   21.4350 H   0  0  0  0  0  0
  -28.4217  -13.8175   21.7998 H   0  0  0  0  0  0
  -25.2775   -9.5666   22.4725 H   0  0  0  0  0  0
  -23.9984   -7.4630   22.7472 H   0  0  0  0  0  0
  -21.0843   -8.8752   19.8928 H   0  0  0  0  0  0
  -22.3706  -10.9642   19.6111 H   0  0  0  0  0  0
  -21.1979   -7.6136   23.9722 H   0  0  0  0  0  0
  -21.1478   -6.0509   25.9075 H   0  0  0  0  0  0
  -22.0594   -2.7614   23.2813 H   0  0  0  0  0  0
  -22.4055  -11.9859   22.4798 H   0  0  0  0  0  0
  -21.1041  -13.1198   22.2601 H   0  0  0  0  0  0
  -24.6393  -15.8288   20.5203 H   0  0  0  0  0  0
  -26.2503  -15.6279   20.0494 H   0  0  0  0  0  0
  -26.7191  -32.5474   23.1165 H   0  0  0  0  0  0
  -25.0156  -33.9756   25.0527 H   0  0  0  0  0  0
  -22.7087  -31.3170   21.4230 H   0  0  0  0  0  0
  -23.3839  -35.9490   23.3058 H   0  0  0  0  0  0
  -24.3647  -36.9124   22.2087 H   0  0  0  0  0  0
  -23.7080  -37.6335   23.6778 H   0  0  0  0  0  0
  -26.1077  -31.5606   20.6324 H   0  0  0  0  0  0
  -26.8406  -30.8256   22.0290 H   0  0  0  0  0  0
  -28.0969  -28.9504   21.2338 H   0  0  0  0  0  0
  -25.9026  -26.0588   18.8417 H   0  0  0  0  0  0
  -23.9607  -27.4097   18.9322 H   0  0  0  0  0  0
  -23.7511  -30.6427   19.4207 H   0  0  0  0  0  0
  -22.7499  -29.2881   19.8528 H   0  0  0  0  0  0
  -25.1222  -36.1905   25.0814 H   0  0  0  0  0  0
  -20.9933  -28.3236   24.1399 H   0  0  0  0  0  0
  -20.5660  -26.2302   23.3586 H   0  0  0  0  0  0
  -21.6654  -26.7421   22.1185 H   0  0  0  0  0  0
  -19.6917  -25.6280   21.1257 H   0  0  0  0  0  0
  -19.6712  -27.3189   20.6716 H   0  0  0  0  0  0
  -17.4200  -26.6667   21.3996 H   0  0  0  0  0  0
  -18.0325  -26.0052   22.8971 H   0  0  0  0  0  0
  -19.7939  -30.7269   24.2272 H   0  0  0  0  0  0
  -17.5012  -31.6262   24.5130 H   0  0  0  0  0  0
  -15.5357  -30.2966   23.7674 H   0  0  0  0  0  0
  -15.8659  -28.0803   22.7086 H   0  0  0  0  0  0
  -24.5907  -30.7072   25.7836 H   0  0  0  0  0  0
  -24.8936  -32.2884   26.4955 H   0  0  0  0  0  0
  -25.8036  -30.8881   27.0280 H   0  0  0  0  0  0
  -26.2904  -29.6764   24.1262 H   0  0  0  0  0  0
  -27.3968  -29.7223   25.4792 H   0  0  0  0  0  0
  -27.8818  -30.4253   23.9533 H   0  0  0  0  0  0
  -27.2717  -33.3621   26.2104 H   0  0  0  0  0  0
  -28.3918  -32.6797   25.0392 H   0  0  0  0  0  0
  -28.0711  -31.8437   26.5518 H   0  0  0  0  0  0
  -28.2363  -38.0299   24.7848 H   0  0  0  0  0  0
  -28.1389  -36.2883   24.5687 H   0  0  0  0  0  0
  -27.2440  -37.0678   25.8801 H   0  0  0  0  0  0
  -20.9392  -29.8803   21.6921 H   0  0  0  0  0  0
  -26.0096  -38.2824   24.1753 H   0  0  0  0  0  0
  -29.7566  -24.3890   21.8253 H   0  0  0  0  0  0
  -28.5035  -20.4056   19.1356 H   0  0  0  0  0  0
  -32.0378  -17.5039   20.0560 H   0  0  0  0  0  0
  -32.1982  -18.5636   21.4190 H   0  0  0  0  0  0
  -28.1888  -18.2355   19.9505 H   0  0  0  0  0  0
  -29.3448  -17.3309   19.0259 H   0  0  0  0  0  0
  -30.6860  -17.0690   22.7591 H   0  0  0  0  0  0
  -32.0659  -16.2015   22.1668 H   0  0  0  0  0  0
  -28.2155  -15.8151   20.5233 H   0  0  0  0  0  0
  -28.5530  -16.7692   21.9090 H   0  0  0  0  0  0
  -30.5988  -19.1946   19.4762 H   0  0  0  0  0  0
  -27.1909  -21.6353   17.7344 H   0  0  0  0  0  0
  -27.8665  -23.2092   17.3366 H   0  0  0  0  0  0
  -26.4627  -23.0770   18.4099 H   0  0  0  0  0  0
  -29.2466  -22.4016   24.3240 H   0  0  0  0  0  0
  -30.1817  -23.8588   23.9911 H   0  0  0  0  0  0
  -30.8654  -22.5828   24.9822 H   0  0  0  0  0  0
  -32.7000  -22.0381   21.7304 H   0  0  0  0  0  0
  -32.9155  -22.4276   23.4308 H   0  0  0  0  0  0
  -32.2825  -23.6428   22.3248 H   0  0  0  0  0  0
  -26.9615  -24.7943   20.0978 H   0  0  0  0  0  0
  -27.9102  -25.1199   18.6321 H   0  0  0  0  0  0
  -30.9181  -21.0307   23.1171 H   0  0  0  0  0  0
  1 25  1  0  0  0
  1 30  2  0  0  0
  1 87  1  0  0  0
  2  3  1  0  0  0
  2 25  1  0  0  0
  2 89  1  0  0  0
  2 90  1  0  0  0
  3  4  1  0  0  0
  3 91  1  0  0  0
  3 92  1  0  0  0
  4  5  1  0  0  0
  4 93  1  0  0  0
  4 94  1  0  0  0
  5  6  1  0  0  0
  5 26  1  0  0  0
  5 95  1  0  0  0
  6 25  1  0  0  0
  6 96  1  0  0  0
  6 97  1  0  0  0
  7  8  2  0  0  0
  7 26  1  0  0  0
  7 29  1  0  0  0
  8  9  1  0  0  0
  8 22  1  0  0  0
  9 10  1  0  0  0
  9 27  2  0  0  0
 10 11  2  0  0  0
 10 15  1  0  0  0
 11 12  1  0  0  0
 11 98  1  0  0  0
 12 13  2  0  0  0
 12 99  1  0  0  0
 13 14  1  0  0  0
 13 31  1  0  0  0
 14 15  2  0  0  0
 14100  1  0  0  0
 15101  1  0  0  0
 16 17  2  0  0  0
 16 21  1  0  0  0
 16 31  1  0  0  0
 17 18  1  0  0  0
 17102  1  0  0  0
 18 19  2  0  0  0
 18103  1  0  0  0
 19 20  1  0  0  0
 19 24  1  0  0  0
 20 21  2  0  0  0
 20104  1  0  0  0
 21 23  1  0  0  0
 22 28  1  0  0  0
 22 32  2  0  0  0
 26 27  1  0  0  0
 28105  1  0  0  0
 28106  1  0  0  0
 29107  1  0  0  0
 29108  1  0  0  0
 33 34  1  0  0  0
 33 66  1  0  0  0
 33 70  2  0  0  0
 34 36  1  0  0  0
 34 59  1  0  0  0
 34109  1  0  0  0
 35 44  2  0  0  0
 35 45  1  0  0  0
 35 68  1  0  0  0
 36 56  1  0  0  0
 36110  1  0  0  0
 37 39  1  0  0  0
 37 47  1  0  0  0
 37 66  1  0  0  0
 37111  1  0  0  0
 38 43  2  0  0  0
 38 46  1  0  0  0
 38 47  1  0  0  0
 39 64  1  0  0  0
 39 67  2  0  0  0
 40 52  1  0  0  0
 40 53  2  0  0  0
 40 58  1  0  0  0
 41112  1  0  0  0
 41113  1  0  0  0
 41114  1  0  0  0
 41 48  1  0  0  0
 42 43  1  0  0  0
 42 66  1  0  0  0
 42115  1  0  0  0
 42116  1  0  0  0
 43 44  1  0  0  0
 44117  1  0  0  0
 45 46  2  0  0  0
 45118  1  0  0  0
 46119  1  0  0  0
 47120  1  0  0  0
 47121  1  0  0  0
 48 56  1  0  0  0
 48 65  1  0  0  0
 48122  1  0  0  0
 49 50  1  0  0  0
 49 53  1  0  0  0
 49 64  1  0  0  0
 49123  1  0  0  0
 50 51  1  0  0  0
 50124  1  0  0  0
 50125  1  0  0  0
 51 52  1  0  0  0
 51126  1  0  0  0
 51127  1  0  0  0
 52128  1  0  0  0
 52129  1  0  0  0
 53 54  1  0  0  0
 54 55  2  0  0  0
 54130  1  0  0  0
 55 57  1  0  0  0
 55131  1  0  0  0
 56 69  2  0  0  0
 57 58  2  0  0  0
 57132  1  0  0  0
 58133  1  0  0  0
 59 60  1  0  0  0
 59 61  1  0  0  0
 59 62  1  0  0  0
 60134  1  0  0  0
 60135  1  0  0  0
 60136  1  0  0  0
 61137  1  0  0  0
 61138  1  0  0  0
 61139  1  0  0  0
 62140  1  0  0  0
 62141  1  0  0  0
 62142  1  0  0  0
 63 65  1  0  0  0
 63143  1  0  0  0
 63144  1  0  0  0
 63145  1  0  0  0
 64146  1  0  0  0
 65147  1  0  0  0
 68 85  1  0  0  0
 71 73  2  0  0  0
 71 74  1  0  0  0
 71148  1  0  0  0
 72 75  2  0  0  0
 72 76  1  0  0  0
 72149  1  0  0  0
 73 75  1  0  0  0
 73 85  1  0  0  0
 74 76  2  0  0  0
 74 86  1  0  0  0
 75 82  1  0  0  0
 76 88  1  0  0  0
 77 79  1  0  0  0
 77 81  1  0  0  0
 77150  1  0  0  0
 77151  1  0  0  0
 78 80  1  0  0  0
 78 81  1  0  0  0
 78152  1  0  0  0
 78153  1  0  0  0
 79 87  1  0  0  0
 79154  1  0  0  0
 79155  1  0  0  0
 80 87  1  0  0  0
 80156  1  0  0  0
 80157  1  0  0  0
 81 88  1  0  0  0
 81158  1  0  0  0
 82159  1  0  0  0
 82160  1  0  0  0
 82161  1  0  0  0
 83162  1  0  0  0
 83163  1  0  0  0
 83164  1  0  0  0
 83 86  1  0  0  0
 84 86  1  0  0  0
 84165  1  0  0  0
 84166  1  0  0  0
 84167  1  0  0  0
 85168  1  0  0  0
 85169  1  0  0  0
 86170  1  0  0  0
M  ISO  4   1 100  68 101  85 101  87 100
M  END
> <chiral flag>
0

> <version>
0

> <s_m_source_file>
/data/baiqing/PycharmProjects/Reinvent-master-3.2/result/LINK_invent/BTK/process_docking_weight1_custom_sum_contain_oxygen_bond_distance_aromatic_linkinvent_7_9_3/rearranged_h_0157.sdf

> <i_m_source_file_index>
69

> <r_mmod_Potential_Energy-OPLS-2005>
333.539031982422

> <r_mmod_Stretch_Energy-OPLS-2005>
75.1363296508789

> <r_mmod_Bend_Energy-OPLS-2005>
181.101043701172

> <r_mmod_Torsional_Energy-OPLS-2005>
322.646728515625

> <r_mmod_Improper_Torsional_Energy-OPLS-2005>
4.7459659576416

> <r_mmod_Van_der_Waal_Energy-OPLS-2005>
173.182968139648

> <r_mmod_Electrostatic_Energy-OPLS-2005>
-280.512023925781

> <r_mmod_Solvation_Energy-OPLS-2005>
-196.93327331543

> <b_mmod_Minimization_Converged-OPLS-2005>
0

> <r_mmod_RMS_Derivative-OPLS-2005>
2.67386722564697

$$$$
69
                    3D
 Structure written by MMmdl.
179188  0  0  1  0            999 V2000
  -30.6759  -14.5578   20.5251 C   0  0  0  0  0  0
  -30.4253  -12.3474   19.4441 C   0  0  0  0  0  0
  -29.4985  -12.4989   18.2192 C   0  0  0  0  0  0
  -28.0211  -12.3514   18.6319 C   0  0  0  0  0  0
  -27.6553  -13.2145   19.8689 C   0  0  2  0  0  0
  -28.6996  -13.0501   20.9971 C   0  0  0  0  0  0
  -25.2554  -13.8167   20.5673 C   0  0  0  0  0  0
  -24.1826  -13.0429   20.9180 C   0  0  0  0  0  0
  -24.6395  -11.6905   20.8739 C   0  0  0  0  0  0
  -23.9066  -10.4285   21.0404 C   0  0  0  0  0  0
  -24.3620   -9.4202   21.9176 C   0  0  0  0  0  0
  -23.6296   -8.2239   22.0751 C   0  0  0  0  0  0
  -22.4278   -8.0278   21.3541 C   0  0  0  0  0  0
  -21.9914   -9.0246   20.4643 C   0  0  0  0  0  0
  -22.7240  -10.2127   20.3052 C   0  0  0  0  0  0
  -21.6853   -6.0737   22.5277 C   0  0  0  0  0  0
  -21.4015   -6.5640   23.8213 C   0  0  0  0  0  0
  -21.3660   -5.6794   24.9174 C   0  0  0  0  0  0
  -21.6044   -4.3057   24.7226 C   0  0  0  0  0  0
  -21.8822   -3.8150   23.4344 C   0  0  0  0  0  0
  -21.9193   -4.6963   22.3401 C   0  0  0  0  0  0
  -22.7847  -13.5220   21.1844 C   0  0  0  0  0  0
  -22.1663   -4.2149   21.0975 F   0  0  0  0  0  0
  -21.5631   -3.4541   25.7737 F   0  0  0  0  0  0
  -30.0224  -13.3627   20.4343 N   0  0  0  0  0  0
  -26.2996  -12.9354   20.3349 N   0  0  0  0  0  0
  -25.9326  -11.6509   20.5775 N   0  0  0  0  0  0
  -22.0509  -12.8202   22.0407 N   0  0  0  0  0  0
  -25.4251  -15.1886   20.4062 N   0  0  0  0  0  0
  -31.8287  -14.7039   20.1118 O   0  0  0  0  0  0
  -21.6644   -6.8874   21.4240 O   0  0  0  0  0  0
  -22.3527  -14.5530   20.6708 O   0  0  0  0  0  0
  -24.6216  -31.8631   23.2079 C   0  0  0  0  0  0
  -25.9084  -32.4797   23.8375 C   0  0  1  0  0  0
  -27.2281  -27.3817   20.1072 C   0  0  0  0  0  0
  -25.5918  -33.8594   24.2296 N   0  0  0  0  0  0
  -23.4106  -30.4887   21.5492 C   0  0  2  0  0  0
  -24.8557  -28.9523   20.1132 C   0  0  0  0  0  0
  -22.7438  -29.4639   22.4975 C   0  0  0  0  0  0
  -18.0269  -28.1377   22.8473 C   0  0  0  0  0  0
  -24.1493  -36.7311   23.2632 C   0  0  0  0  0  0
  -25.9447  -30.8151   21.3682 C   0  0  0  0  0  0
  -26.0214  -29.4469   20.7116 C   0  0  0  0  0  0
  -27.2110  -28.6714   20.7027 C   0  0  0  0  0  0
  -26.0398  -26.9237   19.4878 C   0  0  0  0  0  0
  -24.8623  -27.6928   19.4942 C   0  0  0  0  0  0
  -23.6223  -29.8261   20.1628 C   0  0  0  0  0  0
  -25.4116  -36.3098   24.0322 C   0  0  1  0  0  0
  -20.5865  -28.3665   23.1304 C   0  0  2  0  0  0
  -20.6771  -26.9406   22.5418 C   0  0  0  0  0  0
  -19.5753  -26.6383   21.5211 C   0  0  0  0  0  0
  -18.1918  -26.7919   22.1609 C   0  0  0  0  0  0
  -19.1521  -28.8845   23.2877 C   0  0  0  0  0  0
  -18.9455  -30.1446   23.8891 C   0  0  0  0  0  0
  -17.6462  -30.6585   24.0569 C   0  0  0  0  0  0
  -25.9052  -34.9462   23.5104 C   0  0  0  0  0  0
  -16.5354  -29.9087   23.6331 C   0  0  0  0  0  0
  -16.7263  -28.6511   23.0336 C   0  0  0  0  0  0
  -26.4502  -31.6596   25.0726 C   0  0  0  0  0  0
  -25.3751  -31.3722   26.1463 C   0  0  0  0  0  0
  -27.0324  -30.3030   24.6130 C   0  0  0  0  0  0
  -27.6075  -32.4312   25.7499 C   0  0  0  0  0  0
  -27.5584  -37.1801   24.8459 C   0  0  0  0  0  0
  -21.4164  -29.3024   22.3718 N   0  0  0  0  0  0
  -26.4296  -37.3783   23.9406 N   0  0  0  0  0  0
  -24.6770  -31.0704   22.1000 N   0  0  0  0  0  0
  -23.4190  -28.8178   23.3032 O   0  0  0  0  0  0
  -28.3700  -26.5852   20.1552 O   0  0  0  0  0  0
  -26.5624  -34.8929   22.4674 O   0  0  0  0  0  0
  -23.5399  -32.1398   23.7470 O   0  0  0  0  0  0
  -29.6495  -20.7365   17.4968 C   0  0  0  0  0  0
  -27.5614  -20.0653   18.5647 C   0  0  0  0  0  0
  -27.5132  -21.4633   16.5739 C   0  0  0  0  0  0
  -28.9730  -20.0435   18.5222 C   0  0  0  0  0  0
  -28.9220  -21.4542   16.5284 C   0  0  0  0  0  0
  -26.8191  -20.7747   17.5886 C   0  0  0  0  0  0
  -30.5087  -19.3372   22.0165 C   0  0  0  0  0  0
  -30.1521  -17.8282   22.1326 C   0  0  0  0  0  0
  -29.4129  -17.8274   19.7449 C   0  0  0  0  0  0
  -29.7686  -19.3479   19.6207 C   0  0  2  0  0  0
  -29.6628  -20.1186   20.9737 C   0  0  2  0  0  0
  -30.2844  -17.0746   20.7882 C   0  0  2  0  0  0
  -29.6591  -22.2378   15.4617 C   0  0  0  0  0  0
  -29.7637  -24.6584   22.0381 C   0  0  0  0  0  0
  -24.7214  -20.2293   18.6216 C   0  0  0  0  0  0
  -30.0709  -21.6486   20.9150 C   0  0  0  0  0  0
  -28.9552  -22.7032   20.5739 C   0  0  0  0  0  0
  -28.1570  -25.1439   20.1260 C   0  0  0  0  0  0
  -29.3301  -24.2331   20.6254 C   0  0  1  0  0  0
  -29.9311  -15.6275   20.9073 N   0  0  0  0  0  0
  -25.4437  -20.8523   17.5668 O   0  0  0  0  0  0
  -31.4696  -12.4486   19.1436 H   0  0  0  0  0  0
  -30.3362  -11.3497   19.8756 H   0  0  0  0  0  0
  -29.7486  -11.7546   17.4621 H   0  0  0  0  0  0
  -29.6547  -13.4739   17.7549 H   0  0  0  0  0  0
  -27.8441  -11.2976   18.8505 H   0  0  0  0  0  0
  -27.3694  -12.5998   17.7935 H   0  0  0  0  0  0
  -27.6818  -14.2532   19.5397 H   0  0  0  0  0  0
  -28.6929  -12.0289   21.3802 H   0  0  0  0  0  0
  -28.4582  -13.6872   21.8486 H   0  0  0  0  0  0
  -25.2767   -9.5684   22.4746 H   0  0  0  0  0  0
  -24.0011   -7.4634   22.7473 H   0  0  0  0  0  0
  -21.0849   -8.8760   19.8946 H   0  0  0  0  0  0
  -22.3695  -10.9664   19.6166 H   0  0  0  0  0  0
  -21.2010   -7.6152   23.9715 H   0  0  0  0  0  0
  -21.1480   -6.0525   25.9077 H   0  0  0  0  0  0
  -22.0601   -2.7608   23.2845 H   0  0  0  0  0  0
  -22.4153  -11.9862   22.4775 H   0  0  0  0  0  0
  -21.1126  -13.1211   22.2640 H   0  0  0  0  0  0
  -24.6536  -15.8387   20.5074 H   0  0  0  0  0  0
  -26.2704  -15.6264   20.0621 H   0  0  0  0  0  0
  -26.7152  -32.5508   23.1133 H   0  0  0  0  0  0
  -25.0069  -33.9729   25.0444 H   0  0  0  0  0  0
  -22.7019  -31.3081   21.4110 H   0  0  0  0  0  0
  -23.3758  -35.9638   23.3292 H   0  0  0  0  0  0
  -24.3586  -36.8946   22.2049 H   0  0  0  0  0  0
  -23.7246  -37.6502   23.6676 H   0  0  0  0  0  0
  -26.0635  -31.5803   20.5994 H   0  0  0  0  0  0
  -26.8293  -30.8663   21.9908 H   0  0  0  0  0  0
  -28.1073  -29.0406   21.1819 H   0  0  0  0  0  0
  -25.9940  -25.9628   18.9963 H   0  0  0  0  0  0
  -23.9681  -27.3074   19.0216 H   0  0  0  0  0  0
  -23.7367  -30.6036   19.4053 H   0  0  0  0  0  0
  -22.7440  -29.2523   19.8642 H   0  0  0  0  0  0
  -25.1290  -36.1950   25.0810 H   0  0  0  0  0  0
  -20.9937  -28.3254   24.1432 H   0  0  0  0  0  0
  -20.5692  -26.2278   23.3606 H   0  0  0  0  0  0
  -21.6638  -26.7458   22.1205 H   0  0  0  0  0  0
  -19.6940  -25.6297   21.1236 H   0  0  0  0  0  0
  -19.6709  -27.3199   20.6746 H   0  0  0  0  0  0
  -17.4197  -26.6658   21.4014 H   0  0  0  0  0  0
  -18.0318  -26.0062   22.9011 H   0  0  0  0  0  0
  -19.7938  -30.7236   24.2278 H   0  0  0  0  0  0
  -17.5028  -31.6265   24.5160 H   0  0  0  0  0  0
  -15.5355  -30.2990   23.7666 H   0  0  0  0  0  0
  -15.8660  -28.0850   22.7036 H   0  0  0  0  0  0
  -24.5928  -30.7061   25.7811 H   0  0  0  0  0  0
  -24.8941  -32.2883   26.4899 H   0  0  0  0  0  0
  -25.8076  -30.8909   27.0238 H   0  0  0  0  0  0
  -26.2859  -29.6793   24.1198 H   0  0  0  0  0  0
  -27.4083  -29.7278   25.4599 H   0  0  0  0  0  0
  -27.8712  -30.4329   23.9284 H   0  0  0  0  0  0
  -27.2695  -33.3624   26.2056 H   0  0  0  0  0  0
  -28.3904  -32.6832   25.0335 H   0  0  0  0  0  0
  -28.0711  -31.8433   26.5433 H   0  0  0  0  0  0
  -28.2587  -38.0117   24.7516 H   0  0  0  0  0  0
  -28.1084  -36.2633   24.6261 H   0  0  0  0  0  0
  -27.2293  -37.1425   25.8860 H   0  0  0  0  0  0
  -20.9349  -29.8755   21.6937 H   0  0  0  0  0  0
  -26.0188  -38.2854   24.1427 H   0  0  0  0  0  0
  -30.7313  -20.7464   17.4722 H   0  0  0  0  0  0
  -27.0692  -19.5511   19.3757 H   0  0  0  0  0  0
  -26.9532  -22.0139   15.8307 H   0  0  0  0  0  0
  -31.5669  -19.4353   21.7686 H   0  0  0  0  0  0
  -30.3887  -19.7995   22.9972 H   0  0  0  0  0  0
  -29.1342  -17.7315   22.5146 H   0  0  0  0  0  0
  -30.8020  -17.3669   22.8777 H   0  0  0  0  0  0
  -29.5342  -17.3541   18.7698 H   0  0  0  0  0  0
  -28.3598  -17.7169   20.0057 H   0  0  0  0  0  0
  -30.8164  -19.3849   19.3162 H   0  0  0  0  0  0
  -28.6272  -20.0749   21.3138 H   0  0  0  0  0  0
  -31.3254  -17.1558   20.4676 H   0  0  0  0  0  0
  -30.4869  -21.6552   15.0563 H   0  0  0  0  0  0
  -30.0659  -23.1554   15.8876 H   0  0  0  0  0  0
  -29.0002  -22.5086   14.6360 H   0  0  0  0  0  0
  -30.6583  -24.1280   22.3613 H   0  0  0  0  0  0
  -28.9768  -24.4711   22.7699 H   0  0  0  0  0  0
  -29.9948  -25.7234   22.0735 H   0  0  0  0  0  0
  -23.6521  -20.3625   18.4583 H   0  0  0  0  0  0
  -24.9654  -20.6758   19.5871 H   0  0  0  0  0  0
  -24.9130  -19.1562   18.6607 H   0  0  0  0  0  0
  -30.9065  -21.7741   20.2252 H   0  0  0  0  0  0
  -30.4726  -21.9139   21.8922 H   0  0  0  0  0  0
  -28.1076  -22.5311   21.2383 H   0  0  0  0  0  0
  -28.5802  -22.5002   19.5733 H   0  0  0  0  0  0
  -27.2823  -24.9018   20.7341 H   0  0  0  0  0  0
  -27.9172  -24.8548   19.1021 H   0  0  0  0  0  0
  -30.1741  -24.3949   19.9544 H   0  0  0  0  0  0
  -28.9957  -15.4136   21.2204 H   0  0  0  0  0  0
  1 25  1  0  0  0
  1 30  2  0  0  0
  1 90  1  0  0  0
  2  3  1  0  0  0
  2 25  1  0  0  0
  2 92  1  0  0  0
  2 93  1  0  0  0
  3  4  1  0  0  0
  3 94  1  0  0  0
  3 95  1  0  0  0
  4  5  1  0  0  0
  4 96  1  0  0  0
  4 97  1  0  0  0
  5  6  1  0  0  0
  5 26  1  0  0  0
  5 98  1  0  0  0
  6 25  1  0  0  0
  6 99  1  0  0  0
  6100  1  0  0  0
  7  8  2  0  0  0
  7 26  1  0  0  0
  7 29  1  0  0  0
  8  9  1  0  0  0
  8 22  1  0  0  0
  9 10  1  0  0  0
  9 27  2  0  0  0
 10 11  2  0  0  0
 10 15  1  0  0  0
 11 12  1  0  0  0
 11101  1  0  0  0
 12 13  2  0  0  0
 12102  1  0  0  0
 13 14  1  0  0  0
 13 31  1  0  0  0
 14 15  2  0  0  0
 14103  1  0  0  0
 15104  1  0  0  0
 16 17  2  0  0  0
 16 21  1  0  0  0
 16 31  1  0  0  0
 17 18  1  0  0  0
 17105  1  0  0  0
 18 19  2  0  0  0
 18106  1  0  0  0
 19 20  1  0  0  0
 19 24  1  0  0  0
 20 21  2  0  0  0
 20107  1  0  0  0
 21 23  1  0  0  0
 22 28  1  0  0  0
 22 32  2  0  0  0
 26 27  1  0  0  0
 28108  1  0  0  0
 28109  1  0  0  0
 29110  1  0  0  0
 29111  1  0  0  0
 33 34  1  0  0  0
 33 66  1  0  0  0
 33 70  2  0  0  0
 34 36  1  0  0  0
 34 59  1  0  0  0
 34112  1  0  0  0
 35 44  2  0  0  0
 35 45  1  0  0  0
 35 68  1  0  0  0
 36 56  1  0  0  0
 36113  1  0  0  0
 37 39  1  0  0  0
 37 47  1  0  0  0
 37 66  1  0  0  0
 37114  1  0  0  0
 38 43  2  0  0  0
 38 46  1  0  0  0
 38 47  1  0  0  0
 39 64  1  0  0  0
 39 67  2  0  0  0
 40 52  1  0  0  0
 40 53  2  0  0  0
 40 58  1  0  0  0
 41115  1  0  0  0
 41116  1  0  0  0
 41117  1  0  0  0
 41 48  1  0  0  0
 42 43  1  0  0  0
 42 66  1  0  0  0
 42118  1  0  0  0
 42119  1  0  0  0
 43 44  1  0  0  0
 44120  1  0  0  0
 45 46  2  0  0  0
 45121  1  0  0  0
 46122  1  0  0  0
 47123  1  0  0  0
 47124  1  0  0  0
 48 56  1  0  0  0
 48 65  1  0  0  0
 48125  1  0  0  0
 49 50  1  0  0  0
 49 53  1  0  0  0
 49 64  1  0  0  0
 49126  1  0  0  0
 50 51  1  0  0  0
 50127  1  0  0  0
 50128  1  0  0  0
 51 52  1  0  0  0
 51129  1  0  0  0
 51130  1  0  0  0
 52131  1  0  0  0
 52132  1  0  0  0
 53 54  1  0  0  0
 54 55  2  0  0  0
 54133  1  0  0  0
 55 57  1  0  0  0
 55134  1  0  0  0
 56 69  2  0  0  0
 57 58  2  0  0  0
 57135  1  0  0  0
 58136  1  0  0  0
 59 60  1  0  0  0
 59 61  1  0  0  0
 59 62  1  0  0  0
 60137  1  0  0  0
 60138  1  0  0  0
 60139  1  0  0  0
 61140  1  0  0  0
 61141  1  0  0  0
 61142  1  0  0  0
 62143  1  0  0  0
 62144  1  0  0  0
 62145  1  0  0  0
 63 65  1  0  0  0
 63146  1  0  0  0
 63147  1  0  0  0
 63148  1  0  0  0
 64149  1  0  0  0
 65150  1  0  0  0
 68 88  1  0  0  0
 71 74  2  0  0  0
 71 75  1  0  0  0
 71151  1  0  0  0
 72 74  1  0  0  0
 72 76  2  0  0  0
 72152  1  0  0  0
 73 75  2  0  0  0
 73 76  1  0  0  0
 73153  1  0  0  0
 74 80  1  0  0  0
 75 83  1  0  0  0
 76 91  1  0  0  0
 77 78  1  0  0  0
 77 81  1  0  0  0
 77154  1  0  0  0
 77155  1  0  0  0
 78 82  1  0  0  0
 78156  1  0  0  0
 78157  1  0  0  0
 79 80  1  0  0  0
 79 82  1  0  0  0
 79158  1  0  0  0
 79159  1  0  0  0
 80 81  1  0  0  0
 80160  1  0  0  0
 81 86  1  0  0  0
 81161  1  0  0  0
 82 90  1  0  0  0
 82162  1  0  0  0
 83163  1  0  0  0
 83164  1  0  0  0
 83165  1  0  0  0
 84166  1  0  0  0
 84167  1  0  0  0
 84168  1  0  0  0
 84 89  1  0  0  0
 85 91  1  0  0  0
 85169  1  0  0  0
 85170  1  0  0  0
 85171  1  0  0  0
 86 87  1  0  0  0
 86172  1  0  0  0
 86173  1  0  0  0
 87 89  1  0  0  0
 87174  1  0  0  0
 87175  1  0  0  0
 88 89  1  0  0  0
 88176  1  0  0  0
 88177  1  0  0  0
 89178  1  0  0  0
 90179  1  0  0  0
M  ISO  4   1 100  68 101  88 101  90 100
M  END
> <chiral flag>
0

> <version>
0

> <s_m_source_file>
/data/baiqing/PycharmProjects/Reinvent-master-3.2/result/LINK_invent/BTK/process_docking_weight1_custom_sum_contain_oxygen_bond_distance_aromatic_linkinvent_7_9_3/rearranged_h_0157.sdf

> <i_m_source_file_index>
70

> <r_mmod_Potential_Energy-OPLS-2005>
14.090181350708

> <r_mmod_Stretch_Energy-OPLS-2005>
57.0074462890625

> <r_mmod_Bend_Energy-OPLS-2005>
120.285331726074

> <r_mmod_Torsional_Energy-OPLS-2005>
231.961853027344

> <r_mmod_Improper_Torsional_Energy-OPLS-2005>
4.65605115890503

> <r_mmod_Van_der_Waal_Energy-OPLS-2005>
148.414123535156

> <r_mmod_Electrostatic_Energy-OPLS-2005>
-374.794677734375

> <r_mmod_Solvation_Energy-OPLS-2005>
-200.245468139648

> <b_mmod_Minimization_Converged-OPLS-2005>
0

> <r_mmod_RMS_Derivative-OPLS-2005>
1.70234262943268

$$$$
70
                    3D
 Structure written by MMmdl.
160169  0  0  1  0            999 V2000
  -30.6644  -14.6726   20.4572 C   0  0  0  0  0  0
  -30.4194  -12.4055   19.4673 C   0  0  0  0  0  0
  -29.5021  -12.5057   18.2301 C   0  0  0  0  0  0
  -28.0264  -12.3496   18.6403 C   0  0  0  0  0  0
  -27.6458  -13.2363   19.8582 C   0  0  2  0  0  0
  -28.6947  -13.1531   20.9918 C   0  0  0  0  0  0
  -25.2507  -13.8233   20.5734 C   0  0  0  0  0  0
  -24.1798  -13.0456   20.9216 C   0  0  0  0  0  0
  -24.6402  -11.6936   20.8766 C   0  0  0  0  0  0
  -23.9085  -10.4302   21.0424 C   0  0  0  0  0  0
  -24.3641   -9.4220   21.9201 C   0  0  0  0  0  0
  -23.6309   -8.2258   22.0774 C   0  0  0  0  0  0
  -22.4293   -8.0299   21.3557 C   0  0  0  0  0  0
  -21.9936   -9.0269   20.4653 C   0  0  0  0  0  0
  -22.7267  -10.2145   20.3060 C   0  0  0  0  0  0
  -21.6851   -6.0749   22.5284 C   0  0  0  0  0  0
  -21.4011   -6.5648   23.8218 C   0  0  0  0  0  0
  -21.3658   -5.6805   24.9181 C   0  0  0  0  0  0
  -21.6040   -4.3068   24.7233 C   0  0  0  0  0  0
  -21.8813   -3.8156   23.4354 C   0  0  0  0  0  0
  -21.9189   -4.6975   22.3410 C   0  0  0  0  0  0
  -22.7812  -13.5229   21.1861 C   0  0  0  0  0  0
  -22.1659   -4.2160   21.0989 F   0  0  0  0  0  0
  -21.5627   -3.4554   25.7744 F   0  0  0  0  0  0
  -30.0067  -13.4670   20.4116 N   0  0  0  0  0  0
  -26.2957  -12.9450   20.3345 N   0  0  0  0  0  0
  -25.9339  -11.6581   20.5793 N   0  0  0  0  0  0
  -22.0452  -12.8209   22.0409 N   0  0  0  0  0  0
  -25.4164  -15.1964   20.4166 N   0  0  0  0  0  0
  -31.8436  -14.7535   20.1056 O   0  0  0  0  0  0
  -21.6645   -6.8903   21.4251 O   0  0  0  0  0  0
  -22.3483  -14.5532   20.6703 O   0  0  0  0  0  0
  -24.6289  -31.8589   23.2040 C   0  0  0  0  0  0
  -25.9135  -32.4779   23.8363 C   0  0  1  0  0  0
  -27.2224  -27.3073   20.1145 C   0  0  0  0  0  0
  -25.5950  -33.8580   24.2285 N   0  0  0  0  0  0
  -23.4212  -30.4842   21.5490 C   0  0  2  0  0  0
  -24.8665  -28.9421   20.1105 C   0  0  0  0  0  0
  -22.7482  -29.4618   22.4960 C   0  0  0  0  0  0
  -18.0280  -28.1391   22.8497 C   0  0  0  0  0  0
  -24.1487  -36.7287   23.2635 C   0  0  0  0  0  0
  -25.9649  -30.7867   21.3757 C   0  0  0  0  0  0
  -26.0383  -29.4143   20.7165 C   0  0  0  0  0  0
  -27.2185  -28.6091   20.7091 C   0  0  0  0  0  0
  -26.0264  -26.8980   19.4768 C   0  0  0  0  0  0
  -24.8647  -27.6895   19.4806 C   0  0  0  0  0  0
  -23.6340  -29.8227   20.1631 C   0  0  0  0  0  0
  -25.4115  -36.3084   24.0327 C   0  0  1  0  0  0
  -20.5885  -28.3693   23.1299 C   0  0  2  0  0  0
  -20.6784  -26.9421   22.5417 C   0  0  0  0  0  0
  -19.5749  -26.6391   21.5232 C   0  0  0  0  0  0
  -18.1922  -26.7941   22.1629 C   0  0  0  0  0  0
  -19.1535  -28.8862   23.2891 C   0  0  0  0  0  0
  -18.9452  -30.1469   23.8900 C   0  0  0  0  0  0
  -17.6453  -30.6597   24.0566 C   0  0  0  0  0  0
  -25.9056  -34.9456   23.5105 C   0  0  0  0  0  0
  -16.5345  -29.9087   23.6342 C   0  0  0  0  0  0
  -16.7270  -28.6505   23.0364 C   0  0  0  0  0  0
  -26.4503  -31.6595   25.0738 C   0  0  0  0  0  0
  -25.3721  -31.3732   26.1446 C   0  0  0  0  0  0
  -27.0357  -30.3028   24.6197 C   0  0  0  0  0  0
  -27.6054  -32.4333   25.7520 C   0  0  0  0  0  0
  -27.5592  -37.1794   24.8454 C   0  0  0  0  0  0
  -21.4196  -29.3043   22.3694 N   0  0  0  0  0  0
  -26.4289  -37.3791   23.9418 N   0  0  0  0  0  0
  -24.6913  -31.0587   22.1001 N   0  0  0  0  0  0
  -23.4199  -28.8148   23.3037 O   0  0  0  0  0  0
  -28.3302  -26.4376   20.1745 O   0  0  0  0  0  0
  -26.5608  -34.8926   22.4662 O   0  0  0  0  0  0
  -23.5452  -32.1389   23.7364 O   0  0  0  0  0  0
  -29.6212  -19.7778   20.2367 C   0  0  0  0  0  0
  -29.5365  -19.8167   22.9996 C   0  0  0  0  0  0
  -29.2957  -21.0356   20.8757 C   0  0  0  0  0  0
  -29.8875  -18.5386   20.9387 C   0  0  0  0  0  0
  -29.2307  -21.0009   22.2929 C   0  0  0  0  0  0
  -29.8708  -18.6067   22.3536 C   0  0  0  0  0  0
  -30.0191  -23.1785   19.4177 C   0  0  0  0  0  0
  -28.9436  -22.3344   20.0584 C   0  0  2  0  0  0
  -29.1169  -23.8740   20.4177 C   0  0  2  0  0  0
  -28.8152  -22.2125   23.1105 C   0  0  0  0  0  0
  -30.2251  -17.4114   23.2203 C   0  0  0  0  0  0
  -30.2944  -17.2129   20.1724 C   0  0  0  0  0  0
  -28.0825  -24.9825   19.9784 C   0  0  0  0  0  0
  -29.9271  -15.8172   20.6488 N   0  0  0  0  0  0
  -31.4644  -12.4931   19.1673 H   0  0  0  0  0  0
  -30.3256  -11.4249   19.9356 H   0  0  0  0  0  0
  -29.7692  -11.7451   17.4954 H   0  0  0  0  0  0
  -29.6477  -13.4697   17.7383 H   0  0  0  0  0  0
  -27.8600  -11.2989   18.8782 H   0  0  0  0  0  0
  -27.3752  -12.5739   17.7950 H   0  0  0  0  0  0
  -27.6445  -14.2633   19.4937 H   0  0  0  0  0  0
  -28.7075  -12.1578   21.4371 H   0  0  0  0  0  0
  -28.4490  -13.8478   21.7967 H   0  0  0  0  0  0
  -25.2791   -9.5693   22.4771 H   0  0  0  0  0  0
  -24.0005   -7.4649   22.7496 H   0  0  0  0  0  0
  -21.0875   -8.8795   19.8950 H   0  0  0  0  0  0
  -22.3741  -10.9687   19.6163 H   0  0  0  0  0  0
  -21.1998   -7.6150   23.9725 H   0  0  0  0  0  0
  -21.1489   -6.0536   25.9080 H   0  0  0  0  0  0
  -22.0588   -2.7616   23.2858 H   0  0  0  0  0  0
  -22.4076  -11.9866   22.4779 H   0  0  0  0  0  0
  -21.1057  -13.1206   22.2608 H   0  0  0  0  0  0
  -24.6456  -15.8451   20.5312 H   0  0  0  0  0  0
  -26.2642  -15.6462   20.0957 H   0  0  0  0  0  0
  -26.7206  -32.5444   23.1109 H   0  0  0  0  0  0
  -25.0139  -33.9723   25.0460 H   0  0  0  0  0  0
  -22.7173  -31.3073   21.4100 H   0  0  0  0  0  0
  -23.3773  -35.9595   23.3257 H   0  0  0  0  0  0
  -24.3585  -36.8950   22.2057 H   0  0  0  0  0  0
  -23.7204  -37.6464   23.6680 H   0  0  0  0  0  0
  -26.0969  -31.5505   20.6077 H   0  0  0  0  0  0
  -26.8451  -30.8343   22.0051 H   0  0  0  0  0  0
  -28.1150  -28.9663   21.1972 H   0  0  0  0  0  0
  -25.9529  -25.9459   18.9748 H   0  0  0  0  0  0
  -23.9693  -27.3250   18.9950 H   0  0  0  0  0  0
  -23.7514  -30.6020   19.4098 H   0  0  0  0  0  0
  -22.7519  -29.2550   19.8615 H   0  0  0  0  0  0
  -25.1293  -36.1935   25.0818 H   0  0  0  0  0  0
  -20.9976  -28.3269   24.1420 H   0  0  0  0  0  0
  -20.5731  -26.2294   23.3608 H   0  0  0  0  0  0
  -21.6645  -26.7475   22.1182 H   0  0  0  0  0  0
  -19.6911  -25.6300   21.1261 H   0  0  0  0  0  0
  -19.6695  -27.3207   20.6767 H   0  0  0  0  0  0
  -17.4206  -26.6718   21.4012 H   0  0  0  0  0  0
  -18.0291  -26.0076   22.9011 H   0  0  0  0  0  0
  -19.7924  -30.7296   24.2269 H   0  0  0  0  0  0
  -17.4996  -31.6279   24.5161 H   0  0  0  0  0  0
  -15.5342  -30.2986   23.7670 H   0  0  0  0  0  0
  -15.8667  -28.0825   22.7082 H   0  0  0  0  0  0
  -24.5902  -30.7077   25.7766 H   0  0  0  0  0  0
  -24.8892  -32.2896   26.4861 H   0  0  0  0  0  0
  -25.8025  -30.8916   27.0237 H   0  0  0  0  0  0
  -26.2945  -29.6776   24.1204 H   0  0  0  0  0  0
  -27.4047  -29.7288   25.4709 H   0  0  0  0  0  0
  -27.8815  -30.4331   23.9436 H   0  0  0  0  0  0
  -27.2666  -33.3643   26.2085 H   0  0  0  0  0  0
  -28.3882  -32.6882   25.0360 H   0  0  0  0  0  0
  -28.0703  -31.8460   26.5453 H   0  0  0  0  0  0
  -28.2563  -38.0139   24.7580 H   0  0  0  0  0  0
  -28.1133  -36.2673   24.6185 H   0  0  0  0  0  0
  -27.2311  -37.1330   25.8853 H   0  0  0  0  0  0
  -20.9376  -29.8761   21.6898 H   0  0  0  0  0  0
  -26.0163  -38.2857   24.1464 H   0  0  0  0  0  0
  -29.6621  -19.7659   19.1557 H   0  0  0  0  0  0
  -29.5074  -19.8379   24.0803 H   0  0  0  0  0  0
  -29.8971  -23.4336   18.3671 H   0  0  0  0  0  0
  -31.0480  -23.0148   19.7334 H   0  0  0  0  0  0
  -28.0906  -22.0970   19.4263 H   0  0  0  0  0  0
  -29.5907  -24.1063   21.3674 H   0  0  0  0  0  0
  -28.4337  -21.9136   24.0871 H   0  0  0  0  0  0
  -28.0161  -22.7712   22.6227 H   0  0  0  0  0  0
  -29.6647  -22.8760   23.2774 H   0  0  0  0  0  0
  -30.4079  -17.7065   24.2538 H   0  0  0  0  0  0
  -31.1321  -16.9208   22.8635 H   0  0  0  0  0  0
  -29.4086  -16.6888   23.2209 H   0  0  0  0  0  0
  -31.3784  -17.2666   20.0557 H   0  0  0  0  0  0
  -29.9025  -17.2968   19.1588 H   0  0  0  0  0  0
  -27.1675  -24.7346   20.5180 H   0  0  0  0  0  0
  -27.8661  -24.8166   18.9217 H   0  0  0  0  0  0
  -28.9663  -15.6821   20.9228 H   0  0  0  0  0  0
  1 25  1  0  0  0
  1 30  2  0  0  0
  1 84  1  0  0  0
  2  3  1  0  0  0
  2 25  1  0  0  0
  2 85  1  0  0  0
  2 86  1  0  0  0
  3  4  1  0  0  0
  3 87  1  0  0  0
  3 88  1  0  0  0
  4  5  1  0  0  0
  4 89  1  0  0  0
  4 90  1  0  0  0
  5  6  1  0  0  0
  5 26  1  0  0  0
  5 91  1  0  0  0
  6 25  1  0  0  0
  6 92  1  0  0  0
  6 93  1  0  0  0
  7  8  2  0  0  0
  7 26  1  0  0  0
  7 29  1  0  0  0
  8  9  1  0  0  0
  8 22  1  0  0  0
  9 10  1  0  0  0
  9 27  2  0  0  0
 10 11  2  0  0  0
 10 15  1  0  0  0
 11 12  1  0  0  0
 11 94  1  0  0  0
 12 13  2  0  0  0
 12 95  1  0  0  0
 13 14  1  0  0  0
 13 31  1  0  0  0
 14 15  2  0  0  0
 14 96  1  0  0  0
 15 97  1  0  0  0
 16 17  2  0  0  0
 16 21  1  0  0  0
 16 31  1  0  0  0
 17 18  1  0  0  0
 17 98  1  0  0  0
 18 19  2  0  0  0
 18 99  1  0  0  0
 19 20  1  0  0  0
 19 24  1  0  0  0
 20 21  2  0  0  0
 20100  1  0  0  0
 21 23  1  0  0  0
 22 28  1  0  0  0
 22 32  2  0  0  0
 26 27  1  0  0  0
 28101  1  0  0  0
 28102  1  0  0  0
 29103  1  0  0  0
 29104  1  0  0  0
 33 34  1  0  0  0
 33 66  1  0  0  0
 33 70  2  0  0  0
 34 36  1  0  0  0
 34 59  1  0  0  0
 34105  1  0  0  0
 35 44  2  0  0  0
 35 45  1  0  0  0
 35 68  1  0  0  0
 36 56  1  0  0  0
 36106  1  0  0  0
 37 39  1  0  0  0
 37 47  1  0  0  0
 37 66  1  0  0  0
 37107  1  0  0  0
 38 43  2  0  0  0
 38 46  1  0  0  0
 38 47  1  0  0  0
 39 64  1  0  0  0
 39 67  2  0  0  0
 40 52  1  0  0  0
 40 53  2  0  0  0
 40 58  1  0  0  0
 41108  1  0  0  0
 41109  1  0  0  0
 41110  1  0  0  0
 41 48  1  0  0  0
 42 43  1  0  0  0
 42 66  1  0  0  0
 42111  1  0  0  0
 42112  1  0  0  0
 43 44  1  0  0  0
 44113  1  0  0  0
 45 46  2  0  0  0
 45114  1  0  0  0
 46115  1  0  0  0
 47116  1  0  0  0
 47117  1  0  0  0
 48 56  1  0  0  0
 48 65  1  0  0  0
 48118  1  0  0  0
 49 50  1  0  0  0
 49 53  1  0  0  0
 49 64  1  0  0  0
 49119  1  0  0  0
 50 51  1  0  0  0
 50120  1  0  0  0
 50121  1  0  0  0
 51 52  1  0  0  0
 51122  1  0  0  0
 51123  1  0  0  0
 52124  1  0  0  0
 52125  1  0  0  0
 53 54  1  0  0  0
 54 55  2  0  0  0
 54126  1  0  0  0
 55 57  1  0  0  0
 55127  1  0  0  0
 56 69  2  0  0  0
 57 58  2  0  0  0
 57128  1  0  0  0
 58129  1  0  0  0
 59 60  1  0  0  0
 59 61  1  0  0  0
 59 62  1  0  0  0
 60130  1  0  0  0
 60131  1  0  0  0
 60132  1  0  0  0
 61133  1  0  0  0
 61134  1  0  0  0
 61135  1  0  0  0
 62136  1  0  0  0
 62137  1  0  0  0
 62138  1  0  0  0
 63 65  1  0  0  0
 63139  1  0  0  0
 63140  1  0  0  0
 63141  1  0  0  0
 64142  1  0  0  0
 65143  1  0  0  0
 68 83  1  0  0  0
 71 73  2  0  0  0
 71 74  1  0  0  0
 71144  1  0  0  0
 72 75  2  0  0  0
 72 76  1  0  0  0
 72145  1  0  0  0
 73 75  1  0  0  0
 73 78  1  0  0  0
 74 76  2  0  0  0
 74 82  1  0  0  0
 75 80  1  0  0  0
 76 81  1  0  0  0
 77 78  1  0  0  0
 77 79  1  0  0  0
 77146  1  0  0  0
 77147  1  0  0  0
 78 79  1  0  0  0
 78148  1  0  0  0
 79 83  1  0  0  0
 79149  1  0  0  0
 80150  1  0  0  0
 80151  1  0  0  0
 80152  1  0  0  0
 81153  1  0  0  0
 81154  1  0  0  0
 81155  1  0  0  0
 82 84  1  0  0  0
 82156  1  0  0  0
 82157  1  0  0  0
 83158  1  0  0  0
 83159  1  0  0  0
 84160  1  0  0  0
M  ISO  4   1 100  68 101  83 101  84 100
M  END
> <chiral flag>
0

> <version>
0

> <s_m_source_file>
/data/baiqing/PycharmProjects/Reinvent-master-3.2/result/LINK_invent/BTK/process_docking_weight1_custom_sum_contain_oxygen_bond_distance_aromatic_linkinvent_7_9_3/rearranged_h_0157.sdf

> <i_m_source_file_index>
71

> <r_mmod_Potential_Energy-OPLS-2005>
69.8083038330078

> <r_mmod_Stretch_Energy-OPLS-2005>
97.8315582275391

> <r_mmod_Bend_Energy-OPLS-2005>
142.417251586914

> <r_mmod_Torsional_Energy-OPLS-2005>
241.20637512207

> <r_mmod_Improper_Torsional_Energy-OPLS-2005>
6.90593481063843

> <r_mmod_Van_der_Waal_Energy-OPLS-2005>
147.620864868164

> <r_mmod_Electrostatic_Energy-OPLS-2005>
-422.037017822266

> <r_mmod_Solvation_Energy-OPLS-2005>
-203.963745117188

> <b_mmod_Minimization_Converged-OPLS-2005>
0

> <r_mmod_RMS_Derivative-OPLS-2005>
1.89462471008301

$$$$
71
                    3D
 Structure written by MMmdl.
165174  0  0  1  0            999 V2000
  -30.6555  -14.6260   20.4982 C   0  0  0  0  0  0
  -30.4286  -12.3857   19.4550 C   0  0  0  0  0  0
  -29.5043  -12.4953   18.2238 C   0  0  0  0  0  0
  -28.0290  -12.3359   18.6362 C   0  0  0  0  0  0
  -27.6501  -13.2154   19.8583 C   0  0  2  0  0  0
  -28.6942  -13.0977   20.9903 C   0  0  0  0  0  0
  -25.2562  -13.8177   20.5685 C   0  0  0  0  0  0
  -24.1828  -13.0446   20.9201 C   0  0  0  0  0  0
  -24.6376  -11.6915   20.8733 C   0  0  0  0  0  0
  -23.9029  -10.4304   21.0402 C   0  0  0  0  0  0
  -24.3599   -9.4232   21.9174 C   0  0  0  0  0  0
  -23.6290   -8.2254   22.0744 C   0  0  0  0  0  0
  -22.4267   -8.0280   21.3541 C   0  0  0  0  0  0
  -21.9888   -9.0247   20.4638 C   0  0  0  0  0  0
  -22.7202  -10.2144   20.3049 C   0  0  0  0  0  0
  -21.6874   -6.0716   22.5261 C   0  0  0  0  0  0
  -21.4022   -6.5621   23.8193 C   0  0  0  0  0  0
  -21.3664   -5.6781   24.9161 C   0  0  0  0  0  0
  -21.6052   -4.3042   24.7215 C   0  0  0  0  0  0
  -21.8821   -3.8126   23.4335 C   0  0  0  0  0  0
  -21.9208   -4.6939   22.3390 C   0  0  0  0  0  0
  -22.7863  -13.5246   21.1858 C   0  0  0  0  0  0
  -22.1672   -4.2122   21.0974 F   0  0  0  0  0  0
  -21.5643   -3.4533   25.7733 F   0  0  0  0  0  0
  -30.0070  -13.4227   20.4153 N   0  0  0  0  0  0
  -26.2968  -12.9337   20.3292 N   0  0  0  0  0  0
  -25.9298  -11.6493   20.5732 N   0  0  0  0  0  0
  -22.0506  -12.8239   22.0417 N   0  0  0  0  0  0
  -25.4277  -15.1896   20.4106 N   0  0  0  0  0  0
  -31.8318  -14.7429   20.1442 O   0  0  0  0  0  0
  -21.6660   -6.8859   21.4228 O   0  0  0  0  0  0
  -22.3544  -14.5541   20.6702 O   0  0  0  0  0  0
  -24.6230  -31.8620   23.2048 C   0  0  0  0  0  0
  -25.9094  -32.4789   23.8361 C   0  0  1  0  0  0
  -27.2213  -27.3554   20.1158 C   0  0  0  0  0  0
  -25.5926  -33.8588   24.2284 N   0  0  0  0  0  0
  -23.4151  -30.4862   21.5469 C   0  0  2  0  0  0
  -24.8640  -28.9477   20.1072 C   0  0  0  0  0  0
  -22.7454  -29.4631   22.4953 C   0  0  0  0  0  0
  -18.0285  -28.1385   22.8488 C   0  0  0  0  0  0
  -24.1493  -36.7300   23.2640 C   0  0  0  0  0  0
  -25.9520  -30.8055   21.3710 C   0  0  0  0  0  0
  -26.0308  -29.4363   20.7114 C   0  0  0  0  0  0
  -27.2180  -28.6504   20.7078 C   0  0  0  0  0  0
  -26.0397  -26.9084   19.4891 C   0  0  0  0  0  0
  -24.8676  -27.6871   19.4891 C   0  0  0  0  0  0
  -23.6286  -29.8217   20.1618 C   0  0  0  0  0  0
  -25.4119  -36.3082   24.0322 C   0  0  1  0  0  0
  -20.5885  -28.3677   23.1306 C   0  0  2  0  0  0
  -20.6779  -26.9407   22.5421 C   0  0  0  0  0  0
  -19.5762  -26.6388   21.5215 C   0  0  0  0  0  0
  -18.1935  -26.7939   22.1616 C   0  0  0  0  0  0
  -19.1536  -28.8847   23.2897 C   0  0  0  0  0  0
  -18.9456  -30.1455   23.8904 C   0  0  0  0  0  0
  -17.6456  -30.6593   24.0560 C   0  0  0  0  0  0
  -25.9051  -34.9455   23.5099 C   0  0  0  0  0  0
  -16.5348  -29.9085   23.6332 C   0  0  0  0  0  0
  -16.7272  -28.6504   23.0351 C   0  0  0  0  0  0
  -26.4506  -31.6582   25.0711 C   0  0  0  0  0  0
  -25.3755  -31.3709   26.1447 C   0  0  0  0  0  0
  -27.0335  -30.3006   24.6135 C   0  0  0  0  0  0
  -27.6064  -32.4318   25.7478 C   0  0  0  0  0  0
  -27.5586  -37.1802   24.8461 C   0  0  0  0  0  0
  -21.4172  -29.3029   22.3691 N   0  0  0  0  0  0
  -26.4300  -37.3772   23.9405 N   0  0  0  0  0  0
  -24.6815  -31.0660   22.0984 N   0  0  0  0  0  0
  -23.4192  -28.8169   23.3017 O   0  0  0  0  0  0
  -28.3061  -26.4836   20.1515 O   0  0  0  0  0  0
  -26.5616  -34.8920   22.4663 O   0  0  0  0  0  0
  -23.5407  -32.1407   23.7407 O   0  0  0  0  0  0
  -27.7979  -22.9786   19.9230 C   0  0  0  0  0  0
  -29.7984  -23.3637   21.1552 C   0  0  0  0  0  0
  -28.6047  -23.9011   20.6279 C   0  0  0  0  0  0
  -28.2006  -21.6196   19.7588 C   0  0  0  0  0  0
  -29.4337  -21.1713   20.3164 C   0  0  0  0  0  0
  -29.7938  -17.9662   21.9704 C   0  0  0  0  0  0
  -29.4969  -18.4293   20.5706 C   0  0  2  0  0  0
  -30.3633  -17.1336   20.8391 C   0  0  2  0  0  0
  -27.2706  -20.6910   18.9981 C   0  0  0  0  0  0
  -32.5447  -21.3204   18.5575 C   0  0  0  0  0  0
  -28.0937  -25.3252   21.0264 C   0  0  0  0  0  0
  -31.2407  -20.8389   17.9052 C   0  0  0  0  0  0
  -30.6170  -19.6011   18.5843 C   0  0  0  0  0  0
  -30.1271  -19.7727   20.0466 C   0  0  2  0  0  0
  -30.1871  -22.0651   21.0126 N   0  0  0  0  0  0
  -29.9045  -15.7293   20.8023 N   0  0  0  0  0  0
  -31.4715  -12.4973   19.1541 H   0  0  0  0  0  0
  -30.3516  -11.3952   19.9068 H   0  0  0  0  0  0
  -29.7689  -11.7369   17.4854 H   0  0  0  0  0  0
  -29.6501  -13.4600   17.7351 H   0  0  0  0  0  0
  -27.8676  -11.2830   18.8707 H   0  0  0  0  0  0
  -27.3764  -12.5629   17.7930 H   0  0  0  0  0  0
  -27.6630  -14.2474   19.5079 H   0  0  0  0  0  0
  -28.7045  -12.0883   21.4053 H   0  0  0  0  0  0
  -28.4419  -13.7639   21.8171 H   0  0  0  0  0  0
  -25.2757   -9.5738   22.4731 H   0  0  0  0  0  0
  -24.0031   -7.4645   22.7456 H   0  0  0  0  0  0
  -21.0818   -8.8736   19.8942 H   0  0  0  0  0  0
  -22.3632  -10.9673   19.6147 H   0  0  0  0  0  0
  -21.2002   -7.6131   23.9686 H   0  0  0  0  0  0
  -21.1499   -6.0513   25.9064 H   0  0  0  0  0  0
  -22.0600   -2.7576   23.2847 H   0  0  0  0  0  0
  -22.4127  -11.9923   22.4840 H   0  0  0  0  0  0
  -21.1104  -13.1238   22.2573 H   0  0  0  0  0  0
  -24.6583  -15.8419   20.5183 H   0  0  0  0  0  0
  -26.2725  -15.6289   20.0678 H   0  0  0  0  0  0
  -26.7149  -32.5478   23.1105 H   0  0  0  0  0  0
  -25.0083  -33.9738   25.0435 H   0  0  0  0  0  0
  -22.7061  -31.3039   21.4059 H   0  0  0  0  0  0
  -23.3755  -35.9637   23.3315 H   0  0  0  0  0  0
  -24.3578  -36.8913   22.2054 H   0  0  0  0  0  0
  -23.7254  -37.6501   23.6662 H   0  0  0  0  0  0
  -26.0792  -31.5719   20.6052 H   0  0  0  0  0  0
  -26.8330  -30.8531   21.9990 H   0  0  0  0  0  0
  -28.1130  -29.0170   21.1904 H   0  0  0  0  0  0
  -26.0176  -25.9340   19.0206 H   0  0  0  0  0  0
  -23.9710  -27.3068   19.0202 H   0  0  0  0  0  0
  -23.7411  -30.5981   19.4052 H   0  0  0  0  0  0
  -22.7507  -29.2476   19.8622 H   0  0  0  0  0  0
  -25.1301  -36.1930   25.0814 H   0  0  0  0  0  0
  -20.9971  -28.3246   24.1428 H   0  0  0  0  0  0
  -20.5688  -26.2271   23.3608 H   0  0  0  0  0  0
  -21.6648  -26.7447   22.1203 H   0  0  0  0  0  0
  -19.6926  -25.6296   21.1246 H   0  0  0  0  0  0
  -19.6721  -27.3197   20.6751 H   0  0  0  0  0  0
  -17.4206  -26.6691   21.4012 H   0  0  0  0  0  0
  -18.0330  -26.0076   22.9006 H   0  0  0  0  0  0
  -19.7929  -30.7275   24.2276 H   0  0  0  0  0  0
  -17.5006  -31.6276   24.5161 H   0  0  0  0  0  0
  -15.5350  -30.2984   23.7667 H   0  0  0  0  0  0
  -15.8669  -28.0828   22.7065 H   0  0  0  0  0  0
  -24.5926  -30.7066   25.7769 H   0  0  0  0  0  0
  -24.8973  -32.2883   26.4887 H   0  0  0  0  0  0
  -25.8103  -30.8866   27.0202 H   0  0  0  0  0  0
  -26.2886  -29.6758   24.1194 H   0  0  0  0  0  0
  -27.4074  -29.7250   25.4610 H   0  0  0  0  0  0
  -27.8740  -30.4285   23.9314 H   0  0  0  0  0  0
  -27.2657  -33.3598   26.2088 H   0  0  0  0  0  0
  -28.3863  -32.6921   25.0306 H   0  0  0  0  0  0
  -28.0760  -31.8436   26.5377 H   0  0  0  0  0  0
  -28.2590  -38.0109   24.7503 H   0  0  0  0  0  0
  -28.1088  -36.2636   24.6281 H   0  0  0  0  0  0
  -27.2305  -37.1438   25.8862 H   0  0  0  0  0  0
  -20.9340  -29.8721   21.6884 H   0  0  0  0  0  0
  -26.0182  -38.2845   24.1412 H   0  0  0  0  0  0
  -26.8444  -23.3076   19.5359 H   0  0  0  0  0  0
  -30.4496  -23.9829   21.7559 H   0  0  0  0  0  0
  -28.9547  -17.5696   22.5389 H   0  0  0  0  0  0
  -30.5026  -18.5477   22.5573 H   0  0  0  0  0  0
  -28.4911  -18.2452   20.2003 H   0  0  0  0  0  0
  -31.4279  -17.2718   20.6537 H   0  0  0  0  0  0
  -26.6011  -20.1862   19.6939 H   0  0  0  0  0  0
  -27.8017  -19.9307   18.4331 H   0  0  0  0  0  0
  -26.6585  -21.2490   18.2865 H   0  0  0  0  0  0
  -32.9938  -22.1231   17.9732 H   0  0  0  0  0  0
  -33.2790  -20.5191   18.6323 H   0  0  0  0  0  0
  -32.3751  -21.7122   19.5601 H   0  0  0  0  0  0
  -28.5638  -25.5794   21.9760 H   0  0  0  0  0  0
  -27.0357  -25.2119   21.2736 H   0  0  0  0  0  0
  -31.4533  -20.5878   16.8659 H   0  0  0  0  0  0
  -30.5205  -21.6570   17.8591 H   0  0  0  0  0  0
  -31.3261  -18.7742   18.5432 H   0  0  0  0  0  0
  -29.7840  -19.2727   17.9657 H   0  0  0  0  0  0
  -31.0582  -19.8462   20.6105 H   0  0  0  0  0  0
  -28.9390  -15.5532   21.0331 H   0  0  0  0  0  0
  1 25  1  0  0  0
  1 30  2  0  0  0
  1 86  1  0  0  0
  2  3  1  0  0  0
  2 25  1  0  0  0
  2 87  1  0  0  0
  2 88  1  0  0  0
  3  4  1  0  0  0
  3 89  1  0  0  0
  3 90  1  0  0  0
  4  5  1  0  0  0
  4 91  1  0  0  0
  4 92  1  0  0  0
  5  6  1  0  0  0
  5 26  1  0  0  0
  5 93  1  0  0  0
  6 25  1  0  0  0
  6 94  1  0  0  0
  6 95  1  0  0  0
  7  8  2  0  0  0
  7 26  1  0  0  0
  7 29  1  0  0  0
  8  9  1  0  0  0
  8 22  1  0  0  0
  9 10  1  0  0  0
  9 27  2  0  0  0
 10 11  2  0  0  0
 10 15  1  0  0  0
 11 12  1  0  0  0
 11 96  1  0  0  0
 12 13  2  0  0  0
 12 97  1  0  0  0
 13 14  1  0  0  0
 13 31  1  0  0  0
 14 15  2  0  0  0
 14 98  1  0  0  0
 15 99  1  0  0  0
 16 17  2  0  0  0
 16 21  1  0  0  0
 16 31  1  0  0  0
 17 18  1  0  0  0
 17100  1  0  0  0
 18 19  2  0  0  0
 18101  1  0  0  0
 19 20  1  0  0  0
 19 24  1  0  0  0
 20 21  2  0  0  0
 20102  1  0  0  0
 21 23  1  0  0  0
 22 28  1  0  0  0
 22 32  2  0  0  0
 26 27  1  0  0  0
 28103  1  0  0  0
 28104  1  0  0  0
 29105  1  0  0  0
 29106  1  0  0  0
 33 34  1  0  0  0
 33 66  1  0  0  0
 33 70  2  0  0  0
 34 36  1  0  0  0
 34 59  1  0  0  0
 34107  1  0  0  0
 35 44  2  0  0  0
 35 45  1  0  0  0
 35 68  1  0  0  0
 36 56  1  0  0  0
 36108  1  0  0  0
 37 39  1  0  0  0
 37 47  1  0  0  0
 37 66  1  0  0  0
 37109  1  0  0  0
 38 43  2  0  0  0
 38 46  1  0  0  0
 38 47  1  0  0  0
 39 64  1  0  0  0
 39 67  2  0  0  0
 40 52  1  0  0  0
 40 53  2  0  0  0
 40 58  1  0  0  0
 41110  1  0  0  0
 41111  1  0  0  0
 41112  1  0  0  0
 41 48  1  0  0  0
 42 43  1  0  0  0
 42 66  1  0  0  0
 42113  1  0  0  0
 42114  1  0  0  0
 43 44  1  0  0  0
 44115  1  0  0  0
 45 46  2  0  0  0
 45116  1  0  0  0
 46117  1  0  0  0
 47118  1  0  0  0
 47119  1  0  0  0
 48 56  1  0  0  0
 48 65  1  0  0  0
 48120  1  0  0  0
 49 50  1  0  0  0
 49 53  1  0  0  0
 49 64  1  0  0  0
 49121  1  0  0  0
 50 51  1  0  0  0
 50122  1  0  0  0
 50123  1  0  0  0
 51 52  1  0  0  0
 51124  1  0  0  0
 51125  1  0  0  0
 52126  1  0  0  0
 52127  1  0  0  0
 53 54  1  0  0  0
 54 55  2  0  0  0
 54128  1  0  0  0
 55 57  1  0  0  0
 55129  1  0  0  0
 56 69  2  0  0  0
 57 58  2  0  0  0
 57130  1  0  0  0
 58131  1  0  0  0
 59 60  1  0  0  0
 59 61  1  0  0  0
 59 62  1  0  0  0
 60132  1  0  0  0
 60133  1  0  0  0
 60134  1  0  0  0
 61135  1  0  0  0
 61136  1  0  0  0
 61137  1  0  0  0
 62138  1  0  0  0
 62139  1  0  0  0
 62140  1  0  0  0
 63 65  1  0  0  0
 63141  1  0  0  0
 63142  1  0  0  0
 63143  1  0  0  0
 64144  1  0  0  0
 65145  1  0  0  0
 68 81  1  0  0  0
 71 73  2  0  0  0
 71 74  1  0  0  0
 71146  1  0  0  0
 72 73  1  0  0  0
 72 85  2  0  0  0
 72147  1  0  0  0
 73 81  1  0  0  0
 74 75  2  0  0  0
 74 79  1  0  0  0
 75 84  1  0  0  0
 75 85  1  0  0  0
 76 78  1  0  0  0
 76148  1  0  0  0
 76149  1  0  0  0
 76 77  1  0  0  0
 77 78  1  0  0  0
 77 84  1  0  0  0
 77150  1  0  0  0
 78 86  1  0  0  0
 78151  1  0  0  0
 79152  1  0  0  0
 79153  1  0  0  0
 79154  1  0  0  0
 80 82  1  0  0  0
 80155  1  0  0  0
 80156  1  0  0  0
 80157  1  0  0  0
 81158  1  0  0  0
 81159  1  0  0  0
 82 83  1  0  0  0
 82160  1  0  0  0
 82161  1  0  0  0
 83162  1  0  0  0
 83163  1  0  0  0
 83 84  1  0  0  0
 84164  1  0  0  0
 86165  1  0  0  0
M  ISO  4   1 100  68 101  81 101  86 100
M  END
> <chiral flag>
0

> <version>
0

> <s_m_source_file>
/data/baiqing/PycharmProjects/Reinvent-master-3.2/result/LINK_invent/BTK/process_docking_weight1_custom_sum_contain_oxygen_bond_distance_aromatic_linkinvent_7_9_3/rearranged_h_0157.sdf

> <i_m_source_file_index>
72

> <r_mmod_Potential_Energy-OPLS-2005>
21.1577663421631

> <r_mmod_Stretch_Energy-OPLS-2005>
73.3867950439453

> <r_mmod_Bend_Energy-OPLS-2005>
138.646514892578

> <r_mmod_Torsional_Energy-OPLS-2005>
306.115936279297

> <r_mmod_Improper_Torsional_Energy-OPLS-2005>
6.19372081756592

> <r_mmod_Van_der_Waal_Energy-OPLS-2005>
137.765563964844

> <r_mmod_Electrostatic_Energy-OPLS-2005>
-469.544738769531

> <r_mmod_Solvation_Energy-OPLS-2005>
-215.308029174805

> <b_mmod_Minimization_Converged-OPLS-2005>
0

> <r_mmod_RMS_Derivative-OPLS-2005>
2.25830769538879

$$$$
72
                    3D
 Structure written by MMmdl.
160169  0  0  1  0            999 V2000
  -30.7118  -14.5774   20.5267 C   0  0  0  0  0  0
  -30.4250  -12.3664   19.4379 C   0  0  0  0  0  0
  -29.4909  -12.4730   18.2148 C   0  0  0  0  0  0
  -28.0227  -12.2759   18.6394 C   0  0  0  0  0  0
  -27.6374  -13.1662   19.8438 C   0  0  2  0  0  0
  -28.6949  -13.0847   20.9766 C   0  0  0  0  0  0
  -25.2531  -13.8015   20.5641 C   0  0  0  0  0  0
  -24.1786  -13.0355   20.9222 C   0  0  0  0  0  0
  -24.6313  -11.6818   20.8798 C   0  0  0  0  0  0
  -23.8986  -10.4240   21.0457 C   0  0  0  0  0  0
  -24.3566   -9.4161   21.9217 C   0  0  0  0  0  0
  -23.6257   -8.2194   22.0763 C   0  0  0  0  0  0
  -22.4244   -8.0244   21.3545 C   0  0  0  0  0  0
  -21.9868   -9.0217   20.4652 C   0  0  0  0  0  0
  -22.7181  -10.2100   20.3079 C   0  0  0  0  0  0
  -21.6835   -6.0715   22.5281 C   0  0  0  0  0  0
  -21.3999   -6.5627   23.8212 C   0  0  0  0  0  0
  -21.3653   -5.6785   24.9177 C   0  0  0  0  0  0
  -21.6044   -4.3048   24.7231 C   0  0  0  0  0  0
  -21.8822   -3.8136   23.4355 C   0  0  0  0  0  0
  -21.9188   -4.6947   22.3407 C   0  0  0  0  0  0
  -22.7827  -13.5205   21.1873 C   0  0  0  0  0  0
  -22.1661   -4.2134   21.0985 F   0  0  0  0  0  0
  -21.5632   -3.4535   25.7747 F   0  0  0  0  0  0
  -30.0134  -13.4028   20.4041 N   0  0  0  0  0  0
  -26.2897  -12.9089   20.3277 N   0  0  0  0  0  0
  -25.9215  -11.6312   20.5813 N   0  0  0  0  0  0
  -22.0452  -12.8227   22.0435 N   0  0  0  0  0  0
  -25.4191  -15.1728   20.3937 N   0  0  0  0  0  0
  -31.8921  -14.6559   20.1763 O   0  0  0  0  0  0
  -21.6612   -6.8846   21.4238 O   0  0  0  0  0  0
  -22.3544  -14.5521   20.6712 O   0  0  0  0  0  0
  -24.6147  -31.8677   23.2102 C   0  0  0  0  0  0
  -25.9034  -32.4826   23.8403 C   0  0  1  0  0  0
  -27.2423  -27.4261   20.1099 C   0  0  0  0  0  0
  -25.5890  -33.8623   24.2335 N   0  0  0  0  0  0
  -23.4059  -30.4885   21.5498 C   0  0  2  0  0  0
  -24.8582  -28.9506   20.1195 C   0  0  0  0  0  0
  -22.7416  -29.4648   22.4988 C   0  0  0  0  0  0
  -18.0274  -28.1378   22.8495 C   0  0  0  0  0  0
  -24.1485  -36.7317   23.2638 C   0  0  0  0  0  0
  -25.9346  -30.8280   21.3684 C   0  0  0  0  0  0
  -26.0154  -29.4577   20.7258 C   0  0  0  0  0  0
  -27.2113  -28.6995   20.7287 C   0  0  0  0  0  0
  -26.0749  -26.9402   19.4890 C   0  0  0  0  0  0
  -24.8817  -27.6884   19.5005 C   0  0  0  0  0  0
  -23.6188  -29.8176   20.1656 C   0  0  0  0  0  0
  -25.4105  -36.3117   24.0342 C   0  0  1  0  0  0
  -20.5868  -28.3663   23.1318 C   0  0  2  0  0  0
  -20.6765  -26.9397   22.5420 C   0  0  0  0  0  0
  -19.5744  -26.6387   21.5214 C   0  0  0  0  0  0
  -18.1922  -26.7925   22.1627 C   0  0  0  0  0  0
  -19.1525  -28.8838   23.2904 C   0  0  0  0  0  0
  -18.9450  -30.1446   23.8912 C   0  0  0  0  0  0
  -17.6454  -30.6585   24.0569 C   0  0  0  0  0  0
  -25.9033  -34.9480   23.5138 C   0  0  0  0  0  0
  -16.5344  -29.9088   23.6328 C   0  0  0  0  0  0
  -16.7265  -28.6504   23.0350 C   0  0  0  0  0  0
  -26.4465  -31.6601   25.0726 C   0  0  0  0  0  0
  -25.3733  -31.3710   26.1477 C   0  0  0  0  0  0
  -27.0294  -30.3044   24.6096 C   0  0  0  0  0  0
  -27.6047  -32.4315   25.7480 C   0  0  0  0  0  0
  -27.5582  -37.1810   24.8465 C   0  0  0  0  0  0
  -21.4144  -29.3029   22.3722 N   0  0  0  0  0  0
  -26.4295  -37.3798   23.9410 N   0  0  0  0  0  0
  -24.6695  -31.0765   22.1012 N   0  0  0  0  0  0
  -23.4178  -28.8191   23.3040 O   0  0  0  0  0  0
  -28.3757  -26.6418   20.0515 O   0  0  0  0  0  0
  -26.5594  -34.8928   22.4700 O   0  0  0  0  0  0
  -23.5336  -32.1437   23.7485 O   0  0  0  0  0  0
  -29.8608  -24.0249   22.3518 C   0  0  0  0  0  0
  -29.9190  -22.6197   22.4759 C   0  0  0  0  0  0
  -28.3697  -23.7207   20.4891 C   0  0  0  0  0  0
  -29.0483  -24.6042   21.3536 C   0  0  0  0  0  0
  -29.1603  -21.8174   21.6027 C   0  0  0  0  0  0
  -28.8033  -17.6851   20.2805 C   0  0  0  0  0  0
  -28.8449  -16.1645   20.2551 C   0  0  0  0  0  0
  -29.6081  -18.0388   21.5118 C   0  0  1  0  0  0
  -30.7005  -16.9333   21.4860 C   0  0  1  0  0  0
  -31.3442  -16.7102   22.8641 C   0  0  0  0  0  0
  -28.8655  -26.1320   21.2999 C   0  0  0  0  0  0
  -28.9671  -20.3114   21.8653 C   0  0  0  0  0  0
  -28.4233  -22.3689   20.6060 N   0  0  0  0  0  0
  -30.0502  -15.7019   20.9533 N   0  0  0  0  0  0
  -30.0265  -19.4181   21.4552 O   0  0  0  0  0  0
  -31.4646  -12.4724   19.1229 H   0  0  0  0  0  0
  -30.3531  -11.3776   19.8936 H   0  0  0  0  0  0
  -29.7640  -11.7266   17.4674 H   0  0  0  0  0  0
  -29.6121  -13.4460   17.7358 H   0  0  0  0  0  0
  -27.8896  -11.2252   18.9010 H   0  0  0  0  0  0
  -27.3555  -12.4657   17.7979 H   0  0  0  0  0  0
  -27.6006  -14.1548   19.4139 H   0  0  0  0  0  0
  -28.7133  -12.0825   21.4070 H   0  0  0  0  0  0
  -28.4426  -13.7537   21.8004 H   0  0  0  0  0  0
  -25.2712   -9.5641   22.4787 H   0  0  0  0  0  0
  -23.9970   -7.4578   22.7472 H   0  0  0  0  0  0
  -21.0801   -8.8729   19.8954 H   0  0  0  0  0  0
  -22.3646  -10.9645   19.6191 H   0  0  0  0  0  0
  -21.1984   -7.6135   23.9709 H   0  0  0  0  0  0
  -21.1474   -6.0518   25.9079 H   0  0  0  0  0  0
  -22.0609   -2.7599   23.2859 H   0  0  0  0  0  0
  -22.4044  -11.9879   22.4824 H   0  0  0  0  0  0
  -21.1081  -13.1285   22.2643 H   0  0  0  0  0  0
  -24.6461  -15.8212   20.4963 H   0  0  0  0  0  0
  -26.2564  -15.6101   20.0338 H   0  0  0  0  0  0
  -26.7107  -32.5547   23.1172 H   0  0  0  0  0  0
  -25.0043  -33.9787   25.0481 H   0  0  0  0  0  0
  -22.6953  -31.3053   21.4072 H   0  0  0  0  0  0
  -23.3745  -35.9653   23.3315 H   0  0  0  0  0  0
  -24.3581  -36.8914   22.2048 H   0  0  0  0  0  0
  -23.7238  -37.6527   23.6641 H   0  0  0  0  0  0
  -26.0463  -31.5878   20.5935 H   0  0  0  0  0  0
  -26.8227  -30.8883   21.9853 H   0  0  0  0  0  0
  -28.1051  -29.0907   21.1946 H   0  0  0  0  0  0
  -26.0891  -25.9747   19.0033 H   0  0  0  0  0  0
  -23.9940  -27.2926   19.0263 H   0  0  0  0  0  0
  -23.7284  -30.5911   19.4045 H   0  0  0  0  0  0
  -22.7439  -29.2361   19.8703 H   0  0  0  0  0  0
  -25.1281  -36.1987   25.0836 H   0  0  0  0  0  0
  -20.9963  -28.3226   24.1438 H   0  0  0  0  0  0
  -20.5668  -26.2266   23.3606 H   0  0  0  0  0  0
  -21.6632  -26.7445   22.1207 H   0  0  0  0  0  0
  -19.6905  -25.6305   21.1227 H   0  0  0  0  0  0
  -19.6684  -27.3211   20.6753 H   0  0  0  0  0  0
  -17.4194  -26.6681   21.4025 H   0  0  0  0  0  0
  -18.0322  -26.0063   22.9019 H   0  0  0  0  0  0
  -19.7926  -30.7260   24.2282 H   0  0  0  0  0  0
  -17.5009  -31.6266   24.5170 H   0  0  0  0  0  0
  -15.5346  -30.2997   23.7642 H   0  0  0  0  0  0
  -15.8665  -28.0832   22.7055 H   0  0  0  0  0  0
  -24.5896  -30.7069   25.7813 H   0  0  0  0  0  0
  -24.8933  -32.2866   26.4939 H   0  0  0  0  0  0
  -25.8084  -30.8864   27.0225 H   0  0  0  0  0  0
  -26.2838  -29.6808   24.1147 H   0  0  0  0  0  0
  -27.4063  -29.7274   25.4550 H   0  0  0  0  0  0
  -27.8675  -30.4369   23.9250 H   0  0  0  0  0  0
  -27.2677  -33.3604   26.2089 H   0  0  0  0  0  0
  -28.3833  -32.6888   25.0287 H   0  0  0  0  0  0
  -28.0741  -31.8417   26.5363 H   0  0  0  0  0  0
  -28.2609  -38.0099   24.7512 H   0  0  0  0  0  0
  -28.1071  -36.2632   24.6295 H   0  0  0  0  0  0
  -27.2304  -37.1465   25.8869 H   0  0  0  0  0  0
  -20.9307  -29.8750   21.6941 H   0  0  0  0  0  0
  -26.0191  -38.2881   24.1406 H   0  0  0  0  0  0
  -30.3991  -24.6510   23.0495 H   0  0  0  0  0  0
  -30.4865  -22.1663   23.2776 H   0  0  0  0  0  0
  -27.7297  -24.1002   19.7064 H   0  0  0  0  0  0
  -27.7809  -18.0640   20.3007 H   0  0  0  0  0  0
  -29.2896  -18.0846   19.3891 H   0  0  0  0  0  0
  -28.8179  -15.8327   19.2162 H   0  0  0  0  0  0
  -27.9794  -15.7943   20.7991 H   0  0  0  0  0  0
  -28.9933  -17.8749   22.4003 H   0  0  0  0  0  0
  -31.4766  -17.2323   20.7783 H   0  0  0  0  0  0
  -30.6124  -16.3653   23.5954 H   0  0  0  0  0  0
  -31.7762  -17.6375   23.2421 H   0  0  0  0  0  0
  -32.1453  -15.9722   22.8179 H   0  0  0  0  0  0
  -29.8284  -26.6054   21.4950 H   0  0  0  0  0  0
  -28.2133  -26.4152   22.1286 H   0  0  0  0  0  0
  -28.0272  -20.0241   21.3930 H   0  0  0  0  0  0
  -28.8056  -20.1811   22.9364 H   0  0  0  0  0  0
  1 25  1  0  0  0
  1 30  2  0  0  0
  1 84  1  0  0  0
  2  3  1  0  0  0
  2 25  1  0  0  0
  2 86  1  0  0  0
  2 87  1  0  0  0
  3  4  1  0  0  0
  3 88  1  0  0  0
  3 89  1  0  0  0
  4  5  1  0  0  0
  4 90  1  0  0  0
  4 91  1  0  0  0
  5  6  1  0  0  0
  5 26  1  0  0  0
  5 92  1  0  0  0
  6 25  1  0  0  0
  6 93  1  0  0  0
  6 94  1  0  0  0
  7  8  2  0  0  0
  7 26  1  0  0  0
  7 29  1  0  0  0
  8  9  1  0  0  0
  8 22  1  0  0  0
  9 10  1  0  0  0
  9 27  2  0  0  0
 10 11  2  0  0  0
 10 15  1  0  0  0
 11 12  1  0  0  0
 11 95  1  0  0  0
 12 13  2  0  0  0
 12 96  1  0  0  0
 13 14  1  0  0  0
 13 31  1  0  0  0
 14 15  2  0  0  0
 14 97  1  0  0  0
 15 98  1  0  0  0
 16 17  2  0  0  0
 16 21  1  0  0  0
 16 31  1  0  0  0
 17 18  1  0  0  0
 17 99  1  0  0  0
 18 19  2  0  0  0
 18100  1  0  0  0
 19 20  1  0  0  0
 19 24  1  0  0  0
 20 21  2  0  0  0
 20101  1  0  0  0
 21 23  1  0  0  0
 22 28  1  0  0  0
 22 32  2  0  0  0
 26 27  1  0  0  0
 28102  1  0  0  0
 28103  1  0  0  0
 29104  1  0  0  0
 29105  1  0  0  0
 33 34  1  0  0  0
 33 66  1  0  0  0
 33 70  2  0  0  0
 34 36  1  0  0  0
 34 59  1  0  0  0
 34106  1  0  0  0
 35 44  2  0  0  0
 35 45  1  0  0  0
 35 68  1  0  0  0
 36 56  1  0  0  0
 36107  1  0  0  0
 37 39  1  0  0  0
 37 47  1  0  0  0
 37 66  1  0  0  0
 37108  1  0  0  0
 38 43  2  0  0  0
 38 46  1  0  0  0
 38 47  1  0  0  0
 39 64  1  0  0  0
 39 67  2  0  0  0
 40 52  1  0  0  0
 40 53  2  0  0  0
 40 58  1  0  0  0
 41109  1  0  0  0
 41110  1  0  0  0
 41111  1  0  0  0
 41 48  1  0  0  0
 42 43  1  0  0  0
 42 66  1  0  0  0
 42112  1  0  0  0
 42113  1  0  0  0
 43 44  1  0  0  0
 44114  1  0  0  0
 45 46  2  0  0  0
 45115  1  0  0  0
 46116  1  0  0  0
 47117  1  0  0  0
 47118  1  0  0  0
 48 56  1  0  0  0
 48 65  1  0  0  0
 48119  1  0  0  0
 49 50  1  0  0  0
 49 53  1  0  0  0
 49 64  1  0  0  0
 49120  1  0  0  0
 50 51  1  0  0  0
 50121  1  0  0  0
 50122  1  0  0  0
 51 52  1  0  0  0
 51123  1  0  0  0
 51124  1  0  0  0
 52125  1  0  0  0
 52126  1  0  0  0
 53 54  1  0  0  0
 54 55  2  0  0  0
 54127  1  0  0  0
 55 57  1  0  0  0
 55128  1  0  0  0
 56 69  2  0  0  0
 57 58  2  0  0  0
 57129  1  0  0  0
 58130  1  0  0  0
 59 60  1  0  0  0
 59 61  1  0  0  0
 59 62  1  0  0  0
 60131  1  0  0  0
 60132  1  0  0  0
 60133  1  0  0  0
 61134  1  0  0  0
 61135  1  0  0  0
 61136  1  0  0  0
 62137  1  0  0  0
 62138  1  0  0  0
 62139  1  0  0  0
 63 65  1  0  0  0
 63140  1  0  0  0
 63141  1  0  0  0
 63142  1  0  0  0
 64143  1  0  0  0
 65144  1  0  0  0
 68 81  1  0  0  0
 71 72  2  0  0  0
 71 74  1  0  0  0
 71145  1  0  0  0
 72 75  1  0  0  0
 72146  1  0  0  0
 73 74  2  0  0  0
 73 83  1  0  0  0
 73147  1  0  0  0
 74 81  1  0  0  0
 75 82  1  0  0  0
 75 83  2  0  0  0
 76 77  1  0  0  0
 76 78  1  0  0  0
 76148  1  0  0  0
 76149  1  0  0  0
 77 84  1  0  0  0
 77150  1  0  0  0
 77151  1  0  0  0
 78 79  1  0  0  0
 78 85  1  0  0  0
 78152  1  0  0  0
 79 80  1  0  0  0
 79 84  1  0  0  0
 79153  1  0  0  0
 80154  1  0  0  0
 80155  1  0  0  0
 80156  1  0  0  0
 81157  1  0  0  0
 81158  1  0  0  0
 82 85  1  0  0  0
 82159  1  0  0  0
 82160  1  0  0  0
M  ISO  4   1 100  68 101  81 101  84 100
M  END
> <chiral flag>
0

> <version>
0

> <s_m_source_file>
/data/baiqing/PycharmProjects/Reinvent-master-3.2/result/LINK_invent/BTK/process_docking_weight1_custom_sum_contain_oxygen_bond_distance_aromatic_linkinvent_7_9_3/rearranged_h_0157.sdf

> <i_m_source_file_index>
73

> <r_mmod_Potential_Energy-OPLS-2005>
102.309326171875

> <r_mmod_Stretch_Energy-OPLS-2005>
46.5859107971191

> <r_mmod_Bend_Energy-OPLS-2005>
135.23210144043

> <r_mmod_Torsional_Energy-OPLS-2005>
358.45556640625

> <r_mmod_Improper_Torsional_Energy-OPLS-2005>
6.46533870697021

> <r_mmod_Van_der_Waal_Energy-OPLS-2005>
151.499267578125

> <r_mmod_Electrostatic_Energy-OPLS-2005>
-412.068328857422

> <r_mmod_Solvation_Energy-OPLS-2005>
-212.188034057617

> <b_mmod_Minimization_Converged-OPLS-2005>
0

> <r_mmod_RMS_Derivative-OPLS-2005>
0.504680037498474

$$$$
73
                    3D
 Structure written by MMmdl.
175184  0  0  1  0            999 V2000
  -30.7184  -14.4317   20.5717 C   0  0  0  0  0  0
  -30.4177  -12.2839   19.4131 C   0  0  0  0  0  0
  -29.4908  -12.5022   18.2000 C   0  0  0  0  0  0
  -28.0095  -12.3791   18.6097 C   0  0  0  0  0  0
  -27.6623  -13.2052   19.8777 C   0  0  2  0  0  0
  -28.7057  -12.9705   20.9931 C   0  0  0  0  0  0
  -25.2609  -13.8168   20.5697 C   0  0  0  0  0  0
  -24.1852  -13.0450   20.9185 C   0  0  0  0  0  0
  -24.6394  -11.6915   20.8747 C   0  0  0  0  0  0
  -23.9058  -10.4303   21.0398 C   0  0  0  0  0  0
  -24.3621   -9.4219   21.9174 C   0  0  0  0  0  0
  -23.6299   -8.2251   22.0743 C   0  0  0  0  0  0
  -22.4277   -8.0289   21.3540 C   0  0  0  0  0  0
  -21.9914   -9.0263   20.4641 C   0  0  0  0  0  0
  -22.7236  -10.2145   20.3042 C   0  0  0  0  0  0
  -21.6863   -6.0733   22.5273 C   0  0  0  0  0  0
  -21.4017   -6.5633   23.8209 C   0  0  0  0  0  0
  -21.3666   -5.6785   24.9172 C   0  0  0  0  0  0
  -21.6048   -4.3048   24.7221 C   0  0  0  0  0  0
  -21.8822   -3.8139   23.4342 C   0  0  0  0  0  0
  -21.9204   -4.6959   22.3399 C   0  0  0  0  0  0
  -22.7878  -13.5251   21.1842 C   0  0  0  0  0  0
  -22.1665   -4.2148   21.0975 F   0  0  0  0  0  0
  -21.5642   -3.4527   25.7731 F   0  0  0  0  0  0
  -30.0374  -13.2636   20.4393 N   0  0  0  0  0  0
  -26.3037  -12.9327   20.3395 N   0  0  0  0  0  0
  -25.9321  -11.6489   20.5783 N   0  0  0  0  0  0
  -22.0513  -12.8249   22.0399 N   0  0  0  0  0  0
  -25.4357  -15.1889   20.4114 N   0  0  0  0  0  0
  -31.8514  -14.6042   20.1088 O   0  0  0  0  0  0
  -21.6652   -6.8879   21.4233 O   0  0  0  0  0  0
  -22.3558  -14.5553   20.6692 O   0  0  0  0  0  0
  -24.6109  -31.8712   23.2129 C   0  0  0  0  0  0
  -25.9020  -32.4838   23.8391 C   0  0  1  0  0  0
  -27.2291  -27.4615   20.0873 C   0  0  0  0  0  0
  -25.5889  -33.8636   24.2327 N   0  0  0  0  0  0
  -23.3950  -30.4963   21.5558 C   0  0  2  0  0  0
  -24.8361  -28.9633   20.1181 C   0  0  0  0  0  0
  -22.7378  -29.4687   22.5038 C   0  0  0  0  0  0
  -18.0262  -28.1386   22.8493 C   0  0  0  0  0  0
  -24.1486  -36.7317   23.2640 C   0  0  0  0  0  0
  -25.9202  -30.8447   21.3583 C   0  0  0  0  0  0
  -25.9954  -29.4812   20.7066 C   0  0  0  0  0  0
  -27.1941  -28.7369   20.6877 C   0  0  0  0  0  0
  -26.0496  -26.9511   19.4940 C   0  0  0  0  0  0
  -24.8553  -27.6948   19.5131 C   0  0  0  0  0  0
  -23.5981  -29.8286   20.1703 C   0  0  0  0  0  0
  -25.4110  -36.3119   24.0336 C   0  0  1  0  0  0
  -20.5849  -28.3662   23.1339 C   0  0  2  0  0  0
  -20.6761  -26.9407   22.5423 C   0  0  0  0  0  0
  -19.5745  -26.6396   21.5213 C   0  0  0  0  0  0
  -18.1919  -26.7932   22.1619 C   0  0  0  0  0  0
  -19.1509  -28.8834   23.2915 C   0  0  0  0  0  0
  -18.9446  -30.1443   23.8920 C   0  0  0  0  0  0
  -17.6455  -30.6590   24.0568 C   0  0  0  0  0  0
  -25.9031  -34.9484   23.5125 C   0  0  0  0  0  0
  -16.5344  -29.9102   23.6328 C   0  0  0  0  0  0
  -16.7253  -28.6519   23.0342 C   0  0  0  0  0  0
  -26.4456  -31.6614   25.0711 C   0  0  0  0  0  0
  -25.3735  -31.3716   26.1472 C   0  0  0  0  0  0
  -27.0267  -30.3060   24.6049 C   0  0  0  0  0  0
  -27.6028  -32.4334   25.7471 C   0  0  0  0  0  0
  -27.5582  -37.1811   24.8463 C   0  0  0  0  0  0
  -21.4113  -29.3035   22.3753 N   0  0  0  0  0  0
  -26.4296  -37.3806   23.9409 N   0  0  0  0  0  0
  -24.6610  -31.0830   22.1018 N   0  0  0  0  0  0
  -23.4162  -28.8241   23.3080 O   0  0  0  0  0  0
  -28.4164  -26.7646   20.0991 O   0  0  0  0  0  0
  -26.5604  -34.8931   22.4688 O   0  0  0  0  0  0
  -23.5315  -32.1447   23.7554 O   0  0  0  0  0  0
  -31.8828  -23.1700   21.3175 C   0  0  0  0  0  0
  -30.5802  -21.1925   20.8415 C   0  0  0  0  0  0
  -33.0067  -22.3703   21.6041 C   0  0  0  0  0  0
  -32.9382  -20.9478   21.5002 C   0  0  0  0  0  0
  -31.6837  -20.3578   21.1431 C   0  0  0  0  0  0
  -30.6647  -22.5930   20.9061 C   0  0  0  0  0  0
  -30.6911  -17.2078   22.5917 C   0  0  0  0  0  0
  -29.3223  -17.9035   20.5561 C   0  0  0  0  0  0
  -29.8948  -15.9085   22.3476 C   0  0  0  0  0  0
  -29.7356  -16.5569   19.9388 C   0  0  0  0  0  0
  -30.3119  -18.3688   21.6398 C   0  0  0  0  0  0
  -34.2762  -23.1071   22.0173 C   0  0  0  0  0  0
  -34.1050  -18.8159   22.5331 C   0  0  0  0  0  0
  -28.3442  -25.3435   20.0058 C   0  0  0  0  0  0
  -29.6484  -24.7413   20.5353 C   0  0  0  0  0  0
  -34.2347  -20.1296   21.7310 C   0  0  1  0  0  0
  -29.9643  -15.4933   20.9376 N   0  0  0  0  0  0
  -31.5117  -18.9644   21.0478 N   0  0  0  0  0  0
  -34.9326  -19.9238   20.4505 N   0  3  0  0  0  0
  -29.5469  -23.3193   20.5519 O   0  0  0  0  0  0
  -31.4632  -12.3736   19.1130 H   0  0  0  0  0  0
  -30.3068  -11.2721   19.8037 H   0  0  0  0  0  0
  -29.7179  -11.7764   17.4191 H   0  0  0  0  0  0
  -29.6760  -13.4852   17.7653 H   0  0  0  0  0  0
  -27.8025  -11.3231   18.7847 H   0  0  0  0  0  0
  -27.3659  -12.6795   17.7810 H   0  0  0  0  0  0
  -27.7057  -14.2562   19.5946 H   0  0  0  0  0  0
  -28.6721  -11.9328   21.3280 H   0  0  0  0  0  0
  -28.4777  -13.5738   21.8721 H   0  0  0  0  0  0
  -25.2767   -9.5710   22.4748 H   0  0  0  0  0  0
  -24.0026   -7.4640   22.7454 H   0  0  0  0  0  0
  -21.0845   -8.8770   19.8948 H   0  0  0  0  0  0
  -22.3681  -10.9683   19.6149 H   0  0  0  0  0  0
  -21.1983   -7.6137   23.9710 H   0  0  0  0  0  0
  -21.1497   -6.0512   25.9078 H   0  0  0  0  0  0
  -22.0595   -2.7600   23.2839 H   0  0  0  0  0  0
  -22.4117  -11.9912   22.4803 H   0  0  0  0  0  0
  -21.1118  -13.1264   22.2569 H   0  0  0  0  0  0
  -24.6782  -15.8530   20.5263 H   0  0  0  0  0  0
  -26.3056  -15.6251   20.1328 H   0  0  0  0  0  0
  -26.7101  -32.5552   23.1164 H   0  0  0  0  0  0
  -25.0030  -33.9807   25.0466 H   0  0  0  0  0  0
  -22.6814  -31.3122   21.4217 H   0  0  0  0  0  0
  -23.3744  -35.9655   23.3316 H   0  0  0  0  0  0
  -24.3579  -36.8921   22.2052 H   0  0  0  0  0  0
  -23.7236  -37.6528   23.6639 H   0  0  0  0  0  0
  -26.0242  -31.6111   20.5892 H   0  0  0  0  0  0
  -26.8101  -30.9000   21.9722 H   0  0  0  0  0  0
  -28.0898  -29.1370   21.1412 H   0  0  0  0  0  0
  -26.0377  -25.9873   19.0056 H   0  0  0  0  0  0
  -23.9603  -27.2871   19.0614 H   0  0  0  0  0  0
  -23.7061  -30.6029   19.4104 H   0  0  0  0  0  0
  -22.7196  -29.2512   19.8768 H   0  0  0  0  0  0
  -25.1291  -36.1987   25.0833 H   0  0  0  0  0  0
  -20.9923  -28.3210   24.1466 H   0  0  0  0  0  0
  -20.5671  -26.2263   23.3601 H   0  0  0  0  0  0
  -21.6638  -26.7471   22.1211 H   0  0  0  0  0  0
  -19.6912  -25.6310   21.1234 H   0  0  0  0  0  0
  -19.6691  -27.3211   20.6748 H   0  0  0  0  0  0
  -17.4197  -26.6672   21.4019 H   0  0  0  0  0  0
  -18.0321  -26.0076   22.9017 H   0  0  0  0  0  0
  -19.7931  -30.7246   24.2293 H   0  0  0  0  0  0
  -17.5026  -31.6273   24.5169 H   0  0  0  0  0  0
  -15.5352  -30.3016   23.7652 H   0  0  0  0  0  0
  -15.8651  -28.0857   22.7038 H   0  0  0  0  0  0
  -24.5889  -30.7088   25.7818 H   0  0  0  0  0  0
  -24.8953  -32.2882   26.4936 H   0  0  0  0  0  0
  -25.8093  -30.8863   27.0216 H   0  0  0  0  0  0
  -26.2789  -29.6849   24.1106 H   0  0  0  0  0  0
  -27.4065  -29.7270   25.4478 H   0  0  0  0  0  0
  -27.8613  -30.4395   23.9164 H   0  0  0  0  0  0
  -27.2628  -33.3617   26.2078 H   0  0  0  0  0  0
  -28.3805  -32.6935   25.0276 H   0  0  0  0  0  0
  -28.0725  -31.8441   26.5361 H   0  0  0  0  0  0
  -28.2605  -38.0102   24.7515 H   0  0  0  0  0  0
  -28.1073  -36.2634   24.6290 H   0  0  0  0  0  0
  -27.2303  -37.1475   25.8869 H   0  0  0  0  0  0
  -20.9257  -29.8746   21.6978 H   0  0  0  0  0  0
  -26.0183  -38.2884   24.1421 H   0  0  0  0  0  0
  -31.9837  -24.2416   21.4070 H   0  0  0  0  0  0
  -29.6403  -20.7609   20.5301 H   0  0  0  0  0  0
  -31.7482  -16.9620   22.5047 H   0  0  0  0  0  0
  -30.5575  -17.5316   23.6253 H   0  0  0  0  0  0
  -28.3318  -17.7956   21.0021 H   0  0  0  0  0  0
  -29.2097  -18.6538   19.7728 H   0  0  0  0  0  0
  -28.8489  -16.0512   22.6202 H   0  0  0  0  0  0
  -30.2718  -15.1230   23.0064 H   0  0  0  0  0  0
  -30.6366  -16.7190   19.3428 H   0  0  0  0  0  0
  -28.9683  -16.2250   19.2396 H   0  0  0  0  0  0
  -29.8040  -19.1243   22.2429 H   0  0  0  0  0  0
  -34.1564  -24.1885   21.9386 H   0  0  0  0  0  0
  -35.1217  -22.8392   21.3845 H   0  0  0  0  0  0
  -34.5268  -22.8872   23.0556 H   0  0  0  0  0  0
  -33.4744  -18.9510   23.4124 H   0  0  0  0  0  0
  -35.0829  -18.4893   22.8867 H   0  0  0  0  0  0
  -33.7125  -17.9907   21.9439 H   0  0  0  0  0  0
  -27.5118  -24.9583   20.5984 H   0  0  0  0  0  0
  -28.1884  -25.0412   18.9696 H   0  0  0  0  0  0
  -29.8310  -25.1059   21.5476 H   0  0  0  0  0  0
  -30.4756  -25.0655   19.9013 H   0  0  0  0  0  0
  -34.9079  -20.7249   22.3434 H   0  0  0  0  0  0
  -32.3390  -18.4043   21.2066 H   0  0  0  0  0  0
  -34.3956  -19.3431   19.8325 H   0  0  0  0  0  0
  -35.8335  -19.5036   20.5965 H   0  0  0  0  0  0
  -35.0713  -20.8095   19.9980 H   0  0  0  0  0  0
  1 25  1  0  0  0
  1 30  2  0  0  0
  1 87  1  0  0  0
  2  3  1  0  0  0
  2 25  1  0  0  0
  2 91  1  0  0  0
  2 92  1  0  0  0
  3  4  1  0  0  0
  3 93  1  0  0  0
  3 94  1  0  0  0
  4  5  1  0  0  0
  4 95  1  0  0  0
  4 96  1  0  0  0
  5  6  1  0  0  0
  5 26  1  0  0  0
  5 97  1  0  0  0
  6 25  1  0  0  0
  6 98  1  0  0  0
  6 99  1  0  0  0
  7  8  2  0  0  0
  7 26  1  0  0  0
  7 29  1  0  0  0
  8  9  1  0  0  0
  8 22  1  0  0  0
  9 10  1  0  0  0
  9 27  2  0  0  0
 10 11  2  0  0  0
 10 15  1  0  0  0
 11 12  1  0  0  0
 11100  1  0  0  0
 12 13  2  0  0  0
 12101  1  0  0  0
 13 14  1  0  0  0
 13 31  1  0  0  0
 14 15  2  0  0  0
 14102  1  0  0  0
 15103  1  0  0  0
 16 17  2  0  0  0
 16 21  1  0  0  0
 16 31  1  0  0  0
 17 18  1  0  0  0
 17104  1  0  0  0
 18 19  2  0  0  0
 18105  1  0  0  0
 19 20  1  0  0  0
 19 24  1  0  0  0
 20 21  2  0  0  0
 20106  1  0  0  0
 21 23  1  0  0  0
 22 28  1  0  0  0
 22 32  2  0  0  0
 26 27  1  0  0  0
 28107  1  0  0  0
 28108  1  0  0  0
 29109  1  0  0  0
 29110  1  0  0  0
 33 34  1  0  0  0
 33 66  1  0  0  0
 33 70  2  0  0  0
 34 36  1  0  0  0
 34 59  1  0  0  0
 34111  1  0  0  0
 35 44  2  0  0  0
 35 45  1  0  0  0
 35 68  1  0  0  0
 36 56  1  0  0  0
 36112  1  0  0  0
 37 39  1  0  0  0
 37 47  1  0  0  0
 37 66  1  0  0  0
 37113  1  0  0  0
 38 43  2  0  0  0
 38 46  1  0  0  0
 38 47  1  0  0  0
 39 64  1  0  0  0
 39 67  2  0  0  0
 40 52  1  0  0  0
 40 53  2  0  0  0
 40 58  1  0  0  0
 41114  1  0  0  0
 41115  1  0  0  0
 41116  1  0  0  0
 41 48  1  0  0  0
 42 43  1  0  0  0
 42 66  1  0  0  0
 42117  1  0  0  0
 42118  1  0  0  0
 43 44  1  0  0  0
 44119  1  0  0  0
 45 46  2  0  0  0
 45120  1  0  0  0
 46121  1  0  0  0
 47122  1  0  0  0
 47123  1  0  0  0
 48 56  1  0  0  0
 48 65  1  0  0  0
 48124  1  0  0  0
 49 50  1  0  0  0
 49 53  1  0  0  0
 49 64  1  0  0  0
 49125  1  0  0  0
 50 51  1  0  0  0
 50126  1  0  0  0
 50127  1  0  0  0
 51 52  1  0  0  0
 51128  1  0  0  0
 51129  1  0  0  0
 52130  1  0  0  0
 52131  1  0  0  0
 53 54  1  0  0  0
 54 55  2  0  0  0
 54132  1  0  0  0
 55 57  1  0  0  0
 55133  1  0  0  0
 56 69  2  0  0  0
 57 58  2  0  0  0
 57134  1  0  0  0
 58135  1  0  0  0
 59 60  1  0  0  0
 59 61  1  0  0  0
 59 62  1  0  0  0
 60136  1  0  0  0
 60137  1  0  0  0
 60138  1  0  0  0
 61139  1  0  0  0
 61140  1  0  0  0
 61141  1  0  0  0
 62142  1  0  0  0
 62143  1  0  0  0
 62144  1  0  0  0
 63 65  1  0  0  0
 63145  1  0  0  0
 63146  1  0  0  0
 63147  1  0  0  0
 64148  1  0  0  0
 65149  1  0  0  0
 68 84  1  0  0  0
 71 73  2  0  0  0
 71 76  1  0  0  0
 71150  1  0  0  0
 72 75  1  0  0  0
 72 76  2  0  0  0
 72151  1  0  0  0
 73 74  1  0  0  0
 73 82  1  0  0  0
 74 75  2  0  0  0
 74 86  1  0  0  0
 75 88  1  0  0  0
 76 90  1  0  0  0
 77 79  1  0  0  0
 77 81  1  0  0  0
 77152  1  0  0  0
 77153  1  0  0  0
 78 80  1  0  0  0
 78 81  1  0  0  0
 78154  1  0  0  0
 78155  1  0  0  0
 79 87  1  0  0  0
 79156  1  0  0  0
 79157  1  0  0  0
 80 87  1  0  0  0
 80158  1  0  0  0
 80159  1  0  0  0
 81 88  1  0  0  0
 81160  1  0  0  0
 82161  1  0  0  0
 82162  1  0  0  0
 82163  1  0  0  0
 83164  1  0  0  0
 83165  1  0  0  0
 83166  1  0  0  0
 83 86  1  0  0  0
 84 85  1  0  0  0
 84167  1  0  0  0
 84168  1  0  0  0
 85 90  1  0  0  0
 85169  1  0  0  0
 85170  1  0  0  0
 86 89  1  0  0  0
 86171  1  0  0  0
 88172  1  0  0  0
 89173  1  0  0  0
 89174  1  0  0  0
 89175  1  0  0  0
M  CHG  1  89   1
M  ISO  4   1 100  68 101  84 101  87 100
M  END
> <chiral flag>
0

> <version>
0

> <s_m_source_file>
/data/baiqing/PycharmProjects/Reinvent-master-3.2/result/LINK_invent/BTK/process_docking_weight1_custom_sum_contain_oxygen_bond_distance_aromatic_linkinvent_7_9_3/rearranged_h_0157.sdf

> <i_m_source_file_index>
74

> <r_mmod_Potential_Energy-OPLS-2005>
-19.6594715118408

> <r_mmod_Stretch_Energy-OPLS-2005>
40.9790267944336

> <r_mmod_Bend_Energy-OPLS-2005>
111.809608459473

> <r_mmod_Torsional_Energy-OPLS-2005>
343.969024658203

> <r_mmod_Improper_Torsional_Energy-OPLS-2005>
13.7275648117065

> <r_mmod_Van_der_Waal_Energy-OPLS-2005>
180.003341674805

> <r_mmod_Electrostatic_Energy-OPLS-2005>
-246.190002441406

> <r_mmod_Solvation_Energy-OPLS-2005>
-474.720764160156

> <b_mmod_Minimization_Converged-OPLS-2005>
0

> <r_mmod_RMS_Derivative-OPLS-2005>
2.02514553070068

$$$$
74
                    3D
 Structure written by MMmdl.
159168  0  0  1  0            999 V2000
  -30.6151  -14.7366   20.4683 C   0  0  0  0  0  0
  -30.4337  -12.4439   19.5071 C   0  0  0  0  0  0
  -29.5259  -12.5051   18.2566 C   0  0  0  0  0  0
  -28.0452  -12.3450   18.6537 C   0  0  0  0  0  0
  -27.6466  -13.2376   19.8593 C   0  0  2  0  0  0
  -28.6801  -13.1707   21.0064 C   0  0  0  0  0  0
  -25.2547  -13.8206   20.5714 C   0  0  0  0  0  0
  -24.1839  -13.0444   20.9225 C   0  0  0  0  0  0
  -24.6423  -11.6929   20.8739 C   0  0  0  0  0  0
  -23.9102  -10.4300   21.0419 C   0  0  0  0  0  0
  -24.3610   -9.4250   21.9253 C   0  0  0  0  0  0
  -23.6311   -8.2275   22.0825 C   0  0  0  0  0  0
  -22.4349   -8.0251   21.3530 C   0  0  0  0  0  0
  -22.0026   -9.0179   20.4565 C   0  0  0  0  0  0
  -22.7325  -10.2079   20.2992 C   0  0  0  0  0  0
  -21.6887   -6.0712   22.5277 C   0  0  0  0  0  0
  -21.4011   -6.5623   23.8197 C   0  0  0  0  0  0
  -21.3657   -5.6778   24.9165 C   0  0  0  0  0  0
  -21.6070   -4.3046   24.7226 C   0  0  0  0  0  0
  -21.8858   -3.8131   23.4356 C   0  0  0  0  0  0
  -21.9214   -4.6945   22.3402 C   0  0  0  0  0  0
  -22.7861  -13.5230   21.1889 C   0  0  0  0  0  0
  -22.1681   -4.2131   21.0982 F   0  0  0  0  0  0
  -21.5653   -3.4520   25.7746 F   0  0  0  0  0  0
  -29.9931  -13.5087   20.4424 N   0  0  0  0  0  0
  -26.2968  -12.9423   20.3264 N   0  0  0  0  0  0
  -25.9346  -11.6565   20.5729 N   0  0  0  0  0  0
  -22.0460  -12.8188   22.0401 N   0  0  0  0  0  0
  -25.4303  -15.1931   20.4191 N   0  0  0  0  0  0
  -31.7922  -14.8221   20.0993 O   0  0  0  0  0  0
  -21.6686   -6.8861   21.4232 O   0  0  0  0  0  0
  -22.3542  -14.5552   20.6750 O   0  0  0  0  0  0
  -24.6263  -31.8555   23.1965 C   0  0  0  0  0  0
  -25.9088  -32.4777   23.8305 C   0  0  1  0  0  0
  -27.2340  -27.3061   20.1315 C   0  0  0  0  0  0
  -25.5882  -33.8564   24.2254 N   0  0  0  0  0  0
  -23.4206  -30.4747   21.5422 C   0  0  2  0  0  0
  -24.8708  -28.9121   20.1245 C   0  0  0  0  0  0
  -22.7455  -29.4590   22.4961 C   0  0  0  0  0  0
  -18.0276  -28.1384   22.8495 C   0  0  0  0  0  0
  -24.1489  -36.7304   23.2633 C   0  0  0  0  0  0
  -25.9588  -30.7914   21.3591 C   0  0  0  0  0  0
  -26.0380  -29.4078   20.7184 C   0  0  0  0  0  0
  -27.2272  -28.6185   20.7001 C   0  0  0  0  0  0
  -26.0434  -26.8488   19.5353 C   0  0  0  0  0  0
  -24.8754  -27.6401   19.5228 C   0  0  0  0  0  0
  -23.6374  -29.7924   20.1634 C   0  0  0  0  0  0
  -25.4107  -36.3085   24.0336 C   0  0  1  0  0  0
  -20.5870  -28.3670   23.1309 C   0  0  2  0  0  0
  -20.6751  -26.9396   22.5432 C   0  0  0  0  0  0
  -19.5751  -26.6406   21.5195 C   0  0  0  0  0  0
  -18.1931  -26.7940   22.1609 C   0  0  0  0  0  0
  -19.1526  -28.8846   23.2904 C   0  0  0  0  0  0
  -18.9436  -30.1436   23.8932 C   0  0  0  0  0  0
  -17.6432  -30.6577   24.0564 C   0  0  0  0  0  0
  -25.9046  -34.9454   23.5111 C   0  0  0  0  0  0
  -16.5328  -29.9080   23.6316 C   0  0  0  0  0  0
  -16.7258  -28.6503   23.0346 C   0  0  0  0  0  0
  -26.4498  -31.6572   25.0645 C   0  0  0  0  0  0
  -25.3748  -31.3686   26.1391 C   0  0  0  0  0  0
  -27.0285  -30.3001   24.6010 C   0  0  0  0  0  0
  -27.6098  -32.4247   25.7407 C   0  0  0  0  0  0
  -27.5594  -37.1812   24.8459 C   0  0  0  0  0  0
  -21.4168  -29.3017   22.3694 N   0  0  0  0  0  0
  -26.4291  -37.3767   23.9416 N   0  0  0  0  0  0
  -24.6883  -31.0561   22.0922 N   0  0  0  0  0  0
  -23.4163  -28.8137   23.3047 O   0  0  0  0  0  0
  -28.3823  -26.5088   20.0550 O   0  0  0  0  0  0
  -26.5627  -34.8911   22.4688 O   0  0  0  0  0  0
  -23.5417  -32.1353   23.7306 O   0  0  0  0  0  0
  -29.6606  -19.6363   18.7178 C   0  0  0  0  0  0
  -29.3754  -18.4072   20.7682 C   0  0  0  0  0  0
  -29.2751  -19.6808   20.0688 C   0  0  0  0  0  0
  -30.0830  -18.4235   18.1426 C   0  0  0  0  0  0
  -29.8541  -17.1880   20.1350 C   0  0  0  0  0  0
  -29.5650  -21.9911   21.4136 C   0  0  0  0  0  0
  -29.0128  -22.5222   20.1109 C   0  0  1  0  0  0
  -28.6859  -21.0402   20.6337 C   0  0  1  0  0  0
  -30.3840  -18.3246   16.6610 C   0  0  0  0  0  0
  -27.2908  -20.7685   21.1552 C   0  0  0  0  0  0
  -28.0428  -23.7957   20.0451 C   0  0  0  0  0  0
  -28.4708  -25.1860   20.7229 C   0  0  0  0  0  0
  -30.1927  -17.2645   18.8284 N   0  0  0  0  0  0
  -29.8808  -15.8688   20.8013 N   0  0  0  0  0  0
  -31.4779  -12.5599   19.2126 H   0  0  0  0  0  0
  -30.3728  -11.4700   19.9949 H   0  0  0  0  0  0
  -29.8078  -11.7279   17.5447 H   0  0  0  0  0  0
  -29.6706  -13.4558   17.7405 H   0  0  0  0  0  0
  -27.8756  -11.2970   18.9005 H   0  0  0  0  0  0
  -27.4008  -12.5664   17.8019 H   0  0  0  0  0  0
  -27.6439  -14.2634   19.4899 H   0  0  0  0  0  0
  -28.7010  -12.1805   21.4658 H   0  0  0  0  0  0
  -28.4061  -13.8715   21.7963 H   0  0  0  0  0  0
  -25.2690   -9.5813   22.4931 H   0  0  0  0  0  0
  -23.9957   -7.4725   22.7660 H   0  0  0  0  0  0
  -21.1005   -8.8651   19.8792 H   0  0  0  0  0  0
  -22.3816  -10.9595   19.6060 H   0  0  0  0  0  0
  -21.1957   -7.6126   23.9699 H   0  0  0  0  0  0
  -21.1441   -6.0487   25.9056 H   0  0  0  0  0  0
  -22.0647   -2.7580   23.2850 H   0  0  0  0  0  0
  -22.4009  -11.9797   22.4756 H   0  0  0  0  0  0
  -21.1092  -13.1234   22.2578 H   0  0  0  0  0  0
  -24.6739  -15.8519   20.5621 H   0  0  0  0  0  0
  -26.2752  -15.6309   20.0724 H   0  0  0  0  0  0
  -26.7160  -32.5465   23.1051 H   0  0  0  0  0  0
  -24.9940  -33.9696   25.0338 H   0  0  0  0  0  0
  -22.7125  -31.2916   21.3898 H   0  0  0  0  0  0
  -23.3737  -35.9648   23.3277 H   0  0  0  0  0  0
  -24.3618  -36.8921   22.2055 H   0  0  0  0  0  0
  -23.7235  -37.6510   23.6646 H   0  0  0  0  0  0
  -26.0585  -31.5439   20.5744 H   0  0  0  0  0  0
  -26.8521  -30.8702   21.9689 H   0  0  0  0  0  0
  -28.1390  -29.0056   21.1312 H   0  0  0  0  0  0
  -26.0180  -25.8752   19.0642 H   0  0  0  0  0  0
  -23.9800  -27.2591   19.0511 H   0  0  0  0  0  0
  -23.7504  -30.5561   19.3939 H   0  0  0  0  0  0
  -22.7614  -29.2134   19.8701 H   0  0  0  0  0  0
  -25.1276  -36.1959   25.0823 H   0  0  0  0  0  0
  -20.9965  -28.3248   24.1428 H   0  0  0  0  0  0
  -20.5599  -26.2268   23.3624 H   0  0  0  0  0  0
  -21.6622  -26.7413   22.1245 H   0  0  0  0  0  0
  -19.6899  -25.6319   21.1219 H   0  0  0  0  0  0
  -19.6697  -27.3221   20.6730 H   0  0  0  0  0  0
  -17.4188  -26.6682   21.4024 H   0  0  0  0  0  0
  -18.0338  -26.0072   22.8997 H   0  0  0  0  0  0
  -19.7896  -30.7236   24.2360 H   0  0  0  0  0  0
  -17.4973  -31.6265   24.5133 H   0  0  0  0  0  0
  -15.5325  -30.2975   23.7627 H   0  0  0  0  0  0
  -15.8665  -28.0815   22.7059 H   0  0  0  0  0  0
  -24.5934  -30.7017   25.7724 H   0  0  0  0  0  0
  -24.8928  -32.2826   26.4865 H   0  0  0  0  0  0
  -25.8110  -30.8851   27.0138 H   0  0  0  0  0  0
  -26.2856  -29.6839   24.0938 H   0  0  0  0  0  0
  -27.3892  -29.7146   25.4477 H   0  0  0  0  0  0
  -27.8742  -30.4282   23.9243 H   0  0  0  0  0  0
  -27.2804  -33.3568   26.1991 H   0  0  0  0  0  0
  -28.3930  -32.6754   25.0241 H   0  0  0  0  0  0
  -28.0716  -31.8320   26.5311 H   0  0  0  0  0  0
  -28.2601  -38.0117   24.7495 H   0  0  0  0  0  0
  -28.1096  -36.2652   24.6280 H   0  0  0  0  0  0
  -27.2327  -37.1444   25.8860 H   0  0  0  0  0  0
  -20.9355  -29.8723   21.6894 H   0  0  0  0  0  0
  -26.0184  -38.2839   24.1412 H   0  0  0  0  0  0
  -29.5939  -20.5283   18.1089 H   0  0  0  0  0  0
  -29.0554  -18.3679   21.8005 H   0  0  0  0  0  0
  -29.1590  -22.4143   22.3291 H   0  0  0  0  0  0
  -30.6330  -21.7872   21.4339 H   0  0  0  0  0  0
  -29.7615  -22.5766   19.3226 H   0  0  0  0  0  0
  -30.3805  -19.2989   16.1692 H   0  0  0  0  0  0
  -29.6317  -17.7044   16.1727 H   0  0  0  0  0  0
  -31.3579  -17.8662   16.4999 H   0  0  0  0  0  0
  -27.3190  -20.0078   21.9329 H   0  0  0  0  0  0
  -26.6555  -20.4287   20.3382 H   0  0  0  0  0  0
  -26.8493  -21.6593   21.5982 H   0  0  0  0  0  0
  -27.0771  -23.5211   20.4667 H   0  0  0  0  0  0
  -27.8324  -23.9901   18.9927 H   0  0  0  0  0  0
  -29.5247  -25.0945   20.9850 H   0  0  0  0  0  0
  -27.9656  -25.2682   21.6867 H   0  0  0  0  0  0
  -29.1049  -15.6959   21.4192 H   0  0  0  0  0  0
  1 25  1  0  0  0
  1 30  2  0  0  0
  1 84  1  0  0  0
  2  3  1  0  0  0
  2 25  1  0  0  0
  2 85  1  0  0  0
  2 86  1  0  0  0
  3  4  1  0  0  0
  3 87  1  0  0  0
  3 88  1  0  0  0
  4  5  1  0  0  0
  4 89  1  0  0  0
  4 90  1  0  0  0
  5  6  1  0  0  0
  5 26  1  0  0  0
  5 91  1  0  0  0
  6 25  1  0  0  0
  6 92  1  0  0  0
  6 93  1  0  0  0
  7  8  2  0  0  0
  7 26  1  0  0  0
  7 29  1  0  0  0
  8  9  1  0  0  0
  8 22  1  0  0  0
  9 10  1  0  0  0
  9 27  2  0  0  0
 10 11  2  0  0  0
 10 15  1  0  0  0
 11 12  1  0  0  0
 11 94  1  0  0  0
 12 13  2  0  0  0
 12 95  1  0  0  0
 13 14  1  0  0  0
 13 31  1  0  0  0
 14 15  2  0  0  0
 14 96  1  0  0  0
 15 97  1  0  0  0
 16 17  2  0  0  0
 16 21  1  0  0  0
 16 31  1  0  0  0
 17 18  1  0  0  0
 17 98  1  0  0  0
 18 19  2  0  0  0
 18 99  1  0  0  0
 19 20  1  0  0  0
 19 24  1  0  0  0
 20 21  2  0  0  0
 20100  1  0  0  0
 21 23  1  0  0  0
 22 28  1  0  0  0
 22 32  2  0  0  0
 26 27  1  0  0  0
 28101  1  0  0  0
 28102  1  0  0  0
 29103  1  0  0  0
 29104  1  0  0  0
 33 34  1  0  0  0
 33 66  1  0  0  0
 33 70  2  0  0  0
 34 36  1  0  0  0
 34 59  1  0  0  0
 34105  1  0  0  0
 35 44  2  0  0  0
 35 45  1  0  0  0
 35 68  1  0  0  0
 36 56  1  0  0  0
 36106  1  0  0  0
 37 39  1  0  0  0
 37 47  1  0  0  0
 37 66  1  0  0  0
 37107  1  0  0  0
 38 43  2  0  0  0
 38 46  1  0  0  0
 38 47  1  0  0  0
 39 64  1  0  0  0
 39 67  2  0  0  0
 40 52  1  0  0  0
 40 53  2  0  0  0
 40 58  1  0  0  0
 41108  1  0  0  0
 41109  1  0  0  0
 41110  1  0  0  0
 41 48  1  0  0  0
 42 43  1  0  0  0
 42 66  1  0  0  0
 42111  1  0  0  0
 42112  1  0  0  0
 43 44  1  0  0  0
 44113  1  0  0  0
 45 46  2  0  0  0
 45114  1  0  0  0
 46115  1  0  0  0
 47116  1  0  0  0
 47117  1  0  0  0
 48 56  1  0  0  0
 48 65  1  0  0  0
 48118  1  0  0  0
 49 50  1  0  0  0
 49 53  1  0  0  0
 49 64  1  0  0  0
 49119  1  0  0  0
 50 51  1  0  0  0
 50120  1  0  0  0
 50121  1  0  0  0
 51 52  1  0  0  0
 51122  1  0  0  0
 51123  1  0  0  0
 52124  1  0  0  0
 52125  1  0  0  0
 53 54  1  0  0  0
 54 55  2  0  0  0
 54126  1  0  0  0
 55 57  1  0  0  0
 55127  1  0  0  0
 56 69  2  0  0  0
 57 58  2  0  0  0
 57128  1  0  0  0
 58129  1  0  0  0
 59 60  1  0  0  0
 59 61  1  0  0  0
 59 62  1  0  0  0
 60130  1  0  0  0
 60131  1  0  0  0
 60132  1  0  0  0
 61133  1  0  0  0
 61134  1  0  0  0
 61135  1  0  0  0
 62136  1  0  0  0
 62137  1  0  0  0
 62138  1  0  0  0
 63 65  1  0  0  0
 63139  1  0  0  0
 63140  1  0  0  0
 63141  1  0  0  0
 64142  1  0  0  0
 65143  1  0  0  0
 68 82  1  0  0  0
 71 73  2  0  0  0
 71 74  1  0  0  0
 71144  1  0  0  0
 72 73  1  0  0  0
 72 75  2  0  0  0
 72145  1  0  0  0
 73 78  1  0  0  0
 74 79  1  0  0  0
 74 83  2  0  0  0
 75 83  1  0  0  0
 75 84  1  0  0  0
 76 77  1  0  0  0
 76 78  1  0  0  0
 76146  1  0  0  0
 76147  1  0  0  0
 77 78  1  0  0  0
 77 81  1  0  0  0
 77148  1  0  0  0
 78 80  1  0  0  0
 79149  1  0  0  0
 79150  1  0  0  0
 79151  1  0  0  0
 80152  1  0  0  0
 80153  1  0  0  0
 80154  1  0  0  0
 81 82  1  0  0  0
 81155  1  0  0  0
 81156  1  0  0  0
 82157  1  0  0  0
 82158  1  0  0  0
 84159  1  0  0  0
M  ISO  4   1 100  68 101  82 101  84 100
M  END
> <chiral flag>
0

> <version>
0

> <s_m_source_file>
/data/baiqing/PycharmProjects/Reinvent-master-3.2/result/LINK_invent/BTK/process_docking_weight1_custom_sum_contain_oxygen_bond_distance_aromatic_linkinvent_7_9_3/rearranged_h_0157.sdf

> <i_m_source_file_index>
75

> <r_mmod_Potential_Energy-OPLS-2005>
23.9315452575684

> <r_mmod_Stretch_Energy-OPLS-2005>
110.758995056152

> <r_mmod_Bend_Energy-OPLS-2005>
161.902465820312

> <r_mmod_Torsional_Energy-OPLS-2005>
310.639831542969

> <r_mmod_Improper_Torsional_Energy-OPLS-2005>
4.31392574310303

> <r_mmod_Van_der_Waal_Energy-OPLS-2005>
131.133499145508

> <r_mmod_Electrostatic_Energy-OPLS-2005>
-539.926330566406

> <r_mmod_Solvation_Energy-OPLS-2005>
-220.808944702148

> <b_mmod_Minimization_Converged-OPLS-2005>
0

> <r_mmod_RMS_Derivative-OPLS-2005>
4.40347385406494

$$$$
75
                    3D
 Structure written by MMmdl.
164173  0  0  1  0            999 V2000
  -30.7005  -14.7141   20.4839 C   0  0  0  0  0  0
  -30.4310  -12.4501   19.4811 C   0  0  0  0  0  0
  -29.5269  -12.5383   18.2310 C   0  0  0  0  0  0
  -28.0494  -12.3630   18.6359 C   0  0  0  0  0  0
  -27.6499  -13.2424   19.8496 C   0  0  2  0  0  0
  -28.6958  -13.2067   20.9931 C   0  0  0  0  0  0
  -25.2557  -13.8293   20.5688 C   0  0  0  0  0  0
  -24.1842  -13.0457   20.9202 C   0  0  0  0  0  0
  -24.6486  -11.6975   20.8748 C   0  0  0  0  0  0
  -23.9121  -10.4333   21.0405 C   0  0  0  0  0  0
  -24.3663   -9.4268   21.9161 C   0  0  0  0  0  0
  -23.6332   -8.2300   22.0724 C   0  0  0  0  0  0
  -22.4306   -8.0340   21.3535 C   0  0  0  0  0  0
  -21.9960   -9.0306   20.4624 C   0  0  0  0  0  0
  -22.7313  -10.2182   20.3038 C   0  0  0  0  0  0
  -21.6884   -6.0802   22.5282 C   0  0  0  0  0  0
  -21.4076   -6.5678   23.8222 C   0  0  0  0  0  0
  -21.3640   -5.6811   24.9155 C   0  0  0  0  0  0
  -21.6020   -4.3059   24.7240 C   0  0  0  0  0  0
  -21.8806   -3.8202   23.4340 C   0  0  0  0  0  0
  -21.9214   -4.7026   22.3418 C   0  0  0  0  0  0
  -22.7861  -13.5198   21.1870 C   0  0  0  0  0  0
  -22.1679   -4.2228   21.0989 F   0  0  0  0  0  0
  -21.5589   -3.4514   25.7720 F   0  0  0  0  0  0
  -30.0086  -13.5207   20.4115 N   0  0  0  0  0  0
  -26.2979  -12.9483   20.3213 N   0  0  0  0  0  0
  -25.9402  -11.6620   20.5712 N   0  0  0  0  0  0
  -22.0594  -12.8090   22.0457 N   0  0  0  0  0  0
  -25.4171  -15.1993   20.4189 N   0  0  0  0  0  0
  -31.8760  -14.7723   20.1314 O   0  0  0  0  0  0
  -21.6644   -6.8950   21.4260 O   0  0  0  0  0  0
  -22.3469  -14.5500   20.6767 O   0  0  0  0  0  0
  -24.6352  -31.8536   23.1964 C   0  0  0  0  0  0
  -25.9129  -32.4747   23.8320 C   0  0  1  0  0  0
  -27.2125  -27.2422   20.1467 C   0  0  0  0  0  0
  -25.5926  -33.8593   24.2194 N   0  0  0  0  0  0
  -23.4334  -30.4762   21.5467 C   0  0  2  0  0  0
  -24.8889  -28.9582   20.0921 C   0  0  0  0  0  0
  -22.7459  -29.4563   22.4924 C   0  0  0  0  0  0
  -18.0212  -28.1010   22.8571 C   0  0  0  0  0  0
  -24.1515  -36.7317   23.2653 C   0  0  0  0  0  0
  -25.9925  -30.7767   21.3796 C   0  0  0  0  0  0
  -26.0716  -29.4043   20.7117 C   0  0  0  0  0  0
  -27.2319  -28.5527   20.7532 C   0  0  0  0  0  0
  -26.0542  -26.9638   19.3793 C   0  0  0  0  0  0
  -24.8881  -27.7295   19.4278 C   0  0  0  0  0  0
  -23.6498  -29.8284   20.1619 C   0  0  0  0  0  0
  -25.4122  -36.3098   24.0330 C   0  0  1  0  0  0
  -20.5836  -28.3426   23.0933 C   0  0  2  0  0  0
  -20.6782  -26.9153   22.5092 C   0  0  0  0  0  0
  -19.5577  -26.6068   21.5088 C   0  0  0  0  0  0
  -18.1873  -26.7525   22.1754 C   0  0  0  0  0  0
  -19.1479  -28.8603   23.2642 C   0  0  0  0  0  0
  -18.9502  -30.1378   23.8384 C   0  0  0  0  0  0
  -17.6526  -30.6546   24.0033 C   0  0  0  0  0  0
  -25.9047  -34.9477   23.5085 C   0  0  0  0  0  0
  -16.5369  -29.8922   23.6132 C   0  0  0  0  0  0
  -16.7192  -28.6168   23.0445 C   0  0  0  0  0  0
  -26.4450  -31.6548   25.0714 C   0  0  0  0  0  0
  -25.3677  -31.3762   26.1436 C   0  0  0  0  0  0
  -27.0341  -30.2935   24.6282 C   0  0  0  0  0  0
  -27.5913  -32.4377   25.7517 C   0  0  0  0  0  0
  -27.5584  -37.1826   24.8473 C   0  0  0  0  0  0
  -21.4186  -29.2800   22.3397 N   0  0  0  0  0  0
  -26.4291  -37.3785   23.9403 N   0  0  0  0  0  0
  -24.7067  -31.0561   22.0909 N   0  0  0  0  0  0
  -23.4038  -28.8248   23.3216 O   0  0  0  0  0  0
  -28.1352  -26.1656   20.3788 O   0  0  0  0  0  0
  -26.5649  -34.8988   22.4670 O   0  0  0  0  0  0
  -23.5476  -32.1343   23.7187 O   0  0  0  0  0  0
  -29.0107  -22.4185   20.6506 C   0  0  0  0  0  0
  -27.7595  -20.5152   21.5254 C   0  0  0  0  0  0
  -27.8684  -23.2998   20.8981 C   0  0  0  0  0  0
  -26.6978  -22.6867   21.4403 C   0  0  0  0  0  0
  -26.6531  -21.3196   21.7788 C   0  0  0  0  0  0
  -28.9535  -20.9790   20.9337 C   0  0  0  0  0  0
  -26.3029  -24.9602   21.5912 C   0  0  0  0  0  0
  -27.4357  -24.8083   20.5319 C   0  0  1  0  0  0
  -25.5319  -23.6520   21.6174 C   0  0  0  0  0  0
  -25.4544  -20.6259   22.4063 C   0  0  0  0  0  0
  -24.7042  -23.5335   22.9195 C   0  0  0  0  0  0
  -24.5237  -23.6071   20.4407 C   0  0  0  0  0  0
  -30.5824  -17.3156   20.6218 C   0  0  0  0  0  0
  -29.6099  -18.5437   20.9231 C   0  0  0  0  0  0
  -30.0288  -15.8900   20.7524 N   0  0  0  0  0  0
  -29.9500  -19.9875   20.6724 O   0  0  0  0  0  0
  -31.4795  -12.5397   19.1915 H   0  0  0  0  0  0
  -30.3309  -11.4773   19.9649 H   0  0  0  0  0  0
  -29.8198  -11.7936   17.4863 H   0  0  0  0  0  0
  -29.6656  -13.5100   17.7462 H   0  0  0  0  0  0
  -27.8953  -11.3047   18.8504 H   0  0  0  0  0  0
  -27.4052  -12.6043   17.7913 H   0  0  0  0  0  0
  -27.6446  -14.2633   19.4673 H   0  0  0  0  0  0
  -28.7170  -12.2442   21.5111 H   0  0  0  0  0  0
  -28.4348  -13.9527   21.7465 H   0  0  0  0  0  0
  -25.2857   -9.5718   22.4628 H   0  0  0  0  0  0
  -24.0112   -7.4686   22.7369 H   0  0  0  0  0  0
  -21.0915   -8.8827   19.8886 H   0  0  0  0  0  0
  -22.3847  -10.9680   19.6068 H   0  0  0  0  0  0
  -21.2159   -7.6207   23.9768 H   0  0  0  0  0  0
  -21.1393   -6.0526   25.9036 H   0  0  0  0  0  0
  -22.0615   -2.7665   23.2836 H   0  0  0  0  0  0
  -22.4287  -11.9727   22.4734 H   0  0  0  0  0  0
  -21.1194  -13.0945   22.2721 H   0  0  0  0  0  0
  -24.6408  -15.8480   20.5197 H   0  0  0  0  0  0
  -26.2618  -15.6578   20.0849 H   0  0  0  0  0  0
  -26.7279  -32.5415   23.1147 H   0  0  0  0  0  0
  -25.0075  -33.9735   25.0332 H   0  0  0  0  0  0
  -22.7155  -31.2841   21.4046 H   0  0  0  0  0  0
  -23.3763  -35.9677   23.3341 H   0  0  0  0  0  0
  -24.3630  -36.8903   22.2066 H   0  0  0  0  0  0
  -23.7263  -37.6523   23.6675 H   0  0  0  0  0  0
  -26.1309  -31.5484   20.6165 H   0  0  0  0  0  0
  -26.8734  -30.8336   22.0101 H   0  0  0  0  0  0
  -28.1010  -28.8514   21.3240 H   0  0  0  0  0  0
  -25.9471  -26.0613   18.8092 H   0  0  0  0  0  0
  -24.0037  -27.3319   18.9407 H   0  0  0  0  0  0
  -23.7669  -30.6280   19.4283 H   0  0  0  0  0  0
  -22.7746  -29.2606   19.8350 H   0  0  0  0  0  0
  -25.1294  -36.1951   25.0819 H   0  0  0  0  0  0
  -20.9964  -28.2974   24.1012 H   0  0  0  0  0  0
  -20.5778  -26.2075   23.3357 H   0  0  0  0  0  0
  -21.6624  -26.7280   22.0761 H   0  0  0  0  0  0
  -19.6665  -25.5957   21.1143 H   0  0  0  0  0  0
  -19.6255  -27.2958   20.6649 H   0  0  0  0  0  0
  -17.4115  -26.6030   21.4231 H   0  0  0  0  0  0
  -18.0410  -25.9678   22.9196 H   0  0  0  0  0  0
  -19.8074  -30.7216   24.1480 H   0  0  0  0  0  0
  -17.5183  -31.6396   24.4287 H   0  0  0  0  0  0
  -15.5384  -30.2876   23.7580 H   0  0  0  0  0  0
  -15.8468  -28.0538   22.7471 H   0  0  0  0  0  0
  -24.5823  -30.7124   25.7817 H   0  0  0  0  0  0
  -24.8943  -32.2993   26.4813 H   0  0  0  0  0  0
  -25.7948  -30.8974   27.0243 H   0  0  0  0  0  0
  -26.3018  -29.6601   24.1290 H   0  0  0  0  0  0
  -27.3922  -29.7192   25.4819 H   0  0  0  0  0  0
  -27.8872  -30.4093   23.9601 H   0  0  0  0  0  0
  -27.2388  -33.3659   26.2006 H   0  0  0  0  0  0
  -28.3736  -32.6980   25.0407 H   0  0  0  0  0  0
  -28.0597  -31.8636   26.5502 H   0  0  0  0  0  0
  -28.2580  -38.0142   24.7475 H   0  0  0  0  0  0
  -28.1048  -36.2624   24.6300 H   0  0  0  0  0  0
  -27.2326  -37.1531   25.8894 H   0  0  0  0  0  0
  -20.9592  -29.7935   21.5966 H   0  0  0  0  0  0
  -26.0155  -38.2870   24.1333 H   0  0  0  0  0  0
  -29.9102  -22.8281   20.2116 H   0  0  0  0  0  0
  -27.6294  -19.4901   21.8127 H   0  0  0  0  0  0
  -25.6163  -25.7921   21.5000 H   0  0  0  0  0  0
  -26.7984  -25.0952   22.5564 H   0  0  0  0  0  0
  -27.0432  -24.5824   19.5453 H   0  0  0  0  0  0
  -25.5904  -19.5451   22.4741 H   0  0  0  0  0  0
  -24.5634  -20.7849   21.7973 H   0  0  0  0  0  0
  -25.2939  -20.9742   23.4271 H   0  0  0  0  0  0
  -25.3422  -23.4014   23.7968 H   0  0  0  0  0  0
  -23.9746  -22.7268   22.8838 H   0  0  0  0  0  0
  -24.0893  -24.4216   23.0773 H   0  0  0  0  0  0
  -24.8704  -24.1070   19.5408 H   0  0  0  0  0  0
  -23.5946  -24.1180   20.7102 H   0  0  0  0  0  0
  -24.2731  -22.5929   20.1386 H   0  0  0  0  0  0
  -31.4397  -17.4228   21.2913 H   0  0  0  0  0  0
  -30.9779  -17.4407   19.6163 H   0  0  0  0  0  0
  -29.4074  -18.4509   21.9899 H   0  0  0  0  0  0
  -28.6888  -18.3401   20.3852 H   0  0  0  0  0  0
  -29.0426  -15.8024   20.9569 H   0  0  0  0  0  0
  1 25  1  0  0  0
  1 30  2  0  0  0
  1 85  1  0  0  0
  2  3  1  0  0  0
  2 25  1  0  0  0
  2 87  1  0  0  0
  2 88  1  0  0  0
  3  4  1  0  0  0
  3 89  1  0  0  0
  3 90  1  0  0  0
  4  5  1  0  0  0
  4 91  1  0  0  0
  4 92  1  0  0  0
  5  6  1  0  0  0
  5 26  1  0  0  0
  5 93  1  0  0  0
  6 25  1  0  0  0
  6 94  1  0  0  0
  6 95  1  0  0  0
  7  8  2  0  0  0
  7 26  1  0  0  0
  7 29  1  0  0  0
  8  9  1  0  0  0
  8 22  1  0  0  0
  9 10  1  0  0  0
  9 27  2  0  0  0
 10 11  2  0  0  0
 10 15  1  0  0  0
 11 12  1  0  0  0
 11 96  1  0  0  0
 12 13  2  0  0  0
 12 97  1  0  0  0
 13 14  1  0  0  0
 13 31  1  0  0  0
 14 15  2  0  0  0
 14 98  1  0  0  0
 15 99  1  0  0  0
 16 17  2  0  0  0
 16 21  1  0  0  0
 16 31  1  0  0  0
 17 18  1  0  0  0
 17100  1  0  0  0
 18 19  2  0  0  0
 18101  1  0  0  0
 19 20  1  0  0  0
 19 24  1  0  0  0
 20 21  2  0  0  0
 20102  1  0  0  0
 21 23  1  0  0  0
 22 28  1  0  0  0
 22 32  2  0  0  0
 26 27  1  0  0  0
 28103  1  0  0  0
 28104  1  0  0  0
 29105  1  0  0  0
 29106  1  0  0  0
 33 34  1  0  0  0
 33 66  1  0  0  0
 33 70  2  0  0  0
 34 36  1  0  0  0
 34 59  1  0  0  0
 34107  1  0  0  0
 35 44  2  0  0  0
 35 45  1  0  0  0
 35 68  1  0  0  0
 36 56  1  0  0  0
 36108  1  0  0  0
 37 39  1  0  0  0
 37 47  1  0  0  0
 37 66  1  0  0  0
 37109  1  0  0  0
 38 43  2  0  0  0
 38 46  1  0  0  0
 38 47  1  0  0  0
 39 64  1  0  0  0
 39 67  2  0  0  0
 40 52  1  0  0  0
 40 53  2  0  0  0
 40 58  1  0  0  0
 41110  1  0  0  0
 41111  1  0  0  0
 41112  1  0  0  0
 41 48  1  0  0  0
 42 43  1  0  0  0
 42 66  1  0  0  0
 42113  1  0  0  0
 42114  1  0  0  0
 43 44  1  0  0  0
 44115  1  0  0  0
 45 46  2  0  0  0
 45116  1  0  0  0
 46117  1  0  0  0
 47118  1  0  0  0
 47119  1  0  0  0
 48 56  1  0  0  0
 48 65  1  0  0  0
 48120  1  0  0  0
 49 50  1  0  0  0
 49 53  1  0  0  0
 49 64  1  0  0  0
 49121  1  0  0  0
 50 51  1  0  0  0
 50122  1  0  0  0
 50123  1  0  0  0
 51 52  1  0  0  0
 51124  1  0  0  0
 51125  1  0  0  0
 52126  1  0  0  0
 52127  1  0  0  0
 53 54  1  0  0  0
 54 55  2  0  0  0
 54128  1  0  0  0
 55 57  1  0  0  0
 55129  1  0  0  0
 56 69  2  0  0  0
 57 58  2  0  0  0
 57130  1  0  0  0
 58131  1  0  0  0
 59 60  1  0  0  0
 59 61  1  0  0  0
 59 62  1  0  0  0
 60132  1  0  0  0
 60133  1  0  0  0
 60134  1  0  0  0
 61135  1  0  0  0
 61136  1  0  0  0
 61137  1  0  0  0
 62138  1  0  0  0
 62139  1  0  0  0
 62140  1  0  0  0
 63 65  1  0  0  0
 63141  1  0  0  0
 63142  1  0  0  0
 63143  1  0  0  0
 64144  1  0  0  0
 65145  1  0  0  0
 68 78  1  0  0  0
 71 73  2  0  0  0
 71 76  1  0  0  0
 71146  1  0  0  0
 72 75  1  0  0  0
 72 76  2  0  0  0
 72147  1  0  0  0
 73 74  1  0  0  0
 73 78  1  0  0  0
 74 75  2  0  0  0
 74 79  1  0  0  0
 75 80  1  0  0  0
 76 86  1  0  0  0
 77 78  1  0  0  0
 77 79  1  0  0  0
 77148  1  0  0  0
 77149  1  0  0  0
 78150  1  0  0  0
 79 81  1  0  0  0
 79 82  1  0  0  0
 80151  1  0  0  0
 80152  1  0  0  0
 80153  1  0  0  0
 81154  1  0  0  0
 81155  1  0  0  0
 81156  1  0  0  0
 82157  1  0  0  0
 82158  1  0  0  0
 82159  1  0  0  0
 83 84  1  0  0  0
 83 85  1  0  0  0
 83160  1  0  0  0
 83161  1  0  0  0
 84 86  1  0  0  0
 84162  1  0  0  0
 84163  1  0  0  0
 85164  1  0  0  0
M  ISO  4   1 100  68 101  78 101  85 100
M  END
> <chiral flag>
0

> <version>
0

> <s_m_source_file>
/data/baiqing/PycharmProjects/Reinvent-master-3.2/result/LINK_invent/BTK/process_docking_weight1_custom_sum_contain_oxygen_bond_distance_aromatic_linkinvent_7_9_3/rearranged_h_0157.sdf

> <i_m_source_file_index>
76

> <r_mmod_Potential_Energy-OPLS-2005>
397.235687255859

> <r_mmod_Stretch_Energy-OPLS-2005>
148.371932983398

> <r_mmod_Bend_Energy-OPLS-2005>
330.401733398438

> <r_mmod_Torsional_Energy-OPLS-2005>
240.664031982422

> <r_mmod_Improper_Torsional_Energy-OPLS-2005>
6.8713321685791

> <r_mmod_Van_der_Waal_Energy-OPLS-2005>
183.340362548828

> <r_mmod_Electrostatic_Energy-OPLS-2005>
-420.669464111328

> <r_mmod_Solvation_Energy-OPLS-2005>
-212.812255859375

> <b_mmod_Minimization_Converged-OPLS-2005>
0

> <r_mmod_RMS_Derivative-OPLS-2005>
12.0901489257812

$$$$
76
                    3D
 Structure written by MMmdl.
164173  0  0  1  0            999 V2000
  -30.6817  -14.8028   20.4411 C   0  0  0  0  0  0
  -30.4097  -12.5026   19.4808 C   0  0  0  0  0  0
  -29.4978  -12.4999   18.2381 C   0  0  0  0  0  0
  -28.0320  -12.3038   18.6618 C   0  0  0  0  0  0
  -27.6263  -13.2352   19.8338 C   0  0  2  0  0  0
  -28.6766  -13.2601   20.9696 C   0  0  0  0  0  0
  -25.2439  -13.8186   20.5685 C   0  0  0  0  0  0
  -24.1760  -13.0424   20.9236 C   0  0  0  0  0  0
  -24.6371  -11.6910   20.8780 C   0  0  0  0  0  0
  -23.9064  -10.4286   21.0424 C   0  0  0  0  0  0
  -24.3621   -9.4198   21.9195 C   0  0  0  0  0  0
  -23.6301   -8.2228   22.0752 C   0  0  0  0  0  0
  -22.4280   -8.0269   21.3537 C   0  0  0  0  0  0
  -21.9918   -9.0243   20.4642 C   0  0  0  0  0  0
  -22.7241  -10.2126   20.3060 C   0  0  0  0  0  0
  -21.6849   -6.0730   22.5281 C   0  0  0  0  0  0
  -21.4010   -6.5640   23.8218 C   0  0  0  0  0  0
  -21.3660   -5.6794   24.9178 C   0  0  0  0  0  0
  -21.6045   -4.3054   24.7228 C   0  0  0  0  0  0
  -21.8821   -3.8140   23.4349 C   0  0  0  0  0  0
  -21.9189   -4.6962   22.3406 C   0  0  0  0  0  0
  -22.7786  -13.5207   21.1888 C   0  0  0  0  0  0
  -22.1660   -4.2146   21.0984 F   0  0  0  0  0  0
  -21.5631   -3.4539   25.7738 F   0  0  0  0  0  0
  -29.9627  -13.6191   20.3604 N   0  0  0  0  0  0
  -26.2864  -12.9405   20.3256 N   0  0  0  0  0  0
  -25.9302  -11.6548   20.5789 N   0  0  0  0  0  0
  -22.0429  -12.8204   22.0443 N   0  0  0  0  0  0
  -25.4054  -15.1905   20.4049 N   0  0  0  0  0  0
  -31.8885  -14.7292   20.1874 O   0  0  0  0  0  0
  -21.6636   -6.8872   21.4241 O   0  0  0  0  0  0
  -22.3481  -14.5515   20.6728 O   0  0  0  0  0  0
  -24.6336  -31.8540   23.1982 C   0  0  0  0  0  0
  -25.9157  -32.4747   23.8329 C   0  0  1  0  0  0
  -27.2100  -27.2391   20.1410 C   0  0  0  0  0  0
  -25.5947  -33.8551   24.2246 N   0  0  0  0  0  0
  -23.4323  -30.4771   21.5412 C   0  0  2  0  0  0
  -24.8829  -28.9268   20.1060 C   0  0  0  0  0  0
  -22.7523  -29.4597   22.4899 C   0  0  0  0  0  0
  -18.0297  -28.1393   22.8485 C   0  0  0  0  0  0
  -24.1491  -36.7276   23.2640 C   0  0  0  0  0  0
  -25.9819  -30.7596   21.3849 C   0  0  0  0  0  0
  -26.0562  -29.3818   20.7243 C   0  0  0  0  0  0
  -27.2272  -28.5503   20.7331 C   0  0  0  0  0  0
  -26.0260  -26.8713   19.4681 C   0  0  0  0  0  0
  -24.8752  -27.6805   19.4633 C   0  0  0  0  0  0
  -23.6530  -29.8137   20.1567 C   0  0  0  0  0  0
  -25.4123  -36.3063   24.0325 C   0  0  1  0  0  0
  -20.5906  -28.3710   23.1261 C   0  0  2  0  0  0
  -20.6791  -26.9424   22.5410 C   0  0  0  0  0  0
  -19.5765  -26.6386   21.5219 C   0  0  0  0  0  0
  -18.1942  -26.7936   22.1622 C   0  0  0  0  0  0
  -19.1552  -28.8870   23.2866 C   0  0  0  0  0  0
  -18.9471  -30.1470   23.8885 C   0  0  0  0  0  0
  -17.6469  -30.6593   24.0561 C   0  0  0  0  0  0
  -25.9066  -34.9438   23.5087 C   0  0  0  0  0  0
  -16.5360  -29.9085   23.6336 C   0  0  0  0  0  0
  -16.7283  -28.6502   23.0359 C   0  0  0  0  0  0
  -26.4516  -31.6581   25.0731 C   0  0  0  0  0  0
  -25.3723  -31.3741   26.1438 C   0  0  0  0  0  0
  -27.0372  -30.2990   24.6251 C   0  0  0  0  0  0
  -27.6061  -32.4332   25.7507 C   0  0  0  0  0  0
  -27.5584  -37.1793   24.8465 C   0  0  0  0  0  0
  -21.4226  -29.3049   22.3642 N   0  0  0  0  0  0
  -26.4292  -37.3769   23.9408 N   0  0  0  0  0  0
  -24.7014  -31.0481   22.0972 N   0  0  0  0  0  0
  -23.4214  -28.8139   23.3009 O   0  0  0  0  0  0
  -28.2305  -26.2557   20.2127 O   0  0  0  0  0  0
  -26.5637  -34.8911   22.4653 O   0  0  0  0  0  0
  -23.5479  -32.1376   23.7258 O   0  0  0  0  0  0
  -28.3874  -21.1550   21.8570 C   0  0  0  0  0  0
  -28.0272  -22.5543   21.9236 C   0  0  0  0  0  0
  -29.0398  -20.6046   20.7033 C   0  0  0  0  0  0
  -28.3586  -23.4862   20.8819 C   0  0  0  0  0  0
  -29.3199  -21.6207   19.7176 C   0  0  0  0  0  0
  -30.5833  -18.6620   21.2125 C   0  0  0  0  0  0
  -28.3546  -18.1210   20.5473 C   0  0  0  0  0  0
  -31.0844  -17.2520   20.7109 C   0  0  0  0  0  0
  -28.7885  -16.6045   20.2395 C   0  0  0  0  0  0
  -28.0530  -20.2612   23.0498 C   0  0  0  0  0  0
  -27.2438  -23.0689   23.1390 C   0  0  0  0  0  0
  -30.0160  -21.2265   18.4299 C   0  0  0  0  0  0
  -27.8226  -25.0183   20.9788 C   0  0  0  0  0  0
  -29.0061  -22.9704   19.7970 N   0  0  0  0  0  0
  -29.3936  -19.1836   20.5227 N   0  0  0  0  0  0
  -30.1317  -16.0922   20.6517 N   0  0  0  0  0  0
  -31.4513  -12.5920   19.1673 H   0  0  0  0  0  0
  -30.3470  -11.5491   20.0077 H   0  0  0  0  0  0
  -29.7977  -11.7102   17.5480 H   0  0  0  0  0  0
  -29.6052  -13.4411   17.6967 H   0  0  0  0  0  0
  -27.9156  -11.2617   18.9625 H   0  0  0  0  0  0
  -27.3659  -12.4511   17.8101 H   0  0  0  0  0  0
  -27.5866  -14.2279   19.3910 H   0  0  0  0  0  0
  -28.7405  -12.2903   21.4644 H   0  0  0  0  0  0
  -28.4040  -13.9798   21.7427 H   0  0  0  0  0  0
  -25.2756   -9.5680   22.4791 H   0  0  0  0  0  0
  -24.0000   -7.4620   22.7477 H   0  0  0  0  0  0
  -21.0841   -8.8770   19.8958 H   0  0  0  0  0  0
  -22.3692  -10.9675   19.6183 H   0  0  0  0  0  0
  -21.2003   -7.6149   23.9724 H   0  0  0  0  0  0
  -21.1483   -6.0519   25.9087 H   0  0  0  0  0  0
  -22.0599   -2.7603   23.2846 H   0  0  0  0  0  0
  -22.4029  -11.9862   22.4838 H   0  0  0  0  0  0
  -21.1051  -13.1240   22.2643 H   0  0  0  0  0  0
  -24.6285  -15.8339   20.5097 H   0  0  0  0  0  0
  -26.2391  -15.6311   20.0423 H   0  0  0  0  0  0
  -26.7225  -32.5390   23.1070 H   0  0  0  0  0  0
  -25.0093  -33.9686   25.0391 H   0  0  0  0  0  0
  -22.7295  -31.3002   21.3954 H   0  0  0  0  0  0
  -23.3761  -35.9600   23.3295 H   0  0  0  0  0  0
  -24.3576  -36.8907   22.2054 H   0  0  0  0  0  0
  -23.7238  -37.6471   23.6671 H   0  0  0  0  0  0
  -26.1274  -31.5213   20.6176 H   0  0  0  0  0  0
  -26.8564  -30.8058   22.0223 H   0  0  0  0  0  0
  -28.1179  -28.8860   21.2454 H   0  0  0  0  0  0
  -25.9720  -25.9109   18.9744 H   0  0  0  0  0  0
  -23.9812  -27.3302   18.9652 H   0  0  0  0  0  0
  -23.7758  -30.5919   19.4027 H   0  0  0  0  0  0
  -22.7710  -29.2475   19.8506 H   0  0  0  0  0  0
  -25.1306  -36.1907   25.0818 H   0  0  0  0  0  0
  -20.9997  -28.3294   24.1383 H   0  0  0  0  0  0
  -20.5708  -26.2317   23.3619 H   0  0  0  0  0  0
  -21.6655  -26.7458   22.1190 H   0  0  0  0  0  0
  -19.6927  -25.6294   21.1255 H   0  0  0  0  0  0
  -19.6704  -27.3190   20.6744 H   0  0  0  0  0  0
  -17.4218  -26.6694   21.4017 H   0  0  0  0  0  0
  -18.0331  -26.0079   22.9015 H   0  0  0  0  0  0
  -19.7947  -30.7293   24.2244 H   0  0  0  0  0  0
  -17.5021  -31.6274   24.5162 H   0  0  0  0  0  0
  -15.5360  -30.2982   23.7675 H   0  0  0  0  0  0
  -15.8681  -28.0818   22.7081 H   0  0  0  0  0  0
  -24.5897  -30.7099   25.7755 H   0  0  0  0  0  0
  -24.8918  -32.2914   26.4850 H   0  0  0  0  0  0
  -25.8022  -30.8916   27.0225 H   0  0  0  0  0  0
  -26.2969  -29.6725   24.1258 H   0  0  0  0  0  0
  -27.4016  -29.7272   25.4798 H   0  0  0  0  0  0
  -27.8868  -30.4250   23.9535 H   0  0  0  0  0  0
  -27.2662  -33.3634   26.2071 H   0  0  0  0  0  0
  -28.3878  -32.6889   25.0342 H   0  0  0  0  0  0
  -28.0724  -31.8468   26.5434 H   0  0  0  0  0  0
  -28.2593  -38.0097   24.7518 H   0  0  0  0  0  0
  -28.1083  -36.2626   24.6281 H   0  0  0  0  0  0
  -27.2296  -37.1431   25.8866 H   0  0  0  0  0  0
  -20.9422  -29.8744   21.6818 H   0  0  0  0  0  0
  -26.0168  -38.2840   24.1410 H   0  0  0  0  0  0
  -31.3949  -19.3823   21.0962 H   0  0  0  0  0  0
  -30.4041  -18.5985   22.2847 H   0  0  0  0  0  0
  -27.8750  -18.1171   21.5239 H   0  0  0  0  0  0
  -27.5607  -18.4025   19.8535 H   0  0  0  0  0  0
  -31.9265  -16.9774   21.3489 H   0  0  0  0  0  0
  -31.5025  -17.3792   19.7107 H   0  0  0  0  0  0
  -28.7192  -16.4473   19.1624 H   0  0  0  0  0  0
  -28.0320  -15.9687   20.6887 H   0  0  0  0  0  0
  -28.2663  -20.7643   23.9926 H   0  0  0  0  0  0
  -28.6324  -19.3466   23.0888 H   0  0  0  0  0  0
  -26.9984  -19.9868   23.0292 H   0  0  0  0  0  0
  -26.6849  -22.2949   23.6624 H   0  0  0  0  0  0
  -26.4841  -23.7986   22.8623 H   0  0  0  0  0  0
  -27.9200  -23.5380   23.8552 H   0  0  0  0  0  0
  -29.4485  -20.4476   17.9215 H   0  0  0  0  0  0
  -31.0113  -20.8392   18.6451 H   0  0  0  0  0  0
  -30.1197  -22.0698   17.7475 H   0  0  0  0  0  0
  -28.0034  -25.3227   22.0105 H   0  0  0  0  0  0
  -26.7416  -24.9051   20.9108 H   0  0  0  0  0  0
  1 25  1  0  0  0
  1 30  2  0  0  0
  1 86  1  0  0  0
  2  3  1  0  0  0
  2 25  1  0  0  0
  2 87  1  0  0  0
  2 88  1  0  0  0
  3  4  1  0  0  0
  3 89  1  0  0  0
  3 90  1  0  0  0
  4  5  1  0  0  0
  4 91  1  0  0  0
  4 92  1  0  0  0
  5  6  1  0  0  0
  5 26  1  0  0  0
  5 93  1  0  0  0
  6 25  1  0  0  0
  6 94  1  0  0  0
  6 95  1  0  0  0
  7  8  2  0  0  0
  7 26  1  0  0  0
  7 29  1  0  0  0
  8  9  1  0  0  0
  8 22  1  0  0  0
  9 10  1  0  0  0
  9 27  2  0  0  0
 10 11  2  0  0  0
 10 15  1  0  0  0
 11 12  1  0  0  0
 11 96  1  0  0  0
 12 13  2  0  0  0
 12 97  1  0  0  0
 13 14  1  0  0  0
 13 31  1  0  0  0
 14 15  2  0  0  0
 14 98  1  0  0  0
 15 99  1  0  0  0
 16 17  2  0  0  0
 16 21  1  0  0  0
 16 31  1  0  0  0
 17 18  1  0  0  0
 17100  1  0  0  0
 18 19  2  0  0  0
 18101  1  0  0  0
 19 20  1  0  0  0
 19 24  1  0  0  0
 20 21  2  0  0  0
 20102  1  0  0  0
 21 23  1  0  0  0
 22 28  1  0  0  0
 22 32  2  0  0  0
 26 27  1  0  0  0
 28103  1  0  0  0
 28104  1  0  0  0
 29105  1  0  0  0
 29106  1  0  0  0
 33 34  1  0  0  0
 33 66  1  0  0  0
 33 70  2  0  0  0
 34 36  1  0  0  0
 34 59  1  0  0  0
 34107  1  0  0  0
 35 44  2  0  0  0
 35 45  1  0  0  0
 35 68  1  0  0  0
 36 56  1  0  0  0
 36108  1  0  0  0
 37 39  1  0  0  0
 37 47  1  0  0  0
 37 66  1  0  0  0
 37109  1  0  0  0
 38 43  2  0  0  0
 38 46  1  0  0  0
 38 47  1  0  0  0
 39 64  1  0  0  0
 39 67  2  0  0  0
 40 52  1  0  0  0
 40 53  2  0  0  0
 40 58  1  0  0  0
 41110  1  0  0  0
 41111  1  0  0  0
 41112  1  0  0  0
 41 48  1  0  0  0
 42 43  1  0  0  0
 42 66  1  0  0  0
 42113  1  0  0  0
 42114  1  0  0  0
 43 44  1  0  0  0
 44115  1  0  0  0
 45 46  2  0  0  0
 45116  1  0  0  0
 46117  1  0  0  0
 47118  1  0  0  0
 47119  1  0  0  0
 48 56  1  0  0  0
 48 65  1  0  0  0
 48120  1  0  0  0
 49 50  1  0  0  0
 49 53  1  0  0  0
 49 64  1  0  0  0
 49121  1  0  0  0
 50 51  1  0  0  0
 50122  1  0  0  0
 50123  1  0  0  0
 51 52  1  0  0  0
 51124  1  0  0  0
 51125  1  0  0  0
 52126  1  0  0  0
 52127  1  0  0  0
 53 54  1  0  0  0
 54 55  2  0  0  0
 54128  1  0  0  0
 55 57  1  0  0  0
 55129  1  0  0  0
 56 69  2  0  0  0
 57 58  2  0  0  0
 57130  1  0  0  0
 58131  1  0  0  0
 59 60  1  0  0  0
 59 61  1  0  0  0
 59 62  1  0  0  0
 60132  1  0  0  0
 60133  1  0  0  0
 60134  1  0  0  0
 61135  1  0  0  0
 61136  1  0  0  0
 61137  1  0  0  0
 62138  1  0  0  0
 62139  1  0  0  0
 62140  1  0  0  0
 63 65  1  0  0  0
 63141  1  0  0  0
 63142  1  0  0  0
 63143  1  0  0  0
 64144  1  0  0  0
 65145  1  0  0  0
 68 83  1  0  0  0
 71 72  2  0  0  0
 71 73  1  0  0  0
 71 80  1  0  0  0
 72 74  1  0  0  0
 72 81  1  0  0  0
 73 75  2  0  0  0
 73 85  1  0  0  0
 74 83  1  0  0  0
 74 84  2  0  0  0
 75 82  1  0  0  0
 75 84  1  0  0  0
 76 78  1  0  0  0
 76 85  1  0  0  0
 76146  1  0  0  0
 76147  1  0  0  0
 77 79  1  0  0  0
 77 85  1  0  0  0
 77148  1  0  0  0
 77149  1  0  0  0
 78 86  1  0  0  0
 78150  1  0  0  0
 78151  1  0  0  0
 79 86  1  0  0  0
 79152  1  0  0  0
 79153  1  0  0  0
 80154  1  0  0  0
 80155  1  0  0  0
 80156  1  0  0  0
 81157  1  0  0  0
 81158  1  0  0  0
 81159  1  0  0  0
 82160  1  0  0  0
 82161  1  0  0  0
 82162  1  0  0  0
 83163  1  0  0  0
 83164  1  0  0  0
M  ISO  4   1 100  68 101  83 101  86 100
M  END
> <chiral flag>
0

> <version>
0

> <s_m_source_file>
/data/baiqing/PycharmProjects/Reinvent-master-3.2/result/LINK_invent/BTK/process_docking_weight1_custom_sum_contain_oxygen_bond_distance_aromatic_linkinvent_7_9_3/rearranged_h_0157.sdf

> <i_m_source_file_index>
77

> <r_mmod_Potential_Energy-OPLS-2005>
422.524566650391

> <r_mmod_Stretch_Energy-OPLS-2005>
146.769653320312

> <r_mmod_Bend_Energy-OPLS-2005>
246.47135925293

> <r_mmod_Torsional_Energy-OPLS-2005>
373.521606445312

> <r_mmod_Improper_Torsional_Energy-OPLS-2005>
9.26957416534424

> <r_mmod_Van_der_Waal_Energy-OPLS-2005>
165.15283203125

> <r_mmod_Electrostatic_Energy-OPLS-2005>
-411.649719238281

> <r_mmod_Solvation_Energy-OPLS-2005>
-228.377792358398

> <b_mmod_Minimization_Converged-OPLS-2005>
0

> <r_mmod_RMS_Derivative-OPLS-2005>
1.02336752414703

$$$$
77
                    3D
 Structure written by MMmdl.
172181  0  0  1  0            999 V2000
  -30.7323  -14.4409   20.5213 C   0  0  0  0  0  0
  -30.4067  -12.2759   19.4305 C   0  0  0  0  0  0
  -29.4945  -12.4938   18.2082 C   0  0  0  0  0  0
  -28.0139  -12.3651   18.6160 C   0  0  0  0  0  0
  -27.6564  -13.2153   19.8655 C   0  0  2  0  0  0
  -28.6988  -13.0263   20.9917 C   0  0  0  0  0  0
  -25.2553  -13.8185   20.5667 C   0  0  0  0  0  0
  -24.1810  -13.0455   20.9167 C   0  0  0  0  0  0
  -24.6373  -11.6922   20.8714 C   0  0  0  0  0  0
  -23.9049  -10.4300   21.0380 C   0  0  0  0  0  0
  -24.3602   -9.4219   21.9163 C   0  0  0  0  0  0
  -23.6273   -8.2251   22.0742 C   0  0  0  0  0  0
  -22.4248   -8.0285   21.3537 C   0  0  0  0  0  0
  -21.9886   -9.0263   20.4644 C   0  0  0  0  0  0
  -22.7222  -10.2132   20.3040 C   0  0  0  0  0  0
  -21.6860   -6.0715   22.5257 C   0  0  0  0  0  0
  -21.4017   -6.5603   23.8197 C   0  0  0  0  0  0
  -21.3672   -5.6760   24.9156 C   0  0  0  0  0  0
  -21.6049   -4.3026   24.7211 C   0  0  0  0  0  0
  -21.8828   -3.8114   23.4328 C   0  0  0  0  0  0
  -21.9196   -4.6940   22.3383 C   0  0  0  0  0  0
  -22.7829  -13.5245   21.1839 C   0  0  0  0  0  0
  -22.1659   -4.2132   21.0960 F   0  0  0  0  0  0
  -21.5641   -3.4508   25.7725 F   0  0  0  0  0  0
  -30.0307  -13.2842   20.4287 N   0  0  0  0  0  0
  -26.2990  -12.9375   20.3317 N   0  0  0  0  0  0
  -25.9293  -11.6520   20.5719 N   0  0  0  0  0  0
  -22.0447  -12.8256   22.0405 N   0  0  0  0  0  0
  -25.4264  -15.1905   20.4089 N   0  0  0  0  0  0
  -31.9182  -14.5276   20.1978 O   0  0  0  0  0  0
  -21.6631   -6.8868   21.4226 O   0  0  0  0  0  0
  -22.3518  -14.5551   20.6695 O   0  0  0  0  0  0
  -24.6129  -31.8695   23.2114 C   0  0  0  0  0  0
  -25.9029  -32.4824   23.8411 C   0  0  1  0  0  0
  -27.2369  -27.4561   20.0923 C   0  0  0  0  0  0
  -25.5895  -33.8621   24.2347 N   0  0  0  0  0  0
  -23.3999  -30.4945   21.5491 C   0  0  2  0  0  0
  -24.8468  -28.9609   20.1153 C   0  0  0  0  0  0
  -22.7399  -29.4667   22.4963 C   0  0  0  0  0  0
  -18.0266  -28.1379   22.8480 C   0  0  0  0  0  0
  -24.1474  -36.7309   23.2628 C   0  0  0  0  0  0
  -25.9268  -30.8405   21.3625 C   0  0  0  0  0  0
  -26.0033  -29.4737   20.7154 C   0  0  0  0  0  0
  -27.1972  -28.7217   20.7143 C   0  0  0  0  0  0
  -26.0594  -26.9417   19.5050 C   0  0  0  0  0  0
  -24.8665  -27.6907   19.5112 C   0  0  0  0  0  0
  -23.6108  -29.8305   20.1612 C   0  0  0  0  0  0
  -25.4079  -36.3105   24.0346 C   0  0  1  0  0  0
  -20.5857  -28.3669   23.1306 C   0  0  2  0  0  0
  -20.6764  -26.9404   22.5405 C   0  0  0  0  0  0
  -19.5738  -26.6389   21.5199 C   0  0  0  0  0  0
  -18.1918  -26.7926   22.1618 C   0  0  0  0  0  0
  -19.1521  -28.8840   23.2893 C   0  0  0  0  0  0
  -18.9453  -30.1446   23.8912 C   0  0  0  0  0  0
  -17.6459  -30.6585   24.0566 C   0  0  0  0  0  0
  -25.9025  -34.9475   23.5144 C   0  0  0  0  0  0
  -16.5354  -29.9099   23.6321 C   0  0  0  0  0  0
  -16.7257  -28.6515   23.0343 C   0  0  0  0  0  0
  -26.4468  -31.6592   25.0730 C   0  0  0  0  0  0
  -25.3762  -31.3728   26.1512 C   0  0  0  0  0  0
  -27.0258  -30.3021   24.6091 C   0  0  0  0  0  0
  -27.6076  -32.4283   25.7474 C   0  0  0  0  0  0
  -27.5586  -37.1769   24.8437 C   0  0  0  0  0  0
  -21.4125  -29.3039   22.3705 N   0  0  0  0  0  0
  -26.4247  -37.3810   23.9460 N   0  0  0  0  0  0
  -24.6643  -31.0830   22.0992 N   0  0  0  0  0  0
  -23.4174  -28.8209   23.3003 O   0  0  0  0  0  0
  -28.4067  -26.7321   20.1127 O   0  0  0  0  0  0
  -26.5588  -34.8931   22.4706 O   0  0  0  0  0  0
  -23.5325  -32.1437   23.7527 O   0  0  0  0  0  0
  -28.8365  -23.7971   17.9748 C   0  0  0  0  0  0
  -30.7469  -22.9183   19.8166 C   0  0  0  0  0  0
  -29.3813  -22.5037   17.8417 C   0  0  0  0  0  0
  -30.2083  -24.2196   19.9394 C   0  0  0  0  0  0
  -29.2753  -24.6851   18.9772 C   0  0  0  0  0  0
  -30.4000  -22.0760   18.7355 C   0  0  0  0  0  0
  -31.5628  -18.3166   18.5744 C   0  0  0  0  0  0
  -29.5838  -19.3042   19.8539 C   0  0  0  0  0  0
  -30.7870  -17.0276   18.8527 C   0  0  0  0  0  0
  -29.4931  -18.0370   20.7621 C   0  0  0  0  0  0
  -31.0198  -19.5612   19.3311 C   0  0  2  0  0  0
  -30.4771  -16.9052   20.3595 C   0  0  1  0  0  0
  -28.8944  -21.6439   16.6841 C   0  0  0  0  0  0
  -30.6961  -25.1030   21.0749 C   0  0  0  0  0  0
  -32.7520  -21.1832   18.4024 C   0  0  0  0  0  0
  -28.8248  -26.1446   18.8826 C   0  0  0  0  0  0
  -31.2511  -20.8268   18.4514 C   0  0  2  0  0  0
  -30.0001  -15.5540   20.7025 N   0  0  0  0  0  0
  -31.4559  -12.3392   19.1376 H   0  0  0  0  0  0
  -30.2709  -11.2738   19.8394 H   0  0  0  0  0  0
  -29.7291  -11.7717   17.4263 H   0  0  0  0  0  0
  -29.6805  -13.4805   17.7791 H   0  0  0  0  0  0
  -27.8181  -11.3112   18.8180 H   0  0  0  0  0  0
  -27.3717  -12.6395   17.7790 H   0  0  0  0  0  0
  -27.6940  -14.2572   19.5467 H   0  0  0  0  0  0
  -28.6605  -12.0088   21.3836 H   0  0  0  0  0  0
  -28.4838  -13.6840   21.8366 H   0  0  0  0  0  0
  -25.2745   -9.5681   22.4739 H   0  0  0  0  0  0
  -23.9978   -7.4636   22.7449 H   0  0  0  0  0  0
  -21.0818   -8.8784   19.8943 H   0  0  0  0  0  0
  -22.3686  -10.9660   19.6132 H   0  0  0  0  0  0
  -21.1990   -7.6110   23.9703 H   0  0  0  0  0  0
  -21.1485   -6.0473   25.9070 H   0  0  0  0  0  0
  -22.0589   -2.7572   23.2836 H   0  0  0  0  0  0
  -22.4035  -11.9920   22.4823 H   0  0  0  0  0  0
  -21.1075  -13.1307   22.2592 H   0  0  0  0  0  0
  -24.6637  -15.8475   20.5373 H   0  0  0  0  0  0
  -26.2743  -15.6316   20.0774 H   0  0  0  0  0  0
  -26.7111  -32.5546   23.1186 H   0  0  0  0  0  0
  -25.0056  -33.9785   25.0498 H   0  0  0  0  0  0
  -22.6872  -31.3103   21.4117 H   0  0  0  0  0  0
  -23.3765  -35.9605   23.3208 H   0  0  0  0  0  0
  -24.3612  -36.9006   22.2061 H   0  0  0  0  0  0
  -23.7179  -37.6469   23.6693 H   0  0  0  0  0  0
  -26.0370  -31.6042   20.5912 H   0  0  0  0  0  0
  -26.8153  -30.8969   21.9789 H   0  0  0  0  0  0
  -28.0902  -29.1117   21.1827 H   0  0  0  0  0  0
  -26.0551  -25.9583   19.0573 H   0  0  0  0  0  0
  -23.9739  -27.2831   19.0575 H   0  0  0  0  0  0
  -23.7299  -30.6099   19.4069 H   0  0  0  0  0  0
  -22.7333  -29.2585   19.8558 H   0  0  0  0  0  0
  -25.1235  -36.1946   25.0832 H   0  0  0  0  0  0
  -20.9953  -28.3241   24.1425 H   0  0  0  0  0  0
  -20.5661  -26.2273   23.3590 H   0  0  0  0  0  0
  -21.6637  -26.7449   22.1204 H   0  0  0  0  0  0
  -19.6905  -25.6307   21.1216 H   0  0  0  0  0  0
  -19.6667  -27.3205   20.6731 H   0  0  0  0  0  0
  -17.4176  -26.6651   21.4033 H   0  0  0  0  0  0
  -18.0336  -26.0071   22.9021 H   0  0  0  0  0  0
  -19.7936  -30.7245   24.2288 H   0  0  0  0  0  0
  -17.5030  -31.6271   24.5173 H   0  0  0  0  0  0
  -15.5356  -30.3020   23.7645 H   0  0  0  0  0  0
  -15.8649  -28.0845   22.7062 H   0  0  0  0  0  0
  -24.5867  -30.7139   25.7887 H   0  0  0  0  0  0
  -24.9037  -32.2900   26.5037 H   0  0  0  0  0  0
  -25.8131  -30.8840   27.0228 H   0  0  0  0  0  0
  -26.2765  -29.6805   24.1170 H   0  0  0  0  0  0
  -27.4046  -29.7246   25.4538 H   0  0  0  0  0  0
  -27.8611  -30.4325   23.9203 H   0  0  0  0  0  0
  -27.2744  -33.3616   26.2029 H   0  0  0  0  0  0
  -28.3898  -32.6771   25.0286 H   0  0  0  0  0  0
  -28.0713  -31.8395   26.5404 H   0  0  0  0  0  0
  -28.2498  -38.0171   24.7664 H   0  0  0  0  0  0
  -28.1185  -36.2729   24.6005 H   0  0  0  0  0  0
  -27.2358  -37.1113   25.8841 H   0  0  0  0  0  0
  -20.9275  -29.8773   21.6943 H   0  0  0  0  0  0
  -26.0126  -38.2848   24.1604 H   0  0  0  0  0  0
  -28.1115  -24.1398   17.2501 H   0  0  0  0  0  0
  -31.5017  -22.5912   20.5182 H   0  0  0  0  0  0
  -31.5606  -18.4652   17.4941 H   0  0  0  0  0  0
  -32.6110  -18.1709   18.8412 H   0  0  0  0  0  0
  -29.2177  -20.1673   20.4102 H   0  0  0  0  0  0
  -28.9119  -19.1896   19.0021 H   0  0  0  0  0  0
  -31.3782  -16.1999   18.4629 H   0  0  0  0  0  0
  -29.8583  -17.0124   18.2802 H   0  0  0  0  0  0
  -28.4647  -17.6740   20.7438 H   0  0  0  0  0  0
  -29.6884  -18.3140   21.7994 H   0  0  0  0  0  0
  -31.6206  -19.6899   20.2346 H   0  0  0  0  0  0
  -31.4084  -17.0661   20.9091 H   0  0  0  0  0  0
  -27.9833  -22.0486   16.2410 H   0  0  0  0  0  0
  -28.6695  -20.6312   17.0184 H   0  0  0  0  0  0
  -29.6466  -21.5954   15.8957 H   0  0  0  0  0  0
  -31.5417  -24.6520   21.5946 H   0  0  0  0  0  0
  -29.9018  -25.2543   21.8061 H   0  0  0  0  0  0
  -31.0187  -26.0770   20.7085 H   0  0  0  0  0  0
  -32.9398  -21.9997   17.7049 H   0  0  0  0  0  0
  -33.3556  -20.3370   18.0715 H   0  0  0  0  0  0
  -33.1353  -21.4820   19.3784 H   0  0  0  0  0  0
  -28.0911  -26.2578   18.0848 H   0  0  0  0  0  0
  -29.6848  -26.7200   18.5403 H   0  0  0  0  0  0
  -31.0168  -20.5415   17.4285 H   0  0  0  0  0  0
  -29.0258  -15.4373   20.9353 H   0  0  0  0  0  0
  1 25  1  0  0  0
  1 30  2  0  0  0
  1 88  1  0  0  0
  2  3  1  0  0  0
  2 25  1  0  0  0
  2 89  1  0  0  0
  2 90  1  0  0  0
  3  4  1  0  0  0
  3 91  1  0  0  0
  3 92  1  0  0  0
  4  5  1  0  0  0
  4 93  1  0  0  0
  4 94  1  0  0  0
  5  6  1  0  0  0
  5 26  1  0  0  0
  5 95  1  0  0  0
  6 25  1  0  0  0
  6 96  1  0  0  0
  6 97  1  0  0  0
  7  8  2  0  0  0
  7 26  1  0  0  0
  7 29  1  0  0  0
  8  9  1  0  0  0
  8 22  1  0  0  0
  9 10  1  0  0  0
  9 27  2  0  0  0
 10 11  2  0  0  0
 10 15  1  0  0  0
 11 12  1  0  0  0
 11 98  1  0  0  0
 12 13  2  0  0  0
 12 99  1  0  0  0
 13 14  1  0  0  0
 13 31  1  0  0  0
 14 15  2  0  0  0
 14100  1  0  0  0
 15101  1  0  0  0
 16 17  2  0  0  0
 16 21  1  0  0  0
 16 31  1  0  0  0
 17 18  1  0  0  0
 17102  1  0  0  0
 18 19  2  0  0  0
 18103  1  0  0  0
 19 20  1  0  0  0
 19 24  1  0  0  0
 20 21  2  0  0  0
 20104  1  0  0  0
 21 23  1  0  0  0
 22 28  1  0  0  0
 22 32  2  0  0  0
 26 27  1  0  0  0
 28105  1  0  0  0
 28106  1  0  0  0
 29107  1  0  0  0
 29108  1  0  0  0
 33 34  1  0  0  0
 33 66  1  0  0  0
 33 70  2  0  0  0
 34 36  1  0  0  0
 34 59  1  0  0  0
 34109  1  0  0  0
 35 44  2  0  0  0
 35 45  1  0  0  0
 35 68  1  0  0  0
 36 56  1  0  0  0
 36110  1  0  0  0
 37 39  1  0  0  0
 37 47  1  0  0  0
 37 66  1  0  0  0
 37111  1  0  0  0
 38 43  2  0  0  0
 38 46  1  0  0  0
 38 47  1  0  0  0
 39 64  1  0  0  0
 39 67  2  0  0  0
 40 52  1  0  0  0
 40 53  2  0  0  0
 40 58  1  0  0  0
 41112  1  0  0  0
 41113  1  0  0  0
 41114  1  0  0  0
 41 48  1  0  0  0
 42 43  1  0  0  0
 42 66  1  0  0  0
 42115  1  0  0  0
 42116  1  0  0  0
 43 44  1  0  0  0
 44117  1  0  0  0
 45 46  2  0  0  0
 45118  1  0  0  0
 46119  1  0  0  0
 47120  1  0  0  0
 47121  1  0  0  0
 48 56  1  0  0  0
 48 65  1  0  0  0
 48122  1  0  0  0
 49 50  1  0  0  0
 49 53  1  0  0  0
 49 64  1  0  0  0
 49123  1  0  0  0
 50 51  1  0  0  0
 50124  1  0  0  0
 50125  1  0  0  0
 51 52  1  0  0  0
 51126  1  0  0  0
 51127  1  0  0  0
 52128  1  0  0  0
 52129  1  0  0  0
 53 54  1  0  0  0
 54 55  2  0  0  0
 54130  1  0  0  0
 55 57  1  0  0  0
 55131  1  0  0  0
 56 69  2  0  0  0
 57 58  2  0  0  0
 57132  1  0  0  0
 58133  1  0  0  0
 59 60  1  0  0  0
 59 61  1  0  0  0
 59 62  1  0  0  0
 60134  1  0  0  0
 60135  1  0  0  0
 60136  1  0  0  0
 61137  1  0  0  0
 61138  1  0  0  0
 61139  1  0  0  0
 62140  1  0  0  0
 62141  1  0  0  0
 62142  1  0  0  0
 63 65  1  0  0  0
 63143  1  0  0  0
 63144  1  0  0  0
 63145  1  0  0  0
 64146  1  0  0  0
 65147  1  0  0  0
 68 86  1  0  0  0
 71 73  2  0  0  0
 71 75  1  0  0  0
 71148  1  0  0  0
 72 74  1  0  0  0
 72 76  2  0  0  0
 72149  1  0  0  0
 73 76  1  0  0  0
 73 83  1  0  0  0
 74 75  2  0  0  0
 74 84  1  0  0  0
 75 86  1  0  0  0
 76 87  1  0  0  0
 77 79  1  0  0  0
 77150  1  0  0  0
 77151  1  0  0  0
 77 81  1  0  0  0
 78 80  1  0  0  0
 78 81  1  0  0  0
 78152  1  0  0  0
 78153  1  0  0  0
 79 82  1  0  0  0
 79154  1  0  0  0
 79155  1  0  0  0
 80 82  1  0  0  0
 80156  1  0  0  0
 80157  1  0  0  0
 81 87  1  0  0  0
 81158  1  0  0  0
 82 88  1  0  0  0
 82159  1  0  0  0
 83160  1  0  0  0
 83161  1  0  0  0
 83162  1  0  0  0
 84163  1  0  0  0
 84164  1  0  0  0
 84165  1  0  0  0
 85166  1  0  0  0
 85167  1  0  0  0
 85168  1  0  0  0
 85 87  1  0  0  0
 86169  1  0  0  0
 86170  1  0  0  0
 87171  1  0  0  0
 88172  1  0  0  0
M  ISO  4   1 100  68 101  86 101  88 100
M  END
> <chiral flag>
0

> <version>
0

> <s_m_source_file>
/data/baiqing/PycharmProjects/Reinvent-master-3.2/result/LINK_invent/BTK/process_docking_weight1_custom_sum_contain_oxygen_bond_distance_aromatic_linkinvent_7_9_3/rearranged_h_0157.sdf

> <i_m_source_file_index>
78

> <r_mmod_Potential_Energy-OPLS-2005>
51.5068206787109

> <r_mmod_Stretch_Energy-OPLS-2005>
38.755687713623

> <r_mmod_Bend_Energy-OPLS-2005>
110.18896484375

> <r_mmod_Torsional_Energy-OPLS-2005>
279.411987304688

> <r_mmod_Improper_Torsional_Energy-OPLS-2005>
8.60129451751709

> <r_mmod_Van_der_Waal_Energy-OPLS-2005>
171.435592651367

> <r_mmod_Electrostatic_Energy-OPLS-2005>
-381.413330078125

> <r_mmod_Solvation_Energy-OPLS-2005>
-193.627746582031

> <b_mmod_Minimization_Converged-OPLS-2005>
0

> <r_mmod_RMS_Derivative-OPLS-2005>
2.50050330162048

$$$$
78
                    3D
 Structure written by MMmdl.
166175  0  0  1  0            999 V2000
  -30.5310  -14.9234   20.4150 C   0  0  0  0  0  0
  -30.4408  -12.5662   19.4947 C   0  0  0  0  0  0
  -29.5216  -12.5255   18.2517 C   0  0  0  0  0  0
  -28.0516  -12.3218   18.6651 C   0  0  0  0  0  0
  -27.6315  -13.2444   19.8399 C   0  0  2  0  0  0
  -28.6751  -13.2504   20.9774 C   0  0  0  0  0  0
  -25.2476  -13.8218   20.5710 C   0  0  0  0  0  0
  -24.1787  -13.0445   20.9231 C   0  0  0  0  0  0
  -24.6393  -11.6923   20.8748 C   0  0  0  0  0  0
  -23.9076  -10.4293   21.0401 C   0  0  0  0  0  0
  -24.3630   -9.4210   21.9176 C   0  0  0  0  0  0
  -23.6306   -8.2243   22.0746 C   0  0  0  0  0  0
  -22.4283   -8.0279   21.3546 C   0  0  0  0  0  0
  -21.9919   -9.0250   20.4645 C   0  0  0  0  0  0
  -22.7246  -10.2131   20.3052 C   0  0  0  0  0  0
  -21.6859   -6.0732   22.5274 C   0  0  0  0  0  0
  -21.4017   -6.5635   23.8207 C   0  0  0  0  0  0
  -21.3666   -5.6788   24.9172 C   0  0  0  0  0  0
  -21.6047   -4.3049   24.7223 C   0  0  0  0  0  0
  -21.8822   -3.8143   23.4342 C   0  0  0  0  0  0
  -21.9197   -4.6959   22.3397 C   0  0  0  0  0  0
  -22.7808  -13.5217   21.1884 C   0  0  0  0  0  0
  -22.1662   -4.2144   21.0977 F   0  0  0  0  0  0
  -21.5637   -3.4534   25.7737 F   0  0  0  0  0  0
  -29.9527  -13.6583   20.3814 N   0  0  0  0  0  0
  -26.2893  -12.9436   20.3244 N   0  0  0  0  0  0
  -25.9330  -11.6570   20.5744 N   0  0  0  0  0  0
  -22.0452  -12.8205   22.0435 N   0  0  0  0  0  0
  -25.4146  -15.1949   20.4122 N   0  0  0  0  0  0
  -31.7330  -15.0100   20.1411 O   0  0  0  0  0  0
  -21.6649   -6.8875   21.4237 O   0  0  0  0  0  0
  -22.3478  -14.5510   20.6709 O   0  0  0  0  0  0
  -24.6414  -31.8449   23.1872 C   0  0  0  0  0  0
  -25.9194  -32.4697   23.8260 C   0  0  1  0  0  0
  -27.2221  -27.1489   20.1568 C   0  0  0  0  0  0
  -25.5946  -33.8504   24.2188 N   0  0  0  0  0  0
  -23.4438  -30.4622   21.5331 C   0  0  2  0  0  0
  -24.8921  -28.8796   20.1162 C   0  0  0  0  0  0
  -22.7547  -29.4558   22.4880 C   0  0  0  0  0  0
  -18.0301  -28.1393   22.8484 C   0  0  0  0  0  0
  -24.1486  -36.7253   23.2641 C   0  0  0  0  0  0
  -25.9966  -30.7230   21.3802 C   0  0  0  0  0  0
  -26.0678  -29.3326   20.7268 C   0  0  0  0  0  0
  -27.2342  -28.4848   20.7228 C   0  0  0  0  0  0
  -26.0189  -26.7802   19.5229 C   0  0  0  0  0  0
  -24.8785  -27.6164   19.5001 C   0  0  0  0  0  0
  -23.6692  -29.7832   20.1546 C   0  0  0  0  0  0
  -25.4120  -36.3036   24.0316 C   0  0  1  0  0  0
  -20.5912  -28.3712   23.1250 C   0  0  2  0  0  0
  -20.6789  -26.9419   22.5416 C   0  0  0  0  0  0
  -19.5766  -26.6382   21.5222 C   0  0  0  0  0  0
  -18.1943  -26.7933   22.1628 C   0  0  0  0  0  0
  -19.1557  -28.8871   23.2860 C   0  0  0  0  0  0
  -18.9474  -30.1470   23.8882 C   0  0  0  0  0  0
  -17.6474  -30.6595   24.0562 C   0  0  0  0  0  0
  -25.9072  -34.9409   23.5064 C   0  0  0  0  0  0
  -16.5364  -29.9090   23.6336 C   0  0  0  0  0  0
  -16.7285  -28.6507   23.0356 C   0  0  0  0  0  0
  -26.4526  -31.6560   25.0698 C   0  0  0  0  0  0
  -25.3723  -31.3738   26.1404 C   0  0  0  0  0  0
  -27.0383  -30.2956   24.6263 C   0  0  0  0  0  0
  -27.6056  -32.4316   25.7492 C   0  0  0  0  0  0
  -27.5578  -37.1785   24.8466 C   0  0  0  0  0  0
  -21.4243  -29.3042   22.3627 N   0  0  0  0  0  0
  -26.4281  -37.3753   23.9412 N   0  0  0  0  0  0
  -24.7139  -31.0318   22.0890 N   0  0  0  0  0  0
  -23.4196  -28.8117   23.3032 O   0  0  0  0  0  0
  -28.3209  -26.2255   20.1843 O   0  0  0  0  0  0
  -26.5670  -34.8907   22.4652 O   0  0  0  0  0  0
  -23.5539  -32.1313   23.7113 O   0  0  0  0  0  0
  -31.3347  -21.9932   20.0618 C   0  0  0  0  0  0
  -32.0635  -24.2172   20.5478 C   0  0  0  0  0  0
  -32.3670  -22.9239   20.1544 C   0  0  0  0  0  0
  -29.6125  -23.7612   20.4215 C   0  0  0  0  0  0
  -29.9488  -22.2732   20.2603 C   0  0  0  0  0  0
  -30.7265  -24.6176   20.7430 C   0  0  0  0  0  0
  -29.1607  -18.4409   19.2963 C   0  0  0  0  0  0
  -29.4552  -18.5554   21.6197 C   0  0  0  0  0  0
  -29.3733  -20.0418   19.1501 C   0  0  0  0  0  0
  -29.6949  -20.1505   21.5392 C   0  0  0  0  0  0
  -29.9423  -17.6448   20.4235 C   0  0  0  0  0  0
  -33.8111  -22.5141   19.9317 C   0  0  0  0  0  0
  -31.5316  -26.5910   21.9179 C   0  0  0  0  0  0
  -28.2402  -24.6648   20.2913 C   0  0  0  0  0  0
  -29.2327  -20.9638   20.3458 N   0  0  0  0  0  0
  -29.7174  -16.0794   20.5476 N   0  0  0  0  0  0
  -30.4854  -25.8715   21.2727 O   0  0  0  0  0  0
  -31.4762  -12.7233   19.1874 H   0  0  0  0  0  0
  -30.4264  -11.6091   20.0187 H   0  0  0  0  0  0
  -29.8335  -11.7288   17.5748 H   0  0  0  0  0  0
  -29.6206  -13.4582   17.6950 H   0  0  0  0  0  0
  -27.9353  -11.2779   18.9588 H   0  0  0  0  0  0
  -27.3921  -12.4714   17.8088 H   0  0  0  0  0  0
  -27.6008  -14.2513   19.4241 H   0  0  0  0  0  0
  -28.7567  -12.2673   21.4418 H   0  0  0  0  0  0
  -28.3819  -13.9427   21.7676 H   0  0  0  0  0  0
  -25.2774   -9.5694   22.4752 H   0  0  0  0  0  0
  -24.0018   -7.4640   22.7468 H   0  0  0  0  0  0
  -21.0848   -8.8766   19.8953 H   0  0  0  0  0  0
  -22.3694  -10.9670   19.6163 H   0  0  0  0  0  0
  -21.1996   -7.6138   23.9710 H   0  0  0  0  0  0
  -21.1494   -6.0514   25.9076 H   0  0  0  0  0  0
  -22.0595   -2.7603   23.2843 H   0  0  0  0  0  0
  -22.4080  -11.9884   22.4849 H   0  0  0  0  0  0
  -21.1057  -13.1215   22.2621 H   0  0  0  0  0  0
  -24.6438  -15.8454   20.5218 H   0  0  0  0  0  0
  -26.2519  -15.6342   20.0526 H   0  0  0  0  0  0
  -26.7259  -32.5309   23.0986 H   0  0  0  0  0  0
  -25.0047  -33.9616   25.0306 H   0  0  0  0  0  0
  -22.7457  -31.2872   21.3758 H   0  0  0  0  0  0
  -23.3762  -35.9570   23.3284 H   0  0  0  0  0  0
  -24.3564  -36.8909   22.2059 H   0  0  0  0  0  0
  -23.7224  -37.6435   23.6692 H   0  0  0  0  0  0
  -26.1481  -31.4753   20.6050 H   0  0  0  0  0  0
  -26.8684  -30.7767   22.0203 H   0  0  0  0  0  0
  -28.1374  -28.8321   21.2043 H   0  0  0  0  0  0
  -25.9467  -25.8124   19.0489 H   0  0  0  0  0  0
  -23.9787  -27.2628   19.0159 H   0  0  0  0  0  0
  -23.8076  -30.5540   19.3958 H   0  0  0  0  0  0
  -22.7833  -29.2258   19.8456 H   0  0  0  0  0  0
  -25.1310  -36.1862   25.0807 H   0  0  0  0  0  0
  -21.0002  -28.3300   24.1373 H   0  0  0  0  0  0
  -20.5689  -26.2323   23.3630 H   0  0  0  0  0  0
  -21.6652  -26.7437   22.1210 H   0  0  0  0  0  0
  -19.6927  -25.6289   21.1261 H   0  0  0  0  0  0
  -19.6702  -27.3184   20.6746 H   0  0  0  0  0  0
  -17.4216  -26.6681   21.4028 H   0  0  0  0  0  0
  -18.0331  -26.0076   22.9022 H   0  0  0  0  0  0
  -19.7949  -30.7294   24.2234 H   0  0  0  0  0  0
  -17.5027  -31.6273   24.5168 H   0  0  0  0  0  0
  -15.5365  -30.2990   23.7672 H   0  0  0  0  0  0
  -15.8679  -28.0828   22.7076 H   0  0  0  0  0  0
  -24.5905  -30.7084   25.7725 H   0  0  0  0  0  0
  -24.8913  -32.2914   26.4796 H   0  0  0  0  0  0
  -25.8020  -30.8933   27.0203 H   0  0  0  0  0  0
  -26.2987  -29.6688   24.1270 H   0  0  0  0  0  0
  -27.3996  -29.7249   25.4826 H   0  0  0  0  0  0
  -27.8894  -30.4188   23.9563 H   0  0  0  0  0  0
  -27.2648  -33.3627   26.2025 H   0  0  0  0  0  0
  -28.3899  -32.6859   25.0352 H   0  0  0  0  0  0
  -28.0687  -31.8471   26.5452 H   0  0  0  0  0  0
  -28.2586  -38.0091   24.7525 H   0  0  0  0  0  0
  -28.1087  -36.2626   24.6277 H   0  0  0  0  0  0
  -27.2300  -37.1410   25.8870 H   0  0  0  0  0  0
  -20.9450  -29.8727   21.6787 H   0  0  0  0  0  0
  -26.0154  -38.2819   24.1426 H   0  0  0  0  0  0
  -31.6765  -20.9840   19.8912 H   0  0  0  0  0  0
  -32.8919  -24.8929   20.6993 H   0  0  0  0  0  0
  -29.4050  -17.9876   18.3343 H   0  0  0  0  0  0
  -28.0924  -18.2577   19.4221 H   0  0  0  0  0  0
  -28.3907  -18.3810   21.7856 H   0  0  0  0  0  0
  -29.9390  -18.1980   22.5299 H   0  0  0  0  0  0
  -28.6384  -20.3923   18.4243 H   0  0  0  0  0  0
  -30.3200  -20.1842   18.6339 H   0  0  0  0  0  0
  -30.7564  -20.3002   21.7333 H   0  0  0  0  0  0
  -29.2063  -20.5908   22.4098 H   0  0  0  0  0  0
  -31.0127  -17.7999   20.2801 H   0  0  0  0  0  0
  -33.8996  -21.4556   19.6869 H   0  0  0  0  0  0
  -34.4024  -22.6995   20.8286 H   0  0  0  0  0  0
  -34.2460  -23.0860   19.1117 H   0  0  0  0  0  0
  -32.0368  -25.9825   22.6698 H   0  0  0  0  0  0
  -31.1080  -27.4542   22.4309 H   0  0  0  0  0  0
  -32.2620  -26.9668   21.2008 H   0  0  0  0  0  0
  -27.6112  -24.4226   21.1481 H   0  0  0  0  0  0
  -27.7069  -24.2964   19.4151 H   0  0  0  0  0  0
  -28.7548  -15.8334   20.7268 H   0  0  0  0  0  0
  1 25  1  0  0  0
  1 30  2  0  0  0
  1 86  1  0  0  0
  2  3  1  0  0  0
  2 25  1  0  0  0
  2 88  1  0  0  0
  2 89  1  0  0  0
  3  4  1  0  0  0
  3 90  1  0  0  0
  3 91  1  0  0  0
  4  5  1  0  0  0
  4 92  1  0  0  0
  4 93  1  0  0  0
  5  6  1  0  0  0
  5 26  1  0  0  0
  5 94  1  0  0  0
  6 25  1  0  0  0
  6 95  1  0  0  0
  6 96  1  0  0  0
  7  8  2  0  0  0
  7 26  1  0  0  0
  7 29  1  0  0  0
  8  9  1  0  0  0
  8 22  1  0  0  0
  9 10  1  0  0  0
  9 27  2  0  0  0
 10 11  2  0  0  0
 10 15  1  0  0  0
 11 12  1  0  0  0
 11 97  1  0  0  0
 12 13  2  0  0  0
 12 98  1  0  0  0
 13 14  1  0  0  0
 13 31  1  0  0  0
 14 15  2  0  0  0
 14 99  1  0  0  0
 15100  1  0  0  0
 16 17  2  0  0  0
 16 21  1  0  0  0
 16 31  1  0  0  0
 17 18  1  0  0  0
 17101  1  0  0  0
 18 19  2  0  0  0
 18102  1  0  0  0
 19 20  1  0  0  0
 19 24  1  0  0  0
 20 21  2  0  0  0
 20103  1  0  0  0
 21 23  1  0  0  0
 22 28  1  0  0  0
 22 32  2  0  0  0
 26 27  1  0  0  0
 28104  1  0  0  0
 28105  1  0  0  0
 29106  1  0  0  0
 29107  1  0  0  0
 33 34  1  0  0  0
 33 66  1  0  0  0
 33 70  2  0  0  0
 34 36  1  0  0  0
 34 59  1  0  0  0
 34108  1  0  0  0
 35 44  2  0  0  0
 35 45  1  0  0  0
 35 68  1  0  0  0
 36 56  1  0  0  0
 36109  1  0  0  0
 37 39  1  0  0  0
 37 47  1  0  0  0
 37 66  1  0  0  0
 37110  1  0  0  0
 38 43  2  0  0  0
 38 46  1  0  0  0
 38 47  1  0  0  0
 39 64  1  0  0  0
 39 67  2  0  0  0
 40 52  1  0  0  0
 40 53  2  0  0  0
 40 58  1  0  0  0
 41111  1  0  0  0
 41112  1  0  0  0
 41113  1  0  0  0
 41 48  1  0  0  0
 42 43  1  0  0  0
 42 66  1  0  0  0
 42114  1  0  0  0
 42115  1  0  0  0
 43 44  1  0  0  0
 44116  1  0  0  0
 45 46  2  0  0  0
 45117  1  0  0  0
 46118  1  0  0  0
 47119  1  0  0  0
 47120  1  0  0  0
 48 56  1  0  0  0
 48 65  1  0  0  0
 48121  1  0  0  0
 49 50  1  0  0  0
 49 53  1  0  0  0
 49 64  1  0  0  0
 49122  1  0  0  0
 50 51  1  0  0  0
 50123  1  0  0  0
 50124  1  0  0  0
 51 52  1  0  0  0
 51125  1  0  0  0
 51126  1  0  0  0
 52127  1  0  0  0
 52128  1  0  0  0
 53 54  1  0  0  0
 54 55  2  0  0  0
 54129  1  0  0  0
 55 57  1  0  0  0
 55130  1  0  0  0
 56 69  2  0  0  0
 57 58  2  0  0  0
 57131  1  0  0  0
 58132  1  0  0  0
 59 60  1  0  0  0
 59 61  1  0  0  0
 59 62  1  0  0  0
 60133  1  0  0  0
 60134  1  0  0  0
 60135  1  0  0  0
 61136  1  0  0  0
 61137  1  0  0  0
 61138  1  0  0  0
 62139  1  0  0  0
 62140  1  0  0  0
 62141  1  0  0  0
 63 65  1  0  0  0
 63142  1  0  0  0
 63143  1  0  0  0
 63144  1  0  0  0
 64145  1  0  0  0
 65146  1  0  0  0
 68 84  1  0  0  0
 71 73  2  0  0  0
 71 75  1  0  0  0
 71147  1  0  0  0
 72 73  1  0  0  0
 72 76  2  0  0  0
 72148  1  0  0  0
 73 82  1  0  0  0
 74 75  2  0  0  0
 74 76  1  0  0  0
 74 84  1  0  0  0
 75 85  1  0  0  0
 76 87  1  0  0  0
 77 79  1  0  0  0
 77 81  1  0  0  0
 77149  1  0  0  0
 77150  1  0  0  0
 78 80  1  0  0  0
 78 81  1  0  0  0
 78151  1  0  0  0
 78152  1  0  0  0
 79 85  1  0  0  0
 79153  1  0  0  0
 79154  1  0  0  0
 80 85  1  0  0  0
 80155  1  0  0  0
 80156  1  0  0  0
 81 86  1  0  0  0
 81157  1  0  0  0
 82158  1  0  0  0
 82159  1  0  0  0
 82160  1  0  0  0
 83 87  1  0  0  0
 83161  1  0  0  0
 83162  1  0  0  0
 83163  1  0  0  0
 84164  1  0  0  0
 84165  1  0  0  0
 86166  1  0  0  0
M  ISO  4   1 100  68 101  84 101  86 100
M  END
> <chiral flag>
0

> <version>
0

> <s_m_source_file>
/data/baiqing/PycharmProjects/Reinvent-master-3.2/result/LINK_invent/BTK/process_docking_weight1_custom_sum_contain_oxygen_bond_distance_aromatic_linkinvent_7_9_3/rearranged_h_0157.sdf

> <i_m_source_file_index>
79

> <r_mmod_Potential_Energy-OPLS-2005>
684.558288574219

> <r_mmod_Stretch_Energy-OPLS-2005>
259.063720703125

> <r_mmod_Bend_Energy-OPLS-2005>
314.919708251953

> <r_mmod_Torsional_Energy-OPLS-2005>
301.516967773438

> <r_mmod_Improper_Torsional_Energy-OPLS-2005>
11.216796875

> <r_mmod_Van_der_Waal_Energy-OPLS-2005>
168.928619384766

> <r_mmod_Electrostatic_Energy-OPLS-2005>
-302.230590820312

> <r_mmod_Solvation_Energy-OPLS-2005>
-240.303665161133

> <b_mmod_Minimization_Converged-OPLS-2005>
0

> <r_mmod_RMS_Derivative-OPLS-2005>
1.3409698009491

$$$$
79
                    3D
 Structure written by MMmdl.
163173  0  0  1  0            999 V2000
  -30.5538  -15.0116   20.4341 C   0  0  0  0  0  0
  -30.4349  -12.6392   19.5032 C   0  0  0  0  0  0
  -29.5195  -12.5466   18.2601 C   0  0  0  0  0  0
  -28.0549  -12.3202   18.6782 C   0  0  0  0  0  0
  -27.6247  -13.2542   19.8390 C   0  0  2  0  0  0
  -28.6704  -13.2935   20.9740 C   0  0  0  0  0  0
  -25.2384  -13.8195   20.5677 C   0  0  0  0  0  0
  -24.1739  -13.0409   20.9239 C   0  0  0  0  0  0
  -24.6385  -11.6911   20.8774 C   0  0  0  0  0  0
  -23.9080  -10.4280   21.0419 C   0  0  0  0  0  0
  -24.3626   -9.4196   21.9194 C   0  0  0  0  0  0
  -23.6297   -8.2233   22.0758 C   0  0  0  0  0  0
  -22.4279   -8.0276   21.3547 C   0  0  0  0  0  0
  -21.9920   -9.0250   20.4649 C   0  0  0  0  0  0
  -22.7253  -10.2125   20.3062 C   0  0  0  0  0  0
  -21.6851   -6.0734   22.5281 C   0  0  0  0  0  0
  -21.4012   -6.5638   23.8213 C   0  0  0  0  0  0
  -21.3659   -5.6791   24.9175 C   0  0  0  0  0  0
  -21.6044   -4.3053   24.7226 C   0  0  0  0  0  0
  -21.8819   -3.8145   23.4347 C   0  0  0  0  0  0
  -21.9192   -4.6962   22.3403 C   0  0  0  0  0  0
  -22.7760  -13.5182   21.1888 C   0  0  0  0  0  0
  -22.1665   -4.2148   21.0981 F   0  0  0  0  0  0
  -21.5629   -3.4536   25.7739 F   0  0  0  0  0  0
  -29.9306  -13.7528   20.3699 N   0  0  0  0  0  0
  -26.2852  -12.9466   20.3259 N   0  0  0  0  0  0
  -25.9325  -11.6589   20.5769 N   0  0  0  0  0  0
  -22.0415  -12.8178   22.0451 N   0  0  0  0  0  0
  -25.3900  -15.1912   20.3994 N   0  0  0  0  0  0
  -31.7537  -15.0170   20.1301 O   0  0  0  0  0  0
  -21.6639   -6.8877   21.4243 O   0  0  0  0  0  0
  -22.3445  -14.5485   20.6726 O   0  0  0  0  0  0
  -24.6469  -31.8396   23.1834 C   0  0  0  0  0  0
  -25.9226  -32.4669   23.8243 C   0  0  1  0  0  0
  -27.2212  -27.0999   20.1579 C   0  0  0  0  0  0
  -25.5954  -33.8476   24.2158 N   0  0  0  0  0  0
  -23.4529  -30.4563   21.5294 C   0  0  2  0  0  0
  -24.9039  -28.8730   20.1092 C   0  0  0  0  0  0
  -22.7585  -29.4524   22.4840 C   0  0  0  0  0  0
  -18.0309  -28.1399   22.8479 C   0  0  0  0  0  0
  -24.1491  -36.7244   23.2644 C   0  0  0  0  0  0
  -26.0106  -30.7017   21.3867 C   0  0  0  0  0  0
  -26.0818  -29.3088   20.7290 C   0  0  0  0  0  0
  -27.2403  -28.4392   20.7337 C   0  0  0  0  0  0
  -26.0175  -26.7705   19.4984 C   0  0  0  0  0  0
  -24.8868  -27.6192   19.4771 C   0  0  0  0  0  0
  -23.6814  -29.7797   20.1507 C   0  0  0  0  0  0
  -25.4124  -36.3016   24.0313 C   0  0  1  0  0  0
  -20.5925  -28.3727   23.1227 C   0  0  2  0  0  0
  -20.6789  -26.9425   22.5406 C   0  0  0  0  0  0
  -19.5762  -26.6380   21.5215 C   0  0  0  0  0  0
  -18.1943  -26.7938   22.1623 C   0  0  0  0  0  0
  -19.1568  -28.8881   23.2844 C   0  0  0  0  0  0
  -18.9480  -30.1477   23.8870 C   0  0  0  0  0  0
  -17.6476  -30.6593   24.0559 C   0  0  0  0  0  0
  -25.9079  -34.9393   23.5049 C   0  0  0  0  0  0
  -16.5366  -29.9084   23.6339 C   0  0  0  0  0  0
  -16.7293  -28.6504   23.0359 C   0  0  0  0  0  0
  -26.4533  -31.6556   25.0706 C   0  0  0  0  0  0
  -25.3704  -31.3761   26.1393 C   0  0  0  0  0  0
  -27.0406  -30.2946   24.6320 C   0  0  0  0  0  0
  -27.6051  -32.4335   25.7496 C   0  0  0  0  0  0
  -27.5575  -37.1777   24.8464 C   0  0  0  0  0  0
  -21.4273  -29.3044   22.3592 N   0  0  0  0  0  0
  -26.4283  -37.3735   23.9409 N   0  0  0  0  0  0
  -24.7235  -31.0217   22.0881 N   0  0  0  0  0  0
  -23.4211  -28.8083   23.3014 O   0  0  0  0  0  0
  -28.2651  -26.0968   20.2428 O   0  0  0  0  0  0
  -26.5671  -34.8901   22.4633 O   0  0  0  0  0  0
  -23.5579  -32.1287   23.7032 O   0  0  0  0  0  0
  -29.9822  -23.2618   21.2465 C   0  0  0  0  0  0
  -28.5496  -21.7185   20.0816 C   0  0  0  0  0  0
  -28.8401  -23.1514   20.4251 C   0  0  0  0  0  0
  -29.3684  -20.5504   20.5464 C   0  0  0  0  0  0
  -30.7105  -22.1253   21.6683 C   0  0  0  0  0  0
  -26.0121  -22.0615   19.4432 C   0  0  0  0  0  0
  -26.2122  -20.5870   19.6905 C   0  0  0  0  0  0
  -28.4715  -18.1432   21.5205 C   0  0  0  0  0  0
  -28.6460  -16.5855   21.3155 C   0  0  0  0  0  0
  -30.2873  -17.7282   20.1252 C   0  0  0  0  0  0
  -27.3670  -21.4320   19.2024 C   0  0  0  0  0  0
  -29.1393  -18.8981   20.3563 C   0  0  2  0  0  0
  -31.9179  -22.2997   22.5652 C   0  0  0  0  0  0
  -28.0136  -24.5572   20.0206 C   0  0  0  0  0  0
  -30.4148  -20.8406   21.3484 N   0  0  0  0  0  0
  -29.8531  -16.2777   20.5241 N   0  0  0  0  0  0
  -31.4658  -12.7962   19.1837 H   0  0  0  0  0  0
  -30.4432  -11.6946   20.0497 H   0  0  0  0  0  0
  -29.8518  -11.7425   17.6020 H   0  0  0  0  0  0
  -29.5961  -13.4685   17.6813 H   0  0  0  0  0  0
  -27.9596  -11.2797   18.9910 H   0  0  0  0  0  0
  -27.3905  -12.4433   17.8222 H   0  0  0  0  0  0
  -27.5807  -14.2532   19.4050 H   0  0  0  0  0  0
  -28.7851  -12.3102   21.4327 H   0  0  0  0  0  0
  -28.3500  -13.9544   21.7761 H   0  0  0  0  0  0
  -25.2766   -9.5673   22.4777 H   0  0  0  0  0  0
  -24.0004   -7.4621   22.7475 H   0  0  0  0  0  0
  -21.0853   -8.8771   19.8954 H   0  0  0  0  0  0
  -22.3714  -10.9666   19.6174 H   0  0  0  0  0  0
  -21.2002   -7.6146   23.9718 H   0  0  0  0  0  0
  -21.1485   -6.0520   25.9078 H   0  0  0  0  0  0
  -22.0597   -2.7608   23.2844 H   0  0  0  0  0  0
  -22.4042  -11.9847   22.4847 H   0  0  0  0  0  0
  -21.1031  -13.1202   22.2655 H   0  0  0  0  0  0
  -24.6087  -15.8298   20.4998 H   0  0  0  0  0  0
  -26.2190  -15.6349   20.0280 H   0  0  0  0  0  0
  -26.7293  -32.5262   23.0969 H   0  0  0  0  0  0
  -25.0073  -33.9580   25.0287 H   0  0  0  0  0  0
  -22.7581  -31.2835   21.3705 H   0  0  0  0  0  0
  -23.3759  -35.9569   23.3287 H   0  0  0  0  0  0
  -24.3575  -36.8899   22.2063 H   0  0  0  0  0  0
  -23.7238  -37.6430   23.6698 H   0  0  0  0  0  0
  -26.1713  -31.4538   20.6132 H   0  0  0  0  0  0
  -26.8789  -30.7531   22.0321 H   0  0  0  0  0  0
  -28.1365  -28.7676   21.2413 H   0  0  0  0  0  0
  -25.9223  -25.8083   19.0166 H   0  0  0  0  0  0
  -23.9878  -27.2805   18.9807 H   0  0  0  0  0  0
  -23.8193  -30.5516   19.3926 H   0  0  0  0  0  0
  -22.7954  -29.2226   19.8413 H   0  0  0  0  0  0
  -25.1315  -36.1837   25.0804 H   0  0  0  0  0  0
  -21.0021  -28.3320   24.1346 H   0  0  0  0  0  0
  -20.5674  -26.2343   23.3631 H   0  0  0  0  0  0
  -21.6653  -26.7418   22.1208 H   0  0  0  0  0  0
  -19.6919  -25.6283   21.1262 H   0  0  0  0  0  0
  -19.6699  -27.3175   20.6734 H   0  0  0  0  0  0
  -17.4214  -26.6691   21.4022 H   0  0  0  0  0  0
  -18.0332  -26.0084   22.9021 H   0  0  0  0  0  0
  -19.7954  -30.7304   24.2221 H   0  0  0  0  0  0
  -17.5026  -31.6270   24.5165 H   0  0  0  0  0  0
  -15.5364  -30.2974   23.7678 H   0  0  0  0  0  0
  -15.8695  -28.0812   22.7086 H   0  0  0  0  0  0
  -24.5894  -30.7097   25.7715 H   0  0  0  0  0  0
  -24.8879  -32.2946   26.4741 H   0  0  0  0  0  0
  -25.7975  -30.8987   27.0220 H   0  0  0  0  0  0
  -26.3035  -29.6655   24.1316 H   0  0  0  0  0  0
  -27.3992  -29.7264   25.4913 H   0  0  0  0  0  0
  -27.8954  -30.4170   23.9665 H   0  0  0  0  0  0
  -27.2636  -33.3660   26.2002 H   0  0  0  0  0  0
  -28.3900  -32.6856   25.0354 H   0  0  0  0  0  0
  -28.0679  -31.8510   26.5472 H   0  0  0  0  0  0
  -28.2580  -38.0085   24.7513 H   0  0  0  0  0  0
  -28.1082  -36.2612   24.6286 H   0  0  0  0  0  0
  -27.2294  -37.1420   25.8868 H   0  0  0  0  0  0
  -20.9491  -29.8753   21.6762 H   0  0  0  0  0  0
  -26.0146  -38.2802   24.1410 H   0  0  0  0  0  0
  -30.2976  -24.2449   21.5706 H   0  0  0  0  0  0
  -25.8693  -22.6866   20.3224 H   0  0  0  0  0  0
  -25.4176  -22.3365   18.5738 H   0  0  0  0  0  0
  -25.7488  -19.9011   18.9834 H   0  0  0  0  0  0
  -26.2087  -20.2612   20.7285 H   0  0  0  0  0  0
  -28.9745  -18.4302   22.4450 H   0  0  0  0  0  0
  -27.4249  -18.4221   21.6408 H   0  0  0  0  0  0
  -27.7889  -16.1959   20.7746 H   0  0  0  0  0  0
  -28.6791  -16.0884   22.2854 H   0  0  0  0  0  0
  -31.1535  -17.9704   20.7423 H   0  0  0  0  0  0
  -30.6396  -17.7423   19.0937 H   0  0  0  0  0  0
  -27.6827  -21.2975   18.1688 H   0  0  0  0  0  0
  -28.4673  -18.8137   19.5022 H   0  0  0  0  0  0
  -32.3120  -23.3140   22.5024 H   0  0  0  0  0  0
  -32.7179  -21.6143   22.2835 H   0  0  0  0  0  0
  -31.6478  -22.1044   23.6029 H   0  0  0  0  0  0
  -27.8485  -24.6051   21.0976 H   0  0  0  0  0  0
  -28.9138  -24.7094   19.4247 H   0  0  0  0  0  0
  1 25  1  0  0  0
  1 30  2  0  0  0
  1 86  1  0  0  0
  2  3  1  0  0  0
  2 25  1  0  0  0
  2 87  1  0  0  0
  2 88  1  0  0  0
  3  4  1  0  0  0
  3 89  1  0  0  0
  3 90  1  0  0  0
  4  5  1  0  0  0
  4 91  1  0  0  0
  4 92  1  0  0  0
  5  6  1  0  0  0
  5 26  1  0  0  0
  5 93  1  0  0  0
  6 25  1  0  0  0
  6 94  1  0  0  0
  6 95  1  0  0  0
  7  8  2  0  0  0
  7 26  1  0  0  0
  7 29  1  0  0  0
  8  9  1  0  0  0
  8 22  1  0  0  0
  9 10  1  0  0  0
  9 27  2  0  0  0
 10 11  2  0  0  0
 10 15  1  0  0  0
 11 12  1  0  0  0
 11 96  1  0  0  0
 12 13  2  0  0  0
 12 97  1  0  0  0
 13 14  1  0  0  0
 13 31  1  0  0  0
 14 15  2  0  0  0
 14 98  1  0  0  0
 15 99  1  0  0  0
 16 17  2  0  0  0
 16 21  1  0  0  0
 16 31  1  0  0  0
 17 18  1  0  0  0
 17100  1  0  0  0
 18 19  2  0  0  0
 18101  1  0  0  0
 19 20  1  0  0  0
 19 24  1  0  0  0
 20 21  2  0  0  0
 20102  1  0  0  0
 21 23  1  0  0  0
 22 28  1  0  0  0
 22 32  2  0  0  0
 26 27  1  0  0  0
 28103  1  0  0  0
 28104  1  0  0  0
 29105  1  0  0  0
 29106  1  0  0  0
 33 34  1  0  0  0
 33 66  1  0  0  0
 33 70  2  0  0  0
 34 36  1  0  0  0
 34 59  1  0  0  0
 34107  1  0  0  0
 35 44  2  0  0  0
 35 45  1  0  0  0
 35 68  1  0  0  0
 36 56  1  0  0  0
 36108  1  0  0  0
 37 39  1  0  0  0
 37 47  1  0  0  0
 37 66  1  0  0  0
 37109  1  0  0  0
 38 43  2  0  0  0
 38 46  1  0  0  0
 38 47  1  0  0  0
 39 64  1  0  0  0
 39 67  2  0  0  0
 40 52  1  0  0  0
 40 53  2  0  0  0
 40 58  1  0  0  0
 41110  1  0  0  0
 41111  1  0  0  0
 41112  1  0  0  0
 41 48  1  0  0  0
 42 43  1  0  0  0
 42 66  1  0  0  0
 42113  1  0  0  0
 42114  1  0  0  0
 43 44  1  0  0  0
 44115  1  0  0  0
 45 46  2  0  0  0
 45116  1  0  0  0
 46117  1  0  0  0
 47118  1  0  0  0
 47119  1  0  0  0
 48 56  1  0  0  0
 48 65  1  0  0  0
 48120  1  0  0  0
 49 50  1  0  0  0
 49 53  1  0  0  0
 49 64  1  0  0  0
 49121  1  0  0  0
 50 51  1  0  0  0
 50122  1  0  0  0
 50123  1  0  0  0
 51 52  1  0  0  0
 51124  1  0  0  0
 51125  1  0  0  0
 52126  1  0  0  0
 52127  1  0  0  0
 53 54  1  0  0  0
 54 55  2  0  0  0
 54128  1  0  0  0
 55 57  1  0  0  0
 55129  1  0  0  0
 56 69  2  0  0  0
 57 58  2  0  0  0
 57130  1  0  0  0
 58131  1  0  0  0
 59 60  1  0  0  0
 59 61  1  0  0  0
 59 62  1  0  0  0
 60132  1  0  0  0
 60133  1  0  0  0
 60134  1  0  0  0
 61135  1  0  0  0
 61136  1  0  0  0
 61137  1  0  0  0
 62138  1  0  0  0
 62139  1  0  0  0
 62140  1  0  0  0
 63 65  1  0  0  0
 63141  1  0  0  0
 63142  1  0  0  0
 63143  1  0  0  0
 64144  1  0  0  0
 65145  1  0  0  0
 68 84  1  0  0  0
 71 73  2  0  0  0
 71 75  1  0  0  0
 71146  1  0  0  0
 72 73  1  0  0  0
 72 74  2  0  0  0
 72 81  1  0  0  0
 73 84  1  0  0  0
 74 85  1  0  0  0
 74 82  1  0  0  0
 75 83  1  0  0  0
 75 85  2  0  0  0
 76 77  1  0  0  0
 76 81  1  0  0  0
 76147  1  0  0  0
 76148  1  0  0  0
 77 81  1  0  0  0
 77149  1  0  0  0
 77150  1  0  0  0
 78 79  1  0  0  0
 78 82  1  0  0  0
 78151  1  0  0  0
 78152  1  0  0  0
 79 86  1  0  0  0
 79153  1  0  0  0
 79154  1  0  0  0
 80 82  1  0  0  0
 80 86  1  0  0  0
 80155  1  0  0  0
 80156  1  0  0  0
 81157  1  0  0  0
 82158  1  0  0  0
 83159  1  0  0  0
 83160  1  0  0  0
 83161  1  0  0  0
 84162  1  0  0  0
 84163  1  0  0  0
M  ISO  4   1 100  68 101  84 101  86 100
M  END
> <chiral flag>
0

> <version>
0

> <s_m_source_file>
/data/baiqing/PycharmProjects/Reinvent-master-3.2/result/LINK_invent/BTK/process_docking_weight1_custom_sum_contain_oxygen_bond_distance_aromatic_linkinvent_7_9_3/rearranged_h_0157.sdf

> <i_m_source_file_index>
80

> <r_mmod_Potential_Energy-OPLS-2005>
838.410705566406

> <r_mmod_Stretch_Energy-OPLS-2005>
293.764739990234

> <r_mmod_Bend_Energy-OPLS-2005>
493.618225097656

> <r_mmod_Torsional_Energy-OPLS-2005>
331.190673828125

> <r_mmod_Improper_Torsional_Energy-OPLS-2005>
8.55964756011963

> <r_mmod_Van_der_Waal_Energy-OPLS-2005>
121.111846923828

> <r_mmod_Electrostatic_Energy-OPLS-2005>
-419.051910400391

> <r_mmod_Solvation_Energy-OPLS-2005>
-218.873992919922

> <b_mmod_Minimization_Converged-OPLS-2005>
0

> <r_mmod_RMS_Derivative-OPLS-2005>
0.462266087532043

$$$$
80
                    3D
 Structure written by MMmdl.
170179  0  0  1  0            999 V2000
  -30.7451  -14.4286   20.5715 C   0  0  0  0  0  0
  -30.4093  -12.2830   19.4203 C   0  0  0  0  0  0
  -29.4871  -12.4927   18.2036 C   0  0  0  0  0  0
  -28.0089  -12.3604   18.6182 C   0  0  0  0  0  0
  -27.6573  -13.2037   19.8738 C   0  0  2  0  0  0
  -28.7023  -13.0078   20.9962 C   0  0  0  0  0  0
  -25.2579  -13.8157   20.5703 C   0  0  0  0  0  0
  -24.1828  -13.0440   20.9184 C   0  0  0  0  0  0
  -24.6377  -11.6901   20.8743 C   0  0  0  0  0  0
  -23.9044  -10.4293   21.0404 C   0  0  0  0  0  0
  -24.3605   -9.4213   21.9179 C   0  0  0  0  0  0
  -23.6288   -8.2244   22.0750 C   0  0  0  0  0  0
  -22.4269   -8.0281   21.3543 C   0  0  0  0  0  0
  -21.9900   -9.0251   20.4643 C   0  0  0  0  0  0
  -22.7218  -10.2133   20.3050 C   0  0  0  0  0  0
  -21.6850   -6.0736   22.5276 C   0  0  0  0  0  0
  -21.4011   -6.5637   23.8212 C   0  0  0  0  0  0
  -21.3660   -5.6792   24.9173 C   0  0  0  0  0  0
  -21.6042   -4.3055   24.7226 C   0  0  0  0  0  0
  -21.8822   -3.8144   23.4348 C   0  0  0  0  0  0
  -21.9198   -4.6962   22.3401 C   0  0  0  0  0  0
  -22.7853  -13.5242   21.1849 C   0  0  0  0  0  0
  -22.1666   -4.2146   21.0978 F   0  0  0  0  0  0
  -21.5631   -3.4537   25.7738 F   0  0  0  0  0  0
  -30.0331  -13.2796   20.4327 N   0  0  0  0  0  0
  -26.3007  -12.9312   20.3391 N   0  0  0  0  0  0
  -25.9303  -11.6475   20.5785 N   0  0  0  0  0  0
  -22.0492  -12.8236   22.0403 N   0  0  0  0  0  0
  -25.4319  -15.1875   20.4121 N   0  0  0  0  0  0
  -31.8863  -14.5675   20.1182 O   0  0  0  0  0  0
  -21.6638   -6.8873   21.4237 O   0  0  0  0  0  0
  -22.3551  -14.5557   20.6704 O   0  0  0  0  0  0
  -24.6099  -31.8702   23.2128 C   0  0  0  0  0  0
  -25.9005  -32.4834   23.8412 C   0  0  1  0  0  0
  -27.2407  -27.4676   20.0974 C   0  0  0  0  0  0
  -25.5868  -33.8632   24.2340 N   0  0  0  0  0  0
  -23.3979  -30.4916   21.5520 C   0  0  2  0  0  0
  -24.8480  -28.9575   20.1195 C   0  0  0  0  0  0
  -22.7387  -29.4654   22.5002 C   0  0  0  0  0  0
  -18.0263  -28.1368   22.8489 C   0  0  0  0  0  0
  -24.1488  -36.7325   23.2642 C   0  0  0  0  0  0
  -25.9219  -30.8435   21.3634 C   0  0  0  0  0  0
  -26.0021  -29.4763   20.7209 C   0  0  0  0  0  0
  -27.2012  -28.7342   20.7175 C   0  0  0  0  0  0
  -26.0787  -26.9556   19.4876 C   0  0  0  0  0  0
  -24.8779  -27.6923   19.5042 C   0  0  0  0  0  0
  -23.6069  -29.8202   20.1677 C   0  0  0  0  0  0
  -25.4105  -36.3114   24.0343 C   0  0  1  0  0  0
  -20.5850  -28.3647   23.1326 C   0  0  2  0  0  0
  -20.6750  -26.9384   22.5419 C   0  0  0  0  0  0
  -19.5732  -26.6380   21.5207 C   0  0  0  0  0  0
  -18.1909  -26.7915   22.1621 C   0  0  0  0  0  0
  -19.1510  -28.8820   23.2908 C   0  0  0  0  0  0
  -18.9449  -30.1433   23.8911 C   0  0  0  0  0  0
  -17.6453  -30.6577   24.0558 C   0  0  0  0  0  0
  -25.9027  -34.9480   23.5141 C   0  0  0  0  0  0
  -16.5339  -29.9075   23.6336 C   0  0  0  0  0  0
  -16.7252  -28.6496   23.0349 C   0  0  0  0  0  0
  -26.4456  -31.6595   25.0719 C   0  0  0  0  0  0
  -25.3739  -31.3669   26.1478 C   0  0  0  0  0  0
  -27.0288  -30.3052   24.6051 C   0  0  0  0  0  0
  -27.6042  -32.4307   25.7468 C   0  0  0  0  0  0
  -27.5579  -37.1812   24.8465 C   0  0  0  0  0  0
  -21.4119  -29.3013   22.3737 N   0  0  0  0  0  0
  -26.4292  -37.3790   23.9404 N   0  0  0  0  0  0
  -24.6609  -31.0820   22.1020 N   0  0  0  0  0  0
  -23.4171  -28.8205   23.3037 O   0  0  0  0  0  0
  -28.4013  -26.7429   20.0242 O   0  0  0  0  0  0
  -26.5595  -34.8923   22.4709 O   0  0  0  0  0  0
  -23.5304  -32.1446   23.7544 O   0  0  0  0  0  0
  -28.6060  -21.8135   22.8113 C   0  0  0  0  0  0
  -29.7590  -19.9239   21.7412 C   0  0  0  0  0  0
  -28.7567  -20.4239   22.6251 C   0  0  0  0  0  0
  -30.5576  -20.8683   21.0189 C   0  0  0  0  0  0
  -30.4199  -22.2637   21.2566 C   0  0  0  0  0  0
  -29.4222  -22.7325   22.1373 C   0  0  0  0  0  0
  -30.0012  -17.4466   22.7083 C   0  0  0  0  0  0
  -29.1011  -17.7971   20.4435 C   0  0  0  0  0  0
  -30.6086  -16.0862   22.2961 C   0  0  0  0  0  0
  -29.6985  -16.4639   19.9655 C   0  0  0  0  0  0
  -30.0031  -18.4103   21.5117 C   0  0  0  0  0  0
  -27.7934  -19.5309   23.3872 C   0  0  0  0  0  0
  -31.5649  -20.3962   19.9656 C   0  0  0  0  0  0
  -31.3424  -23.2726   20.5792 C   0  0  0  0  0  0
  -28.8621  -26.2022   21.2596 C   0  0  0  0  0  0
  -28.4437  -24.7268   21.3701 C   0  0  0  0  0  0
  -30.0760  -15.5089   21.0378 N   0  0  0  0  0  0
  -29.2364  -24.0743   22.3607 O   0  0  0  0  0  0
  -31.4558  -12.3583   19.1182 H   0  0  0  0  0  0
  -30.2895  -11.2773   19.8261 H   0  0  0  0  0  0
  -29.7217  -11.7654   17.4249 H   0  0  0  0  0  0
  -29.6632  -13.4774   17.7668 H   0  0  0  0  0  0
  -27.8152  -11.3053   18.8156 H   0  0  0  0  0  0
  -27.3592  -12.6364   17.7869 H   0  0  0  0  0  0
  -27.6870  -14.2459   19.5656 H   0  0  0  0  0  0
  -28.6696  -11.9855   21.3753 H   0  0  0  0  0  0
  -28.4775  -13.6511   21.8486 H   0  0  0  0  0  0
  -25.2752   -9.5698   22.4751 H   0  0  0  0  0  0
  -24.0003   -7.4638   22.7467 H   0  0  0  0  0  0
  -21.0832   -8.8769   19.8947 H   0  0  0  0  0  0
  -22.3676  -10.9675   19.6163 H   0  0  0  0  0  0
  -21.1996   -7.6143   23.9712 H   0  0  0  0  0  0
  -21.1478   -6.0519   25.9076 H   0  0  0  0  0  0
  -22.0601   -2.7604   23.2846 H   0  0  0  0  0  0
  -22.4103  -11.9891   22.4784 H   0  0  0  0  0  0
  -21.1109  -13.1262   22.2607 H   0  0  0  0  0  0
  -24.6701  -15.8465   20.5275 H   0  0  0  0  0  0
  -26.2986  -15.6271   20.1297 H   0  0  0  0  0  0
  -26.7071  -32.5563   23.1177 H   0  0  0  0  0  0
  -24.9992  -33.9803   25.0466 H   0  0  0  0  0  0
  -22.6852  -31.3070   21.4124 H   0  0  0  0  0  0
  -23.3736  -35.9673   23.3321 H   0  0  0  0  0  0
  -24.3586  -36.8932   22.2051 H   0  0  0  0  0  0
  -23.7271  -37.6547   23.6656 H   0  0  0  0  0  0
  -26.0254  -31.6071   20.5904 H   0  0  0  0  0  0
  -26.8131  -30.9042   21.9764 H   0  0  0  0  0  0
  -28.0956  -29.1363   21.1729 H   0  0  0  0  0  0
  -26.1082  -25.9924   18.9971 H   0  0  0  0  0  0
  -23.9913  -27.2881   19.0348 H   0  0  0  0  0  0
  -23.7091  -30.5938   19.4054 H   0  0  0  0  0  0
  -22.7328  -29.2342   19.8773 H   0  0  0  0  0  0
  -25.1285  -36.1975   25.0838 H   0  0  0  0  0  0
  -20.9944  -28.3207   24.1443 H   0  0  0  0  0  0
  -20.5643  -26.2246   23.3603 H   0  0  0  0  0  0
  -21.6626  -26.7414   22.1216 H   0  0  0  0  0  0
  -19.6897  -25.6299   21.1215 H   0  0  0  0  0  0
  -19.6684  -27.3207   20.6752 H   0  0  0  0  0  0
  -17.4182  -26.6665   21.4017 H   0  0  0  0  0  0
  -18.0301  -26.0055   22.9016 H   0  0  0  0  0  0
  -19.7934  -30.7237   24.2284 H   0  0  0  0  0  0
  -17.5018  -31.6265   24.5145 H   0  0  0  0  0  0
  -15.5342  -30.2974   23.7674 H   0  0  0  0  0  0
  -15.8655  -28.0825   22.7050 H   0  0  0  0  0  0
  -24.5923  -30.7003   25.7812 H   0  0  0  0  0  0
  -24.8909  -32.2804   26.4951 H   0  0  0  0  0  0
  -25.8115  -30.8828   27.0217 H   0  0  0  0  0  0
  -26.2810  -29.6793   24.1167 H   0  0  0  0  0  0
  -27.4148  -29.7297   25.4474 H   0  0  0  0  0  0
  -27.8601  -30.4388   23.9127 H   0  0  0  0  0  0
  -27.2674  -33.3597   26.2075 H   0  0  0  0  0  0
  -28.3828  -32.6881   25.0276 H   0  0  0  0  0  0
  -28.0732  -31.8411   26.5356 H   0  0  0  0  0  0
  -28.2602  -38.0098   24.7501 H   0  0  0  0  0  0
  -28.1071  -36.2635   24.6304 H   0  0  0  0  0  0
  -27.2299  -37.1471   25.8867 H   0  0  0  0  0  0
  -20.9271  -29.8733   21.6964 H   0  0  0  0  0  0
  -26.0190  -38.2877   24.1386 H   0  0  0  0  0  0
  -27.8490  -22.1914   23.4837 H   0  0  0  0  0  0
  -30.5773  -17.8667   23.5336 H   0  0  0  0  0  0
  -28.9972  -17.2602   23.0808 H   0  0  0  0  0  0
  -28.0892  -17.6555   20.8227 H   0  0  0  0  0  0
  -29.0161  -18.4693   19.5887 H   0  0  0  0  0  0
  -30.4562  -15.3690   23.1049 H   0  0  0  0  0  0
  -31.6908  -16.2091   22.2065 H   0  0  0  0  0  0
  -30.5807  -16.6960   19.3639 H   0  0  0  0  0  0
  -28.9976  -15.9920   19.2779 H   0  0  0  0  0  0
  -31.0300  -18.3261   21.1628 H   0  0  0  0  0  0
  -26.9451  -20.0998   23.7688 H   0  0  0  0  0  0
  -28.2873  -19.0775   24.2466 H   0  0  0  0  0  0
  -27.3804  -18.7532   22.7470 H   0  0  0  0  0  0
  -31.1621  -19.5827   19.3633 H   0  0  0  0  0  0
  -32.4837  -20.0530   20.4414 H   0  0  0  0  0  0
  -31.8290  -21.1661   19.2432 H   0  0  0  0  0  0
  -32.3751  -22.9233   20.5840 H   0  0  0  0  0  0
  -31.3462  -24.2341   21.0911 H   0  0  0  0  0  0
  -31.0348  -23.4408   19.5474 H   0  0  0  0  0  0
  -29.9495  -26.2723   21.2485 H   0  0  0  0  0  0
  -28.5251  -26.7677   22.1297 H   0  0  0  0  0  0
  -28.5712  -24.2492   20.3963 H   0  0  0  0  0  0
  -27.3868  -24.6463   21.6252 H   0  0  0  0  0  0
  1 25  1  0  0  0
  1 30  2  0  0  0
  1 87  1  0  0  0
  2  3  1  0  0  0
  2 25  1  0  0  0
  2 89  1  0  0  0
  2 90  1  0  0  0
  3  4  1  0  0  0
  3 91  1  0  0  0
  3 92  1  0  0  0
  4  5  1  0  0  0
  4 93  1  0  0  0
  4 94  1  0  0  0
  5  6  1  0  0  0
  5 26  1  0  0  0
  5 95  1  0  0  0
  6 25  1  0  0  0
  6 96  1  0  0  0
  6 97  1  0  0  0
  7  8  2  0  0  0
  7 26  1  0  0  0
  7 29  1  0  0  0
  8  9  1  0  0  0
  8 22  1  0  0  0
  9 10  1  0  0  0
  9 27  2  0  0  0
 10 11  2  0  0  0
 10 15  1  0  0  0
 11 12  1  0  0  0
 11 98  1  0  0  0
 12 13  2  0  0  0
 12 99  1  0  0  0
 13 14  1  0  0  0
 13 31  1  0  0  0
 14 15  2  0  0  0
 14100  1  0  0  0
 15101  1  0  0  0
 16 17  2  0  0  0
 16 21  1  0  0  0
 16 31  1  0  0  0
 17 18  1  0  0  0
 17102  1  0  0  0
 18 19  2  0  0  0
 18103  1  0  0  0
 19 20  1  0  0  0
 19 24  1  0  0  0
 20 21  2  0  0  0
 20104  1  0  0  0
 21 23  1  0  0  0
 22 28  1  0  0  0
 22 32  2  0  0  0
 26 27  1  0  0  0
 28105  1  0  0  0
 28106  1  0  0  0
 29107  1  0  0  0
 29108  1  0  0  0
 33 34  1  0  0  0
 33 66  1  0  0  0
 33 70  2  0  0  0
 34 36  1  0  0  0
 34 59  1  0  0  0
 34109  1  0  0  0
 35 44  2  0  0  0
 35 45  1  0  0  0
 35 68  1  0  0  0
 36 56  1  0  0  0
 36110  1  0  0  0
 37 39  1  0  0  0
 37 47  1  0  0  0
 37 66  1  0  0  0
 37111  1  0  0  0
 38 43  2  0  0  0
 38 46  1  0  0  0
 38 47  1  0  0  0
 39 64  1  0  0  0
 39 67  2  0  0  0
 40 52  1  0  0  0
 40 53  2  0  0  0
 40 58  1  0  0  0
 41112  1  0  0  0
 41113  1  0  0  0
 41114  1  0  0  0
 41 48  1  0  0  0
 42 43  1  0  0  0
 42 66  1  0  0  0
 42115  1  0  0  0
 42116  1  0  0  0
 43 44  1  0  0  0
 44117  1  0  0  0
 45 46  2  0  0  0
 45118  1  0  0  0
 46119  1  0  0  0
 47120  1  0  0  0
 47121  1  0  0  0
 48 56  1  0  0  0
 48 65  1  0  0  0
 48122  1  0  0  0
 49 50  1  0  0  0
 49 53  1  0  0  0
 49 64  1  0  0  0
 49123  1  0  0  0
 50 51  1  0  0  0
 50124  1  0  0  0
 50125  1  0  0  0
 51 52  1  0  0  0
 51126  1  0  0  0
 51127  1  0  0  0
 52128  1  0  0  0
 52129  1  0  0  0
 53 54  1  0  0  0
 54 55  2  0  0  0
 54130  1  0  0  0
 55 57  1  0  0  0
 55131  1  0  0  0
 56 69  2  0  0  0
 57 58  2  0  0  0
 57132  1  0  0  0
 58133  1  0  0  0
 59 60  1  0  0  0
 59 61  1  0  0  0
 59 62  1  0  0  0
 60134  1  0  0  0
 60135  1  0  0  0
 60136  1  0  0  0
 61137  1  0  0  0
 61138  1  0  0  0
 61139  1  0  0  0
 62140  1  0  0  0
 62141  1  0  0  0
 62142  1  0  0  0
 63 65  1  0  0  0
 63143  1  0  0  0
 63144  1  0  0  0
 63145  1  0  0  0
 64146  1  0  0  0
 65147  1  0  0  0
 68 85  1  0  0  0
 71 73  2  0  0  0
 71 76  1  0  0  0
 71148  1  0  0  0
 72 73  1  0  0  0
 72 74  2  0  0  0
 72 81  1  0  0  0
 73 82  1  0  0  0
 74 75  1  0  0  0
 74 83  1  0  0  0
 75 76  2  0  0  0
 75 84  1  0  0  0
 76 88  1  0  0  0
 77 79  1  0  0  0
 77 81  1  0  0  0
 77149  1  0  0  0
 77150  1  0  0  0
 78 80  1  0  0  0
 78 81  1  0  0  0
 78151  1  0  0  0
 78152  1  0  0  0
 79 87  1  0  0  0
 79153  1  0  0  0
 79154  1  0  0  0
 80 87  1  0  0  0
 80155  1  0  0  0
 80156  1  0  0  0
 81157  1  0  0  0
 82158  1  0  0  0
 82159  1  0  0  0
 82160  1  0  0  0
 83161  1  0  0  0
 83162  1  0  0  0
 83163  1  0  0  0
 84164  1  0  0  0
 84165  1  0  0  0
 84166  1  0  0  0
 85 86  1  0  0  0
 85167  1  0  0  0
 85168  1  0  0  0
 86 88  1  0  0  0
 86169  1  0  0  0
 86170  1  0  0  0
M  ISO  4   1 100  68 101  85 101  87 100
M  END
> <chiral flag>
0

> <version>
0

> <s_m_source_file>
/data/baiqing/PycharmProjects/Reinvent-master-3.2/result/LINK_invent/BTK/process_docking_weight1_custom_sum_contain_oxygen_bond_distance_aromatic_linkinvent_7_9_3/rearranged_h_0157.sdf

> <i_m_source_file_index>
81

> <r_mmod_Potential_Energy-OPLS-2005>
220.525756835938

> <r_mmod_Stretch_Energy-OPLS-2005>
41.5181999206543

> <r_mmod_Bend_Energy-OPLS-2005>
117.800033569336

> <r_mmod_Torsional_Energy-OPLS-2005>
380.339233398438

> <r_mmod_Improper_Torsional_Energy-OPLS-2005>
8.29547882080078

> <r_mmod_Van_der_Waal_Energy-OPLS-2005>
169.910873413086

> <r_mmod_Electrostatic_Energy-OPLS-2005>
-317.695678710938

> <r_mmod_Solvation_Energy-OPLS-2005>
-190.587753295898

> <b_mmod_Minimization_Converged-OPLS-2005>
0

> <r_mmod_RMS_Derivative-OPLS-2005>
1.27754294872284

$$$$
81
                    3D
 Structure written by MMmdl.
171181  0  0  1  0            999 V2000
  -30.7049  -14.5410   20.5253 C   0  0  0  0  0  0
  -30.4113  -12.3387   19.4447 C   0  0  0  0  0  0
  -29.4937  -12.5010   18.2165 C   0  0  0  0  0  0
  -28.0155  -12.3605   18.6274 C   0  0  0  0  0  0
  -27.6513  -13.2233   19.8665 C   0  0  2  0  0  0
  -28.6959  -13.0762   20.9955 C   0  0  0  0  0  0
  -25.2535  -13.8195   20.5676 C   0  0  0  0  0  0
  -24.1806  -13.0451   20.9172 C   0  0  0  0  0  0
  -24.6391  -11.6924   20.8738 C   0  0  0  0  0  0
  -23.9067  -10.4300   21.0405 C   0  0  0  0  0  0
  -24.3616   -9.4211   21.9181 C   0  0  0  0  0  0
  -23.6293   -8.2247   22.0754 C   0  0  0  0  0  0
  -22.4275   -8.0283   21.3544 C   0  0  0  0  0  0
  -21.9914   -9.0255   20.4644 C   0  0  0  0  0  0
  -22.7242  -10.2136   20.3057 C   0  0  0  0  0  0
  -21.6851   -6.0739   22.5281 C   0  0  0  0  0  0
  -21.4012   -6.5640   23.8211 C   0  0  0  0  0  0
  -21.3657   -5.6790   24.9173 C   0  0  0  0  0  0
  -21.6046   -4.3055   24.7225 C   0  0  0  0  0  0
  -21.8819   -3.8148   23.4344 C   0  0  0  0  0  0
  -21.9189   -4.6963   22.3402 C   0  0  0  0  0  0
  -22.7829  -13.5235   21.1847 C   0  0  0  0  0  0
  -22.1657   -4.2151   21.0979 F   0  0  0  0  0  0
  -21.5630   -3.4540   25.7743 F   0  0  0  0  0  0
  -30.0158  -13.3673   20.4224 N   0  0  0  0  0  0
  -26.2978  -12.9398   20.3358 N   0  0  0  0  0  0
  -25.9326  -11.6542   20.5789 N   0  0  0  0  0  0
  -22.0488  -12.8214   22.0404 N   0  0  0  0  0  0
  -25.4251  -15.1912   20.4088 N   0  0  0  0  0  0
  -31.8742  -14.6375   20.1374 O   0  0  0  0  0  0
  -21.6641   -6.8880   21.4242 O   0  0  0  0  0  0
  -22.3510  -14.5541   20.6705 O   0  0  0  0  0  0
  -24.6226  -31.8654   23.2107 C   0  0  0  0  0  0
  -25.9104  -32.4798   23.8411 C   0  0  1  0  0  0
  -27.2118  -27.3724   20.1028 C   0  0  0  0  0  0
  -25.5953  -33.8600   24.2334 N   0  0  0  0  0  0
  -23.4130  -30.4954   21.5512 C   0  0  2  0  0  0
  -24.8578  -28.9679   20.1107 C   0  0  0  0  0  0
  -22.7446  -29.4680   22.4955 C   0  0  0  0  0  0
  -18.0284  -28.1388   22.8501 C   0  0  0  0  0  0
  -24.1482  -36.7292   23.2643 C   0  0  0  0  0  0
  -25.9529  -30.8115   21.3795 C   0  0  0  0  0  0
  -26.0263  -29.4460   20.7195 C   0  0  0  0  0  0
  -27.2108  -28.6553   20.7175 C   0  0  0  0  0  0
  -26.0288  -26.9494   19.4649 C   0  0  0  0  0  0
  -24.8579  -27.7198   19.4762 C   0  0  0  0  0  0
  -23.6237  -29.8400   20.1636 C   0  0  0  0  0  0
  -25.4104  -36.3090   24.0343 C   0  0  1  0  0  0
  -20.5884  -28.3695   23.1278 C   0  0  2  0  0  0
  -20.6782  -26.9423   22.5393 C   0  0  0  0  0  0
  -19.5752  -26.6387   21.5206 C   0  0  0  0  0  0
  -18.1929  -26.7940   22.1620 C   0  0  0  0  0  0
  -19.1536  -28.8855   23.2890 C   0  0  0  0  0  0
  -18.9462  -30.1461   23.8906 C   0  0  0  0  0  0
  -17.6461  -30.6598   24.0562 C   0  0  0  0  0  0
  -25.9042  -34.9461   23.5123 C   0  0  0  0  0  0
  -16.5353  -29.9086   23.6345 C   0  0  0  0  0  0
  -16.7274  -28.6502   23.0378 C   0  0  0  0  0  0
  -26.4511  -31.6592   25.0759 C   0  0  0  0  0  0
  -25.3763  -31.3679   26.1489 C   0  0  0  0  0  0
  -27.0394  -30.3042   24.6190 C   0  0  0  0  0  0
  -27.6074  -32.4335   25.7517 C   0  0  0  0  0  0
  -27.5571  -37.1795   24.8474 C   0  0  0  0  0  0
  -21.4169  -29.3065   22.3674 N   0  0  0  0  0  0
  -26.4284  -37.3778   23.9419 N   0  0  0  0  0  0
  -24.6811  -31.0726   22.1033 N   0  0  0  0  0  0
  -23.4187  -28.8206   23.3011 O   0  0  0  0  0  0
  -28.2858  -26.4870   20.1344 O   0  0  0  0  0  0
  -26.5572  -34.8909   22.4662 O   0  0  0  0  0  0
  -23.5404  -32.1427   23.7471 O   0  0  0  0  0  0
  -29.4157  -23.3342   21.8196 C   0  0  0  0  0  0
  -29.5254  -21.9224   21.9623 C   0  0  0  0  0  0
  -28.5198  -23.9497   20.9107 C   0  0  0  0  0  0
  -27.8323  -23.0806   20.0156 C   0  0  0  0  0  0
  -27.8836  -21.6611   20.1865 C   0  0  0  0  0  0
  -28.7060  -21.0669   21.1796 C   0  0  0  0  0  0
  -29.9204  -20.8048   24.3076 C   0  0  0  0  0  0
  -30.7411  -22.0714   24.3069 C   0  0  0  0  0  0
  -29.4927  -17.6592   22.3381 C   0  0  0  0  0  0
  -29.0127  -17.8942   19.9447 C   0  0  0  0  0  0
  -30.3532  -16.3955   22.0442 C   0  0  0  0  0  0
  -29.8975  -16.6451   19.6744 C   0  0  0  0  0  0
  -30.4499  -21.3555   23.0040 C   0  0  0  0  0  0
  -29.4645  -18.6888   21.1848 C   0  0  0  0  0  0
  -26.9909  -23.6635   18.8976 C   0  0  0  0  0  0
  -26.9867  -20.7578   19.3443 C   0  0  0  0  0  0
  -28.1314  -25.4522   21.1546 C   0  0  0  0  0  0
  -29.9958  -15.6793   20.7996 N   0  0  0  0  0  0
  -28.5143  -19.7254   21.5130 O   0  0  0  0  0  0
  -31.4582  -12.4183   19.1473 H   0  0  0  0  0  0
  -30.3012  -11.3440   19.8798 H   0  0  0  0  0  0
  -29.7429  -11.7600   17.4560 H   0  0  0  0  0  0
  -29.6554  -13.4774   17.7572 H   0  0  0  0  0  0
  -27.8304  -11.3069   18.8403 H   0  0  0  0  0  0
  -27.3666  -12.6171   17.7890 H   0  0  0  0  0  0
  -27.6740  -14.2617   19.5353 H   0  0  0  0  0  0
  -28.6830  -12.0652   21.4060 H   0  0  0  0  0  0
  -28.4653  -13.7470   21.8255 H   0  0  0  0  0  0
  -25.2762   -9.5681   22.4753 H   0  0  0  0  0  0
  -23.9999   -7.4637   22.7470 H   0  0  0  0  0  0
  -21.0850   -8.8774   19.8941 H   0  0  0  0  0  0
  -22.3704  -10.9672   19.6167 H   0  0  0  0  0  0
  -21.2007   -7.6145   23.9718 H   0  0  0  0  0  0
  -21.1477   -6.0521   25.9075 H   0  0  0  0  0  0
  -22.0602   -2.7611   23.2853 H   0  0  0  0  0  0
  -22.4120  -11.9865   22.4757 H   0  0  0  0  0  0
  -21.1108  -13.1229   22.2638 H   0  0  0  0  0  0
  -24.6633  -15.8515   20.5181 H   0  0  0  0  0  0
  -26.2895  -15.6280   20.1150 H   0  0  0  0  0  0
  -26.7175  -32.5489   23.1173 H   0  0  0  0  0  0
  -25.0188  -33.9765   25.0540 H   0  0  0  0  0  0
  -22.7052  -31.3160   21.4144 H   0  0  0  0  0  0
  -23.3749  -35.9620   23.3303 H   0  0  0  0  0  0
  -24.3578  -36.8913   22.2059 H   0  0  0  0  0  0
  -23.7228  -37.6492   23.6658 H   0  0  0  0  0  0
  -26.0849  -31.5794   20.6162 H   0  0  0  0  0  0
  -26.8321  -30.8517   22.0101 H   0  0  0  0  0  0
  -28.1044  -29.0092   21.2135 H   0  0  0  0  0  0
  -25.9777  -26.0075   18.9578 H   0  0  0  0  0  0
  -23.9662  -27.3488   18.9888 H   0  0  0  0  0  0
  -23.7327  -30.6183   19.4070 H   0  0  0  0  0  0
  -22.7457  -29.2647   19.8659 H   0  0  0  0  0  0
  -25.1280  -36.1947   25.0837 H   0  0  0  0  0  0
  -20.9986  -28.3275   24.1395 H   0  0  0  0  0  0
  -20.5702  -26.2314   23.3592 H   0  0  0  0  0  0
  -21.6646  -26.7470   22.1165 H   0  0  0  0  0  0
  -19.6904  -25.6293   21.1254 H   0  0  0  0  0  0
  -19.6686  -27.3180   20.6722 H   0  0  0  0  0  0
  -17.4197  -26.6718   21.4012 H   0  0  0  0  0  0
  -18.0311  -26.0067   22.8996 H   0  0  0  0  0  0
  -19.7931  -30.7279   24.2281 H   0  0  0  0  0  0
  -17.5013  -31.6282   24.5145 H   0  0  0  0  0  0
  -15.5350  -30.2984   23.7681 H   0  0  0  0  0  0
  -15.8675  -28.0811   22.7111 H   0  0  0  0  0  0
  -24.5967  -30.7001   25.7811 H   0  0  0  0  0  0
  -24.8927  -32.2817   26.4946 H   0  0  0  0  0  0
  -25.8119  -30.8844   27.0242 H   0  0  0  0  0  0
  -26.2979  -29.6746   24.1259 H   0  0  0  0  0  0
  -27.4183  -29.7343   25.4685 H   0  0  0  0  0  0
  -27.8796  -30.4381   23.9374 H   0  0  0  0  0  0
  -27.2696  -33.3649   26.2073 H   0  0  0  0  0  0
  -28.3879  -32.6866   25.0329 H   0  0  0  0  0  0
  -28.0736  -31.8474   26.5445 H   0  0  0  0  0  0
  -28.2582  -38.0098   24.7531 H   0  0  0  0  0  0
  -28.1076  -36.2631   24.6287 H   0  0  0  0  0  0
  -27.2292  -37.1430   25.8878 H   0  0  0  0  0  0
  -20.9332  -29.8801   21.6904 H   0  0  0  0  0  0
  -26.0171  -38.2858   24.1411 H   0  0  0  0  0  0
  -29.9753  -23.9696   22.4911 H   0  0  0  0  0  0
  -28.8519  -20.8939   24.4947 H   0  0  0  0  0  0
  -30.3970  -19.9189   24.7214 H   0  0  0  0  0  0
  -31.7531  -22.0041   24.7013 H   0  0  0  0  0  0
  -30.2128  -22.9936   24.5394 H   0  0  0  0  0  0
  -29.8590  -18.1374   23.2454 H   0  0  0  0  0  0
  -28.4717  -17.3436   22.5581 H   0  0  0  0  0  0
  -27.9775  -17.5763   20.0749 H   0  0  0  0  0  0
  -29.0225  -18.5451   19.0696 H   0  0  0  0  0  0
  -30.2653  -15.7069   22.8872 H   0  0  0  0  0  0
  -31.4050  -16.6856   21.9994 H   0  0  0  0  0  0
  -30.9000  -16.9858   19.4074 H   0  0  0  0  0  0
  -29.5099  -16.1284   18.7938 H   0  0  0  0  0  0
  -31.2809  -20.8335   22.5327 H   0  0  0  0  0  0
  -30.4592  -19.1068   21.0246 H   0  0  0  0  0  0
  -25.9770  -23.8612   19.2452 H   0  0  0  0  0  0
  -26.9341  -23.0013   18.0346 H   0  0  0  0  0  0
  -27.4539  -24.5757   18.5267 H   0  0  0  0  0  0
  -27.4361  -20.5829   18.3674 H   0  0  0  0  0  0
  -26.0006  -21.1987   19.1990 H   0  0  0  0  0  0
  -26.8121  -19.7898   19.8101 H   0  0  0  0  0  0
  -28.6941  -25.8068   22.0185 H   0  0  0  0  0  0
  -27.0994  -25.4206   21.5090 H   0  0  0  0  0  0
  1 25  1  0  0  0
  1 30  2  0  0  0
  1 88  1  0  0  0
  2  3  1  0  0  0
  2 25  1  0  0  0
  2 90  1  0  0  0
  2 91  1  0  0  0
  3  4  1  0  0  0
  3 92  1  0  0  0
  3 93  1  0  0  0
  4  5  1  0  0  0
  4 94  1  0  0  0
  4 95  1  0  0  0
  5  6  1  0  0  0
  5 26  1  0  0  0
  5 96  1  0  0  0
  6 25  1  0  0  0
  6 97  1  0  0  0
  6 98  1  0  0  0
  7  8  2  0  0  0
  7 26  1  0  0  0
  7 29  1  0  0  0
  8  9  1  0  0  0
  8 22  1  0  0  0
  9 10  1  0  0  0
  9 27  2  0  0  0
 10 11  2  0  0  0
 10 15  1  0  0  0
 11 12  1  0  0  0
 11 99  1  0  0  0
 12 13  2  0  0  0
 12100  1  0  0  0
 13 14  1  0  0  0
 13 31  1  0  0  0
 14 15  2  0  0  0
 14101  1  0  0  0
 15102  1  0  0  0
 16 17  2  0  0  0
 16 21  1  0  0  0
 16 31  1  0  0  0
 17 18  1  0  0  0
 17103  1  0  0  0
 18 19  2  0  0  0
 18104  1  0  0  0
 19 20  1  0  0  0
 19 24  1  0  0  0
 20 21  2  0  0  0
 20105  1  0  0  0
 21 23  1  0  0  0
 22 28  1  0  0  0
 22 32  2  0  0  0
 26 27  1  0  0  0
 28106  1  0  0  0
 28107  1  0  0  0
 29108  1  0  0  0
 29109  1  0  0  0
 33 34  1  0  0  0
 33 66  1  0  0  0
 33 70  2  0  0  0
 34 36  1  0  0  0
 34 59  1  0  0  0
 34110  1  0  0  0
 35 44  2  0  0  0
 35 45  1  0  0  0
 35 68  1  0  0  0
 36 56  1  0  0  0
 36111  1  0  0  0
 37 39  1  0  0  0
 37 47  1  0  0  0
 37 66  1  0  0  0
 37112  1  0  0  0
 38 43  2  0  0  0
 38 46  1  0  0  0
 38 47  1  0  0  0
 39 64  1  0  0  0
 39 67  2  0  0  0
 40 52  1  0  0  0
 40 53  2  0  0  0
 40 58  1  0  0  0
 41113  1  0  0  0
 41114  1  0  0  0
 41115  1  0  0  0
 41 48  1  0  0  0
 42 43  1  0  0  0
 42 66  1  0  0  0
 42116  1  0  0  0
 42117  1  0  0  0
 43 44  1  0  0  0
 44118  1  0  0  0
 45 46  2  0  0  0
 45119  1  0  0  0
 46120  1  0  0  0
 47121  1  0  0  0
 47122  1  0  0  0
 48 56  1  0  0  0
 48 65  1  0  0  0
 48123  1  0  0  0
 49 50  1  0  0  0
 49 53  1  0  0  0
 49 64  1  0  0  0
 49124  1  0  0  0
 50 51  1  0  0  0
 50125  1  0  0  0
 50126  1  0  0  0
 51 52  1  0  0  0
 51127  1  0  0  0
 51128  1  0  0  0
 52129  1  0  0  0
 52130  1  0  0  0
 53 54  1  0  0  0
 54 55  2  0  0  0
 54131  1  0  0  0
 55 57  1  0  0  0
 55132  1  0  0  0
 56 69  2  0  0  0
 57 58  2  0  0  0
 57133  1  0  0  0
 58134  1  0  0  0
 59 60  1  0  0  0
 59 61  1  0  0  0
 59 62  1  0  0  0
 60135  1  0  0  0
 60136  1  0  0  0
 60137  1  0  0  0
 61138  1  0  0  0
 61139  1  0  0  0
 61140  1  0  0  0
 62141  1  0  0  0
 62142  1  0  0  0
 62143  1  0  0  0
 63 65  1  0  0  0
 63144  1  0  0  0
 63145  1  0  0  0
 63146  1  0  0  0
 64147  1  0  0  0
 65148  1  0  0  0
 68 87  1  0  0  0
 71 72  2  0  0  0
 71 73  1  0  0  0
 71149  1  0  0  0
 72 76  1  0  0  0
 72 83  1  0  0  0
 73 74  2  0  0  0
 73 87  1  0  0  0
 74 75  1  0  0  0
 74 85  1  0  0  0
 75 76  2  0  0  0
 75 86  1  0  0  0
 76 89  1  0  0  0
 77 78  1  0  0  0
 77 83  1  0  0  0
 77150  1  0  0  0
 77151  1  0  0  0
 78 83  1  0  0  0
 78152  1  0  0  0
 78153  1  0  0  0
 79 81  1  0  0  0
 79 84  1  0  0  0
 79154  1  0  0  0
 79155  1  0  0  0
 80 82  1  0  0  0
 80 84  1  0  0  0
 80156  1  0  0  0
 80157  1  0  0  0
 81 88  1  0  0  0
 81158  1  0  0  0
 81159  1  0  0  0
 82 88  1  0  0  0
 82160  1  0  0  0
 82161  1  0  0  0
 83162  1  0  0  0
 84 89  1  0  0  0
 84163  1  0  0  0
 85164  1  0  0  0
 85165  1  0  0  0
 85166  1  0  0  0
 86167  1  0  0  0
 86168  1  0  0  0
 86169  1  0  0  0
 87170  1  0  0  0
 87171  1  0  0  0
M  ISO  4   1 100  68 101  87 101  88 100
M  END
> <chiral flag>
0

> <version>
0

> <s_m_source_file>
/data/baiqing/PycharmProjects/Reinvent-master-3.2/result/LINK_invent/BTK/process_docking_weight1_custom_sum_contain_oxygen_bond_distance_aromatic_linkinvent_7_9_3/rearranged_h_0157.sdf

> <i_m_source_file_index>
82

> <r_mmod_Potential_Energy-OPLS-2005>
341.397888183594

> <r_mmod_Stretch_Energy-OPLS-2005>
58.9118041992188

> <r_mmod_Bend_Energy-OPLS-2005>
141.186157226562

> <r_mmod_Torsional_Energy-OPLS-2005>
439.458251953125

> <r_mmod_Improper_Torsional_Energy-OPLS-2005>
14.8538665771484

> <r_mmod_Van_der_Waal_Energy-OPLS-2005>
146.500549316406

> <r_mmod_Electrostatic_Energy-OPLS-2005>
-301.920166015625

> <r_mmod_Solvation_Energy-OPLS-2005>
-190.685516357422

> <b_mmod_Minimization_Converged-OPLS-2005>
0

> <r_mmod_RMS_Derivative-OPLS-2005>
1.38698208332062

$$$$
82
                    3D
 Structure written by MMmdl.
175186  0  0  1  0            999 V2000
  -30.6631  -14.5437   20.4960 C   0  0  0  0  0  0
  -30.4164  -12.3313   19.4358 C   0  0  0  0  0  0
  -29.4977  -12.4829   18.2066 C   0  0  0  0  0  0
  -28.0182  -12.3366   18.6160 C   0  0  0  0  0  0
  -27.6463  -13.2032   19.8526 C   0  0  2  0  0  0
  -28.6883  -13.0282   20.9773 C   0  0  0  0  0  0
  -25.2545  -13.8158   20.5619 C   0  0  0  0  0  0
  -24.1823  -13.0424   20.9189 C   0  0  0  0  0  0
  -24.6375  -11.6899   20.8726 C   0  0  0  0  0  0
  -23.9044  -10.4287   21.0385 C   0  0  0  0  0  0
  -24.3609   -9.4222   21.9161 C   0  0  0  0  0  0
  -23.6301   -8.2255   22.0724 C   0  0  0  0  0  0
  -22.4289   -8.0270   21.3520 C   0  0  0  0  0  0
  -21.9909   -9.0240   20.4631 C   0  0  0  0  0  0
  -22.7218  -10.2130   20.3041 C   0  0  0  0  0  0
  -21.6872   -6.0722   22.5280 C   0  0  0  0  0  0
  -21.4027   -6.5626   23.8210 C   0  0  0  0  0  0
  -21.3679   -5.6779   24.9166 C   0  0  0  0  0  0
  -21.6041   -4.3038   24.7217 C   0  0  0  0  0  0
  -21.8828   -3.8126   23.4342 C   0  0  0  0  0  0
  -21.9204   -4.6944   22.3393 C   0  0  0  0  0  0
  -22.7863  -13.5257   21.1855 C   0  0  0  0  0  0
  -22.1664   -4.2142   21.0961 F   0  0  0  0  0  0
  -21.5646   -3.4525   25.7731 F   0  0  0  0  0  0
  -30.0005  -13.3544   20.4099 N   0  0  0  0  0  0
  -26.2936  -12.9298   20.3224 N   0  0  0  0  0  0
  -25.9292  -11.6471   20.5713 N   0  0  0  0  0  0
  -22.0492  -12.8260   22.0403 N   0  0  0  0  0  0
  -25.4243  -15.1858   20.4003 N   0  0  0  0  0  0
  -31.8589  -14.6172   20.1919 O   0  0  0  0  0  0
  -21.6663   -6.8866   21.4240 O   0  0  0  0  0  0
  -22.3545  -14.5543   20.6674 O   0  0  0  0  0  0
  -24.6219  -31.8672   23.2059 C   0  0  0  0  0  0
  -25.9081  -32.4812   23.8365 C   0  0  1  0  0  0
  -27.2229  -27.3907   20.0787 C   0  0  0  0  0  0
  -25.5897  -33.8607   24.2288 N   0  0  0  0  0  0
  -23.4067  -30.4940   21.5530 C   0  0  2  0  0  0
  -24.8432  -28.9497   20.1133 C   0  0  0  0  0  0
  -22.7405  -29.4689   22.5007 C   0  0  0  0  0  0
  -18.0288  -28.1389   22.8503 C   0  0  0  0  0  0
  -24.1481  -36.7323   23.2633 C   0  0  0  0  0  0
  -25.9396  -30.8156   21.3613 C   0  0  0  0  0  0
  -26.0091  -29.4464   20.7068 C   0  0  0  0  0  0
  -27.2021  -28.6760   20.6830 C   0  0  0  0  0  0
  -26.0281  -26.9192   19.4868 C   0  0  0  0  0  0
  -24.8495  -27.6871   19.4981 C   0  0  0  0  0  0
  -23.6092  -29.8278   20.1673 C   0  0  0  0  0  0
  -25.4102  -36.3116   24.0344 C   0  0  1  0  0  0
  -20.5880  -28.3686   23.1311 C   0  0  2  0  0  0
  -20.6780  -26.9425   22.5428 C   0  0  0  0  0  0
  -19.5753  -26.6399   21.5221 C   0  0  0  0  0  0
  -18.1934  -26.7950   22.1622 C   0  0  0  0  0  0
  -19.1540  -28.8855   23.2916 C   0  0  0  0  0  0
  -18.9462  -30.1450   23.8940 C   0  0  0  0  0  0
  -17.6455  -30.6590   24.0573 C   0  0  0  0  0  0
  -25.9035  -34.9479   23.5119 C   0  0  0  0  0  0
  -16.5346  -29.9102   23.6329 C   0  0  0  0  0  0
  -16.7276  -28.6512   23.0356 C   0  0  0  0  0  0
  -26.4470  -31.6597   25.0721 C   0  0  0  0  0  0
  -25.3703  -31.3743   26.1455 C   0  0  0  0  0  0
  -27.0263  -30.3013   24.6114 C   0  0  0  0  0  0
  -27.6068  -32.4305   25.7456 C   0  0  0  0  0  0
  -27.5588  -37.1818   24.8460 C   0  0  0  0  0  0
  -21.4136  -29.3047   22.3706 N   0  0  0  0  0  0
  -26.4290  -37.3811   23.9429 N   0  0  0  0  0  0
  -24.6757  -31.0737   22.0980 N   0  0  0  0  0  0
  -23.4165  -28.8261   23.3079 O   0  0  0  0  0  0
  -28.3851  -26.6267   20.0816 O   0  0  0  0  0  0
  -26.5641  -34.8948   22.4695 O   0  0  0  0  0  0
  -23.5411  -32.1429   23.7459 O   0  0  0  0  0  0
  -31.7413  -21.6490   18.0117 C   0  0  0  0  0  0
  -31.4652  -20.6184   18.9216 C   0  0  0  0  0  0
  -30.1081  -23.1397   19.0890 C   0  0  0  0  0  0
  -31.0892  -22.8897   18.0895 C   0  0  0  0  0  0
  -29.7393  -22.0400   19.9392 C   0  0  0  0  0  0
  -30.4082  -20.7705   19.8502 C   0  0  0  0  0  0
  -33.2154  -18.9989   20.0700 C   0  0  0  0  0  0
  -33.8563  -19.5722   18.8326 C   0  0  0  0  0  0
  -29.3269  -17.8973   19.2454 C   0  0  0  0  0  0
  -29.3352  -17.7338   21.7540 C   0  0  0  0  0  0
  -28.5852  -25.0848   18.2032 C   0  0  0  0  0  0
  -30.2828  -16.6779   19.3645 C   0  0  0  0  0  0
  -29.0379  -16.2330   21.4558 C   0  0  0  0  0  0
  -32.3538  -19.4069   18.8894 C   0  0  0  0  0  0
  -29.6275  -24.6061   19.2017 C   0  0  1  0  0  0
  -29.2174  -18.7128   20.5519 C   0  0  0  0  0  0
  -28.3094  -25.2323   19.6768 C   0  0  2  0  0  0
  -31.5246  -23.9623   17.0978 C   0  0  0  0  0  0
  -28.6683  -22.2290   20.9980 C   0  0  0  0  0  0
  -29.8920  -15.6747   20.3827 N   0  0  0  0  0  0
  -30.2113  -19.7440   20.7642 O   0  0  0  0  0  0
  -31.4633  -12.4273   19.1421 H   0  0  0  0  0  0
  -30.3165  -11.3319   19.8646 H   0  0  0  0  0  0
  -29.7496  -11.7325   17.4575 H   0  0  0  0  0  0
  -29.6581  -13.4507   17.7309 H   0  0  0  0  0  0
  -27.8444  -11.2813   18.8325 H   0  0  0  0  0  0
  -27.3681  -12.5796   17.7738 H   0  0  0  0  0  0
  -27.6724  -14.2416   19.5242 H   0  0  0  0  0  0
  -28.6909  -11.9978   21.3348 H   0  0  0  0  0  0
  -28.4446  -13.6448   21.8411 H   0  0  0  0  0  0
  -25.2751   -9.5740   22.4719 H   0  0  0  0  0  0
  -24.0030   -7.4675   22.7451 H   0  0  0  0  0  0
  -21.0829   -8.8748   19.8959 H   0  0  0  0  0  0
  -22.3639  -10.9659   19.6152 H   0  0  0  0  0  0
  -21.1996   -7.6123   23.9722 H   0  0  0  0  0  0
  -21.1502   -6.0481   25.9078 H   0  0  0  0  0  0
  -22.0588   -2.7588   23.2833 H   0  0  0  0  0  0
  -22.4145  -11.9951   22.4817 H   0  0  0  0  0  0
  -21.1105  -13.1298   22.2607 H   0  0  0  0  0  0
  -24.6539  -15.8369   20.5006 H   0  0  0  0  0  0
  -26.2684  -15.6196   20.0518 H   0  0  0  0  0  0
  -26.7155  -32.5506   23.1133 H   0  0  0  0  0  0
  -24.9995  -33.9728   25.0394 H   0  0  0  0  0  0
  -22.7006  -31.3171   21.4215 H   0  0  0  0  0  0
  -23.3747  -35.9651   23.3299 H   0  0  0  0  0  0
  -24.3570  -36.8935   22.2042 H   0  0  0  0  0  0
  -23.7215  -37.6521   23.6647 H   0  0  0  0  0  0
  -26.0571  -31.5794   20.5934 H   0  0  0  0  0  0
  -26.8245  -30.8640   21.9846 H   0  0  0  0  0  0
  -28.1027  -29.0584   21.1420 H   0  0  0  0  0  0
  -25.9854  -25.9544   19.0043 H   0  0  0  0  0  0
  -23.9535  -27.3000   19.0314 H   0  0  0  0  0  0
  -23.7165  -30.6073   19.4115 H   0  0  0  0  0  0
  -22.7229  -29.2631   19.8718 H   0  0  0  0  0  0
  -25.1282  -36.1972   25.0845 H   0  0  0  0  0  0
  -20.9997  -28.3263   24.1414 H   0  0  0  0  0  0
  -20.5670  -26.2307   23.3623 H   0  0  0  0  0  0
  -21.6654  -26.7475   22.1215 H   0  0  0  0  0  0
  -19.6906  -25.6310   21.1249 H   0  0  0  0  0  0
  -19.6672  -27.3205   20.6746 H   0  0  0  0  0  0
  -17.4214  -26.6721   21.4019 H   0  0  0  0  0  0
  -18.0308  -26.0068   22.8982 H   0  0  0  0  0  0
  -19.7930  -30.7269   24.2318 H   0  0  0  0  0  0
  -17.5009  -31.6277   24.5157 H   0  0  0  0  0  0
  -15.5346  -30.3014   23.7616 H   0  0  0  0  0  0
  -15.8676  -28.0831   22.7058 H   0  0  0  0  0  0
  -24.5898  -30.7055   25.7804 H   0  0  0  0  0  0
  -24.8868  -32.2902   26.4849 H   0  0  0  0  0  0
  -25.8027  -30.8961   27.0239 H   0  0  0  0  0  0
  -26.2787  -29.6811   24.1154 H   0  0  0  0  0  0
  -27.3952  -29.7237   25.4590 H   0  0  0  0  0  0
  -27.8674  -30.4286   23.9303 H   0  0  0  0  0  0
  -27.2706  -33.3596   26.2058 H   0  0  0  0  0  0
  -28.3846  -32.6851   25.0251 H   0  0  0  0  0  0
  -28.0757  -31.8402   26.5327 H   0  0  0  0  0  0
  -28.2644  -38.0090   24.7540 H   0  0  0  0  0  0
  -28.1064  -36.2641   24.6254 H   0  0  0  0  0  0
  -27.2340  -37.1448   25.8873 H   0  0  0  0  0  0
  -20.9295  -29.8711   21.6881 H   0  0  0  0  0  0
  -26.0187  -38.2903   24.1407 H   0  0  0  0  0  0
  -32.5193  -21.4985   17.2733 H   0  0  0  0  0  0
  -33.2047  -19.6280   20.9574 H   0  0  0  0  0  0
  -33.3985  -17.9419   20.2519 H   0  0  0  0  0  0
  -34.4141  -18.8859   18.1993 H   0  0  0  0  0  0
  -34.2761  -20.5722   18.9230 H   0  0  0  0  0  0
  -28.3326  -17.5181   18.9990 H   0  0  0  0  0  0
  -29.5892  -18.5408   18.4061 H   0  0  0  0  0  0
  -30.3572  -17.7759   22.1312 H   0  0  0  0  0  0
  -28.7126  -18.0891   22.5735 H   0  0  0  0  0  0
  -28.0146  -24.3281   17.6680 H   0  0  0  0  0  0
  -28.8061  -25.9819   17.6296 H   0  0  0  0  0  0
  -31.2799  -17.0323   19.6191 H   0  0  0  0  0  0
  -30.3615  -16.1870   18.3929 H   0  0  0  0  0  0
  -27.9909  -16.1204   21.1721 H   0  0  0  0  0  0
  -29.1718  -15.6716   22.3806 H   0  0  0  0  0  0
  -31.9390  -18.6363   18.2458 H   0  0  0  0  0  0
  -30.4951  -25.2409   19.3757 H   0  0  0  0  0  0
  -28.2419  -19.2008   20.5666 H   0  0  0  0  0  0
  -27.5583  -24.6263   20.1744 H   0  0  0  0  0  0
  -32.3396  -23.6115   16.4618 H   0  0  0  0  0  0
  -31.8884  -24.8575   17.6014 H   0  0  0  0  0  0
  -30.6964  -24.2382   16.4461 H   0  0  0  0  0  0
  -28.8866  -23.1065   21.6089 H   0  0  0  0  0  0
  -28.6020  -21.3756   21.6715 H   0  0  0  0  0  0
  -27.6907  -22.3463   20.5279 H   0  0  0  0  0  0
  1 25  1  0  0  0
  1 30  2  0  0  0
  1 90  1  0  0  0
  2  3  1  0  0  0
  2 25  1  0  0  0
  2 92  1  0  0  0
  2 93  1  0  0  0
  3  4  1  0  0  0
  3 94  1  0  0  0
  3 95  1  0  0  0
  4  5  1  0  0  0
  4 96  1  0  0  0
  4 97  1  0  0  0
  5  6  1  0  0  0
  5 26  1  0  0  0
  5 98  1  0  0  0
  6 25  1  0  0  0
  6 99  1  0  0  0
  6100  1  0  0  0
  7  8  2  0  0  0
  7 26  1  0  0  0
  7 29  1  0  0  0
  8  9  1  0  0  0
  8 22  1  0  0  0
  9 10  1  0  0  0
  9 27  2  0  0  0
 10 11  2  0  0  0
 10 15  1  0  0  0
 11 12  1  0  0  0
 11101  1  0  0  0
 12 13  2  0  0  0
 12102  1  0  0  0
 13 14  1  0  0  0
 13 31  1  0  0  0
 14 15  2  0  0  0
 14103  1  0  0  0
 15104  1  0  0  0
 16 17  2  0  0  0
 16 21  1  0  0  0
 16 31  1  0  0  0
 17 18  1  0  0  0
 17105  1  0  0  0
 18 19  2  0  0  0
 18106  1  0  0  0
 19 20  1  0  0  0
 19 24  1  0  0  0
 20 21  2  0  0  0
 20107  1  0  0  0
 21 23  1  0  0  0
 22 28  1  0  0  0
 22 32  2  0  0  0
 26 27  1  0  0  0
 28108  1  0  0  0
 28109  1  0  0  0
 29110  1  0  0  0
 29111  1  0  0  0
 33 34  1  0  0  0
 33 66  1  0  0  0
 33 70  2  0  0  0
 34 36  1  0  0  0
 34 59  1  0  0  0
 34112  1  0  0  0
 35 44  2  0  0  0
 35 45  1  0  0  0
 35 68  1  0  0  0
 36 56  1  0  0  0
 36113  1  0  0  0
 37 39  1  0  0  0
 37 47  1  0  0  0
 37 66  1  0  0  0
 37114  1  0  0  0
 38 43  2  0  0  0
 38 46  1  0  0  0
 38 47  1  0  0  0
 39 64  1  0  0  0
 39 67  2  0  0  0
 40 52  1  0  0  0
 40 53  2  0  0  0
 40 58  1  0  0  0
 41115  1  0  0  0
 41116  1  0  0  0
 41117  1  0  0  0
 41 48  1  0  0  0
 42 43  1  0  0  0
 42 66  1  0  0  0
 42118  1  0  0  0
 42119  1  0  0  0
 43 44  1  0  0  0
 44120  1  0  0  0
 45 46  2  0  0  0
 45121  1  0  0  0
 46122  1  0  0  0
 47123  1  0  0  0
 47124  1  0  0  0
 48 56  1  0  0  0
 48 65  1  0  0  0
 48125  1  0  0  0
 49 50  1  0  0  0
 49 53  1  0  0  0
 49 64  1  0  0  0
 49126  1  0  0  0
 50 51  1  0  0  0
 50127  1  0  0  0
 50128  1  0  0  0
 51 52  1  0  0  0
 51129  1  0  0  0
 51130  1  0  0  0
 52131  1  0  0  0
 52132  1  0  0  0
 53 54  1  0  0  0
 54 55  2  0  0  0
 54133  1  0  0  0
 55 57  1  0  0  0
 55134  1  0  0  0
 56 69  2  0  0  0
 57 58  2  0  0  0
 57135  1  0  0  0
 58136  1  0  0  0
 59 60  1  0  0  0
 59 61  1  0  0  0
 59 62  1  0  0  0
 60137  1  0  0  0
 60138  1  0  0  0
 60139  1  0  0  0
 61140  1  0  0  0
 61141  1  0  0  0
 61142  1  0  0  0
 62143  1  0  0  0
 62144  1  0  0  0
 62145  1  0  0  0
 63 65  1  0  0  0
 63146  1  0  0  0
 63147  1  0  0  0
 63148  1  0  0  0
 64149  1  0  0  0
 65150  1  0  0  0
 68 87  1  0  0  0
 71 72  2  0  0  0
 71 74  1  0  0  0
 71151  1  0  0  0
 72 76  1  0  0  0
 72 84  1  0  0  0
 73 74  2  0  0  0
 73 75  1  0  0  0
 73 85  1  0  0  0
 74 88  1  0  0  0
 75 76  2  0  0  0
 75 89  1  0  0  0
 76 91  1  0  0  0
 77 78  1  0  0  0
 77 84  1  0  0  0
 77152  1  0  0  0
 77153  1  0  0  0
 78 84  1  0  0  0
 78154  1  0  0  0
 78155  1  0  0  0
 79 82  1  0  0  0
 79 86  1  0  0  0
 79156  1  0  0  0
 79157  1  0  0  0
 80 83  1  0  0  0
 80 86  1  0  0  0
 80158  1  0  0  0
 80159  1  0  0  0
 81 85  1  0  0  0
 81 87  1  0  0  0
 81160  1  0  0  0
 81161  1  0  0  0
 82 90  1  0  0  0
 82162  1  0  0  0
 82163  1  0  0  0
 83 90  1  0  0  0
 83164  1  0  0  0
 83165  1  0  0  0
 84166  1  0  0  0
 85 87  1  0  0  0
 85167  1  0  0  0
 86 91  1  0  0  0
 86168  1  0  0  0
 87169  1  0  0  0
 88170  1  0  0  0
 88171  1  0  0  0
 88172  1  0  0  0
 89173  1  0  0  0
 89174  1  0  0  0
 89175  1  0  0  0
M  ISO  4   1 100  68 101  87 101  90 100
M  END
> <chiral flag>
0

> <version>
0

> <s_m_source_file>
/data/baiqing/PycharmProjects/Reinvent-master-3.2/result/LINK_invent/BTK/process_docking_weight1_custom_sum_contain_oxygen_bond_distance_aromatic_linkinvent_7_9_3/rearranged_h_0157.sdf

> <i_m_source_file_index>
83

> <r_mmod_Potential_Energy-OPLS-2005>
305.881225585938

> <r_mmod_Stretch_Energy-OPLS-2005>
58.2182006835938

> <r_mmod_Bend_Energy-OPLS-2005>
149.130065917969

> <r_mmod_Torsional_Energy-OPLS-2005>
410.823669433594

> <r_mmod_Improper_Torsional_Energy-OPLS-2005>
20.7272663116455

> <r_mmod_Van_der_Waal_Energy-OPLS-2005>
153.493850708008

> <r_mmod_Electrostatic_Energy-OPLS-2005>
-317.440887451172

> <r_mmod_Solvation_Energy-OPLS-2005>
-195.870834350586

> <b_mmod_Minimization_Converged-OPLS-2005>
0

> <r_mmod_RMS_Derivative-OPLS-2005>
4.27802181243896

$$$$
83
                    3D
 Structure written by MMmdl.
164173  0  0  1  0            999 V2000
  -30.5613  -15.0087   20.4279 C   0  0  0  0  0  0
  -30.4318  -12.6351   19.5034 C   0  0  0  0  0  0
  -29.5182  -12.5441   18.2594 C   0  0  0  0  0  0
  -28.0529  -12.3231   18.6763 C   0  0  0  0  0  0
  -27.6243  -13.2570   19.8380 C   0  0  2  0  0  0
  -28.6695  -13.3013   20.9725 C   0  0  0  0  0  0
  -25.2398  -13.8211   20.5689 C   0  0  0  0  0  0
  -24.1748  -13.0417   20.9242 C   0  0  0  0  0  0
  -24.6394  -11.6918   20.8769 C   0  0  0  0  0  0
  -23.9090  -10.4280   21.0411 C   0  0  0  0  0  0
  -24.3637   -9.4195   21.9190 C   0  0  0  0  0  0
  -23.6304   -8.2234   22.0757 C   0  0  0  0  0  0
  -22.4284   -8.0276   21.3546 C   0  0  0  0  0  0
  -21.9929   -9.0250   20.4642 C   0  0  0  0  0  0
  -22.7265  -10.2125   20.3056 C   0  0  0  0  0  0
  -21.6856   -6.0737   22.5284 C   0  0  0  0  0  0
  -21.4013   -6.5642   23.8217 C   0  0  0  0  0  0
  -21.3660   -5.6794   24.9180 C   0  0  0  0  0  0
  -21.6048   -4.3057   24.7228 C   0  0  0  0  0  0
  -21.8823   -3.8148   23.4348 C   0  0  0  0  0  0
  -21.9192   -4.6964   22.3405 C   0  0  0  0  0  0
  -22.7765  -13.5174   21.1890 C   0  0  0  0  0  0
  -22.1662   -4.2150   21.0983 F   0  0  0  0  0  0
  -21.5627   -3.4541   25.7741 F   0  0  0  0  0  0
  -29.9307  -13.7538   20.3653 N   0  0  0  0  0  0
  -26.2854  -12.9477   20.3252 N   0  0  0  0  0  0
  -25.9332  -11.6597   20.5762 N   0  0  0  0  0  0
  -22.0428  -12.8151   22.0448 N   0  0  0  0  0  0
  -25.3960  -15.1929   20.4030 N   0  0  0  0  0  0
  -31.7622  -15.0051   20.1285 O   0  0  0  0  0  0
  -21.6641   -6.8878   21.4244 O   0  0  0  0  0  0
  -22.3436  -14.5477   20.6739 O   0  0  0  0  0  0
  -24.6477  -31.8401   23.1841 C   0  0  0  0  0  0
  -25.9232  -32.4676   23.8244 C   0  0  1  0  0  0
  -27.2184  -27.0938   20.1571 C   0  0  0  0  0  0
  -25.5962  -33.8481   24.2159 N   0  0  0  0  0  0
  -23.4538  -30.4574   21.5307 C   0  0  2  0  0  0
  -24.9046  -28.8768   20.1092 C   0  0  0  0  0  0
  -22.7590  -29.4522   22.4839 C   0  0  0  0  0  0
  -18.0309  -28.1399   22.8477 C   0  0  0  0  0  0
  -24.1491  -36.7241   23.2645 C   0  0  0  0  0  0
  -26.0127  -30.7000   21.3900 C   0  0  0  0  0  0
  -26.0837  -29.3072   20.7308 C   0  0  0  0  0  0
  -27.2409  -28.4330   20.7354 C   0  0  0  0  0  0
  -26.0127  -26.7762   19.4928 C   0  0  0  0  0  0
  -24.8847  -27.6267   19.4733 C   0  0  0  0  0  0
  -23.6829  -29.7841   20.1514 C   0  0  0  0  0  0
  -25.4127  -36.3016   24.0307 C   0  0  1  0  0  0
  -20.5922  -28.3731   23.1221 C   0  0  2  0  0  0
  -20.6794  -26.9430   22.5399 C   0  0  0  0  0  0
  -19.5766  -26.6377   21.5210 C   0  0  0  0  0  0
  -18.1944  -26.7940   22.1619 C   0  0  0  0  0  0
  -19.1568  -28.8882   23.2842 C   0  0  0  0  0  0
  -18.9485  -30.1477   23.8870 C   0  0  0  0  0  0
  -17.6483  -30.6602   24.0549 C   0  0  0  0  0  0
  -25.9082  -34.9397   23.5045 C   0  0  0  0  0  0
  -16.5373  -29.9091   23.6339 C   0  0  0  0  0  0
  -16.7292  -28.6504   23.0369 C   0  0  0  0  0  0
  -26.4538  -31.6565   25.0710 C   0  0  0  0  0  0
  -25.3701  -31.3759   26.1387 C   0  0  0  0  0  0
  -27.0426  -30.2960   24.6329 C   0  0  0  0  0  0
  -27.6049  -32.4348   25.7510 C   0  0  0  0  0  0
  -27.5573  -37.1780   24.8467 C   0  0  0  0  0  0
  -21.4276  -29.3052   22.3594 N   0  0  0  0  0  0
  -26.4287  -37.3734   23.9406 N   0  0  0  0  0  0
  -24.7248  -31.0214   22.0899 N   0  0  0  0  0  0
  -23.4213  -28.8074   23.3011 O   0  0  0  0  0  0
  -28.2540  -26.0779   20.2399 O   0  0  0  0  0  0
  -26.5667  -34.8905   22.4625 O   0  0  0  0  0  0
  -23.5584  -32.1299   23.7030 O   0  0  0  0  0  0
  -31.0570  -22.3694   21.3416 C   0  0  0  0  0  0
  -29.5316  -20.5915   20.5410 C   0  0  0  0  0  0
  -30.2035  -23.4445   20.9931 C   0  0  0  0  0  0
  -28.6410  -21.7564   20.1971 C   0  0  0  0  0  0
  -28.9346  -23.2213   20.4077 C   0  0  0  0  0  0
  -30.7502  -20.9920   21.1472 C   0  0  0  0  0  0
  -28.5688  -18.1964   21.5204 C   0  0  0  0  0  0
  -28.6803  -16.6318   21.3005 C   0  0  0  0  0  0
  -30.3408  -17.7105   20.0831 C   0  0  0  0  0  0
  -29.2505  -18.9366   20.3546 C   0  0  2  0  0  0
  -30.6915  -24.8546   21.2825 C   0  0  0  0  0  0
  -27.3001  -21.4068   19.5770 C   0  0  0  0  0  0
  -32.8397  -20.3331   22.1768 C   0  0  0  0  0  0
  -27.9546  -24.5390   20.0593 C   0  0  0  0  0  0
  -29.8717  -16.2816   20.5007 N   0  0  0  0  0  0
  -31.6071  -19.9921   21.5534 O   0  0  0  0  0  0
  -31.4640  -12.7860   19.1847 H   0  0  0  0  0  0
  -30.4333  -11.6919   20.0523 H   0  0  0  0  0  0
  -29.8467  -11.7382   17.6019 H   0  0  0  0  0  0
  -29.5985  -13.4652   17.6803 H   0  0  0  0  0  0
  -27.9531  -11.2818   18.9849 H   0  0  0  0  0  0
  -27.3904  -12.4531   17.8194 H   0  0  0  0  0  0
  -27.5794  -14.2561   19.4035 H   0  0  0  0  0  0
  -28.7795  -12.3209   21.4386 H   0  0  0  0  0  0
  -28.3510  -13.9721   21.7676 H   0  0  0  0  0  0
  -25.2783   -9.5672   22.4764 H   0  0  0  0  0  0
  -24.0014   -7.4628   22.7478 H   0  0  0  0  0  0
  -21.0864   -8.8774   19.8938 H   0  0  0  0  0  0
  -22.3734  -10.9667   19.6163 H   0  0  0  0  0  0
  -21.2009   -7.6152   23.9720 H   0  0  0  0  0  0
  -21.1477   -6.0525   25.9084 H   0  0  0  0  0  0
  -22.0598   -2.7609   23.2850 H   0  0  0  0  0  0
  -22.4067  -11.9821   22.4834 H   0  0  0  0  0  0
  -21.1035  -13.1147   22.2650 H   0  0  0  0  0  0
  -24.6229  -15.8398   20.5131 H   0  0  0  0  0  0
  -26.2315  -15.6317   20.0402 H   0  0  0  0  0  0
  -26.7300  -32.5266   23.0969 H   0  0  0  0  0  0
  -25.0089  -33.9585   25.0294 H   0  0  0  0  0  0
  -22.7587  -31.2846   21.3732 H   0  0  0  0  0  0
  -23.3763  -35.9563   23.3287 H   0  0  0  0  0  0
  -24.3573  -36.8903   22.2065 H   0  0  0  0  0  0
  -23.7236  -37.6422   23.6706 H   0  0  0  0  0  0
  -26.1750  -31.4531   20.6178 H   0  0  0  0  0  0
  -26.8797  -30.7502   22.0366 H   0  0  0  0  0  0
  -28.1369  -28.7570   21.2455 H   0  0  0  0  0  0
  -25.9059  -25.8203   19.0023 H   0  0  0  0  0  0
  -23.9854  -27.2925   18.9741 H   0  0  0  0  0  0
  -23.8227  -30.5581   19.3959 H   0  0  0  0  0  0
  -22.7967  -29.2286   19.8395 H   0  0  0  0  0  0
  -25.1317  -36.1836   25.0796 H   0  0  0  0  0  0
  -21.0010  -28.3329   24.1345 H   0  0  0  0  0  0
  -20.5691  -26.2343   23.3623 H   0  0  0  0  0  0
  -21.6658  -26.7435   22.1196 H   0  0  0  0  0  0
  -19.6925  -25.6277   21.1271 H   0  0  0  0  0  0
  -19.6705  -27.3162   20.6718 H   0  0  0  0  0  0
  -17.4213  -26.6684   21.4023 H   0  0  0  0  0  0
  -18.0342  -26.0088   22.9020 H   0  0  0  0  0  0
  -19.7963  -30.7295   24.2232 H   0  0  0  0  0  0
  -17.5043  -31.6286   24.5152 H   0  0  0  0  0  0
  -15.5375  -30.2988   23.7681 H   0  0  0  0  0  0
  -15.8689  -28.0810   22.7112 H   0  0  0  0  0  0
  -24.5893  -30.7100   25.7693 H   0  0  0  0  0  0
  -24.8873  -32.2941   26.4742 H   0  0  0  0  0  0
  -25.7963  -30.8973   27.0212 H   0  0  0  0  0  0
  -26.3065  -29.6664   24.1320 H   0  0  0  0  0  0
  -27.4013  -29.7284   25.4924 H   0  0  0  0  0  0
  -27.8978  -30.4193   23.9680 H   0  0  0  0  0  0
  -27.2631  -33.3677   26.2005 H   0  0  0  0  0  0
  -28.3911  -32.6866   25.0381 H   0  0  0  0  0  0
  -28.0663  -31.8529   26.5499 H   0  0  0  0  0  0
  -28.2574  -38.0093   24.7524 H   0  0  0  0  0  0
  -28.1083  -36.2619   24.6286 H   0  0  0  0  0  0
  -27.2284  -37.1412   25.8868 H   0  0  0  0  0  0
  -20.9494  -29.8768   21.6768 H   0  0  0  0  0  0
  -26.0145  -38.2796   24.1419 H   0  0  0  0  0  0
  -31.9968  -22.6441   21.7952 H   0  0  0  0  0  0
  -29.0935  -18.4534   22.4416 H   0  0  0  0  0  0
  -27.5344  -18.5155   21.6531 H   0  0  0  0  0  0
  -27.8059  -16.2820   20.7575 H   0  0  0  0  0  0
  -28.6938  -16.1232   22.2654 H   0  0  0  0  0  0
  -31.2593  -17.8712   20.6427 H   0  0  0  0  0  0
  -30.6367  -17.7037   19.0336 H   0  0  0  0  0  0
  -28.5623  -18.8822   19.5108 H   0  0  0  0  0  0
  -31.6904  -24.8610   21.7195 H   0  0  0  0  0  0
  -30.0263  -25.3545   21.9870 H   0  0  0  0  0  0
  -30.7374  -25.4419   20.3651 H   0  0  0  0  0  0
  -26.8661  -20.5321   20.0615 H   0  0  0  0  0  0
  -27.4217  -21.1852   18.5166 H   0  0  0  0  0  0
  -26.5771  -22.2156   19.6728 H   0  0  0  0  0  0
  -33.3763  -19.4198   22.4342 H   0  0  0  0  0  0
  -32.6811  -20.8894   23.1018 H   0  0  0  0  0  0
  -33.4814  -20.9115   21.5104 H   0  0  0  0  0  0
  -27.0371  -24.3550   20.6192 H   0  0  0  0  0  0
  -27.6867  -24.4096   19.0105 H   0  0  0  0  0  0
  1 25  1  0  0  0
  1 30  2  0  0  0
  1 85  1  0  0  0
  2  3  1  0  0  0
  2 25  1  0  0  0
  2 87  1  0  0  0
  2 88  1  0  0  0
  3  4  1  0  0  0
  3 89  1  0  0  0
  3 90  1  0  0  0
  4  5  1  0  0  0
  4 91  1  0  0  0
  4 92  1  0  0  0
  5  6  1  0  0  0
  5 26  1  0  0  0
  5 93  1  0  0  0
  6 25  1  0  0  0
  6 94  1  0  0  0
  6 95  1  0  0  0
  7  8  2  0  0  0
  7 26  1  0  0  0
  7 29  1  0  0  0
  8  9  1  0  0  0
  8 22  1  0  0  0
  9 10  1  0  0  0
  9 27  2  0  0  0
 10 11  2  0  0  0
 10 15  1  0  0  0
 11 12  1  0  0  0
 11 96  1  0  0  0
 12 13  2  0  0  0
 12 97  1  0  0  0
 13 14  1  0  0  0
 13 31  1  0  0  0
 14 15  2  0  0  0
 14 98  1  0  0  0
 15 99  1  0  0  0
 16 17  2  0  0  0
 16 21  1  0  0  0
 16 31  1  0  0  0
 17 18  1  0  0  0
 17100  1  0  0  0
 18 19  2  0  0  0
 18101  1  0  0  0
 19 20  1  0  0  0
 19 24  1  0  0  0
 20 21  2  0  0  0
 20102  1  0  0  0
 21 23  1  0  0  0
 22 28  1  0  0  0
 22 32  2  0  0  0
 26 27  1  0  0  0
 28103  1  0  0  0
 28104  1  0  0  0
 29105  1  0  0  0
 29106  1  0  0  0
 33 34  1  0  0  0
 33 66  1  0  0  0
 33 70  2  0  0  0
 34 36  1  0  0  0
 34 59  1  0  0  0
 34107  1  0  0  0
 35 44  2  0  0  0
 35 45  1  0  0  0
 35 68  1  0  0  0
 36 56  1  0  0  0
 36108  1  0  0  0
 37 39  1  0  0  0
 37 47  1  0  0  0
 37 66  1  0  0  0
 37109  1  0  0  0
 38 43  2  0  0  0
 38 46  1  0  0  0
 38 47  1  0  0  0
 39 64  1  0  0  0
 39 67  2  0  0  0
 40 52  1  0  0  0
 40 53  2  0  0  0
 40 58  1  0  0  0
 41110  1  0  0  0
 41111  1  0  0  0
 41112  1  0  0  0
 41 48  1  0  0  0
 42 43  1  0  0  0
 42 66  1  0  0  0
 42113  1  0  0  0
 42114  1  0  0  0
 43 44  1  0  0  0
 44115  1  0  0  0
 45 46  2  0  0  0
 45116  1  0  0  0
 46117  1  0  0  0
 47118  1  0  0  0
 47119  1  0  0  0
 48 56  1  0  0  0
 48 65  1  0  0  0
 48120  1  0  0  0
 49 50  1  0  0  0
 49 53  1  0  0  0
 49 64  1  0  0  0
 49121  1  0  0  0
 50 51  1  0  0  0
 50122  1  0  0  0
 50123  1  0  0  0
 51 52  1  0  0  0
 51124  1  0  0  0
 51125  1  0  0  0
 52126  1  0  0  0
 52127  1  0  0  0
 53 54  1  0  0  0
 54 55  2  0  0  0
 54128  1  0  0  0
 55 57  1  0  0  0
 55129  1  0  0  0
 56 69  2  0  0  0
 57 58  2  0  0  0
 57130  1  0  0  0
 58131  1  0  0  0
 59 60  1  0  0  0
 59 61  1  0  0  0
 59 62  1  0  0  0
 60132  1  0  0  0
 60133  1  0  0  0
 60134  1  0  0  0
 61135  1  0  0  0
 61136  1  0  0  0
 61137  1  0  0  0
 62138  1  0  0  0
 62139  1  0  0  0
 62140  1  0  0  0
 63 65  1  0  0  0
 63141  1  0  0  0
 63142  1  0  0  0
 63143  1  0  0  0
 64144  1  0  0  0
 65145  1  0  0  0
 68 84  1  0  0  0
 71 73  2  0  0  0
 71 76  1  0  0  0
 71146  1  0  0  0
 72 74  1  0  0  0
 72 76  2  0  0  0
 72 80  1  0  0  0
 73 75  1  0  0  0
 73 81  1  0  0  0
 74 75  2  0  0  0
 74 82  1  0  0  0
 75 84  1  0  0  0
 76 86  1  0  0  0
 77 78  1  0  0  0
 77 80  1  0  0  0
 77147  1  0  0  0
 77148  1  0  0  0
 78 85  1  0  0  0
 78149  1  0  0  0
 78150  1  0  0  0
 79 80  1  0  0  0
 79 85  1  0  0  0
 79151  1  0  0  0
 79152  1  0  0  0
 80153  1  0  0  0
 81154  1  0  0  0
 81155  1  0  0  0
 81156  1  0  0  0
 82157  1  0  0  0
 82158  1  0  0  0
 82159  1  0  0  0
 83 86  1  0  0  0
 83160  1  0  0  0
 83161  1  0  0  0
 83162  1  0  0  0
 84163  1  0  0  0
 84164  1  0  0  0
M  ISO  4   1 100  68 101  84 101  85 100
M  END
> <chiral flag>
0

> <version>
0

> <s_m_source_file>
/data/baiqing/PycharmProjects/Reinvent-master-3.2/result/LINK_invent/BTK/process_docking_weight1_custom_sum_contain_oxygen_bond_distance_aromatic_linkinvent_7_9_3/rearranged_h_0157.sdf

> <i_m_source_file_index>
84

> <r_mmod_Potential_Energy-OPLS-2005>
810.534057617188

> <r_mmod_Stretch_Energy-OPLS-2005>
308.343597412109

> <r_mmod_Bend_Energy-OPLS-2005>
309.483856201172

> <r_mmod_Torsional_Energy-OPLS-2005>
309.716094970703

> <r_mmod_Improper_Torsional_Energy-OPLS-2005>
8.65611839294434

> <r_mmod_Van_der_Waal_Energy-OPLS-2005>
137.230651855469

> <r_mmod_Electrostatic_Energy-OPLS-2005>
-287.2158203125

> <r_mmod_Solvation_Energy-OPLS-2005>
-206.334060668945

> <b_mmod_Minimization_Converged-OPLS-2005>
0

> <r_mmod_RMS_Derivative-OPLS-2005>
0.790558159351349

$$$$
84
                    3D
 Structure written by MMmdl.
169179  0  0  1  0            999 V2000
  -30.5772  -14.8472   20.4323 C   0  0  0  0  0  0
  -30.4435  -12.5171   19.4754 C   0  0  0  0  0  0
  -29.5180  -12.5195   18.2376 C   0  0  0  0  0  0
  -28.0425  -12.3360   18.6480 C   0  0  0  0  0  0
  -27.6382  -13.2432   19.8404 C   0  0  2  0  0  0
  -28.6889  -13.2154   20.9716 C   0  0  0  0  0  0
  -25.2501  -13.8209   20.5701 C   0  0  0  0  0  0
  -24.1804  -13.0440   20.9222 C   0  0  0  0  0  0
  -24.6406  -11.6915   20.8729 C   0  0  0  0  0  0
  -23.9072  -10.4298   21.0390 C   0  0  0  0  0  0
  -24.3617   -9.4207   21.9170 C   0  0  0  0  0  0
  -23.6299   -8.2237   22.0738 C   0  0  0  0  0  0
  -22.4282   -8.0276   21.3539 C   0  0  0  0  0  0
  -21.9914   -9.0247   20.4644 C   0  0  0  0  0  0
  -22.7235  -10.2132   20.3043 C   0  0  0  0  0  0
  -21.6861   -6.0721   22.5282 C   0  0  0  0  0  0
  -21.4012   -6.5626   23.8214 C   0  0  0  0  0  0
  -21.3657   -5.6788   24.9180 C   0  0  0  0  0  0
  -21.6055   -4.3051   24.7235 C   0  0  0  0  0  0
  -21.8819   -3.8129   23.4362 C   0  0  0  0  0  0
  -21.9190   -4.6947   22.3409 C   0  0  0  0  0  0
  -22.7819  -13.5209   21.1880 C   0  0  0  0  0  0
  -22.1663   -4.2128   21.0991 F   0  0  0  0  0  0
  -21.5628   -3.4530   25.7744 F   0  0  0  0  0  0
  -29.9769  -13.5988   20.3789 N   0  0  0  0  0  0
  -26.2934  -12.9432   20.3249 N   0  0  0  0  0  0
  -25.9342  -11.6560   20.5718 N   0  0  0  0  0  0
  -22.0465  -12.8202   22.0447 N   0  0  0  0  0  0
  -25.4143  -15.1934   20.4113 N   0  0  0  0  0  0
  -31.7810  -14.9338   20.1701 O   0  0  0  0  0  0
  -21.6643   -6.8874   21.4250 O   0  0  0  0  0  0
  -22.3497  -14.5511   20.6719 O   0  0  0  0  0  0
  -24.6395  -31.8490   23.1966 C   0  0  0  0  0  0
  -25.9186  -32.4723   23.8324 C   0  0  1  0  0  0
  -27.2090  -27.1840   20.1333 C   0  0  0  0  0  0
  -25.5954  -33.8531   24.2234 N   0  0  0  0  0  0
  -23.4404  -30.4728   21.5419 C   0  0  2  0  0  0
  -24.8880  -28.9176   20.1083 C   0  0  0  0  0  0
  -22.7547  -29.4565   22.4888 C   0  0  0  0  0  0
  -18.0302  -28.1392   22.8483 C   0  0  0  0  0  0
  -24.1489  -36.7266   23.2643 C   0  0  0  0  0  0
  -25.9956  -30.7364   21.3922 C   0  0  0  0  0  0
  -26.0652  -29.3553   20.7276 C   0  0  0  0  0  0
  -27.2287  -28.5037   20.7259 C   0  0  0  0  0  0
  -26.0099  -26.8524   19.4573 C   0  0  0  0  0  0
  -24.8716  -27.6784   19.4579 C   0  0  0  0  0  0
  -23.6630  -29.8128   20.1570 C   0  0  0  0  0  0
  -25.4120  -36.3051   24.0321 C   0  0  1  0  0  0
  -20.5909  -28.3707   23.1252 C   0  0  2  0  0  0
  -20.6780  -26.9414   22.5409 C   0  0  0  0  0  0
  -19.5761  -26.6381   21.5207 C   0  0  0  0  0  0
  -18.1941  -26.7933   22.1622 C   0  0  0  0  0  0
  -19.1559  -28.8867   23.2860 C   0  0  0  0  0  0
  -18.9468  -30.1457   23.8882 C   0  0  0  0  0  0
  -17.6463  -30.6588   24.0551 C   0  0  0  0  0  0
  -25.9066  -34.9421   23.5082 C   0  0  0  0  0  0
  -16.5351  -29.9079   23.6337 C   0  0  0  0  0  0
  -16.7281  -28.6504   23.0356 C   0  0  0  0  0  0
  -26.4512  -31.6582   25.0752 C   0  0  0  0  0  0
  -25.3696  -31.3760   26.1447 C   0  0  0  0  0  0
  -27.0369  -30.2981   24.6317 C   0  0  0  0  0  0
  -27.6046  -32.4348   25.7526 C   0  0  0  0  0  0
  -27.5578  -37.1793   24.8458 C   0  0  0  0  0  0
  -21.4244  -29.3044   22.3636 N   0  0  0  0  0  0
  -26.4286  -37.3762   23.9406 N   0  0  0  0  0  0
  -24.7115  -31.0376   22.0989 N   0  0  0  0  0  0
  -23.4211  -28.8087   23.3001 O   0  0  0  0  0  0
  -28.2637  -26.2118   20.2029 O   0  0  0  0  0  0
  -26.5638  -34.8906   22.4651 O   0  0  0  0  0  0
  -23.5526  -32.1346   23.7207 O   0  0  0  0  0  0
  -31.2501  -18.0549   20.8662 C   0  0  0  0  0  0
  -31.4511  -19.4667   20.9398 C   0  0  0  0  0  0
  -28.9720  -18.4849   20.2640 C   0  0  0  0  0  0
  -29.1636  -19.9411   20.3053 C   0  0  0  0  0  0
  -29.9960  -17.4830   20.5367 C   0  0  0  0  0  0
  -30.4339  -20.4325   20.6919 C   0  0  0  0  0  0
  -28.0366  -20.9313   19.9412 C   0  0  0  0  0  0
  -28.6333  -22.6746   15.5295 C   0  0  0  0  0  0
  -29.6025  -23.4582   16.3798 C   0  0  0  0  0  0
  -28.9026  -22.2468   16.9552 C   0  0  0  0  0  0
  -28.9494  -23.4107   20.0187 C   0  0  2  0  0  0
  -29.8324  -22.8376   21.1893 C   0  0  2  0  0  0
  -30.7126  -23.9266   21.8170 C   0  0  0  0  0  0
  -27.2030  -24.4947   21.6674 C   0  0  0  0  0  0
  -27.8265  -22.4066   18.0136 C   0  0  0  0  0  0
  -27.9371  -24.7074   20.3307 C   0  0  1  0  0  0
  -28.2913  -22.1854   19.3966 N   0  0  0  0  0  0
  -29.7584  -15.9874   20.5311 N   0  0  0  0  0  0
  -26.8810  -20.4931   19.9511 O   0  0  0  0  0  0
  -30.7709  -21.7905   20.7834 O   0  0  0  0  0  0
  -31.4805  -12.6592   19.1655 H   0  0  0  0  0  0
  -30.4113  -11.5503   19.9812 H   0  0  0  0  0  0
  -29.8137  -11.7325   17.5417 H   0  0  0  0  0  0
  -29.6336  -13.4631   17.7011 H   0  0  0  0  0  0
  -27.9022  -11.2877   18.9141 H   0  0  0  0  0  0
  -27.3853  -12.5215   17.7977 H   0  0  0  0  0  0
  -27.6191  -14.2581   19.4417 H   0  0  0  0  0  0
  -28.7496  -12.2238   21.4208 H   0  0  0  0  0  0
  -28.4154  -13.9026   21.7738 H   0  0  0  0  0  0
  -25.2757   -9.5682   22.4751 H   0  0  0  0  0  0
  -24.0002   -7.4625   22.7454 H   0  0  0  0  0  0
  -21.0828   -8.8770   19.8962 H   0  0  0  0  0  0
  -22.3685  -10.9660   19.6152 H   0  0  0  0  0  0
  -21.2006   -7.6137   23.9718 H   0  0  0  0  0  0
  -21.1485   -6.0512   25.9090 H   0  0  0  0  0  0
  -22.0600   -2.7587   23.2868 H   0  0  0  0  0  0
  -22.4069  -11.9864   22.4852 H   0  0  0  0  0  0
  -21.1081  -13.1217   22.2640 H   0  0  0  0  0  0
  -24.6357  -15.8352   20.5204 H   0  0  0  0  0  0
  -26.2436  -15.6380   20.0408 H   0  0  0  0  0  0
  -26.7242  -32.5321   23.1047 H   0  0  0  0  0  0
  -25.0067  -33.9664   25.0357 H   0  0  0  0  0  0
  -22.7417  -31.2986   21.3953 H   0  0  0  0  0  0
  -23.3762  -35.9586   23.3289 H   0  0  0  0  0  0
  -24.3577  -36.8910   22.2061 H   0  0  0  0  0  0
  -23.7232  -37.6457   23.6679 H   0  0  0  0  0  0
  -26.1516  -31.4979   20.6264 H   0  0  0  0  0  0
  -26.8669  -30.7786   22.0344 H   0  0  0  0  0  0
  -28.1259  -28.8330   21.2305 H   0  0  0  0  0  0
  -25.9010  -25.9292   18.9113 H   0  0  0  0  0  0
  -23.9784  -27.3495   18.9458 H   0  0  0  0  0  0
  -23.7925  -30.5925   19.4052 H   0  0  0  0  0  0
  -22.7786  -29.2526   19.8482 H   0  0  0  0  0  0
  -25.1308  -36.1891   25.0815 H   0  0  0  0  0  0
  -21.0002  -28.3276   24.1367 H   0  0  0  0  0  0
  -20.5675  -26.2298   23.3612 H   0  0  0  0  0  0
  -21.6641  -26.7416   22.1194 H   0  0  0  0  0  0
  -19.6910  -25.6287   21.1246 H   0  0  0  0  0  0
  -19.6705  -27.3181   20.6729 H   0  0  0  0  0  0
  -17.4204  -26.6675   21.4029 H   0  0  0  0  0  0
  -18.0338  -26.0080   22.9028 H   0  0  0  0  0  0
  -19.7933  -30.7282   24.2255 H   0  0  0  0  0  0
  -17.5008  -31.6268   24.5147 H   0  0  0  0  0  0
  -15.5351  -30.2965   23.7680 H   0  0  0  0  0  0
  -15.8681  -28.0812   22.7081 H   0  0  0  0  0  0
  -24.5863  -30.7131   25.7755 H   0  0  0  0  0  0
  -24.8892  -32.2933   26.4858 H   0  0  0  0  0  0
  -25.7975  -30.8927   27.0236 H   0  0  0  0  0  0
  -26.2984  -29.6730   24.1285 H   0  0  0  0  0  0
  -27.3936  -29.7269   25.4897 H   0  0  0  0  0  0
  -27.8911  -30.4229   23.9662 H   0  0  0  0  0  0
  -27.2638  -33.3655   26.2076 H   0  0  0  0  0  0
  -28.3860  -32.6910   25.0359 H   0  0  0  0  0  0
  -28.0704  -31.8494   26.5464 H   0  0  0  0  0  0
  -28.2580  -38.0109   24.7521 H   0  0  0  0  0  0
  -28.1092  -36.2638   24.6259 H   0  0  0  0  0  0
  -27.2291  -37.1405   25.8860 H   0  0  0  0  0  0
  -20.9444  -29.8763   21.6828 H   0  0  0  0  0  0
  -26.0157  -38.2828   24.1429 H   0  0  0  0  0  0
  -32.0868  -17.4076   21.0858 H   0  0  0  0  0  0
  -32.4378  -19.8181   21.2083 H   0  0  0  0  0  0
  -27.9882  -18.1300   19.9936 H   0  0  0  0  0  0
  -29.0466  -22.0583   14.7327 H   0  0  0  0  0  0
  -27.6743  -23.1402   15.3081 H   0  0  0  0  0  0
  -29.2873  -24.4394   16.7320 H   0  0  0  0  0  0
  -30.6607  -23.3702   16.1421 H   0  0  0  0  0  0
  -29.5027  -21.3445   17.0624 H   0  0  0  0  0  0
  -29.6463  -23.7750   19.2627 H   0  0  0  0  0  0
  -29.1911  -22.4432   21.9797 H   0  0  0  0  0  0
  -31.4234  -24.3246   21.0933 H   0  0  0  0  0  0
  -31.2826  -23.5269   22.6562 H   0  0  0  0  0  0
  -30.1242  -24.7624   22.1946 H   0  0  0  0  0  0
  -26.8470  -23.4679   21.7625 H   0  0  0  0  0  0
  -26.3274  -25.1385   21.7523 H   0  0  0  0  0  0
  -27.8444  -24.7064   22.5214 H   0  0  0  0  0  0
  -27.0229  -21.7118   17.7568 H   0  0  0  0  0  0
  -27.3752  -23.3877   17.8896 H   0  0  0  0  0  0
  -27.1659  -24.5472   19.5950 H   0  0  0  0  0  0
  -28.7835  -15.7345   20.5802 H   0  0  0  0  0  0
  1 25  1  0  0  0
  1 30  2  0  0  0
  1 88  1  0  0  0
  2  3  1  0  0  0
  2 25  1  0  0  0
  2 91  1  0  0  0
  2 92  1  0  0  0
  3  4  1  0  0  0
  3 93  1  0  0  0
  3 94  1  0  0  0
  4  5  1  0  0  0
  4 95  1  0  0  0
  4 96  1  0  0  0
  5  6  1  0  0  0
  5 26  1  0  0  0
  5 97  1  0  0  0
  6 25  1  0  0  0
  6 98  1  0  0  0
  6 99  1  0  0  0
  7  8  2  0  0  0
  7 26  1  0  0  0
  7 29  1  0  0  0
  8  9  1  0  0  0
  8 22  1  0  0  0
  9 10  1  0  0  0
  9 27  2  0  0  0
 10 11  2  0  0  0
 10 15  1  0  0  0
 11 12  1  0  0  0
 11100  1  0  0  0
 12 13  2  0  0  0
 12101  1  0  0  0
 13 14  1  0  0  0
 13 31  1  0  0  0
 14 15  2  0  0  0
 14102  1  0  0  0
 15103  1  0  0  0
 16 17  2  0  0  0
 16 21  1  0  0  0
 16 31  1  0  0  0
 17 18  1  0  0  0
 17104  1  0  0  0
 18 19  2  0  0  0
 18105  1  0  0  0
 19 20  1  0  0  0
 19 24  1  0  0  0
 20 21  2  0  0  0
 20106  1  0  0  0
 21 23  1  0  0  0
 22 28  1  0  0  0
 22 32  2  0  0  0
 26 27  1  0  0  0
 28107  1  0  0  0
 28108  1  0  0  0
 29109  1  0  0  0
 29110  1  0  0  0
 33 34  1  0  0  0
 33 66  1  0  0  0
 33 70  2  0  0  0
 34 36  1  0  0  0
 34 59  1  0  0  0
 34111  1  0  0  0
 35 44  2  0  0  0
 35 45  1  0  0  0
 35 68  1  0  0  0
 36 56  1  0  0  0
 36112  1  0  0  0
 37 39  1  0  0  0
 37 47  1  0  0  0
 37 66  1  0  0  0
 37113  1  0  0  0
 38 43  2  0  0  0
 38 46  1  0  0  0
 38 47  1  0  0  0
 39 64  1  0  0  0
 39 67  2  0  0  0
 40 52  1  0  0  0
 40 53  2  0  0  0
 40 58  1  0  0  0
 41114  1  0  0  0
 41115  1  0  0  0
 41116  1  0  0  0
 41 48  1  0  0  0
 42 43  1  0  0  0
 42 66  1  0  0  0
 42117  1  0  0  0
 42118  1  0  0  0
 43 44  1  0  0  0
 44119  1  0  0  0
 45 46  2  0  0  0
 45120  1  0  0  0
 46121  1  0  0  0
 47122  1  0  0  0
 47123  1  0  0  0
 48 56  1  0  0  0
 48 65  1  0  0  0
 48124  1  0  0  0
 49 50  1  0  0  0
 49 53  1  0  0  0
 49 64  1  0  0  0
 49125  1  0  0  0
 50 51  1  0  0  0
 50126  1  0  0  0
 50127  1  0  0  0
 51 52  1  0  0  0
 51128  1  0  0  0
 51129  1  0  0  0
 52130  1  0  0  0
 52131  1  0  0  0
 53 54  1  0  0  0
 54 55  2  0  0  0
 54132  1  0  0  0
 55 57  1  0  0  0
 55133  1  0  0  0
 56 69  2  0  0  0
 57 58  2  0  0  0
 57134  1  0  0  0
 58135  1  0  0  0
 59 60  1  0  0  0
 59 61  1  0  0  0
 59 62  1  0  0  0
 60136  1  0  0  0
 60137  1  0  0  0
 60138  1  0  0  0
 61139  1  0  0  0
 61140  1  0  0  0
 61141  1  0  0  0
 62142  1  0  0  0
 62143  1  0  0  0
 62144  1  0  0  0
 63 65  1  0  0  0
 63145  1  0  0  0
 63146  1  0  0  0
 63147  1  0  0  0
 64148  1  0  0  0
 65149  1  0  0  0
 68 86  1  0  0  0
 71 72  2  0  0  0
 71 75  1  0  0  0
 71150  1  0  0  0
 72 76  1  0  0  0
 72151  1  0  0  0
 73 74  1  0  0  0
 73 75  2  0  0  0
 73152  1  0  0  0
 74 76  2  0  0  0
 74 77  1  0  0  0
 75 88  1  0  0  0
 76 90  1  0  0  0
 77 87  1  0  0  0
 77 89  2  0  0  0
 78 79  1  0  0  0
 78 80  1  0  0  0
 78153  1  0  0  0
 78154  1  0  0  0
 79 80  1  0  0  0
 79155  1  0  0  0
 79156  1  0  0  0
 80 85  1  0  0  0
 80157  1  0  0  0
 81 82  1  0  0  0
 81 86  1  0  0  0
 81 87  1  0  0  0
 81158  1  0  0  0
 82 83  1  0  0  0
 82 90  1  0  0  0
 82159  1  0  0  0
 83160  1  0  0  0
 83161  1  0  0  0
 83162  1  0  0  0
 84163  1  0  0  0
 84164  1  0  0  0
 84165  1  0  0  0
 84 86  1  0  0  0
 85 87  1  0  0  0
 85166  1  0  0  0
 85167  1  0  0  0
 86168  1  0  0  0
 88169  1  0  0  0
M  ISO  4   1 100  68 101  86 101  88 100
M  END
> <chiral flag>
0

> <version>
0

> <s_m_source_file>
/data/baiqing/PycharmProjects/Reinvent-master-3.2/result/LINK_invent/BTK/process_docking_weight1_custom_sum_contain_oxygen_bond_distance_aromatic_linkinvent_7_9_3/rearranged_h_0157.sdf

> <i_m_source_file_index>
85

> <r_mmod_Potential_Energy-OPLS-2005>
469.987945556641

> <r_mmod_Stretch_Energy-OPLS-2005>
180.630355834961

> <r_mmod_Bend_Energy-OPLS-2005>
219.825607299805

> <r_mmod_Torsional_Energy-OPLS-2005>
389.632537841797

> <r_mmod_Improper_Torsional_Energy-OPLS-2005>
9.47776889801025

> <r_mmod_Van_der_Waal_Energy-OPLS-2005>
142.249038696289

> <r_mmod_Electrostatic_Energy-OPLS-2005>
-401.795532226562

> <r_mmod_Solvation_Energy-OPLS-2005>
-210.936157226562

> <b_mmod_Minimization_Converged-OPLS-2005>
0

> <r_mmod_RMS_Derivative-OPLS-2005>
2.24045276641846

$$$$
85
                    3D
 Structure written by MMmdl.
169178  0  0  1  0            999 V2000
  -30.6019  -14.7559   20.4615 C   0  0  0  0  0  0
  -30.4380  -12.4593   19.4787 C   0  0  0  0  0  0
  -29.5114  -12.4923   18.2413 C   0  0  0  0  0  0
  -28.0379  -12.3230   18.6576 C   0  0  0  0  0  0
  -27.6449  -13.2308   19.8533 C   0  0  2  0  0  0
  -28.6887  -13.1641   20.9901 C   0  0  0  0  0  0
  -25.2537  -13.8215   20.5678 C   0  0  0  0  0  0
  -24.1822  -13.0463   20.9207 C   0  0  0  0  0  0
  -24.6407  -11.6935   20.8758 C   0  0  0  0  0  0
  -23.9083  -10.4306   21.0417 C   0  0  0  0  0  0
  -24.3635   -9.4209   21.9181 C   0  0  0  0  0  0
  -23.6308   -8.2242   22.0752 C   0  0  0  0  0  0
  -22.4282   -8.0288   21.3550 C   0  0  0  0  0  0
  -21.9918   -9.0270   20.4663 C   0  0  0  0  0  0
  -22.7249  -10.2153   20.3077 C   0  0  0  0  0  0
  -21.6855   -6.0743   22.5277 C   0  0  0  0  0  0
  -21.4025   -6.5650   23.8212 C   0  0  0  0  0  0
  -21.3661   -5.6803   24.9172 C   0  0  0  0  0  0
  -21.6038   -4.3065   24.7224 C   0  0  0  0  0  0
  -21.8815   -3.8158   23.4344 C   0  0  0  0  0  0
  -21.9192   -4.6971   22.3402 C   0  0  0  0  0  0
  -22.7847  -13.5240   21.1867 C   0  0  0  0  0  0
  -22.1659   -4.2158   21.0980 F   0  0  0  0  0  0
  -21.5622   -3.4546   25.7734 F   0  0  0  0  0  0
  -29.9898  -13.5217   20.4110 N   0  0  0  0  0  0
  -26.2961  -12.9416   20.3297 N   0  0  0  0  0  0
  -25.9335  -11.6557   20.5773 N   0  0  0  0  0  0
  -22.0512  -12.8231   22.0440 N   0  0  0  0  0  0
  -25.4237  -15.1942   20.4069 N   0  0  0  0  0  0
  -31.7799  -14.8720   20.1166 O   0  0  0  0  0  0
  -21.6647   -6.8884   21.4238 O   0  0  0  0  0  0
  -22.3512  -14.5531   20.6704 O   0  0  0  0  0  0
  -24.6370  -31.8534   23.1974 C   0  0  0  0  0  0
  -25.9177  -32.4757   23.8329 C   0  0  1  0  0  0
  -27.2124  -27.2140   20.1261 C   0  0  0  0  0  0
  -25.5946  -33.8564   24.2237 N   0  0  0  0  0  0
  -23.4368  -30.4783   21.5431 C   0  0  2  0  0  0
  -24.8844  -28.9296   20.1081 C   0  0  0  0  0  0
  -22.7545  -29.4586   22.4882 C   0  0  0  0  0  0
  -18.0306  -28.1395   22.8474 C   0  0  0  0  0  0
  -24.1511  -36.7306   23.2618 C   0  0  0  0  0  0
  -25.9916  -30.7495   21.3902 C   0  0  0  0  0  0
  -26.0623  -29.3730   20.7226 C   0  0  0  0  0  0
  -27.2295  -28.5306   20.7183 C   0  0  0  0  0  0
  -26.0073  -26.8682   19.4647 C   0  0  0  0  0  0
  -24.8656  -27.6874   19.4660 C   0  0  0  0  0  0
  -23.6592  -29.8218   20.1575 C   0  0  0  0  0  0
  -25.4131  -36.3079   24.0307 C   0  0  1  0  0  0
  -20.5911  -28.3719   23.1255 C   0  0  2  0  0  0
  -20.6792  -26.9427   22.5415 C   0  0  0  0  0  0
  -19.5776  -26.6386   21.5214 C   0  0  0  0  0  0
  -18.1954  -26.7936   22.1619 C   0  0  0  0  0  0
  -19.1558  -28.8874   23.2861 C   0  0  0  0  0  0
  -18.9467  -30.1466   23.8895 C   0  0  0  0  0  0
  -17.6462  -30.6587   24.0564 C   0  0  0  0  0  0
  -25.9078  -34.9448   23.5081 C   0  0  0  0  0  0
  -16.5357  -29.9082   23.6324 C   0  0  0  0  0  0
  -16.7288  -28.6501   23.0344 C   0  0  0  0  0  0
  -26.4499  -31.6599   25.0744 C   0  0  0  0  0  0
  -25.3688  -31.3833   26.1448 C   0  0  0  0  0  0
  -27.0292  -30.2966   24.6313 C   0  0  0  0  0  0
  -27.6078  -32.4329   25.7487 C   0  0  0  0  0  0
  -27.5624  -37.1776   24.8422 C   0  0  0  0  0  0
  -21.4240  -29.3056   22.3633 N   0  0  0  0  0  0
  -26.4299  -37.3788   23.9420 N   0  0  0  0  0  0
  -24.7080  -31.0453   22.0986 N   0  0  0  0  0  0
  -23.4228  -28.8104   23.2981 O   0  0  0  0  0  0
  -28.2621  -26.2442   20.2145 O   0  0  0  0  0  0
  -26.5661  -34.8922   22.4659 O   0  0  0  0  0  0
  -23.5503  -32.1375   23.7235 O   0  0  0  0  0  0
  -26.3666  -22.1692   17.8409 C   0  0  0  0  0  0
  -27.2720  -22.1497   18.6616 C   0  0  0  0  0  0
  -30.4384  -22.1595   21.4607 C   0  0  0  0  0  0
  -29.7648  -23.3809   21.1648 C   0  0  0  0  0  0
  -28.3715  -22.1529   19.6228 C   0  0  0  0  0  0
  -30.1320  -20.9121   20.8442 C   0  0  0  0  0  0
  -29.0662  -20.8879   19.9057 C   0  0  0  0  0  0
  -28.7178  -23.4414   20.2185 C   0  0  0  0  0  0
  -31.0986  -19.7032   21.0681 C   0  0  0  0  0  0
  -30.6090  -18.2620   21.4902 C   0  0  0  0  0  0
  -28.7978  -19.5348   19.1187 C   0  0  2  0  0  0
  -30.0376  -17.3658   20.3505 C   0  0  2  0  0  0
  -28.7246  -18.1312   19.9105 C   0  0  2  0  0  0
  -28.6929  -19.0408   16.5824 C   0  0  0  0  0  0
  -30.4122  -20.6821   17.3777 C   0  0  0  0  0  0
  -27.9000  -24.8002   19.8922 C   0  0  0  0  0  0
  -29.5970  -19.4320   17.7686 C   0  0  0  0  0  0
  -29.8164  -15.8775   20.6868 N   0  0  0  0  0  0
  -27.9440  -17.1890   19.1881 O   0  0  0  0  0  0
  -31.4767  -12.5918   19.1715 H   0  0  0  0  0  0
  -30.3940  -11.4843   19.9663 H   0  0  0  0  0  0
  -29.7911  -11.7009   17.5440 H   0  0  0  0  0  0
  -29.6371  -13.4325   17.7034 H   0  0  0  0  0  0
  -27.8956  -11.2766   18.9297 H   0  0  0  0  0  0
  -27.3777  -12.5064   17.8087 H   0  0  0  0  0  0
  -27.6405  -14.2512   19.4692 H   0  0  0  0  0  0
  -28.7245  -12.1657   21.4285 H   0  0  0  0  0  0
  -28.4217  -13.8441   21.8004 H   0  0  0  0  0  0
  -25.2785   -9.5669   22.4747 H   0  0  0  0  0  0
  -24.0020   -7.4628   22.7462 H   0  0  0  0  0  0
  -21.0845   -8.8799   19.8979 H   0  0  0  0  0  0
  -22.3698  -10.9702   19.6204 H   0  0  0  0  0  0
  -21.2031   -7.6161   23.9717 H   0  0  0  0  0  0
  -21.1485   -6.0536   25.9076 H   0  0  0  0  0  0
  -22.0592   -2.7620   23.2839 H   0  0  0  0  0  0
  -22.4169  -11.9922   22.4849 H   0  0  0  0  0  0
  -21.1136  -13.1244   22.2676 H   0  0  0  0  0  0
  -24.6494  -15.8408   20.5064 H   0  0  0  0  0  0
  -26.2628  -15.6428   20.0505 H   0  0  0  0  0  0
  -26.7240  -32.5379   23.1061 H   0  0  0  0  0  0
  -25.0051  -33.9703   25.0350 H   0  0  0  0  0  0
  -22.7341  -31.3018   21.3983 H   0  0  0  0  0  0
  -23.3790  -35.9620   23.3215 H   0  0  0  0  0  0
  -24.3625  -36.9002   22.2049 H   0  0  0  0  0  0
  -23.7240  -37.6474   23.6692 H   0  0  0  0  0  0
  -26.1487  -31.5125   20.6270 H   0  0  0  0  0  0
  -26.8624  -30.7878   22.0332 H   0  0  0  0  0  0
  -28.1281  -28.8659   21.2166 H   0  0  0  0  0  0
  -25.8878  -25.9269   18.9510 H   0  0  0  0  0  0
  -23.9661  -27.3455   18.9723 H   0  0  0  0  0  0
  -23.7935  -30.6049   19.4102 H   0  0  0  0  0  0
  -22.7759  -29.2628   19.8431 H   0  0  0  0  0  0
  -25.1310  -36.1909   25.0794 H   0  0  0  0  0  0
  -21.0008  -28.3312   24.1375 H   0  0  0  0  0  0
  -20.5687  -26.2336   23.3632 H   0  0  0  0  0  0
  -21.6662  -26.7440   22.1218 H   0  0  0  0  0  0
  -19.6946  -25.6292   21.1261 H   0  0  0  0  0  0
  -19.6731  -27.3187   20.6736 H   0  0  0  0  0  0
  -17.4229  -26.6675   21.4015 H   0  0  0  0  0  0
  -18.0362  -26.0081   22.9023 H   0  0  0  0  0  0
  -19.7937  -30.7278   24.2285 H   0  0  0  0  0  0
  -17.5007  -31.6266   24.5167 H   0  0  0  0  0  0
  -15.5355  -30.2977   23.7642 H   0  0  0  0  0  0
  -15.8691  -28.0810   22.7061 H   0  0  0  0  0  0
  -24.5865  -30.7171   25.7786 H   0  0  0  0  0  0
  -24.8869  -32.3036   26.4765 H   0  0  0  0  0  0
  -25.7950  -30.9082   27.0291 H   0  0  0  0  0  0
  -26.2875  -29.6753   24.1273 H   0  0  0  0  0  0
  -27.3801  -29.7218   25.4892 H   0  0  0  0  0  0
  -27.8858  -30.4144   23.9676 H   0  0  0  0  0  0
  -27.2707  -33.3624   26.2088 H   0  0  0  0  0  0
  -28.3857  -32.6901   25.0287 H   0  0  0  0  0  0
  -28.0789  -31.8444   26.5366 H   0  0  0  0  0  0
  -28.2545  -38.0169   24.7615 H   0  0  0  0  0  0
  -28.1225  -36.2716   24.6052 H   0  0  0  0  0  0
  -27.2385  -37.1187   25.8827 H   0  0  0  0  0  0
  -20.9438  -29.8783   21.6829 H   0  0  0  0  0  0
  -26.0178  -38.2845   24.1500 H   0  0  0  0  0  0
  -25.5813  -22.1929   17.1162 H   0  0  0  0  0  0
  -31.2609  -22.2027   22.1610 H   0  0  0  0  0  0
  -30.0704  -24.2870   21.6700 H   0  0  0  0  0  0
  -31.8072  -20.0129   21.8374 H   0  0  0  0  0  0
  -31.7068  -19.6068   20.1684 H   0  0  0  0  0  0
  -29.9121  -18.3321   22.3261 H   0  0  0  0  0  0
  -31.4784  -17.7378   21.8896 H   0  0  0  0  0  0
  -27.7550  -19.6436   18.8283 H   0  0  0  0  0  0
  -30.7571  -17.3628   19.5329 H   0  0  0  0  0  0
  -28.1317  -18.3159   20.8082 H   0  0  0  0  0  0
  -28.1760  -18.0974   16.7498 H   0  0  0  0  0  0
  -29.2728  -18.9233   15.6659 H   0  0  0  0  0  0
  -27.9342  -19.8016   16.3946 H   0  0  0  0  0  0
  -31.1454  -20.9434   18.1404 H   0  0  0  0  0  0
  -29.7720  -21.5484   17.2096 H   0  0  0  0  0  0
  -30.9699  -20.5108   16.4561 H   0  0  0  0  0  0
  -26.9329  -24.6029   20.3566 H   0  0  0  0  0  0
  -27.7475  -24.7921   18.8137 H   0  0  0  0  0  0
  -30.3368  -18.6405   17.8689 H   0  0  0  0  0  0
  -28.8559  -15.6589   20.9082 H   0  0  0  0  0  0
  -28.4179  -16.9883   18.3892 H   0  0  0  0  0  0
  1 25  1  0  0  0
  1 30  2  0  0  0
  1 88  1  0  0  0
  2  3  1  0  0  0
  2 25  1  0  0  0
  2 90  1  0  0  0
  2 91  1  0  0  0
  3  4  1  0  0  0
  3 92  1  0  0  0
  3 93  1  0  0  0
  4  5  1  0  0  0
  4 94  1  0  0  0
  4 95  1  0  0  0
  5  6  1  0  0  0
  5 26  1  0  0  0
  5 96  1  0  0  0
  6 25  1  0  0  0
  6 97  1  0  0  0
  6 98  1  0  0  0
  7  8  2  0  0  0
  7 26  1  0  0  0
  7 29  1  0  0  0
  8  9  1  0  0  0
  8 22  1  0  0  0
  9 10  1  0  0  0
  9 27  2  0  0  0
 10 11  2  0  0  0
 10 15  1  0  0  0
 11 12  1  0  0  0
 11 99  1  0  0  0
 12 13  2  0  0  0
 12100  1  0  0  0
 13 14  1  0  0  0
 13 31  1  0  0  0
 14 15  2  0  0  0
 14101  1  0  0  0
 15102  1  0  0  0
 16 17  2  0  0  0
 16 21  1  0  0  0
 16 31  1  0  0  0
 17 18  1  0  0  0
 17103  1  0  0  0
 18 19  2  0  0  0
 18104  1  0  0  0
 19 20  1  0  0  0
 19 24  1  0  0  0
 20 21  2  0  0  0
 20105  1  0  0  0
 21 23  1  0  0  0
 22 28  1  0  0  0
 22 32  2  0  0  0
 26 27  1  0  0  0
 28106  1  0  0  0
 28107  1  0  0  0
 29108  1  0  0  0
 29109  1  0  0  0
 33 34  1  0  0  0
 33 66  1  0  0  0
 33 70  2  0  0  0
 34 36  1  0  0  0
 34 59  1  0  0  0
 34110  1  0  0  0
 35 44  2  0  0  0
 35 45  1  0  0  0
 35 68  1  0  0  0
 36 56  1  0  0  0
 36111  1  0  0  0
 37 39  1  0  0  0
 37 47  1  0  0  0
 37 66  1  0  0  0
 37112  1  0  0  0
 38 43  2  0  0  0
 38 46  1  0  0  0
 38 47  1  0  0  0
 39 64  1  0  0  0
 39 67  2  0  0  0
 40 52  1  0  0  0
 40 53  2  0  0  0
 40 58  1  0  0  0
 41113  1  0  0  0
 41114  1  0  0  0
 41115  1  0  0  0
 41 48  1  0  0  0
 42 43  1  0  0  0
 42 66  1  0  0  0
 42116  1  0  0  0
 42117  1  0  0  0
 43 44  1  0  0  0
 44118  1  0  0  0
 45 46  2  0  0  0
 45119  1  0  0  0
 46120  1  0  0  0
 47121  1  0  0  0
 47122  1  0  0  0
 48 56  1  0  0  0
 48 65  1  0  0  0
 48123  1  0  0  0
 49 50  1  0  0  0
 49 53  1  0  0  0
 49 64  1  0  0  0
 49124  1  0  0  0
 50 51  1  0  0  0
 50125  1  0  0  0
 50126  1  0  0  0
 51 52  1  0  0  0
 51127  1  0  0  0
 51128  1  0  0  0
 52129  1  0  0  0
 52130  1  0  0  0
 53 54  1  0  0  0
 54 55  2  0  0  0
 54131  1  0  0  0
 55 57  1  0  0  0
 55132  1  0  0  0
 56 69  2  0  0  0
 57 58  2  0  0  0
 57133  1  0  0  0
 58134  1  0  0  0
 59 60  1  0  0  0
 59 61  1  0  0  0
 59 62  1  0  0  0
 60135  1  0  0  0
 60136  1  0  0  0
 60137  1  0  0  0
 61138  1  0  0  0
 61139  1  0  0  0
 61140  1  0  0  0
 62141  1  0  0  0
 62142  1  0  0  0
 62143  1  0  0  0
 63 65  1  0  0  0
 63144  1  0  0  0
 63145  1  0  0  0
 63146  1  0  0  0
 64147  1  0  0  0
 65148  1  0  0  0
 68 86  1  0  0  0
 71 72  3  0  0  0
 71149  1  0  0  0
 72 75  1  0  0  0
 73 74  2  0  0  0
 73 76  1  0  0  0
 73150  1  0  0  0
 74 78  1  0  0  0
 74151  1  0  0  0
 75 77  1  0  0  0
 75 78  2  0  0  0
 76 77  2  0  0  0
 76 79  1  0  0  0
 77 81  1  0  0  0
 78 86  1  0  0  0
 79 80  1  0  0  0
 79152  1  0  0  0
 79153  1  0  0  0
 80 82  1  0  0  0
 80154  1  0  0  0
 80155  1  0  0  0
 81 83  1  0  0  0
 81 87  1  0  0  0
 81156  1  0  0  0
 82 83  1  0  0  0
 82 88  1  0  0  0
 82157  1  0  0  0
 83 89  1  0  0  0
 83158  1  0  0  0
 84159  1  0  0  0
 84160  1  0  0  0
 84161  1  0  0  0
 84 87  1  0  0  0
 85 87  1  0  0  0
 85162  1  0  0  0
 85163  1  0  0  0
 85164  1  0  0  0
 86165  1  0  0  0
 86166  1  0  0  0
 87167  1  0  0  0
 88168  1  0  0  0
 89169  1  0  0  0
M  ISO  4   1 100  68 101  86 101  88 100
M  END
> <chiral flag>
0

> <version>
0

> <s_m_source_file>
/data/baiqing/PycharmProjects/Reinvent-master-3.2/result/LINK_invent/BTK/process_docking_weight1_custom_sum_contain_oxygen_bond_distance_aromatic_linkinvent_7_9_3/rearranged_h_0157.sdf

> <i_m_source_file_index>
86

> <r_mmod_Potential_Energy-OPLS-2005>
243.663970947266

> <r_mmod_Stretch_Energy-OPLS-2005>
151.344024658203

> <r_mmod_Bend_Energy-OPLS-2005>
212.141082763672

> <r_mmod_Torsional_Energy-OPLS-2005>
251.649978637695

> <r_mmod_Improper_Torsional_Energy-OPLS-2005>
7.23884153366089

> <r_mmod_Van_der_Waal_Energy-OPLS-2005>
151.736526489258

> <r_mmod_Electrostatic_Energy-OPLS-2005>
-436.367370605469

> <r_mmod_Solvation_Energy-OPLS-2005>
-202.087097167969

> <b_mmod_Minimization_Converged-OPLS-2005>
0

> <r_mmod_RMS_Derivative-OPLS-2005>
1.72953593730927

$$$$
86
                    3D
 Structure written by MMmdl.
176185  0  0  1  0            999 V2000
  -30.7152  -14.4058   20.5946 C   0  0  0  0  0  0
  -30.4238  -12.2854   19.3896 C   0  0  0  0  0  0
  -29.4831  -12.5205   18.1901 C   0  0  0  0  0  0
  -28.0016  -12.3912   18.6062 C   0  0  0  0  0  0
  -27.6648  -13.1969   19.8894 C   0  0  2  0  0  0
  -28.7129  -12.8883   20.9795 C   0  0  0  0  0  0
  -25.2606  -13.8155   20.5742 C   0  0  0  0  0  0
  -24.1845  -13.0450   20.9180 C   0  0  0  0  0  0
  -24.6368  -11.6896   20.8728 C   0  0  0  0  0  0
  -23.9043  -10.4287   21.0397 C   0  0  0  0  0  0
  -24.3592   -9.4203   21.9171 C   0  0  0  0  0  0
  -23.6267   -8.2245   22.0748 C   0  0  0  0  0  0
  -22.4249   -8.0278   21.3561 C   0  0  0  0  0  0
  -21.9898   -9.0243   20.4657 C   0  0  0  0  0  0
  -22.7225  -10.2113   20.3051 C   0  0  0  0  0  0
  -21.6846   -6.0709   22.5274 C   0  0  0  0  0  0
  -21.4025   -6.5624   23.8205 C   0  0  0  0  0  0
  -21.3656   -5.6781   24.9169 C   0  0  0  0  0  0
  -21.6029   -4.3045   24.7218 C   0  0  0  0  0  0
  -21.8828   -3.8132   23.4348 C   0  0  0  0  0  0
  -21.9196   -4.6938   22.3399 C   0  0  0  0  0  0
  -22.7876  -13.5255   21.1822 C   0  0  0  0  0  0
  -22.1664   -4.2123   21.0970 F   0  0  0  0  0  0
  -21.5617   -3.4525   25.7726 F   0  0  0  0  0  0
  -30.0340  -13.2383   20.4384 N   0  0  0  0  0  0
  -26.3020  -12.9307   20.3449 N   0  0  0  0  0  0
  -25.9285  -11.6474   20.5784 N   0  0  0  0  0  0
  -22.0514  -12.8250   22.0375 N   0  0  0  0  0  0
  -25.4375  -15.1885   20.4169 N   0  0  0  0  0  0
  -31.8456  -14.5835   20.1391 O   0  0  0  0  0  0
  -21.6645   -6.8853   21.4243 O   0  0  0  0  0  0
  -22.3587  -14.5571   20.6658 O   0  0  0  0  0  0
  -24.6270  -31.8833   23.2224 C   0  0  0  0  0  0
  -25.9143  -32.4915   23.8521 C   0  0  1  0  0  0
  -27.2365  -27.4684   20.0579 C   0  0  0  0  0  0
  -25.5989  -33.8698   24.2446 N   0  0  0  0  0  0
  -23.4272  -30.5123   21.5749 C   0  0  2  0  0  0
  -24.8480  -28.9869   20.1189 C   0  0  0  0  0  0
  -22.7705  -29.4907   22.5274 C   0  0  0  0  0  0
  -17.9925  -28.1186   22.8710 C   0  0  0  0  0  0
  -24.1482  -36.7330   23.2628 C   0  0  0  0  0  0
  -25.9462  -30.8452   21.3802 C   0  0  0  0  0  0
  -26.0083  -29.4795   20.7279 C   0  0  0  0  0  0
  -27.1949  -28.7129   20.7226 C   0  0  0  0  0  0
  -26.0672  -27.0177   19.4090 C   0  0  0  0  0  0
  -24.8697  -27.7506   19.4607 C   0  0  0  0  0  0
  -23.6125  -29.8501   20.1842 C   0  0  0  0  0  0
  -25.4095  -36.3160   24.0362 C   0  0  1  0  0  0
  -20.4780  -28.4576   22.7851 C   0  0  2  0  0  0
  -20.6913  -26.9612   22.5320 C   0  0  0  0  0  0
  -19.5549  -26.4567   21.6164 C   0  0  0  0  0  0
  -18.1546  -26.7503   22.2035 C   0  0  0  0  0  0
  -19.1132  -28.8948   23.2554 C   0  0  0  0  0  0
  -18.9345  -30.1447   23.8823 C   0  0  0  0  0  0
  -17.6353  -30.6484   24.0821 C   0  0  0  0  0  0
  -25.9042  -34.9528   23.5180 C   0  0  0  0  0  0
  -16.5196  -29.8937   23.6755 C   0  0  0  0  0  0
  -16.6981  -28.6282   23.0889 C   0  0  0  0  0  0
  -26.4497  -31.6629   25.0818 C   0  0  0  0  0  0
  -25.3730  -31.3714   26.1527 C   0  0  0  0  0  0
  -27.0331  -30.3080   24.6170 C   0  0  0  0  0  0
  -27.6078  -32.4311   25.7581 C   0  0  0  0  0  0
  -27.5588  -37.1832   24.8477 C   0  0  0  0  0  0
  -21.4503  -29.4503   22.4077 N   0  0  0  0  0  0
  -26.4297  -37.3828   23.9419 N   0  0  0  0  0  0
  -24.6876  -31.0943   22.1165 N   0  0  0  0  0  0
  -23.4235  -28.7658   23.2803 O   0  0  0  0  0  0
  -28.4259  -26.7691   20.0592 O   0  0  0  0  0  0
  -26.5571  -34.8943   22.4719 O   0  0  0  0  0  0
  -23.5442  -32.1588   23.7593 O   0  0  0  0  0  0
  -26.7580  -21.7596   20.0247 C   0  0  0  0  0  0
  -26.1160  -20.7128   20.6983 C   0  0  0  0  0  0
  -24.8347  -20.8916   21.2512 C   0  0  0  0  0  0
  -24.1118  -22.0886   20.9942 C   0  0  0  0  0  0
  -24.7453  -23.1207   20.2460 C   0  0  0  0  0  0
  -26.1002  -22.9872   19.8464 C   0  0  0  0  0  0
  -24.3546  -19.7300   22.1149 C   0  0  0  0  0  0
  -26.8090  -19.3779   20.8914 C   0  0  0  0  0  0
  -25.4997  -19.2051   23.0232 C   0  0  0  0  0  0
  -22.6798  -22.2926   21.4876 C   0  0  0  0  0  0
  -24.0000  -24.3957   19.8794 C   0  0  0  0  0  0
  -30.3211  -16.0836   23.2159 C   0  0  0  0  0  0
  -28.6376  -17.3057   21.7277 C   0  0  0  0  0  0
  -27.4249  -17.6591   22.6250 C   0  0  0  0  0  0
  -28.6019  -25.6533   19.1800 C   0  0  0  0  0  0
  -28.0762  -24.3155   19.7401 C   0  0  0  0  0  0
  -29.3150  -15.9622   22.0544 C   0  0  1  0  0  0
  -29.9871  -15.5052   20.8337 N   0  0  0  0  0  0
  -26.8047  -18.9839   22.3247 N   0  3  1  0  0  0
  -26.7499  -24.0512   19.2738 O   0  0  0  0  0  0
  -31.4623  -12.4013   19.0732 H   0  0  0  0  0  0
  -30.3376  -11.2602   19.7531 H   0  0  0  0  0  0
  -29.7053  -11.8163   17.3878 H   0  0  0  0  0  0
  -29.6570  -13.5174   17.7805 H   0  0  0  0  0  0
  -27.7960  -11.3340   18.7751 H   0  0  0  0  0  0
  -27.3534  -12.7002   17.7851 H   0  0  0  0  0  0
  -27.7301  -14.2547   19.6372 H   0  0  0  0  0  0
  -28.6918  -11.8200   21.2021 H   0  0  0  0  0  0
  -28.4918  -13.3454   21.9351 H   0  0  0  0  0  0
  -25.2720   -9.5660   22.4762 H   0  0  0  0  0  0
  -23.9962   -7.4623   22.7458 H   0  0  0  0  0  0
  -21.0832   -8.8760   19.8958 H   0  0  0  0  0  0
  -22.3686  -10.9645   19.6162 H   0  0  0  0  0  0
  -21.2055   -7.6129   23.9700 H   0  0  0  0  0  0
  -21.1464   -6.0506   25.9060 H   0  0  0  0  0  0
  -22.0621   -2.7588   23.2855 H   0  0  0  0  0  0
  -22.4117  -11.9883   22.4736 H   0  0  0  0  0  0
  -21.1121  -13.1280   22.2537 H   0  0  0  0  0  0
  -24.6453  -15.8210   20.4343 H   0  0  0  0  0  0
  -26.2656  -15.5917   20.0014 H   0  0  0  0  0  0
  -26.7259  -32.5618   23.1334 H   0  0  0  0  0  0
  -25.0167  -33.9868   25.0617 H   0  0  0  0  0  0
  -22.7263  -31.3406   21.4365 H   0  0  0  0  0  0
  -23.3763  -35.9653   23.3324 H   0  0  0  0  0  0
  -24.3585  -36.8888   22.2036 H   0  0  0  0  0  0
  -23.7216  -37.6541   23.6607 H   0  0  0  0  0  0
  -26.0605  -31.6140   20.6139 H   0  0  0  0  0  0
  -26.8354  -30.8935   21.9972 H   0  0  0  0  0  0
  -28.0865  -29.0882   21.2061 H   0  0  0  0  0  0
  -26.0519  -26.1224   18.8218 H   0  0  0  0  0  0
  -23.9838  -27.3785   18.9639 H   0  0  0  0  0  0
  -23.7118  -30.6250   19.4241 H   0  0  0  0  0  0
  -22.7345  -29.2702   19.8951 H   0  0  0  0  0  0
  -25.1258  -36.2063   25.0864 H   0  0  0  0  0  0
  -20.1625  -28.6768   21.7644 H   0  0  0  0  0  0
  -21.6601  -26.7659   22.0709 H   0  0  0  0  0  0
  -20.6771  -26.4201   23.4779 H   0  0  0  0  0  0
  -19.6607  -25.3852   21.4364 H   0  0  0  0  0  0
  -19.6319  -26.9177   20.6298 H   0  0  0  0  0  0
  -17.3979  -26.6283   21.4259 H   0  0  0  0  0  0
  -17.9287  -25.9978   22.9609 H   0  0  0  0  0  0
  -19.7916  -30.7458   24.1587 H   0  0  0  0  0  0
  -17.4963  -31.6181   24.5401 H   0  0  0  0  0  0
  -15.5230  -30.2825   23.8321 H   0  0  0  0  0  0
  -15.8296  -28.0527   22.7991 H   0  0  0  0  0  0
  -24.5904  -30.7079   25.7828 H   0  0  0  0  0  0
  -24.8923  -32.2860   26.5004 H   0  0  0  0  0  0
  -25.8032  -30.8831   27.0279 H   0  0  0  0  0  0
  -26.2893  -29.6838   24.1201 H   0  0  0  0  0  0
  -27.4103  -29.7285   25.4610 H   0  0  0  0  0  0
  -27.8727  -30.4422   23.9343 H   0  0  0  0  0  0
  -27.2723  -33.3601   26.2192 H   0  0  0  0  0  0
  -28.3856  -32.6878   25.0385 H   0  0  0  0  0  0
  -28.0787  -31.8415   26.5449 H   0  0  0  0  0  0
  -28.2624  -38.0107   24.7509 H   0  0  0  0  0  0
  -28.1051  -36.2643   24.6322 H   0  0  0  0  0  0
  -27.2306  -37.1514   25.8874 H   0  0  0  0  0  0
  -21.0693  -30.1723   21.8122 H   0  0  0  0  0  0
  -26.0209  -38.2923   24.1383 H   0  0  0  0  0  0
  -27.7539  -21.6064   19.6356 H   0  0  0  0  0  0
  -23.9956  -18.9415   21.4536 H   0  0  0  0  0  0
  -23.5219  -19.9918   22.7590 H   0  0  0  0  0  0
  -27.8317  -19.4718   20.5245 H   0  0  0  0  0  0
  -26.3143  -18.6203   20.2822 H   0  0  0  0  0  0
  -25.1646  -18.3049   23.5420 H   0  0  0  0  0  0
  -25.6922  -19.9410   23.8043 H   0  0  0  0  0  0
  -22.5600  -23.2835   21.9298 H   0  0  0  0  0  0
  -22.3493  -21.5886   22.2439 H   0  0  0  0  0  0
  -21.9892  -22.2096   20.6470 H   0  0  0  0  0  0
  -24.2687  -25.1984   20.5633 H   0  0  0  0  0  0
  -22.9183  -24.2892   19.9002 H   0  0  0  0  0  0
  -24.2430  -24.6984   18.8605 H   0  0  0  0  0  0
  -29.8723  -16.5589   24.0894 H   0  0  0  0  0  0
  -31.1947  -16.6733   22.9377 H   0  0  0  0  0  0
  -30.6836  -15.1070   23.5327 H   0  0  0  0  0  0
  -28.2847  -17.2460   20.6965 H   0  0  0  0  0  0
  -29.3829  -18.1028   21.7568 H   0  0  0  0  0  0
  -27.7227  -17.6578   23.6746 H   0  0  0  0  0  0
  -26.6761  -16.8701   22.5189 H   0  0  0  0  0  0
  -28.2266  -25.8524   18.1751 H   0  0  0  0  0  0
  -29.6814  -25.5543   19.0671 H   0  0  0  0  0  0
  -28.7463  -23.5256   19.3975 H   0  0  0  0  0  0
  -28.1163  -24.3151   20.8318 H   0  0  0  0  0  0
  -28.5132  -15.2942   22.3428 H   0  0  0  0  0  0
  -30.4254  -16.2788   20.3548 H   0  0  0  0  0  0
  -27.4143  -19.6685   22.7452 H   0  0  0  0  0  0
  1 25  1  0  0  0
  1 30  2  0  0  0
  1 88  1  0  0  0
  2  3  1  0  0  0
  2 25  1  0  0  0
  2 91  1  0  0  0
  2 92  1  0  0  0
  3  4  1  0  0  0
  3 93  1  0  0  0
  3 94  1  0  0  0
  4  5  1  0  0  0
  4 95  1  0  0  0
  4 96  1  0  0  0
  5  6  1  0  0  0
  5 26  1  0  0  0
  5 97  1  0  0  0
  6 25  1  0  0  0
  6 98  1  0  0  0
  6 99  1  0  0  0
  7  8  2  0  0  0
  7 26  1  0  0  0
  7 29  1  0  0  0
  8  9  1  0  0  0
  8 22  1  0  0  0
  9 10  1  0  0  0
  9 27  2  0  0  0
 10 11  2  0  0  0
 10 15  1  0  0  0
 11 12  1  0  0  0
 11100  1  0  0  0
 12 13  2  0  0  0
 12101  1  0  0  0
 13 14  1  0  0  0
 13 31  1  0  0  0
 14 15  2  0  0  0
 14102  1  0  0  0
 15103  1  0  0  0
 16 17  2  0  0  0
 16 21  1  0  0  0
 16 31  1  0  0  0
 17 18  1  0  0  0
 17104  1  0  0  0
 18 19  2  0  0  0
 18105  1  0  0  0
 19 20  1  0  0  0
 19 24  1  0  0  0
 20 21  2  0  0  0
 20106  1  0  0  0
 21 23  1  0  0  0
 22 28  1  0  0  0
 22 32  2  0  0  0
 26 27  1  0  0  0
 28107  1  0  0  0
 28108  1  0  0  0
 29109  1  0  0  0
 29110  1  0  0  0
 33 34  1  0  0  0
 33 66  1  0  0  0
 33 70  2  0  0  0
 34 36  1  0  0  0
 34 59  1  0  0  0
 34111  1  0  0  0
 35 44  2  0  0  0
 35 45  1  0  0  0
 35 68  1  0  0  0
 36 56  1  0  0  0
 36112  1  0  0  0
 37 39  1  0  0  0
 37 47  1  0  0  0
 37 66  1  0  0  0
 37113  1  0  0  0
 38 43  2  0  0  0
 38 46  1  0  0  0
 38 47  1  0  0  0
 39 64  1  0  0  0
 39 67  2  0  0  0
 40 52  1  0  0  0
 40 53  2  0  0  0
 40 58  1  0  0  0
 41114  1  0  0  0
 41115  1  0  0  0
 41116  1  0  0  0
 41 48  1  0  0  0
 42 43  1  0  0  0
 42 66  1  0  0  0
 42117  1  0  0  0
 42118  1  0  0  0
 43 44  1  0  0  0
 44119  1  0  0  0
 45 46  2  0  0  0
 45120  1  0  0  0
 46121  1  0  0  0
 47122  1  0  0  0
 47123  1  0  0  0
 48 56  1  0  0  0
 48 65  1  0  0  0
 48124  1  0  0  0
 49 50  1  0  0  0
 49 53  1  0  0  0
 49 64  1  0  0  0
 49125  1  0  0  0
 50 51  1  0  0  0
 50126  1  0  0  0
 50127  1  0  0  0
 51 52  1  0  0  0
 51128  1  0  0  0
 51129  1  0  0  0
 52130  1  0  0  0
 52131  1  0  0  0
 53 54  1  0  0  0
 54 55  2  0  0  0
 54132  1  0  0  0
 55 57  1  0  0  0
 55133  1  0  0  0
 56 69  2  0  0  0
 57 58  2  0  0  0
 57134  1  0  0  0
 58135  1  0  0  0
 59 60  1  0  0  0
 59 61  1  0  0  0
 59 62  1  0  0  0
 60136  1  0  0  0
 60137  1  0  0  0
 60138  1  0  0  0
 61139  1  0  0  0
 61140  1  0  0  0
 61141  1  0  0  0
 62142  1  0  0  0
 62143  1  0  0  0
 62144  1  0  0  0
 63 65  1  0  0  0
 63145  1  0  0  0
 63146  1  0  0  0
 63147  1  0  0  0
 64148  1  0  0  0
 65149  1  0  0  0
 68 85  1  0  0  0
 71 72  2  0  0  0
 71 76  1  0  0  0
 71150  1  0  0  0
 72 73  1  0  0  0
 72 78  1  0  0  0
 73 74  2  0  0  0
 73 77  1  0  0  0
 74 75  1  0  0  0
 74 80  1  0  0  0
 75 76  2  0  0  0
 75 81  1  0  0  0
 76 90  1  0  0  0
 77 79  1  0  0  0
 77151  1  0  0  0
 77152  1  0  0  0
 78 89  1  0  0  0
 78153  1  0  0  0
 78154  1  0  0  0
 79 89  1  0  0  0
 79155  1  0  0  0
 79156  1  0  0  0
 80157  1  0  0  0
 80158  1  0  0  0
 80159  1  0  0  0
 81160  1  0  0  0
 81161  1  0  0  0
 81162  1  0  0  0
 82163  1  0  0  0
 82164  1  0  0  0
 82165  1  0  0  0
 82 87  1  0  0  0
 83 84  1  0  0  0
 83 87  1  0  0  0
 83166  1  0  0  0
 83167  1  0  0  0
 84168  1  0  0  0
 84169  1  0  0  0
 84 89  1  0  0  0
 85 86  1  0  0  0
 85170  1  0  0  0
 85171  1  0  0  0
 86 90  1  0  0  0
 86172  1  0  0  0
 86173  1  0  0  0
 87 88  1  0  0  0
 87174  1  0  0  0
 88175  1  0  0  0
 89176  1  0  0  0
M  CHG  1  89   1
M  ISO  4   1 100  68 101  85 101  88 100
M  END
> <chiral flag>
0

> <version>
0

> <s_m_source_file>
/data/baiqing/PycharmProjects/Reinvent-master-3.2/result/LINK_invent/BTK/process_docking_weight1_custom_sum_contain_oxygen_bond_distance_aromatic_linkinvent_7_9_3/rearranged_h_0157.sdf

> <i_m_source_file_index>
87

> <r_mmod_Potential_Energy-OPLS-2005>
70.3250122070312

> <r_mmod_Stretch_Energy-OPLS-2005>
35.2264862060547

> <r_mmod_Bend_Energy-OPLS-2005>
243.915756225586

> <r_mmod_Torsional_Energy-OPLS-2005>
300.908813476562

> <r_mmod_Improper_Torsional_Energy-OPLS-2005>
19.3714237213135

> <r_mmod_Van_der_Waal_Energy-OPLS-2005>
185.702377319336

> <r_mmod_Electrostatic_Energy-OPLS-2005>
-284.51806640625

> <r_mmod_Solvation_Energy-OPLS-2005>
-462.682983398438

> <b_mmod_Minimization_Converged-OPLS-2005>
0

> <r_mmod_RMS_Derivative-OPLS-2005>
4.09646940231323

$$$$
87
                    3D
 Structure written by MMmdl.
178188  0  0  1  0            999 V2000
  -30.5866  -14.6713   20.5252 C   0  0  0  0  0  0
  -30.4411  -12.4238   19.4479 C   0  0  0  0  0  0
  -29.5045  -12.5026   18.2225 C   0  0  0  0  0  0
  -28.0298  -12.3287   18.6426 C   0  0  0  0  0  0
  -27.6426  -13.2163   19.8544 C   0  0  2  0  0  0
  -28.6847  -13.0885   20.9805 C   0  0  0  0  0  0
  -25.2504  -13.8186   20.5658 C   0  0  0  0  0  0
  -24.1772  -13.0454   20.9176 C   0  0  0  0  0  0
  -24.6345  -11.6919   20.8712 C   0  0  0  0  0  0
  -23.9023  -10.4301   21.0368 C   0  0  0  0  0  0
  -24.3589   -9.4239   21.9156 C   0  0  0  0  0  0
  -23.6277   -8.2270   22.0748 C   0  0  0  0  0  0
  -22.4261   -8.0280   21.3541 C   0  0  0  0  0  0
  -21.9874   -9.0240   20.4648 C   0  0  0  0  0  0
  -22.7186  -10.2120   20.3040 C   0  0  0  0  0  0
  -21.6857   -6.0738   22.5265 C   0  0  0  0  0  0
  -21.4015   -6.5652   23.8190 C   0  0  0  0  0  0
  -21.3645   -5.6809   24.9158 C   0  0  0  0  0  0
  -21.6033   -4.3067   24.7210 C   0  0  0  0  0  0
  -21.8817   -3.8154   23.4343 C   0  0  0  0  0  0
  -21.9181   -4.6971   22.3397 C   0  0  0  0  0  0
  -22.7791  -13.5226   21.1864 C   0  0  0  0  0  0
  -22.1634   -4.2156   21.0975 F   0  0  0  0  0  0
  -21.5632   -3.4546   25.7723 F   0  0  0  0  0  0
  -29.9870  -13.4476   20.4082 N   0  0  0  0  0  0
  -26.2917  -12.9364   20.3274 N   0  0  0  0  0  0
  -25.9272  -11.6529   20.5740 N   0  0  0  0  0  0
  -22.0467  -12.8188   22.0437 N   0  0  0  0  0  0
  -25.4209  -15.1918   20.4029 N   0  0  0  0  0  0
  -31.7700  -14.8330   20.2165 O   0  0  0  0  0  0
  -21.6640   -6.8875   21.4224 O   0  0  0  0  0  0
  -22.3457  -14.5512   20.6693 O   0  0  0  0  0  0
  -24.6313  -31.8580   23.1989 C   0  0  0  0  0  0
  -25.9145  -32.4758   23.8339 C   0  0  1  0  0  0
  -27.2178  -27.2918   20.1320 C   0  0  0  0  0  0
  -25.5949  -33.8556   24.2276 N   0  0  0  0  0  0
  -23.4229  -30.4841   21.5433 C   0  0  2  0  0  0
  -24.8654  -28.9355   20.1060 C   0  0  0  0  0  0
  -22.7500  -29.4631   22.4924 C   0  0  0  0  0  0
  -18.0296  -28.1390   22.8491 C   0  0  0  0  0  0
  -24.1484  -36.7278   23.2639 C   0  0  0  0  0  0
  -25.9661  -30.7861   21.3685 C   0  0  0  0  0  0
  -26.0350  -29.4115   20.7115 C   0  0  0  0  0  0
  -27.2105  -28.6035   20.7080 C   0  0  0  0  0  0
  -26.0175  -26.8643   19.5154 C   0  0  0  0  0  0
  -24.8634  -27.6718   19.4944 C   0  0  0  0  0  0
  -23.6354  -29.8204   20.1568 C   0  0  0  0  0  0
  -25.4100  -36.3070   24.0345 C   0  0  1  0  0  0
  -20.5898  -28.3704   23.1282 C   0  0  2  0  0  0
  -20.6787  -26.9426   22.5419 C   0  0  0  0  0  0
  -19.5750  -26.6388   21.5227 C   0  0  0  0  0  0
  -18.1925  -26.7935   22.1626 C   0  0  0  0  0  0
  -19.1544  -28.8864   23.2884 C   0  0  0  0  0  0
  -18.9461  -30.1459   23.8909 C   0  0  0  0  0  0
  -17.6460  -30.6592   24.0561 C   0  0  0  0  0  0
  -25.9052  -34.9442   23.5115 C   0  0  0  0  0  0
  -16.5353  -29.9088   23.6334 C   0  0  0  0  0  0
  -16.7276  -28.6503   23.0358 C   0  0  0  0  0  0
  -26.4519  -31.6565   25.0716 C   0  0  0  0  0  0
  -25.3748  -31.3707   26.1442 C   0  0  0  0  0  0
  -27.0370  -30.2986   24.6177 C   0  0  0  0  0  0
  -27.6074  -32.4317   25.7482 C   0  0  0  0  0  0
  -27.5590  -37.1777   24.8456 C   0  0  0  0  0  0
  -21.4216  -29.3040   22.3671 N   0  0  0  0  0  0
  -26.4268  -37.3780   23.9447 N   0  0  0  0  0  0
  -24.6931  -31.0595   22.0933 N   0  0  0  0  0  0
  -23.4218  -28.8182   23.3014 O   0  0  0  0  0  0
  -28.3505  -26.4607   20.2201 O   0  0  0  0  0  0
  -26.5618  -34.8925   22.4679 O   0  0  0  0  0  0
  -23.5481  -32.1382   23.7327 O   0  0  0  0  0  0
  -28.5233  -11.9564   24.5353 C   0  0  0  0  0  0
  -28.0343  -13.2139   24.9197 C   0  0  0  0  0  0
  -30.0465  -18.9590   19.5280 C   0  0  0  0  0  0
  -29.8301  -11.8428   24.0315 C   0  0  0  0  0  0
  -28.8498  -14.3543   24.8002 C   0  0  0  0  0  0
  -29.7670  -20.3314   19.2211 C   0  0  0  0  0  0
  -28.7979  -20.6903   21.4012 C   0  0  0  0  0  0
  -29.7083  -18.4349   20.7944 C   0  0  0  0  0  0
  -29.0755  -19.3127   21.6896 C   0  0  0  0  0  0
  -30.6535  -12.9822   23.9026 C   0  0  0  0  0  0
  -30.1634  -14.2638   24.2747 C   0  0  0  0  0  0
  -29.1594  -21.2469   20.1392 C   0  0  0  0  0  0
  -28.8181  -18.6175   22.9998 C   0  0  0  0  0  0
  -30.1175  -17.0688   21.4481 C   0  0  1  0  0  0
  -29.4843  -17.2086   22.8825 C   0  0  1  0  0  0
  -32.0711  -12.7802   23.3908 C   0  0  0  0  0  0
  -32.3192  -18.2779   23.5676 C   0  0  0  0  0  0
  -31.0646  -15.5040   24.1671 C   0  0  0  0  0  0
  -28.4272  -25.0864   19.6456 C   0  0  0  0  0  0
  -28.5118  -23.7322   20.5135 C   0  0  0  0  0  0
  -30.3777  -16.8963   24.1234 C   0  0  1  0  0  0
  -29.7681  -15.7277   20.8527 N   0  0  0  0  0  0
  -28.9804  -22.5863   19.7072 O   0  0  0  0  0  0
  -31.2951  -17.9332   24.4877 O   0  0  0  0  0  0
  -31.4785  -12.5783   19.1460 H   0  0  0  0  0  0
  -30.4015  -11.4354   19.9085 H   0  0  0  0  0  0
  -29.7798  -11.7390   17.4921 H   0  0  0  0  0  0
  -29.6317  -13.4671   17.7276 H   0  0  0  0  0  0
  -27.8823  -11.2786   18.8991 H   0  0  0  0  0  0
  -27.3688  -12.5313   17.8021 H   0  0  0  0  0  0
  -27.6557  -14.2454   19.4964 H   0  0  0  0  0  0
  -28.7071  -12.0706   21.3689 H   0  0  0  0  0  0
  -28.4273  -13.7229   21.8303 H   0  0  0  0  0  0
  -25.2727   -9.5751   22.4726 H   0  0  0  0  0  0
  -24.0005   -7.4674   22.7482 H   0  0  0  0  0  0
  -21.0791   -8.8732   19.8972 H   0  0  0  0  0  0
  -22.3607  -10.9644   19.6152 H   0  0  0  0  0  0
  -21.2013   -7.6160   23.9689 H   0  0  0  0  0  0
  -21.1466   -6.0539   25.9054 H   0  0  0  0  0  0
  -22.0608   -2.7622   23.2834 H   0  0  0  0  0  0
  -22.4100  -11.9829   22.4787 H   0  0  0  0  0  0
  -21.1109  -13.1212   22.2730 H   0  0  0  0  0  0
  -24.6516  -15.8434   20.5174 H   0  0  0  0  0  0
  -26.2539  -15.6298   20.0334 H   0  0  0  0  0  0
  -26.7214  -32.5421   23.1091 H   0  0  0  0  0  0
  -25.0128  -33.9671   25.0445 H   0  0  0  0  0  0
  -22.7175  -31.3059   21.4055 H   0  0  0  0  0  0
  -23.3767  -35.9586   23.3242 H   0  0  0  0  0  0
  -24.3603  -36.8949   22.2068 H   0  0  0  0  0  0
  -23.7188  -37.6449   23.6685 H   0  0  0  0  0  0
  -26.1034  -31.5492   20.6003 H   0  0  0  0  0  0
  -26.8448  -30.8310   22.0004 H   0  0  0  0  0  0
  -28.1114  -28.9716   21.1800 H   0  0  0  0  0  0
  -25.9179  -25.8875   19.0693 H   0  0  0  0  0  0
  -23.9641  -27.3000   19.0206 H   0  0  0  0  0  0
  -23.7531  -30.5980   19.4014 H   0  0  0  0  0  0
  -22.7527  -29.2540   19.8564 H   0  0  0  0  0  0
  -25.1262  -36.1924   25.0834 H   0  0  0  0  0  0
  -20.9999  -28.3293   24.1396 H   0  0  0  0  0  0
  -20.5715  -26.2317   23.3629 H   0  0  0  0  0  0
  -21.6656  -26.7469   22.1199 H   0  0  0  0  0  0
  -19.6911  -25.6302   21.1247 H   0  0  0  0  0  0
  -19.6671  -27.3209   20.6763 H   0  0  0  0  0  0
  -17.4216  -26.6719   21.4005 H   0  0  0  0  0  0
  -18.0280  -26.0077   22.9011 H   0  0  0  0  0  0
  -19.7925  -30.7268   24.2301 H   0  0  0  0  0  0
  -17.4998  -31.6263   24.5160 H   0  0  0  0  0  0
  -15.5341  -30.2978   23.7637 H   0  0  0  0  0  0
  -15.8681  -28.0800   22.7079 H   0  0  0  0  0  0
  -24.5912  -30.7069   25.7768 H   0  0  0  0  0  0
  -24.8954  -32.2877   26.4880 H   0  0  0  0  0  0
  -25.8069  -30.8871   27.0210 H   0  0  0  0  0  0
  -26.2944  -29.6711   24.1234 H   0  0  0  0  0  0
  -27.4106  -29.7264   25.4679 H   0  0  0  0  0  0
  -27.8796  -30.4267   23.9376 H   0  0  0  0  0  0
  -27.2672  -33.3624   26.2040 H   0  0  0  0  0  0
  -28.3878  -32.6870   25.0297 H   0  0  0  0  0  0
  -28.0752  -31.8461   26.5409 H   0  0  0  0  0  0
  -28.2551  -38.0135   24.7606 H   0  0  0  0  0  0
  -28.1143  -36.2676   24.6133 H   0  0  0  0  0  0
  -27.2344  -37.1254   25.8863 H   0  0  0  0  0  0
  -20.9425  -29.8742   21.6851 H   0  0  0  0  0  0
  -26.0150  -38.2851   24.1481 H   0  0  0  0  0  0
  -27.9013  -11.0766   24.6339 H   0  0  0  0  0  0
  -27.0317  -13.3008   25.3133 H   0  0  0  0  0  0
  -30.5578  -18.3289   18.8128 H   0  0  0  0  0  0
  -30.1963  -10.8654   23.7531 H   0  0  0  0  0  0
  -28.4290  -15.2903   25.1307 H   0  0  0  0  0  0
  -30.0600  -20.7032   18.2479 H   0  0  0  0  0  0
  -28.3334  -21.3125   22.1543 H   0  0  0  0  0  0
  -27.7437  -18.5284   23.1714 H   0  0  0  0  0  0
  -29.2298  -19.2149   23.8123 H   0  0  0  0  0  0
  -31.2030  -17.0942   21.5057 H   0  0  0  0  0  0
  -28.6493  -16.5065   22.9170 H   0  0  0  0  0  0
  -32.2792  -11.7218   23.2207 H   0  0  0  0  0  0
  -32.7996  -13.1488   24.1124 H   0  0  0  0  0  0
  -32.2295  -13.2914   22.4428 H   0  0  0  0  0  0
  -31.9223  -18.8162   22.7069 H   0  0  0  0  0  0
  -32.8725  -17.4033   23.2241 H   0  0  0  0  0  0
  -33.0267  -18.9448   24.0600 H   0  0  0  0  0  0
  -31.7205  -15.4051   23.3048 H   0  0  0  0  0  0
  -31.7111  -15.4824   25.0463 H   0  0  0  0  0  0
  -27.7160  -24.9354   18.8401 H   0  0  0  0  0  0
  -29.3789  -25.1176   19.1170 H   0  0  0  0  0  0
  -27.5430  -23.5035   20.9582 H   0  0  0  0  0  0
  -29.2075  -23.8836   21.3390 H   0  0  0  0  0  0
  -29.7136  -16.9339   24.9829 H   0  0  0  0  0  0
  -28.7921  -15.4858   20.9189 H   0  0  0  0  0  0
  1 25  1  0  0  0
  1 30  2  0  0  0
  1 92  1  0  0  0
  2  3  1  0  0  0
  2 25  1  0  0  0
  2 95  1  0  0  0
  2 96  1  0  0  0
  3  4  1  0  0  0
  3 97  1  0  0  0
  3 98  1  0  0  0
  4  5  1  0  0  0
  4 99  1  0  0  0
  4100  1  0  0  0
  5  6  1  0  0  0
  5 26  1  0  0  0
  5101  1  0  0  0
  6 25  1  0  0  0
  6102  1  0  0  0
  6103  1  0  0  0
  7  8  2  0  0  0
  7 26  1  0  0  0
  7 29  1  0  0  0
  8  9  1  0  0  0
  8 22  1  0  0  0
  9 10  1  0  0  0
  9 27  2  0  0  0
 10 11  2  0  0  0
 10 15  1  0  0  0
 11 12  1  0  0  0
 11104  1  0  0  0
 12 13  2  0  0  0
 12105  1  0  0  0
 13 14  1  0  0  0
 13 31  1  0  0  0
 14 15  2  0  0  0
 14106  1  0  0  0
 15107  1  0  0  0
 16 17  2  0  0  0
 16 21  1  0  0  0
 16 31  1  0  0  0
 17 18  1  0  0  0
 17108  1  0  0  0
 18 19  2  0  0  0
 18109  1  0  0  0
 19 20  1  0  0  0
 19 24  1  0  0  0
 20 21  2  0  0  0
 20110  1  0  0  0
 21 23  1  0  0  0
 22 28  1  0  0  0
 22 32  2  0  0  0
 26 27  1  0  0  0
 28111  1  0  0  0
 28112  1  0  0  0
 29113  1  0  0  0
 29114  1  0  0  0
 33 34  1  0  0  0
 33 66  1  0  0  0
 33 70  2  0  0  0
 34 36  1  0  0  0
 34 59  1  0  0  0
 34115  1  0  0  0
 35 44  2  0  0  0
 35 45  1  0  0  0
 35 68  1  0  0  0
 36 56  1  0  0  0
 36116  1  0  0  0
 37 39  1  0  0  0
 37 47  1  0  0  0
 37 66  1  0  0  0
 37117  1  0  0  0
 38 43  2  0  0  0
 38 46  1  0  0  0
 38 47  1  0  0  0
 39 64  1  0  0  0
 39 67  2  0  0  0
 40 52  1  0  0  0
 40 53  2  0  0  0
 40 58  1  0  0  0
 41118  1  0  0  0
 41119  1  0  0  0
 41120  1  0  0  0
 41 48  1  0  0  0
 42 43  1  0  0  0
 42 66  1  0  0  0
 42121  1  0  0  0
 42122  1  0  0  0
 43 44  1  0  0  0
 44123  1  0  0  0
 45 46  2  0  0  0
 45124  1  0  0  0
 46125  1  0  0  0
 47126  1  0  0  0
 47127  1  0  0  0
 48 56  1  0  0  0
 48 65  1  0  0  0
 48128  1  0  0  0
 49 50  1  0  0  0
 49 53  1  0  0  0
 49 64  1  0  0  0
 49129  1  0  0  0
 50 51  1  0  0  0
 50130  1  0  0  0
 50131  1  0  0  0
 51 52  1  0  0  0
 51132  1  0  0  0
 51133  1  0  0  0
 52134  1  0  0  0
 52135  1  0  0  0
 53 54  1  0  0  0
 54 55  2  0  0  0
 54136  1  0  0  0
 55 57  1  0  0  0
 55137  1  0  0  0
 56 69  2  0  0  0
 57 58  2  0  0  0
 57138  1  0  0  0
 58139  1  0  0  0
 59 60  1  0  0  0
 59 61  1  0  0  0
 59 62  1  0  0  0
 60140  1  0  0  0
 60141  1  0  0  0
 60142  1  0  0  0
 61143  1  0  0  0
 61144  1  0  0  0
 61145  1  0  0  0
 62146  1  0  0  0
 62147  1  0  0  0
 62148  1  0  0  0
 63 65  1  0  0  0
 63149  1  0  0  0
 63150  1  0  0  0
 63151  1  0  0  0
 64152  1  0  0  0
 65153  1  0  0  0
 68 89  1  0  0  0
 71 72  2  0  0  0
 71 74  1  0  0  0
 71154  1  0  0  0
 72 75  1  0  0  0
 72155  1  0  0  0
 73 76  2  0  0  0
 73 78  1  0  0  0
 73156  1  0  0  0
 74 80  2  0  0  0
 74157  1  0  0  0
 75 81  2  0  0  0
 75158  1  0  0  0
 76 82  1  0  0  0
 76159  1  0  0  0
 77 79  1  0  0  0
 77 82  2  0  0  0
 77160  1  0  0  0
 78 79  2  0  0  0
 78 84  1  0  0  0
 79 83  1  0  0  0
 80 81  1  0  0  0
 80 86  1  0  0  0
 81 88  1  0  0  0
 82 93  1  0  0  0
 83161  1  0  0  0
 83162  1  0  0  0
 83 85  1  0  0  0
 84 85  1  0  0  0
 84 92  1  0  0  0
 84163  1  0  0  0
 85 91  1  0  0  0
 85164  1  0  0  0
 86165  1  0  0  0
 86166  1  0  0  0
 86167  1  0  0  0
 87 94  1  0  0  0
 87168  1  0  0  0
 87169  1  0  0  0
 87170  1  0  0  0
 88171  1  0  0  0
 88172  1  0  0  0
 88 91  1  0  0  0
 89 90  1  0  0  0
 89173  1  0  0  0
 89174  1  0  0  0
 90 93  1  0  0  0
 90175  1  0  0  0
 90176  1  0  0  0
 91 94  1  0  0  0
 91177  1  0  0  0
 92178  1  0  0  0
M  ISO  4   1 100  68 101  89 101  92 100
M  END
> <chiral flag>
0

> <version>
0

> <s_m_source_file>
/data/baiqing/PycharmProjects/Reinvent-master-3.2/result/LINK_invent/BTK/process_docking_weight1_custom_sum_contain_oxygen_bond_distance_aromatic_linkinvent_7_9_3/rearranged_h_0157.sdf

> <i_m_source_file_index>
88

> <r_mmod_Potential_Energy-OPLS-2005>
162.315353393555

> <r_mmod_Stretch_Energy-OPLS-2005>
96.2475967407227

> <r_mmod_Bend_Energy-OPLS-2005>
243.495651245117

> <r_mmod_Torsional_Energy-OPLS-2005>
224.689865112305

> <r_mmod_Improper_Torsional_Energy-OPLS-2005>
5.19729518890381

> <r_mmod_Van_der_Waal_Energy-OPLS-2005>
133.81298828125

> <r_mmod_Electrostatic_Energy-OPLS-2005>
-404.705535888672

> <r_mmod_Solvation_Energy-OPLS-2005>
-199.506149291992

> <b_mmod_Minimization_Converged-OPLS-2005>
0

> <r_mmod_RMS_Derivative-OPLS-2005>
3.80364537239075

$$$$
88
                    3D
 Structure written by MMmdl.
166175  0  0  1  0            999 V2000
  -30.6828  -14.5242   20.5110 C   0  0  0  0  0  0
  -30.4189  -12.3198   19.4383 C   0  0  0  0  0  0
  -29.4936  -12.4863   18.2144 C   0  0  0  0  0  0
  -28.0150  -12.3533   18.6283 C   0  0  0  0  0  0
  -27.6545  -13.2122   19.8708 C   0  0  2  0  0  0
  -28.6988  -13.0354   20.9956 C   0  0  0  0  0  0
  -25.2556  -13.8181   20.5709 C   0  0  0  0  0  0
  -24.1814  -13.0443   20.9190 C   0  0  0  0  0  0
  -24.6383  -11.6916   20.8755 C   0  0  0  0  0  0
  -23.9055  -10.4294   21.0421 C   0  0  0  0  0  0
  -24.3616   -9.4204   21.9193 C   0  0  0  0  0  0
  -23.6290   -8.2242   22.0760 C   0  0  0  0  0  0
  -22.4273   -8.0284   21.3545 C   0  0  0  0  0  0
  -21.9908   -9.0254   20.4646 C   0  0  0  0  0  0
  -22.7236  -10.2131   20.3068 C   0  0  0  0  0  0
  -21.6844   -6.0741   22.5280 C   0  0  0  0  0  0
  -21.4010   -6.5649   23.8212 C   0  0  0  0  0  0
  -21.3655   -5.6803   24.9175 C   0  0  0  0  0  0
  -21.6042   -4.3064   24.7225 C   0  0  0  0  0  0
  -21.8818   -3.8154   23.4344 C   0  0  0  0  0  0
  -21.9188   -4.6970   22.3403 C   0  0  0  0  0  0
  -22.7828  -13.5225   21.1849 C   0  0  0  0  0  0
  -22.1657   -4.2157   21.0980 F   0  0  0  0  0  0
  -21.5633   -3.4547   25.7737 F   0  0  0  0  0  0
  -30.0194  -13.3368   20.4257 N   0  0  0  0  0  0
  -26.2990  -12.9354   20.3381 N   0  0  0  0  0  0
  -25.9310  -11.6513   20.5793 N   0  0  0  0  0  0
  -22.0486  -12.8202   22.0410 N   0  0  0  0  0  0
  -25.4304  -15.1896   20.4152 N   0  0  0  0  0  0
  -31.8626  -14.6314   20.1579 O   0  0  0  0  0  0
  -21.6636   -6.8884   21.4243 O   0  0  0  0  0  0
  -22.3492  -14.5515   20.6691 O   0  0  0  0  0  0
  -24.6180  -31.8675   23.2090 C   0  0  0  0  0  0
  -25.9062  -32.4817   23.8394 C   0  0  1  0  0  0
  -27.2200  -27.4006   20.0921 C   0  0  0  0  0  0
  -25.5907  -33.8618   24.2321 N   0  0  0  0  0  0
  -23.4055  -30.4936   21.5520 C   0  0  2  0  0  0
  -24.8472  -28.9594   20.1134 C   0  0  0  0  0  0
  -22.7423  -29.4662   22.4981 C   0  0  0  0  0  0
  -18.0279  -28.1371   22.8496 C   0  0  0  0  0  0
  -24.1489  -36.7308   23.2635 C   0  0  0  0  0  0
  -25.9401  -30.8227   21.3668 C   0  0  0  0  0  0
  -26.0136  -29.4574   20.7075 C   0  0  0  0  0  0
  -27.2045  -28.6880   20.6877 C   0  0  0  0  0  0
  -26.0293  -26.9299   19.4896 C   0  0  0  0  0  0
  -24.8516  -27.6969   19.5014 C   0  0  0  0  0  0
  -23.6133  -29.8320   20.1652 C   0  0  0  0  0  0
  -25.4112  -36.3107   24.0334 C   0  0  1  0  0  0
  -20.5873  -28.3664   23.1308 C   0  0  2  0  0  0
  -20.6769  -26.9400   22.5411 C   0  0  0  0  0  0
  -19.5743  -26.6382   21.5211 C   0  0  0  0  0  0
  -18.1923  -26.7920   22.1624 C   0  0  0  0  0  0
  -19.1531  -28.8836   23.2900 C   0  0  0  0  0  0
  -18.9454  -30.1441   23.8910 C   0  0  0  0  0  0
  -17.6456  -30.6581   24.0563 C   0  0  0  0  0  0
  -25.9045  -34.9475   23.5125 C   0  0  0  0  0  0
  -16.5346  -29.9081   23.6323 C   0  0  0  0  0  0
  -16.7269  -28.6494   23.0355 C   0  0  0  0  0  0
  -26.4480  -31.6601   25.0731 C   0  0  0  0  0  0
  -25.3742  -31.3707   26.1470 C   0  0  0  0  0  0
  -27.0314  -30.3040   24.6120 C   0  0  0  0  0  0
  -27.6050  -32.4326   25.7496 C   0  0  0  0  0  0
  -27.5589  -37.1804   24.8464 C   0  0  0  0  0  0
  -21.4151  -29.3031   22.3714 N   0  0  0  0  0  0
  -26.4298  -37.3793   23.9415 N   0  0  0  0  0  0
  -24.6732  -31.0756   22.1001 N   0  0  0  0  0  0
  -23.4190  -28.8197   23.3025 O   0  0  0  0  0  0
  -28.3738  -26.6303   20.1182 O   0  0  0  0  0  0
  -26.5607  -34.8925   22.4687 O   0  0  0  0  0  0
  -23.5363  -32.1441   23.7465 O   0  0  0  0  0  0
  -28.7073  -22.1108   19.5034 C   0  0  0  0  0  0
  -28.6397  -20.6990   19.5687 C   0  0  0  0  0  0
  -29.7918  -20.7400   21.6858 C   0  0  0  0  0  0
  -29.3263  -22.8667   20.5253 C   0  0  0  0  0  0
  -29.2106  -19.9721   20.6442 C   0  0  0  0  0  0
  -29.8534  -22.1659   21.6439 C   0  0  0  0  0  0
  -29.0527  -17.7718   19.4344 C   0  0  0  0  0  0
  -29.6796  -17.7895   21.8445 C   0  0  0  0  0  0
  -30.0302  -16.5762   19.3784 C   0  0  0  0  0  0
  -29.3930  -16.2588   21.7527 C   0  0  0  0  0  0
  -30.6365  -24.7188   19.4064 C   0  0  0  0  0  0
  -30.9022  -22.2664   23.8163 C   0  0  0  0  0  0
  -28.2154  -25.1929   19.9999 C   0  0  0  0  0  0
  -29.4973  -24.4046   20.3891 C   0  0  1  0  0  0
  -29.2078  -18.5417   20.6721 N   0  0  0  0  0  0
  -29.8916  -15.6346   20.5091 N   0  0  0  0  0  0
  -30.4351  -22.9205   22.6430 O   0  0  0  0  0  0
  -31.4637  -12.4118   19.1364 H   0  0  0  0  0  0
  -30.3192  -11.3208   19.8662 H   0  0  0  0  0  0
  -29.7349  -11.7409   17.4554 H   0  0  0  0  0  0
  -29.6596  -13.4602   17.7519 H   0  0  0  0  0  0
  -27.8288  -11.3000   18.8414 H   0  0  0  0  0  0
  -27.3643  -12.6136   17.7927 H   0  0  0  0  0  0
  -27.6833  -14.2525   19.5476 H   0  0  0  0  0  0
  -28.6826  -12.0142   21.3782 H   0  0  0  0  0  0
  -28.4691  -13.6755   21.8474 H   0  0  0  0  0  0
  -25.2775   -9.5669   22.4748 H   0  0  0  0  0  0
  -24.0002   -7.4623   22.7469 H   0  0  0  0  0  0
  -21.0852   -8.8768   19.8933 H   0  0  0  0  0  0
  -22.3714  -10.9665   19.6173 H   0  0  0  0  0  0
  -21.2004   -7.6154   23.9720 H   0  0  0  0  0  0
  -21.1476   -6.0538   25.9082 H   0  0  0  0  0  0
  -22.0599   -2.7614   23.2853 H   0  0  0  0  0  0
  -22.4144  -11.9869   22.4776 H   0  0  0  0  0  0
  -21.1102  -13.1202   22.2641 H   0  0  0  0  0  0
  -24.6723  -15.8518   20.5357 H   0  0  0  0  0  0
  -26.2979  -15.6256   20.1303 H   0  0  0  0  0  0
  -26.7127  -32.5514   23.1150 H   0  0  0  0  0  0
  -25.0066  -33.9786   25.0469 H   0  0  0  0  0  0
  -22.6949  -31.3117   21.4153 H   0  0  0  0  0  0
  -23.3756  -35.9633   23.3291 H   0  0  0  0  0  0
  -24.3576  -36.8934   22.2049 H   0  0  0  0  0  0
  -23.7231  -37.6504   23.6656 H   0  0  0  0  0  0
  -26.0622  -31.5912   20.6020 H   0  0  0  0  0  0
  -26.8241  -30.8686   21.9916 H   0  0  0  0  0  0
  -28.1055  -29.0683   21.1485 H   0  0  0  0  0  0
  -25.9824  -25.9671   19.0041 H   0  0  0  0  0  0
  -23.9536  -27.3086   19.0408 H   0  0  0  0  0  0
  -23.7277  -30.6104   19.4098 H   0  0  0  0  0  0
  -22.7338  -29.2595   19.8644 H   0  0  0  0  0  0
  -25.1285  -36.1972   25.0824 H   0  0  0  0  0  0
  -20.9972  -28.3227   24.1425 H   0  0  0  0  0  0
  -20.5674  -26.2271   23.3597 H   0  0  0  0  0  0
  -21.6640  -26.7438   22.1203 H   0  0  0  0  0  0
  -19.6906  -25.6297   21.1230 H   0  0  0  0  0  0
  -19.6680  -27.3201   20.6746 H   0  0  0  0  0  0
  -17.4194  -26.6680   21.4023 H   0  0  0  0  0  0
  -18.0319  -26.0054   22.9010 H   0  0  0  0  0  0
  -19.7929  -30.7258   24.2287 H   0  0  0  0  0  0
  -17.5008  -31.6262   24.5162 H   0  0  0  0  0  0
  -15.5347  -30.2989   23.7631 H   0  0  0  0  0  0
  -15.8669  -28.0811   22.7073 H   0  0  0  0  0  0
  -24.5906  -30.7072   25.7792 H   0  0  0  0  0  0
  -24.8950  -32.2867   26.4933 H   0  0  0  0  0  0
  -25.8089  -30.8853   27.0218 H   0  0  0  0  0  0
  -26.2863  -29.6801   24.1166 H   0  0  0  0  0  0
  -27.4068  -29.7270   25.4584 H   0  0  0  0  0  0
  -27.8707  -30.4346   23.9286 H   0  0  0  0  0  0
  -27.2656  -33.3609   26.2104 H   0  0  0  0  0  0
  -28.3842  -32.6920   25.0318 H   0  0  0  0  0  0
  -28.0740  -31.8441   26.5392 H   0  0  0  0  0  0
  -28.2592  -38.0117   24.7535 H   0  0  0  0  0  0
  -28.1103  -36.2649   24.6262 H   0  0  0  0  0  0
  -27.2309  -37.1420   25.8867 H   0  0  0  0  0  0
  -20.9306  -29.8766   21.6950 H   0  0  0  0  0  0
  -26.0187  -38.2869   24.1426 H   0  0  0  0  0  0
  -28.2936  -22.6092   18.6391 H   0  0  0  0  0  0
  -28.1429  -20.1875   18.7575 H   0  0  0  0  0  0
  -30.2241  -20.2169   22.5230 H   0  0  0  0  0  0
  -28.0211  -17.4241   19.3588 H   0  0  0  0  0  0
  -29.2423  -18.3866   18.5542 H   0  0  0  0  0  0
  -30.7540  -17.9477   21.9532 H   0  0  0  0  0  0
  -29.2119  -18.1834   22.7485 H   0  0  0  0  0  0
  -31.0534  -16.9558   19.3421 H   0  0  0  0  0  0
  -29.8758  -16.0329   18.4442 H   0  0  0  0  0  0
  -28.3174  -16.0886   21.8071 H   0  0  0  0  0  0
  -29.8187  -15.7631   22.6271 H   0  0  0  0  0  0
  -31.5629  -24.2284   19.7060 H   0  0  0  0  0  0
  -30.8327  -25.7902   19.3638 H   0  0  0  0  0  0
  -30.3936  -24.3872   18.3958 H   0  0  0  0  0  0
  -31.2729  -23.0104   24.5215 H   0  0  0  0  0  0
  -31.7264  -21.5874   23.5954 H   0  0  0  0  0  0
  -30.1036  -21.7159   24.3151 H   0  0  0  0  0  0
  -27.4037  -24.8683   20.6540 H   0  0  0  0  0  0
  -27.9332  -24.9379   18.9775 H   0  0  0  0  0  0
  -29.7933  -24.7996   21.3602 H   0  0  0  0  0  0
  1 25  1  0  0  0
  1 30  2  0  0  0
  1 86  1  0  0  0
  2  3  1  0  0  0
  2 25  1  0  0  0
  2 88  1  0  0  0
  2 89  1  0  0  0
  3  4  1  0  0  0
  3 90  1  0  0  0
  3 91  1  0  0  0
  4  5  1  0  0  0
  4 92  1  0  0  0
  4 93  1  0  0  0
  5  6  1  0  0  0
  5 26  1  0  0  0
  5 94  1  0  0  0
  6 25  1  0  0  0
  6 95  1  0  0  0
  6 96  1  0  0  0
  7  8  2  0  0  0
  7 26  1  0  0  0
  7 29  1  0  0  0
  8  9  1  0  0  0
  8 22  1  0  0  0
  9 10  1  0  0  0
  9 27  2  0  0  0
 10 11  2  0  0  0
 10 15  1  0  0  0
 11 12  1  0  0  0
 11 97  1  0  0  0
 12 13  2  0  0  0
 12 98  1  0  0  0
 13 14  1  0  0  0
 13 31  1  0  0  0
 14 15  2  0  0  0
 14 99  1  0  0  0
 15100  1  0  0  0
 16 17  2  0  0  0
 16 21  1  0  0  0
 16 31  1  0  0  0
 17 18  1  0  0  0
 17101  1  0  0  0
 18 19  2  0  0  0
 18102  1  0  0  0
 19 20  1  0  0  0
 19 24  1  0  0  0
 20 21  2  0  0  0
 20103  1  0  0  0
 21 23  1  0  0  0
 22 28  1  0  0  0
 22 32  2  0  0  0
 26 27  1  0  0  0
 28104  1  0  0  0
 28105  1  0  0  0
 29106  1  0  0  0
 29107  1  0  0  0
 33 34  1  0  0  0
 33 66  1  0  0  0
 33 70  2  0  0  0
 34 36  1  0  0  0
 34 59  1  0  0  0
 34108  1  0  0  0
 35 44  2  0  0  0
 35 45  1  0  0  0
 35 68  1  0  0  0
 36 56  1  0  0  0
 36109  1  0  0  0
 37 39  1  0  0  0
 37 47  1  0  0  0
 37 66  1  0  0  0
 37110  1  0  0  0
 38 43  2  0  0  0
 38 46  1  0  0  0
 38 47  1  0  0  0
 39 64  1  0  0  0
 39 67  2  0  0  0
 40 52  1  0  0  0
 40 53  2  0  0  0
 40 58  1  0  0  0
 41111  1  0  0  0
 41112  1  0  0  0
 41113  1  0  0  0
 41 48  1  0  0  0
 42 43  1  0  0  0
 42 66  1  0  0  0
 42114  1  0  0  0
 42115  1  0  0  0
 43 44  1  0  0  0
 44116  1  0  0  0
 45 46  2  0  0  0
 45117  1  0  0  0
 46118  1  0  0  0
 47119  1  0  0  0
 47120  1  0  0  0
 48 56  1  0  0  0
 48 65  1  0  0  0
 48121  1  0  0  0
 49 50  1  0  0  0
 49 53  1  0  0  0
 49 64  1  0  0  0
 49122  1  0  0  0
 50 51  1  0  0  0
 50123  1  0  0  0
 50124  1  0  0  0
 51 52  1  0  0  0
 51125  1  0  0  0
 51126  1  0  0  0
 52127  1  0  0  0
 52128  1  0  0  0
 53 54  1  0  0  0
 54 55  2  0  0  0
 54129  1  0  0  0
 55 57  1  0  0  0
 55130  1  0  0  0
 56 69  2  0  0  0
 57 58  2  0  0  0
 57131  1  0  0  0
 58132  1  0  0  0
 59 60  1  0  0  0
 59 61  1  0  0  0
 59 62  1  0  0  0
 60133  1  0  0  0
 60134  1  0  0  0
 60135  1  0  0  0
 61136  1  0  0  0
 61137  1  0  0  0
 61138  1  0  0  0
 62139  1  0  0  0
 62140  1  0  0  0
 62141  1  0  0  0
 63 65  1  0  0  0
 63142  1  0  0  0
 63143  1  0  0  0
 63144  1  0  0  0
 64145  1  0  0  0
 65146  1  0  0  0
 68 83  1  0  0  0
 71 72  2  0  0  0
 71 74  1  0  0  0
 71147  1  0  0  0
 72 75  1  0  0  0
 72148  1  0  0  0
 73 75  2  0  0  0
 73 76  1  0  0  0
 73149  1  0  0  0
 74 76  2  0  0  0
 74 84  1  0  0  0
 75 85  1  0  0  0
 76 87  1  0  0  0
 77 79  1  0  0  0
 77 85  1  0  0  0
 77150  1  0  0  0
 77151  1  0  0  0
 78 80  1  0  0  0
 78 85  1  0  0  0
 78152  1  0  0  0
 78153  1  0  0  0
 79 86  1  0  0  0
 79154  1  0  0  0
 79155  1  0  0  0
 80 86  1  0  0  0
 80156  1  0  0  0
 80157  1  0  0  0
 81158  1  0  0  0
 81159  1  0  0  0
 81160  1  0  0  0
 81 84  1  0  0  0
 82 87  1  0  0  0
 82161  1  0  0  0
 82162  1  0  0  0
 82163  1  0  0  0
 83 84  1  0  0  0
 83164  1  0  0  0
 83165  1  0  0  0
 84166  1  0  0  0
M  ISO  4   1 100  68 101  83 101  86 100
M  END
> <chiral flag>
0

> <version>
0

> <s_m_source_file>
/data/baiqing/PycharmProjects/Reinvent-master-3.2/result/LINK_invent/BTK/process_docking_weight1_custom_sum_contain_oxygen_bond_distance_aromatic_linkinvent_7_9_3/rearranged_h_0157.sdf

> <i_m_source_file_index>
89

> <r_mmod_Potential_Energy-OPLS-2005>
185.431167602539

> <r_mmod_Stretch_Energy-OPLS-2005>
51.5371017456055

> <r_mmod_Bend_Energy-OPLS-2005>
121.772613525391

> <r_mmod_Torsional_Energy-OPLS-2005>
345.582977294922

> <r_mmod_Improper_Torsional_Energy-OPLS-2005>
17.8596248626709

> <r_mmod_Van_der_Waal_Energy-OPLS-2005>
173.441162109375

> <r_mmod_Electrostatic_Energy-OPLS-2005>
-333.184967041016

> <r_mmod_Solvation_Energy-OPLS-2005>
-214.341903686523

> <b_mmod_Minimization_Converged-OPLS-2005>
0

> <r_mmod_RMS_Derivative-OPLS-2005>
1.34884941577911

$$$$
89
                    3D
 Structure written by MMmdl.
182191  0  0  1  0            999 V2000
  -30.6890  -14.5845   20.4967 C   0  0  0  0  0  0
  -30.4276  -12.3673   19.4370 C   0  0  0  0  0  0
  -29.5023  -12.4837   18.2083 C   0  0  0  0  0  0
  -28.0196  -12.3372   18.6113 C   0  0  0  0  0  0
  -27.6463  -13.2018   19.8481 C   0  0  2  0  0  0
  -28.6960  -13.0403   20.9678 C   0  0  0  0  0  0
  -25.2536  -13.8150   20.5607 C   0  0  0  0  0  0
  -24.1804  -13.0444   20.9145 C   0  0  0  0  0  0
  -24.6354  -11.6911   20.8686 C   0  0  0  0  0  0
  -23.9034  -10.4301   21.0359 C   0  0  0  0  0  0
  -24.3617   -9.4244   21.9143 C   0  0  0  0  0  0
  -23.6317   -8.2271   22.0738 C   0  0  0  0  0  0
  -22.4294   -8.0281   21.3534 C   0  0  0  0  0  0
  -21.9900   -9.0237   20.4635 C   0  0  0  0  0  0
  -22.7196  -10.2131   20.3020 C   0  0  0  0  0  0
  -21.6861   -6.0735   22.5275 C   0  0  0  0  0  0
  -21.4008   -6.5641   23.8209 C   0  0  0  0  0  0
  -21.3650   -5.6789   24.9167 C   0  0  0  0  0  0
  -21.6069   -4.3059   24.7193 C   0  0  0  0  0  0
  -21.8836   -3.8140   23.4313 C   0  0  0  0  0  0
  -21.9204   -4.6963   22.3376 C   0  0  0  0  0  0
  -22.7843  -13.5266   21.1811 C   0  0  0  0  0  0
  -22.1680   -4.2164   21.0948 F   0  0  0  0  0  0
  -21.5625   -3.4537   25.7697 F   0  0  0  0  0  0
  -29.9988  -13.4045   20.3950 N   0  0  0  0  0  0
  -26.2939  -12.9300   20.3239 N   0  0  0  0  0  0
  -25.9267  -11.6474   20.5679 N   0  0  0  0  0  0
  -22.0483  -12.8287   22.0381 N   0  0  0  0  0  0
  -25.4226  -15.1853   20.3944 N   0  0  0  0  0  0
  -31.8951  -14.6099   20.2348 O   0  0  0  0  0  0
  -21.6671   -6.8870   21.4235 O   0  0  0  0  0  0
  -22.3555  -14.5577   20.6637 O   0  0  0  0  0  0
  -24.6147  -31.8690   23.2092 C   0  0  0  0  0  0
  -25.9027  -32.4824   23.8401 C   0  0  1  0  0  0
  -27.2381  -27.4105   20.1064 C   0  0  0  0  0  0
  -25.5851  -33.8615   24.2309 N   0  0  0  0  0  0
  -23.4082  -30.4920   21.5493 C   0  0  2  0  0  0
  -24.8593  -28.9569   20.1199 C   0  0  0  0  0  0
  -22.7426  -29.4663   22.4976 C   0  0  0  0  0  0
  -18.0278  -28.1381   22.8510 C   0  0  0  0  0  0
  -24.1484  -36.7328   23.2648 C   0  0  0  0  0  0
  -25.9427  -30.8221   21.3750 C   0  0  0  0  0  0
  -26.0214  -29.4542   20.7245 C   0  0  0  0  0  0
  -27.2164  -28.6909   20.7214 C   0  0  0  0  0  0
  -26.0598  -26.9409   19.4962 C   0  0  0  0  0  0
  -24.8739  -27.6950   19.5027 C   0  0  0  0  0  0
  -23.6221  -29.8251   20.1657 C   0  0  0  0  0  0
  -25.4096  -36.3104   24.0347 C   0  0  1  0  0  0
  -20.5880  -28.3668   23.1316 C   0  0  2  0  0  0
  -20.6766  -26.9399   22.5429 C   0  0  0  0  0  0
  -19.5735  -26.6392   21.5237 C   0  0  0  0  0  0
  -18.1913  -26.7940   22.1639 C   0  0  0  0  0  0
  -19.1533  -28.8840   23.2914 C   0  0  0  0  0  0
  -18.9461  -30.1458   23.8910 C   0  0  0  0  0  0
  -17.6459  -30.6586   24.0574 C   0  0  0  0  0  0
  -25.9021  -34.9477   23.5132 C   0  0  0  0  0  0
  -16.5345  -29.9096   23.6334 C   0  0  0  0  0  0
  -16.7268  -28.6515   23.0352 C   0  0  0  0  0  0
  -26.4437  -31.6606   25.0739 C   0  0  0  0  0  0
  -25.3691  -31.3772   26.1490 C   0  0  0  0  0  0
  -27.0267  -30.3026   24.6169 C   0  0  0  0  0  0
  -27.6000  -32.4354   25.7481 C   0  0  0  0  0  0
  -27.5581  -37.1820   24.8452 C   0  0  0  0  0  0
  -21.4156  -29.3041   22.3719 N   0  0  0  0  0  0
  -26.4288  -37.3782   23.9401 N   0  0  0  0  0  0
  -24.6721  -31.0770   22.1013 N   0  0  0  0  0  0
  -23.4184  -28.8200   23.3019 O   0  0  0  0  0  0
  -28.3226  -26.5578   20.0015 O   0  0  0  0  0  0
  -26.5614  -34.8928   22.4714 O   0  0  0  0  0  0
  -23.5333  -32.1451   23.7462 O   0  0  0  0  0  0
  -29.8321  -23.8268   20.8200 C   0  0  0  0  0  0
  -30.2609  -23.7606   19.4591 C   0  0  0  0  0  0
  -29.5866  -22.5538   21.4620 C   0  0  0  0  0  0
  -30.2053  -22.5175   18.7728 C   0  0  0  0  0  0
  -29.6951  -21.3434   20.7092 C   0  0  0  0  0  0
  -28.9507  -17.7006   21.6832 C   0  0  0  0  0  0
  -30.6842  -18.1940   20.0022 C   0  0  0  0  0  0
  -28.8311  -16.2445   21.1472 C   0  0  0  0  0  0
  -30.4283  -16.7949   19.3785 C   0  0  0  0  0  0
  -29.4079  -18.7599   20.6556 C   0  0  0  0  0  0
  -30.8454  -24.9820   18.7583 C   0  0  0  0  0  0
  -30.3441  -21.9259   23.8573 C   0  0  0  0  0  0
  -30.9819  -25.3872   22.4842 C   0  0  0  0  0  0
  -29.4257  -21.5574   16.5359 C   0  0  0  0  0  0
  -31.9167  -21.8018   17.0423 C   0  0  0  0  0  0
  -29.2103  -22.4447   22.9510 C   0  0  0  0  0  0
  -29.3936  -26.5728   20.9402 C   0  0  0  0  0  0
  -29.7273  -25.1846   21.6159 C   0  0  1  0  0  0
  -30.5065  -22.3678   17.2750 C   0  0  0  0  0  0
  -29.9470  -21.3510   19.3962 N   0  0  0  0  0  0
  -29.9850  -15.7654   20.3553 N   0  0  0  0  0  0
  -29.5736  -20.0717   21.3202 N   0  0  0  0  0  0
  -31.4687  -12.4765   19.1283 H   0  0  0  0  0  0
  -30.3572  -11.3748   19.8875 H   0  0  0  0  0  0
  -29.7710  -11.7273   17.4696 H   0  0  0  0  0  0
  -29.6538  -13.4485   17.7236 H   0  0  0  0  0  0
  -27.8345  -11.2849   18.8248 H   0  0  0  0  0  0
  -27.3803  -12.5927   17.7649 H   0  0  0  0  0  0
  -27.6643  -14.2316   19.5024 H   0  0  0  0  0  0
  -28.7156  -12.0061   21.3140 H   0  0  0  0  0  0
  -28.4409  -13.6082   21.8557 H   0  0  0  0  0  0
  -25.2752   -9.5794   22.4705 H   0  0  0  0  0  0
  -24.0053   -7.4692   22.7467 H   0  0  0  0  0  0
  -21.0831   -8.8748   19.8952 H   0  0  0  0  0  0
  -22.3624  -10.9673   19.6146 H   0  0  0  0  0  0
  -21.2016   -7.6153   23.9720 H   0  0  0  0  0  0
  -21.1447   -6.0501   25.9083 H   0  0  0  0  0  0
  -22.0623   -2.7602   23.2792 H   0  0  0  0  0  0
  -22.4086  -11.9973   22.4813 H   0  0  0  0  0  0
  -21.1085  -13.1326   22.2505 H   0  0  0  0  0  0
  -24.6594  -15.8446   20.5017 H   0  0  0  0  0  0
  -26.2744  -15.6123   20.0575 H   0  0  0  0  0  0
  -26.7113  -32.5541   23.1174 H   0  0  0  0  0  0
  -24.9901  -33.9767   25.0387 H   0  0  0  0  0  0
  -22.6970  -31.3084   21.4078 H   0  0  0  0  0  0
  -23.3735  -35.9672   23.3296 H   0  0  0  0  0  0
  -24.3589  -36.8955   22.2068 H   0  0  0  0  0  0
  -23.7256  -37.6540   23.6670 H   0  0  0  0  0  0
  -26.0726  -31.5887   20.6100 H   0  0  0  0  0  0
  -26.8227  -30.8666   22.0041 H   0  0  0  0  0  0
  -28.1065  -29.0960   21.1810 H   0  0  0  0  0  0
  -26.0629  -25.9711   19.0177 H   0  0  0  0  0  0
  -23.9834  -27.3063   19.0280 H   0  0  0  0  0  0
  -23.7319  -30.5985   19.4049 H   0  0  0  0  0  0
  -22.7454  -29.2445   19.8733 H   0  0  0  0  0  0
  -25.1286  -36.1957   25.0844 H   0  0  0  0  0  0
  -20.9989  -28.3245   24.1428 H   0  0  0  0  0  0
  -20.5694  -26.2270   23.3617 H   0  0  0  0  0  0
  -21.6628  -26.7447   22.1200 H   0  0  0  0  0  0
  -19.6881  -25.6317   21.1244 H   0  0  0  0  0  0
  -19.6675  -27.3219   20.6783 H   0  0  0  0  0  0
  -17.4197  -26.6730   21.4019 H   0  0  0  0  0  0
  -18.0264  -26.0069   22.9015 H   0  0  0  0  0  0
  -19.7934  -30.7286   24.2258 H   0  0  0  0  0  0
  -17.5011  -31.6269   24.5178 H   0  0  0  0  0  0
  -15.5344  -30.2998   23.7652 H   0  0  0  0  0  0
  -15.8671  -28.0852   22.7024 H   0  0  0  0  0  0
  -24.5804  -30.7182   25.7835 H   0  0  0  0  0  0
  -24.8960  -32.2972   26.4947 H   0  0  0  0  0  0
  -25.8021  -30.8921   27.0247 H   0  0  0  0  0  0
  -26.2848  -29.6807   24.1149 H   0  0  0  0  0  0
  -27.3913  -29.7240   25.4667 H   0  0  0  0  0  0
  -27.8730  -30.4305   23.9413 H   0  0  0  0  0  0
  -27.2574  -33.3617   26.2103 H   0  0  0  0  0  0
  -28.3748  -32.6997   25.0272 H   0  0  0  0  0  0
  -28.0731  -31.8483   26.5357 H   0  0  0  0  0  0
  -28.2589  -38.0128   24.7484 H   0  0  0  0  0  0
  -28.1095  -36.2663   24.6273 H   0  0  0  0  0  0
  -27.2321  -37.1453   25.8864 H   0  0  0  0  0  0
  -20.9287  -29.8771   21.6973 H   0  0  0  0  0  0
  -26.0182  -38.2866   24.1382 H   0  0  0  0  0  0
  -29.6461  -17.6956   22.5241 H   0  0  0  0  0  0
  -27.9860  -17.9957   22.0992 H   0  0  0  0  0  0
  -31.0403  -18.8686   19.2237 H   0  0  0  0  0  0
  -31.4878  -18.1232   20.7354 H   0  0  0  0  0  0
  -27.9436  -16.1853   20.5224 H   0  0  0  0  0  0
  -28.6617  -15.6216   22.0202 H   0  0  0  0  0  0
  -31.3213  -16.4940   18.8303 H   0  0  0  0  0  0
  -29.6572  -16.8809   18.6119 H   0  0  0  0  0  0
  -28.6406  -18.8723   19.8867 H   0  0  0  0  0  0
  -31.4585  -25.5578   19.4471 H   0  0  0  0  0  0
  -30.0656  -25.6173   18.3395 H   0  0  0  0  0  0
  -31.5393  -24.7212   17.9610 H   0  0  0  0  0  0
  -30.0146  -21.8911   24.8963 H   0  0  0  0  0  0
  -31.2267  -22.5609   23.8236 H   0  0  0  0  0  0
  -30.6677  -20.9208   23.5915 H   0  0  0  0  0  0
  -31.0973  -24.6078   23.2281 H   0  0  0  0  0  0
  -30.9438  -26.3323   23.0269 H   0  0  0  0  0  0
  -31.8814  -25.3951   21.8681 H   0  0  0  0  0  0
  -28.4406  -21.9984   16.6899 H   0  0  0  0  0  0
  -29.3854  -20.5219   16.8788 H   0  0  0  0  0  0
  -29.6150  -21.5432   15.4623 H   0  0  0  0  0  0
  -32.6712  -22.4522   17.4845 H   0  0  0  0  0  0
  -32.1366  -21.7128   15.9786 H   0  0  0  0  0  0
  -32.0238  -20.8133   17.4919 H   0  0  0  0  0  0
  -28.3528  -21.7748   23.0333 H   0  0  0  0  0  0
  -28.8462  -23.3761   23.3706 H   0  0  0  0  0  0
  -30.2596  -27.0063   20.4407 H   0  0  0  0  0  0
  -29.1814  -27.2734   21.7467 H   0  0  0  0  0  0
  -28.8685  -25.0819   22.2735 H   0  0  0  0  0  0
  -30.4598  -23.3452   16.7966 H   0  0  0  0  0  0
  -29.4116  -20.0826   22.3187 H   0  0  0  0  0  0
  1 25  1  0  0  0
  1 30  2  0  0  0
  1 91  1  0  0  0
  2  3  1  0  0  0
  2 25  1  0  0  0
  2 93  1  0  0  0
  2 94  1  0  0  0
  3  4  1  0  0  0
  3 95  1  0  0  0
  3 96  1  0  0  0
  4  5  1  0  0  0
  4 97  1  0  0  0
  4 98  1  0  0  0
  5  6  1  0  0  0
  5 26  1  0  0  0
  5 99  1  0  0  0
  6 25  1  0  0  0
  6100  1  0  0  0
  6101  1  0  0  0
  7  8  2  0  0  0
  7 26  1  0  0  0
  7 29  1  0  0  0
  8  9  1  0  0  0
  8 22  1  0  0  0
  9 10  1  0  0  0
  9 27  2  0  0  0
 10 11  2  0  0  0
 10 15  1  0  0  0
 11 12  1  0  0  0
 11102  1  0  0  0
 12 13  2  0  0  0
 12103  1  0  0  0
 13 14  1  0  0  0
 13 31  1  0  0  0
 14 15  2  0  0  0
 14104  1  0  0  0
 15105  1  0  0  0
 16 17  2  0  0  0
 16 21  1  0  0  0
 16 31  1  0  0  0
 17 18  1  0  0  0
 17106  1  0  0  0
 18 19  2  0  0  0
 18107  1  0  0  0
 19 20  1  0  0  0
 19 24  1  0  0  0
 20 21  2  0  0  0
 20108  1  0  0  0
 21 23  1  0  0  0
 22 28  1  0  0  0
 22 32  2  0  0  0
 26 27  1  0  0  0
 28109  1  0  0  0
 28110  1  0  0  0
 29111  1  0  0  0
 29112  1  0  0  0
 33 34  1  0  0  0
 33 66  1  0  0  0
 33 70  2  0  0  0
 34 36  1  0  0  0
 34 59  1  0  0  0
 34113  1  0  0  0
 35 44  2  0  0  0
 35 45  1  0  0  0
 35 68  1  0  0  0
 36 56  1  0  0  0
 36114  1  0  0  0
 37 39  1  0  0  0
 37 47  1  0  0  0
 37 66  1  0  0  0
 37115  1  0  0  0
 38 43  2  0  0  0
 38 46  1  0  0  0
 38 47  1  0  0  0
 39 64  1  0  0  0
 39 67  2  0  0  0
 40 52  1  0  0  0
 40 53  2  0  0  0
 40 58  1  0  0  0
 41116  1  0  0  0
 41117  1  0  0  0
 41118  1  0  0  0
 41 48  1  0  0  0
 42 43  1  0  0  0
 42 66  1  0  0  0
 42119  1  0  0  0
 42120  1  0  0  0
 43 44  1  0  0  0
 44121  1  0  0  0
 45 46  2  0  0  0
 45122  1  0  0  0
 46123  1  0  0  0
 47124  1  0  0  0
 47125  1  0  0  0
 48 56  1  0  0  0
 48 65  1  0  0  0
 48126  1  0  0  0
 49 50  1  0  0  0
 49 53  1  0  0  0
 49 64  1  0  0  0
 49127  1  0  0  0
 50 51  1  0  0  0
 50128  1  0  0  0
 50129  1  0  0  0
 51 52  1  0  0  0
 51130  1  0  0  0
 51131  1  0  0  0
 52132  1  0  0  0
 52133  1  0  0  0
 53 54  1  0  0  0
 54 55  2  0  0  0
 54134  1  0  0  0
 55 57  1  0  0  0
 55135  1  0  0  0
 56 69  2  0  0  0
 57 58  2  0  0  0
 57136  1  0  0  0
 58137  1  0  0  0
 59 60  1  0  0  0
 59 61  1  0  0  0
 59 62  1  0  0  0
 60138  1  0  0  0
 60139  1  0  0  0
 60140  1  0  0  0
 61141  1  0  0  0
 61142  1  0  0  0
 61143  1  0  0  0
 62144  1  0  0  0
 62145  1  0  0  0
 62146  1  0  0  0
 63 65  1  0  0  0
 63147  1  0  0  0
 63148  1  0  0  0
 63149  1  0  0  0
 64150  1  0  0  0
 65151  1  0  0  0
 68 87  1  0  0  0
 71 72  2  0  0  0
 71 73  1  0  0  0
 71 88  1  0  0  0
 72 74  1  0  0  0
 72 81  1  0  0  0
 73 75  2  0  0  0
 73 86  1  0  0  0
 74 89  1  0  0  0
 74 90  2  0  0  0
 75 90  1  0  0  0
 75 92  1  0  0  0
 76 78  1  0  0  0
 76 80  1  0  0  0
 76152  1  0  0  0
 76153  1  0  0  0
 77 79  1  0  0  0
 77 80  1  0  0  0
 77154  1  0  0  0
 77155  1  0  0  0
 78 91  1  0  0  0
 78156  1  0  0  0
 78157  1  0  0  0
 79 91  1  0  0  0
 79158  1  0  0  0
 79159  1  0  0  0
 80 92  1  0  0  0
 80160  1  0  0  0
 81161  1  0  0  0
 81162  1  0  0  0
 81163  1  0  0  0
 82 86  1  0  0  0
 82164  1  0  0  0
 82165  1  0  0  0
 82166  1  0  0  0
 83167  1  0  0  0
 83168  1  0  0  0
 83169  1  0  0  0
 83 88  1  0  0  0
 84170  1  0  0  0
 84171  1  0  0  0
 84172  1  0  0  0
 84 89  1  0  0  0
 85 89  1  0  0  0
 85173  1  0  0  0
 85174  1  0  0  0
 85175  1  0  0  0
 86176  1  0  0  0
 86177  1  0  0  0
 87 88  1  0  0  0
 87178  1  0  0  0
 87179  1  0  0  0
 88180  1  0  0  0
 89181  1  0  0  0
 92182  1  0  0  0
M  ISO  4   1 100  68 101  87 101  91 100
M  END
> <chiral flag>
0

> <version>
0

> <s_m_source_file>
/data/baiqing/PycharmProjects/Reinvent-master-3.2/result/LINK_invent/BTK/process_docking_weight1_custom_sum_contain_oxygen_bond_distance_aromatic_linkinvent_7_9_3/rearranged_h_0157.sdf

> <i_m_source_file_index>
90

> <r_mmod_Potential_Energy-OPLS-2005>
28.2994174957275

> <r_mmod_Stretch_Energy-OPLS-2005>
64.8714752197266

> <r_mmod_Bend_Energy-OPLS-2005>
186.720550537109

> <r_mmod_Torsional_Energy-OPLS-2005>
296.620300292969

> <r_mmod_Improper_Torsional_Energy-OPLS-2005>
18.2478275299072

> <r_mmod_Van_der_Waal_Energy-OPLS-2005>
171.738357543945

> <r_mmod_Electrostatic_Energy-OPLS-2005>
-528.162780761719

> <r_mmod_Solvation_Energy-OPLS-2005>
-214.906280517578

> <b_mmod_Minimization_Converged-OPLS-2005>
0

> <r_mmod_RMS_Derivative-OPLS-2005>
3.24328327178955

$$$$
90
                    3D
 Structure written by MMmdl.
174184  0  0  1  0            999 V2000
  -30.7332  -14.4634   20.5321 C   0  0  0  0  0  0
  -30.4079  -12.2900   19.4248 C   0  0  0  0  0  0
  -29.4884  -12.4894   18.2046 C   0  0  0  0  0  0
  -28.0067  -12.3651   18.6115 C   0  0  0  0  0  0
  -27.6525  -13.2095   19.8648 C   0  0  2  0  0  0
  -28.7004  -13.0305   20.9863 C   0  0  0  0  0  0
  -25.2549  -13.8154   20.5677 C   0  0  0  0  0  0
  -24.1799  -13.0432   20.9177 C   0  0  0  0  0  0
  -24.6365  -11.6900   20.8716 C   0  0  0  0  0  0
  -23.9031  -10.4286   21.0371 C   0  0  0  0  0  0
  -24.3587   -9.4218   21.9162 C   0  0  0  0  0  0
  -23.6287   -8.2248   22.0753 C   0  0  0  0  0  0
  -22.4276   -8.0262   21.3539 C   0  0  0  0  0  0
  -21.9886   -9.0223   20.4641 C   0  0  0  0  0  0
  -22.7200  -10.2113   20.3042 C   0  0  0  0  0  0
  -21.6831   -6.0722   22.5282 C   0  0  0  0  0  0
  -21.3992   -6.5639   23.8219 C   0  0  0  0  0  0
  -21.3658   -5.6793   24.9182 C   0  0  0  0  0  0
  -21.6060   -4.3061   24.7227 C   0  0  0  0  0  0
  -21.8816   -3.8145   23.4352 C   0  0  0  0  0  0
  -21.9188   -4.6953   22.3406 C   0  0  0  0  0  0
  -22.7829  -13.5228   21.1848 C   0  0  0  0  0  0
  -22.1658   -4.2149   21.0978 F   0  0  0  0  0  0
  -21.5655   -3.4531   25.7735 F   0  0  0  0  0  0
  -30.0319  -13.3037   20.4190 N   0  0  0  0  0  0
  -26.2981  -12.9329   20.3348 N   0  0  0  0  0  0
  -25.9296  -11.6489   20.5769 N   0  0  0  0  0  0
  -22.0440  -12.8244   22.0407 N   0  0  0  0  0  0
  -25.4300  -15.1876   20.4089 N   0  0  0  0  0  0
  -31.8922  -14.5866   20.1262 O   0  0  0  0  0  0
  -21.6652   -6.8849   21.4229 O   0  0  0  0  0  0
  -22.3529  -14.5515   20.6682 O   0  0  0  0  0  0
  -24.6117  -31.8685   23.2136 C   0  0  0  0  0  0
  -25.9023  -32.4828   23.8403 C   0  0  1  0  0  0
  -27.2419  -27.4610   20.0693 C   0  0  0  0  0  0
  -25.5897  -33.8625   24.2333 N   0  0  0  0  0  0
  -23.3971  -30.4955   21.5520 C   0  0  2  0  0  0
  -24.8409  -28.9616   20.1165 C   0  0  0  0  0  0
  -22.7380  -29.4683   22.4998 C   0  0  0  0  0  0
  -18.0259  -28.1388   22.8491 C   0  0  0  0  0  0
  -24.1480  -36.7327   23.2642 C   0  0  0  0  0  0
  -25.9242  -30.8391   21.3641 C   0  0  0  0  0  0
  -25.9980  -29.4742   20.7122 C   0  0  0  0  0  0
  -27.1933  -28.7262   20.6950 C   0  0  0  0  0  0
  -26.0593  -26.9520   19.4795 C   0  0  0  0  0  0
  -24.8639  -27.6965   19.5056 C   0  0  0  0  0  0
  -23.6034  -29.8281   20.1667 C   0  0  0  0  0  0
  -25.4096  -36.3123   24.0345 C   0  0  1  0  0  0
  -20.5844  -28.3662   23.1332 C   0  0  2  0  0  0
  -20.6748  -26.9404   22.5419 C   0  0  0  0  0  0
  -19.5741  -26.6393   21.5214 C   0  0  0  0  0  0
  -18.1914  -26.7946   22.1612 C   0  0  0  0  0  0
  -19.1504  -28.8838   23.2917 C   0  0  0  0  0  0
  -18.9440  -30.1447   23.8929 C   0  0  0  0  0  0
  -17.6450  -30.6605   24.0557 C   0  0  0  0  0  0
  -25.9034  -34.9480   23.5140 C   0  0  0  0  0  0
  -16.5336  -29.9108   23.6319 C   0  0  0  0  0  0
  -16.7246  -28.6516   23.0349 C   0  0  0  0  0  0
  -26.4466  -31.6616   25.0735 C   0  0  0  0  0  0
  -25.3735  -31.3705   26.1492 C   0  0  0  0  0  0
  -27.0305  -30.3064   24.6112 C   0  0  0  0  0  0
  -27.6075  -32.4320   25.7470 C   0  0  0  0  0  0
  -27.5582  -37.1804   24.8453 C   0  0  0  0  0  0
  -21.4108  -29.3041   22.3744 N   0  0  0  0  0  0
  -26.4279  -37.3815   23.9427 N   0  0  0  0  0  0
  -24.6623  -31.0814   22.1022 N   0  0  0  0  0  0
  -23.4167  -28.8221   23.3022 O   0  0  0  0  0  0
  -28.4550  -26.8063   20.0805 O   0  0  0  0  0  0
  -26.5592  -34.8931   22.4702 O   0  0  0  0  0  0
  -23.5318  -32.1423   23.7555 O   0  0  0  0  0  0
  -28.7826  -22.6456   20.3620 C   0  0  0  0  0  0
  -31.2322  -21.3067   20.4005 C   0  0  0  0  0  0
  -29.9586  -23.3814   20.1239 C   0  0  0  0  0  0
  -28.8065  -21.2540   20.5897 C   0  0  0  0  0  0
  -31.1935  -22.6928   20.1223 C   0  0  0  0  0  0
  -30.0456  -20.5649   20.6410 C   0  0  0  0  0  0
  -31.4950  -17.4268   21.7196 C   0  0  0  0  0  0
  -30.4956  -17.4879   19.3916 C   0  0  0  0  0  0
  -29.8792  -25.5077   18.5482 C   0  0  0  0  0  0
  -30.4471  -16.3450   22.0861 C   0  0  0  0  0  0
  -29.4671  -16.4429   19.8802 C   0  0  0  0  0  0
  -29.8832  -24.8745   19.9229 C   0  0  1  0  0  0
  -31.0571  -18.3312   20.5467 C   0  0  0  0  0  0
  -28.6358  -25.5629   19.4051 C   0  0  1  0  0  0
  -32.4913  -23.4393   19.8537 C   0  0  0  0  0  0
  -26.5376  -20.7502   19.5730 C   0  0  0  0  0  0
  -26.7980  -20.9299   22.0930 C   0  0  0  0  0  0
  -27.4753  -20.5265   20.7748 C   0  0  0  0  0  0
  -30.0321  -15.5565   20.9151 N   0  0  0  0  0  0
  -30.0296  -19.2239   20.9890 O   0  0  0  0  0  0
  -31.4564  -12.3596   19.1290 H   0  0  0  0  0  0
  -30.2800  -11.2904   19.8451 H   0  0  0  0  0  0
  -29.7225  -11.7551   17.4340 H   0  0  0  0  0  0
  -29.6673  -13.4689   17.7590 H   0  0  0  0  0  0
  -27.8004  -11.3107   18.8014 H   0  0  0  0  0  0
  -27.3647  -12.6522   17.7771 H   0  0  0  0  0  0
  -27.6745  -14.2489   19.5473 H   0  0  0  0  0  0
  -28.6666  -12.0164   21.3855 H   0  0  0  0  0  0
  -28.4745  -13.6881   21.8261 H   0  0  0  0  0  0
  -25.2706   -9.5754   22.4750 H   0  0  0  0  0  0
  -24.0003   -7.4641   22.7477 H   0  0  0  0  0  0
  -21.0829   -8.8745   19.8939 H   0  0  0  0  0  0
  -22.3630  -10.9659   19.6187 H   0  0  0  0  0  0
  -21.1971   -7.6146   23.9726 H   0  0  0  0  0  0
  -21.1489   -6.0523   25.9095 H   0  0  0  0  0  0
  -22.0591   -2.7604   23.2852 H   0  0  0  0  0  0
  -22.4020  -11.9929   22.4869 H   0  0  0  0  0  0
  -21.1049  -13.1300   22.2551 H   0  0  0  0  0  0
  -24.6701  -15.8475   20.5343 H   0  0  0  0  0  0
  -26.2991  -15.6253   20.1330 H   0  0  0  0  0  0
  -26.7086  -32.5539   23.1164 H   0  0  0  0  0  0
  -25.0023  -33.9772   25.0458 H   0  0  0  0  0  0
  -22.6866  -31.3133   21.4139 H   0  0  0  0  0  0
  -23.3747  -35.9656   23.3294 H   0  0  0  0  0  0
  -24.3578  -36.8948   22.2058 H   0  0  0  0  0  0
  -23.7211  -37.6523   23.6651 H   0  0  0  0  0  0
  -26.0318  -31.6043   20.5939 H   0  0  0  0  0  0
  -26.8156  -30.8923   21.9782 H   0  0  0  0  0  0
  -28.0876  -29.1218   21.1559 H   0  0  0  0  0  0
  -26.0170  -25.9948   18.9861 H   0  0  0  0  0  0
  -23.9722  -27.2928   19.0460 H   0  0  0  0  0  0
  -23.7140  -30.6031   19.4074 H   0  0  0  0  0  0
  -22.7254  -29.2499   19.8737 H   0  0  0  0  0  0
  -25.1267  -36.1988   25.0839 H   0  0  0  0  0  0
  -20.9942  -28.3223   24.1452 H   0  0  0  0  0  0
  -20.5638  -26.2278   23.3600 H   0  0  0  0  0  0
  -21.6616  -26.7457   22.1208 H   0  0  0  0  0  0
  -19.6897  -25.6305   21.1245 H   0  0  0  0  0  0
  -19.6711  -27.3199   20.6743 H   0  0  0  0  0  0
  -17.4193  -26.6699   21.4005 H   0  0  0  0  0  0
  -18.0310  -26.0079   22.8994 H   0  0  0  0  0  0
  -19.7926  -30.7236   24.2326 H   0  0  0  0  0  0
  -17.5015  -31.6292   24.5144 H   0  0  0  0  0  0
  -15.5335  -30.3021   23.7652 H   0  0  0  0  0  0
  -15.8641  -28.0855   22.7055 H   0  0  0  0  0  0
  -24.5910  -30.7058   25.7819 H   0  0  0  0  0  0
  -24.8913  -32.2841   26.4976 H   0  0  0  0  0  0
  -25.8081  -30.8839   27.0232 H   0  0  0  0  0  0
  -26.2840  -29.6810   24.1202 H   0  0  0  0  0  0
  -27.4111  -29.7342   25.4586 H   0  0  0  0  0  0
  -27.8665  -30.4407   23.9247 H   0  0  0  0  0  0
  -27.2736  -33.3610   26.2109 H   0  0  0  0  0  0
  -28.3846  -32.6884   25.0257 H   0  0  0  0  0  0
  -28.0793  -31.8389   26.5317 H   0  0  0  0  0  0
  -28.2590  -38.0114   24.7544 H   0  0  0  0  0  0
  -28.1087  -36.2652   24.6221 H   0  0  0  0  0  0
  -27.2312  -37.1392   25.8856 H   0  0  0  0  0  0
  -20.9259  -29.8766   21.6982 H   0  0  0  0  0  0
  -26.0178  -38.2890   24.1456 H   0  0  0  0  0  0
  -27.8319  -23.1561   20.3807 H   0  0  0  0  0  0
  -32.2036  -20.8402   20.4564 H   0  0  0  0  0  0
  -32.4312  -16.9364   21.4519 H   0  0  0  0  0  0
  -31.7254  -18.0407   22.5904 H   0  0  0  0  0  0
  -30.0473  -18.1401   18.6413 H   0  0  0  0  0  0
  -31.3204  -16.9830   18.8878 H   0  0  0  0  0  0
  -29.8627  -24.8457   17.6851 H   0  0  0  0  0  0
  -30.4279  -26.4376   18.4148 H   0  0  0  0  0  0
  -29.5667  -16.8220   22.5183 H   0  0  0  0  0  0
  -30.8480  -15.6828   22.8574 H   0  0  0  0  0  0
  -29.1194  -15.8675   19.0214 H   0  0  0  0  0  0
  -28.5882  -16.9509   20.2794 H   0  0  0  0  0  0
  -30.4345  -25.3876   20.7097 H   0  0  0  0  0  0
  -31.9391  -18.8444   20.1747 H   0  0  0  0  0  0
  -27.7747  -24.9622   19.1340 H   0  0  0  0  0  0
  -33.3455  -22.7637   19.8087 H   0  0  0  0  0  0
  -32.6859  -24.1700   20.6395 H   0  0  0  0  0  0
  -32.4415  -23.9678   18.9006 H   0  0  0  0  0  0
  -27.0113  -20.4404   18.6411 H   0  0  0  0  0  0
  -26.2506  -21.7964   19.4623 H   0  0  0  0  0  0
  -25.6181  -20.1745   19.6803 H   0  0  0  0  0  0
  -27.4468  -20.7224   22.9439 H   0  0  0  0  0  0
  -25.8728  -20.3732   22.2413 H   0  0  0  0  0  0
  -26.5502  -21.9917   22.1164 H   0  0  0  0  0  0
  -27.6621  -19.4547   20.8201 H   0  0  0  0  0  0
  1 25  1  0  0  0
  1 30  2  0  0  0
  1 89  1  0  0  0
  2  3  1  0  0  0
  2 25  1  0  0  0
  2 91  1  0  0  0
  2 92  1  0  0  0
  3  4  1  0  0  0
  3 93  1  0  0  0
  3 94  1  0  0  0
  4  5  1  0  0  0
  4 95  1  0  0  0
  4 96  1  0  0  0
  5  6  1  0  0  0
  5 26  1  0  0  0
  5 97  1  0  0  0
  6 25  1  0  0  0
  6 98  1  0  0  0
  6 99  1  0  0  0
  7  8  2  0  0  0
  7 26  1  0  0  0
  7 29  1  0  0  0
  8  9  1  0  0  0
  8 22  1  0  0  0
  9 10  1  0  0  0
  9 27  2  0  0  0
 10 11  2  0  0  0
 10 15  1  0  0  0
 11 12  1  0  0  0
 11100  1  0  0  0
 12 13  2  0  0  0
 12101  1  0  0  0
 13 14  1  0  0  0
 13 31  1  0  0  0
 14 15  2  0  0  0
 14102  1  0  0  0
 15103  1  0  0  0
 16 17  2  0  0  0
 16 21  1  0  0  0
 16 31  1  0  0  0
 17 18  1  0  0  0
 17104  1  0  0  0
 18 19  2  0  0  0
 18105  1  0  0  0
 19 20  1  0  0  0
 19 24  1  0  0  0
 20 21  2  0  0  0
 20106  1  0  0  0
 21 23  1  0  0  0
 22 28  1  0  0  0
 22 32  2  0  0  0
 26 27  1  0  0  0
 28107  1  0  0  0
 28108  1  0  0  0
 29109  1  0  0  0
 29110  1  0  0  0
 33 34  1  0  0  0
 33 66  1  0  0  0
 33 70  2  0  0  0
 34 36  1  0  0  0
 34 59  1  0  0  0
 34111  1  0  0  0
 35 44  2  0  0  0
 35 45  1  0  0  0
 35 68  1  0  0  0
 36 56  1  0  0  0
 36112  1  0  0  0
 37 39  1  0  0  0
 37 47  1  0  0  0
 37 66  1  0  0  0
 37113  1  0  0  0
 38 43  2  0  0  0
 38 46  1  0  0  0
 38 47  1  0  0  0
 39 64  1  0  0  0
 39 67  2  0  0  0
 40 52  1  0  0  0
 40 53  2  0  0  0
 40 58  1  0  0  0
 41114  1  0  0  0
 41115  1  0  0  0
 41116  1  0  0  0
 41 48  1  0  0  0
 42 43  1  0  0  0
 42 66  1  0  0  0
 42117  1  0  0  0
 42118  1  0  0  0
 43 44  1  0  0  0
 44119  1  0  0  0
 45 46  2  0  0  0
 45120  1  0  0  0
 46121  1  0  0  0
 47122  1  0  0  0
 47123  1  0  0  0
 48 56  1  0  0  0
 48 65  1  0  0  0
 48124  1  0  0  0
 49 50  1  0  0  0
 49 53  1  0  0  0
 49 64  1  0  0  0
 49125  1  0  0  0
 50 51  1  0  0  0
 50126  1  0  0  0
 50127  1  0  0  0
 51 52  1  0  0  0
 51128  1  0  0  0
 51129  1  0  0  0
 52130  1  0  0  0
 52131  1  0  0  0
 53 54  1  0  0  0
 54 55  2  0  0  0
 54132  1  0  0  0
 55 57  1  0  0  0
 55133  1  0  0  0
 56 69  2  0  0  0
 57 58  2  0  0  0
 57134  1  0  0  0
 58135  1  0  0  0
 59 60  1  0  0  0
 59 61  1  0  0  0
 59 62  1  0  0  0
 60136  1  0  0  0
 60137  1  0  0  0
 60138  1  0  0  0
 61139  1  0  0  0
 61140  1  0  0  0
 61141  1  0  0  0
 62142  1  0  0  0
 62143  1  0  0  0
 62144  1  0  0  0
 63 65  1  0  0  0
 63145  1  0  0  0
 63146  1  0  0  0
 63147  1  0  0  0
 64148  1  0  0  0
 65149  1  0  0  0
 68 84  1  0  0  0
 71 73  2  0  0  0
 71 74  1  0  0  0
 71150  1  0  0  0
 72 75  2  0  0  0
 72 76  1  0  0  0
 72151  1  0  0  0
 73 75  1  0  0  0
 73 82  1  0  0  0
 74 76  2  0  0  0
 74 88  1  0  0  0
 75 85  1  0  0  0
 76 90  1  0  0  0
 77 80  1  0  0  0
 77 83  1  0  0  0
 77152  1  0  0  0
 77153  1  0  0  0
 78 81  1  0  0  0
 78 83  1  0  0  0
 78154  1  0  0  0
 78155  1  0  0  0
 79 82  1  0  0  0
 79 84  1  0  0  0
 79156  1  0  0  0
 79157  1  0  0  0
 80 89  1  0  0  0
 80158  1  0  0  0
 80159  1  0  0  0
 81 89  1  0  0  0
 81160  1  0  0  0
 81161  1  0  0  0
 82 84  1  0  0  0
 82162  1  0  0  0
 83 90  1  0  0  0
 83163  1  0  0  0
 84164  1  0  0  0
 85165  1  0  0  0
 85166  1  0  0  0
 85167  1  0  0  0
 86168  1  0  0  0
 86169  1  0  0  0
 86170  1  0  0  0
 86 88  1  0  0  0
 87 88  1  0  0  0
 87171  1  0  0  0
 87172  1  0  0  0
 87173  1  0  0  0
 88174  1  0  0  0
M  ISO  4   1 100  68 101  84 101  89 100
M  END
> <chiral flag>
0

> <version>
0

> <s_m_source_file>
/data/baiqing/PycharmProjects/Reinvent-master-3.2/result/LINK_invent/BTK/process_docking_weight1_custom_sum_contain_oxygen_bond_distance_aromatic_linkinvent_7_9_3/rearranged_h_0157.sdf

> <i_m_source_file_index>
91

> <r_mmod_Potential_Energy-OPLS-2005>
207.253326416016

> <r_mmod_Stretch_Energy-OPLS-2005>
38.1313133239746

> <r_mmod_Bend_Energy-OPLS-2005>
124.825836181641

> <r_mmod_Torsional_Energy-OPLS-2005>
352.306579589844

> <r_mmod_Improper_Torsional_Energy-OPLS-2005>
7.75555944442749

> <r_mmod_Van_der_Waal_Energy-OPLS-2005>
156.616714477539

> <r_mmod_Electrostatic_Energy-OPLS-2005>
-299.442962646484

> <r_mmod_Solvation_Energy-OPLS-2005>
-188.646987915039

> <b_mmod_Minimization_Converged-OPLS-2005>
0

> <r_mmod_RMS_Derivative-OPLS-2005>
2.78221464157104

$$$$
91
                    3D
 Structure written by MMmdl.
166175  0  0  1  0            999 V2000
  -30.6934  -14.5234   20.5465 C   0  0  0  0  0  0
  -30.4260  -12.3337   19.4302 C   0  0  0  0  0  0
  -29.4971  -12.4974   18.2098 C   0  0  0  0  0  0
  -28.0199  -12.3503   18.6276 C   0  0  0  0  0  0
  -27.6583  -13.2134   19.8674 C   0  0  2  0  0  0
  -28.7028  -13.0328   20.9906 C   0  0  0  0  0  0
  -25.2577  -13.8167   20.5694 C   0  0  0  0  0  0
  -24.1839  -13.0440   20.9194 C   0  0  0  0  0  0
  -24.6409  -11.6906   20.8730 C   0  0  0  0  0  0
  -23.9066  -10.4296   21.0397 C   0  0  0  0  0  0
  -24.3620   -9.4202   21.9183 C   0  0  0  0  0  0
  -23.6289   -8.2240   22.0746 C   0  0  0  0  0  0
  -22.4275   -8.0270   21.3542 C   0  0  0  0  0  0
  -21.9910   -9.0240   20.4638 C   0  0  0  0  0  0
  -22.7233  -10.2122   20.3050 C   0  0  0  0  0  0
  -21.6859   -6.0731   22.5284 C   0  0  0  0  0  0
  -21.3992   -6.5629   23.8211 C   0  0  0  0  0  0
  -21.3659   -5.6790   24.9181 C   0  0  0  0  0  0
  -21.6056   -4.3051   24.7233 C   0  0  0  0  0  0
  -21.8817   -3.8143   23.4351 C   0  0  0  0  0  0
  -21.9181   -4.6959   22.3412 C   0  0  0  0  0  0
  -22.7847  -13.5222   21.1849 C   0  0  0  0  0  0
  -22.1658   -4.2152   21.0991 F   0  0  0  0  0  0
  -21.5641   -3.4529   25.7739 F   0  0  0  0  0  0
  -30.0266  -13.3416   20.4277 N   0  0  0  0  0  0
  -26.3017  -12.9359   20.3344 N   0  0  0  0  0  0
  -25.9345  -11.6514   20.5776 N   0  0  0  0  0  0
  -22.0493  -12.8198   22.0403 N   0  0  0  0  0  0
  -25.4315  -15.1891   20.4138 N   0  0  0  0  0  0
  -31.8390  -14.6834   20.1191 O   0  0  0  0  0  0
  -21.6640   -6.8872   21.4247 O   0  0  0  0  0  0
  -22.3523  -14.5519   20.6678 O   0  0  0  0  0  0
  -24.6192  -31.8650   23.2099 C   0  0  0  0  0  0
  -25.9072  -32.4800   23.8391 C   0  0  1  0  0  0
  -27.2258  -27.3880   20.0791 C   0  0  0  0  0  0
  -25.5936  -33.8607   24.2341 N   0  0  0  0  0  0
  -23.4078  -30.4911   21.5517 C   0  0  2  0  0  0
  -24.8532  -28.9586   20.1068 C   0  0  0  0  0  0
  -22.7434  -29.4638   22.4968 C   0  0  0  0  0  0
  -18.0277  -28.1359   22.8510 C   0  0  0  0  0  0
  -24.1491  -36.7278   23.2640 C   0  0  0  0  0  0
  -25.9448  -30.8082   21.3792 C   0  0  0  0  0  0
  -26.0147  -29.4413   20.7214 C   0  0  0  0  0  0
  -27.1972  -28.6556   20.7212 C   0  0  0  0  0  0
  -26.0450  -26.9452   19.4449 C   0  0  0  0  0  0
  -24.8652  -27.7105   19.4673 C   0  0  0  0  0  0
  -23.6159  -29.8281   20.1638 C   0  0  0  0  0  0
  -25.4119  -36.3089   24.0335 C   0  0  1  0  0  0
  -20.5881  -28.3649   23.1319 C   0  0  2  0  0  0
  -20.6776  -26.9388   22.5411 C   0  0  0  0  0  0
  -19.5742  -26.6368   21.5219 C   0  0  0  0  0  0
  -18.1916  -26.7911   22.1629 C   0  0  0  0  0  0
  -19.1530  -28.8820   23.2913 C   0  0  0  0  0  0
  -18.9457  -30.1439   23.8903 C   0  0  0  0  0  0
  -17.6454  -30.6576   24.0553 C   0  0  0  0  0  0
  -25.9055  -34.9455   23.5142 C   0  0  0  0  0  0
  -16.5347  -29.9064   23.6334 C   0  0  0  0  0  0
  -16.7262  -28.6481   23.0354 C   0  0  0  0  0  0
  -26.4500  -31.6583   25.0724 C   0  0  0  0  0  0
  -25.3751  -31.3676   26.1466 C   0  0  0  0  0  0
  -27.0332  -30.3016   24.6123 C   0  0  0  0  0  0
  -27.6089  -32.4305   25.7464 C   0  0  0  0  0  0
  -27.5589  -37.1796   24.8477 C   0  0  0  0  0  0
  -21.4156  -29.3021   22.3709 N   0  0  0  0  0  0
  -26.4301  -37.3775   23.9416 N   0  0  0  0  0  0
  -24.6757  -31.0705   22.1031 N   0  0  0  0  0  0
  -23.4189  -28.8187   23.3019 O   0  0  0  0  0  0
  -28.3663  -26.5957   20.1432 O   0  0  0  0  0  0
  -26.5577  -34.8913   22.4681 O   0  0  0  0  0  0
  -23.5380  -32.1445   23.7472 O   0  0  0  0  0  0
  -30.1204  -21.3071   19.8907 C   0  0  0  0  0  0
  -28.0499  -21.0602   21.1021 C   0  0  0  0  0  0
  -27.6590  -22.3287   20.5685 C   0  0  0  0  0  0
  -29.3132  -20.5211   20.7413 C   0  0  0  0  0  0
  -28.5500  -23.0319   19.7127 C   0  0  0  0  0  0
  -27.7253  -20.2151   24.6012 C   0  0  0  0  0  0
  -28.0984  -21.6001   24.1311 C   0  0  0  0  0  0
  -26.9858  -20.8404   23.4366 C   0  0  0  0  0  0
  -26.2770  -22.9164   20.8549 C   0  0  0  0  0  0
  -27.1256  -20.2673   22.0302 C   0  0  0  0  0  0
  -28.0999  -24.2548   18.8738 C   0  0  0  0  0  0
  -30.4587  -16.9606   21.2158 C   0  0  0  0  0  0
  -28.7197  -25.6905   19.0647 C   0  0  0  0  0  0
  -29.5645  -18.0904   20.6081 C   0  0  0  0  0  0
  -29.7560  -22.5129   19.3890 N   0  0  0  0  0  0
  -29.9790  -15.5688   21.0179 N   0  0  0  0  0  0
  -29.8101  -19.3410   21.2888 O   0  0  0  0  0  0
  -31.4708  -12.4342   19.1279 H   0  0  0  0  0  0
  -30.3309  -11.3307   19.8495 H   0  0  0  0  0  0
  -29.7470  -11.7615   17.4432 H   0  0  0  0  0  0
  -29.6551  -13.4774   17.7563 H   0  0  0  0  0  0
  -27.8406  -11.2959   18.8407 H   0  0  0  0  0  0
  -27.3647  -12.6002   17.7927 H   0  0  0  0  0  0
  -27.6916  -14.2556   19.5470 H   0  0  0  0  0  0
  -28.6920  -12.0048   21.3528 H   0  0  0  0  0  0
  -28.4640  -13.6511   21.8568 H   0  0  0  0  0  0
  -25.2775   -9.5654   22.4752 H   0  0  0  0  0  0
  -24.0003   -7.4615   22.7444 H   0  0  0  0  0  0
  -21.0849   -8.8731   19.8942 H   0  0  0  0  0  0
  -22.3683  -10.9650   19.6140 H   0  0  0  0  0  0
  -21.1973   -7.6134   23.9704 H   0  0  0  0  0  0
  -21.1498   -6.0528   25.9081 H   0  0  0  0  0  0
  -22.0604   -2.7607   23.2852 H   0  0  0  0  0  0
  -22.4125  -11.9879   22.4830 H   0  0  0  0  0  0
  -21.1092  -13.1182   22.2590 H   0  0  0  0  0  0
  -24.6653  -15.8435   20.5250 H   0  0  0  0  0  0
  -26.2877  -15.6305   20.1045 H   0  0  0  0  0  0
  -26.7124  -32.5484   23.1129 H   0  0  0  0  0  0
  -25.0151  -33.9809   25.0524 H   0  0  0  0  0  0
  -22.7002  -31.3118   21.4156 H   0  0  0  0  0  0
  -23.3753  -35.9608   23.3305 H   0  0  0  0  0  0
  -24.3607  -36.8894   22.2060 H   0  0  0  0  0  0
  -23.7237  -37.6485   23.6647 H   0  0  0  0  0  0
  -26.0741  -31.5716   20.6125 H   0  0  0  0  0  0
  -26.8284  -30.8523   22.0023 H   0  0  0  0  0  0
  -28.0858  -29.0181   21.2189 H   0  0  0  0  0  0
  -25.9878  -26.0030   18.9341 H   0  0  0  0  0  0
  -23.9746  -27.3364   18.9796 H   0  0  0  0  0  0
  -23.7188  -30.6067   19.4076 H   0  0  0  0  0  0
  -22.7395  -29.2488   19.8680 H   0  0  0  0  0  0
  -25.1282  -36.1965   25.0819 H   0  0  0  0  0  0
  -20.9973  -28.3200   24.1437 H   0  0  0  0  0  0
  -20.5692  -26.2238   23.3581 H   0  0  0  0  0  0
  -21.6647  -26.7426   22.1198 H   0  0  0  0  0  0
  -19.6902  -25.6278   21.1233 H   0  0  0  0  0  0
  -19.6697  -27.3197   20.6765 H   0  0  0  0  0  0
  -17.4199  -26.6681   21.4012 H   0  0  0  0  0  0
  -18.0320  -26.0028   22.9002 H   0  0  0  0  0  0
  -19.7927  -30.7273   24.2256 H   0  0  0  0  0  0
  -17.4997  -31.6264   24.5148 H   0  0  0  0  0  0
  -15.5346  -30.2957   23.7671 H   0  0  0  0  0  0
  -15.8660  -28.0807   22.7050 H   0  0  0  0  0  0
  -24.5968  -30.6971   25.7807 H   0  0  0  0  0  0
  -24.8863  -32.2803   26.4878 H   0  0  0  0  0  0
  -25.8108  -30.8891   27.0241 H   0  0  0  0  0  0
  -26.2873  -29.6760   24.1199 H   0  0  0  0  0  0
  -27.4121  -29.7295   25.4604 H   0  0  0  0  0  0
  -27.8708  -30.4321   23.9262 H   0  0  0  0  0  0
  -27.2743  -33.3647   26.1982 H   0  0  0  0  0  0
  -28.3903  -32.6795   25.0267 H   0  0  0  0  0  0
  -28.0707  -31.8424   26.5409 H   0  0  0  0  0  0
  -28.2601  -38.0095   24.7538 H   0  0  0  0  0  0
  -28.1091  -36.2636   24.6283 H   0  0  0  0  0  0
  -27.2307  -37.1419   25.8877 H   0  0  0  0  0  0
  -20.9301  -29.8743   21.6946 H   0  0  0  0  0  0
  -26.0186  -38.2850   24.1419 H   0  0  0  0  0  0
  -31.1007  -20.9591   19.6034 H   0  0  0  0  0  0
  -27.1881  -20.1253   25.5445 H   0  0  0  0  0  0
  -28.4128  -19.4004   24.3788 H   0  0  0  0  0  0
  -29.0469  -21.7158   23.6095 H   0  0  0  0  0  0
  -27.8046  -22.4463   24.7512 H   0  0  0  0  0  0
  -25.9771  -21.1845   23.6569 H   0  0  0  0  0  0
  -26.3290  -23.9982   20.9916 H   0  0  0  0  0  0
  -25.8104  -22.5221   21.7532 H   0  0  0  0  0  0
  -25.6006  -22.7153   20.0236 H   0  0  0  0  0  0
  -27.4627  -19.2378   22.1189 H   0  0  0  0  0  0
  -26.1352  -20.1919   21.5763 H   0  0  0  0  0  0
  -28.3560  -23.9723   17.8518 H   0  0  0  0  0  0
  -27.0187  -24.2808   18.8332 H   0  0  0  0  0  0
  -31.4802  -17.0842   20.8494 H   0  0  0  0  0  0
  -30.5183  -17.1083   22.2934 H   0  0  0  0  0  0
  -29.8042  -25.5779   19.0918 H   0  0  0  0  0  0
  -28.5275  -26.2408   18.1428 H   0  0  0  0  0  0
  -28.5138  -17.8236   20.7083 H   0  0  0  0  0  0
  -29.7674  -18.1901   19.5411 H   0  0  0  0  0  0
  -29.0353  -15.3661   21.3135 H   0  0  0  0  0  0
  1 25  1  0  0  0
  1 30  2  0  0  0
  1 86  1  0  0  0
  2  3  1  0  0  0
  2 25  1  0  0  0
  2 88  1  0  0  0
  2 89  1  0  0  0
  3  4  1  0  0  0
  3 90  1  0  0  0
  3 91  1  0  0  0
  4  5  1  0  0  0
  4 92  1  0  0  0
  4 93  1  0  0  0
  5  6  1  0  0  0
  5 26  1  0  0  0
  5 94  1  0  0  0
  6 25  1  0  0  0
  6 95  1  0  0  0
  6 96  1  0  0  0
  7  8  2  0  0  0
  7 26  1  0  0  0
  7 29  1  0  0  0
  8  9  1  0  0  0
  8 22  1  0  0  0
  9 10  1  0  0  0
  9 27  2  0  0  0
 10 11  2  0  0  0
 10 15  1  0  0  0
 11 12  1  0  0  0
 11 97  1  0  0  0
 12 13  2  0  0  0
 12 98  1  0  0  0
 13 14  1  0  0  0
 13 31  1  0  0  0
 14 15  2  0  0  0
 14 99  1  0  0  0
 15100  1  0  0  0
 16 17  2  0  0  0
 16 21  1  0  0  0
 16 31  1  0  0  0
 17 18  1  0  0  0
 17101  1  0  0  0
 18 19  2  0  0  0
 18102  1  0  0  0
 19 20  1  0  0  0
 19 24  1  0  0  0
 20 21  2  0  0  0
 20103  1  0  0  0
 21 23  1  0  0  0
 22 28  1  0  0  0
 22 32  2  0  0  0
 26 27  1  0  0  0
 28104  1  0  0  0
 28105  1  0  0  0
 29106  1  0  0  0
 29107  1  0  0  0
 33 34  1  0  0  0
 33 66  1  0  0  0
 33 70  2  0  0  0
 34 36  1  0  0  0
 34 59  1  0  0  0
 34108  1  0  0  0
 35 44  2  0  0  0
 35 45  1  0  0  0
 35 68  1  0  0  0
 36 56  1  0  0  0
 36109  1  0  0  0
 37 39  1  0  0  0
 37 47  1  0  0  0
 37 66  1  0  0  0
 37110  1  0  0  0
 38 43  2  0  0  0
 38 46  1  0  0  0
 38 47  1  0  0  0
 39 64  1  0  0  0
 39 67  2  0  0  0
 40 52  1  0  0  0
 40 53  2  0  0  0
 40 58  1  0  0  0
 41111  1  0  0  0
 41112  1  0  0  0
 41113  1  0  0  0
 41 48  1  0  0  0
 42 43  1  0  0  0
 42 66  1  0  0  0
 42114  1  0  0  0
 42115  1  0  0  0
 43 44  1  0  0  0
 44116  1  0  0  0
 45 46  2  0  0  0
 45117  1  0  0  0
 46118  1  0  0  0
 47119  1  0  0  0
 47120  1  0  0  0
 48 56  1  0  0  0
 48 65  1  0  0  0
 48121  1  0  0  0
 49 50  1  0  0  0
 49 53  1  0  0  0
 49 64  1  0  0  0
 49122  1  0  0  0
 50 51  1  0  0  0
 50123  1  0  0  0
 50124  1  0  0  0
 51 52  1  0  0  0
 51125  1  0  0  0
 51126  1  0  0  0
 52127  1  0  0  0
 52128  1  0  0  0
 53 54  1  0  0  0
 54 55  2  0  0  0
 54129  1  0  0  0
 55 57  1  0  0  0
 55130  1  0  0  0
 56 69  2  0  0  0
 57 58  2  0  0  0
 57131  1  0  0  0
 58132  1  0  0  0
 59 60  1  0  0  0
 59 61  1  0  0  0
 59 62  1  0  0  0
 60133  1  0  0  0
 60134  1  0  0  0
 60135  1  0  0  0
 61136  1  0  0  0
 61137  1  0  0  0
 61138  1  0  0  0
 62139  1  0  0  0
 62140  1  0  0  0
 62141  1  0  0  0
 63 65  1  0  0  0
 63142  1  0  0  0
 63143  1  0  0  0
 63144  1  0  0  0
 64145  1  0  0  0
 65146  1  0  0  0
 68 83  1  0  0  0
 71 74  2  0  0  0
 71 85  1  0  0  0
 71147  1  0  0  0
 72 73  2  0  0  0
 72 74  1  0  0  0
 72 80  1  0  0  0
 73 75  1  0  0  0
 73 79  1  0  0  0
 74 87  1  0  0  0
 75 81  1  0  0  0
 75 85  2  0  0  0
 76 77  1  0  0  0
 76 78  1  0  0  0
 76148  1  0  0  0
 76149  1  0  0  0
 77 78  1  0  0  0
 77150  1  0  0  0
 77151  1  0  0  0
 78 80  1  0  0  0
 78152  1  0  0  0
 79153  1  0  0  0
 79154  1  0  0  0
 79155  1  0  0  0
 80156  1  0  0  0
 80157  1  0  0  0
 81 83  1  0  0  0
 81158  1  0  0  0
 81159  1  0  0  0
 82 84  1  0  0  0
 82 86  1  0  0  0
 82160  1  0  0  0
 82161  1  0  0  0
 83162  1  0  0  0
 83163  1  0  0  0
 84 87  1  0  0  0
 84164  1  0  0  0
 84165  1  0  0  0
 86166  1  0  0  0
M  ISO  4   1 100  68 101  83 101  86 100
M  END
> <chiral flag>
0

> <version>
0

> <s_m_source_file>
/data/baiqing/PycharmProjects/Reinvent-master-3.2/result/LINK_invent/BTK/process_docking_weight1_custom_sum_contain_oxygen_bond_distance_aromatic_linkinvent_7_9_3/rearranged_h_0157.sdf

> <i_m_source_file_index>
92

> <r_mmod_Potential_Energy-OPLS-2005>
-56.6916084289551

> <r_mmod_Stretch_Energy-OPLS-2005>
52.0271644592285

> <r_mmod_Bend_Energy-OPLS-2005>
140.358703613281

> <r_mmod_Torsional_Energy-OPLS-2005>
266.904174804688

> <r_mmod_Improper_Torsional_Energy-OPLS-2005>
5.36883687973022

> <r_mmod_Van_der_Waal_Energy-OPLS-2005>
150.36637878418

> <r_mmod_Electrostatic_Energy-OPLS-2005>
-468.896728515625

> <r_mmod_Solvation_Energy-OPLS-2005>
-226.463088989258

> <b_mmod_Minimization_Converged-OPLS-2005>
0

> <r_mmod_RMS_Derivative-OPLS-2005>
3.09224009513855

$$$$
92
                    3D
 Structure written by MMmdl.
166175  0  0  1  0            999 V2000
  -30.7137  -14.6135   20.4551 C   0  0  0  0  0  0
  -30.3953  -12.3681   19.4643 C   0  0  0  0  0  0
  -29.4923  -12.4870   18.2217 C   0  0  0  0  0  0
  -28.0119  -12.3502   18.6200 C   0  0  0  0  0  0
  -27.6306  -13.2368   19.8359 C   0  0  2  0  0  0
  -28.6741  -13.1720   20.9722 C   0  0  0  0  0  0
  -25.2467  -13.8250   20.5669 C   0  0  0  0  0  0
  -24.1774  -13.0461   20.9178 C   0  0  0  0  0  0
  -24.6363  -11.6917   20.8714 C   0  0  0  0  0  0
  -23.9062  -10.4311   21.0403 C   0  0  0  0  0  0
  -24.3600   -9.4223   21.9154 C   0  0  0  0  0  0
  -23.6268   -8.2272   22.0723 C   0  0  0  0  0  0
  -22.4260   -8.0316   21.3532 C   0  0  0  0  0  0
  -21.9914   -9.0275   20.4608 C   0  0  0  0  0  0
  -22.7243  -10.2149   20.3033 C   0  0  0  0  0  0
  -21.6872   -6.0736   22.5275 C   0  0  0  0  0  0
  -21.4042   -6.5631   23.8211 C   0  0  0  0  0  0
  -21.3657   -5.6774   24.9167 C   0  0  0  0  0  0
  -21.6037   -4.3046   24.7234 C   0  0  0  0  0  0
  -21.8823   -3.8142   23.4359 C   0  0  0  0  0  0
  -21.9202   -4.6955   22.3406 C   0  0  0  0  0  0
  -22.7790  -13.5207   21.1832 C   0  0  0  0  0  0
  -22.1666   -4.2114   21.0997 F   0  0  0  0  0  0
  -21.5599   -3.4558   25.7772 F   0  0  0  0  0  0
  -29.9899  -13.4521   20.3863 N   0  0  0  0  0  0
  -26.2858  -12.9421   20.3197 N   0  0  0  0  0  0
  -25.9277  -11.6575   20.5697 N   0  0  0  0  0  0
  -22.0450  -12.8165   22.0397 N   0  0  0  0  0  0
  -25.4216  -15.1983   20.4066 N   0  0  0  0  0  0
  -31.9217  -14.5512   20.2986 O   0  0  0  0  0  0
  -21.6655   -6.8880   21.4240 O   0  0  0  0  0  0
  -22.3433  -14.5498   20.6678 O   0  0  0  0  0  0
  -24.6180  -31.8657   23.2103 C   0  0  0  0  0  0
  -25.9056  -32.4812   23.8418 C   0  0  1  0  0  0
  -27.2186  -27.3833   20.1213 C   0  0  0  0  0  0
  -25.5897  -33.8615   24.2332 N   0  0  0  0  0  0
  -23.4071  -30.4910   21.5518 C   0  0  2  0  0  0
  -24.8520  -28.9589   20.1121 C   0  0  0  0  0  0
  -22.7436  -29.4627   22.4961 C   0  0  0  0  0  0
  -18.0269  -28.1369   22.8493 C   0  0  0  0  0  0
  -24.1472  -36.7322   23.2636 C   0  0  0  0  0  0
  -25.9400  -30.8214   21.3662 C   0  0  0  0  0  0
  -26.0167  -29.4536   20.7127 C   0  0  0  0  0  0
  -27.2034  -28.6751   20.7118 C   0  0  0  0  0  0
  -26.0334  -26.9270   19.5000 C   0  0  0  0  0  0
  -24.8600  -27.7000   19.4944 C   0  0  0  0  0  0
  -23.6164  -29.8298   20.1646 C   0  0  0  0  0  0
  -25.4086  -36.3100   24.0332 C   0  0  1  0  0  0
  -20.5872  -28.3653   23.1302 C   0  0  2  0  0  0
  -20.6737  -26.9380   22.5409 C   0  0  0  0  0  0
  -19.5707  -26.6370   21.5211 C   0  0  0  0  0  0
  -18.1900  -26.7915   22.1627 C   0  0  0  0  0  0
  -19.1530  -28.8824   23.2901 C   0  0  0  0  0  0
  -18.9450  -30.1441   23.8907 C   0  0  0  0  0  0
  -17.6452  -30.6579   24.0562 C   0  0  0  0  0  0
  -25.9025  -34.9470   23.5132 C   0  0  0  0  0  0
  -16.5341  -29.9080   23.6324 C   0  0  0  0  0  0
  -16.7264  -28.6492   23.0349 C   0  0  0  0  0  0
  -26.4483  -31.6597   25.0763 C   0  0  0  0  0  0
  -25.3763  -31.3687   26.1530 C   0  0  0  0  0  0
  -27.0306  -30.3038   24.6144 C   0  0  0  0  0  0
  -27.6053  -32.4315   25.7539 C   0  0  0  0  0  0
  -27.5577  -37.1788   24.8444 C   0  0  0  0  0  0
  -21.4149  -29.3040   22.3731 N   0  0  0  0  0  0
  -26.4251  -37.3800   23.9451 N   0  0  0  0  0  0
  -24.6746  -31.0740   22.1022 N   0  0  0  0  0  0
  -23.4186  -28.8167   23.3005 O   0  0  0  0  0  0
  -28.3488  -26.5717   20.1818 O   0  0  0  0  0  0
  -26.5590  -34.8922   22.4693 O   0  0  0  0  0  0
  -23.5370  -32.1409   23.7494 O   0  0  0  0  0  0
  -31.7922  -19.0406   19.2370 C   0  0  0  0  0  0
  -29.4771  -18.2619   20.5193 C   0  0  0  0  0  0
  -30.8423  -20.0318   19.5258 C   0  0  0  0  0  0
  -31.6136  -17.6736   19.5338 C   0  0  0  0  0  0
  -29.6559  -19.6618   20.2141 C   0  0  0  0  0  0
  -30.4147  -17.2181   20.1875 C   0  0  0  0  0  0
  -28.2339  -24.2902   19.1236 C   0  0  0  0  0  0
  -29.1259  -24.5184   21.4107 C   0  0  0  0  0  0
  -27.8994  -22.7937   19.4006 C   0  0  0  0  0  0
  -28.8354  -23.0010   21.6715 C   0  0  0  0  0  0
  -28.1303  -25.1445   20.4074 C   0  0  1  0  0  0
  -31.1875  -21.4469   19.0559 C   0  0  0  0  0  0
  -32.7814  -16.8116   19.0737 C   0  0  0  0  0  0
  -28.5513  -20.6895   20.6487 C   0  0  0  0  0  0
  -30.0415  -15.8141   20.4991 N   0  0  0  0  0  0
  -28.7912  -22.1695   20.4259 N   0  3  1  0  0  0
  -31.4452  -12.4245   19.1713 H   0  0  0  0  0  0
  -30.2728  -11.3941   19.9416 H   0  0  0  0  0  0
  -29.7577  -11.7257   17.4877 H   0  0  0  0  0  0
  -29.6595  -13.4517   17.7355 H   0  0  0  0  0  0
  -27.8218  -11.3005   18.8485 H   0  0  0  0  0  0
  -27.3810  -12.5881   17.7655 H   0  0  0  0  0  0
  -27.6267  -14.2598   19.4599 H   0  0  0  0  0  0
  -28.6741  -12.1854   21.4358 H   0  0  0  0  0  0
  -28.4320  -13.8847   21.7614 H   0  0  0  0  0  0
  -25.2724   -9.5703   22.4735 H   0  0  0  0  0  0
  -23.9975   -7.4669   22.7442 H   0  0  0  0  0  0
  -21.0858   -8.8766   19.8895 H   0  0  0  0  0  0
  -22.3673  -10.9676   19.6152 H   0  0  0  0  0  0
  -21.2056   -7.6142   23.9701 H   0  0  0  0  0  0
  -21.1455   -6.0520   25.9059 H   0  0  0  0  0  0
  -22.0599   -2.7614   23.2889 H   0  0  0  0  0  0
  -22.4128  -11.9871   22.4809 H   0  0  0  0  0  0
  -21.1044  -13.1144   22.2597 H   0  0  0  0  0  0
  -24.6590  -15.8625   20.5009 H   0  0  0  0  0  0
  -26.2679  -15.6252   20.0494 H   0  0  0  0  0  0
  -26.7135  -32.5510   23.1194 H   0  0  0  0  0  0
  -25.0042  -33.9789   25.0472 H   0  0  0  0  0  0
  -22.6969  -31.3093   21.4141 H   0  0  0  0  0  0
  -23.3750  -35.9627   23.3196 H   0  0  0  0  0  0
  -24.3590  -36.9056   22.2070 H   0  0  0  0  0  0
  -23.7172  -37.6470   23.6729 H   0  0  0  0  0  0
  -26.0468  -31.5833   20.5936 H   0  0  0  0  0  0
  -26.8290  -30.8823   21.9817 H   0  0  0  0  0  0
  -28.0961  -29.0472   21.1949 H   0  0  0  0  0  0
  -25.9851  -25.9623   19.0251 H   0  0  0  0  0  0
  -23.9667  -27.3160   19.0223 H   0  0  0  0  0  0
  -23.7255  -30.6059   19.4056 H   0  0  0  0  0  0
  -22.7405  -29.2503   19.8663 H   0  0  0  0  0  0
  -25.1248  -36.1943   25.0814 H   0  0  0  0  0  0
  -20.9961  -28.3212   24.1423 H   0  0  0  0  0  0
  -20.5598  -26.2276   23.3616 H   0  0  0  0  0  0
  -21.6615  -26.7380   22.1237 H   0  0  0  0  0  0
  -19.6861  -25.6282   21.1244 H   0  0  0  0  0  0
  -19.6655  -27.3182   20.6745 H   0  0  0  0  0  0
  -17.4170  -26.6676   21.4038 H   0  0  0  0  0  0
  -18.0300  -26.0063   22.9020 H   0  0  0  0  0  0
  -19.7929  -30.7257   24.2279 H   0  0  0  0  0  0
  -17.5003  -31.6270   24.5150 H   0  0  0  0  0  0
  -15.5342  -30.2974   23.7647 H   0  0  0  0  0  0
  -15.8666  -28.0818   22.7046 H   0  0  0  0  0  0
  -24.5937  -30.7020   25.7886 H   0  0  0  0  0  0
  -24.8961  -32.2836   26.5018 H   0  0  0  0  0  0
  -25.8158  -30.8851   27.0273 H   0  0  0  0  0  0
  -26.2853  -29.6809   24.1189 H   0  0  0  0  0  0
  -27.4049  -29.7263   25.4609 H   0  0  0  0  0  0
  -27.8698  -30.4350   23.9313 H   0  0  0  0  0  0
  -27.2677  -33.3617   26.2119 H   0  0  0  0  0  0
  -28.3881  -32.6858   25.0386 H   0  0  0  0  0  0
  -28.0696  -31.8430   26.5464 H   0  0  0  0  0  0
  -28.2508  -38.0171   24.7608 H   0  0  0  0  0  0
  -28.1156  -36.2707   24.6104 H   0  0  0  0  0  0
  -27.2336  -37.1245   25.8851 H   0  0  0  0  0  0
  -20.9296  -29.8830   21.7025 H   0  0  0  0  0  0
  -26.0126  -38.2848   24.1547 H   0  0  0  0  0  0
  -32.7065  -19.3510   18.7483 H   0  0  0  0  0  0
  -28.5660  -17.9819   21.0283 H   0  0  0  0  0  0
  -27.5678  -24.6705   18.3484 H   0  0  0  0  0  0
  -29.2396  -24.3746   18.7065 H   0  0  0  0  0  0
  -30.1466  -24.6444   21.0490 H   0  0  0  0  0  0
  -29.0735  -25.0633   22.3557 H   0  0  0  0  0  0
  -27.9665  -22.2318   18.4671 H   0  0  0  0  0  0
  -26.8626  -22.7175   19.7340 H   0  0  0  0  0  0
  -27.8818  -22.9073   22.1964 H   0  0  0  0  0  0
  -29.5962  -22.6028   22.3449 H   0  0  0  0  0  0
  -27.1404  -25.0029   20.8473 H   0  0  0  0  0  0
  -32.1004  -21.4594   18.4580 H   0  0  0  0  0  0
  -31.3629  -22.1232   19.8940 H   0  0  0  0  0  0
  -30.4177  -21.8551   18.4017 H   0  0  0  0  0  0
  -33.4945  -17.3595   18.4555 H   0  0  0  0  0  0
  -32.4410  -15.9839   18.4552 H   0  0  0  0  0  0
  -33.3476  -16.4515   19.9350 H   0  0  0  0  0  0
  -28.3648  -20.5229   21.7117 H   0  0  0  0  0  0
  -27.6208  -20.3990   20.1570 H   0  0  0  0  0  0
  -29.0659  -15.6802   20.7195 H   0  0  0  0  0  0
  -29.7244  -22.1948   20.0402 H   0  0  0  0  0  0
  1 25  1  0  0  0
  1 30  2  0  0  0
  1 85  1  0  0  0
  2  3  1  0  0  0
  2 25  1  0  0  0
  2 87  1  0  0  0
  2 88  1  0  0  0
  3  4  1  0  0  0
  3 89  1  0  0  0
  3 90  1  0  0  0
  4  5  1  0  0  0
  4 91  1  0  0  0
  4 92  1  0  0  0
  5  6  1  0  0  0
  5 26  1  0  0  0
  5 93  1  0  0  0
  6 25  1  0  0  0
  6 94  1  0  0  0
  6 95  1  0  0  0
  7  8  2  0  0  0
  7 26  1  0  0  0
  7 29  1  0  0  0
  8  9  1  0  0  0
  8 22  1  0  0  0
  9 10  1  0  0  0
  9 27  2  0  0  0
 10 11  2  0  0  0
 10 15  1  0  0  0
 11 12  1  0  0  0
 11 96  1  0  0  0
 12 13  2  0  0  0
 12 97  1  0  0  0
 13 14  1  0  0  0
 13 31  1  0  0  0
 14 15  2  0  0  0
 14 98  1  0  0  0
 15 99  1  0  0  0
 16 17  2  0  0  0
 16 21  1  0  0  0
 16 31  1  0  0  0
 17 18  1  0  0  0
 17100  1  0  0  0
 18 19  2  0  0  0
 18101  1  0  0  0
 19 20  1  0  0  0
 19 24  1  0  0  0
 20 21  2  0  0  0
 20102  1  0  0  0
 21 23  1  0  0  0
 22 28  1  0  0  0
 22 32  2  0  0  0
 26 27  1  0  0  0
 28103  1  0  0  0
 28104  1  0  0  0
 29105  1  0  0  0
 29106  1  0  0  0
 33 34  1  0  0  0
 33 66  1  0  0  0
 33 70  2  0  0  0
 34 36  1  0  0  0
 34 59  1  0  0  0
 34107  1  0  0  0
 35 44  2  0  0  0
 35 45  1  0  0  0
 35 68  1  0  0  0
 36 56  1  0  0  0
 36108  1  0  0  0
 37 39  1  0  0  0
 37 47  1  0  0  0
 37 66  1  0  0  0
 37109  1  0  0  0
 38 43  2  0  0  0
 38 46  1  0  0  0
 38 47  1  0  0  0
 39 64  1  0  0  0
 39 67  2  0  0  0
 40 52  1  0  0  0
 40 53  2  0  0  0
 40 58  1  0  0  0
 41110  1  0  0  0
 41111  1  0  0  0
 41112  1  0  0  0
 41 48  1  0  0  0
 42 43  1  0  0  0
 42 66  1  0  0  0
 42113  1  0  0  0
 42114  1  0  0  0
 43 44  1  0  0  0
 44115  1  0  0  0
 45 46  2  0  0  0
 45116  1  0  0  0
 46117  1  0  0  0
 47118  1  0  0  0
 47119  1  0  0  0
 48 56  1  0  0  0
 48 65  1  0  0  0
 48120  1  0  0  0
 49 50  1  0  0  0
 49 53  1  0  0  0
 49 64  1  0  0  0
 49121  1  0  0  0
 50 51  1  0  0  0
 50122  1  0  0  0
 50123  1  0  0  0
 51 52  1  0  0  0
 51124  1  0  0  0
 51125  1  0  0  0
 52126  1  0  0  0
 52127  1  0  0  0
 53 54  1  0  0  0
 54 55  2  0  0  0
 54128  1  0  0  0
 55 57  1  0  0  0
 55129  1  0  0  0
 56 69  2  0  0  0
 57 58  2  0  0  0
 57130  1  0  0  0
 58131  1  0  0  0
 59 60  1  0  0  0
 59 61  1  0  0  0
 59 62  1  0  0  0
 60132  1  0  0  0
 60133  1  0  0  0
 60134  1  0  0  0
 61135  1  0  0  0
 61136  1  0  0  0
 61137  1  0  0  0
 62138  1  0  0  0
 62139  1  0  0  0
 62140  1  0  0  0
 63 65  1  0  0  0
 63141  1  0  0  0
 63142  1  0  0  0
 63143  1  0  0  0
 64144  1  0  0  0
 65145  1  0  0  0
 68 81  1  0  0  0
 71 73  2  0  0  0
 71 74  1  0  0  0
 71146  1  0  0  0
 72 75  2  0  0  0
 72 76  1  0  0  0
 72147  1  0  0  0
 73 75  1  0  0  0
 73 82  1  0  0  0
 74 76  2  0  0  0
 74 83  1  0  0  0
 75 84  1  0  0  0
 76 85  1  0  0  0
 77 79  1  0  0  0
 77 81  1  0  0  0
 77148  1  0  0  0
 77149  1  0  0  0
 78 80  1  0  0  0
 78 81  1  0  0  0
 78150  1  0  0  0
 78151  1  0  0  0
 79 86  1  0  0  0
 79152  1  0  0  0
 79153  1  0  0  0
 80 86  1  0  0  0
 80154  1  0  0  0
 80155  1  0  0  0
 81156  1  0  0  0
 82157  1  0  0  0
 82158  1  0  0  0
 82159  1  0  0  0
 83160  1  0  0  0
 83161  1  0  0  0
 83162  1  0  0  0
 84163  1  0  0  0
 84164  1  0  0  0
 84 86  1  0  0  0
 85165  1  0  0  0
 86166  1  0  0  0
M  CHG  1  86   1
M  ISO  4   1 100  68 101  81 101  85 100
M  END
> <chiral flag>
0

> <version>
0

> <s_m_source_file>
/data/baiqing/PycharmProjects/Reinvent-master-3.2/result/LINK_invent/BTK/process_docking_weight1_custom_sum_contain_oxygen_bond_distance_aromatic_linkinvent_7_9_3/rearranged_h_0157.sdf

> <i_m_source_file_index>
93

> <r_mmod_Potential_Energy-OPLS-2005>
-22.4244976043701

> <r_mmod_Stretch_Energy-OPLS-2005>
75.5194931030273

> <r_mmod_Bend_Energy-OPLS-2005>
156.724197387695

> <r_mmod_Torsional_Energy-OPLS-2005>
264.661315917969

> <r_mmod_Improper_Torsional_Energy-OPLS-2005>
4.42951536178589

> <r_mmod_Van_der_Waal_Energy-OPLS-2005>
174.165390014648

> <r_mmod_Electrostatic_Energy-OPLS-2005>
-302.023498535156

> <r_mmod_Solvation_Energy-OPLS-2005>
-446.600036621094

> <b_mmod_Minimization_Converged-OPLS-2005>
0

> <r_mmod_RMS_Derivative-OPLS-2005>
5.0568208694458

$$$$
93
                    3D
 Structure written by MMmdl.
170179  0  0  1  0            999 V2000
  -30.7499  -14.6891   20.4627 C   0  0  0  0  0  0
  -30.4026  -12.4418   19.4532 C   0  0  0  0  0  0
  -29.4845  -12.4898   18.2182 C   0  0  0  0  0  0
  -28.0193  -12.3137   18.6506 C   0  0  0  0  0  0
  -27.6344  -13.2305   19.8438 C   0  0  2  0  0  0
  -28.6953  -13.1961   20.9690 C   0  0  0  0  0  0
  -25.2504  -13.8203   20.5744 C   0  0  0  0  0  0
  -24.1790  -13.0442   20.9224 C   0  0  0  0  0  0
  -24.6382  -11.6919   20.8772 C   0  0  0  0  0  0
  -23.9057  -10.4299   21.0418 C   0  0  0  0  0  0
  -24.3608   -9.4208   21.9189 C   0  0  0  0  0  0
  -23.6289   -8.2237   22.0744 C   0  0  0  0  0  0
  -22.4277   -8.0271   21.3528 C   0  0  0  0  0  0
  -21.9908   -9.0252   20.4640 C   0  0  0  0  0  0
  -22.7231  -10.2140   20.3059 C   0  0  0  0  0  0
  -21.6857   -6.0723   22.5271 C   0  0  0  0  0  0
  -21.4021   -6.5628   23.8206 C   0  0  0  0  0  0
  -21.3664   -5.6776   24.9166 C   0  0  0  0  0  0
  -21.6050   -4.3040   24.7219 C   0  0  0  0  0  0
  -21.8824   -3.8134   23.4341 C   0  0  0  0  0  0
  -21.9197   -4.6951   22.3399 C   0  0  0  0  0  0
  -22.7810  -13.5229   21.1851 C   0  0  0  0  0  0
  -22.1661   -4.2130   21.0976 F   0  0  0  0  0  0
  -21.5631   -3.4530   25.7739 F   0  0  0  0  0  0
  -29.9801  -13.5471   20.3518 N   0  0  0  0  0  0
  -26.2927  -12.9407   20.3343 N   0  0  0  0  0  0
  -25.9320  -11.6550   20.5814 N   0  0  0  0  0  0
  -22.0442  -12.8245   22.0419 N   0  0  0  0  0  0
  -25.4186  -15.1929   20.4159 N   0  0  0  0  0  0
  -31.9533  -14.5663   20.2280 O   0  0  0  0  0  0
  -21.6638   -6.8868   21.4230 O   0  0  0  0  0  0
  -22.3504  -14.5521   20.6661 O   0  0  0  0  0  0
  -24.6291  -31.8598   23.2030 C   0  0  0  0  0  0
  -25.9129  -32.4777   23.8362 C   0  0  1  0  0  0
  -27.2135  -27.2944   20.1168 C   0  0  0  0  0  0
  -25.5937  -33.8577   24.2285 N   0  0  0  0  0  0
  -23.4236  -30.4862   21.5461 C   0  0  2  0  0  0
  -24.8678  -28.9463   20.1090 C   0  0  0  0  0  0
  -22.7492  -29.4630   22.4920 C   0  0  0  0  0  0
  -18.0295  -28.1394   22.8486 C   0  0  0  0  0  0
  -24.1490  -36.7297   23.2638 C   0  0  0  0  0  0
  -25.9693  -30.7821   21.3804 C   0  0  0  0  0  0
  -26.0416  -29.4103   20.7181 C   0  0  0  0  0  0
  -27.2187  -28.5969   20.7124 C   0  0  0  0  0  0
  -26.0155  -26.9025   19.4704 C   0  0  0  0  0  0
  -24.8587  -27.6977   19.4759 C   0  0  0  0  0  0
  -23.6386  -29.8285   20.1598 C   0  0  0  0  0  0
  -25.4114  -36.3080   24.0329 C   0  0  1  0  0  0
  -20.5898  -28.3702   23.1276 C   0  0  2  0  0  0
  -20.6783  -26.9425   22.5407 C   0  0  0  0  0  0
  -19.5754  -26.6392   21.5214 C   0  0  0  0  0  0
  -18.1935  -26.7939   22.1625 C   0  0  0  0  0  0
  -19.1548  -28.8866   23.2878 C   0  0  0  0  0  0
  -18.9469  -30.1465   23.8897 C   0  0  0  0  0  0
  -17.6467  -30.6595   24.0567 C   0  0  0  0  0  0
  -25.9057  -34.9450   23.5105 C   0  0  0  0  0  0
  -16.5359  -29.9091   23.6334 C   0  0  0  0  0  0
  -16.7280  -28.6510   23.0356 C   0  0  0  0  0  0
  -26.4505  -31.6590   25.0738 C   0  0  0  0  0  0
  -25.3738  -31.3745   26.1470 C   0  0  0  0  0  0
  -27.0347  -30.3003   24.6217 C   0  0  0  0  0  0
  -27.6070  -32.4329   25.7498 C   0  0  0  0  0  0
  -27.5584  -37.1797   24.8464 C   0  0  0  0  0  0
  -21.4209  -29.3049   22.3661 N   0  0  0  0  0  0
  -26.4293  -37.3775   23.9413 N   0  0  0  0  0  0
  -24.6929  -31.0594   22.0989 N   0  0  0  0  0  0
  -23.4207  -28.8165   23.3006 O   0  0  0  0  0  0
  -28.2961  -26.3902   20.1867 O   0  0  0  0  0  0
  -26.5621  -34.8915   22.4671 O   0  0  0  0  0  0
  -23.5439  -32.1412   23.7332 O   0  0  0  0  0  0
  -30.1917  -23.7571   18.5524 C   0  0  0  0  0  0
  -30.3882  -21.0036   18.2197 C   0  0  0  0  0  0
  -30.8549  -23.2513   17.4230 C   0  0  0  0  0  0
  -29.5956  -22.9191   19.5247 C   0  0  0  0  0  0
  -30.9281  -21.8601   17.2420 C   0  0  0  0  0  0
  -29.7283  -21.4663   19.3948 C   0  0  0  0  0  0
  -30.9100  -18.5782   20.4167 C   0  0  0  0  0  0
  -28.6511  -18.0624   20.9943 C   0  0  0  0  0  0
  -31.1980  -17.0872   20.0516 C   0  0  0  0  0  0
  -28.8570  -16.5147   20.6914 C   0  0  0  0  0  0
  -29.4760  -19.0431   20.1145 C   0  0  0  0  0  0
  -31.4773  -24.2095   16.4205 C   0  0  0  0  0  0
  -31.5973  -21.2662   16.0119 C   0  0  0  0  0  0
  -29.8349  -24.1160   21.7694 C   0  0  0  0  0  0
  -27.9314  -24.9407   20.1964 C   0  0  0  0  0  0
  -28.8651  -23.7115   20.6507 C   0  0  1  0  0  0
  -30.2468  -16.0039   20.4886 N   0  0  0  0  0  0
  -29.2630  -20.5055   20.3308 O   0  0  0  0  0  0
  -31.4425  -12.5075   19.1298 H   0  0  0  0  0  0
  -30.3230  -11.4781   19.9591 H   0  0  0  0  0  0
  -29.7624  -11.7090   17.5085 H   0  0  0  0  0  0
  -29.6072  -13.4400   17.6954 H   0  0  0  0  0  0
  -27.8894  -11.2681   18.9350 H   0  0  0  0  0  0
  -27.3500  -12.4840   17.8061 H   0  0  0  0  0  0
  -27.6125  -14.2374   19.4345 H   0  0  0  0  0  0
  -28.7466  -12.2030   21.4176 H   0  0  0  0  0  0
  -28.4453  -13.8684   21.7867 H   0  0  0  0  0  0
  -25.2753   -9.5691   22.4758 H   0  0  0  0  0  0
  -23.9989   -7.4643   22.7481 H   0  0  0  0  0  0
  -21.0829   -8.8784   19.8973 H   0  0  0  0  0  0
  -22.3683  -10.9673   19.6169 H   0  0  0  0  0  0
  -21.2007   -7.6134   23.9701 H   0  0  0  0  0  0
  -21.1482   -6.0505   25.9064 H   0  0  0  0  0  0
  -22.0602   -2.7592   23.2846 H   0  0  0  0  0  0
  -22.4044  -11.9922   22.4858 H   0  0  0  0  0  0
  -21.1052  -13.1283   22.2588 H   0  0  0  0  0  0
  -24.6533  -15.8476   20.5338 H   0  0  0  0  0  0
  -26.2747  -15.6336   20.1075 H   0  0  0  0  0  0
  -26.7197  -32.5438   23.1107 H   0  0  0  0  0  0
  -25.0063  -33.9725   25.0412 H   0  0  0  0  0  0
  -22.7182  -31.3078   21.4060 H   0  0  0  0  0  0
  -23.3749  -35.9631   23.3298 H   0  0  0  0  0  0
  -24.3584  -36.8919   22.2053 H   0  0  0  0  0  0
  -23.7243  -37.6498   23.6663 H   0  0  0  0  0  0
  -26.1095  -31.5472   20.6152 H   0  0  0  0  0  0
  -26.8467  -30.8259   22.0142 H   0  0  0  0  0  0
  -28.1137  -28.9423   21.2103 H   0  0  0  0  0  0
  -25.9276  -25.9556   18.9620 H   0  0  0  0  0  0
  -23.9612  -27.3382   18.9915 H   0  0  0  0  0  0
  -23.7609  -30.6089   19.4076 H   0  0  0  0  0  0
  -22.7573  -29.2616   19.8542 H   0  0  0  0  0  0
  -25.1290  -36.1927   25.0820 H   0  0  0  0  0  0
  -20.9997  -28.3277   24.1395 H   0  0  0  0  0  0
  -20.5697  -26.2310   23.3607 H   0  0  0  0  0  0
  -21.6648  -26.7457   22.1195 H   0  0  0  0  0  0
  -19.6919  -25.6304   21.1243 H   0  0  0  0  0  0
  -19.6692  -27.3200   20.6744 H   0  0  0  0  0  0
  -17.4206  -26.6693   21.4023 H   0  0  0  0  0  0
  -18.0333  -26.0084   22.9024 H   0  0  0  0  0  0
  -19.7945  -30.7283   24.2263 H   0  0  0  0  0  0
  -17.5024  -31.6273   24.5173 H   0  0  0  0  0  0
  -15.5361  -30.2995   23.7664 H   0  0  0  0  0  0
  -15.8680  -28.0830   22.7072 H   0  0  0  0  0  0
  -24.5891  -30.7122   25.7795 H   0  0  0  0  0  0
  -24.8962  -32.2924   26.4908 H   0  0  0  0  0  0
  -25.8059  -30.8901   27.0236 H   0  0  0  0  0  0
  -26.2926  -29.6748   24.1241 H   0  0  0  0  0  0
  -27.4026  -29.7265   25.4731 H   0  0  0  0  0  0
  -27.8808  -30.4271   23.9463 H   0  0  0  0  0  0
  -27.2682  -33.3619   26.2097 H   0  0  0  0  0  0
  -28.3859  -32.6913   25.0315 H   0  0  0  0  0  0
  -28.0771  -31.8453   26.5390 H   0  0  0  0  0  0
  -28.2595  -38.0098   24.7512 H   0  0  0  0  0  0
  -28.1083  -36.2629   24.6280 H   0  0  0  0  0  0
  -27.2312  -37.1439   25.8869 H   0  0  0  0  0  0
  -20.9384  -29.8775   21.6876 H   0  0  0  0  0  0
  -26.0173  -38.2848   24.1417 H   0  0  0  0  0  0
  -30.1335  -24.8304   18.6749 H   0  0  0  0  0  0
  -30.5174  -19.9530   18.0211 H   0  0  0  0  0  0
  -31.6341  -19.2070   19.8995 H   0  0  0  0  0  0
  -31.1182  -18.7332   21.4760 H   0  0  0  0  0  0
  -28.8825  -18.2497   22.0443 H   0  0  0  0  0  0
  -27.5918  -18.3019   20.8925 H   0  0  0  0  0  0
  -32.2024  -16.9001   20.4369 H   0  0  0  0  0  0
  -31.2805  -17.0114   18.9662 H   0  0  0  0  0  0
  -28.3125  -16.2965   19.7745 H   0  0  0  0  0  0
  -28.3714  -15.9601   21.4914 H   0  0  0  0  0  0
  -29.1981  -18.7945   19.0904 H   0  0  0  0  0  0
  -31.4362  -25.2410   16.7703 H   0  0  0  0  0  0
  -30.9567  -24.1594   15.4635 H   0  0  0  0  0  0
  -32.5270  -23.9630   16.2548 H   0  0  0  0  0  0
  -31.3984  -20.1983   15.9193 H   0  0  0  0  0  0
  -32.6778  -21.4059   16.0589 H   0  0  0  0  0  0
  -31.2298  -21.7439   15.1028 H   0  0  0  0  0  0
  -30.3553  -23.2440   22.1679 H   0  0  0  0  0  0
  -29.3046  -24.5907   22.5953 H   0  0  0  0  0  0
  -30.5860  -24.8188   21.4078 H   0  0  0  0  0  0
  -27.0757  -24.8770   20.8708 H   0  0  0  0  0  0
  -27.5493  -24.6706   19.2129 H   0  0  0  0  0  0
  -28.1856  -22.9727   21.0789 H   0  0  0  0  0  0
  1 25  1  0  0  0
  1 30  2  0  0  0
  1 87  1  0  0  0
  2  3  1  0  0  0
  2 25  1  0  0  0
  2 89  1  0  0  0
  2 90  1  0  0  0
  3  4  1  0  0  0
  3 91  1  0  0  0
  3 92  1  0  0  0
  4  5  1  0  0  0
  4 93  1  0  0  0
  4 94  1  0  0  0
  5  6  1  0  0  0
  5 26  1  0  0  0
  5 95  1  0  0  0
  6 25  1  0  0  0
  6 96  1  0  0  0
  6 97  1  0  0  0
  7  8  2  0  0  0
  7 26  1  0  0  0
  7 29  1  0  0  0
  8  9  1  0  0  0
  8 22  1  0  0  0
  9 10  1  0  0  0
  9 27  2  0  0  0
 10 11  2  0  0  0
 10 15  1  0  0  0
 11 12  1  0  0  0
 11 98  1  0  0  0
 12 13  2  0  0  0
 12 99  1  0  0  0
 13 14  1  0  0  0
 13 31  1  0  0  0
 14 15  2  0  0  0
 14100  1  0  0  0
 15101  1  0  0  0
 16 17  2  0  0  0
 16 21  1  0  0  0
 16 31  1  0  0  0
 17 18  1  0  0  0
 17102  1  0  0  0
 18 19  2  0  0  0
 18103  1  0  0  0
 19 20  1  0  0  0
 19 24  1  0  0  0
 20 21  2  0  0  0
 20104  1  0  0  0
 21 23  1  0  0  0
 22 28  1  0  0  0
 22 32  2  0  0  0
 26 27  1  0  0  0
 28105  1  0  0  0
 28106  1  0  0  0
 29107  1  0  0  0
 29108  1  0  0  0
 33 34  1  0  0  0
 33 66  1  0  0  0
 33 70  2  0  0  0
 34 36  1  0  0  0
 34 59  1  0  0  0
 34109  1  0  0  0
 35 44  2  0  0  0
 35 45  1  0  0  0
 35 68  1  0  0  0
 36 56  1  0  0  0
 36110  1  0  0  0
 37 39  1  0  0  0
 37 47  1  0  0  0
 37 66  1  0  0  0
 37111  1  0  0  0
 38 43  2  0  0  0
 38 46  1  0  0  0
 38 47  1  0  0  0
 39 64  1  0  0  0
 39 67  2  0  0  0
 40 52  1  0  0  0
 40 53  2  0  0  0
 40 58  1  0  0  0
 41112  1  0  0  0
 41113  1  0  0  0
 41114  1  0  0  0
 41 48  1  0  0  0
 42 43  1  0  0  0
 42 66  1  0  0  0
 42115  1  0  0  0
 42116  1  0  0  0
 43 44  1  0  0  0
 44117  1  0  0  0
 45 46  2  0  0  0
 45118  1  0  0  0
 46119  1  0  0  0
 47120  1  0  0  0
 47121  1  0  0  0
 48 56  1  0  0  0
 48 65  1  0  0  0
 48122  1  0  0  0
 49 50  1  0  0  0
 49 53  1  0  0  0
 49 64  1  0  0  0
 49123  1  0  0  0
 50 51  1  0  0  0
 50124  1  0  0  0
 50125  1  0  0  0
 51 52  1  0  0  0
 51126  1  0  0  0
 51127  1  0  0  0
 52128  1  0  0  0
 52129  1  0  0  0
 53 54  1  0  0  0
 54 55  2  0  0  0
 54130  1  0  0  0
 55 57  1  0  0  0
 55131  1  0  0  0
 56 69  2  0  0  0
 57 58  2  0  0  0
 57132  1  0  0  0
 58133  1  0  0  0
 59 60  1  0  0  0
 59 61  1  0  0  0
 59 62  1  0  0  0
 60134  1  0  0  0
 60135  1  0  0  0
 60136  1  0  0  0
 61137  1  0  0  0
 61138  1  0  0  0
 61139  1  0  0  0
 62140  1  0  0  0
 62141  1  0  0  0
 62142  1  0  0  0
 63 65  1  0  0  0
 63143  1  0  0  0
 63144  1  0  0  0
 63145  1  0  0  0
 64146  1  0  0  0
 65147  1  0  0  0
 68 85  1  0  0  0
 71 73  2  0  0  0
 71 74  1  0  0  0
 71148  1  0  0  0
 72 75  2  0  0  0
 72 76  1  0  0  0
 72149  1  0  0  0
 73 75  1  0  0  0
 73 82  1  0  0  0
 74 76  2  0  0  0
 74 86  1  0  0  0
 75 83  1  0  0  0
 76 88  1  0  0  0
 77 79  1  0  0  0
 77 81  1  0  0  0
 77150  1  0  0  0
 77151  1  0  0  0
 78 80  1  0  0  0
 78 81  1  0  0  0
 78152  1  0  0  0
 78153  1  0  0  0
 79 87  1  0  0  0
 79154  1  0  0  0
 79155  1  0  0  0
 80 87  1  0  0  0
 80156  1  0  0  0
 80157  1  0  0  0
 81 88  1  0  0  0
 81158  1  0  0  0
 82159  1  0  0  0
 82160  1  0  0  0
 82161  1  0  0  0
 83162  1  0  0  0
 83163  1  0  0  0
 83164  1  0  0  0
 84165  1  0  0  0
 84166  1  0  0  0
 84167  1  0  0  0
 84 86  1  0  0  0
 85 86  1  0  0  0
 85168  1  0  0  0
 85169  1  0  0  0
 86170  1  0  0  0
M  ISO  4   1 100  68 101  85 101  87 100
M  END
> <chiral flag>
0

> <version>
0

> <s_m_source_file>
/data/baiqing/PycharmProjects/Reinvent-master-3.2/result/LINK_invent/BTK/process_docking_weight1_custom_sum_contain_oxygen_bond_distance_aromatic_linkinvent_7_9_3/rearranged_h_0157.sdf

> <i_m_source_file_index>
94

> <r_mmod_Potential_Energy-OPLS-2005>
397.604553222656

> <r_mmod_Stretch_Energy-OPLS-2005>
112.260787963867

> <r_mmod_Bend_Energy-OPLS-2005>
223.209457397461

> <r_mmod_Torsional_Energy-OPLS-2005>
307.756195068359

> <r_mmod_Improper_Torsional_Energy-OPLS-2005>
8.74581432342529

> <r_mmod_Van_der_Waal_Energy-OPLS-2005>
172.985702514648

> <r_mmod_Electrostatic_Energy-OPLS-2005>
-306.520690917969

> <r_mmod_Solvation_Energy-OPLS-2005>
-201.7998046875

> <b_mmod_Minimization_Converged-OPLS-2005>
0

> <r_mmod_RMS_Derivative-OPLS-2005>
1.74014317989349

$$$$
94
                    3D
 Structure written by MMmdl.
173182  0  0  1  0            999 V2000
  -30.7117  -14.6422   20.5152 C   0  0  0  0  0  0
  -30.4090  -12.4104   19.4587 C   0  0  0  0  0  0
  -29.4900  -12.4771   18.2233 C   0  0  0  0  0  0
  -28.0256  -12.2670   18.6447 C   0  0  0  0  0  0
  -27.6312  -13.1794   19.8277 C   0  0  2  0  0  0
  -28.6789  -13.1322   20.9708 C   0  0  0  0  0  0
  -25.2530  -13.8054   20.5696 C   0  0  0  0  0  0
  -24.1783  -13.0380   20.9210 C   0  0  0  0  0  0
  -24.6319  -11.6845   20.8769 C   0  0  0  0  0  0
  -23.8996  -10.4256   21.0442 C   0  0  0  0  0  0
  -24.3576   -9.4182   21.9214 C   0  0  0  0  0  0
  -23.6271   -8.2218   22.0771 C   0  0  0  0  0  0
  -22.4256   -8.0257   21.3554 C   0  0  0  0  0  0
  -21.9877   -9.0225   20.4658 C   0  0  0  0  0  0
  -22.7187  -10.2108   20.3074 C   0  0  0  0  0  0
  -21.6835   -6.0730   22.5282 C   0  0  0  0  0  0
  -21.4002   -6.5637   23.8214 C   0  0  0  0  0  0
  -21.3664   -5.6788   24.9177 C   0  0  0  0  0  0
  -21.6049   -4.3050   24.7225 C   0  0  0  0  0  0
  -21.8830   -3.8151   23.4346 C   0  0  0  0  0  0
  -21.9204   -4.6968   22.3407 C   0  0  0  0  0  0
  -22.7819  -13.5220   21.1879 C   0  0  0  0  0  0
  -22.1674   -4.2162   21.0979 F   0  0  0  0  0  0
  -21.5630   -3.4530   25.7736 F   0  0  0  0  0  0
  -29.9823  -13.4798   20.3942 N   0  0  0  0  0  0
  -26.2859  -12.9153   20.3173 N   0  0  0  0  0  0
  -25.9205  -11.6363   20.5719 N   0  0  0  0  0  0
  -22.0454  -12.8210   22.0421 N   0  0  0  0  0  0
  -25.4274  -15.1772   20.4246 N   0  0  0  0  0  0
  -31.8926  -14.6311   20.1539 O   0  0  0  0  0  0
  -21.6623   -6.8861   21.4243 O   0  0  0  0  0  0
  -22.3525  -14.5569   20.6771 O   0  0  0  0  0  0
  -24.6193  -31.8626   23.2047 C   0  0  0  0  0  0
  -25.9065  -32.4797   23.8360 C   0  0  1  0  0  0
  -27.2293  -27.3749   20.1194 C   0  0  0  0  0  0
  -25.5908  -33.8597   24.2305 N   0  0  0  0  0  0
  -23.4141  -30.4805   21.5460 C   0  0  2  0  0  0
  -24.8627  -28.9393   20.1177 C   0  0  0  0  0  0
  -22.7455  -29.4601   22.4960 C   0  0  0  0  0  0
  -18.0262  -28.1374   22.8494 C   0  0  0  0  0  0
  -24.1493  -36.7297   23.2641 C   0  0  0  0  0  0
  -25.9459  -30.8090   21.3693 C   0  0  0  0  0  0
  -26.0238  -29.4350   20.7249 C   0  0  0  0  0  0
  -27.2131  -28.6589   20.7257 C   0  0  0  0  0  0
  -26.0581  -26.9125   19.4890 C   0  0  0  0  0  0
  -24.8771  -27.6795   19.4934 C   0  0  0  0  0  0
  -23.6280  -29.8121   20.1630 C   0  0  0  0  0  0
  -25.4116  -36.3094   24.0334 C   0  0  1  0  0  0
  -20.5862  -28.3677   23.1289 C   0  0  2  0  0  0
  -20.6749  -26.9397   22.5424 C   0  0  0  0  0  0
  -19.5703  -26.6317   21.5262 C   0  0  0  0  0  0
  -18.1902  -26.7872   22.1719 C   0  0  0  0  0  0
  -19.1512  -28.8855   23.2863 C   0  0  0  0  0  0
  -18.9429  -30.1467   23.8855 C   0  0  0  0  0  0
  -17.6429  -30.6592   24.0523 C   0  0  0  0  0  0
  -25.9045  -34.9464   23.5131 C   0  0  0  0  0  0
  -16.5325  -29.9083   23.6301 C   0  0  0  0  0  0
  -16.7251  -28.6490   23.0346 C   0  0  0  0  0  0
  -26.4482  -31.6579   25.0692 C   0  0  0  0  0  0
  -25.3744  -31.3701   26.1445 C   0  0  0  0  0  0
  -27.0320  -30.3020   24.6093 C   0  0  0  0  0  0
  -27.6075  -32.4300   25.7425 C   0  0  0  0  0  0
  -27.5593  -37.1791   24.8462 C   0  0  0  0  0  0
  -21.4174  -29.3014   22.3685 N   0  0  0  0  0  0
  -26.4298  -37.3782   23.9416 N   0  0  0  0  0  0
  -24.6779  -31.0666   22.0986 N   0  0  0  0  0  0
  -23.4186  -28.8148   23.3045 O   0  0  0  0  0  0
  -28.3490  -26.5596   20.0802 O   0  0  0  0  0  0
  -26.5601  -34.8928   22.4688 O   0  0  0  0  0  0
  -23.5365  -32.1390   23.7409 O   0  0  0  0  0  0
  -29.5324  -21.9515   20.5001 C   0  0  0  0  0  0
  -29.5232  -23.3753   20.4690 C   0  0  0  0  0  0
  -27.3208  -23.3849   21.5044 C   0  0  0  0  0  0
  -28.4375  -24.1245   21.0075 C   0  0  0  0  0  0
  -27.3296  -21.9481   21.5136 C   0  0  0  0  0  0
  -28.4598  -21.2121   21.0554 C   0  0  0  0  0  0
  -30.4571  -18.3858   21.5424 C   0  0  0  0  0  0
  -28.5217  -17.6409   20.1463 C   0  0  0  0  0  0
  -31.1022  -17.0176   21.1173 C   0  0  0  0  0  0
  -28.7700  -16.3404   20.9751 C   0  0  0  0  0  0
  -29.3426  -18.8822   20.5894 C   0  0  0  0  0  0
  -30.7310  -24.0944   19.8891 C   0  0  0  0  0  0
  -26.1388  -24.1630   22.0871 C   0  0  0  0  0  0
  -24.8350  -20.3295   24.0931 C   0  0  0  0  0  0
  -26.1261  -21.1498   22.0353 C   0  0  0  0  0  0
  -28.5503  -25.6791   21.2149 C   0  0  0  0  0  0
  -26.0832  -21.0544   23.5707 C   0  0  0  0  0  0
  -30.1721  -15.8625   20.9192 N   0  0  0  0  0  0
  -28.4378  -19.8206   21.2237 O   0  0  0  0  0  0
  -31.4484  -12.5008   19.1402 H   0  0  0  0  0  0
  -30.3422  -11.4353   19.9434 H   0  0  0  0  0  0
  -29.7818  -11.7201   17.4937 H   0  0  0  0  0  0
  -29.5983  -13.4437   17.7284 H   0  0  0  0  0  0
  -27.9072  -11.2192   18.9265 H   0  0  0  0  0  0
  -27.3586  -12.4338   17.7978 H   0  0  0  0  0  0
  -27.6055  -14.1563   19.3573 H   0  0  0  0  0  0
  -28.7208  -12.1338   21.4082 H   0  0  0  0  0  0
  -28.4115  -13.7931   21.7937 H   0  0  0  0  0  0
  -25.2722   -9.5637   22.4789 H   0  0  0  0  0  0
  -24.0003   -7.4602   22.7467 H   0  0  0  0  0  0
  -21.0821   -8.8717   19.8950 H   0  0  0  0  0  0
  -22.3652  -10.9654   19.6182 H   0  0  0  0  0  0
  -21.1967   -7.6141   23.9705 H   0  0  0  0  0  0
  -21.1476   -6.0514   25.9070 H   0  0  0  0  0  0
  -22.0609   -2.7617   23.2831 H   0  0  0  0  0  0
  -22.4055  -11.9866   22.4814 H   0  0  0  0  0  0
  -21.1095  -13.1282   22.2672 H   0  0  0  0  0  0
  -24.6824  -15.8380   20.6137 H   0  0  0  0  0  0
  -26.2955  -15.6232   20.1624 H   0  0  0  0  0  0
  -26.7129  -32.5501   23.1112 H   0  0  0  0  0  0
  -25.0071  -33.9745   25.0463 H   0  0  0  0  0  0
  -22.7056  -31.2977   21.4028 H   0  0  0  0  0  0
  -23.3758  -35.9628   23.3292 H   0  0  0  0  0  0
  -24.3592  -36.8921   22.2060 H   0  0  0  0  0  0
  -23.7238  -37.6498   23.6657 H   0  0  0  0  0  0
  -26.0594  -31.5675   20.5942 H   0  0  0  0  0  0
  -26.8328  -30.8702   21.9869 H   0  0  0  0  0  0
  -28.1104  -29.0381   21.1949 H   0  0  0  0  0  0
  -26.0603  -25.9458   19.0064 H   0  0  0  0  0  0
  -23.9889  -27.2954   19.0115 H   0  0  0  0  0  0
  -23.7431  -30.5854   19.4020 H   0  0  0  0  0  0
  -22.7507  -29.2343   19.8662 H   0  0  0  0  0  0
  -25.1291  -36.1952   25.0818 H   0  0  0  0  0  0
  -20.9927  -28.3273   24.1422 H   0  0  0  0  0  0
  -20.5670  -26.2292   23.3636 H   0  0  0  0  0  0
  -21.6613  -26.7416   22.1209 H   0  0  0  0  0  0
  -19.6830  -25.6195   21.1352 H   0  0  0  0  0  0
  -19.6603  -27.3057   20.6733 H   0  0  0  0  0  0
  -17.4110  -26.6460   21.4208 H   0  0  0  0  0  0
  -18.0386  -26.0113   22.9231 H   0  0  0  0  0  0
  -19.7904  -30.7297   24.2192 H   0  0  0  0  0  0
  -17.4972  -31.6280   24.5123 H   0  0  0  0  0  0
  -15.5312  -30.2967   23.7621 H   0  0  0  0  0  0
  -15.8642  -28.0793   22.7095 H   0  0  0  0  0  0
  -24.5863  -30.7126   25.7755 H   0  0  0  0  0  0
  -24.8991  -32.2868   26.4953 H   0  0  0  0  0  0
  -25.8066  -30.8783   27.0170 H   0  0  0  0  0  0
  -26.2857  -29.6750   24.1195 H   0  0  0  0  0  0
  -27.4142  -29.7292   25.4549 H   0  0  0  0  0  0
  -27.8675  -30.4331   23.9211 H   0  0  0  0  0  0
  -27.2717  -33.3592   26.2045 H   0  0  0  0  0  0
  -28.3837  -32.6877   25.0205 H   0  0  0  0  0  0
  -28.0805  -31.8396   26.5288 H   0  0  0  0  0  0
  -28.2594  -38.0101   24.7533 H   0  0  0  0  0  0
  -28.1101  -36.2632   24.6256 H   0  0  0  0  0  0
  -27.2312  -37.1415   25.8864 H   0  0  0  0  0  0
  -20.9362  -29.8710   21.6875 H   0  0  0  0  0  0
  -26.0184  -38.2856   24.1437 H   0  0  0  0  0  0
  -30.3997  -21.4285   20.1245 H   0  0  0  0  0  0
  -31.2296  -19.1505   21.6277 H   0  0  0  0  0  0
  -30.0419  -18.2806   22.5456 H   0  0  0  0  0  0
  -27.4587  -17.8856   20.1653 H   0  0  0  0  0  0
  -28.7437  -17.4297   19.0991 H   0  0  0  0  0  0
  -31.8522  -16.7396   21.8593 H   0  0  0  0  0  0
  -31.6438  -17.1787   20.1826 H   0  0  0  0  0  0
  -28.0658  -15.6170   20.6257 H   0  0  0  0  0  0
  -28.4961  -16.5081   22.0175 H   0  0  0  0  0  0
  -29.7864  -19.3275   19.6995 H   0  0  0  0  0  0
  -31.3199  -24.5616   20.6785 H   0  0  0  0  0  0
  -31.3831  -23.4081   19.3492 H   0  0  0  0  0  0
  -30.4168  -24.8681   19.1863 H   0  0  0  0  0  0
  -25.8597  -24.9823   21.4274 H   0  0  0  0  0  0
  -26.4143  -24.5829   23.0552 H   0  0  0  0  0  0
  -25.2310  -23.5869   22.2361 H   0  0  0  0  0  0
  -24.8152  -20.3290   25.1841 H   0  0  0  0  0  0
  -24.8106  -19.2884   23.7656 H   0  0  0  0  0  0
  -23.9214  -20.8128   23.7460 H   0  0  0  0  0  0
  -26.1285  -20.1421   21.6184 H   0  0  0  0  0  0
  -25.2027  -21.5725   21.6431 H   0  0  0  0  0  0
  -29.5606  -25.8783   21.5703 H   0  0  0  0  0  0
  -27.9359  -26.0029   22.0557 H   0  0  0  0  0  0
  -26.9764  -20.5390   23.9244 H   0  0  0  0  0  0
  -26.1102  -22.0543   24.0051 H   0  0  0  0  0  0
  1 25  1  0  0  0
  1 30  2  0  0  0
  1 88  1  0  0  0
  2  3  1  0  0  0
  2 25  1  0  0  0
  2 90  1  0  0  0
  2 91  1  0  0  0
  3  4  1  0  0  0
  3 92  1  0  0  0
  3 93  1  0  0  0
  4  5  1  0  0  0
  4 94  1  0  0  0
  4 95  1  0  0  0
  5  6  1  0  0  0
  5 26  1  0  0  0
  5 96  1  0  0  0
  6 25  1  0  0  0
  6 97  1  0  0  0
  6 98  1  0  0  0
  7  8  2  0  0  0
  7 26  1  0  0  0
  7 29  1  0  0  0
  8  9  1  0  0  0
  8 22  1  0  0  0
  9 10  1  0  0  0
  9 27  2  0  0  0
 10 11  2  0  0  0
 10 15  1  0  0  0
 11 12  1  0  0  0
 11 99  1  0  0  0
 12 13  2  0  0  0
 12100  1  0  0  0
 13 14  1  0  0  0
 13 31  1  0  0  0
 14 15  2  0  0  0
 14101  1  0  0  0
 15102  1  0  0  0
 16 17  2  0  0  0
 16 21  1  0  0  0
 16 31  1  0  0  0
 17 18  1  0  0  0
 17103  1  0  0  0
 18 19  2  0  0  0
 18104  1  0  0  0
 19 20  1  0  0  0
 19 24  1  0  0  0
 20 21  2  0  0  0
 20105  1  0  0  0
 21 23  1  0  0  0
 22 28  1  0  0  0
 22 32  2  0  0  0
 26 27  1  0  0  0
 28106  1  0  0  0
 28107  1  0  0  0
 29108  1  0  0  0
 29109  1  0  0  0
 33 34  1  0  0  0
 33 66  1  0  0  0
 33 70  2  0  0  0
 34 36  1  0  0  0
 34 59  1  0  0  0
 34110  1  0  0  0
 35 44  2  0  0  0
 35 45  1  0  0  0
 35 68  1  0  0  0
 36 56  1  0  0  0
 36111  1  0  0  0
 37 39  1  0  0  0
 37 47  1  0  0  0
 37 66  1  0  0  0
 37112  1  0  0  0
 38 43  2  0  0  0
 38 46  1  0  0  0
 38 47  1  0  0  0
 39 64  1  0  0  0
 39 67  2  0  0  0
 40 52  1  0  0  0
 40 53  2  0  0  0
 40 58  1  0  0  0
 41113  1  0  0  0
 41114  1  0  0  0
 41115  1  0  0  0
 41 48  1  0  0  0
 42 43  1  0  0  0
 42 66  1  0  0  0
 42116  1  0  0  0
 42117  1  0  0  0
 43 44  1  0  0  0
 44118  1  0  0  0
 45 46  2  0  0  0
 45119  1  0  0  0
 46120  1  0  0  0
 47121  1  0  0  0
 47122  1  0  0  0
 48 56  1  0  0  0
 48 65  1  0  0  0
 48123  1  0  0  0
 49 50  1  0  0  0
 49 53  1  0  0  0
 49 64  1  0  0  0
 49124  1  0  0  0
 50 51  1  0  0  0
 50125  1  0  0  0
 50126  1  0  0  0
 51 52  1  0  0  0
 51127  1  0  0  0
 51128  1  0  0  0
 52129  1  0  0  0
 52130  1  0  0  0
 53 54  1  0  0  0
 54 55  2  0  0  0
 54131  1  0  0  0
 55 57  1  0  0  0
 55132  1  0  0  0
 56 69  2  0  0  0
 57 58  2  0  0  0
 57133  1  0  0  0
 58134  1  0  0  0
 59 60  1  0  0  0
 59 61  1  0  0  0
 59 62  1  0  0  0
 60135  1  0  0  0
 60136  1  0  0  0
 60137  1  0  0  0
 61138  1  0  0  0
 61139  1  0  0  0
 61140  1  0  0  0
 62141  1  0  0  0
 62142  1  0  0  0
 62143  1  0  0  0
 63 65  1  0  0  0
 63144  1  0  0  0
 63145  1  0  0  0
 63146  1  0  0  0
 64147  1  0  0  0
 65148  1  0  0  0
 68 86  1  0  0  0
 71 72  2  0  0  0
 71 76  1  0  0  0
 71149  1  0  0  0
 72 74  1  0  0  0
 72 82  1  0  0  0
 73 74  2  0  0  0
 73 75  1  0  0  0
 73 83  1  0  0  0
 74 86  1  0  0  0
 75 76  2  0  0  0
 75 85  1  0  0  0
 76 89  1  0  0  0
 77 79  1  0  0  0
 77 81  1  0  0  0
 77150  1  0  0  0
 77151  1  0  0  0
 78 80  1  0  0  0
 78 81  1  0  0  0
 78152  1  0  0  0
 78153  1  0  0  0
 79 88  1  0  0  0
 79154  1  0  0  0
 79155  1  0  0  0
 80 88  1  0  0  0
 80156  1  0  0  0
 80157  1  0  0  0
 81 89  1  0  0  0
 81158  1  0  0  0
 82159  1  0  0  0
 82160  1  0  0  0
 82161  1  0  0  0
 83162  1  0  0  0
 83163  1  0  0  0
 83164  1  0  0  0
 84 87  1  0  0  0
 84165  1  0  0  0
 84166  1  0  0  0
 84167  1  0  0  0
 85 87  1  0  0  0
 85168  1  0  0  0
 85169  1  0  0  0
 86170  1  0  0  0
 86171  1  0  0  0
 87172  1  0  0  0
 87173  1  0  0  0
M  ISO  4   1 100  68 101  86 101  88 100
M  END
> <chiral flag>
0

> <version>
0

> <s_m_source_file>
/data/baiqing/PycharmProjects/Reinvent-master-3.2/result/LINK_invent/BTK/process_docking_weight1_custom_sum_contain_oxygen_bond_distance_aromatic_linkinvent_7_9_3/rearranged_h_0157.sdf

> <i_m_source_file_index>
95

> <r_mmod_Potential_Energy-OPLS-2005>
337.495758056641

> <r_mmod_Stretch_Energy-OPLS-2005>
72.3932952880859

> <r_mmod_Bend_Energy-OPLS-2005>
170.881317138672

> <r_mmod_Torsional_Energy-OPLS-2005>
352.43505859375

> <r_mmod_Improper_Torsional_Energy-OPLS-2005>
3.29909563064575

> <r_mmod_Van_der_Waal_Energy-OPLS-2005>
168.495300292969

> <r_mmod_Electrostatic_Energy-OPLS-2005>
-281.488006591797

> <r_mmod_Solvation_Energy-OPLS-2005>
-193.409622192383

> <b_mmod_Minimization_Converged-OPLS-2005>
0

> <r_mmod_RMS_Derivative-OPLS-2005>
2.57836413383484

$$$$
95
                    3D
 Structure written by MMmdl.
162171  0  0  1  0            999 V2000
  -30.4744  -15.0744   20.3864 C   0  0  0  0  0  0
  -30.4471  -12.6674   19.5208 C   0  0  0  0  0  0
  -29.5342  -12.5600   18.2764 C   0  0  0  0  0  0
  -28.0703  -12.3225   18.6909 C   0  0  0  0  0  0
  -27.6262  -13.2605   19.8422 C   0  0  2  0  0  0
  -28.6645  -13.3275   20.9826 C   0  0  0  0  0  0
  -25.2435  -13.8233   20.5731 C   0  0  0  0  0  0
  -24.1758  -13.0439   20.9231 C   0  0  0  0  0  0
  -24.6398  -11.6932   20.8730 C   0  0  0  0  0  0
  -23.9073  -10.4299   21.0387 C   0  0  0  0  0  0
  -24.3639   -9.4217   21.9168 C   0  0  0  0  0  0
  -23.6306   -8.2249   22.0751 C   0  0  0  0  0  0
  -22.4282   -8.0276   21.3542 C   0  0  0  0  0  0
  -21.9917   -9.0253   20.4647 C   0  0  0  0  0  0
  -22.7240  -10.2130   20.3041 C   0  0  0  0  0  0
  -21.6860   -6.0736   22.5262 C   0  0  0  0  0  0
  -21.4023   -6.5648   23.8199 C   0  0  0  0  0  0
  -21.3668   -5.6792   24.9164 C   0  0  0  0  0  0
  -21.6047   -4.3055   24.7214 C   0  0  0  0  0  0
  -21.8825   -3.8150   23.4344 C   0  0  0  0  0  0
  -21.9209   -4.6959   22.3394 C   0  0  0  0  0  0
  -22.7770  -13.5189   21.1921 C   0  0  0  0  0  0
  -22.1667   -4.2145   21.0961 F   0  0  0  0  0  0
  -21.5636   -3.4536   25.7739 F   0  0  0  0  0  0
  -29.9315  -13.7779   20.3860 N   0  0  0  0  0  0
  -26.2871  -12.9489   20.3276 N   0  0  0  0  0  0
  -25.9346  -11.6600   20.5734 N   0  0  0  0  0  0
  -22.0422  -12.8163   22.0469 N   0  0  0  0  0  0
  -25.4074  -15.1966   20.4154 N   0  0  0  0  0  0
  -31.6639  -15.1532   20.0569 O   0  0  0  0  0  0
  -21.6655   -6.8868   21.4227 O   0  0  0  0  0  0
  -22.3441  -14.5504   20.6777 O   0  0  0  0  0  0
  -24.6501  -31.8370   23.1825 C   0  0  0  0  0  0
  -25.9238  -32.4645   23.8238 C   0  0  1  0  0  0
  -27.2166  -27.0520   20.1759 C   0  0  0  0  0  0
  -25.5970  -33.8464   24.2152 N   0  0  0  0  0  0
  -23.4595  -30.4544   21.5265 C   0  0  2  0  0  0
  -24.9126  -28.8607   20.1137 C   0  0  0  0  0  0
  -22.7594  -29.4527   22.4817 C   0  0  0  0  0  0
  -18.0316  -28.1395   22.8474 C   0  0  0  0  0  0
  -24.1492  -36.7240   23.2645 C   0  0  0  0  0  0
  -26.0216  -30.6809   21.3971 C   0  0  0  0  0  0
  -26.0909  -29.2834   20.7424 C   0  0  0  0  0  0
  -27.2431  -28.3974   20.7519 C   0  0  0  0  0  0
  -26.0139  -26.7535   19.4994 C   0  0  0  0  0  0
  -24.8919  -27.6125   19.4717 C   0  0  0  0  0  0
  -23.6938  -29.7751   20.1506 C   0  0  0  0  0  0
  -25.4127  -36.3021   24.0315 C   0  0  1  0  0  0
  -20.5937  -28.3743   23.1206 C   0  0  2  0  0  0
  -20.6796  -26.9440   22.5396 C   0  0  0  0  0  0
  -19.5763  -26.6378   21.5210 C   0  0  0  0  0  0
  -18.1951  -26.7932   22.1620 C   0  0  0  0  0  0
  -19.1578  -28.8886   23.2829 C   0  0  0  0  0  0
  -18.9488  -30.1479   23.8870 C   0  0  0  0  0  0
  -17.6478  -30.6596   24.0562 C   0  0  0  0  0  0
  -25.9093  -34.9390   23.5051 C   0  0  0  0  0  0
  -16.5370  -29.9090   23.6329 C   0  0  0  0  0  0
  -16.7295  -28.6500   23.0361 C   0  0  0  0  0  0
  -26.4537  -31.6548   25.0710 C   0  0  0  0  0  0
  -25.3700  -31.3766   26.1386 C   0  0  0  0  0  0
  -27.0420  -30.2927   24.6360 C   0  0  0  0  0  0
  -27.6054  -32.4338   25.7498 C   0  0  0  0  0  0
  -27.5581  -37.1774   24.8466 C   0  0  0  0  0  0
  -21.4288  -29.3057   22.3548 N   0  0  0  0  0  0
  -26.4288  -37.3739   23.9422 N   0  0  0  0  0  0
  -24.7303  -31.0146   22.0900 N   0  0  0  0  0  0
  -23.4177  -28.8062   23.3001 O   0  0  0  0  0  0
  -28.2543  -26.0243   20.2058 O   0  0  0  0  0  0
  -26.5677  -34.8895   22.4630 O   0  0  0  0  0  0
  -23.5584  -32.1298   23.6960 O   0  0  0  0  0  0
  -29.2715  -20.3596   20.5046 C   0  0  0  0  0  0
  -28.4961  -20.4781   19.3646 C   0  0  0  0  0  0
  -29.7390  -19.0009   20.9356 C   0  0  0  0  0  0
  -28.2158  -19.2929   18.6147 C   0  0  0  0  0  0
  -28.7172  -17.9822   18.9948 C   0  0  0  0  0  0
  -29.4842  -17.7304   20.1906 C   0  0  0  0  0  0
  -29.3472  -21.8555   21.0295 C   0  0  0  0  0  0
  -28.0155  -21.9584   19.0972 C   0  0  0  0  0  0
  -28.8019  -23.0129   20.0051 C   0  0  2  0  0  0
  -30.5166  -18.9051   22.2336 C   0  0  0  0  0  0
  -27.3244  -19.4403   17.3838 C   0  0  0  0  0  0
  -28.3607  -16.7998   18.0939 C   0  0  0  0  0  0
  -30.0039  -23.5189   19.1838 C   0  0  0  0  0  0
  -27.9823  -24.4735   20.4826 C   0  0  0  0  0  0
  -29.6728  -16.2435   20.6766 N   0  0  0  0  0  0
  -29.8168  -22.1685   22.1261 O   0  0  0  0  0  0
  -31.4783  -12.8442   19.2096 H   0  0  0  0  0  0
  -30.4610  -11.7255   20.0716 H   0  0  0  0  0  0
  -29.8785  -11.7534   17.6298 H   0  0  0  0  0  0
  -29.6088  -13.4767   17.6896 H   0  0  0  0  0  0
  -27.9853  -11.2841   19.0122 H   0  0  0  0  0  0
  -27.4080  -12.4326   17.8321 H   0  0  0  0  0  0
  -27.5754  -14.2542   19.4023 H   0  0  0  0  0  0
  -28.7741  -12.3584   21.4722 H   0  0  0  0  0  0
  -28.3418  -14.0277   21.7544 H   0  0  0  0  0  0
  -25.2778   -9.5711   22.4742 H   0  0  0  0  0  0
  -24.0023   -7.4662   22.7481 H   0  0  0  0  0  0
  -21.0850   -8.8777   19.8965 H   0  0  0  0  0  0
  -22.3688  -10.9680   19.6163 H   0  0  0  0  0  0
  -21.1990   -7.6150   23.9690 H   0  0  0  0  0  0
  -21.1491   -6.0529   25.9059 H   0  0  0  0  0  0
  -22.0597   -2.7614   23.2842 H   0  0  0  0  0  0
  -22.4038  -11.9840   22.4881 H   0  0  0  0  0  0
  -21.1039  -13.1169   22.2669 H   0  0  0  0  0  0
  -24.6374  -15.8469   20.5190 H   0  0  0  0  0  0
  -26.2551  -15.6396   20.0889 H   0  0  0  0  0  0
  -26.7292  -32.5208   23.0942 H   0  0  0  0  0  0
  -25.0093  -33.9568   25.0281 H   0  0  0  0  0  0
  -22.7660  -31.2810   21.3630 H   0  0  0  0  0  0
  -23.3775  -35.9555   23.3282 H   0  0  0  0  0  0
  -24.3584  -36.8897   22.2073 H   0  0  0  0  0  0
  -23.7212  -37.6409   23.6696 H   0  0  0  0  0  0
  -26.1900  -31.4274   20.6194 H   0  0  0  0  0  0
  -26.8853  -30.7335   22.0486 H   0  0  0  0  0  0
  -28.1351  -28.7194   21.2698 H   0  0  0  0  0  0
  -25.9175  -25.8052   18.9938 H   0  0  0  0  0  0
  -23.9980  -27.2881   18.9573 H   0  0  0  0  0  0
  -23.8389  -30.5450   19.3931 H   0  0  0  0  0  0
  -22.8081  -29.2222   19.8339 H   0  0  0  0  0  0
  -25.1318  -36.1862   25.0810 H   0  0  0  0  0  0
  -21.0029  -28.3355   24.1324 H   0  0  0  0  0  0
  -20.5689  -26.2373   23.3631 H   0  0  0  0  0  0
  -21.6661  -26.7430   22.1193 H   0  0  0  0  0  0
  -19.6934  -25.6284   21.1261 H   0  0  0  0  0  0
  -19.6696  -27.3171   20.6726 H   0  0  0  0  0  0
  -17.4220  -26.6679   21.4030 H   0  0  0  0  0  0
  -18.0354  -26.0083   22.9025 H   0  0  0  0  0  0
  -19.7975  -30.7305   24.2214 H   0  0  0  0  0  0
  -17.5044  -31.6278   24.5174 H   0  0  0  0  0  0
  -15.5375  -30.2981   23.7682 H   0  0  0  0  0  0
  -15.8696  -28.0808   22.7090 H   0  0  0  0  0  0
  -24.5866  -30.7134   25.7689 H   0  0  0  0  0  0
  -24.8901  -32.2963   26.4753 H   0  0  0  0  0  0
  -25.7956  -30.8956   27.0204 H   0  0  0  0  0  0
  -26.3061  -29.6611   24.1353 H   0  0  0  0  0  0
  -27.3987  -29.7270   25.4984 H   0  0  0  0  0  0
  -27.8997  -30.4134   23.9729 H   0  0  0  0  0  0
  -27.2625  -33.3658   26.2004 H   0  0  0  0  0  0
  -28.3892  -32.6864   25.0347 H   0  0  0  0  0  0
  -28.0684  -31.8510   26.5473 H   0  0  0  0  0  0
  -28.2577  -38.0087   24.7534 H   0  0  0  0  0  0
  -28.1092  -36.2624   24.6273 H   0  0  0  0  0  0
  -27.2301  -37.1391   25.8860 H   0  0  0  0  0  0
  -20.9515  -29.8765   21.6717 H   0  0  0  0  0  0
  -26.0160  -38.2810   24.1414 H   0  0  0  0  0  0
  -26.9472  -22.0042   19.3209 H   0  0  0  0  0  0
  -28.1156  -22.2014   18.0391 H   0  0  0  0  0  0
  -31.2266  -19.7267   22.3168 H   0  0  0  0  0  0
  -31.0847  -17.9761   22.2939 H   0  0  0  0  0  0
  -29.8424  -18.9516   23.0880 H   0  0  0  0  0  0
  -26.7129  -20.3401   17.4285 H   0  0  0  0  0  0
  -26.6203  -18.6118   17.2850 H   0  0  0  0  0  0
  -27.9280  -19.4883   16.4746 H   0  0  0  0  0  0
  -28.3933  -17.0752   17.0389 H   0  0  0  0  0  0
  -27.3555  -16.4375   18.3154 H   0  0  0  0  0  0
  -29.0557  -15.9692   18.1913 H   0  0  0  0  0  0
  -30.6454  -22.7100   18.8351 H   0  0  0  0  0  0
  -30.6167  -24.2080   19.7656 H   0  0  0  0  0  0
  -29.6631  -24.0624   18.3020 H   0  0  0  0  0  0
  -27.9781  -24.4338   21.5733 H   0  0  0  0  0  0
  -26.9369  -24.3040   20.2330 H   0  0  0  0  0  0
  -28.8252  -15.9151   21.1161 H   0  0  0  0  0  0
  1 25  1  0  0  0
  1 30  2  0  0  0
  1 85  1  0  0  0
  2  3  1  0  0  0
  2 25  1  0  0  0
  2 87  1  0  0  0
  2 88  1  0  0  0
  3  4  1  0  0  0
  3 89  1  0  0  0
  3 90  1  0  0  0
  4  5  1  0  0  0
  4 91  1  0  0  0
  4 92  1  0  0  0
  5  6  1  0  0  0
  5 26  1  0  0  0
  5 93  1  0  0  0
  6 25  1  0  0  0
  6 94  1  0  0  0
  6 95  1  0  0  0
  7  8  2  0  0  0
  7 26  1  0  0  0
  7 29  1  0  0  0
  8  9  1  0  0  0
  8 22  1  0  0  0
  9 10  1  0  0  0
  9 27  2  0  0  0
 10 11  2  0  0  0
 10 15  1  0  0  0
 11 12  1  0  0  0
 11 96  1  0  0  0
 12 13  2  0  0  0
 12 97  1  0  0  0
 13 14  1  0  0  0
 13 31  1  0  0  0
 14 15  2  0  0  0
 14 98  1  0  0  0
 15 99  1  0  0  0
 16 17  2  0  0  0
 16 21  1  0  0  0
 16 31  1  0  0  0
 17 18  1  0  0  0
 17100  1  0  0  0
 18 19  2  0  0  0
 18101  1  0  0  0
 19 20  1  0  0  0
 19 24  1  0  0  0
 20 21  2  0  0  0
 20102  1  0  0  0
 21 23  1  0  0  0
 22 28  1  0  0  0
 22 32  2  0  0  0
 26 27  1  0  0  0
 28103  1  0  0  0
 28104  1  0  0  0
 29105  1  0  0  0
 29106  1  0  0  0
 33 34  1  0  0  0
 33 66  1  0  0  0
 33 70  2  0  0  0
 34 36  1  0  0  0
 34 59  1  0  0  0
 34107  1  0  0  0
 35 44  2  0  0  0
 35 45  1  0  0  0
 35 68  1  0  0  0
 36 56  1  0  0  0
 36108  1  0  0  0
 37 39  1  0  0  0
 37 47  1  0  0  0
 37 66  1  0  0  0
 37109  1  0  0  0
 38 43  2  0  0  0
 38 46  1  0  0  0
 38 47  1  0  0  0
 39 64  1  0  0  0
 39 67  2  0  0  0
 40 52  1  0  0  0
 40 53  2  0  0  0
 40 58  1  0  0  0
 41110  1  0  0  0
 41111  1  0  0  0
 41112  1  0  0  0
 41 48  1  0  0  0
 42 43  1  0  0  0
 42 66  1  0  0  0
 42113  1  0  0  0
 42114  1  0  0  0
 43 44  1  0  0  0
 44115  1  0  0  0
 45 46  2  0  0  0
 45116  1  0  0  0
 46117  1  0  0  0
 47118  1  0  0  0
 47119  1  0  0  0
 48 56  1  0  0  0
 48 65  1  0  0  0
 48120  1  0  0  0
 49 50  1  0  0  0
 49 53  1  0  0  0
 49 64  1  0  0  0
 49121  1  0  0  0
 50 51  1  0  0  0
 50122  1  0  0  0
 50123  1  0  0  0
 51 52  1  0  0  0
 51124  1  0  0  0
 51125  1  0  0  0
 52126  1  0  0  0
 52127  1  0  0  0
 53 54  1  0  0  0
 54 55  2  0  0  0
 54128  1  0  0  0
 55 57  1  0  0  0
 55129  1  0  0  0
 56 69  2  0  0  0
 57 58  2  0  0  0
 57130  1  0  0  0
 58131  1  0  0  0
 59 60  1  0  0  0
 59 61  1  0  0  0
 59 62  1  0  0  0
 60132  1  0  0  0
 60133  1  0  0  0
 60134  1  0  0  0
 61135  1  0  0  0
 61136  1  0  0  0
 61137  1  0  0  0
 62138  1  0  0  0
 62139  1  0  0  0
 62140  1  0  0  0
 63 65  1  0  0  0
 63141  1  0  0  0
 63142  1  0  0  0
 63143  1  0  0  0
 64144  1  0  0  0
 65145  1  0  0  0
 68 84  1  0  0  0
 71 72  1  0  0  0
 71 73  2  0  0  0
 71 77  1  0  0  0
 72 74  2  0  0  0
 72 78  1  0  0  0
 73 76  1  0  0  0
 73 80  1  0  0  0
 74 75  1  0  0  0
 74 81  1  0  0  0
 75 76  2  0  0  0
 75 82  1  0  0  0
 76 85  1  0  0  0
 77 79  1  0  0  0
 77 86  2  0  0  0
 78 79  1  0  0  0
 78146  1  0  0  0
 78147  1  0  0  0
 79 83  1  0  0  0
 79 84  1  0  0  0
 80148  1  0  0  0
 80149  1  0  0  0
 80150  1  0  0  0
 81151  1  0  0  0
 81152  1  0  0  0
 81153  1  0  0  0
 82154  1  0  0  0
 82155  1  0  0  0
 82156  1  0  0  0
 83157  1  0  0  0
 83158  1  0  0  0
 83159  1  0  0  0
 84160  1  0  0  0
 84161  1  0  0  0
 85162  1  0  0  0
M  ISO  4   1 100  68 101  84 101  85 100
M  END
> <chiral flag>
0

> <version>
0

> <s_m_source_file>
/data/baiqing/PycharmProjects/Reinvent-master-3.2/result/LINK_invent/BTK/process_docking_weight1_custom_sum_contain_oxygen_bond_distance_aromatic_linkinvent_7_9_3/rearranged_h_0157.sdf

> <i_m_source_file_index>
96

> <r_mmod_Potential_Energy-OPLS-2005>
803.403503417969

> <r_mmod_Stretch_Energy-OPLS-2005>
343.746124267578

> <r_mmod_Bend_Energy-OPLS-2005>
352.591003417969

> <r_mmod_Torsional_Energy-OPLS-2005>
304.604278564453

> <r_mmod_Improper_Torsional_Energy-OPLS-2005>
5.7625880241394

> <r_mmod_Van_der_Waal_Energy-OPLS-2005>
121.933601379395

> <r_mmod_Electrostatic_Energy-OPLS-2005>
-390.588134765625

> <r_mmod_Solvation_Energy-OPLS-2005>
-218.549621582031

> <b_mmod_Minimization_Converged-OPLS-2005>
0

> <r_mmod_RMS_Derivative-OPLS-2005>
3.7883141040802

$$$$
96
                    3D
 Structure written by MMmdl.
169178  0  0  1  0            999 V2000
  -30.6495  -14.5279   20.5484 C   0  0  0  0  0  0
  -30.4327  -12.3342   19.4219 C   0  0  0  0  0  0
  -29.4976  -12.4984   18.2053 C   0  0  0  0  0  0
  -28.0180  -12.3495   18.6204 C   0  0  0  0  0  0
  -27.6540  -13.2025   19.8652 C   0  0  2  0  0  0
  -28.6978  -13.0022   20.9866 C   0  0  0  0  0  0
  -25.2554  -13.8144   20.5671 C   0  0  0  0  0  0
  -24.1808  -13.0428   20.9188 C   0  0  0  0  0  0
  -24.6366  -11.6895   20.8745 C   0  0  0  0  0  0
  -23.9039  -10.4284   21.0411 C   0  0  0  0  0  0
  -24.3593   -9.4198   21.9188 C   0  0  0  0  0  0
  -23.6278   -8.2226   22.0754 C   0  0  0  0  0  0
  -22.4254   -8.0275   21.3547 C   0  0  0  0  0  0
  -21.9885   -9.0247   20.4651 C   0  0  0  0  0  0
  -22.7212  -10.2126   20.3063 C   0  0  0  0  0  0
  -21.6847   -6.0733   22.5282 C   0  0  0  0  0  0
  -21.4020   -6.5640   23.8219 C   0  0  0  0  0  0
  -21.3659   -5.6790   24.9177 C   0  0  0  0  0  0
  -21.6037   -4.3050   24.7227 C   0  0  0  0  0  0
  -21.8815   -3.8143   23.4346 C   0  0  0  0  0  0
  -21.9189   -4.6962   22.3405 C   0  0  0  0  0  0
  -22.7832  -13.5230   21.1850 C   0  0  0  0  0  0
  -22.1654   -4.2157   21.0979 F   0  0  0  0  0  0
  -21.5627   -3.4531   25.7736 F   0  0  0  0  0  0
  -30.0193  -13.3273   20.4243 N   0  0  0  0  0  0
  -26.2972  -12.9304   20.3313 N   0  0  0  0  0  0
  -25.9281  -11.6475   20.5739 N   0  0  0  0  0  0
  -22.0468  -12.8237   22.0418 N   0  0  0  0  0  0
  -25.4263  -15.1869   20.4079 N   0  0  0  0  0  0
  -31.8079  -14.7178   20.1609 O   0  0  0  0  0  0
  -21.6626   -6.8865   21.4239 O   0  0  0  0  0  0
  -22.3527  -14.5540   20.6707 O   0  0  0  0  0  0
  -24.6195  -31.8659   23.2092 C   0  0  0  0  0  0
  -25.9072  -32.4811   23.8389 C   0  0  1  0  0  0
  -27.2274  -27.3850   20.0845 C   0  0  0  0  0  0
  -25.5913  -33.8610   24.2316 N   0  0  0  0  0  0
  -23.4085  -30.4936   21.5511 C   0  0  2  0  0  0
  -24.8500  -28.9575   20.1135 C   0  0  0  0  0  0
  -22.7429  -29.4661   22.4965 C   0  0  0  0  0  0
  -18.0279  -28.1393   22.8494 C   0  0  0  0  0  0
  -24.1484  -36.7305   23.2638 C   0  0  0  0  0  0
  -25.9449  -30.8141   21.3718 C   0  0  0  0  0  0
  -26.0156  -29.4469   20.7133 C   0  0  0  0  0  0
  -27.2010  -28.6677   20.6979 C   0  0  0  0  0  0
  -26.0283  -26.9241   19.4859 C   0  0  0  0  0  0
  -24.8537  -27.6967   19.5011 C   0  0  0  0  0  0
  -23.6181  -29.8336   20.1636 C   0  0  0  0  0  0
  -25.4107  -36.3106   24.0335 C   0  0  1  0  0  0
  -20.5874  -28.3685   23.1302 C   0  0  2  0  0  0
  -20.6770  -26.9416   22.5415 C   0  0  0  0  0  0
  -19.5746  -26.6393   21.5216 C   0  0  0  0  0  0
  -18.1925  -26.7936   22.1628 C   0  0  0  0  0  0
  -19.1532  -28.8852   23.2900 C   0  0  0  0  0  0
  -18.9460  -30.1453   23.8921 C   0  0  0  0  0  0
  -17.6463  -30.6596   24.0573 C   0  0  0  0  0  0
  -25.9041  -34.9472   23.5125 C   0  0  0  0  0  0
  -16.5352  -29.9105   23.6326 C   0  0  0  0  0  0
  -16.7266  -28.6521   23.0347 C   0  0  0  0  0  0
  -26.4481  -31.6602   25.0734 C   0  0  0  0  0  0
  -25.3737  -31.3727   26.1479 C   0  0  0  0  0  0
  -27.0314  -30.3033   24.6154 C   0  0  0  0  0  0
  -27.6053  -32.4329   25.7498 C   0  0  0  0  0  0
  -27.5582  -37.1809   24.8466 C   0  0  0  0  0  0
  -21.4154  -29.3051   22.3702 N   0  0  0  0  0  0
  -26.4290  -37.3795   23.9414 N   0  0  0  0  0  0
  -24.6763  -31.0729   22.1012 N   0  0  0  0  0  0
  -23.4184  -28.8197   23.3014 O   0  0  0  0  0  0
  -28.4038  -26.6381   20.1265 O   0  0  0  0  0  0
  -26.5607  -34.8927   22.4692 O   0  0  0  0  0  0
  -23.5375  -32.1435   23.7460 O   0  0  0  0  0  0
  -30.9810  -18.3804   23.0907 C   0  0  0  0  0  0
  -29.6146  -18.0077   20.6813 C   0  0  0  0  0  0
  -30.4238  -19.4989   22.4349 C   0  0  0  0  0  0
  -30.8440  -17.0759   22.5764 C   0  0  0  0  0  0
  -29.7463  -19.3329   21.1976 C   0  0  0  0  0  0
  -30.1526  -16.8728   21.3584 C   0  0  0  0  0  0
  -31.1085  -21.8396   18.0716 C   0  0  0  0  0  0
  -30.3145  -23.1257   18.2348 C   0  0  0  0  0  0
  -31.2592  -21.3613   19.5108 C   0  0  0  0  0  0
  -29.3789  -22.8726   19.4366 C   0  0  2  0  0  0
  -30.5571  -20.8532   23.1144 C   0  0  0  0  0  0
  -31.3888  -15.9133   23.3917 C   0  0  0  0  0  0
  -29.1057  -20.5402   20.4511 C   0  0  0  0  0  0
  -29.1443  -24.1968   20.2525 C   0  0  0  0  0  0
  -28.5537  -25.3799   19.4114 C   0  0  0  0  0  0
  -29.8350  -15.5467   20.9145 N   0  0  0  0  0  0
  -29.9984  -21.7265   20.2043 N   0  3  1  0  0  0
  -31.4761  -12.4558   19.1249 H   0  0  0  0  0  0
  -30.3537  -11.3283   19.8369 H   0  0  0  0  0  0
  -29.7446  -11.7632   17.4385 H   0  0  0  0  0  0
  -29.6548  -13.4779   17.7521 H   0  0  0  0  0  0
  -27.8387  -11.2942   18.8332 H   0  0  0  0  0  0
  -27.3638  -12.6045   17.7860 H   0  0  0  0  0  0
  -27.6877  -14.2448   19.5485 H   0  0  0  0  0  0
  -28.6871  -11.9680   21.3367 H   0  0  0  0  0  0
  -28.4584  -13.6066   21.8635 H   0  0  0  0  0  0
  -25.2743   -9.5675   22.4752 H   0  0  0  0  0  0
  -23.9999   -7.4609   22.7464 H   0  0  0  0  0  0
  -21.0819   -8.8763   19.8950 H   0  0  0  0  0  0
  -22.3679  -10.9662   19.6167 H   0  0  0  0  0  0
  -21.2021   -7.6150   23.9727 H   0  0  0  0  0  0
  -21.1485   -6.0517   25.9082 H   0  0  0  0  0  0
  -22.0594   -2.7609   23.2841 H   0  0  0  0  0  0
  -22.4074  -11.9908   22.4830 H   0  0  0  0  0  0
  -21.1094  -13.1279   22.2622 H   0  0  0  0  0  0
  -24.6530  -15.8355   20.5082 H   0  0  0  0  0  0
  -26.2683  -15.6280   20.0615 H   0  0  0  0  0  0
  -26.7144  -32.5500   23.1145 H   0  0  0  0  0  0
  -25.0063  -33.9770   25.0460 H   0  0  0  0  0  0
  -22.6995  -31.3130   21.4147 H   0  0  0  0  0  0
  -23.3749  -35.9636   23.3304 H   0  0  0  0  0  0
  -24.3577  -36.8918   22.2052 H   0  0  0  0  0  0
  -23.7230  -37.6507   23.6651 H   0  0  0  0  0  0
  -26.0718  -31.5808   20.6058 H   0  0  0  0  0  0
  -26.8271  -30.8584   21.9987 H   0  0  0  0  0  0
  -28.0985  -29.0440   21.1685 H   0  0  0  0  0  0
  -25.9336  -25.9646   19.0080 H   0  0  0  0  0  0
  -23.9543  -27.3103   19.0411 H   0  0  0  0  0  0
  -23.7388  -30.6136   19.4104 H   0  0  0  0  0  0
  -22.7370  -29.2655   19.8597 H   0  0  0  0  0  0
  -25.1284  -36.1970   25.0826 H   0  0  0  0  0  0
  -20.9973  -28.3265   24.1418 H   0  0  0  0  0  0
  -20.5675  -26.2300   23.3613 H   0  0  0  0  0  0
  -21.6642  -26.7462   22.1210 H   0  0  0  0  0  0
  -19.6909  -25.6307   21.1244 H   0  0  0  0  0  0
  -19.6679  -27.3207   20.6751 H   0  0  0  0  0  0
  -17.4192  -26.6682   21.4033 H   0  0  0  0  0  0
  -18.0326  -26.0081   22.9028 H   0  0  0  0  0  0
  -19.7936  -30.7259   24.2304 H   0  0  0  0  0  0
  -17.5022  -31.6274   24.5183 H   0  0  0  0  0  0
  -15.5356  -30.3020   23.7635 H   0  0  0  0  0  0
  -15.8664  -28.0848   22.7050 H   0  0  0  0  0  0
  -24.5902  -30.7082   25.7821 H   0  0  0  0  0  0
  -24.8936  -32.2888   26.4929 H   0  0  0  0  0  0
  -25.8075  -30.8894   27.0241 H   0  0  0  0  0  0
  -26.2873  -29.6797   24.1186 H   0  0  0  0  0  0
  -27.4038  -29.7275   25.4637 H   0  0  0  0  0  0
  -27.8732  -30.4334   23.9350 H   0  0  0  0  0  0
  -27.2670  -33.3626   26.2088 H   0  0  0  0  0  0
  -28.3850  -32.6897   25.0315 H   0  0  0  0  0  0
  -28.0736  -31.8450   26.5402 H   0  0  0  0  0  0
  -28.2606  -38.0102   24.7515 H   0  0  0  0  0  0
  -28.1069  -36.2634   24.6283 H   0  0  0  0  0  0
  -27.2304  -37.1460   25.8871 H   0  0  0  0  0  0
  -20.9315  -29.8774   21.6927 H   0  0  0  0  0  0
  -26.0176  -38.2871   24.1418 H   0  0  0  0  0  0
  -31.4939  -18.5217   24.0325 H   0  0  0  0  0  0
  -29.0590  -17.8547   19.7658 H   0  0  0  0  0  0
  -32.0684  -21.9907   17.5752 H   0  0  0  0  0  0
  -30.5391  -21.1114   17.4928 H   0  0  0  0  0  0
  -29.7718  -23.4000   17.3295 H   0  0  0  0  0  0
  -31.0090  -23.9377   18.4574 H   0  0  0  0  0  0
  -32.0759  -21.9014   19.9922 H   0  0  0  0  0  0
  -31.5156  -20.3025   19.5574 H   0  0  0  0  0  0
  -28.4178  -22.5348   19.0442 H   0  0  0  0  0  0
  -30.7635  -20.7339   24.1782 H   0  0  0  0  0  0
  -29.6388  -21.4368   23.0399 H   0  0  0  0  0  0
  -31.3829  -21.4218   22.6859 H   0  0  0  0  0  0
  -32.1914  -15.4090   22.8534 H   0  0  0  0  0  0
  -30.6010  -15.1894   23.6027 H   0  0  0  0  0  0
  -31.7919  -16.2476   24.3481 H   0  0  0  0  0  0
  -28.2383  -20.8702   21.0241 H   0  0  0  0  0  0
  -28.7168  -20.1928   19.4925 H   0  0  0  0  0  0
  -30.0864  -24.5195   20.6963 H   0  0  0  0  0  0
  -28.4727  -23.9891   21.0858 H   0  0  0  0  0  0
  -27.6583  -25.0068   18.9297 H   0  0  0  0  0  0
  -29.2300  -25.6027   18.5866 H   0  0  0  0  0  0
  -28.8630  -15.2917   20.9922 H   0  0  0  0  0  0
  -30.2601  -22.0635   21.1176 H   0  0  0  0  0  0
  1 25  1  0  0  0
  1 30  2  0  0  0
  1 86  1  0  0  0
  2  3  1  0  0  0
  2 25  1  0  0  0
  2 88  1  0  0  0
  2 89  1  0  0  0
  3  4  1  0  0  0
  3 90  1  0  0  0
  3 91  1  0  0  0
  4  5  1  0  0  0
  4 92  1  0  0  0
  4 93  1  0  0  0
  5  6  1  0  0  0
  5 26  1  0  0  0
  5 94  1  0  0  0
  6 25  1  0  0  0
  6 95  1  0  0  0
  6 96  1  0  0  0
  7  8  2  0  0  0
  7 26  1  0  0  0
  7 29  1  0  0  0
  8  9  1  0  0  0
  8 22  1  0  0  0
  9 10  1  0  0  0
  9 27  2  0  0  0
 10 11  2  0  0  0
 10 15  1  0  0  0
 11 12  1  0  0  0
 11 97  1  0  0  0
 12 13  2  0  0  0
 12 98  1  0  0  0
 13 14  1  0  0  0
 13 31  1  0  0  0
 14 15  2  0  0  0
 14 99  1  0  0  0
 15100  1  0  0  0
 16 17  2  0  0  0
 16 21  1  0  0  0
 16 31  1  0  0  0
 17 18  1  0  0  0
 17101  1  0  0  0
 18 19  2  0  0  0
 18102  1  0  0  0
 19 20  1  0  0  0
 19 24  1  0  0  0
 20 21  2  0  0  0
 20103  1  0  0  0
 21 23  1  0  0  0
 22 28  1  0  0  0
 22 32  2  0  0  0
 26 27  1  0  0  0
 28104  1  0  0  0
 28105  1  0  0  0
 29106  1  0  0  0
 29107  1  0  0  0
 33 34  1  0  0  0
 33 66  1  0  0  0
 33 70  2  0  0  0
 34 36  1  0  0  0
 34 59  1  0  0  0
 34108  1  0  0  0
 35 44  2  0  0  0
 35 45  1  0  0  0
 35 68  1  0  0  0
 36 56  1  0  0  0
 36109  1  0  0  0
 37 39  1  0  0  0
 37 47  1  0  0  0
 37 66  1  0  0  0
 37110  1  0  0  0
 38 43  2  0  0  0
 38 46  1  0  0  0
 38 47  1  0  0  0
 39 64  1  0  0  0
 39 67  2  0  0  0
 40 52  1  0  0  0
 40 53  2  0  0  0
 40 58  1  0  0  0
 41111  1  0  0  0
 41112  1  0  0  0
 41113  1  0  0  0
 41 48  1  0  0  0
 42 43  1  0  0  0
 42 66  1  0  0  0
 42114  1  0  0  0
 42115  1  0  0  0
 43 44  1  0  0  0
 44116  1  0  0  0
 45 46  2  0  0  0
 45117  1  0  0  0
 46118  1  0  0  0
 47119  1  0  0  0
 47120  1  0  0  0
 48 56  1  0  0  0
 48 65  1  0  0  0
 48121  1  0  0  0
 49 50  1  0  0  0
 49 53  1  0  0  0
 49 64  1  0  0  0
 49122  1  0  0  0
 50 51  1  0  0  0
 50123  1  0  0  0
 50124  1  0  0  0
 51 52  1  0  0  0
 51125  1  0  0  0
 51126  1  0  0  0
 52127  1  0  0  0
 52128  1  0  0  0
 53 54  1  0  0  0
 54 55  2  0  0  0
 54129  1  0  0  0
 55 57  1  0  0  0
 55130  1  0  0  0
 56 69  2  0  0  0
 57 58  2  0  0  0
 57131  1  0  0  0
 58132  1  0  0  0
 59 60  1  0  0  0
 59 61  1  0  0  0
 59 62  1  0  0  0
 60133  1  0  0  0
 60134  1  0  0  0
 60135  1  0  0  0
 61136  1  0  0  0
 61137  1  0  0  0
 61138  1  0  0  0
 62139  1  0  0  0
 62140  1  0  0  0
 62141  1  0  0  0
 63 65  1  0  0  0
 63142  1  0  0  0
 63143  1  0  0  0
 63144  1  0  0  0
 64145  1  0  0  0
 65146  1  0  0  0
 68 85  1  0  0  0
 71 73  2  0  0  0
 71 74  1  0  0  0
 71147  1  0  0  0
 72 75  2  0  0  0
 72 76  1  0  0  0
 72148  1  0  0  0
 73 75  1  0  0  0
 73 81  1  0  0  0
 74 76  2  0  0  0
 74 82  1  0  0  0
 75 83  1  0  0  0
 76 86  1  0  0  0
 77 78  1  0  0  0
 77 79  1  0  0  0
 77149  1  0  0  0
 77150  1  0  0  0
 78 80  1  0  0  0
 78151  1  0  0  0
 78152  1  0  0  0
 79 87  1  0  0  0
 79153  1  0  0  0
 79154  1  0  0  0
 80 84  1  0  0  0
 80 87  1  0  0  0
 80155  1  0  0  0
 81156  1  0  0  0
 81157  1  0  0  0
 81158  1  0  0  0
 82159  1  0  0  0
 82160  1  0  0  0
 82161  1  0  0  0
 83162  1  0  0  0
 83163  1  0  0  0
 83 87  1  0  0  0
 84 85  1  0  0  0
 84164  1  0  0  0
 84165  1  0  0  0
 85166  1  0  0  0
 85167  1  0  0  0
 86168  1  0  0  0
 87169  1  0  0  0
M  CHG  1  87   1
M  ISO  4   1 100  68 101  85 101  86 100
M  END
> <chiral flag>
0

> <version>
0

> <s_m_source_file>
/data/baiqing/PycharmProjects/Reinvent-master-3.2/result/LINK_invent/BTK/process_docking_weight1_custom_sum_contain_oxygen_bond_distance_aromatic_linkinvent_7_9_3/rearranged_h_0157.sdf

> <i_m_source_file_index>
97

> <r_mmod_Potential_Energy-OPLS-2005>
-52.8330535888672

> <r_mmod_Stretch_Energy-OPLS-2005>
54.082103729248

> <r_mmod_Bend_Energy-OPLS-2005>
141.093215942383

> <r_mmod_Torsional_Energy-OPLS-2005>
291.668121337891

> <r_mmod_Improper_Torsional_Energy-OPLS-2005>
6.245774269104

> <r_mmod_Van_der_Waal_Energy-OPLS-2005>
152.193511962891

> <r_mmod_Electrostatic_Energy-OPLS-2005>
-287.211761474609

> <r_mmod_Solvation_Energy-OPLS-2005>
-433.48876953125

> <b_mmod_Minimization_Converged-OPLS-2005>
0

> <r_mmod_RMS_Derivative-OPLS-2005>
1.69994711875916

$$$$
97
                    3D
 Structure written by MMmdl.
174183  0  0  1  0            999 V2000
  -30.7123  -14.4815   20.2861 C   0  0  0  0  0  0
  -30.4070  -12.2416   19.4145 C   0  0  0  0  0  0
  -29.4655  -12.3362   18.1937 C   0  0  0  0  0  0
  -27.9915  -12.2867   18.6308 C   0  0  0  0  0  0
  -27.6482  -13.2017   19.8379 C   0  0  2  0  0  0
  -28.7132  -13.1074   20.9533 C   0  0  0  0  0  0
  -25.2585  -13.8182   20.5703 C   0  0  0  0  0  0
  -24.1823  -13.0461   20.9220 C   0  0  0  0  0  0
  -24.6382  -11.6930   20.8805 C   0  0  0  0  0  0
  -23.9038  -10.4313   21.0453 C   0  0  0  0  0  0
  -24.3596   -9.4226   21.9221 C   0  0  0  0  0  0
  -23.6291   -8.2241   22.0755 C   0  0  0  0  0  0
  -22.4266   -8.0274   21.3552 C   0  0  0  0  0  0
  -21.9910   -9.0248   20.4653 C   0  0  0  0  0  0
  -22.7218  -10.2145   20.3095 C   0  0  0  0  0  0
  -21.6842   -6.0732   22.5265 C   0  0  0  0  0  0
  -21.4008   -6.5633   23.8207 C   0  0  0  0  0  0
  -21.3654   -5.6781   24.9166 C   0  0  0  0  0  0
  -21.6049   -4.3048   24.7223 C   0  0  0  0  0  0
  -21.8808   -3.8138   23.4335 C   0  0  0  0  0  0
  -21.9198   -4.6963   22.3397 C   0  0  0  0  0  0
  -22.7855  -13.5283   21.1829 C   0  0  0  0  0  0
  -22.1662   -4.2146   21.0972 F   0  0  0  0  0  0
  -21.5647   -3.4528   25.7735 F   0  0  0  0  0  0
  -30.0329  -13.3119   20.3437 N   0  0  0  0  0  0
  -26.2990  -12.9334   20.3331 N   0  0  0  0  0  0
  -25.9314  -11.6511   20.5876 N   0  0  0  0  0  0
  -22.0448  -12.8320   22.0373 N   0  0  0  0  0  0
  -25.4384  -15.1879   20.4111 N   0  0  0  0  0  0
  -31.9356  -14.5444   20.4038 O   0  0  0  0  0  0
  -21.6637   -6.8869   21.4227 O   0  0  0  0  0  0
  -22.3578  -14.5594   20.6652 O   0  0  0  0  0  0
  -24.6140  -31.8682   23.2137 C   0  0  0  0  0  0
  -25.9042  -32.4827   23.8413 C   0  0  1  0  0  0
  -27.2216  -27.4413   20.0977 C   0  0  0  0  0  0
  -25.5900  -33.8620   24.2357 N   0  0  0  0  0  0
  -23.3986  -30.5018   21.5499 C   0  0  2  0  0  0
  -24.8407  -28.9698   20.1132 C   0  0  0  0  0  0
  -22.7387  -29.4700   22.4929 C   0  0  0  0  0  0
  -18.0287  -28.1356   22.8480 C   0  0  0  0  0  0
  -24.1466  -36.7320   23.2633 C   0  0  0  0  0  0
  -25.9277  -30.8407   21.3616 C   0  0  0  0  0  0
  -26.0034  -29.4770   20.7093 C   0  0  0  0  0  0
  -27.1950  -28.7209   20.6967 C   0  0  0  0  0  0
  -26.0423  -26.9557   19.4838 C   0  0  0  0  0  0
  -24.8559  -27.7080   19.4978 C   0  0  0  0  0  0
  -23.6049  -29.8380   20.1628 C   0  0  0  0  0  0
  -25.4085  -36.3126   24.0350 C   0  0  1  0  0  0
  -20.5861  -28.3671   23.1269 C   0  0  2  0  0  0
  -20.6763  -26.9388   22.5387 C   0  0  0  0  0  0
  -19.5739  -26.6366   21.5184 C   0  0  0  0  0  0
  -18.1928  -26.7904   22.1606 C   0  0  0  0  0  0
  -19.1530  -28.8823   23.2885 C   0  0  0  0  0  0
  -18.9471  -30.1423   23.8903 C   0  0  0  0  0  0
  -17.6476  -30.6566   24.0562 C   0  0  0  0  0  0
  -25.9009  -34.9477   23.5148 C   0  0  0  0  0  0
  -16.5356  -29.9074   23.6316 C   0  0  0  0  0  0
  -16.7279  -28.6478   23.0353 C   0  0  0  0  0  0
  -26.4488  -31.6603   25.0731 C   0  0  0  0  0  0
  -25.3771  -31.3729   26.1500 C   0  0  0  0  0  0
  -27.0326  -30.3043   24.6107 C   0  0  0  0  0  0
  -27.6066  -32.4312   25.7507 C   0  0  0  0  0  0
  -27.5571  -37.1817   24.8462 C   0  0  0  0  0  0
  -21.4116  -29.3058   22.3666 N   0  0  0  0  0  0
  -26.4277  -37.3815   23.9418 N   0  0  0  0  0  0
  -24.6670  -31.0808   22.1018 N   0  0  0  0  0  0
  -23.4165  -28.8188   23.2926 O   0  0  0  0  0  0
  -28.3944  -26.7175   20.1071 O   0  0  0  0  0  0
  -26.5556  -34.8927   22.4699 O   0  0  0  0  0  0
  -23.5336  -32.1412   23.7551 O   0  0  0  0  0  0
  -28.9576  -18.5738   20.8642 C   0  0  0  0  0  0
  -28.4758  -16.9251   18.6598 C   0  0  0  0  0  0
  -28.2349  -19.0862   19.7600 C   0  0  0  0  0  0
  -29.3444  -16.4716   19.6808 C   0  0  0  0  0  0
  -29.4846  -17.2549   20.8551 C   0  0  0  0  0  0
  -27.9208  -18.2229   18.6824 C   0  0  0  0  0  0
  -27.9219  -21.4515   20.9018 C   0  0  0  0  0  0
  -28.7992  -21.1927   18.5107 C   0  0  0  0  0  0
  -29.1998  -22.3110   21.0758 C   0  0  0  0  0  0
  -28.8871  -22.7185   18.6075 C   0  0  0  0  0  0
  -27.9023  -20.5794   19.6147 C   0  0  1  0  0  0
  -30.9055  -15.4633   18.1082 C   0  0  0  0  0  0
  -29.7708  -17.1395   23.2125 C   0  0  0  0  0  0
  -27.1487  -18.0506   16.4038 C   0  0  0  0  0  0
  -29.6244  -24.6119   20.0768 C   0  0  0  0  0  0
  -28.2780  -25.3074   20.3558 C   0  0  0  0  0  0
  -30.1565  -15.3291   19.3795 N   0  0  0  0  0  0
  -29.5485  -23.1329   19.8752 N   0  3  1  0  0  0
  -30.2095  -16.7597   21.9147 O   0  0  0  0  0  0
  -27.1390  -18.7207   17.6592 O   0  0  0  0  0  0
  -31.4485  -12.3115   19.0913 H   0  0  0  0  0  0
  -30.3018  -11.2719   19.9028 H   0  0  0  0  0  0
  -29.6636  -11.4987   17.5246 H   0  0  0  0  0  0
  -29.6443  -13.2270   17.5968 H   0  0  0  0  0  0
  -27.7818  -11.2501   18.8912 H   0  0  0  0  0  0
  -27.3405  -12.5170   17.7875 H   0  0  0  0  0  0
  -27.6515  -14.2218   19.4588 H   0  0  0  0  0  0
  -28.6797  -12.1357   21.4463 H   0  0  0  0  0  0
  -28.5276  -13.8620   21.7188 H   0  0  0  0  0  0
  -25.2743   -9.5701   22.4812 H   0  0  0  0  0  0
  -24.0004   -7.4626   22.7471 H   0  0  0  0  0  0
  -21.0838   -8.8762   19.8965 H   0  0  0  0  0  0
  -22.3668  -10.9691   19.6214 H   0  0  0  0  0  0
  -21.1984   -7.6139   23.9702 H   0  0  0  0  0  0
  -21.1494   -6.0517   25.9066 H   0  0  0  0  0  0
  -22.0605   -2.7602   23.2827 H   0  0  0  0  0  0
  -22.4027  -12.0013   22.4851 H   0  0  0  0  0  0
  -21.1048  -13.1370   22.2475 H   0  0  0  0  0  0
  -24.6813  -15.8524   20.5262 H   0  0  0  0  0  0
  -26.3033  -15.6184   20.1103 H   0  0  0  0  0  0
  -26.7111  -32.5552   23.1182 H   0  0  0  0  0  0
  -25.0147  -33.9774   25.0571 H   0  0  0  0  0  0
  -22.6893  -31.3207   21.4139 H   0  0  0  0  0  0
  -23.3730  -35.9655   23.3314 H   0  0  0  0  0  0
  -24.3554  -36.8909   22.2041 H   0  0  0  0  0  0
  -23.7207  -37.6534   23.6618 H   0  0  0  0  0  0
  -26.0309  -31.6062   20.5904 H   0  0  0  0  0  0
  -26.8192  -30.8956   21.9742 H   0  0  0  0  0  0
  -28.0902  -29.1107   21.1613 H   0  0  0  0  0  0
  -26.0114  -26.0127   18.9623 H   0  0  0  0  0  0
  -23.9659  -27.3140   19.0258 H   0  0  0  0  0  0
  -23.7157  -30.6143   19.4041 H   0  0  0  0  0  0
  -22.7293  -29.2600   19.8615 H   0  0  0  0  0  0
  -25.1258  -36.2021   25.0849 H   0  0  0  0  0  0
  -21.0017  -28.3260   24.1366 H   0  0  0  0  0  0
  -20.5620  -26.2287   23.3593 H   0  0  0  0  0  0
  -21.6649  -26.7380   22.1208 H   0  0  0  0  0  0
  -19.6891  -25.6285   21.1202 H   0  0  0  0  0  0
  -19.6688  -27.3190   20.6721 H   0  0  0  0  0  0
  -17.4194  -26.6659   21.4015 H   0  0  0  0  0  0
  -18.0334  -26.0041   22.8990 H   0  0  0  0  0  0
  -19.7951  -30.7231   24.2271 H   0  0  0  0  0  0
  -17.5037  -31.6258   24.5157 H   0  0  0  0  0  0
  -15.5358  -30.2989   23.7631 H   0  0  0  0  0  0
  -15.8671  -28.0805   22.7069 H   0  0  0  0  0  0
  -24.5934  -30.7068   25.7881 H   0  0  0  0  0  0
  -24.8984  -32.2898   26.4945 H   0  0  0  0  0  0
  -25.8148  -30.8932   27.0256 H   0  0  0  0  0  0
  -26.2884  -29.6792   24.1155 H   0  0  0  0  0  0
  -27.4094  -29.7294   25.4576 H   0  0  0  0  0  0
  -27.8708  -30.4367   23.9259 H   0  0  0  0  0  0
  -27.2687  -33.3588   26.2132 H   0  0  0  0  0  0
  -28.3878  -32.6892   25.0347 H   0  0  0  0  0  0
  -28.0718  -31.8391   26.5401 H   0  0  0  0  0  0
  -28.2616  -38.0090   24.7507 H   0  0  0  0  0  0
  -28.1037  -36.2626   24.6298 H   0  0  0  0  0  0
  -27.2270  -37.1486   25.8858 H   0  0  0  0  0  0
  -20.9219  -29.8854   21.6980 H   0  0  0  0  0  0
  -26.0174  -38.2891   24.1456 H   0  0  0  0  0  0
  -29.1874  -19.2250   21.6925 H   0  0  0  0  0  0
  -28.3039  -16.2817   17.8108 H   0  0  0  0  0  0
  -27.0848  -22.1471   20.8402 H   0  0  0  0  0  0
  -27.7057  -20.8670   21.7968 H   0  0  0  0  0  0
  -29.8096  -20.7874   18.5898 H   0  0  0  0  0  0
  -28.4447  -20.9000   17.5213 H   0  0  0  0  0  0
  -30.0464  -21.6492   21.2664 H   0  0  0  0  0  0
  -29.1072  -22.9410   21.9609 H   0  0  0  0  0  0
  -27.8846  -23.1327   18.5090 H   0  0  0  0  0  0
  -29.4583  -23.1120   17.7658 H   0  0  0  0  0  0
  -26.8693  -20.6217   19.2630 H   0  0  0  0  0  0
  -30.2595  -15.5912   17.2399 H   0  0  0  0  0  0
  -31.5240  -14.5937   17.8821 H   0  0  0  0  0  0
  -31.5692  -16.3281   18.1560 H   0  0  0  0  0  0
  -30.2167  -16.4712   23.9483 H   0  0  0  0  0  0
  -28.6854  -17.0519   23.3117 H   0  0  0  0  0  0
  -30.0769  -18.1566   23.4622 H   0  0  0  0  0  0
  -26.6565  -18.6773   15.6566 H   0  0  0  0  0  0
  -26.6113  -17.1029   16.4473 H   0  0  0  0  0  0
  -28.1656  -17.8724   16.0511 H   0  0  0  0  0  0
  -30.3238  -24.8344   20.8847 H   0  0  0  0  0  0
  -30.0590  -25.0481   19.1771 H   0  0  0  0  0  0
  -27.9728  -25.1407   21.3885 H   0  0  0  0  0  0
  -27.5163  -24.8490   19.7344 H   0  0  0  0  0  0
  -30.5166  -22.8832   19.7245 H   0  0  0  0  0  0
  1 25  1  0  0  0
  1 30  2  0  0  0
  1 87  1  0  0  0
  2  3  1  0  0  0
  2 25  1  0  0  0
  2 91  1  0  0  0
  2 92  1  0  0  0
  3  4  1  0  0  0
  3 93  1  0  0  0
  3 94  1  0  0  0
  4  5  1  0  0  0
  4 95  1  0  0  0
  4 96  1  0  0  0
  5  6  1  0  0  0
  5 26  1  0  0  0
  5 97  1  0  0  0
  6 25  1  0  0  0
  6 98  1  0  0  0
  6 99  1  0  0  0
  7  8  2  0  0  0
  7 26  1  0  0  0
  7 29  1  0  0  0
  8  9  1  0  0  0
  8 22  1  0  0  0
  9 10  1  0  0  0
  9 27  2  0  0  0
 10 11  2  0  0  0
 10 15  1  0  0  0
 11 12  1  0  0  0
 11100  1  0  0  0
 12 13  2  0  0  0
 12101  1  0  0  0
 13 14  1  0  0  0
 13 31  1  0  0  0
 14 15  2  0  0  0
 14102  1  0  0  0
 15103  1  0  0  0
 16 17  2  0  0  0
 16 21  1  0  0  0
 16 31  1  0  0  0
 17 18  1  0  0  0
 17104  1  0  0  0
 18 19  2  0  0  0
 18105  1  0  0  0
 19 20  1  0  0  0
 19 24  1  0  0  0
 20 21  2  0  0  0
 20106  1  0  0  0
 21 23  1  0  0  0
 22 28  1  0  0  0
 22 32  2  0  0  0
 26 27  1  0  0  0
 28107  1  0  0  0
 28108  1  0  0  0
 29109  1  0  0  0
 29110  1  0  0  0
 33 34  1  0  0  0
 33 66  1  0  0  0
 33 70  2  0  0  0
 34 36  1  0  0  0
 34 59  1  0  0  0
 34111  1  0  0  0
 35 44  2  0  0  0
 35 45  1  0  0  0
 35 68  1  0  0  0
 36 56  1  0  0  0
 36112  1  0  0  0
 37 39  1  0  0  0
 37 47  1  0  0  0
 37 66  1  0  0  0
 37113  1  0  0  0
 38 43  2  0  0  0
 38 46  1  0  0  0
 38 47  1  0  0  0
 39 64  1  0  0  0
 39 67  2  0  0  0
 40 52  1  0  0  0
 40 53  2  0  0  0
 40 58  1  0  0  0
 41114  1  0  0  0
 41115  1  0  0  0
 41116  1  0  0  0
 41 48  1  0  0  0
 42 43  1  0  0  0
 42 66  1  0  0  0
 42117  1  0  0  0
 42118  1  0  0  0
 43 44  1  0  0  0
 44119  1  0  0  0
 45 46  2  0  0  0
 45120  1  0  0  0
 46121  1  0  0  0
 47122  1  0  0  0
 47123  1  0  0  0
 48 56  1  0  0  0
 48 65  1  0  0  0
 48124  1  0  0  0
 49 50  1  0  0  0
 49 53  1  0  0  0
 49 64  1  0  0  0
 49125  1  0  0  0
 50 51  1  0  0  0
 50126  1  0  0  0
 50127  1  0  0  0
 51 52  1  0  0  0
 51128  1  0  0  0
 51129  1  0  0  0
 52130  1  0  0  0
 52131  1  0  0  0
 53 54  1  0  0  0
 54 55  2  0  0  0
 54132  1  0  0  0
 55 57  1  0  0  0
 55133  1  0  0  0
 56 69  2  0  0  0
 57 58  2  0  0  0
 57134  1  0  0  0
 58135  1  0  0  0
 59 60  1  0  0  0
 59 61  1  0  0  0
 59 62  1  0  0  0
 60136  1  0  0  0
 60137  1  0  0  0
 60138  1  0  0  0
 61139  1  0  0  0
 61140  1  0  0  0
 61141  1  0  0  0
 62142  1  0  0  0
 62143  1  0  0  0
 62144  1  0  0  0
 63 65  1  0  0  0
 63145  1  0  0  0
 63146  1  0  0  0
 63147  1  0  0  0
 64148  1  0  0  0
 65149  1  0  0  0
 68 86  1  0  0  0
 71 73  2  0  0  0
 71 75  1  0  0  0
 71150  1  0  0  0
 72 74  1  0  0  0
 72 76  2  0  0  0
 72151  1  0  0  0
 73 76  1  0  0  0
 73 81  1  0  0  0
 74 75  2  0  0  0
 74 87  1  0  0  0
 75 89  1  0  0  0
 76 90  1  0  0  0
 77 79  1  0  0  0
 77 81  1  0  0  0
 77152  1  0  0  0
 77153  1  0  0  0
 78 80  1  0  0  0
 78 81  1  0  0  0
 78154  1  0  0  0
 78155  1  0  0  0
 79 88  1  0  0  0
 79156  1  0  0  0
 79157  1  0  0  0
 80 88  1  0  0  0
 80158  1  0  0  0
 80159  1  0  0  0
 81160  1  0  0  0
 82 87  1  0  0  0
 82161  1  0  0  0
 82162  1  0  0  0
 82163  1  0  0  0
 83 89  1  0  0  0
 83164  1  0  0  0
 83165  1  0  0  0
 83166  1  0  0  0
 84 90  1  0  0  0
 84167  1  0  0  0
 84168  1  0  0  0
 84169  1  0  0  0
 85 86  1  0  0  0
 85170  1  0  0  0
 85171  1  0  0  0
 85 88  1  0  0  0
 86172  1  0  0  0
 86173  1  0  0  0
 88174  1  0  0  0
M  CHG  1  88   1
M  ISO  4   1 100  68 101  86 101  87 100
M  END
> <chiral flag>
0

> <version>
0

> <s_m_source_file>
/data/baiqing/PycharmProjects/Reinvent-master-3.2/result/LINK_invent/BTK/process_docking_weight1_custom_sum_contain_oxygen_bond_distance_aromatic_linkinvent_7_9_3/rearranged_h_0157.sdf

> <i_m_source_file_index>
98

> <r_mmod_Potential_Energy-OPLS-2005>
209.314270019531

> <r_mmod_Stretch_Energy-OPLS-2005>
42.8740310668945

> <r_mmod_Bend_Energy-OPLS-2005>
133.010543823242

> <r_mmod_Torsional_Energy-OPLS-2005>
415.252410888672

> <r_mmod_Improper_Torsional_Energy-OPLS-2005>
32.6861534118652

> <r_mmod_Van_der_Waal_Energy-OPLS-2005>
180.736038208008

> <r_mmod_Electrostatic_Energy-OPLS-2005>
-224.364105224609

> <r_mmod_Solvation_Energy-OPLS-2005>
-421.734649658203

> <b_mmod_Minimization_Converged-OPLS-2005>
0

> <r_mmod_RMS_Derivative-OPLS-2005>
3.77958345413208

$$$$
98
                    3D
 Structure written by MMmdl.
173182  0  0  1  0            999 V2000
  -30.7150  -14.4763   20.4327 C   0  0  0  0  0  0
  -30.4022  -12.2759   19.4180 C   0  0  0  0  0  0
  -29.4806  -12.4602   18.1954 C   0  0  0  0  0  0
  -28.0028  -12.3433   18.6173 C   0  0  0  0  0  0
  -27.6494  -13.2137   19.8551 C   0  0  2  0  0  0
  -28.7021  -13.0574   20.9752 C   0  0  0  0  0  0
  -25.2558  -13.8201   20.5719 C   0  0  0  0  0  0
  -24.1824  -13.0463   20.9210 C   0  0  0  0  0  0
  -24.6391  -11.6928   20.8759 C   0  0  0  0  0  0
  -23.9060  -10.4316   21.0415 C   0  0  0  0  0  0
  -24.3617   -9.4222   21.9181 C   0  0  0  0  0  0
  -23.6301   -8.2255   22.0738 C   0  0  0  0  0  0
  -22.4279   -8.0296   21.3541 C   0  0  0  0  0  0
  -21.9920   -9.0272   20.4632 C   0  0  0  0  0  0
  -22.7239  -10.2160   20.3049 C   0  0  0  0  0  0
  -21.6865   -6.0742   22.5281 C   0  0  0  0  0  0
  -21.4026   -6.5643   23.8212 C   0  0  0  0  0  0
  -21.3658   -5.6786   24.9165 C   0  0  0  0  0  0
  -21.6027   -4.3047   24.7216 C   0  0  0  0  0  0
  -21.8811   -3.8156   23.4335 C   0  0  0  0  0  0
  -21.9202   -4.6972   22.3394 C   0  0  0  0  0  0
  -22.7844  -13.5249   21.1866 C   0  0  0  0  0  0
  -22.1666   -4.2161   21.0969 F   0  0  0  0  0  0
  -21.5631   -3.4518   25.7720 F   0  0  0  0  0  0
  -30.0207  -13.3122   20.3845 N   0  0  0  0  0  0
  -26.2976  -12.9373   20.3343 N   0  0  0  0  0  0
  -25.9316  -11.6527   20.5799 N   0  0  0  0  0  0
  -22.0496  -12.8231   22.0409 N   0  0  0  0  0  0
  -25.4273  -15.1936   20.4149 N   0  0  0  0  0  0
  -31.9364  -14.5129   20.2548 O   0  0  0  0  0  0
  -21.6645   -6.8889   21.4249 O   0  0  0  0  0  0
  -22.3517  -14.5558   20.6720 O   0  0  0  0  0  0
  -24.6169  -31.8661   23.2050 C   0  0  0  0  0  0
  -25.9068  -32.4786   23.8343 C   0  0  1  0  0  0
  -27.2367  -27.4224   20.0923 C   0  0  0  0  0  0
  -25.5923  -33.8587   24.2278 N   0  0  0  0  0  0
  -23.4039  -30.4890   21.5463 C   0  0  2  0  0  0
  -24.8486  -28.9478   20.1169 C   0  0  0  0  0  0
  -22.7402  -29.4675   22.4975 C   0  0  0  0  0  0
  -18.0278  -28.1394   22.8459 C   0  0  0  0  0  0
  -24.1503  -36.7300   23.2634 C   0  0  0  0  0  0
  -25.9335  -30.8295   21.3580 C   0  0  0  0  0  0
  -26.0095  -29.4615   20.7082 C   0  0  0  0  0  0
  -27.2041  -28.7051   20.6891 C   0  0  0  0  0  0
  -26.0503  -26.9228   19.5023 C   0  0  0  0  0  0
  -24.8648  -27.6797   19.5128 C   0  0  0  0  0  0
  -23.6102  -29.8145   20.1638 C   0  0  0  0  0  0
  -25.4121  -36.3080   24.0323 C   0  0  1  0  0  0
  -20.5855  -28.3705   23.1304 C   0  0  2  0  0  0
  -20.6782  -26.9439   22.5417 C   0  0  0  0  0  0
  -19.5789  -26.6414   21.5207 C   0  0  0  0  0  0
  -18.1964  -26.7950   22.1597 C   0  0  0  0  0  0
  -19.1512  -28.8877   23.2876 C   0  0  0  0  0  0
  -18.9423  -30.1467   23.8900 C   0  0  0  0  0  0
  -17.6416  -30.6586   24.0565 C   0  0  0  0  0  0
  -25.9057  -34.9455   23.5099 C   0  0  0  0  0  0
  -16.5325  -29.9074   23.6302 C   0  0  0  0  0  0
  -16.7260  -28.6495   23.0321 C   0  0  0  0  0  0
  -26.4506  -31.6563   25.0667 C   0  0  0  0  0  0
  -25.3766  -31.3682   26.1405 C   0  0  0  0  0  0
  -27.0341  -30.3005   24.6053 C   0  0  0  0  0  0
  -27.6077  -32.4283   25.7431 C   0  0  0  0  0  0
  -27.5584  -37.1797   24.8470 C   0  0  0  0  0  0
  -21.4128  -29.3055   22.3697 N   0  0  0  0  0  0
  -26.4300  -37.3769   23.9408 N   0  0  0  0  0  0
  -24.6696  -31.0769   22.0947 N   0  0  0  0  0  0
  -23.4163  -28.8249   23.3060 O   0  0  0  0  0  0
  -28.4289  -26.7224   20.1019 O   0  0  0  0  0  0
  -26.5614  -34.8917   22.4659 O   0  0  0  0  0  0
  -23.5361  -32.1427   23.7445 O   0  0  0  0  0  0
  -28.0377  -18.7325   21.0732 C   0  0  0  0  0  0
  -28.1510  -19.0543   18.2956 C   0  0  0  0  0  0
  -28.6700  -17.7317   20.2970 C   0  0  0  0  0  0
  -28.6854  -17.8979   18.8943 C   0  0  0  0  0  0
  -27.4550  -19.8835   20.4784 C   0  0  0  0  0  0
  -27.5517  -20.0680   19.0771 C   0  0  0  0  0  0
  -29.3172  -16.8444   18.0225 C   0  0  0  0  0  0
  -30.4639  -16.1803   18.7712 C   0  0  0  0  0  0
  -29.3203  -16.4937   20.9672 C   0  0  2  0  0  0
  -30.2772  -16.9180   22.1092 C   0  0  0  0  0  0
  -25.9221  -20.2658   22.4995 C   0  0  0  0  0  0
  -27.3511  -21.5289   17.1757 C   0  0  0  0  0  0
  -27.9241  -24.4427   20.9533 C   0  0  0  0  0  0
  -27.5357  -22.1149   21.7942 C   0  0  0  0  0  0
  -28.4565  -25.3170   19.7901 C   0  0  0  0  0  0
  -26.6837  -20.9090   21.3251 C   0  0  1  0  0  0
  -30.0009  -15.5597   20.0273 N   0  0  0  0  0  0
  -27.9926  -22.9776   20.6765 N   0  3  0  0  0  0
  -27.0488  -21.2365   18.5384 O   0  0  0  0  0  0
  -31.4503  -12.3401   19.1193 H   0  0  0  0  0  0
  -30.2701  -11.2851   19.8550 H   0  0  0  0  0  0
  -29.7106  -11.7126   17.4346 H   0  0  0  0  0  0
  -29.6518  -13.4314   17.7273 H   0  0  0  0  0  0
  -27.8085  -11.2928   18.8382 H   0  0  0  0  0  0
  -27.3527  -12.6032   17.7806 H   0  0  0  0  0  0
  -27.6688  -14.2497   19.5175 H   0  0  0  0  0  0
  -28.6689  -12.0515   21.3943 H   0  0  0  0  0  0
  -28.5024  -13.7372   21.8040 H   0  0  0  0  0  0
  -25.2760   -9.5687   22.4753 H   0  0  0  0  0  0
  -24.0000   -7.4639   22.7452 H   0  0  0  0  0  0
  -21.0848   -8.8796   19.8944 H   0  0  0  0  0  0
  -22.3697  -10.9704   19.6156 H   0  0  0  0  0  0
  -21.2027   -7.6153   23.9708 H   0  0  0  0  0  0
  -21.1484   -6.0526   25.9062 H   0  0  0  0  0  0
  -22.0593   -2.7622   23.2835 H   0  0  0  0  0  0
  -22.4144  -11.9903   22.4794 H   0  0  0  0  0  0
  -21.1107  -13.1250   22.2596 H   0  0  0  0  0  0
  -24.6658  -15.8482   20.5536 H   0  0  0  0  0  0
  -26.2813  -15.6481   20.1176 H   0  0  0  0  0  0
  -26.7123  -32.5504   23.1086 H   0  0  0  0  0  0
  -25.0089  -33.9752   25.0436 H   0  0  0  0  0  0
  -22.6940  -31.3061   21.4042 H   0  0  0  0  0  0
  -23.3748  -35.9653   23.3313 H   0  0  0  0  0  0
  -24.3601  -36.8906   22.2047 H   0  0  0  0  0  0
  -23.7284  -37.6518   23.6652 H   0  0  0  0  0  0
  -26.0457  -31.5919   20.5851 H   0  0  0  0  0  0
  -26.8213  -30.8827   21.9780 H   0  0  0  0  0  0
  -28.1045  -29.1020   21.1383 H   0  0  0  0  0  0
  -26.0096  -25.9566   19.0251 H   0  0  0  0  0  0
  -23.9696  -27.2801   19.0569 H   0  0  0  0  0  0
  -23.7122  -30.5835   19.3974 H   0  0  0  0  0  0
  -22.7369  -29.2285   19.8717 H   0  0  0  0  0  0
  -25.1298  -36.1919   25.0811 H   0  0  0  0  0  0
  -20.9933  -28.3324   24.1432 H   0  0  0  0  0  0
  -20.5705  -26.2314   23.3608 H   0  0  0  0  0  0
  -21.6652  -26.7493   22.1221 H   0  0  0  0  0  0
  -19.6963  -25.6317   21.1242 H   0  0  0  0  0  0
  -19.6752  -27.3230   20.6739 H   0  0  0  0  0  0
  -17.4249  -26.6664   21.3984 H   0  0  0  0  0  0
  -18.0383  -26.0091   22.8987 H   0  0  0  0  0  0
  -19.7904  -30.7272   24.2264 H   0  0  0  0  0  0
  -17.4956  -31.6264   24.5153 H   0  0  0  0  0  0
  -15.5315  -30.2953   23.7592 H   0  0  0  0  0  0
  -15.8661  -28.0816   22.7027 H   0  0  0  0  0  0
  -24.5923  -30.7057   25.7727 H   0  0  0  0  0  0
  -24.8982  -32.2852   26.4859 H   0  0  0  0  0  0
  -25.8105  -30.8821   27.0147 H   0  0  0  0  0  0
  -26.2870  -29.6727   24.1179 H   0  0  0  0  0  0
  -27.4196  -29.7285   25.4505 H   0  0  0  0  0  0
  -27.8674  -30.4329   23.9143 H   0  0  0  0  0  0
  -27.2686  -33.3564   26.2050 H   0  0  0  0  0  0
  -28.3864  -32.6864   25.0237 H   0  0  0  0  0  0
  -28.0776  -31.8371   26.5308 H   0  0  0  0  0  0
  -28.2594  -38.0093   24.7488 H   0  0  0  0  0  0
  -28.1066  -36.2619   24.6304 H   0  0  0  0  0  0
  -27.2300  -37.1461   25.8870 H   0  0  0  0  0  0
  -20.9284  -29.8700   21.6850 H   0  0  0  0  0  0
  -26.0177  -38.2846   24.1383 H   0  0  0  0  0  0
  -27.9931  -18.6055   22.1427 H   0  0  0  0  0  0
  -28.2152  -19.1405   17.2207 H   0  0  0  0  0  0
  -29.6861  -17.2904   17.0966 H   0  0  0  0  0  0
  -28.5603  -16.1109   17.7394 H   0  0  0  0  0  0
  -31.2408  -16.9123   19.0002 H   0  0  0  0  0  0
  -30.9215  -15.4511   18.0983 H   0  0  0  0  0  0
  -28.4923  -15.9444   21.4139 H   0  0  0  0  0  0
  -31.1224  -17.4886   21.7210 H   0  0  0  0  0  0
  -30.6789  -16.0625   22.6512 H   0  0  0  0  0  0
  -29.7811  -17.5304   22.8606 H   0  0  0  0  0  0
  -25.3005  -19.4374   22.1556 H   0  0  0  0  0  0
  -25.2584  -20.9897   22.9745 H   0  0  0  0  0  0
  -26.5917  -19.8894   23.2715 H   0  0  0  0  0  0
  -26.9807  -22.5230   16.9248 H   0  0  0  0  0  0
  -26.8799  -20.8216   16.4924 H   0  0  0  0  0  0
  -28.4284  -21.5302   17.0018 H   0  0  0  0  0  0
  -26.8904  -24.7127   21.1733 H   0  0  0  0  0  0
  -28.5027  -24.6587   21.8527 H   0  0  0  0  0  0
  -28.3965  -21.7776   22.3727 H   0  0  0  0  0  0
  -26.9289  -22.7132   22.4750 H   0  0  0  0  0  0
  -29.5006  -25.0598   19.6126 H   0  0  0  0  0  0
  -27.9526  -25.0979   18.8487 H   0  0  0  0  0  0
  -25.8940  -21.3101   20.6886 H   0  0  0  0  0  0
  -28.9385  -22.7081   20.4539 H   0  0  0  0  0  0
  -27.4239  -22.7486   19.8735 H   0  0  0  0  0  0
  1 25  1  0  0  0
  1 30  2  0  0  0
  1 87  1  0  0  0
  2  3  1  0  0  0
  2 25  1  0  0  0
  2 90  1  0  0  0
  2 91  1  0  0  0
  3  4  1  0  0  0
  3 92  1  0  0  0
  3 93  1  0  0  0
  4  5  1  0  0  0
  4 94  1  0  0  0
  4 95  1  0  0  0
  5  6  1  0  0  0
  5 26  1  0  0  0
  5 96  1  0  0  0
  6 25  1  0  0  0
  6 97  1  0  0  0
  6 98  1  0  0  0
  7  8  2  0  0  0
  7 26  1  0  0  0
  7 29  1  0  0  0
  8  9  1  0  0  0
  8 22  1  0  0  0
  9 10  1  0  0  0
  9 27  2  0  0  0
 10 11  2  0  0  0
 10 15  1  0  0  0
 11 12  1  0  0  0
 11 99  1  0  0  0
 12 13  2  0  0  0
 12100  1  0  0  0
 13 14  1  0  0  0
 13 31  1  0  0  0
 14 15  2  0  0  0
 14101  1  0  0  0
 15102  1  0  0  0
 16 17  2  0  0  0
 16 21  1  0  0  0
 16 31  1  0  0  0
 17 18  1  0  0  0
 17103  1  0  0  0
 18 19  2  0  0  0
 18104  1  0  0  0
 19 20  1  0  0  0
 19 24  1  0  0  0
 20 21  2  0  0  0
 20105  1  0  0  0
 21 23  1  0  0  0
 22 28  1  0  0  0
 22 32  2  0  0  0
 26 27  1  0  0  0
 28106  1  0  0  0
 28107  1  0  0  0
 29108  1  0  0  0
 29109  1  0  0  0
 33 34  1  0  0  0
 33 66  1  0  0  0
 33 70  2  0  0  0
 34 36  1  0  0  0
 34 59  1  0  0  0
 34110  1  0  0  0
 35 44  2  0  0  0
 35 45  1  0  0  0
 35 68  1  0  0  0
 36 56  1  0  0  0
 36111  1  0  0  0
 37 39  1  0  0  0
 37 47  1  0  0  0
 37 66  1  0  0  0
 37112  1  0  0  0
 38 43  2  0  0  0
 38 46  1  0  0  0
 38 47  1  0  0  0
 39 64  1  0  0  0
 39 67  2  0  0  0
 40 52  1  0  0  0
 40 53  2  0  0  0
 40 58  1  0  0  0
 41113  1  0  0  0
 41114  1  0  0  0
 41115  1  0  0  0
 41 48  1  0  0  0
 42 43  1  0  0  0
 42 66  1  0  0  0
 42116  1  0  0  0
 42117  1  0  0  0
 43 44  1  0  0  0
 44118  1  0  0  0
 45 46  2  0  0  0
 45119  1  0  0  0
 46120  1  0  0  0
 47121  1  0  0  0
 47122  1  0  0  0
 48 56  1  0  0  0
 48 65  1  0  0  0
 48123  1  0  0  0
 49 50  1  0  0  0
 49 53  1  0  0  0
 49 64  1  0  0  0
 49124  1  0  0  0
 50 51  1  0  0  0
 50125  1  0  0  0
 50126  1  0  0  0
 51 52  1  0  0  0
 51127  1  0  0  0
 51128  1  0  0  0
 52129  1  0  0  0
 52130  1  0  0  0
 53 54  1  0  0  0
 54 55  2  0  0  0
 54131  1  0  0  0
 55 57  1  0  0  0
 55132  1  0  0  0
 56 69  2  0  0  0
 57 58  2  0  0  0
 57133  1  0  0  0
 58134  1  0  0  0
 59 60  1  0  0  0
 59 61  1  0  0  0
 59 62  1  0  0  0
 60135  1  0  0  0
 60136  1  0  0  0
 60137  1  0  0  0
 61138  1  0  0  0
 61139  1  0  0  0
 61140  1  0  0  0
 62141  1  0  0  0
 62142  1  0  0  0
 62143  1  0  0  0
 63 65  1  0  0  0
 63144  1  0  0  0
 63145  1  0  0  0
 63146  1  0  0  0
 64147  1  0  0  0
 65148  1  0  0  0
 68 85  1  0  0  0
 71 73  2  0  0  0
 71 75  1  0  0  0
 71149  1  0  0  0
 72 74  2  0  0  0
 72 76  1  0  0  0
 72150  1  0  0  0
 73 74  1  0  0  0
 73 79  1  0  0  0
 74 77  1  0  0  0
 75 76  2  0  0  0
 75 86  1  0  0  0
 76 89  1  0  0  0
 77 78  1  0  0  0
 77151  1  0  0  0
 77152  1  0  0  0
 78 87  1  0  0  0
 78153  1  0  0  0
 78154  1  0  0  0
 79 80  1  0  0  0
 79 87  1  0  0  0
 79155  1  0  0  0
 80156  1  0  0  0
 80157  1  0  0  0
 80158  1  0  0  0
 81159  1  0  0  0
 81160  1  0  0  0
 81161  1  0  0  0
 81 86  1  0  0  0
 82 89  1  0  0  0
 82162  1  0  0  0
 82163  1  0  0  0
 82164  1  0  0  0
 83 85  1  0  0  0
 83 88  1  0  0  0
 83165  1  0  0  0
 83166  1  0  0  0
 84 86  1  0  0  0
 84 88  1  0  0  0
 84167  1  0  0  0
 84168  1  0  0  0
 85169  1  0  0  0
 85170  1  0  0  0
 86171  1  0  0  0
 88172  1  0  0  0
 88173  1  0  0  0
M  CHG  1  88   1
M  ISO  4   1 100  68 101  85 101  87 100
M  END
> <chiral flag>
0

> <version>
0

> <s_m_source_file>
/data/baiqing/PycharmProjects/Reinvent-master-3.2/result/LINK_invent/BTK/process_docking_weight1_custom_sum_contain_oxygen_bond_distance_aromatic_linkinvent_7_9_3/rearranged_h_0157.sdf

> <i_m_source_file_index>
99

> <r_mmod_Potential_Energy-OPLS-2005>
19.0435371398926

> <r_mmod_Stretch_Energy-OPLS-2005>
44.177173614502

> <r_mmod_Bend_Energy-OPLS-2005>
114.630790710449

> <r_mmod_Torsional_Energy-OPLS-2005>
315.318176269531

> <r_mmod_Improper_Torsional_Energy-OPLS-2005>
25.1972770690918

> <r_mmod_Van_der_Waal_Energy-OPLS-2005>
163.907928466797

> <r_mmod_Electrostatic_Energy-OPLS-2005>
-268.197784423828

> <r_mmod_Solvation_Energy-OPLS-2005>
-404.3720703125

> <b_mmod_Minimization_Converged-OPLS-2005>
0

> <r_mmod_RMS_Derivative-OPLS-2005>
2.74317955970764

$$$$
