0
                    3D
 Structure written by MMmdl.
173182  0  0  1  0            999 V2000
  -30.6531  -14.6249   20.4943 C   0  0  0  0  0  0
  -30.4229  -12.3798   19.4762 C   0  0  0  0  0  0
  -29.5041  -12.5009   18.2438 C   0  0  0  0  0  0
  -28.0261  -12.3405   18.6511 C   0  0  0  0  0  0
  -27.6445  -13.2215   19.8700 C   0  0  2  0  0  0
  -28.6867  -13.1042   21.0036 C   0  0  0  0  0  0
  -25.2478  -13.8169   20.5744 C   0  0  0  0  0  0
  -24.1760  -13.0450   20.9257 C   0  0  0  0  0  0
  -24.6318  -11.6911   20.8765 C   0  0  0  0  0  0
  -23.8992  -10.4301   21.0374 C   0  0  0  0  0  0
  -24.3554   -9.4220   21.9163 C   0  0  0  0  0  0
  -23.6263   -8.2247   22.0728 C   0  0  0  0  0  0
  -22.4236   -8.0269   21.3538 C   0  0  0  0  0  0
  -21.9853   -9.0230   20.4617 C   0  0  0  0  0  0
  -22.7154  -10.2124   20.3027 C   0  0  0  0  0  0
  -21.6845   -6.0709   22.5284 C   0  0  0  0  0  0
  -21.4012   -6.5611   23.8217 C   0  0  0  0  0  0
  -21.3670   -5.6769   24.9188 C   0  0  0  0  0  0
  -21.6046   -4.3040   24.7234 C   0  0  0  0  0  0
  -21.8819   -3.8118   23.4363 C   0  0  0  0  0  0
  -21.9180   -4.6934   22.3400 C   0  0  0  0  0  0
  -22.7772  -13.5221   21.1972 C   0  0  0  0  0  0
  -22.1662   -4.2112   21.0990 F   0  0  0  0  0  0
  -21.5618   -3.4529   25.7758 F   0  0  0  0  0  0
  -29.9977  -13.4249   20.4264 N   0  0  0  0  0  0
  -26.2916  -12.9368   20.3371 N   0  0  0  0  0  0
  -25.9253  -11.6504   20.5785 N   0  0  0  0  0  0
  -22.0414  -12.8198   22.0494 N   0  0  0  0  0  0
  -25.4210  -15.1922   20.4210 N   0  0  0  0  0  0
  -31.8504  -14.6985   20.1974 O   0  0  0  0  0  0
  -21.6618   -6.8864   21.4247 O   0  0  0  0  0  0
  -22.3457  -14.5540   20.6828 O   0  0  0  0  0  0
  -24.6264  -31.8592   23.2011 C   0  0  0  0  0  0
  -25.9141  -32.4750   23.8306 C   0  0  1  0  0  0
  -27.2161  -27.3086   20.1301 C   0  0  0  0  0  0
  -25.5984  -33.8551   24.2257 N   0  0  0  0  0  0
  -23.4158  -30.4883   21.5444 C   0  0  2  0  0  0
  -24.8636  -28.9306   20.1130 C   0  0  0  0  0  0
  -22.7412  -29.4716   22.4962 C   0  0  0  0  0  0
  -18.0304  -28.1387   22.8502 C   0  0  0  0  0  0
  -24.1508  -36.7238   23.2637 C   0  0  0  0  0  0
  -25.9602  -30.7796   21.3794 C   0  0  0  0  0  0
  -26.0323  -29.4061   20.7252 C   0  0  0  0  0  0
  -27.2136  -28.6078   20.7268 C   0  0  0  0  0  0
  -26.0372  -26.8856   19.4860 C   0  0  0  0  0  0
  -24.8701  -27.6744   19.4794 C   0  0  0  0  0  0
  -23.6297  -29.8113   20.1637 C   0  0  0  0  0  0
  -25.4120  -36.3026   24.0337 C   0  0  1  0  0  0
  -20.5885  -28.3718   23.1264 C   0  0  2  0  0  0
  -20.6812  -26.9448   22.5396 C   0  0  0  0  0  0
  -19.5787  -26.6385   21.5194 C   0  0  0  0  0  0
  -18.1963  -26.7940   22.1608 C   0  0  0  0  0  0
  -19.1555  -28.8854   23.2887 C   0  0  0  0  0  0
  -18.9478  -30.1450   23.8905 C   0  0  0  0  0  0
  -17.6475  -30.6595   24.0561 C   0  0  0  0  0  0
  -25.9067  -34.9413   23.5066 C   0  0  0  0  0  0
  -16.5359  -29.9084   23.6357 C   0  0  0  0  0  0
  -16.7288  -28.6502   23.0390 C   0  0  0  0  0  0
  -26.4513  -31.6573   25.0677 C   0  0  0  0  0  0
  -25.3774  -31.3750   26.1434 C   0  0  0  0  0  0
  -27.0357  -30.2986   24.6158 C   0  0  0  0  0  0
  -27.6043  -32.4319   25.7481 C   0  0  0  0  0  0
  -27.5577  -37.1777   24.8467 C   0  0  0  0  0  0
  -21.4142  -29.3081   22.3645 N   0  0  0  0  0  0
  -26.4284  -37.3725   23.9409 N   0  0  0  0  0  0
  -24.6871  -31.0567   22.0990 N   0  0  0  0  0  0
  -23.4133  -28.8283   23.3072 O   0  0  0  0  0  0
  -28.3209  -26.4558   20.0703 O   0  0  0  0  0  0
  -26.5580  -34.8883   22.4601 O   0  0  0  0  0  0
  -23.5444  -32.1463   23.7312 O   0  0  0  0  0  0
  -28.8778  -22.7717   20.3068 C   0  0  0  0  0  0
  -28.0301  -23.8590   20.8016 C   0  0  0  0  0  0
  -28.4394  -21.3715   20.3842 C   0  0  0  0  0  0
  -26.7573  -23.4599   21.2863 C   0  0  0  0  0  0
  -27.0971  -21.1893   20.8256 C   0  0  0  0  0  0
  -29.4315  -18.0775   21.4464 C   0  0  0  0  0  0
  -30.0835  -18.0212   19.1176 C   0  0  0  0  0  0
  -29.2315  -16.5094   21.4662 C   0  0  0  0  0  0
  -29.8274  -16.4785   19.0643 C   0  0  0  0  0  0
  -29.1315  -18.7635   20.0829 C   0  0  0  0  0  0
  -25.7625  -24.3907   21.9674 C   0  0  0  0  0  0
  -26.3468  -19.8678   20.8227 C   0  0  0  0  0  0
  -30.0172  -23.4580   18.1424 C   0  0  0  0  0  0
  -31.4407  -22.2400   19.8294 C   0  0  0  0  0  0
  -28.4734  -25.3722   21.0601 C   0  0  0  0  0  0
  -30.2195  -23.1628   19.6380 C   0  0  0  0  0  0
  -26.3149  -22.1941   21.2539 N   0  0  0  0  0  0
  -29.8786  -15.7571   20.3594 N   0  0  0  0  0  0
  -29.3033  -20.2609   20.0371 N   0  0  0  0  0  0
  -31.4711  -12.4712   19.1867 H   0  0  0  0  0  0
  -30.3318  -11.3950   19.9354 H   0  0  0  0  0  0
  -29.7705  -11.7493   17.5023 H   0  0  0  0  0  0
  -29.6573  -13.4684   17.7617 H   0  0  0  0  0  0
  -27.8648  -11.2885   18.8948 H   0  0  0  0  0  0
  -27.3733  -12.5626   17.8067 H   0  0  0  0  0  0
  -27.6543  -14.2531   19.5204 H   0  0  0  0  0  0
  -28.6956  -12.0898   21.4018 H   0  0  0  0  0  0
  -28.4433  -13.7631   21.8391 H   0  0  0  0  0  0
  -25.2677   -9.5706   22.4772 H   0  0  0  0  0  0
  -23.9958   -7.4605   22.7416 H   0  0  0  0  0  0
  -21.0795   -8.8714   19.8930 H   0  0  0  0  0  0
  -22.3559  -10.9663   19.6163 H   0  0  0  0  0  0
  -21.2024   -7.6119   23.9726 H   0  0  0  0  0  0
  -21.1494   -6.0499   25.9096 H   0  0  0  0  0  0
  -22.0588   -2.7576   23.2873 H   0  0  0  0  0  0
  -22.3959  -11.9811   22.4883 H   0  0  0  0  0  0
  -21.1054  -13.1256   22.2767 H   0  0  0  0  0  0
  -24.6646  -15.8573   20.5301 H   0  0  0  0  0  0
  -26.2795  -15.6214   20.1090 H   0  0  0  0  0  0
  -26.7185  -32.5406   23.1025 H   0  0  0  0  0  0
  -25.0255  -33.9716   25.0484 H   0  0  0  0  0  0
  -22.7158  -31.3144   21.3939 H   0  0  0  0  0  0
  -23.3765  -35.9578   23.3288 H   0  0  0  0  0  0
  -24.3615  -36.8841   22.2051 H   0  0  0  0  0  0
  -23.7278  -37.6447   23.6652 H   0  0  0  0  0  0
  -26.0940  -31.5400   20.6116 H   0  0  0  0  0  0
  -26.8434  -30.8254   22.0054 H   0  0  0  0  0  0
  -28.1139  -28.9717   21.2035 H   0  0  0  0  0  0
  -26.0186  -25.9179   19.0048 H   0  0  0  0  0  0
  -23.9882  -27.2998   18.9783 H   0  0  0  0  0  0
  -23.7294  -30.5807   19.3992 H   0  0  0  0  0  0
  -22.7512  -29.2332   19.8745 H   0  0  0  0  0  0
  -25.1318  -36.1834   25.0838 H   0  0  0  0  0  0
  -21.0021  -28.3315   24.1357 H   0  0  0  0  0  0
  -20.5704  -26.2349   23.3615 H   0  0  0  0  0  0
  -21.6704  -26.7503   22.1185 H   0  0  0  0  0  0
  -19.6974  -25.6278   21.1266 H   0  0  0  0  0  0
  -19.6714  -27.3185   20.6711 H   0  0  0  0  0  0
  -17.4243  -26.6691   21.4006 H   0  0  0  0  0  0
  -18.0359  -26.0060   22.8982 H   0  0  0  0  0  0
  -19.7949  -30.7260   24.2289 H   0  0  0  0  0  0
  -17.5045  -31.6307   24.5120 H   0  0  0  0  0  0
  -15.5375  -30.2989   23.7687 H   0  0  0  0  0  0
  -15.8685  -28.0796   22.7134 H   0  0  0  0  0  0
  -24.5938  -30.7082   25.7820 H   0  0  0  0  0  0
  -24.8986  -32.2945   26.4814 H   0  0  0  0  0  0
  -25.8165  -30.8983   27.0213 H   0  0  0  0  0  0
  -26.2943  -29.6731   24.1175 H   0  0  0  0  0  0
  -27.4041  -29.7237   25.4660 H   0  0  0  0  0  0
  -27.8818  -30.4224   23.9398 H   0  0  0  0  0  0
  -27.2614  -33.3609   26.2037 H   0  0  0  0  0  0
  -28.3911  -32.6902   25.0390 H   0  0  0  0  0  0
  -28.0649  -31.8451   26.5434 H   0  0  0  0  0  0
  -28.2585  -38.0078   24.7498 H   0  0  0  0  0  0
  -28.1088  -36.2608   24.6324 H   0  0  0  0  0  0
  -27.2291  -37.1456   25.8869 H   0  0  0  0  0  0
  -20.9302  -29.8729   21.6797 H   0  0  0  0  0  0
  -26.0143  -38.2794   24.1396 H   0  0  0  0  0  0
  -30.4679  -18.2971   21.7159 H   0  0  0  0  0  0
  -28.8307  -18.5272   22.2338 H   0  0  0  0  0  0
  -29.9664  -18.4200   18.1091 H   0  0  0  0  0  0
  -31.1268  -18.2046   19.3889 H   0  0  0  0  0  0
  -28.1624  -16.2877   21.4158 H   0  0  0  0  0  0
  -29.5793  -16.1254   22.4286 H   0  0  0  0  0  0
  -30.5288  -16.0301   18.3557 H   0  0  0  0  0  0
  -28.8313  -16.3081   18.6533 H   0  0  0  0  0  0
  -28.1270  -18.5059   19.7528 H   0  0  0  0  0  0
  -25.7034  -25.3599   21.4891 H   0  0  0  0  0  0
  -24.7537  -23.9705   21.9540 H   0  0  0  0  0  0
  -26.0257  -24.5473   23.0131 H   0  0  0  0  0  0
  -26.2234  -19.5375   19.7919 H   0  0  0  0  0  0
  -25.3492  -19.9677   21.2610 H   0  0  0  0  0  0
  -26.8532  -19.1013   21.4015 H   0  0  0  0  0  0
  -29.2707  -24.2385   17.9903 H   0  0  0  0  0  0
  -29.6759  -22.5767   17.5963 H   0  0  0  0  0  0
  -30.9545  -23.7911   17.6938 H   0  0  0  0  0  0
  -31.5417  -21.9189   20.8657 H   0  0  0  0  0  0
  -32.3562  -22.7648   19.5521 H   0  0  0  0  0  0
  -31.4108  -21.3607   19.1838 H   0  0  0  0  0  0
  -29.5213  -25.3925   21.3565 H   0  0  0  0  0  0
  -27.9935  -25.7001   21.9826 H   0  0  0  0  0  0
  -30.5468  -24.0872   20.0982 H   0  0  0  0  0  0
  -30.2351  -20.5461   19.7445 H   0  0  0  0  0  0
  1 25  1  0  0  0
  1 30  2  0  0  0
  1 88  1  0  0  0
  2  3  1  0  0  0
  2 25  1  0  0  0
  2 90  1  0  0  0
  2 91  1  0  0  0
  3  4  1  0  0  0
  3 92  1  0  0  0
  3 93  1  0  0  0
  4  5  1  0  0  0
  4 94  1  0  0  0
  4 95  1  0  0  0
  5  6  1  0  0  0
  5 26  1  0  0  0
  5 96  1  0  0  0
  6 25  1  0  0  0
  6 97  1  0  0  0
  6 98  1  0  0  0
  7  8  2  0  0  0
  7 26  1  0  0  0
  7 29  1  0  0  0
  8  9  1  0  0  0
  8 22  1  0  0  0
  9 10  1  0  0  0
  9 27  2  0  0  0
 10 11  2  0  0  0
 10 15  1  0  0  0
 11 12  1  0  0  0
 11 99  1  0  0  0
 12 13  2  0  0  0
 12100  1  0  0  0
 13 14  1  0  0  0
 13 31  1  0  0  0
 14 15  2  0  0  0
 14101  1  0  0  0
 15102  1  0  0  0
 16 17  2  0  0  0
 16 21  1  0  0  0
 16 31  1  0  0  0
 17 18  1  0  0  0
 17103  1  0  0  0
 18 19  2  0  0  0
 18104  1  0  0  0
 19 20  1  0  0  0
 19 24  1  0  0  0
 20 21  2  0  0  0
 20105  1  0  0  0
 21 23  1  0  0  0
 22 28  1  0  0  0
 22 32  2  0  0  0
 26 27  1  0  0  0
 28106  1  0  0  0
 28107  1  0  0  0
 29108  1  0  0  0
 29109  1  0  0  0
 33 34  1  0  0  0
 33 66  1  0  0  0
 33 70  2  0  0  0
 34 36  1  0  0  0
 34 59  1  0  0  0
 34110  1  0  0  0
 35 44  2  0  0  0
 35 45  1  0  0  0
 35 68  1  0  0  0
 36 56  1  0  0  0
 36111  1  0  0  0
 37 39  1  0  0  0
 37 47  1  0  0  0
 37 66  1  0  0  0
 37112  1  0  0  0
 38 43  2  0  0  0
 38 46  1  0  0  0
 38 47  1  0  0  0
 39 64  1  0  0  0
 39 67  2  0  0  0
 40 52  1  0  0  0
 40 53  2  0  0  0
 40 58  1  0  0  0
 41113  1  0  0  0
 41114  1  0  0  0
 41115  1  0  0  0
 41 48  1  0  0  0
 42 43  1  0  0  0
 42 66  1  0  0  0
 42116  1  0  0  0
 42117  1  0  0  0
 43 44  1  0  0  0
 44118  1  0  0  0
 45 46  2  0  0  0
 45119  1  0  0  0
 46120  1  0  0  0
 47121  1  0  0  0
 47122  1  0  0  0
 48 56  1  0  0  0
 48 65  1  0  0  0
 48123  1  0  0  0
 49 50  1  0  0  0
 49 53  1  0  0  0
 49 64  1  0  0  0
 49124  1  0  0  0
 50 51  1  0  0  0
 50125  1  0  0  0
 50126  1  0  0  0
 51 52  1  0  0  0
 51127  1  0  0  0
 51128  1  0  0  0
 52129  1  0  0  0
 52130  1  0  0  0
 53 54  1  0  0  0
 54 55  2  0  0  0
 54131  1  0  0  0
 55 57  1  0  0  0
 55132  1  0  0  0
 56 69  2  0  0  0
 57 58  2  0  0  0
 57133  1  0  0  0
 58134  1  0  0  0
 59 60  1  0  0  0
 59 61  1  0  0  0
 59 62  1  0  0  0
 60135  1  0  0  0
 60136  1  0  0  0
 60137  1  0  0  0
 61138  1  0  0  0
 61139  1  0  0  0
 61140  1  0  0  0
 62141  1  0  0  0
 62142  1  0  0  0
 62143  1  0  0  0
 63 65  1  0  0  0
 63144  1  0  0  0
 63145  1  0  0  0
 63146  1  0  0  0
 64147  1  0  0  0
 65148  1  0  0  0
 68 85  1  0  0  0
 71 72  2  0  0  0
 71 73  1  0  0  0
 71 86  1  0  0  0
 72 74  1  0  0  0
 72 85  1  0  0  0
 73 75  2  0  0  0
 73 89  1  0  0  0
 74 81  1  0  0  0
 74 87  2  0  0  0
 75 82  1  0  0  0
 75 87  1  0  0  0
 76 78  1  0  0  0
 76 80  1  0  0  0
 76149  1  0  0  0
 76150  1  0  0  0
 77 79  1  0  0  0
 77 80  1  0  0  0
 77151  1  0  0  0
 77152  1  0  0  0
 78 88  1  0  0  0
 78153  1  0  0  0
 78154  1  0  0  0
 79 88  1  0  0  0
 79155  1  0  0  0
 79156  1  0  0  0
 80 89  1  0  0  0
 80157  1  0  0  0
 81158  1  0  0  0
 81159  1  0  0  0
 81160  1  0  0  0
 82161  1  0  0  0
 82162  1  0  0  0
 82163  1  0  0  0
 83164  1  0  0  0
 83165  1  0  0  0
 83166  1  0  0  0
 83 86  1  0  0  0
 84 86  1  0  0  0
 84167  1  0  0  0
 84168  1  0  0  0
 84169  1  0  0  0
 85170  1  0  0  0
 85171  1  0  0  0
 86172  1  0  0  0
 89173  1  0  0  0
M  ISO  4   1 100  68 101  85 101  88 100
M  END
> <chiral flag>
0

> <version>
0

> <s_m_source_file>
/data/baiqing/PycharmProjects/Reinvent-master-3.2/result/LINK_invent/BTK/process_docking_weight1_custom_sum_contain_oxygen_bond_distance_aromatic_linkinvent_7_9_3/rearranged_h_0171.sdf

> <i_m_source_file_index>
1

> <r_mmod_Potential_Energy-OPLS-2005>
249.064559936523

> <r_mmod_Stretch_Energy-OPLS-2005>
99.1711273193359

> <r_mmod_Bend_Energy-OPLS-2005>
201.042816162109

> <r_mmod_Torsional_Energy-OPLS-2005>
372.336761474609

> <r_mmod_Improper_Torsional_Energy-OPLS-2005>
19.3229198455811

> <r_mmod_Van_der_Waal_Energy-OPLS-2005>
149.150283813477

> <r_mmod_Electrostatic_Energy-OPLS-2005>
-442.26806640625

> <r_mmod_Solvation_Energy-OPLS-2005>
-199.973937988281

> <b_mmod_Minimization_Converged-OPLS-2005>
0

> <r_mmod_RMS_Derivative-OPLS-2005>
7.01389074325562

$$$$
1
                    3D
 Structure written by MMmdl.
179189  0  0  1  0            999 V2000
  -30.6325  -14.8461   20.4397 C   0  0  0  0  0  0
  -30.4216  -12.5300   19.4770 C   0  0  0  0  0  0
  -29.5028  -12.5083   18.2381 C   0  0  0  0  0  0
  -28.0376  -12.3058   18.6646 C   0  0  0  0  0  0
  -27.6249  -13.2365   19.8346 C   0  0  2  0  0  0
  -28.6746  -13.2685   20.9659 C   0  0  0  0  0  0
  -25.2450  -13.8185   20.5720 C   0  0  0  0  0  0
  -24.1761  -13.0422   20.9237 C   0  0  0  0  0  0
  -24.6371  -11.6906   20.8775 C   0  0  0  0  0  0
  -23.9058  -10.4282   21.0420 C   0  0  0  0  0  0
  -24.3613   -9.4197   21.9193 C   0  0  0  0  0  0
  -23.6289   -8.2233   22.0757 C   0  0  0  0  0  0
  -22.4273   -8.0274   21.3544 C   0  0  0  0  0  0
  -21.9908   -9.0248   20.4647 C   0  0  0  0  0  0
  -22.7236  -10.2127   20.3061 C   0  0  0  0  0  0
  -21.6850   -6.0732   22.5278 C   0  0  0  0  0  0
  -21.4012   -6.5637   23.8211 C   0  0  0  0  0  0
  -21.3659   -5.6791   24.9174 C   0  0  0  0  0  0
  -21.6043   -4.3054   24.7225 C   0  0  0  0  0  0
  -21.8819   -3.8144   23.4347 C   0  0  0  0  0  0
  -21.9192   -4.6960   22.3402 C   0  0  0  0  0  0
  -22.7786  -13.5204   21.1884 C   0  0  0  0  0  0
  -22.1661   -4.2146   21.0980 F   0  0  0  0  0  0
  -21.5629   -3.4538   25.7739 F   0  0  0  0  0  0
  -29.9571  -13.6370   20.3550 N   0  0  0  0  0  0
  -26.2864  -12.9397   20.3271 N   0  0  0  0  0  0
  -25.9300  -11.6539   20.5775 N   0  0  0  0  0  0
  -22.0434  -12.8195   22.0441 N   0  0  0  0  0  0
  -25.4107  -15.1909   20.4127 N   0  0  0  0  0  0
  -31.8458  -14.8351   20.2089 O   0  0  0  0  0  0
  -21.6636   -6.8874   21.4240 O   0  0  0  0  0  0
  -22.3474  -14.5509   20.6726 O   0  0  0  0  0  0
  -24.6379  -31.8502   23.1941 C   0  0  0  0  0  0
  -25.9178  -32.4727   23.8306 C   0  0  1  0  0  0
  -27.2109  -27.1931   20.1454 C   0  0  0  0  0  0
  -25.5951  -33.8531   24.2226 N   0  0  0  0  0  0
  -23.4377  -30.4723   21.5390 C   0  0  2  0  0  0
  -24.8850  -28.9095   20.1126 C   0  0  0  0  0  0
  -22.7537  -29.4580   22.4888 C   0  0  0  0  0  0
  -18.0301  -28.1391   22.8480 C   0  0  0  0  0  0
  -24.1490  -36.7266   23.2641 C   0  0  0  0  0  0
  -25.9900  -30.7411   21.3858 C   0  0  0  0  0  0
  -26.0606  -29.3574   20.7291 C   0  0  0  0  0  0
  -27.2275  -28.5142   20.7305 C   0  0  0  0  0  0
  -26.0164  -26.8411   19.4793 C   0  0  0  0  0  0
  -24.8723  -27.6623   19.4731 C   0  0  0  0  0  0
  -23.6603  -29.8055   20.1566 C   0  0  0  0  0  0
  -25.4120  -36.3050   24.0320 C   0  0  1  0  0  0
  -20.5909  -28.3712   23.1249 C   0  0  2  0  0  0
  -20.6786  -26.9422   22.5403 C   0  0  0  0  0  0
  -19.5759  -26.6383   21.5211 C   0  0  0  0  0  0
  -18.1941  -26.7931   22.1622 C   0  0  0  0  0  0
  -19.1556  -28.8869   23.2858 C   0  0  0  0  0  0
  -18.9474  -30.1466   23.8881 C   0  0  0  0  0  0
  -17.6472  -30.6590   24.0560 C   0  0  0  0  0  0
  -25.9067  -34.9424   23.5078 C   0  0  0  0  0  0
  -16.5363  -29.9085   23.6334 C   0  0  0  0  0  0
  -16.7286  -28.6502   23.0356 C   0  0  0  0  0  0
  -26.4519  -31.6574   25.0723 C   0  0  0  0  0  0
  -25.3718  -31.3743   26.1426 C   0  0  0  0  0  0
  -27.0383  -30.2981   24.6265 C   0  0  0  0  0  0
  -27.6055  -32.4334   25.7505 C   0  0  0  0  0  0
  -27.5578  -37.1788   24.8465 C   0  0  0  0  0  0
  -21.4237  -29.3050   22.3630 N   0  0  0  0  0  0
  -26.4286  -37.3758   23.9411 N   0  0  0  0  0  0
  -24.7080  -31.0409   22.0951 N   0  0  0  0  0  0
  -23.4206  -28.8121   23.3013 O   0  0  0  0  0  0
  -28.2788  -26.2438   20.1757 O   0  0  0  0  0  0
  -26.5645  -34.8910   22.4650 O   0  0  0  0  0  0
  -23.5512  -32.1357   23.7194 O   0  0  0  0  0  0
  -30.3979  -21.1114   19.0979 C   0  0  0  0  0  0
  -30.5996  -22.3920   18.5520 C   0  0  0  0  0  0
  -29.4269  -20.8802   20.0870 C   0  0  0  0  0  0
  -29.8745  -23.5314   18.9424 C   0  0  0  0  0  0
  -28.6742  -22.0854   20.5059 C   0  0  0  0  0  0
  -28.8812  -23.4618   19.9701 C   0  0  0  0  0  0
  -28.8765  -18.2435   19.5477 C   0  0  0  0  0  0
  -30.6334  -18.6628   21.1159 C   0  0  0  0  0  0
  -31.3076  -24.1229   17.0671 C   0  0  0  0  0  0
  -28.8315  -16.6916   19.9754 C   0  0  0  0  0  0
  -30.5846  -17.1389   21.5959 C   0  0  0  0  0  0
  -29.3073  -19.3329   20.6037 C   0  0  0  0  0  0
  -31.6259  -22.6719   17.4790 C   0  0  0  0  0  0
  -30.3185  -24.7334   18.1035 C   0  0  0  0  0  0
  -27.5985  -21.8713   21.5603 C   0  0  0  0  0  0
  -33.0463  -22.5634   18.0631 C   0  0  0  0  0  0
  -31.4775  -21.7107   16.2822 C   0  0  0  0  0  0
  -31.1085  -25.7563   18.9480 C   0  0  0  0  0  0
  -29.1599  -25.3739   17.3052 C   0  0  0  0  0  0
  -27.9891  -24.7566   20.4282 C   0  0  0  0  0  0
  -29.9934  -16.0847   20.7036 N   0  0  0  0  0  0
  -31.4594  -12.6519   19.1629 H   0  0  0  0  0  0
  -30.3819  -11.5772   20.0074 H   0  0  0  0  0  0
  -29.8065  -11.7151   17.5536 H   0  0  0  0  0  0
  -29.6013  -13.4452   17.6872 H   0  0  0  0  0  0
  -27.9267  -11.2641   18.9677 H   0  0  0  0  0  0
  -27.3707  -12.4467   17.8131 H   0  0  0  0  0  0
  -27.5783  -14.2313   19.4002 H   0  0  0  0  0  0
  -28.7448  -12.3021   21.4673 H   0  0  0  0  0  0
  -28.3924  -13.9970   21.7280 H   0  0  0  0  0  0
  -25.2755   -9.5676   22.4772 H   0  0  0  0  0  0
  -23.9997   -7.4624   22.7477 H   0  0  0  0  0  0
  -21.0841   -8.8768   19.8951 H   0  0  0  0  0  0
  -22.3696  -10.9669   19.6174 H   0  0  0  0  0  0
  -21.2005   -7.6145   23.9713 H   0  0  0  0  0  0
  -21.1481   -6.0522   25.9077 H   0  0  0  0  0  0
  -22.0599   -2.7607   23.2848 H   0  0  0  0  0  0
  -22.4055  -11.9858   22.4828 H   0  0  0  0  0  0
  -21.1051  -13.1218   22.2646 H   0  0  0  0  0  0
  -24.6426  -15.8430   20.5278 H   0  0  0  0  0  0
  -26.2600  -15.6323   20.0874 H   0  0  0  0  0  0
  -26.7242  -32.5353   23.1038 H   0  0  0  0  0  0
  -25.0088  -33.9656   25.0366 H   0  0  0  0  0  0
  -22.7372  -31.2966   21.3893 H   0  0  0  0  0  0
  -23.3758  -35.9592   23.3293 H   0  0  0  0  0  0
  -24.3577  -36.8906   22.2057 H   0  0  0  0  0  0
  -23.7238  -37.6458   23.6680 H   0  0  0  0  0  0
  -26.1394  -31.4974   20.6141 H   0  0  0  0  0  0
  -26.8633  -30.7898   22.0245 H   0  0  0  0  0  0
  -28.1261  -28.8522   21.2274 H   0  0  0  0  0  0
  -25.9423  -25.9034   18.9500 H   0  0  0  0  0  0
  -23.9787  -27.3203   18.9691 H   0  0  0  0  0  0
  -23.7930  -30.5815   19.4019 H   0  0  0  0  0  0
  -22.7762  -29.2450   19.8472 H   0  0  0  0  0  0
  -25.1303  -36.1886   25.0812 H   0  0  0  0  0  0
  -21.0000  -28.3298   24.1370 H   0  0  0  0  0  0
  -20.5686  -26.2325   23.3616 H   0  0  0  0  0  0
  -21.6652  -26.7438   22.1198 H   0  0  0  0  0  0
  -19.6920  -25.6290   21.1252 H   0  0  0  0  0  0
  -19.6694  -27.3183   20.6732 H   0  0  0  0  0  0
  -17.4209  -26.6679   21.4026 H   0  0  0  0  0  0
  -18.0338  -26.0076   22.9021 H   0  0  0  0  0  0
  -19.7951  -30.7286   24.2244 H   0  0  0  0  0  0
  -17.5027  -31.6269   24.5165 H   0  0  0  0  0  0
  -15.5363  -30.2982   23.7668 H   0  0  0  0  0  0
  -15.8686  -28.0816   22.7082 H   0  0  0  0  0  0
  -24.5905  -30.7081   25.7747 H   0  0  0  0  0  0
  -24.8896  -32.2916   26.4810 H   0  0  0  0  0  0
  -25.8014  -30.8945   27.0230 H   0  0  0  0  0  0
  -26.2991  -29.6707   24.1270 H   0  0  0  0  0  0
  -27.4018  -29.7269   25.4818 H   0  0  0  0  0  0
  -27.8887  -30.4236   23.9560 H   0  0  0  0  0  0
  -27.2654  -33.3653   26.2035 H   0  0  0  0  0  0
  -28.3889  -32.6867   25.0350 H   0  0  0  0  0  0
  -28.0696  -31.8492   26.5461 H   0  0  0  0  0  0
  -28.2583  -38.0097   24.7524 H   0  0  0  0  0  0
  -28.1087  -36.2627   24.6278 H   0  0  0  0  0  0
  -27.2296  -37.1419   25.8868 H   0  0  0  0  0  0
  -20.9436  -29.8772   21.6825 H   0  0  0  0  0  0
  -26.0158  -38.2827   24.1422 H   0  0  0  0  0  0
  -30.9988  -20.2896   18.7374 H   0  0  0  0  0  0
  -27.8967  -18.5187   19.1558 H   0  0  0  0  0  0
  -29.5492  -18.3205   18.6925 H   0  0  0  0  0  0
  -31.3898  -18.7274   20.3334 H   0  0  0  0  0  0
  -31.0240  -19.2671   21.9355 H   0  0  0  0  0  0
  -30.8401  -24.1049   16.0813 H   0  0  0  0  0  0
  -32.2075  -24.7242   16.9268 H   0  0  0  0  0  0
  -28.6586  -16.1131   19.0681 H   0  0  0  0  0  0
  -27.9579  -16.5362   20.6079 H   0  0  0  0  0  0
  -30.0141  -17.1003   22.5247 H   0  0  0  0  0  0
  -31.5964  -16.8431   21.8787 H   0  0  0  0  0  0
  -28.5918  -19.3088   21.4248 H   0  0  0  0  0  0
  -27.0354  -20.9607   21.3562 H   0  0  0  0  0  0
  -26.8672  -22.6762   21.5965 H   0  0  0  0  0  0
  -28.0513  -21.7788   22.5476 H   0  0  0  0  0  0
  -33.1847  -23.2412   18.9058 H   0  0  0  0  0  0
  -33.8020  -22.8087   17.3163 H   0  0  0  0  0  0
  -33.2549  -21.5544   18.4199 H   0  0  0  0  0  0
  -30.4670  -21.7385   15.8726 H   0  0  0  0  0  0
  -31.6886  -20.6780   16.5602 H   0  0  0  0  0  0
  -32.1657  -21.9745   15.4785 H   0  0  0  0  0  0
  -32.0075  -25.3038   19.3670 H   0  0  0  0  0  0
  -30.5539  -26.1538   19.7902 H   0  0  0  0  0  0
  -31.4270  -26.6048   18.3418 H   0  0  0  0  0  0
  -28.6730  -24.6376   16.6645 H   0  0  0  0  0  0
  -29.5272  -26.1727   16.6602 H   0  0  0  0  0  0
  -28.3765  -25.8037   17.9147 H   0  0  0  0  0  0
  -27.9411  -24.6960   21.5153 H   0  0  0  0  0  0
  -26.9821  -24.5107   20.1028 H   0  0  0  0  0  0
  1 25  1  0  0  0
  1 30  2  0  0  0
  1 91  1  0  0  0
  2  3  1  0  0  0
  2 25  1  0  0  0
  2 92  1  0  0  0
  2 93  1  0  0  0
  3  4  1  0  0  0
  3 94  1  0  0  0
  3 95  1  0  0  0
  4  5  1  0  0  0
  4 96  1  0  0  0
  4 97  1  0  0  0
  5  6  1  0  0  0
  5 26  1  0  0  0
  5 98  1  0  0  0
  6 25  1  0  0  0
  6 99  1  0  0  0
  6100  1  0  0  0
  7  8  2  0  0  0
  7 26  1  0  0  0
  7 29  1  0  0  0
  8  9  1  0  0  0
  8 22  1  0  0  0
  9 10  1  0  0  0
  9 27  2  0  0  0
 10 11  2  0  0  0
 10 15  1  0  0  0
 11 12  1  0  0  0
 11101  1  0  0  0
 12 13  2  0  0  0
 12102  1  0  0  0
 13 14  1  0  0  0
 13 31  1  0  0  0
 14 15  2  0  0  0
 14103  1  0  0  0
 15104  1  0  0  0
 16 17  2  0  0  0
 16 21  1  0  0  0
 16 31  1  0  0  0
 17 18  1  0  0  0
 17105  1  0  0  0
 18 19  2  0  0  0
 18106  1  0  0  0
 19 20  1  0  0  0
 19 24  1  0  0  0
 20 21  2  0  0  0
 20107  1  0  0  0
 21 23  1  0  0  0
 22 28  1  0  0  0
 22 32  2  0  0  0
 26 27  1  0  0  0
 28108  1  0  0  0
 28109  1  0  0  0
 29110  1  0  0  0
 29111  1  0  0  0
 33 34  1  0  0  0
 33 66  1  0  0  0
 33 70  2  0  0  0
 34 36  1  0  0  0
 34 59  1  0  0  0
 34112  1  0  0  0
 35 44  2  0  0  0
 35 45  1  0  0  0
 35 68  1  0  0  0
 36 56  1  0  0  0
 36113  1  0  0  0
 37 39  1  0  0  0
 37 47  1  0  0  0
 37 66  1  0  0  0
 37114  1  0  0  0
 38 43  2  0  0  0
 38 46  1  0  0  0
 38 47  1  0  0  0
 39 64  1  0  0  0
 39 67  2  0  0  0
 40 52  1  0  0  0
 40 53  2  0  0  0
 40 58  1  0  0  0
 41115  1  0  0  0
 41116  1  0  0  0
 41117  1  0  0  0
 41 48  1  0  0  0
 42 43  1  0  0  0
 42 66  1  0  0  0
 42118  1  0  0  0
 42119  1  0  0  0
 43 44  1  0  0  0
 44120  1  0  0  0
 45 46  2  0  0  0
 45121  1  0  0  0
 46122  1  0  0  0
 47123  1  0  0  0
 47124  1  0  0  0
 48 56  1  0  0  0
 48 65  1  0  0  0
 48125  1  0  0  0
 49 50  1  0  0  0
 49 53  1  0  0  0
 49 64  1  0  0  0
 49126  1  0  0  0
 50 51  1  0  0  0
 50127  1  0  0  0
 50128  1  0  0  0
 51 52  1  0  0  0
 51129  1  0  0  0
 51130  1  0  0  0
 52131  1  0  0  0
 52132  1  0  0  0
 53 54  1  0  0  0
 54 55  2  0  0  0
 54133  1  0  0  0
 55 57  1  0  0  0
 55134  1  0  0  0
 56 69  2  0  0  0
 57 58  2  0  0  0
 57135  1  0  0  0
 58136  1  0  0  0
 59 60  1  0  0  0
 59 61  1  0  0  0
 59 62  1  0  0  0
 60137  1  0  0  0
 60138  1  0  0  0
 60139  1  0  0  0
 61140  1  0  0  0
 61141  1  0  0  0
 61142  1  0  0  0
 62143  1  0  0  0
 62144  1  0  0  0
 62145  1  0  0  0
 63 65  1  0  0  0
 63146  1  0  0  0
 63147  1  0  0  0
 63148  1  0  0  0
 64149  1  0  0  0
 65150  1  0  0  0
 68 90  1  0  0  0
 71 72  2  0  0  0
 71 73  1  0  0  0
 71151  1  0  0  0
 72 74  1  0  0  0
 72 83  1  0  0  0
 73 75  2  0  0  0
 73 82  1  0  0  0
 74 76  2  0  0  0
 74 84  1  0  0  0
 75 76  1  0  0  0
 75 85  1  0  0  0
 76 90  1  0  0  0
 77 80  1  0  0  0
 77 82  1  0  0  0
 77152  1  0  0  0
 77153  1  0  0  0
 78 81  1  0  0  0
 78 82  1  0  0  0
 78154  1  0  0  0
 78155  1  0  0  0
 79 83  1  0  0  0
 79 84  1  0  0  0
 79156  1  0  0  0
 79157  1  0  0  0
 80 91  1  0  0  0
 80158  1  0  0  0
 80159  1  0  0  0
 81 91  1  0  0  0
 81160  1  0  0  0
 81161  1  0  0  0
 82162  1  0  0  0
 83 86  1  0  0  0
 83 87  1  0  0  0
 84 88  1  0  0  0
 84 89  1  0  0  0
 85163  1  0  0  0
 85164  1  0  0  0
 85165  1  0  0  0
 86166  1  0  0  0
 86167  1  0  0  0
 86168  1  0  0  0
 87169  1  0  0  0
 87170  1  0  0  0
 87171  1  0  0  0
 88172  1  0  0  0
 88173  1  0  0  0
 88174  1  0  0  0
 89175  1  0  0  0
 89176  1  0  0  0
 89177  1  0  0  0
 90178  1  0  0  0
 90179  1  0  0  0
M  ISO  4   1 100  68 101  90 101  91 100
M  END
> <chiral flag>
0

> <version>
0

> <s_m_source_file>
/data/baiqing/PycharmProjects/Reinvent-master-3.2/result/LINK_invent/BTK/process_docking_weight1_custom_sum_contain_oxygen_bond_distance_aromatic_linkinvent_7_9_3/rearranged_h_0171.sdf

> <i_m_source_file_index>
2

> <r_mmod_Potential_Energy-OPLS-2005>
608.222534179688

> <r_mmod_Stretch_Energy-OPLS-2005>
189.023315429688

> <r_mmod_Bend_Energy-OPLS-2005>
275.368133544922

> <r_mmod_Torsional_Energy-OPLS-2005>
365.489501953125

> <r_mmod_Improper_Torsional_Energy-OPLS-2005>
2.35805010795593

> <r_mmod_Van_der_Waal_Energy-OPLS-2005>
141.179153442383

> <r_mmod_Electrostatic_Energy-OPLS-2005>
-319.420135498047

> <r_mmod_Solvation_Energy-OPLS-2005>
-183.651031494141

> <b_mmod_Minimization_Converged-OPLS-2005>
0

> <r_mmod_RMS_Derivative-OPLS-2005>
0.23629204928875

$$$$
2
                    3D
 Structure written by MMmdl.
160169  0  0  1  0            999 V2000
  -30.6220  -14.7111   20.5043 C   0  0  0  0  0  0
  -30.4391  -12.4498   19.4489 C   0  0  0  0  0  0
  -29.5043  -12.5251   18.2205 C   0  0  0  0  0  0
  -28.0277  -12.3572   18.6354 C   0  0  0  0  0  0
  -27.6507  -13.2211   19.8694 C   0  0  2  0  0  0
  -28.7058  -13.0589   20.9860 C   0  0  0  0  0  0
  -25.2537  -13.8173   20.5686 C   0  0  0  0  0  0
  -24.1816  -13.0431   20.9197 C   0  0  0  0  0  0
  -24.6400  -11.6906   20.8757 C   0  0  0  0  0  0
  -23.9063  -10.4290   21.0416 C   0  0  0  0  0  0
  -24.3611   -9.4204   21.9193 C   0  0  0  0  0  0
  -23.6288   -8.2238   22.0754 C   0  0  0  0  0  0
  -22.4272   -8.0277   21.3543 C   0  0  0  0  0  0
  -21.9909   -9.0251   20.4649 C   0  0  0  0  0  0
  -22.7235  -10.2131   20.3064 C   0  0  0  0  0  0
  -21.6853   -6.0734   22.5280 C   0  0  0  0  0  0
  -21.4013   -6.5638   23.8213 C   0  0  0  0  0  0
  -21.3660   -5.6790   24.9175 C   0  0  0  0  0  0
  -21.6046   -4.3054   24.7227 C   0  0  0  0  0  0
  -21.8817   -3.8146   23.4347 C   0  0  0  0  0  0
  -21.9192   -4.6964   22.3406 C   0  0  0  0  0  0
  -22.7838  -13.5229   21.1848 C   0  0  0  0  0  0
  -22.1662   -4.2148   21.0981 F   0  0  0  0  0  0
  -21.5628   -3.4535   25.7739 F   0  0  0  0  0  0
  -29.9901  -13.4844   20.4126 N   0  0  0  0  0  0
  -26.2985  -12.9365   20.3379 N   0  0  0  0  0  0
  -25.9334  -11.6512   20.5795 N   0  0  0  0  0  0
  -22.0476  -12.8232   22.0405 N   0  0  0  0  0  0
  -25.4203  -15.1890   20.4038 N   0  0  0  0  0  0
  -31.7975  -14.7949   20.1277 O   0  0  0  0  0  0
  -21.6634   -6.8878   21.4242 O   0  0  0  0  0  0
  -22.3530  -14.5536   20.6693 O   0  0  0  0  0  0
  -24.6302  -31.8579   23.2011 C   0  0  0  0  0  0
  -25.9136  -32.4765   23.8351 C   0  0  1  0  0  0
  -27.2165  -27.2807   20.1169 C   0  0  0  0  0  0
  -25.5938  -33.8567   24.2274 N   0  0  0  0  0  0
  -23.4254  -30.4833   21.5443 C   0  0  2  0  0  0
  -24.8702  -28.9369   20.1084 C   0  0  0  0  0  0
  -22.7501  -29.4622   22.4916 C   0  0  0  0  0  0
  -18.0294  -28.1389   22.8487 C   0  0  0  0  0  0
  -24.1489  -36.7289   23.2640 C   0  0  0  0  0  0
  -25.9709  -30.7751   21.3802 C   0  0  0  0  0  0
  -26.0422  -29.4010   20.7186 C   0  0  0  0  0  0
  -27.2175  -28.5855   20.7136 C   0  0  0  0  0  0
  -26.0215  -26.8891   19.4673 C   0  0  0  0  0  0
  -24.8643  -27.6887   19.4716 C   0  0  0  0  0  0
  -23.6418  -29.8227   20.1586 C   0  0  0  0  0  0
  -25.4114  -36.3077   24.0330 C   0  0  1  0  0  0
  -20.5896  -28.3707   23.1266 C   0  0  2  0  0  0
  -20.6779  -26.9426   22.5406 C   0  0  0  0  0  0
  -19.5752  -26.6388   21.5214 C   0  0  0  0  0  0
  -18.1936  -26.7929   22.1629 C   0  0  0  0  0  0
  -19.1545  -28.8864   23.2870 C   0  0  0  0  0  0
  -18.9467  -30.1461   23.8895 C   0  0  0  0  0  0
  -17.6466  -30.6589   24.0565 C   0  0  0  0  0  0
  -25.9056  -34.9444   23.5104 C   0  0  0  0  0  0
  -16.5358  -29.9090   23.6325 C   0  0  0  0  0  0
  -16.7280  -28.6504   23.0353 C   0  0  0  0  0  0
  -26.4504  -31.6580   25.0736 C   0  0  0  0  0  0
  -25.3727  -31.3729   26.1458 C   0  0  0  0  0  0
  -27.0348  -30.2993   24.6218 C   0  0  0  0  0  0
  -27.6060  -32.4322   25.7506 C   0  0  0  0  0  0
  -27.5579  -37.1803   24.8468 C   0  0  0  0  0  0
  -21.4210  -29.3054   22.3657 N   0  0  0  0  0  0
  -26.4292  -37.3775   23.9410 N   0  0  0  0  0  0
  -24.6944  -31.0563   22.0980 N   0  0  0  0  0  0
  -23.4209  -28.8155   23.3003 O   0  0  0  0  0  0
  -28.3118  -26.3897   20.1862 O   0  0  0  0  0  0
  -26.5629  -34.8915   22.4673 O   0  0  0  0  0  0
  -23.5454  -32.1397   23.7314 O   0  0  0  0  0  0
  -29.7589  -19.2400   18.8415 C   0  0  0  0  0  0
  -29.7679  -17.6895   18.8216 C   0  0  0  0  0  0
  -28.5781  -17.6416   21.8317 C   0  0  0  0  0  0
  -28.9111  -16.1320   21.7551 C   0  0  0  0  0  0
  -29.6859  -18.4085   21.1054 C   0  0  2  0  0  0
  -29.2054  -19.6566   20.2206 C   0  0  1  0  0  0
  -30.2850  -17.2724   20.2073 C   0  0  1  0  0  0
  -29.5454  -21.1713   20.6804 C   0  0  0  0  0  0
  -29.0823  -23.7783   20.4420 C   0  0  0  0  0  0
  -28.0678  -24.9282   19.9481 C   0  0  0  0  0  0
  -29.8790  -15.8877   20.6732 N   0  0  0  0  0  0
  -28.7305  -22.3227   20.0824 N   0  3  0  0  0  0
  -31.4749  -12.5885   19.1349 H   0  0  0  0  0  0
  -30.4043  -11.4565   19.8997 H   0  0  0  0  0  0
  -29.7774  -11.7631   17.4890 H   0  0  0  0  0  0
  -29.6343  -13.4869   17.7217 H   0  0  0  0  0  0
  -27.8690  -11.3030   18.8636 H   0  0  0  0  0  0
  -27.3702  -12.5878   17.7964 H   0  0  0  0  0  0
  -27.6680  -14.2596   19.5378 H   0  0  0  0  0  0
  -28.7580  -12.0143   21.2968 H   0  0  0  0  0  0
  -28.4537  -13.5880   21.9000 H   0  0  0  0  0  0
  -25.2754   -9.5679   22.4769 H   0  0  0  0  0  0
  -23.9997   -7.4628   22.7472 H   0  0  0  0  0  0
  -21.0837   -8.8771   19.8957 H   0  0  0  0  0  0
  -22.3695  -10.9667   19.6173 H   0  0  0  0  0  0
  -21.2004   -7.6146   23.9717 H   0  0  0  0  0  0
  -21.1483   -6.0520   25.9078 H   0  0  0  0  0  0
  -22.0599   -2.7608   23.2846 H   0  0  0  0  0  0
  -22.4075  -11.9897   22.4815 H   0  0  0  0  0  0
  -21.1092  -13.1273   22.2589 H   0  0  0  0  0  0
  -24.6501  -15.8410   20.5033 H   0  0  0  0  0  0
  -26.2699  -15.6268   20.0718 H   0  0  0  0  0  0
  -26.7203  -32.5415   23.1095 H   0  0  0  0  0  0
  -25.0077  -33.9707   25.0414 H   0  0  0  0  0  0
  -22.7208  -31.3053   21.4018 H   0  0  0  0  0  0
  -23.3750  -35.9625   23.3305 H   0  0  0  0  0  0
  -24.3579  -36.8908   22.2054 H   0  0  0  0  0  0
  -23.7242  -37.6494   23.6657 H   0  0  0  0  0  0
  -26.1119  -31.5383   20.6138 H   0  0  0  0  0  0
  -26.8479  -30.8189   22.0143 H   0  0  0  0  0  0
  -28.1132  -28.9351   21.2078 H   0  0  0  0  0  0
  -25.9416  -25.9431   18.9541 H   0  0  0  0  0  0
  -23.9692  -27.3321   18.9802 H   0  0  0  0  0  0
  -23.7673  -30.6019   19.4058 H   0  0  0  0  0  0
  -22.7595  -29.2584   19.8510 H   0  0  0  0  0  0
  -25.1291  -36.1934   25.0823 H   0  0  0  0  0  0
  -20.9988  -28.3288   24.1386 H   0  0  0  0  0  0
  -20.5681  -26.2327   23.3617 H   0  0  0  0  0  0
  -21.6647  -26.7452   22.1199 H   0  0  0  0  0  0
  -19.6915  -25.6296   21.1249 H   0  0  0  0  0  0
  -19.6677  -27.3193   20.6737 H   0  0  0  0  0  0
  -17.4204  -26.6680   21.4031 H   0  0  0  0  0  0
  -18.0335  -26.0069   22.9023 H   0  0  0  0  0  0
  -19.7945  -30.7274   24.2265 H   0  0  0  0  0  0
  -17.5024  -31.6267   24.5175 H   0  0  0  0  0  0
  -15.5358  -30.2996   23.7641 H   0  0  0  0  0  0
  -15.8682  -28.0820   22.7071 H   0  0  0  0  0  0
  -24.5907  -30.7070   25.7788 H   0  0  0  0  0  0
  -24.8913  -32.2895   26.4872 H   0  0  0  0  0  0
  -25.8047  -30.8917   27.0243 H   0  0  0  0  0  0
  -26.2930  -29.6744   24.1232 H   0  0  0  0  0  0
  -27.4011  -29.7251   25.4739 H   0  0  0  0  0  0
  -27.8818  -30.4260   23.9473 H   0  0  0  0  0  0
  -27.2668  -33.3626   26.2070 H   0  0  0  0  0  0
  -28.3873  -32.6879   25.0336 H   0  0  0  0  0  0
  -28.0726  -31.8460   26.5433 H   0  0  0  0  0  0
  -28.2600  -38.0097   24.7507 H   0  0  0  0  0  0
  -28.1071  -36.2628   24.6299 H   0  0  0  0  0  0
  -27.2300  -37.1462   25.8872 H   0  0  0  0  0  0
  -20.9400  -29.8790   21.6870 H   0  0  0  0  0  0
  -26.0174  -38.2853   24.1397 H   0  0  0  0  0  0
  -29.1764  -19.6563   18.0189 H   0  0  0  0  0  0
  -30.7816  -19.6033   18.7270 H   0  0  0  0  0  0
  -30.3803  -17.2890   18.0127 H   0  0  0  0  0  0
  -28.7505  -17.3231   18.6732 H   0  0  0  0  0  0
  -28.4545  -17.9811   22.8611 H   0  0  0  0  0  0
  -27.6198  -17.8013   21.3356 H   0  0  0  0  0  0
  -27.9769  -15.6028   21.5827 H   0  0  0  0  0  0
  -29.3289  -15.7835   22.7009 H   0  0  0  0  0  0
  -30.4431  -18.7214   21.8263 H   0  0  0  0  0  0
  -28.1190  -19.5984   20.1497 H   0  0  0  0  0  0
  -31.3736  -17.3596   20.2164 H   0  0  0  0  0  0
  -30.6042  -21.3677   20.5090 H   0  0  0  0  0  0
  -29.4101  -21.2278   21.7609 H   0  0  0  0  0  0
  -29.1701  -23.8464   21.5265 H   0  0  0  0  0  0
  -30.0748  -23.9911   20.0453 H   0  0  0  0  0  0
  -27.1088  -24.6747   20.4012 H   0  0  0  0  0  0
  -27.9375  -24.8072   18.8722 H   0  0  0  0  0  0
  -27.7709  -22.1622   20.3477 H   0  0  0  0  0  0
  -28.7694  -22.2330   19.0789 H   0  0  0  0  0  0
  1 25  1  0  0  0
  1 30  2  0  0  0
  1 81  1  0  0  0
  2  3  1  0  0  0
  2 25  1  0  0  0
  2 83  1  0  0  0
  2 84  1  0  0  0
  3  4  1  0  0  0
  3 85  1  0  0  0
  3 86  1  0  0  0
  4  5  1  0  0  0
  4 87  1  0  0  0
  4 88  1  0  0  0
  5  6  1  0  0  0
  5 26  1  0  0  0
  5 89  1  0  0  0
  6 25  1  0  0  0
  6 90  1  0  0  0
  6 91  1  0  0  0
  7  8  2  0  0  0
  7 26  1  0  0  0
  7 29  1  0  0  0
  8  9  1  0  0  0
  8 22  1  0  0  0
  9 10  1  0  0  0
  9 27  2  0  0  0
 10 11  2  0  0  0
 10 15  1  0  0  0
 11 12  1  0  0  0
 11 92  1  0  0  0
 12 13  2  0  0  0
 12 93  1  0  0  0
 13 14  1  0  0  0
 13 31  1  0  0  0
 14 15  2  0  0  0
 14 94  1  0  0  0
 15 95  1  0  0  0
 16 17  2  0  0  0
 16 21  1  0  0  0
 16 31  1  0  0  0
 17 18  1  0  0  0
 17 96  1  0  0  0
 18 19  2  0  0  0
 18 97  1  0  0  0
 19 20  1  0  0  0
 19 24  1  0  0  0
 20 21  2  0  0  0
 20 98  1  0  0  0
 21 23  1  0  0  0
 22 28  1  0  0  0
 22 32  2  0  0  0
 26 27  1  0  0  0
 28 99  1  0  0  0
 28100  1  0  0  0
 29101  1  0  0  0
 29102  1  0  0  0
 33 34  1  0  0  0
 33 66  1  0  0  0
 33 70  2  0  0  0
 34 36  1  0  0  0
 34 59  1  0  0  0
 34103  1  0  0  0
 35 44  2  0  0  0
 35 45  1  0  0  0
 35 68  1  0  0  0
 36 56  1  0  0  0
 36104  1  0  0  0
 37 39  1  0  0  0
 37 47  1  0  0  0
 37 66  1  0  0  0
 37105  1  0  0  0
 38 43  2  0  0  0
 38 46  1  0  0  0
 38 47  1  0  0  0
 39 64  1  0  0  0
 39 67  2  0  0  0
 40 52  1  0  0  0
 40 53  2  0  0  0
 40 58  1  0  0  0
 41106  1  0  0  0
 41107  1  0  0  0
 41108  1  0  0  0
 41 48  1  0  0  0
 42 43  1  0  0  0
 42 66  1  0  0  0
 42109  1  0  0  0
 42110  1  0  0  0
 43 44  1  0  0  0
 44111  1  0  0  0
 45 46  2  0  0  0
 45112  1  0  0  0
 46113  1  0  0  0
 47114  1  0  0  0
 47115  1  0  0  0
 48 56  1  0  0  0
 48 65  1  0  0  0
 48116  1  0  0  0
 49 50  1  0  0  0
 49 53  1  0  0  0
 49 64  1  0  0  0
 49117  1  0  0  0
 50 51  1  0  0  0
 50118  1  0  0  0
 50119  1  0  0  0
 51 52  1  0  0  0
 51120  1  0  0  0
 51121  1  0  0  0
 52122  1  0  0  0
 52123  1  0  0  0
 53 54  1  0  0  0
 54 55  2  0  0  0
 54124  1  0  0  0
 55 57  1  0  0  0
 55125  1  0  0  0
 56 69  2  0  0  0
 57 58  2  0  0  0
 57126  1  0  0  0
 58127  1  0  0  0
 59 60  1  0  0  0
 59 61  1  0  0  0
 59 62  1  0  0  0
 60128  1  0  0  0
 60129  1  0  0  0
 60130  1  0  0  0
 61131  1  0  0  0
 61132  1  0  0  0
 61133  1  0  0  0
 62134  1  0  0  0
 62135  1  0  0  0
 62136  1  0  0  0
 63 65  1  0  0  0
 63137  1  0  0  0
 63138  1  0  0  0
 63139  1  0  0  0
 64140  1  0  0  0
 65141  1  0  0  0
 68 80  1  0  0  0
 71 72  1  0  0  0
 71 76  1  0  0  0
 71142  1  0  0  0
 71143  1  0  0  0
 72144  1  0  0  0
 72145  1  0  0  0
 72 77  1  0  0  0
 73 74  1  0  0  0
 73146  1  0  0  0
 73147  1  0  0  0
 73 75  1  0  0  0
 74 81  1  0  0  0
 74148  1  0  0  0
 74149  1  0  0  0
 75 76  1  0  0  0
 75 77  1  0  0  0
 75150  1  0  0  0
 76 78  1  0  0  0
 76151  1  0  0  0
 77 81  1  0  0  0
 77152  1  0  0  0
 78 82  1  0  0  0
 78153  1  0  0  0
 78154  1  0  0  0
 79 80  1  0  0  0
 79 82  1  0  0  0
 79155  1  0  0  0
 79156  1  0  0  0
 80157  1  0  0  0
 80158  1  0  0  0
 82159  1  0  0  0
 82160  1  0  0  0
M  CHG  1  82   1
M  ISO  4   1 100  68 101  80 101  81 100
M  END
> <chiral flag>
0

> <version>
0

> <s_m_source_file>
/data/baiqing/PycharmProjects/Reinvent-master-3.2/result/LINK_invent/BTK/process_docking_weight1_custom_sum_contain_oxygen_bond_distance_aromatic_linkinvent_7_9_3/rearranged_h_0171.sdf

> <i_m_source_file_index>
3

> <r_mmod_Potential_Energy-OPLS-2005>
296.109344482422

> <r_mmod_Stretch_Energy-OPLS-2005>
109.367042541504

> <r_mmod_Bend_Energy-OPLS-2005>
204.054351806641

> <r_mmod_Torsional_Energy-OPLS-2005>
378.080291748047

> <r_mmod_Improper_Torsional_Energy-OPLS-2005>
10.7329473495483

> <r_mmod_Van_der_Waal_Energy-OPLS-2005>
120.902198791504

> <r_mmod_Electrostatic_Energy-OPLS-2005>
-151.407333374023

> <r_mmod_Solvation_Energy-OPLS-2005>
-444.371307373047

> <b_mmod_Minimization_Converged-OPLS-2005>
0

> <r_mmod_RMS_Derivative-OPLS-2005>
0.764244854450226

$$$$
3
                    3D
 Structure written by MMmdl.
176185  0  0  1  0            999 V2000
  -30.5863  -14.7449   20.4177 C   0  0  0  0  0  0
  -30.4399  -12.4427   19.4666 C   0  0  0  0  0  0
  -29.5090  -12.4685   18.2333 C   0  0  0  0  0  0
  -28.0319  -12.3136   18.6529 C   0  0  0  0  0  0
  -27.6400  -13.2227   19.8508 C   0  0  2  0  0  0
  -28.6921  -13.1481   20.9802 C   0  0  0  0  0  0
  -25.2525  -13.8176   20.5822 C   0  0  0  0  0  0
  -24.1785  -13.0415   20.9256 C   0  0  0  0  0  0
  -24.6363  -11.6899   20.8771 C   0  0  0  0  0  0
  -23.9038  -10.4277   21.0411 C   0  0  0  0  0  0
  -24.3591   -9.4200   21.9190 C   0  0  0  0  0  0
  -23.6278   -8.2230   22.0759 C   0  0  0  0  0  0
  -22.4260   -8.0249   21.3552 C   0  0  0  0  0  0
  -21.9892   -9.0222   20.4645 C   0  0  0  0  0  0
  -22.7213  -10.2110   20.3056 C   0  0  0  0  0  0
  -21.6836   -6.0711   22.5280 C   0  0  0  0  0  0
  -21.3968   -6.5611   23.8198 C   0  0  0  0  0  0
  -21.3683   -5.6784   24.9178 C   0  0  0  0  0  0
  -21.6071   -4.3048   24.7230 C   0  0  0  0  0  0
  -21.8822   -3.8127   23.4350 C   0  0  0  0  0  0
  -21.9179   -4.6944   22.3407 C   0  0  0  0  0  0
  -22.7817  -13.5221   21.1894 C   0  0  0  0  0  0
  -22.1660   -4.2131   21.0987 F   0  0  0  0  0  0
  -21.5665   -3.4533   25.7745 F   0  0  0  0  0  0
  -29.9885  -13.5053   20.3911 N   0  0  0  0  0  0
  -26.2921  -12.9374   20.3331 N   0  0  0  0  0  0
  -25.9281  -11.6523   20.5758 N   0  0  0  0  0  0
  -22.0419  -12.8221   22.0415 N   0  0  0  0  0  0
  -25.4231  -15.1897   20.4382 N   0  0  0  0  0  0
  -31.7733  -14.8697   20.1044 O   0  0  0  0  0  0
  -21.6633   -6.8841   21.4229 O   0  0  0  0  0  0
  -22.3536  -14.5546   20.6733 O   0  0  0  0  0  0
  -24.6327  -31.8510   23.1990 C   0  0  0  0  0  0
  -25.9145  -32.4739   23.8328 C   0  0  1  0  0  0
  -27.1963  -27.2517   20.1306 C   0  0  0  0  0  0
  -25.5946  -33.8547   24.2268 N   0  0  0  0  0  0
  -23.4252  -30.4768   21.5409 C   0  0  2  0  0  0
  -24.8666  -28.9312   20.1059 C   0  0  0  0  0  0
  -22.7497  -29.4555   22.4881 C   0  0  0  0  0  0
  -18.0265  -28.1399   22.8450 C   0  0  0  0  0  0
  -24.1467  -36.7266   23.2643 C   0  0  0  0  0  0
  -25.9730  -30.7671   21.3727 C   0  0  0  0  0  0
  -26.0420  -29.3903   20.7141 C   0  0  0  0  0  0
  -27.2108  -28.5642   20.7132 C   0  0  0  0  0  0
  -26.0021  -26.8692   19.4793 C   0  0  0  0  0  0
  -24.8542  -27.6801   19.4753 C   0  0  0  0  0  0
  -23.6423  -29.8199   20.1541 C   0  0  0  0  0  0
  -25.4084  -36.3062   24.0341 C   0  0  1  0  0  0
  -20.5875  -28.3662   23.1266 C   0  0  2  0  0  0
  -20.6756  -26.9386   22.5383 C   0  0  0  0  0  0
  -19.5740  -26.6384   21.5181 C   0  0  0  0  0  0
  -18.1910  -26.7942   22.1580 C   0  0  0  0  0  0
  -19.1525  -28.8847   23.2856 C   0  0  0  0  0  0
  -18.9463  -30.1466   23.8847 C   0  0  0  0  0  0
  -17.6467  -30.6588   24.0558 C   0  0  0  0  0  0
  -25.9036  -34.9440   23.5089 C   0  0  0  0  0  0
  -16.5355  -29.9083   23.6349 C   0  0  0  0  0  0
  -16.7256  -28.6515   23.0330 C   0  0  0  0  0  0
  -26.4529  -31.6582   25.0723 C   0  0  0  0  0  0
  -25.3792  -31.3723   26.1475 C   0  0  0  0  0  0
  -27.0424  -30.3028   24.6198 C   0  0  0  0  0  0
  -27.6041  -32.4360   25.7518 C   0  0  0  0  0  0
  -27.5548  -37.1776   24.8482 C   0  0  0  0  0  0
  -21.4186  -29.3039   22.3687 N   0  0  0  0  0  0
  -26.4256  -37.3773   23.9432 N   0  0  0  0  0  0
  -24.6965  -31.0497   22.0948 N   0  0  0  0  0  0
  -23.4222  -28.8069   23.2948 O   0  0  0  0  0  0
  -28.2679  -26.3334   20.2076 O   0  0  0  0  0  0
  -26.5613  -34.8928   22.4669 O   0  0  0  0  0  0
  -23.5481  -32.1297   23.7309 O   0  0  0  0  0  0
  -26.9131  -19.7330   19.6696 C   0  0  0  0  0  0
  -28.2807  -19.4969   19.9420 C   0  0  0  0  0  0
  -28.7726  -18.1426   19.6163 C   0  0  0  0  0  0
  -28.0413  -17.4217   18.6163 C   0  0  0  0  0  0
  -26.6689  -17.6964   18.3890 C   0  0  0  0  0  0
  -26.0827  -18.8132   19.0049 C   0  0  0  0  0  0
  -28.9286  -21.2070   21.8922 C   0  0  0  0  0  0
  -29.0305  -20.7862   20.4729 C   0  0  2  0  0  0
  -28.3689  -22.2161   20.8828 C   0  0  2  0  0  0
  -25.7998  -16.8073   17.4960 C   0  0  0  0  0  0
  -30.3862  -23.8596   23.0471 C   0  0  0  0  0  0
  -24.0526  -19.4510   20.0350 C   0  0  0  0  0  0
  -29.9752  -17.3503   20.2838 C   0  0  0  0  0  0
  -28.7550  -16.4499   17.6640 C   0  0  0  0  0  0
  -29.1410  -24.3198   22.2825 C   0  0  0  0  0  0
  -27.9660  -24.8543   20.1468 C   0  0  0  0  0  0
  -28.9139  -23.7450   20.8548 C   0  0  2  0  0  0
  -29.7586  -15.8488   20.5410 N   0  0  0  0  0  0
  -28.8432  -17.0429   16.3195 N   0  3  0  0  0  0
  -24.7342  -19.0374   18.8564 O   0  0  0  0  0  0
  -31.4767  -12.5832   19.1541 H   0  0  0  0  0  0
  -30.4022  -11.4688   19.9582 H   0  0  0  0  0  0
  -29.7804  -11.6610   17.5514 H   0  0  0  0  0  0
  -29.6534  -13.3931   17.6731 H   0  0  0  0  0  0
  -27.8901  -11.2675   18.9288 H   0  0  0  0  0  0
  -27.3720  -12.4918   17.8041 H   0  0  0  0  0  0
  -27.6291  -14.2439   19.4740 H   0  0  0  0  0  0
  -28.7344  -12.1404   21.3988 H   0  0  0  0  0  0
  -28.4371  -13.8171   21.8047 H   0  0  0  0  0  0
  -25.2709   -9.5696   22.4803 H   0  0  0  0  0  0
  -23.9988   -7.4611   22.7465 H   0  0  0  0  0  0
  -21.0837   -8.8704   19.8939 H   0  0  0  0  0  0
  -22.3630  -10.9646   19.6181 H   0  0  0  0  0  0
  -21.1907   -7.6110   23.9701 H   0  0  0  0  0  0
  -21.1536   -6.0510   25.9089 H   0  0  0  0  0  0
  -22.0582   -2.7584   23.2857 H   0  0  0  0  0  0
  -22.3955  -11.9846   22.4819 H   0  0  0  0  0  0
  -21.1030  -13.1266   22.2558 H   0  0  0  0  0  0
  -24.6670  -15.8407   20.6153 H   0  0  0  0  0  0
  -26.2655  -15.6526   20.1305 H   0  0  0  0  0  0
  -26.7183  -32.5363   23.1028 H   0  0  0  0  0  0
  -25.0178  -33.9701   25.0476 H   0  0  0  0  0  0
  -22.7213  -31.2991   21.3979 H   0  0  0  0  0  0
  -23.3764  -35.9569   23.3309 H   0  0  0  0  0  0
  -24.3554  -36.8887   22.2060 H   0  0  0  0  0  0
  -23.7216  -37.6462   23.6668 H   0  0  0  0  0  0
  -26.1055  -31.5270   20.6008 H   0  0  0  0  0  0
  -26.8537  -30.8166   22.0002 H   0  0  0  0  0  0
  -28.1080  -28.9091   21.2061 H   0  0  0  0  0  0
  -25.9257  -25.9126   18.9849 H   0  0  0  0  0  0
  -23.9572  -27.3279   18.9857 H   0  0  0  0  0  0
  -23.7740  -30.5986   19.4020 H   0  0  0  0  0  0
  -22.7591  -29.2591   19.8423 H   0  0  0  0  0  0
  -25.1273  -36.1863   25.0837 H   0  0  0  0  0  0
  -20.9904  -28.3190   24.1408 H   0  0  0  0  0  0
  -20.5601  -26.2258   23.3560 H   0  0  0  0  0  0
  -21.6613  -26.7387   22.1179 H   0  0  0  0  0  0
  -19.6892  -25.6297   21.1191 H   0  0  0  0  0  0
  -19.6690  -27.3191   20.6716 H   0  0  0  0  0  0
  -17.4160  -26.6659   21.4004 H   0  0  0  0  0  0
  -18.0307  -26.0098   22.8984 H   0  0  0  0  0  0
  -19.7962  -30.7300   24.2135 H   0  0  0  0  0  0
  -17.5049  -31.6248   24.5212 H   0  0  0  0  0  0
  -15.5367  -30.2991   23.7760 H   0  0  0  0  0  0
  -15.8631  -28.0886   22.7030 H   0  0  0  0  0  0
  -24.5966  -30.7038   25.7861 H   0  0  0  0  0  0
  -24.9013  -32.2916   26.4886 H   0  0  0  0  0  0
  -25.8185  -30.8949   27.0253 H   0  0  0  0  0  0
  -26.3036  -29.6718   24.1248 H   0  0  0  0  0  0
  -27.4206  -29.7301   25.4679 H   0  0  0  0  0  0
  -27.8839  -30.4377   23.9399 H   0  0  0  0  0  0
  -27.2606  -33.3684   26.2013 H   0  0  0  0  0  0
  -28.3920  -32.6874   25.0404 H   0  0  0  0  0  0
  -28.0633  -31.8548   26.5525 H   0  0  0  0  0  0
  -28.2564  -38.0077   24.7525 H   0  0  0  0  0  0
  -28.1043  -36.2600   24.6298 H   0  0  0  0  0  0
  -27.2274  -37.1416   25.8896 H   0  0  0  0  0  0
  -20.9327  -29.8869   21.7005 H   0  0  0  0  0  0
  -26.0117  -38.2829   24.1492 H   0  0  0  0  0  0
  -26.4582  -20.6628   19.9596 H   0  0  0  0  0  0
  -29.8989  -21.3498   22.3542 H   0  0  0  0  0  0
  -28.2020  -20.6947   22.5202 H   0  0  0  0  0  0
  -30.0208  -20.8302   20.0204 H   0  0  0  0  0  0
  -27.2854  -22.2510   20.9467 H   0  0  0  0  0  0
  -26.0524  -15.7527   17.6047 H   0  0  0  0  0  0
  -25.9002  -17.0884   16.4484 H   0  0  0  0  0  0
  -24.7439  -16.8842   17.7543 H   0  0  0  0  0  0
  -30.7270  -24.6464   23.7215 H   0  0  0  0  0  0
  -31.2127  -23.6190   22.3781 H   0  0  0  0  0  0
  -30.1754  -22.9991   23.6780 H   0  0  0  0  0  0
  -22.9841  -19.2759   19.9153 H   0  0  0  0  0  0
  -24.1917  -20.5129   20.2391 H   0  0  0  0  0  0
  -24.3844  -18.8784   20.9048 H   0  0  0  0  0  0
  -30.1953  -17.8291   21.2387 H   0  0  0  0  0  0
  -30.8661  -17.4935   19.6697 H   0  0  0  0  0  0
  -28.2495  -15.4878   17.6106 H   0  0  0  0  0  0
  -29.7768  -16.2374   17.9648 H   0  0  0  0  0  0
  -29.2482  -25.4013   22.2031 H   0  0  0  0  0  0
  -28.2505  -24.1664   22.8925 H   0  0  0  0  0  0
  -26.9851  -24.7092   20.6031 H   0  0  0  0  0  0
  -27.8458  -24.5843   19.0967 H   0  0  0  0  0  0
  -29.8658  -23.7435   20.3238 H   0  0  0  0  0  0
  -28.8183  -15.6137   20.8184 H   0  0  0  0  0  0
  -27.9305  -17.1522   15.9166 H   0  0  0  0  0  0
  -29.3897  -16.4561   15.7155 H   0  0  0  0  0  0
  -29.2768  -17.9476   16.3757 H   0  0  0  0  0  0
  1 25  1  0  0  0
  1 30  2  0  0  0
  1 88  1  0  0  0
  2  3  1  0  0  0
  2 25  1  0  0  0
  2 91  1  0  0  0
  2 92  1  0  0  0
  3  4  1  0  0  0
  3 93  1  0  0  0
  3 94  1  0  0  0
  4  5  1  0  0  0
  4 95  1  0  0  0
  4 96  1  0  0  0
  5  6  1  0  0  0
  5 26  1  0  0  0
  5 97  1  0  0  0
  6 25  1  0  0  0
  6 98  1  0  0  0
  6 99  1  0  0  0
  7  8  2  0  0  0
  7 26  1  0  0  0
  7 29  1  0  0  0
  8  9  1  0  0  0
  8 22  1  0  0  0
  9 10  1  0  0  0
  9 27  2  0  0  0
 10 11  2  0  0  0
 10 15  1  0  0  0
 11 12  1  0  0  0
 11100  1  0  0  0
 12 13  2  0  0  0
 12101  1  0  0  0
 13 14  1  0  0  0
 13 31  1  0  0  0
 14 15  2  0  0  0
 14102  1  0  0  0
 15103  1  0  0  0
 16 17  2  0  0  0
 16 21  1  0  0  0
 16 31  1  0  0  0
 17 18  1  0  0  0
 17104  1  0  0  0
 18 19  2  0  0  0
 18105  1  0  0  0
 19 20  1  0  0  0
 19 24  1  0  0  0
 20 21  2  0  0  0
 20106  1  0  0  0
 21 23  1  0  0  0
 22 28  1  0  0  0
 22 32  2  0  0  0
 26 27  1  0  0  0
 28107  1  0  0  0
 28108  1  0  0  0
 29109  1  0  0  0
 29110  1  0  0  0
 33 34  1  0  0  0
 33 66  1  0  0  0
 33 70  2  0  0  0
 34 36  1  0  0  0
 34 59  1  0  0  0
 34111  1  0  0  0
 35 44  2  0  0  0
 35 45  1  0  0  0
 35 68  1  0  0  0
 36 56  1  0  0  0
 36112  1  0  0  0
 37 39  1  0  0  0
 37 47  1  0  0  0
 37 66  1  0  0  0
 37113  1  0  0  0
 38 43  2  0  0  0
 38 46  1  0  0  0
 38 47  1  0  0  0
 39 64  1  0  0  0
 39 67  2  0  0  0
 40 52  1  0  0  0
 40 53  2  0  0  0
 40 58  1  0  0  0
 41114  1  0  0  0
 41115  1  0  0  0
 41116  1  0  0  0
 41 48  1  0  0  0
 42 43  1  0  0  0
 42 66  1  0  0  0
 42117  1  0  0  0
 42118  1  0  0  0
 43 44  1  0  0  0
 44119  1  0  0  0
 45 46  2  0  0  0
 45120  1  0  0  0
 46121  1  0  0  0
 47122  1  0  0  0
 47123  1  0  0  0
 48 56  1  0  0  0
 48 65  1  0  0  0
 48124  1  0  0  0
 49 50  1  0  0  0
 49 53  1  0  0  0
 49 64  1  0  0  0
 49125  1  0  0  0
 50 51  1  0  0  0
 50126  1  0  0  0
 50127  1  0  0  0
 51 52  1  0  0  0
 51128  1  0  0  0
 51129  1  0  0  0
 52130  1  0  0  0
 52131  1  0  0  0
 53 54  1  0  0  0
 54 55  2  0  0  0
 54132  1  0  0  0
 55 57  1  0  0  0
 55133  1  0  0  0
 56 69  2  0  0  0
 57 58  2  0  0  0
 57134  1  0  0  0
 58135  1  0  0  0
 59 60  1  0  0  0
 59 61  1  0  0  0
 59 62  1  0  0  0
 60136  1  0  0  0
 60137  1  0  0  0
 60138  1  0  0  0
 61139  1  0  0  0
 61140  1  0  0  0
 61141  1  0  0  0
 62142  1  0  0  0
 62143  1  0  0  0
 62144  1  0  0  0
 63 65  1  0  0  0
 63145  1  0  0  0
 63146  1  0  0  0
 63147  1  0  0  0
 64148  1  0  0  0
 65149  1  0  0  0
 68 86  1  0  0  0
 71 72  2  0  0  0
 71 76  1  0  0  0
 71150  1  0  0  0
 72 73  1  0  0  0
 72 78  1  0  0  0
 73 74  2  0  0  0
 73 83  1  0  0  0
 74 75  1  0  0  0
 74 84  1  0  0  0
 75 76  2  0  0  0
 75 80  1  0  0  0
 76 90  1  0  0  0
 77 78  1  0  0  0
 77151  1  0  0  0
 77152  1  0  0  0
 77 79  1  0  0  0
 78 79  1  0  0  0
 78153  1  0  0  0
 79 87  1  0  0  0
 79154  1  0  0  0
 80155  1  0  0  0
 80156  1  0  0  0
 80157  1  0  0  0
 81 85  1  0  0  0
 81158  1  0  0  0
 81159  1  0  0  0
 81160  1  0  0  0
 82 90  1  0  0  0
 82161  1  0  0  0
 82162  1  0  0  0
 82163  1  0  0  0
 83 88  1  0  0  0
 83164  1  0  0  0
 83165  1  0  0  0
 84 89  1  0  0  0
 84166  1  0  0  0
 84167  1  0  0  0
 85168  1  0  0  0
 85169  1  0  0  0
 85 87  1  0  0  0
 86 87  1  0  0  0
 86170  1  0  0  0
 86171  1  0  0  0
 87172  1  0  0  0
 88173  1  0  0  0
 89174  1  0  0  0
 89175  1  0  0  0
 89176  1  0  0  0
M  CHG  1  89   1
M  ISO  4   1 100  68 101  86 101  88 100
M  END
> <chiral flag>
0

> <version>
0

> <s_m_source_file>
/data/baiqing/PycharmProjects/Reinvent-master-3.2/result/LINK_invent/BTK/process_docking_weight1_custom_sum_contain_oxygen_bond_distance_aromatic_linkinvent_7_9_3/rearranged_h_0171.sdf

> <i_m_source_file_index>
4

> <r_mmod_Potential_Energy-OPLS-2005>
16.7939701080322

> <r_mmod_Stretch_Energy-OPLS-2005>
149.770248413086

> <r_mmod_Bend_Energy-OPLS-2005>
187.113403320312

> <r_mmod_Torsional_Energy-OPLS-2005>
350.56103515625

> <r_mmod_Improper_Torsional_Energy-OPLS-2005>
6.98876571655273

> <r_mmod_Van_der_Waal_Energy-OPLS-2005>
142.730453491211

> <r_mmod_Electrostatic_Energy-OPLS-2005>
-435.733917236328

> <r_mmod_Solvation_Energy-OPLS-2005>
-477.802764892578

> <b_mmod_Minimization_Converged-OPLS-2005>
0

> <r_mmod_RMS_Derivative-OPLS-2005>
4.07611846923828

$$$$
4
                    3D
 Structure written by MMmdl.
201211  0  0  1  0            999 V2000
  -30.7785  -14.3458   20.7097 C   0  0  0  0  0  0
  -30.4189  -12.2943   19.3825 C   0  0  0  0  0  0
  -29.4808  -12.5371   18.1875 C   0  0  0  0  0  0
  -28.0064  -12.3883   18.6116 C   0  0  0  0  0  0
  -27.6702  -13.2012   19.8914 C   0  0  2  0  0  0
  -28.7132  -12.9238   20.9981 C   0  0  0  0  0  0
  -25.2622  -13.8158   20.5703 C   0  0  0  0  0  0
  -24.1850  -13.0431   20.9169 C   0  0  0  0  0  0
  -24.6401  -11.6905   20.8732 C   0  0  0  0  0  0
  -23.9062  -10.4291   21.0391 C   0  0  0  0  0  0
  -24.3607   -9.4210   21.9174 C   0  0  0  0  0  0
  -23.6286   -8.2247   22.0752 C   0  0  0  0  0  0
  -22.4269   -8.0282   21.3545 C   0  0  0  0  0  0
  -21.9895   -9.0252   20.4647 C   0  0  0  0  0  0
  -22.7227  -10.2132   20.3050 C   0  0  0  0  0  0
  -21.6844   -6.0738   22.5282 C   0  0  0  0  0  0
  -21.4013   -6.5636   23.8217 C   0  0  0  0  0  0
  -21.3665   -5.6795   24.9172 C   0  0  0  0  0  0
  -21.6043   -4.3058   24.7228 C   0  0  0  0  0  0
  -21.8820   -3.8145   23.4344 C   0  0  0  0  0  0
  -21.9196   -4.6965   22.3400 C   0  0  0  0  0  0
  -22.7877  -13.5241   21.1832 C   0  0  0  0  0  0
  -22.1661   -4.2147   21.0983 F   0  0  0  0  0  0
  -21.5637   -3.4544   25.7740 F   0  0  0  0  0  0
  -30.0463  -13.2297   20.4530 N   0  0  0  0  0  0
  -26.3072  -12.9314   20.3454 N   0  0  0  0  0  0
  -25.9329  -11.6472   20.5787 N   0  0  0  0  0  0
  -22.0511  -12.8236   22.0389 N   0  0  0  0  0  0
  -25.4321  -15.1872   20.4104 N   0  0  0  0  0  0
  -31.7850  -14.6388   20.0574 O   0  0  0  0  0  0
  -21.6636   -6.8875   21.4240 O   0  0  0  0  0  0
  -22.3566  -14.5546   20.6688 O   0  0  0  0  0  0
  -24.6102  -31.8705   23.2108 C   0  0  0  0  0  0
  -25.9029  -32.4843   23.8385 C   0  0  1  0  0  0
  -27.2490  -27.4839   20.0823 C   0  0  0  0  0  0
  -25.5887  -33.8640   24.2302 N   0  0  0  0  0  0
  -23.3983  -30.4922   21.5488 C   0  0  2  0  0  0
  -24.8505  -28.9649   20.1104 C   0  0  0  0  0  0
  -22.7391  -29.4660   22.5007 C   0  0  0  0  0  0
  -18.0260  -28.1397   22.8493 C   0  0  0  0  0  0
  -24.1505  -36.7329   23.2628 C   0  0  0  0  0  0
  -25.9215  -30.8513   21.3552 C   0  0  0  0  0  0
  -26.0055  -29.4875   20.7068 C   0  0  0  0  0  0
  -27.2069  -28.7515   20.6971 C   0  0  0  0  0  0
  -26.0816  -26.9649   19.4859 C   0  0  0  0  0  0
  -24.8807  -27.7001   19.4987 C   0  0  0  0  0  0
  -23.6081  -29.8225   20.1617 C   0  0  0  0  0  0
  -25.4114  -36.3132   24.0348 C   0  0  1  0  0  0
  -20.5845  -28.3651   23.1358 C   0  0  2  0  0  0
  -20.6773  -26.9405   22.5438 C   0  0  0  0  0  0
  -19.5762  -26.6400   21.5235 C   0  0  0  0  0  0
  -18.1918  -26.7947   22.1615 C   0  0  0  0  0  0
  -19.1509  -28.8836   23.2929 C   0  0  0  0  0  0
  -18.9452  -30.1443   23.8940 C   0  0  0  0  0  0
  -17.6457  -30.6606   24.0563 C   0  0  0  0  0  0
  -25.9058  -34.9496   23.5124 C   0  0  0  0  0  0
  -16.5349  -29.9103   23.6326 C   0  0  0  0  0  0
  -16.7252  -28.6528   23.0334 C   0  0  0  0  0  0
  -26.4479  -31.6570   25.0653 C   0  0  0  0  0  0
  -25.3781  -31.3649   26.1412 C   0  0  0  0  0  0
  -27.0215  -30.3004   24.5930 C   0  0  0  0  0  0
  -27.6080  -32.4234   25.7420 C   0  0  0  0  0  0
  -27.5590  -37.1811   24.8475 C   0  0  0  0  0  0
  -21.4123  -29.3013   22.3752 N   0  0  0  0  0  0
  -26.4294  -37.3805   23.9429 N   0  0  0  0  0  0
  -24.6616  -31.0830   22.0982 N   0  0  0  0  0  0
  -23.4201  -28.8250   23.3054 O   0  0  0  0  0  0
  -28.3937  -26.7304   20.1105 O   0  0  0  0  0  0
  -26.5625  -34.8929   22.4687 O   0  0  0  0  0  0
  -23.5307  -32.1442   23.7526 O   0  0  0  0  0  0
  -26.9578  -22.0605   21.1464 C   0  0  0  0  0  0
  -26.8455  -23.2468   20.1776 C   0  0  0  0  0  0
  -30.5530  -18.9004   26.1896 C   0  0  0  0  0  0
  -31.1690  -17.8221   27.1040 C   0  0  0  0  0  0
  -29.4022  -15.5170   24.9254 C   0  0  0  0  0  0
  -28.5951  -23.6503   22.3717 C   0  0  0  0  0  0
  -29.3604  -16.1300   26.3410 C   0  0  2  0  0  0
  -28.0750  -22.1937   22.2148 C   0  0  1  0  0  0
  -28.2074  -23.8408   19.8062 C   0  0  1  0  0  0
  -29.1581  -18.5590   25.6257 C   0  0  1  0  0  0
  -30.7814  -15.8368   24.3390 C   0  0  1  0  0  0
  -28.8811  -24.4565   21.0596 C   0  0  1  0  0  0
  -28.4647  -17.4001   26.3815 C   0  0  2  0  0  0
  -31.6849  -15.7448   25.5707 C   0  0  2  0  0  0
  -30.8555  -16.3331   26.7584 C   0  0  1  0  0  0
  -29.1205  -22.8481   19.0610 C   0  0  0  0  0  0
  -27.9378  -17.7460   27.7917 C   0  0  0  0  0  0
  -33.0966  -16.3283   25.3721 C   0  0  0  0  0  0
  -31.1691  -15.5120   28.0267 C   0  0  0  0  0  0
  -26.9728  -22.4516   24.5650 C   0  0  0  0  0  0
  -30.3995  -15.2818   21.8637 C   0  0  0  0  0  0
  -28.2703  -19.7893   25.3743 C   0  0  0  0  0  0
  -31.1498  -14.9135   23.1613 C   0  0  0  0  0  0
  -28.4798  -25.9404   21.2986 C   0  0  0  0  0  0
  -28.7687  -20.6776   24.2072 C   0  0  0  0  0  0
  -27.6433  -21.5040   23.5510 C   0  0  2  0  0  0
  -31.4597  -12.3983   19.0718 H   0  0  0  0  0  0
  -30.3236  -11.2681   19.7396 H   0  0  0  0  0  0
  -29.7095  -11.8435   17.3771 H   0  0  0  0  0  0
  -29.6479  -13.5395   17.7872 H   0  0  0  0  0  0
  -27.8139  -11.3286   18.7860 H   0  0  0  0  0  0
  -27.3485  -12.6841   17.7931 H   0  0  0  0  0  0
  -27.7326  -14.2586   19.6321 H   0  0  0  0  0  0
  -28.6821  -11.8704   21.2828 H   0  0  0  0  0  0
  -28.4663  -13.4590   21.9124 H   0  0  0  0  0  0
  -25.2752   -9.5685   22.4748 H   0  0  0  0  0  0
  -23.9996   -7.4634   22.7461 H   0  0  0  0  0  0
  -21.0832   -8.8763   19.8954 H   0  0  0  0  0  0
  -22.3679  -10.9665   19.6159 H   0  0  0  0  0  0
  -21.2002   -7.6145   23.9711 H   0  0  0  0  0  0
  -21.1489   -6.0526   25.9077 H   0  0  0  0  0  0
  -22.0599   -2.7609   23.2845 H   0  0  0  0  0  0
  -22.4104  -11.9893   22.4783 H   0  0  0  0  0  0
  -21.1139  -13.1274   22.2585 H   0  0  0  0  0  0
  -24.6666  -15.8438   20.5196 H   0  0  0  0  0  0
  -26.2958  -15.6306   20.1189 H   0  0  0  0  0  0
  -26.7089  -32.5608   23.1161 H   0  0  0  0  0  0
  -25.0007  -33.9790   25.0424 H   0  0  0  0  0  0
  -22.6836  -31.3061   21.4130 H   0  0  0  0  0  0
  -23.3765  -35.9668   23.3304 H   0  0  0  0  0  0
  -24.3623  -36.8905   22.2047 H   0  0  0  0  0  0
  -23.7244  -37.6534   23.6625 H   0  0  0  0  0  0
  -26.0127  -31.6152   20.5813 H   0  0  0  0  0  0
  -26.8164  -30.9198   21.9599 H   0  0  0  0  0  0
  -28.1000  -29.1417   21.1674 H   0  0  0  0  0  0
  -26.1017  -25.9905   19.0214 H   0  0  0  0  0  0
  -23.9948  -27.2876   19.0341 H   0  0  0  0  0  0
  -23.7060  -30.5991   19.3992 H   0  0  0  0  0  0
  -22.7336  -29.2378   19.8697 H   0  0  0  0  0  0
  -25.1271  -36.1996   25.0841 H   0  0  0  0  0  0
  -20.9961  -28.3226   24.1471 H   0  0  0  0  0  0
  -20.5697  -26.2239   23.3592 H   0  0  0  0  0  0
  -21.6639  -26.7470   22.1204 H   0  0  0  0  0  0
  -19.6928  -25.6310   21.1251 H   0  0  0  0  0  0
  -19.6725  -27.3217   20.6783 H   0  0  0  0  0  0
  -17.4193  -26.6702   21.4008 H   0  0  0  0  0  0
  -18.0310  -26.0062   22.8997 H   0  0  0  0  0  0
  -19.7919  -30.7245   24.2348 H   0  0  0  0  0  0
  -17.5008  -31.6284   24.5157 H   0  0  0  0  0  0
  -15.5348  -30.3027   23.7631 H   0  0  0  0  0  0
  -15.8656  -28.0882   22.7023 H   0  0  0  0  0  0
  -24.6032  -30.6890   25.7781 H   0  0  0  0  0  0
  -24.8896  -32.2775   26.4853 H   0  0  0  0  0  0
  -25.8197  -30.8872   27.0166 H   0  0  0  0  0  0
  -26.2688  -29.6895   24.0919 H   0  0  0  0  0  0
  -27.3927  -29.7101   25.4319 H   0  0  0  0  0  0
  -27.8584  -30.4314   23.9057 H   0  0  0  0  0  0
  -27.2761  -33.3565   26.1988 H   0  0  0  0  0  0
  -28.3923  -32.6720   25.0261 H   0  0  0  0  0  0
  -28.0705  -31.8331   26.5344 H   0  0  0  0  0  0
  -28.2600  -38.0104   24.7510 H   0  0  0  0  0  0
  -28.1071  -36.2635   24.6307 H   0  0  0  0  0  0
  -27.2316  -37.1478   25.8872 H   0  0  0  0  0  0
  -20.9279  -29.8724   21.6952 H   0  0  0  0  0  0
  -26.0196  -38.2882   24.1422 H   0  0  0  0  0  0
  -27.1425  -21.1489   20.5744 H   0  0  0  0  0  0
  -25.9785  -21.9142   21.6045 H   0  0  0  0  0  0
  -26.2439  -24.0262   20.6471 H   0  0  0  0  0  0
  -26.2990  -22.9507   19.2824 H   0  0  0  0  0  0
  -31.2287  -19.1006   25.3597 H   0  0  0  0  0  0
  -30.5047  -19.8287   26.7609 H   0  0  0  0  0  0
  -30.8113  -18.0252   28.1128 H   0  0  0  0  0  0
  -32.2398  -17.9926   27.2001 H   0  0  0  0  0  0
  -28.5913  -15.8595   24.2809 H   0  0  0  0  0  0
  -29.2870  -14.4369   25.0141 H   0  0  0  0  0  0
  -27.8506  -24.1998   22.9393 H   0  0  0  0  0  0
  -29.4863  -23.6531   22.9982 H   0  0  0  0  0  0
  -28.8899  -15.3868   26.9880 H   0  0  0  0  0  0
  -28.9194  -21.6262   21.8237 H   0  0  0  0  0  0
  -28.0173  -24.6295   19.0791 H   0  0  0  0  0  0
  -29.3167  -18.1608   24.6288 H   0  0  0  0  0  0
  -30.8273  -16.8635   23.9792 H   0  0  0  0  0  0
  -29.9558  -24.4518   20.8803 H   0  0  0  0  0  0
  -27.5601  -17.1615   25.8233 H   0  0  0  0  0  0
  -31.8203  -14.6788   25.7552 H   0  0  0  0  0  0
  -29.4694  -22.0361   19.6983 H   0  0  0  0  0  0
  -30.0050  -23.3609   18.6768 H   0  0  0  0  0  0
  -28.6086  -22.3971   18.2091 H   0  0  0  0  0  0
  -28.7179  -18.0084   28.5014 H   0  0  0  0  0  0
  -27.3944  -16.8980   28.2123 H   0  0  0  0  0  0
  -27.2375  -18.5807   27.7610 H   0  0  0  0  0  0
  -33.0677  -17.3806   25.0914 H   0  0  0  0  0  0
  -33.6428  -15.8016   24.5902 H   0  0  0  0  0  0
  -33.6869  -16.2392   26.2854 H   0  0  0  0  0  0
  -30.5459  -15.8195   28.8664 H   0  0  0  0  0  0
  -32.2099  -15.6381   28.3287 H   0  0  0  0  0  0
  -30.9977  -14.4464   27.8788 H   0  0  0  0  0  0
  -26.5351  -21.9009   25.3961 H   0  0  0  0  0  0
  -26.1674  -23.0243   24.1074 H   0  0  0  0  0  0
  -27.6928  -23.1516   24.9947 H   0  0  0  0  0  0
  -30.6896  -16.2911   21.5702 H   0  0  0  0  0  0
  -29.3248  -15.3454   22.0116 H   0  0  0  0  0  0
  -28.1623  -20.3752   26.2855 H   0  0  0  0  0  0
  -27.2676  -19.4330   25.1356 H   0  0  0  0  0  0
  -30.9520  -13.8739   23.4259 H   0  0  0  0  0  0
  -32.2221  -14.9769   22.9671 H   0  0  0  0  0  0
  -29.2046  -26.4087   21.9642 H   0  0  0  0  0  0
  -27.5289  -25.9768   21.8354 H   0  0  0  0  0  0
  -29.5825  -21.3216   24.5389 H   0  0  0  0  0  0
  -29.1928  -20.0342   23.4357 H   0  0  0  0  0  0
  -26.8873  -20.7652   23.2803 H   0  0  0  0  0  0
  1 25  1  0  0  0
  1 30  2  0  0  0
  1 91  1  0  0  0
  2  3  1  0  0  0
  2 25  1  0  0  0
  2 97  1  0  0  0
  2 98  1  0  0  0
  3  4  1  0  0  0
  3 99  1  0  0  0
  3100  1  0  0  0
  4  5  1  0  0  0
  4101  1  0  0  0
  4102  1  0  0  0
  5  6  1  0  0  0
  5 26  1  0  0  0
  5103  1  0  0  0
  6 25  1  0  0  0
  6104  1  0  0  0
  6105  1  0  0  0
  7  8  2  0  0  0
  7 26  1  0  0  0
  7 29  1  0  0  0
  8  9  1  0  0  0
  8 22  1  0  0  0
  9 10  1  0  0  0
  9 27  2  0  0  0
 10 11  2  0  0  0
 10 15  1  0  0  0
 11 12  1  0  0  0
 11106  1  0  0  0
 12 13  2  0  0  0
 12107  1  0  0  0
 13 14  1  0  0  0
 13 31  1  0  0  0
 14 15  2  0  0  0
 14108  1  0  0  0
 15109  1  0  0  0
 16 17  2  0  0  0
 16 21  1  0  0  0
 16 31  1  0  0  0
 17 18  1  0  0  0
 17110  1  0  0  0
 18 19  2  0  0  0
 18111  1  0  0  0
 19 20  1  0  0  0
 19 24  1  0  0  0
 20 21  2  0  0  0
 20112  1  0  0  0
 21 23  1  0  0  0
 22 28  1  0  0  0
 22 32  2  0  0  0
 26 27  1  0  0  0
 28113  1  0  0  0
 28114  1  0  0  0
 29115  1  0  0  0
 29116  1  0  0  0
 33 34  1  0  0  0
 33 66  1  0  0  0
 33 70  2  0  0  0
 34 36  1  0  0  0
 34 59  1  0  0  0
 34117  1  0  0  0
 35 44  2  0  0  0
 35 45  1  0  0  0
 35 68  1  0  0  0
 36 56  1  0  0  0
 36118  1  0  0  0
 37 39  1  0  0  0
 37 47  1  0  0  0
 37 66  1  0  0  0
 37119  1  0  0  0
 38 43  2  0  0  0
 38 46  1  0  0  0
 38 47  1  0  0  0
 39 64  1  0  0  0
 39 67  2  0  0  0
 40 52  1  0  0  0
 40 53  2  0  0  0
 40 58  1  0  0  0
 41120  1  0  0  0
 41121  1  0  0  0
 41122  1  0  0  0
 41 48  1  0  0  0
 42 43  1  0  0  0
 42 66  1  0  0  0
 42123  1  0  0  0
 42124  1  0  0  0
 43 44  1  0  0  0
 44125  1  0  0  0
 45 46  2  0  0  0
 45126  1  0  0  0
 46127  1  0  0  0
 47128  1  0  0  0
 47129  1  0  0  0
 48 56  1  0  0  0
 48 65  1  0  0  0
 48130  1  0  0  0
 49 50  1  0  0  0
 49 53  1  0  0  0
 49 64  1  0  0  0
 49131  1  0  0  0
 50 51  1  0  0  0
 50132  1  0  0  0
 50133  1  0  0  0
 51 52  1  0  0  0
 51134  1  0  0  0
 51135  1  0  0  0
 52136  1  0  0  0
 52137  1  0  0  0
 53 54  1  0  0  0
 54 55  2  0  0  0
 54138  1  0  0  0
 55 57  1  0  0  0
 55139  1  0  0  0
 56 69  2  0  0  0
 57 58  2  0  0  0
 57140  1  0  0  0
 58141  1  0  0  0
 59 60  1  0  0  0
 59 61  1  0  0  0
 59 62  1  0  0  0
 60142  1  0  0  0
 60143  1  0  0  0
 60144  1  0  0  0
 61145  1  0  0  0
 61146  1  0  0  0
 61147  1  0  0  0
 62148  1  0  0  0
 62149  1  0  0  0
 62150  1  0  0  0
 63 65  1  0  0  0
 63151  1  0  0  0
 63152  1  0  0  0
 63153  1  0  0  0
 64154  1  0  0  0
 65155  1  0  0  0
 68 94  1  0  0  0
 71 72  1  0  0  0
 71156  1  0  0  0
 71157  1  0  0  0
 71 78  1  0  0  0
 72 79  1  0  0  0
 72158  1  0  0  0
 72159  1  0  0  0
 73 74  1  0  0  0
 73 80  1  0  0  0
 73160  1  0  0  0
 73161  1  0  0  0
 74 85  1  0  0  0
 74162  1  0  0  0
 74163  1  0  0  0
 75 81  1  0  0  0
 75164  1  0  0  0
 75165  1  0  0  0
 75 77  1  0  0  0
 76 78  1  0  0  0
 76 82  1  0  0  0
 76166  1  0  0  0
 76167  1  0  0  0
 77 83  1  0  0  0
 77 85  1  0  0  0
 77168  1  0  0  0
 78 96  1  0  0  0
 78169  1  0  0  0
 79 82  1  0  0  0
 79 86  1  0  0  0
 79170  1  0  0  0
 80 83  1  0  0  0
 80 92  1  0  0  0
 80171  1  0  0  0
 81 84  1  0  0  0
 81 93  1  0  0  0
 81172  1  0  0  0
 82 94  1  0  0  0
 82173  1  0  0  0
 83 87  1  0  0  0
 83174  1  0  0  0
 84 85  1  0  0  0
 84 88  1  0  0  0
 84175  1  0  0  0
 85 89  1  0  0  0
 86176  1  0  0  0
 86177  1  0  0  0
 86178  1  0  0  0
 87179  1  0  0  0
 87180  1  0  0  0
 87181  1  0  0  0
 88182  1  0  0  0
 88183  1  0  0  0
 88184  1  0  0  0
 89185  1  0  0  0
 89186  1  0  0  0
 89187  1  0  0  0
 90188  1  0  0  0
 90189  1  0  0  0
 90190  1  0  0  0
 90 96  1  0  0  0
 91 93  1  0  0  0
 91191  1  0  0  0
 91192  1  0  0  0
 92 95  1  0  0  0
 92193  1  0  0  0
 92194  1  0  0  0
 93195  1  0  0  0
 93196  1  0  0  0
 94197  1  0  0  0
 94198  1  0  0  0
 95 96  1  0  0  0
 95199  1  0  0  0
 95200  1  0  0  0
 96201  1  0  0  0
M  ISO  4   1 100  68 101  91 100  94 101
M  END
> <chiral flag>
0

> <version>
0

> <s_m_source_file>
/data/baiqing/PycharmProjects/Reinvent-master-3.2/result/LINK_invent/BTK/process_docking_weight1_custom_sum_contain_oxygen_bond_distance_aromatic_linkinvent_7_9_3/rearranged_h_0171.sdf

> <i_m_source_file_index>
5

> <r_mmod_Potential_Energy-OPLS-2005>
259.582305908203

> <r_mmod_Stretch_Energy-OPLS-2005>
42.6971168518066

> <r_mmod_Bend_Energy-OPLS-2005>
157.94123840332

> <r_mmod_Torsional_Energy-OPLS-2005>
418.790954589844

> <r_mmod_Improper_Torsional_Energy-OPLS-2005>
1.5797256231308

> <r_mmod_Van_der_Waal_Energy-OPLS-2005>
158.455322265625

> <r_mmod_Electrostatic_Energy-OPLS-2005>
-375.383483886719

> <r_mmod_Solvation_Energy-OPLS-2005>
-151.790939331055

> <b_mmod_Minimization_Converged-OPLS-2005>
0

> <r_mmod_RMS_Derivative-OPLS-2005>
4.01781034469604

$$$$
5
                    3D
 Structure written by MMmdl.
179188  0  0  1  0            999 V2000
  -30.7034  -14.5134   20.5071 C   0  0  0  0  0  0
  -30.4238  -12.3129   19.4419 C   0  0  0  0  0  0
  -29.5053  -12.4917   18.2183 C   0  0  0  0  0  0
  -28.0267  -12.3448   18.6276 C   0  0  0  0  0  0
  -27.6584  -13.2035   19.8660 C   0  0  2  0  0  0
  -28.7036  -13.0550   20.9952 C   0  0  0  0  0  0
  -25.2612  -13.8134   20.5672 C   0  0  0  0  0  0
  -24.1853  -13.0432   20.9171 C   0  0  0  0  0  0
  -24.6396  -11.6886   20.8737 C   0  0  0  0  0  0
  -23.9058  -10.4279   21.0430 C   0  0  0  0  0  0
  -24.3596   -9.4189   21.9217 C   0  0  0  0  0  0
  -23.6277   -8.2218   22.0771 C   0  0  0  0  0  0
  -22.4261   -8.0263   21.3548 C   0  0  0  0  0  0
  -21.9897   -9.0247   20.4670 C   0  0  0  0  0  0
  -22.7229  -10.2119   20.3083 C   0  0  0  0  0  0
  -21.6853   -6.0722   22.5260 C   0  0  0  0  0  0
  -21.4009   -6.5627   23.8188 C   0  0  0  0  0  0
  -21.3658   -5.6785   24.9146 C   0  0  0  0  0  0
  -21.6044   -4.3047   24.7204 C   0  0  0  0  0  0
  -21.8837   -3.8139   23.4331 C   0  0  0  0  0  0
  -21.9208   -4.6951   22.3387 C   0  0  0  0  0  0
  -22.7888  -13.5265   21.1835 C   0  0  0  0  0  0
  -22.1697   -4.2143   21.0970 F   0  0  0  0  0  0
  -21.5609   -3.4534   25.7721 F   0  0  0  0  0  0
  -30.0288  -13.3326   20.4228 N   0  0  0  0  0  0
  -26.3023  -12.9284   20.3335 N   0  0  0  0  0  0
  -25.9323  -11.6456   20.5767 N   0  0  0  0  0  0
  -22.0507  -12.8272   22.0384 N   0  0  0  0  0  0
  -25.4405  -15.1848   20.4093 N   0  0  0  0  0  0
  -31.8803  -14.6324   20.1536 O   0  0  0  0  0  0
  -21.6636   -6.8858   21.4221 O   0  0  0  0  0  0
  -22.3593  -14.5580   20.6699 O   0  0  0  0  0  0
  -24.6168  -31.8651   23.2078 C   0  0  0  0  0  0
  -25.9058  -32.4800   23.8375 C   0  0  1  0  0  0
  -27.2421  -27.4230   20.0780 C   0  0  0  0  0  0
  -25.5907  -33.8601   24.2309 N   0  0  0  0  0  0
  -23.4047  -30.4860   21.5505 C   0  0  2  0  0  0
  -24.8493  -28.9481   20.1118 C   0  0  0  0  0  0
  -22.7426  -29.4632   22.5013 C   0  0  0  0  0  0
  -18.0268  -28.1385   22.8489 C   0  0  0  0  0  0
  -24.1481  -36.7300   23.2639 C   0  0  0  0  0  0
  -25.9340  -30.8230   21.3635 C   0  0  0  0  0  0
  -26.0083  -29.4564   20.7095 C   0  0  0  0  0  0
  -27.2011  -28.6967   20.6953 C   0  0  0  0  0  0
  -26.0557  -26.9223   19.4927 C   0  0  0  0  0  0
  -24.8677  -27.6804   19.5041 C   0  0  0  0  0  0
  -23.6111  -29.8152   20.1651 C   0  0  0  0  0  0
  -25.4100  -36.3095   24.0340 C   0  0  1  0  0  0
  -20.5860  -28.3653   23.1338 C   0  0  2  0  0  0
  -20.6757  -26.9394   22.5421 C   0  0  0  0  0  0
  -19.5735  -26.6385   21.5218 C   0  0  0  0  0  0
  -18.1917  -26.7931   22.1628 C   0  0  0  0  0  0
  -19.1521  -28.8837   23.2903 C   0  0  0  0  0  0
  -18.9447  -30.1451   23.8902 C   0  0  0  0  0  0
  -17.6452  -30.6587   24.0560 C   0  0  0  0  0  0
  -25.9033  -34.9466   23.5123 C   0  0  0  0  0  0
  -16.5338  -29.9083   23.6337 C   0  0  0  0  0  0
  -16.7261  -28.6507   23.0340 C   0  0  0  0  0  0
  -26.4476  -31.6588   25.0713 C   0  0  0  0  0  0
  -25.3745  -31.3713   26.1472 C   0  0  0  0  0  0
  -27.0295  -30.3025   24.6095 C   0  0  0  0  0  0
  -27.6052  -32.4309   25.7469 C   0  0  0  0  0  0
  -27.5582  -37.1795   24.8465 C   0  0  0  0  0  0
  -21.4152  -29.3015   22.3753 N   0  0  0  0  0  0
  -26.4284  -37.3789   23.9425 N   0  0  0  0  0  0
  -24.6703  -31.0737   22.0985 N   0  0  0  0  0  0
  -23.4193  -28.8192   23.3069 O   0  0  0  0  0  0
  -28.4281  -26.7111   20.1246 O   0  0  0  0  0  0
  -26.5593  -34.8928   22.4683 O   0  0  0  0  0  0
  -23.5359  -32.1417   23.7456 O   0  0  0  0  0  0
  -29.1217  -21.8466   19.5829 C   0  0  0  0  0  0
  -28.6765  -23.1116   19.1445 C   0  0  0  0  0  0
  -30.1530  -24.1831   20.7791 C   0  0  0  0  0  0
  -29.1738  -24.3047   19.7402 C   0  0  0  0  0  0
  -30.5984  -22.8879   21.2313 C   0  0  0  0  0  0
  -30.0797  -21.7099   20.6021 C   0  0  0  0  0  0
  -29.3871  -17.7679   21.9389 C   0  0  0  0  0  0
  -29.9623  -17.8389   19.4740 C   0  0  0  0  0  0
  -30.2464  -16.4764   21.8893 C   0  0  0  0  0  0
  -29.4698  -16.3724   19.5313 C   0  0  0  0  0  0
  -29.5222  -18.6792   20.6915 C   0  0  0  0  0  0
  -27.6929  -23.1456   17.9818 C   0  0  0  0  0  0
  -30.0684  -25.8802   22.6943 C   0  0  0  0  0  0
  -33.6526  -23.0228   20.7743 C   0  0  0  0  0  0
  -31.0791  -22.0637   23.6357 C   0  0  0  0  0  0
  -30.7512  -25.4653   21.3790 C   0  0  0  0  0  0
  -28.7436  -25.6858   19.1637 C   0  0  0  0  0  0
  -33.0380  -22.2756   21.9681 C   0  0  0  0  0  0
  -31.6322  -22.7750   22.3859 C   0  0  1  0  0  0
  -29.9460  -15.6216   20.7212 N   0  0  0  0  0  0
  -30.6927  -20.0623   20.9981 S   0  0  0  0  0  0
  -31.4726  -12.3947   19.1470 H   0  0  0  0  0  0
  -30.3127  -11.3160   19.8709 H   0  0  0  0  0  0
  -29.7576  -11.7639   17.4470 H   0  0  0  0  0  0
  -29.6697  -13.4764   17.7787 H   0  0  0  0  0  0
  -27.8441  -11.2913   18.8392 H   0  0  0  0  0  0
  -27.3789  -12.6020   17.7893 H   0  0  0  0  0  0
  -27.6770  -14.2367   19.5280 H   0  0  0  0  0  0
  -28.6828  -12.0480   21.4158 H   0  0  0  0  0  0
  -28.4742  -13.7317   21.8196 H   0  0  0  0  0  0
  -25.2736   -9.5640   22.4803 H   0  0  0  0  0  0
  -23.9983   -7.4604   22.7490 H   0  0  0  0  0  0
  -21.0820   -8.8765   19.9000 H   0  0  0  0  0  0
  -22.3703  -10.9647   19.6180 H   0  0  0  0  0  0
  -21.2006   -7.6136   23.9674 H   0  0  0  0  0  0
  -21.1474   -6.0517   25.9043 H   0  0  0  0  0  0
  -22.0640   -2.7609   23.2822 H   0  0  0  0  0  0
  -22.4085  -11.9898   22.4744 H   0  0  0  0  0  0
  -21.1151  -13.1354   22.2616 H   0  0  0  0  0  0
  -24.6854  -15.8523   20.5192 H   0  0  0  0  0  0
  -26.3111  -15.6149   20.1236 H   0  0  0  0  0  0
  -26.7122  -32.5498   23.1129 H   0  0  0  0  0  0
  -25.0074  -33.9746   25.0466 H   0  0  0  0  0  0
  -22.6939  -31.3022   21.4103 H   0  0  0  0  0  0
  -23.3745  -35.9630   23.3293 H   0  0  0  0  0  0
  -24.3581  -36.8919   22.2057 H   0  0  0  0  0  0
  -23.7227  -37.6501   23.6651 H   0  0  0  0  0  0
  -26.0507  -31.5877   20.5945 H   0  0  0  0  0  0
  -26.8214  -30.8739   21.9826 H   0  0  0  0  0  0
  -28.0971  -29.0831   21.1607 H   0  0  0  0  0  0
  -26.0175  -25.9383   19.0490 H   0  0  0  0  0  0
  -23.9719  -27.2780   19.0507 H   0  0  0  0  0  0
  -23.7186  -30.5877   19.4024 H   0  0  0  0  0  0
  -22.7345  -29.2334   19.8729 H   0  0  0  0  0  0
  -25.1272  -36.1954   25.0829 H   0  0  0  0  0  0
  -20.9933  -28.3209   24.1468 H   0  0  0  0  0  0
  -20.5679  -26.2256   23.3599 H   0  0  0  0  0  0
  -21.6631  -26.7458   22.1211 H   0  0  0  0  0  0
  -19.6898  -25.6303   21.1236 H   0  0  0  0  0  0
  -19.6681  -27.3207   20.6757 H   0  0  0  0  0  0
  -17.4191  -26.6681   21.4026 H   0  0  0  0  0  0
  -18.0312  -26.0078   22.9027 H   0  0  0  0  0  0
  -19.7919  -30.7268   24.2272 H   0  0  0  0  0  0
  -17.5000  -31.6267   24.5162 H   0  0  0  0  0  0
  -15.5338  -30.2975   23.7666 H   0  0  0  0  0  0
  -15.8661  -28.0832   22.7041 H   0  0  0  0  0  0
  -24.5889  -30.7089   25.7823 H   0  0  0  0  0  0
  -24.8969  -32.2874   26.4953 H   0  0  0  0  0  0
  -25.8102  -30.8857   27.0211 H   0  0  0  0  0  0
  -26.2829  -29.6794   24.1157 H   0  0  0  0  0  0
  -27.4067  -29.7261   25.4551 H   0  0  0  0  0  0
  -27.8667  -30.4334   23.9237 H   0  0  0  0  0  0
  -27.2681  -33.3612   26.2052 H   0  0  0  0  0  0
  -28.3854  -32.6865   25.0287 H   0  0  0  0  0  0
  -28.0725  -31.8430   26.5377 H   0  0  0  0  0  0
  -28.2591  -38.0103   24.7529 H   0  0  0  0  0  0
  -28.1082  -36.2636   24.6251 H   0  0  0  0  0  0
  -27.2310  -37.1410   25.8871 H   0  0  0  0  0  0
  -20.9334  -29.8716   21.6945 H   0  0  0  0  0  0
  -26.0169  -38.2862   24.1430 H   0  0  0  0  0  0
  -28.7465  -20.9588   19.0963 H   0  0  0  0  0  0
  -29.6080  -18.3319   22.8464 H   0  0  0  0  0  0
  -28.3430  -17.4668   22.0364 H   0  0  0  0  0  0
  -29.6144  -18.3126   18.5546 H   0  0  0  0  0  0
  -31.0515  -17.8324   19.4084 H   0  0  0  0  0  0
  -30.0800  -15.8963   22.7992 H   0  0  0  0  0  0
  -31.3042  -16.7462   21.8871 H   0  0  0  0  0  0
  -29.7650  -15.8674   18.6083 H   0  0  0  0  0  0
  -28.3798  -16.3687   19.5336 H   0  0  0  0  0  0
  -28.5391  -19.1086   20.4958 H   0  0  0  0  0  0
  -27.4515  -22.1418   17.6300 H   0  0  0  0  0  0
  -28.1174  -23.6865   17.1343 H   0  0  0  0  0  0
  -26.7571  -23.6259   18.2699 H   0  0  0  0  0  0
  -30.5140  -26.7934   23.0895 H   0  0  0  0  0  0
  -30.1543  -25.1144   23.4648 H   0  0  0  0  0  0
  -29.0047  -26.0673   22.5466 H   0  0  0  0  0  0
  -34.6512  -22.6431   20.5554 H   0  0  0  0  0  0
  -33.7483  -24.0890   20.9772 H   0  0  0  0  0  0
  -33.0528  -22.9023   19.8717 H   0  0  0  0  0  0
  -30.1373  -22.5152   23.9485 H   0  0  0  0  0  0
  -31.7734  -22.1486   24.4716 H   0  0  0  0  0  0
  -30.9013  -21.0019   23.4908 H   0  0  0  0  0  0
  -30.7087  -26.2936   20.6763 H   0  0  0  0  0  0
  -31.8263  -25.3673   21.5124 H   0  0  0  0  0  0
  -27.9896  -25.6075   18.3875 H   0  0  0  0  0  0
  -29.6118  -26.0582   18.6192 H   0  0  0  0  0  0
  -33.7100  -22.3721   22.8217 H   0  0  0  0  0  0
  -33.0268  -21.2122   21.7388 H   0  0  0  0  0  0
  -31.8362  -23.7574   22.7898 H   0  0  0  0  0  0
  1 25  1  0  0  0
  1 30  2  0  0  0
  1 90  1  0  0  0
  2  3  1  0  0  0
  2 25  1  0  0  0
  2 92  1  0  0  0
  2 93  1  0  0  0
  3  4  1  0  0  0
  3 94  1  0  0  0
  3 95  1  0  0  0
  4  5  1  0  0  0
  4 96  1  0  0  0
  4 97  1  0  0  0
  5  6  1  0  0  0
  5 26  1  0  0  0
  5 98  1  0  0  0
  6 25  1  0  0  0
  6 99  1  0  0  0
  6100  1  0  0  0
  7  8  2  0  0  0
  7 26  1  0  0  0
  7 29  1  0  0  0
  8  9  1  0  0  0
  8 22  1  0  0  0
  9 10  1  0  0  0
  9 27  2  0  0  0
 10 11  2  0  0  0
 10 15  1  0  0  0
 11 12  1  0  0  0
 11101  1  0  0  0
 12 13  2  0  0  0
 12102  1  0  0  0
 13 14  1  0  0  0
 13 31  1  0  0  0
 14 15  2  0  0  0
 14103  1  0  0  0
 15104  1  0  0  0
 16 17  2  0  0  0
 16 21  1  0  0  0
 16 31  1  0  0  0
 17 18  1  0  0  0
 17105  1  0  0  0
 18 19  2  0  0  0
 18106  1  0  0  0
 19 20  1  0  0  0
 19 24  1  0  0  0
 20 21  2  0  0  0
 20107  1  0  0  0
 21 23  1  0  0  0
 22 28  1  0  0  0
 22 32  2  0  0  0
 26 27  1  0  0  0
 28108  1  0  0  0
 28109  1  0  0  0
 29110  1  0  0  0
 29111  1  0  0  0
 33 34  1  0  0  0
 33 66  1  0  0  0
 33 70  2  0  0  0
 34 36  1  0  0  0
 34 59  1  0  0  0
 34112  1  0  0  0
 35 44  2  0  0  0
 35 45  1  0  0  0
 35 68  1  0  0  0
 36 56  1  0  0  0
 36113  1  0  0  0
 37 39  1  0  0  0
 37 47  1  0  0  0
 37 66  1  0  0  0
 37114  1  0  0  0
 38 43  2  0  0  0
 38 46  1  0  0  0
 38 47  1  0  0  0
 39 64  1  0  0  0
 39 67  2  0  0  0
 40 52  1  0  0  0
 40 53  2  0  0  0
 40 58  1  0  0  0
 41115  1  0  0  0
 41116  1  0  0  0
 41117  1  0  0  0
 41 48  1  0  0  0
 42 43  1  0  0  0
 42 66  1  0  0  0
 42118  1  0  0  0
 42119  1  0  0  0
 43 44  1  0  0  0
 44120  1  0  0  0
 45 46  2  0  0  0
 45121  1  0  0  0
 46122  1  0  0  0
 47123  1  0  0  0
 47124  1  0  0  0
 48 56  1  0  0  0
 48 65  1  0  0  0
 48125  1  0  0  0
 49 50  1  0  0  0
 49 53  1  0  0  0
 49 64  1  0  0  0
 49126  1  0  0  0
 50 51  1  0  0  0
 50127  1  0  0  0
 50128  1  0  0  0
 51 52  1  0  0  0
 51129  1  0  0  0
 51130  1  0  0  0
 52131  1  0  0  0
 52132  1  0  0  0
 53 54  1  0  0  0
 54 55  2  0  0  0
 54133  1  0  0  0
 55 57  1  0  0  0
 55134  1  0  0  0
 56 69  2  0  0  0
 57 58  2  0  0  0
 57135  1  0  0  0
 58136  1  0  0  0
 59 60  1  0  0  0
 59 61  1  0  0  0
 59 62  1  0  0  0
 60137  1  0  0  0
 60138  1  0  0  0
 60139  1  0  0  0
 61140  1  0  0  0
 61141  1  0  0  0
 61142  1  0  0  0
 62143  1  0  0  0
 62144  1  0  0  0
 62145  1  0  0  0
 63 65  1  0  0  0
 63146  1  0  0  0
 63147  1  0  0  0
 63148  1  0  0  0
 64149  1  0  0  0
 65150  1  0  0  0
 68 87  1  0  0  0
 71 72  2  0  0  0
 71 76  1  0  0  0
 71151  1  0  0  0
 72 74  1  0  0  0
 72 82  1  0  0  0
 73 74  2  0  0  0
 73 75  1  0  0  0
 73 86  1  0  0  0
 74 87  1  0  0  0
 75 76  2  0  0  0
 75 89  1  0  0  0
 76 91  1  0  0  0
 77 79  1  0  0  0
 77 81  1  0  0  0
 77152  1  0  0  0
 77153  1  0  0  0
 78 80  1  0  0  0
 78 81  1  0  0  0
 78154  1  0  0  0
 78155  1  0  0  0
 79 90  1  0  0  0
 79156  1  0  0  0
 79157  1  0  0  0
 80 90  1  0  0  0
 80158  1  0  0  0
 80159  1  0  0  0
 81 91  1  0  0  0
 81160  1  0  0  0
 82161  1  0  0  0
 82162  1  0  0  0
 82163  1  0  0  0
 83 86  1  0  0  0
 83164  1  0  0  0
 83165  1  0  0  0
 83166  1  0  0  0
 84 88  1  0  0  0
 84167  1  0  0  0
 84168  1  0  0  0
 84169  1  0  0  0
 85170  1  0  0  0
 85171  1  0  0  0
 85172  1  0  0  0
 85 89  1  0  0  0
 86173  1  0  0  0
 86174  1  0  0  0
 87175  1  0  0  0
 87176  1  0  0  0
 88 89  1  0  0  0
 88177  1  0  0  0
 88178  1  0  0  0
 89179  1  0  0  0
M  ISO  4   1 100  68 101  87 101  90 100
M  END
> <chiral flag>
0

> <version>
0

> <s_m_source_file>
/data/baiqing/PycharmProjects/Reinvent-master-3.2/result/LINK_invent/BTK/process_docking_weight1_custom_sum_contain_oxygen_bond_distance_aromatic_linkinvent_7_9_3/rearranged_h_0171.sdf

> <i_m_source_file_index>
6

> <r_mmod_Potential_Energy-OPLS-2005>
301.396575927734

> <r_mmod_Stretch_Energy-OPLS-2005>
56.649585723877

> <r_mmod_Bend_Energy-OPLS-2005>
132.960952758789

> <r_mmod_Torsional_Energy-OPLS-2005>
366.835510253906

> <r_mmod_Improper_Torsional_Energy-OPLS-2005>
10.0853862762451

> <r_mmod_Van_der_Waal_Energy-OPLS-2005>
167.827651977539

> <r_mmod_Electrostatic_Energy-OPLS-2005>
-269.358551025391

> <r_mmod_Solvation_Energy-OPLS-2005>
-184.509338378906

> <b_mmod_Minimization_Converged-OPLS-2005>
0

> <r_mmod_RMS_Derivative-OPLS-2005>
2.26597023010254

$$$$
6
                    3D
 Structure written by MMmdl.
165174  0  0  1  0            999 V2000
  -29.5392  -17.0298   20.3269 C   0  0  0  0  0  0
  -30.3160  -14.1585   19.4549 C   0  0  0  0  0  0
  -29.5953  -13.1426   18.4178 C   0  0  0  0  0  0
  -28.2929  -12.4745   18.8996 C   0  0  0  0  0  0
  -27.6100  -13.4537   19.8492 C   0  0  2  0  0  0
  -28.6408  -14.0986   20.8692 C   0  0  0  0  0  0
  -25.2029  -13.7487   20.6186 C   0  0  0  0  0  0
  -24.1607  -12.9651   20.9516 C   0  0  0  0  0  0
  -24.6760  -11.6449   20.8796 C   0  0  0  0  0  0
  -23.9421  -10.3895   21.0315 C   0  0  0  0  0  0
  -24.3797   -9.3883   21.9205 C   0  0  0  0  0  0
  -23.6308   -8.2047   22.0805 C   0  0  0  0  0  0
  -22.4297   -8.0191   21.3558 C   0  0  0  0  0  0
  -22.0021   -9.0176   20.4634 C   0  0  0  0  0  0
  -22.7525  -10.1925   20.2993 C   0  0  0  0  0  0
  -21.6795   -6.0728   22.5296 C   0  0  0  0  0  0
  -21.3976   -6.5632   23.8234 C   0  0  0  0  0  0
  -21.3658   -5.6782   24.9194 C   0  0  0  0  0  0
  -21.6049   -4.3045   24.7224 C   0  0  0  0  0  0
  -21.8819   -3.8147   23.4335 C   0  0  0  0  0  0
  -21.9173   -4.6972   22.3403 C   0  0  0  0  0  0
  -22.7568  -13.4489   21.2015 C   0  0  0  0  0  0
  -22.1653   -4.2172   21.0976 F   0  0  0  0  0  0
  -21.5641   -3.4527   25.7729 F   0  0  0  0  0  0
  -29.4703  -15.3200   20.2306 N   0  0  0  0  0  0
  -26.3110  -12.9745   20.3724 N   0  0  0  0  0  0
  -25.9889  -11.6609   20.5756 N   0  0  0  0  0  0
  -22.0159  -12.7645   22.0610 N   0  0  0  0  0  0
  -25.2084  -15.0850   20.4804 N   0  0  0  0  0  0
  -30.7665  -17.0131   19.9810 O   0  0  0  0  0  0
  -21.6557   -6.8871   21.4264 O   0  0  0  0  0  0
  -22.3346  -14.4842   20.6806 O   0  0  0  0  0  0
  -24.7598  -31.7019   23.0840 C   0  0  0  0  0  0
  -25.9768  -32.4008   23.7700 C   0  0  1  0  0  0
  -27.3798  -25.9535   20.2347 C   0  0  0  0  0  0
  -25.5997  -33.7873   24.1493 N   0  0  0  0  0  0
  -23.6280  -30.2572   21.4557 C   0  0  2  0  0  0
  -25.1172  -28.4357   20.1348 C   0  0  0  0  0  0
  -22.8137  -29.3765   22.4499 C   0  0  0  0  0  0
  -18.0393  -28.1481   22.8410 C   0  0  0  0  0  0
  -24.1496  -36.6956   23.2677 C   0  0  0  0  0  0
  -26.2326  -30.1830   21.4689 C   0  0  0  0  0  0
  -26.3112  -28.6618   20.8255 C   0  0  0  0  0  0
  -27.3672  -27.4764   20.8328 C   0  0  0  0  0  0
  -26.1351  -26.1372   19.4754 C   0  0  0  0  0  0
  -25.1134  -27.1985   19.4388 C   0  0  0  0  0  0
  -23.9313  -29.4698   20.1296 C   0  0  0  0  0  0
  -25.4178  -36.2636   24.0229 C   0  0  1  0  0  0
  -20.6070  -28.3871   23.1010 C   0  0  2  0  0  0
  -20.6825  -26.9456   22.5441 C   0  0  0  0  0  0
  -19.5815  -26.6346   21.5248 C   0  0  0  0  0  0
  -18.1989  -26.7990   22.1609 C   0  0  0  0  0  0
  -19.1681  -28.9014   23.2662 C   0  0  0  0  0  0
  -18.9570  -30.1577   23.8741 C   0  0  0  0  0  0
  -17.6549  -30.6635   24.0535 C   0  0  0  0  0  0
  -25.9199  -34.9041   23.4772 C   0  0  0  0  0  0
  -16.5434  -29.9106   23.6369 C   0  0  0  0  0  0
  -16.7367  -28.6541   23.0369 C   0  0  0  0  0  0
  -26.4702  -31.6388   25.0636 C   0  0  0  0  0  0
  -25.3552  -31.3902   26.1082 C   0  0  0  0  0  0
  -27.0770  -30.2662   24.7101 C   0  0  0  0  0  0
  -27.6010  -32.4436   25.7481 C   0  0  0  0  0  0
  -27.5548  -37.1622   24.8463 C   0  0  0  0  0  0
  -21.4713  -29.2930   22.3231 N   0  0  0  0  0  0
  -26.4245  -37.3483   23.9407 N   0  0  0  0  0  0
  -24.9057  -30.7654   22.0553 N   0  0  0  0  0  0
  -23.4190  -28.7530   23.3232 O   0  0  0  0  0  0
  -28.2908  -24.4045   20.3732 O   0  0  0  0  0  0
  -26.5966  -34.8789   22.4479 O   0  0  0  0  0  0
  -23.6444  -32.0444   23.5265 O   0  0  0  0  0  0
  -27.5951  -16.5726   21.5130 C   0  0  0  0  0  0
  -27.3026  -17.1789   19.5873 C   0  0  0  0  0  0
  -28.3550  -18.7692   18.9793 C   0  0  0  0  0  0
  -28.9521  -17.6818   22.5197 C   0  0  0  0  0  0
  -29.2188  -20.0778   20.1427 C   0  0  0  0  0  0
  -25.1533  -18.0130   21.5546 C   0  0  0  0  0  0
  -25.3855  -19.5519   19.7595 C   0  0  0  0  0  0
  -26.4394  -18.7000   22.1646 C   0  0  0  0  0  0
  -26.6800  -19.9487   20.5219 C   0  0  0  0  0  0
  -25.0906  -18.0906   19.9824 C   0  0  0  0  0  0
  -29.3451  -17.4058   23.9516 C   0  0  0  0  0  0
  -30.0908  -22.7870   19.2042 C   0  0  0  0  0  0
  -28.7752  -22.3348   19.8580 C   0  0  2  0  0  0
  -29.7036  -19.2075   21.6902 N   0  3  0  0  0  0
  -27.6188  -18.7314   21.0888 N   0  0  0  0  0  0
  -25.9809  -17.2296   19.1314 N   0  0  0  0  0  0
  -27.9720  -19.2467   17.7710 F   0  0  0  0  0  0
  -31.0531  -14.6990   18.8581 H   0  0  0  0  0  0
  -30.9601  -13.6096   20.1454 H   0  0  0  0  0  0
  -30.3017  -12.3831   18.0812 H   0  0  0  0  0  0
  -29.3561  -13.7182   17.5238 H   0  0  0  0  0  0
  -28.5309  -11.5574   19.4409 H   0  0  0  0  0  0
  -27.6480  -12.1970   18.0655 H   0  0  0  0  0  0
  -27.3272  -14.2757   19.1924 H   0  0  0  0  0  0
  -29.2633  -13.2981   21.2765 H   0  0  0  0  0  0
  -28.1501  -14.3136   21.8071 H   0  0  0  0  0  0
  -25.2909   -9.5324   22.4839 H   0  0  0  0  0  0
  -23.9919   -7.4436   22.7561 H   0  0  0  0  0  0
  -21.0960   -8.8791   19.8922 H   0  0  0  0  0  0
  -22.4091  -10.9513   19.6107 H   0  0  0  0  0  0
  -21.1950   -7.6137   23.9743 H   0  0  0  0  0  0
  -21.1493   -6.0506   25.9102 H   0  0  0  0  0  0
  -22.0602   -2.7612   23.2822 H   0  0  0  0  0  0
  -22.3712  -11.9331   22.5105 H   0  0  0  0  0  0
  -21.0803  -13.0782   22.2767 H   0  0  0  0  0  0
  -24.3012  -15.5296   20.5468 H   0  0  0  0  0  0
  -25.8101  -15.6571   19.8868 H   0  0  0  0  0  0
  -26.7953  -32.4373   23.0503 H   0  0  0  0  0  0
  -24.9888  -33.8755   24.9474 H   0  0  0  0  0  0
  -22.9996  -31.1103   21.1894 H   0  0  0  0  0  0
  -23.3813  -35.9225   23.3206 H   0  0  0  0  0  0
  -24.3546  -36.8803   22.2122 H   0  0  0  0  0  0
  -23.7205  -37.6044   23.6909 H   0  0  0  0  0  0
  -26.5171  -30.8614   20.6623 H   0  0  0  0  0  0
  -27.0521  -30.2730   22.1674 H   0  0  0  0  0  0
  -28.2378  -27.6928   21.4345 H   0  0  0  0  0  0
  -25.8636  -25.2697   18.8913 H   0  0  0  0  0  0
  -24.2413  -26.9936   18.8344 H   0  0  0  0  0  0
  -24.1535  -30.1946   19.3441 H   0  0  0  0  0  0
  -23.0255  -28.9616   19.7946 H   0  0  0  0  0  0
  -25.1431  -36.1298   25.0718 H   0  0  0  0  0  0
  -21.0116  -28.3561   24.1150 H   0  0  0  0  0  0
  -20.5632  -26.2515   23.3774 H   0  0  0  0  0  0
  -21.6680  -26.7280   22.1300 H   0  0  0  0  0  0
  -19.6963  -25.6212   21.1383 H   0  0  0  0  0  0
  -19.6791  -27.3070   20.6715 H   0  0  0  0  0  0
  -17.4277  -26.6738   21.3993 H   0  0  0  0  0  0
  -18.0332  -26.0175   22.9040 H   0  0  0  0  0  0
  -19.8043  -30.7434   24.2051 H   0  0  0  0  0  0
  -17.5096  -31.6297   24.5182 H   0  0  0  0  0  0
  -15.5433  -30.2964   23.7789 H   0  0  0  0  0  0
  -15.8764  -28.0819   22.7165 H   0  0  0  0  0  0
  -24.5802  -30.7218   25.7309 H   0  0  0  0  0  0
  -24.8673  -32.3175   26.4093 H   0  0  0  0  0  0
  -25.7511  -30.9288   27.0135 H   0  0  0  0  0  0
  -26.3617  -29.5999   24.2271 H   0  0  0  0  0  0
  -27.4066  -29.7473   25.6114 H   0  0  0  0  0  0
  -27.9641  -30.3640   24.0846 H   0  0  0  0  0  0
  -27.2478  -33.3919   26.1553 H   0  0  0  0  0  0
  -28.4058  -32.6701   25.0471 H   0  0  0  0  0  0
  -28.0421  -31.8910   26.5788 H   0  0  0  0  0  0
  -28.2475  -38.0001   24.7546 H   0  0  0  0  0  0
  -28.1130  -36.2508   24.6253 H   0  0  0  0  0  0
  -27.2251  -37.1202   25.8860 H   0  0  0  0  0  0
  -21.0234  -29.8411   21.6023 H   0  0  0  0  0  0
  -26.0006  -38.2497   24.1443 H   0  0  0  0  0  0
  -26.9414  -15.8990   22.0467 H   0  0  0  0  0  0
  -24.2879  -18.5468   21.9500 H   0  0  0  0  0  0
  -25.0065  -17.0156   21.9517 H   0  0  0  0  0  0
  -24.5575  -20.1570   20.1361 H   0  0  0  0  0  0
  -25.4378  -19.7772   18.6918 H   0  0  0  0  0  0
  -26.6643  -18.1597   23.0853 H   0  0  0  0  0  0
  -26.1809  -19.6198   22.6982 H   0  0  0  0  0  0
  -27.0274  -20.5729   19.7125 H   0  0  0  0  0  0
  -26.5334  -20.8033   21.1950 H   0  0  0  0  0  0
  -24.0649  -17.8860   19.6694 H   0  0  0  0  0  0
  -29.0287  -18.2336   24.5877 H   0  0  0  0  0  0
  -30.4283  -17.3127   24.0240 H   0  0  0  0  0  0
  -28.8895  -16.4856   24.3154 H   0  0  0  0  0  0
  -30.4039  -22.1011   18.4173 H   0  0  0  0  0  0
  -30.8979  -22.8392   19.9355 H   0  0  0  0  0  0
  -29.9940  -23.7736   18.7533 H   0  0  0  0  0  0
  -28.0664  -22.2576   19.0339 H   0  0  0  0  0  0
  -30.2309  -19.8023   22.3330 H   0  0  0  0  0  0
  -25.9411  -17.5185   18.1571 H   0  0  0  0  0  0
  1 25  1  0  0  0
  1 30  2  0  0  0
  1 85  1  0  0  0
  2  3  1  0  0  0
  2 25  1  0  0  0
  2 88  1  0  0  0
  2 89  1  0  0  0
  3  4  1  0  0  0
  3 90  1  0  0  0
  3 91  1  0  0  0
  4  5  1  0  0  0
  4 92  1  0  0  0
  4 93  1  0  0  0
  5  6  1  0  0  0
  5 26  1  0  0  0
  5 94  1  0  0  0
  6 25  1  0  0  0
  6 95  1  0  0  0
  6 96  1  0  0  0
  7  8  2  0  0  0
  7 26  1  0  0  0
  7 29  1  0  0  0
  8  9  1  0  0  0
  8 22  1  0  0  0
  9 10  1  0  0  0
  9 27  2  0  0  0
 10 11  2  0  0  0
 10 15  1  0  0  0
 11 12  1  0  0  0
 11 97  1  0  0  0
 12 13  2  0  0  0
 12 98  1  0  0  0
 13 14  1  0  0  0
 13 31  1  0  0  0
 14 15  2  0  0  0
 14 99  1  0  0  0
 15100  1  0  0  0
 16 17  2  0  0  0
 16 21  1  0  0  0
 16 31  1  0  0  0
 17 18  1  0  0  0
 17101  1  0  0  0
 18 19  2  0  0  0
 18102  1  0  0  0
 19 20  1  0  0  0
 19 24  1  0  0  0
 20 21  2  0  0  0
 20103  1  0  0  0
 21 23  1  0  0  0
 22 28  1  0  0  0
 22 32  2  0  0  0
 26 27  1  0  0  0
 28104  1  0  0  0
 28105  1  0  0  0
 29106  1  0  0  0
 29107  1  0  0  0
 33 34  1  0  0  0
 33 66  1  0  0  0
 33 70  2  0  0  0
 34 36  1  0  0  0
 34 59  1  0  0  0
 34108  1  0  0  0
 35 44  2  0  0  0
 35 45  1  0  0  0
 35 68  1  0  0  0
 36 56  1  0  0  0
 36109  1  0  0  0
 37 39  1  0  0  0
 37 47  1  0  0  0
 37 66  1  0  0  0
 37110  1  0  0  0
 38 43  2  0  0  0
 38 46  1  0  0  0
 38 47  1  0  0  0
 39 64  1  0  0  0
 39 67  2  0  0  0
 40 52  1  0  0  0
 40 53  2  0  0  0
 40 58  1  0  0  0
 41111  1  0  0  0
 41112  1  0  0  0
 41113  1  0  0  0
 41 48  1  0  0  0
 42 43  1  0  0  0
 42 66  1  0  0  0
 42114  1  0  0  0
 42115  1  0  0  0
 43 44  1  0  0  0
 44116  1  0  0  0
 45 46  2  0  0  0
 45117  1  0  0  0
 46118  1  0  0  0
 47119  1  0  0  0
 47120  1  0  0  0
 48 56  1  0  0  0
 48 65  1  0  0  0
 48121  1  0  0  0
 49 50  1  0  0  0
 49 53  1  0  0  0
 49 64  1  0  0  0
 49122  1  0  0  0
 50 51  1  0  0  0
 50123  1  0  0  0
 50124  1  0  0  0
 51 52  1  0  0  0
 51125  1  0  0  0
 51126  1  0  0  0
 52127  1  0  0  0
 52128  1  0  0  0
 53 54  1  0  0  0
 54 55  2  0  0  0
 54129  1  0  0  0
 55 57  1  0  0  0
 55130  1  0  0  0
 56 69  2  0  0  0
 57 58  2  0  0  0
 57131  1  0  0  0
 58132  1  0  0  0
 59 60  1  0  0  0
 59 61  1  0  0  0
 59 62  1  0  0  0
 60133  1  0  0  0
 60134  1  0  0  0
 60135  1  0  0  0
 61136  1  0  0  0
 61137  1  0  0  0
 61138  1  0  0  0
 62139  1  0  0  0
 62140  1  0  0  0
 62141  1  0  0  0
 63 65  1  0  0  0
 63142  1  0  0  0
 63143  1  0  0  0
 63144  1  0  0  0
 64145  1  0  0  0
 65146  1  0  0  0
 68 83  1  0  0  0
 71 72  2  0  0  0
 71 74  1  0  0  0
 71147  1  0  0  0
 72 73  1  0  0  0
 72 86  1  0  0  0
 73 75  2  0  0  0
 73 87  1  0  0  0
 74 81  1  0  0  0
 74 84  2  0  0  0
 75 83  1  0  0  0
 75 84  1  0  0  0
 76 78  1  0  0  0
 76 80  1  0  0  0
 76148  1  0  0  0
 76149  1  0  0  0
 77 79  1  0  0  0
 77 80  1  0  0  0
 77150  1  0  0  0
 77151  1  0  0  0
 78 85  1  0  0  0
 78152  1  0  0  0
 78153  1  0  0  0
 79 85  1  0  0  0
 79154  1  0  0  0
 79155  1  0  0  0
 80 86  1  0  0  0
 80156  1  0  0  0
 81157  1  0  0  0
 81158  1  0  0  0
 81159  1  0  0  0
 82160  1  0  0  0
 82161  1  0  0  0
 82162  1  0  0  0
 82 83  1  0  0  0
 83163  1  0  0  0
 84164  1  0  0  0
 86165  1  0  0  0
M  CHG  1  84   1
M  ISO  4   1 100  68 101  83 101  85 100
M  END
> <chiral flag>
0

> <version>
0

> <s_m_source_file>
/data/baiqing/PycharmProjects/Reinvent-master-3.2/result/LINK_invent/BTK/process_docking_weight1_custom_sum_contain_oxygen_bond_distance_aromatic_linkinvent_7_9_3/rearranged_h_0171.sdf

> <i_m_source_file_index>
7

> <r_mmod_Potential_Energy-OPLS-2005>
18832.103515625

> <r_mmod_Stretch_Energy-OPLS-2005>
10497.5146484375

> <r_mmod_Bend_Energy-OPLS-2005>
1329.1357421875

> <r_mmod_Torsional_Energy-OPLS-2005>
516.585205078125

> <r_mmod_Improper_Torsional_Energy-OPLS-2005>
42.3105621337891

> <r_mmod_Van_der_Waal_Energy-OPLS-2005>
3103.92333984375

> <r_mmod_Electrostatic_Energy-OPLS-2005>
-202.598663330078

> <r_mmod_Solvation_Energy-OPLS-2005>
-375.745849609375

> <b_mmod_Minimization_Converged-OPLS-2005>
0

> <r_mmod_RMS_Derivative-OPLS-2005>
5.53636026382446

$$$$
7
                    3D
 Structure written by MMmdl.
166176  0  0  1  0            999 V2000
  -30.7071  -14.5920   20.5047 C   0  0  0  0  0  0
  -30.4041  -12.3665   19.4582 C   0  0  0  0  0  0
  -29.4909  -12.4977   18.2235 C   0  0  0  0  0  0
  -28.0153  -12.3405   18.6349 C   0  0  0  0  0  0
  -27.6431  -13.2130   19.8612 C   0  0  2  0  0  0
  -28.6912  -13.1093   20.9944 C   0  0  0  0  0  0
  -25.2504  -13.8141   20.5694 C   0  0  0  0  0  0
  -24.1796  -13.0401   20.9219 C   0  0  0  0  0  0
  -24.6380  -11.6876   20.8777 C   0  0  0  0  0  0
  -23.9056  -10.4264   21.0430 C   0  0  0  0  0  0
  -24.3604   -9.4175   21.9204 C   0  0  0  0  0  0
  -23.6279   -8.2215   22.0767 C   0  0  0  0  0  0
  -22.4266   -8.0261   21.3547 C   0  0  0  0  0  0
  -21.9905   -9.0235   20.4648 C   0  0  0  0  0  0
  -22.7235  -10.2112   20.3067 C   0  0  0  0  0  0
  -21.6845   -6.0723   22.5271 C   0  0  0  0  0  0
  -21.4021   -6.5636   23.8203 C   0  0  0  0  0  0
  -21.3657   -5.6795   24.9171 C   0  0  0  0  0  0
  -21.6041   -4.3057   24.7225 C   0  0  0  0  0  0
  -21.8822   -3.8141   23.4350 C   0  0  0  0  0  0
  -21.9193   -4.6950   22.3403 C   0  0  0  0  0  0
  -22.7817  -13.5186   21.1862 C   0  0  0  0  0  0
  -22.1657   -4.2134   21.0978 F   0  0  0  0  0  0
  -21.5624   -3.4542   25.7743 F   0  0  0  0  0  0
  -30.0059  -13.4166   20.4198 N   0  0  0  0  0  0
  -26.2933  -12.9321   20.3350 N   0  0  0  0  0  0
  -25.9311  -11.6482   20.5821 N   0  0  0  0  0  0
  -22.0469  -12.8177   22.0414 N   0  0  0  0  0  0
  -25.4150  -15.1860   20.4043 N   0  0  0  0  0  0
  -31.8755  -14.6493   20.1146 O   0  0  0  0  0  0
  -21.6626   -6.8861   21.4234 O   0  0  0  0  0  0
  -22.3509  -14.5493   20.6700 O   0  0  0  0  0  0
  -24.6200  -31.8636   23.2055 C   0  0  0  0  0  0
  -25.9068  -32.4802   23.8369 C   0  0  1  0  0  0
  -27.2215  -27.3735   20.1279 C   0  0  0  0  0  0
  -25.5902  -33.8602   24.2295 N   0  0  0  0  0  0
  -23.4106  -30.4862   21.5474 C   0  0  2  0  0  0
  -24.8580  -28.9487   20.1107 C   0  0  0  0  0  0
  -22.7433  -29.4633   22.4961 C   0  0  0  0  0  0
  -18.0265  -28.1366   22.8489 C   0  0  0  0  0  0
  -24.1484  -36.7310   23.2633 C   0  0  0  0  0  0
  -25.9443  -30.8153   21.3648 C   0  0  0  0  0  0
  -26.0226  -29.4461   20.7112 C   0  0  0  0  0  0
  -27.2118  -28.6698   20.7090 C   0  0  0  0  0  0
  -26.0429  -26.9106   19.5074 C   0  0  0  0  0  0
  -24.8674  -27.6843   19.4975 C   0  0  0  0  0  0
  -23.6215  -29.8194   20.1621 C   0  0  0  0  0  0
  -25.4111  -36.3108   24.0323 C   0  0  1  0  0  0
  -20.5860  -28.3667   23.1300 C   0  0  2  0  0  0
  -20.6761  -26.9401   22.5412 C   0  0  0  0  0  0
  -19.5745  -26.6381   21.5201 C   0  0  0  0  0  0
  -18.1916  -26.7912   22.1613 C   0  0  0  0  0  0
  -19.1519  -28.8828   23.2890 C   0  0  0  0  0  0
  -18.9449  -30.1430   23.8909 C   0  0  0  0  0  0
  -17.6456  -30.6584   24.0557 C   0  0  0  0  0  0
  -25.9043  -34.9469   23.5113 C   0  0  0  0  0  0
  -16.5342  -29.9088   23.6325 C   0  0  0  0  0  0
  -16.7257  -28.6491   23.0364 C   0  0  0  0  0  0
  -26.4481  -31.6588   25.0711 C   0  0  0  0  0  0
  -25.3737  -31.3668   26.1445 C   0  0  0  0  0  0
  -27.0323  -30.3026   24.6097 C   0  0  0  0  0  0
  -27.6039  -32.4310   25.7498 C   0  0  0  0  0  0
  -27.5582  -37.1807   24.8449 C   0  0  0  0  0  0
  -21.4151  -29.3029   22.3699 N   0  0  0  0  0  0
  -26.4289  -37.3804   23.9410 N   0  0  0  0  0  0
  -24.6769  -31.0701   22.0976 N   0  0  0  0  0  0
  -23.4178  -28.8174   23.3024 O   0  0  0  0  0  0
  -28.3406  -26.5526   20.1583 O   0  0  0  0  0  0
  -26.5628  -34.8938   22.4687 O   0  0  0  0  0  0
  -23.5374  -32.1396   23.7425 O   0  0  0  0  0  0
  -28.3491  -21.3158   19.3460 C   0  0  0  0  0  0
  -28.7590  -20.3355   20.3177 C   0  0  0  0  0  0
  -28.2193  -20.8372   18.0105 C   0  0  0  0  0  0
  -29.0863  -18.9966   19.9006 C   0  0  0  0  0  0
  -28.6923  -19.5512   17.6795 C   0  0  0  0  0  0
  -28.4684  -23.8552   18.6872 C   0  0  0  0  0  0
  -28.8389  -16.3622   20.4972 C   0  0  0  0  0  0
  -30.7784  -17.0682   20.8372 C   0  0  0  0  0  0
  -27.9347  -22.7878   19.6370 C   0  0  2  0  0  0
  -29.4117  -17.7651   20.8080 C   0  0  0  0  0  0
  -28.7618  -24.0114   20.1375 C   0  0  2  0  0  0
  -28.7892  -20.7008   21.7933 C   0  0  0  0  0  0
  -27.5268  -21.6623   16.9222 C   0  0  0  0  0  0
  -28.7245  -19.0390   16.2508 C   0  0  0  0  0  0
  -28.1637  -25.2643   20.8301 C   0  0  0  0  0  0
  -29.1213  -18.6737   18.5963 N   0  0  0  0  0  0
  -30.1042  -15.7441   20.9469 N   0  0  0  0  0  0
  -31.4518  -12.4331   19.1608 H   0  0  0  0  0  0
  -30.2899  -11.3801   19.9118 H   0  0  0  0  0  0
  -29.7496  -11.7470   17.4754 H   0  0  0  0  0  0
  -29.6422  -13.4690   17.7505 H   0  0  0  0  0  0
  -27.8460  -11.2881   18.8633 H   0  0  0  0  0  0
  -27.3614  -12.5773   17.7941 H   0  0  0  0  0  0
  -27.6396  -14.2339   19.4926 H   0  0  0  0  0  0
  -28.6985  -12.1061   21.4223 H   0  0  0  0  0  0
  -28.4519  -13.7861   21.8154 H   0  0  0  0  0  0
  -25.2750   -9.5642   22.4788 H   0  0  0  0  0  0
  -23.9969   -7.4612   22.7499 H   0  0  0  0  0  0
  -21.0830   -8.8759   19.8956 H   0  0  0  0  0  0
  -22.3696  -10.9657   19.6178 H   0  0  0  0  0  0
  -21.2028   -7.6151   23.9698 H   0  0  0  0  0  0
  -21.1473   -6.0534   25.9069 H   0  0  0  0  0  0
  -22.0610   -2.7603   23.2857 H   0  0  0  0  0  0
  -22.4094  -11.9816   22.4756 H   0  0  0  0  0  0
  -21.1096  -13.1209   22.2656 H   0  0  0  0  0  0
  -24.6414  -15.8330   20.5094 H   0  0  0  0  0  0
  -26.2478  -15.6205   20.0313 H   0  0  0  0  0  0
  -26.7142  -32.5505   23.1134 H   0  0  0  0  0  0
  -25.0035  -33.9751   25.0427 H   0  0  0  0  0  0
  -22.7020  -31.3045   21.4065 H   0  0  0  0  0  0
  -23.3767  -35.9621   23.3275 H   0  0  0  0  0  0
  -24.3579  -36.8953   22.2054 H   0  0  0  0  0  0
  -23.7207  -37.6488   23.6677 H   0  0  0  0  0  0
  -26.0614  -31.5816   20.5976 H   0  0  0  0  0  0
  -26.8303  -30.8698   21.9862 H   0  0  0  0  0  0
  -28.1080  -29.0438   21.1849 H   0  0  0  0  0  0
  -26.0259  -25.9353   19.0431 H   0  0  0  0  0  0
  -23.9749  -27.2949   19.0264 H   0  0  0  0  0  0
  -23.7286  -30.5942   19.4016 H   0  0  0  0  0  0
  -22.7441  -29.2391   19.8695 H   0  0  0  0  0  0
  -25.1290  -36.1965   25.0815 H   0  0  0  0  0  0
  -20.9946  -28.3239   24.1425 H   0  0  0  0  0  0
  -20.5657  -26.2272   23.3600 H   0  0  0  0  0  0
  -21.6635  -26.7438   22.1218 H   0  0  0  0  0  0
  -19.6922  -25.6297   21.1222 H   0  0  0  0  0  0
  -19.6686  -27.3196   20.6737 H   0  0  0  0  0  0
  -17.4191  -26.6647   21.4014 H   0  0  0  0  0  0
  -18.0324  -26.0043   22.8999 H   0  0  0  0  0  0
  -19.7930  -30.7224   24.2306 H   0  0  0  0  0  0
  -17.5020  -31.6272   24.5147 H   0  0  0  0  0  0
  -15.5349  -30.3007   23.7633 H   0  0  0  0  0  0
  -15.8642  -28.0808   22.7111 H   0  0  0  0  0  0
  -24.5928  -30.7003   25.7760 H   0  0  0  0  0  0
  -24.8923  -32.2811   26.4919 H   0  0  0  0  0  0
  -25.8099  -30.8814   27.0183 H   0  0  0  0  0  0
  -26.2871  -29.6780   24.1156 H   0  0  0  0  0  0
  -27.4083  -29.7266   25.4561 H   0  0  0  0  0  0
  -27.8714  -30.4338   23.9261 H   0  0  0  0  0  0
  -27.2652  -33.3607   26.2088 H   0  0  0  0  0  0
  -28.3873  -32.6862   25.0349 H   0  0  0  0  0  0
  -28.0689  -31.8419   26.5414 H   0  0  0  0  0  0
  -28.2568  -38.0144   24.7592 H   0  0  0  0  0  0
  -28.1123  -36.2683   24.6186 H   0  0  0  0  0  0
  -27.2308  -37.1340   25.8850 H   0  0  0  0  0  0
  -20.9305  -29.8764   21.6938 H   0  0  0  0  0  0
  -26.0173  -38.2864   24.1477 H   0  0  0  0  0  0
  -27.7445  -24.5294   18.2360 H   0  0  0  0  0  0
  -29.3281  -23.6182   18.0639 H   0  0  0  0  0  0
  -28.6428  -16.2122   19.4353 H   0  0  0  0  0  0
  -27.9645  -16.1221   21.1021 H   0  0  0  0  0  0
  -31.3947  -17.3538   21.6906 H   0  0  0  0  0  0
  -31.3239  -17.2072   19.9018 H   0  0  0  0  0  0
  -26.8667  -22.8101   19.8476 H   0  0  0  0  0  0
  -29.1301  -18.0142   21.8319 H   0  0  0  0  0  0
  -29.7901  -23.8045   20.4266 H   0  0  0  0  0  0
  -28.8498  -21.7777   21.9458 H   0  0  0  0  0  0
  -29.6536  -20.2593   22.2899 H   0  0  0  0  0  0
  -27.8874  -20.3400   22.2906 H   0  0  0  0  0  0
  -26.7517  -22.3097   17.3333 H   0  0  0  0  0  0
  -27.0080  -21.0256   16.2066 H   0  0  0  0  0  0
  -28.2420  -22.2735   16.3719 H   0  0  0  0  0  0
  -29.0285  -19.8256   15.5597 H   0  0  0  0  0  0
  -27.7423  -18.6749   15.9511 H   0  0  0  0  0  0
  -29.4374  -18.2222   16.1385 H   0  0  0  0  0  0
  -28.6309  -25.3487   21.8124 H   0  0  0  0  0  0
  -27.1122  -25.0604   21.0387 H   0  0  0  0  0  0
  1 25  1  0  0  0
  1 30  2  0  0  0
  1 87  1  0  0  0
  2  3  1  0  0  0
  2 25  1  0  0  0
  2 88  1  0  0  0
  2 89  1  0  0  0
  3  4  1  0  0  0
  3 90  1  0  0  0
  3 91  1  0  0  0
  4  5  1  0  0  0
  4 92  1  0  0  0
  4 93  1  0  0  0
  5  6  1  0  0  0
  5 26  1  0  0  0
  5 94  1  0  0  0
  6 25  1  0  0  0
  6 95  1  0  0  0
  6 96  1  0  0  0
  7  8  2  0  0  0
  7 26  1  0  0  0
  7 29  1  0  0  0
  8  9  1  0  0  0
  8 22  1  0  0  0
  9 10  1  0  0  0
  9 27  2  0  0  0
 10 11  2  0  0  0
 10 15  1  0  0  0
 11 12  1  0  0  0
 11 97  1  0  0  0
 12 13  2  0  0  0
 12 98  1  0  0  0
 13 14  1  0  0  0
 13 31  1  0  0  0
 14 15  2  0  0  0
 14 99  1  0  0  0
 15100  1  0  0  0
 16 17  2  0  0  0
 16 21  1  0  0  0
 16 31  1  0  0  0
 17 18  1  0  0  0
 17101  1  0  0  0
 18 19  2  0  0  0
 18102  1  0  0  0
 19 20  1  0  0  0
 19 24  1  0  0  0
 20 21  2  0  0  0
 20103  1  0  0  0
 21 23  1  0  0  0
 22 28  1  0  0  0
 22 32  2  0  0  0
 26 27  1  0  0  0
 28104  1  0  0  0
 28105  1  0  0  0
 29106  1  0  0  0
 29107  1  0  0  0
 33 34  1  0  0  0
 33 66  1  0  0  0
 33 70  2  0  0  0
 34 36  1  0  0  0
 34 59  1  0  0  0
 34108  1  0  0  0
 35 44  2  0  0  0
 35 45  1  0  0  0
 35 68  1  0  0  0
 36 56  1  0  0  0
 36109  1  0  0  0
 37 39  1  0  0  0
 37 47  1  0  0  0
 37 66  1  0  0  0
 37110  1  0  0  0
 38 43  2  0  0  0
 38 46  1  0  0  0
 38 47  1  0  0  0
 39 64  1  0  0  0
 39 67  2  0  0  0
 40 52  1  0  0  0
 40 53  2  0  0  0
 40 58  1  0  0  0
 41111  1  0  0  0
 41112  1  0  0  0
 41113  1  0  0  0
 41 48  1  0  0  0
 42 43  1  0  0  0
 42 66  1  0  0  0
 42114  1  0  0  0
 42115  1  0  0  0
 43 44  1  0  0  0
 44116  1  0  0  0
 45 46  2  0  0  0
 45117  1  0  0  0
 46118  1  0  0  0
 47119  1  0  0  0
 47120  1  0  0  0
 48 56  1  0  0  0
 48 65  1  0  0  0
 48121  1  0  0  0
 49 50  1  0  0  0
 49 53  1  0  0  0
 49 64  1  0  0  0
 49122  1  0  0  0
 50 51  1  0  0  0
 50123  1  0  0  0
 50124  1  0  0  0
 51 52  1  0  0  0
 51125  1  0  0  0
 51126  1  0  0  0
 52127  1  0  0  0
 52128  1  0  0  0
 53 54  1  0  0  0
 54 55  2  0  0  0
 54129  1  0  0  0
 55 57  1  0  0  0
 55130  1  0  0  0
 56 69  2  0  0  0
 57 58  2  0  0  0
 57131  1  0  0  0
 58132  1  0  0  0
 59 60  1  0  0  0
 59 61  1  0  0  0
 59 62  1  0  0  0
 60133  1  0  0  0
 60134  1  0  0  0
 60135  1  0  0  0
 61136  1  0  0  0
 61137  1  0  0  0
 61138  1  0  0  0
 62139  1  0  0  0
 62140  1  0  0  0
 62141  1  0  0  0
 63 65  1  0  0  0
 63142  1  0  0  0
 63143  1  0  0  0
 63144  1  0  0  0
 64145  1  0  0  0
 65146  1  0  0  0
 68 85  1  0  0  0
 71 72  2  0  0  0
 71 73  1  0  0  0
 71 79  1  0  0  0
 72 74  1  0  0  0
 72 82  1  0  0  0
 73 75  2  0  0  0
 73 83  1  0  0  0
 74 86  2  0  0  0
 74 80  1  0  0  0
 75 84  1  0  0  0
 75 86  1  0  0  0
 76 79  1  0  0  0
 76 81  1  0  0  0
 76147  1  0  0  0
 76148  1  0  0  0
 77 80  1  0  0  0
 77 87  1  0  0  0
 77149  1  0  0  0
 77150  1  0  0  0
 78 80  1  0  0  0
 78 87  1  0  0  0
 78151  1  0  0  0
 78152  1  0  0  0
 79 81  1  0  0  0
 79153  1  0  0  0
 80154  1  0  0  0
 81 85  1  0  0  0
 81155  1  0  0  0
 82156  1  0  0  0
 82157  1  0  0  0
 82158  1  0  0  0
 83159  1  0  0  0
 83160  1  0  0  0
 83161  1  0  0  0
 84162  1  0  0  0
 84163  1  0  0  0
 84164  1  0  0  0
 85165  1  0  0  0
 85166  1  0  0  0
M  ISO  4   1 100  68 101  85 101  87 100
M  END
> <chiral flag>
0

> <version>
0

> <s_m_source_file>
/data/baiqing/PycharmProjects/Reinvent-master-3.2/result/LINK_invent/BTK/process_docking_weight1_custom_sum_contain_oxygen_bond_distance_aromatic_linkinvent_7_9_3/rearranged_h_0171.sdf

> <i_m_source_file_index>
8

> <r_mmod_Potential_Energy-OPLS-2005>
-5.09149551391602

> <r_mmod_Stretch_Energy-OPLS-2005>
66.6992874145508

> <r_mmod_Bend_Energy-OPLS-2005>
142.697769165039

> <r_mmod_Torsional_Energy-OPLS-2005>
329.719207763672

> <r_mmod_Improper_Torsional_Energy-OPLS-2005>
9.07422256469727

> <r_mmod_Van_der_Waal_Energy-OPLS-2005>
154.005508422852

> <r_mmod_Electrostatic_Energy-OPLS-2005>
-521.427551269531

> <r_mmod_Solvation_Energy-OPLS-2005>
-221.005767822266

> <b_mmod_Minimization_Converged-OPLS-2005>
0

> <r_mmod_RMS_Derivative-OPLS-2005>
1.56559574604034

$$$$
8
                    3D
 Structure written by MMmdl.
162171  0  0  1  0            999 V2000
  -30.5033  -15.0209   20.3961 C   0  0  0  0  0  0
  -30.4408  -12.6281   19.5231 C   0  0  0  0  0  0
  -29.5312  -12.5663   18.2700 C   0  0  0  0  0  0
  -28.0631  -12.3354   18.6752 C   0  0  0  0  0  0
  -27.6298  -13.2604   19.8443 C   0  0  2  0  0  0
  -28.6677  -13.3036   20.9898 C   0  0  0  0  0  0
  -25.2387  -13.8155   20.5725 C   0  0  0  0  0  0
  -24.1737  -13.0368   20.9238 C   0  0  0  0  0  0
  -24.6411  -11.6882   20.8759 C   0  0  0  0  0  0
  -23.9090  -10.4266   21.0418 C   0  0  0  0  0  0
  -24.3634   -9.4175   21.9189 C   0  0  0  0  0  0
  -23.6305   -8.2213   22.0770 C   0  0  0  0  0  0
  -22.4284   -8.0274   21.3557 C   0  0  0  0  0  0
  -21.9928   -9.0247   20.4636 C   0  0  0  0  0  0
  -22.7265  -10.2124   20.3050 C   0  0  0  0  0  0
  -21.6841   -6.0729   22.5277 C   0  0  0  0  0  0
  -21.3999   -6.5638   23.8205 C   0  0  0  0  0  0
  -21.3642   -5.6793   24.9168 C   0  0  0  0  0  0
  -21.6038   -4.3057   24.7223 C   0  0  0  0  0  0
  -21.8815   -3.8148   23.4343 C   0  0  0  0  0  0
  -21.9204   -4.6959   22.3406 C   0  0  0  0  0  0
  -22.7762  -13.5150   21.1887 C   0  0  0  0  0  0
  -22.1690   -4.2157   21.0986 F   0  0  0  0  0  0
  -21.5626   -3.4536   25.7730 F   0  0  0  0  0  0
  -29.9484  -13.7323   20.4070 N   0  0  0  0  0  0
  -26.2888  -12.9472   20.3267 N   0  0  0  0  0  0
  -25.9351  -11.6578   20.5717 N   0  0  0  0  0  0
  -22.0425  -12.8151   22.0430 N   0  0  0  0  0  0
  -25.3884  -15.1855   20.4149 N   0  0  0  0  0  0
  -31.6736  -15.1072   20.0072 O   0  0  0  0  0  0
  -21.6641   -6.8884   21.4242 O   0  0  0  0  0  0
  -22.3444  -14.5468   20.6738 O   0  0  0  0  0  0
  -24.6452  -31.8381   23.1821 C   0  0  0  0  0  0
  -25.9208  -32.4655   23.8228 C   0  0  1  0  0  0
  -27.2248  -27.0942   20.1475 C   0  0  0  0  0  0
  -25.5929  -33.8466   24.2140 N   0  0  0  0  0  0
  -23.4516  -30.4530   21.5290 C   0  0  2  0  0  0
  -24.9041  -28.8723   20.1053 C   0  0  0  0  0  0
  -22.7576  -29.4507   22.4852 C   0  0  0  0  0  0
  -18.0294  -28.1380   22.8485 C   0  0  0  0  0  0
  -24.1501  -36.7236   23.2641 C   0  0  0  0  0  0
  -26.0093  -30.6962   21.3897 C   0  0  0  0  0  0
  -26.0796  -29.3047   20.7288 C   0  0  0  0  0  0
  -27.2328  -28.4289   20.7379 C   0  0  0  0  0  0
  -26.0197  -26.7732   19.4807 C   0  0  0  0  0  0
  -24.8884  -27.6221   19.4678 C   0  0  0  0  0  0
  -23.6787  -29.7733   20.1514 C   0  0  0  0  0  0
  -25.4133  -36.3005   24.0306 C   0  0  1  0  0  0
  -20.5904  -28.3708   23.1244 C   0  0  2  0  0  0
  -20.6767  -26.9407   22.5413 C   0  0  0  0  0  0
  -19.5745  -26.6369   21.5213 C   0  0  0  0  0  0
  -18.1926  -26.7923   22.1619 C   0  0  0  0  0  0
  -19.1555  -28.8866   23.2848 C   0  0  0  0  0  0
  -18.9466  -30.1464   23.8872 C   0  0  0  0  0  0
  -17.6463  -30.6592   24.0545 C   0  0  0  0  0  0
  -25.9091  -34.9384   23.5050 C   0  0  0  0  0  0
  -16.5353  -29.9076   23.6337 C   0  0  0  0  0  0
  -16.7276  -28.6478   23.0384 C   0  0  0  0  0  0
  -26.4520  -31.6545   25.0697 C   0  0  0  0  0  0
  -25.3697  -31.3737   26.1384 C   0  0  0  0  0  0
  -27.0395  -30.2934   24.6321 C   0  0  0  0  0  0
  -27.6033  -32.4329   25.7482 C   0  0  0  0  0  0
  -27.5583  -37.1757   24.8453 C   0  0  0  0  0  0
  -21.4261  -29.3033   22.3621 N   0  0  0  0  0  0
  -26.4286  -37.3727   23.9411 N   0  0  0  0  0  0
  -24.7215  -31.0186   22.0877 N   0  0  0  0  0  0
  -23.4190  -28.8061   23.3028 O   0  0  0  0  0  0
  -28.2822  -26.1057   20.2765 O   0  0  0  0  0  0
  -26.5696  -34.8884   22.4642 O   0  0  0  0  0  0
  -23.5562  -32.1279   23.7022 O   0  0  0  0  0  0
  -28.5366  -20.7958   22.0318 C   0  0  0  0  0  0
  -29.1492  -20.6120   20.7738 C   0  0  0  0  0  0
  -29.1158  -21.8881   19.9854 C   0  0  0  0  0  0
  -28.0117  -22.0421   22.4505 C   0  0  0  0  0  0
  -28.5426  -23.1911   20.4736 C   0  0  0  0  0  0
  -28.0135  -18.1652   18.4373 C   0  0  0  0  0  0
  -29.3835  -17.4865   18.4894 C   0  0  0  0  0  0
  -27.8273  -17.6652   19.8650 C   0  0  0  0  0  0
  -29.3605  -17.6339   20.0325 C   0  0  0  0  0  0
  -29.7127  -21.8764   18.5893 C   0  0  0  0  0  0
  -27.4173  -22.1716   23.8391 C   0  0  0  0  0  0
  -29.9472  -19.1400   20.5632 C   0  0  0  0  0  0
  -28.3422  -24.6483   19.6734 C   0  0  0  0  0  0
  -28.0112  -23.1801   21.7133 N   0  0  0  0  0  0
  -29.7061  -16.1856   20.6652 N   0  0  0  0  0  0
  -31.4773  -12.7801   19.2193 H   0  0  0  0  0  0
  -30.4299  -11.6768   20.0561 H   0  0  0  0  0  0
  -29.8611  -11.7814   17.5880 H   0  0  0  0  0  0
  -29.6124  -13.5016   17.7132 H   0  0  0  0  0  0
  -27.9617  -11.2912   18.9698 H   0  0  0  0  0  0
  -27.4059  -12.4729   17.8161 H   0  0  0  0  0  0
  -27.5840  -14.2609   19.4145 H   0  0  0  0  0  0
  -28.7634  -12.3315   21.4765 H   0  0  0  0  0  0
  -28.3457  -14.0016   21.7625 H   0  0  0  0  0  0
  -25.2785   -9.5651   22.4743 H   0  0  0  0  0  0
  -24.0005   -7.4588   22.7483 H   0  0  0  0  0  0
  -21.0868   -8.8759   19.8933 H   0  0  0  0  0  0
  -22.3738  -10.9656   19.6141 H   0  0  0  0  0  0
  -21.1988   -7.6145   23.9721 H   0  0  0  0  0  0
  -21.1471   -6.0522   25.9071 H   0  0  0  0  0  0
  -22.0621   -2.7616   23.2848 H   0  0  0  0  0  0
  -22.4107  -11.9826   22.4803 H   0  0  0  0  0  0
  -21.1031  -13.1152   22.2637 H   0  0  0  0  0  0
  -24.6022  -15.8216   20.4925 H   0  0  0  0  0  0
  -26.2238  -15.6277   20.0587 H   0  0  0  0  0  0
  -26.7268  -32.5239   23.0940 H   0  0  0  0  0  0
  -24.9989  -33.9572   25.0225 H   0  0  0  0  0  0
  -22.7542  -31.2782   21.3697 H   0  0  0  0  0  0
  -23.3783  -35.9549   23.3261 H   0  0  0  0  0  0
  -24.3586  -36.8924   22.2061 H   0  0  0  0  0  0
  -23.7229  -37.6398   23.6730 H   0  0  0  0  0  0
  -26.1744  -31.4501   20.6194 H   0  0  0  0  0  0
  -26.8735  -30.7434   22.0405 H   0  0  0  0  0  0
  -28.1231  -28.7522   21.2583 H   0  0  0  0  0  0
  -25.8951  -25.8157   19.0011 H   0  0  0  0  0  0
  -23.9861  -27.2864   18.9746 H   0  0  0  0  0  0
  -23.8046  -30.5407   19.3878 H   0  0  0  0  0  0
  -22.7953  -29.2072   19.8503 H   0  0  0  0  0  0
  -25.1326  -36.1818   25.0799 H   0  0  0  0  0  0
  -20.9977  -28.3281   24.1370 H   0  0  0  0  0  0
  -20.5634  -26.2314   23.3626 H   0  0  0  0  0  0
  -21.6633  -26.7389   22.1225 H   0  0  0  0  0  0
  -19.6903  -25.6274   21.1252 H   0  0  0  0  0  0
  -19.6683  -27.3167   20.6733 H   0  0  0  0  0  0
  -17.4188  -26.6673   21.4024 H   0  0  0  0  0  0
  -18.0326  -26.0064   22.9018 H   0  0  0  0  0  0
  -19.7940  -30.7293   24.2216 H   0  0  0  0  0  0
  -17.5013  -31.6269   24.5143 H   0  0  0  0  0  0
  -15.5351  -30.2968   23.7676 H   0  0  0  0  0  0
  -15.8674  -28.0778   22.7147 H   0  0  0  0  0  0
  -24.5889  -30.7082   25.7675 H   0  0  0  0  0  0
  -24.8882  -32.2928   26.4739 H   0  0  0  0  0  0
  -25.7979  -30.8928   27.0195 H   0  0  0  0  0  0
  -26.3031  -29.6638   24.1314 H   0  0  0  0  0  0
  -27.3961  -29.7248   25.4918 H   0  0  0  0  0  0
  -27.8960  -30.4136   23.9686 H   0  0  0  0  0  0
  -27.2610  -33.3648   26.1990 H   0  0  0  0  0  0
  -28.3875  -32.6854   25.0336 H   0  0  0  0  0  0
  -28.0678  -31.8505   26.5446 H   0  0  0  0  0  0
  -28.2550  -38.0099   24.7562 H   0  0  0  0  0  0
  -28.1133  -36.2631   24.6227 H   0  0  0  0  0  0
  -27.2309  -37.1330   25.8852 H   0  0  0  0  0  0
  -20.9477  -29.8743   21.6795 H   0  0  0  0  0  0
  -26.0150  -38.2787   24.1445 H   0  0  0  0  0  0
  -28.5142  -19.9655   22.7268 H   0  0  0  0  0  0
  -27.3100  -17.7472   17.7170 H   0  0  0  0  0  0
  -28.0639  -19.2523   18.3675 H   0  0  0  0  0  0
  -30.1725  -18.0428   17.9823 H   0  0  0  0  0  0
  -29.3408  -16.4575   18.1287 H   0  0  0  0  0  0
  -27.3719  -16.6804   19.8923 H   0  0  0  0  0  0
  -27.3063  -18.3613   20.5219 H   0  0  0  0  0  0
  -29.9480  -20.8649   18.2584 H   0  0  0  0  0  0
  -30.6288  -22.4650   18.5562 H   0  0  0  0  0  0
  -29.0138  -22.3033   17.8696 H   0  0  0  0  0  0
  -28.0708  -21.7074   24.5788 H   0  0  0  0  0  0
  -26.4458  -21.6807   23.8853 H   0  0  0  0  0  0
  -27.2838  -23.2170   24.1248 H   0  0  0  0  0  0
  -30.4157  -18.9542   21.5301 H   0  0  0  0  0  0
  -30.8030  -19.3854   19.9318 H   0  0  0  0  0  0
  -27.5019  -24.4986   19.0002 H   0  0  0  0  0  0
  -29.1926  -24.6984   18.9933 H   0  0  0  0  0  0
  -28.9169  -15.8830   21.2181 H   0  0  0  0  0  0
  1 25  1  0  0  0
  1 30  2  0  0  0
  1 85  1  0  0  0
  2  3  1  0  0  0
  2 25  1  0  0  0
  2 86  1  0  0  0
  2 87  1  0  0  0
  3  4  1  0  0  0
  3 88  1  0  0  0
  3 89  1  0  0  0
  4  5  1  0  0  0
  4 90  1  0  0  0
  4 91  1  0  0  0
  5  6  1  0  0  0
  5 26  1  0  0  0
  5 92  1  0  0  0
  6 25  1  0  0  0
  6 93  1  0  0  0
  6 94  1  0  0  0
  7  8  2  0  0  0
  7 26  1  0  0  0
  7 29  1  0  0  0
  8  9  1  0  0  0
  8 22  1  0  0  0
  9 10  1  0  0  0
  9 27  2  0  0  0
 10 11  2  0  0  0
 10 15  1  0  0  0
 11 12  1  0  0  0
 11 95  1  0  0  0
 12 13  2  0  0  0
 12 96  1  0  0  0
 13 14  1  0  0  0
 13 31  1  0  0  0
 14 15  2  0  0  0
 14 97  1  0  0  0
 15 98  1  0  0  0
 16 17  2  0  0  0
 16 21  1  0  0  0
 16 31  1  0  0  0
 17 18  1  0  0  0
 17 99  1  0  0  0
 18 19  2  0  0  0
 18100  1  0  0  0
 19 20  1  0  0  0
 19 24  1  0  0  0
 20 21  2  0  0  0
 20101  1  0  0  0
 21 23  1  0  0  0
 22 28  1  0  0  0
 22 32  2  0  0  0
 26 27  1  0  0  0
 28102  1  0  0  0
 28103  1  0  0  0
 29104  1  0  0  0
 29105  1  0  0  0
 33 34  1  0  0  0
 33 66  1  0  0  0
 33 70  2  0  0  0
 34 36  1  0  0  0
 34 59  1  0  0  0
 34106  1  0  0  0
 35 44  2  0  0  0
 35 45  1  0  0  0
 35 68  1  0  0  0
 36 56  1  0  0  0
 36107  1  0  0  0
 37 39  1  0  0  0
 37 47  1  0  0  0
 37 66  1  0  0  0
 37108  1  0  0  0
 38 43  2  0  0  0
 38 46  1  0  0  0
 38 47  1  0  0  0
 39 64  1  0  0  0
 39 67  2  0  0  0
 40 52  1  0  0  0
 40 53  2  0  0  0
 40 58  1  0  0  0
 41109  1  0  0  0
 41110  1  0  0  0
 41111  1  0  0  0
 41 48  1  0  0  0
 42 43  1  0  0  0
 42 66  1  0  0  0
 42112  1  0  0  0
 42113  1  0  0  0
 43 44  1  0  0  0
 44114  1  0  0  0
 45 46  2  0  0  0
 45115  1  0  0  0
 46116  1  0  0  0
 47117  1  0  0  0
 47118  1  0  0  0
 48 56  1  0  0  0
 48 65  1  0  0  0
 48119  1  0  0  0
 49 50  1  0  0  0
 49 53  1  0  0  0
 49 64  1  0  0  0
 49120  1  0  0  0
 50 51  1  0  0  0
 50121  1  0  0  0
 50122  1  0  0  0
 51 52  1  0  0  0
 51123  1  0  0  0
 51124  1  0  0  0
 52125  1  0  0  0
 52126  1  0  0  0
 53 54  1  0  0  0
 54 55  2  0  0  0
 54127  1  0  0  0
 55 57  1  0  0  0
 55128  1  0  0  0
 56 69  2  0  0  0
 57 58  2  0  0  0
 57129  1  0  0  0
 58130  1  0  0  0
 59 60  1  0  0  0
 59 61  1  0  0  0
 59 62  1  0  0  0
 60131  1  0  0  0
 60132  1  0  0  0
 60133  1  0  0  0
 61134  1  0  0  0
 61135  1  0  0  0
 61136  1  0  0  0
 62137  1  0  0  0
 62138  1  0  0  0
 62139  1  0  0  0
 63 65  1  0  0  0
 63140  1  0  0  0
 63141  1  0  0  0
 63142  1  0  0  0
 64143  1  0  0  0
 65144  1  0  0  0
 68 83  1  0  0  0
 71 72  2  0  0  0
 71 74  1  0  0  0
 71145  1  0  0  0
 72 73  1  0  0  0
 72 82  1  0  0  0
 73 75  2  0  0  0
 73 80  1  0  0  0
 74 81  1  0  0  0
 74 84  2  0  0  0
 75 83  1  0  0  0
 75 84  1  0  0  0
 76 77  1  0  0  0
 76 78  1  0  0  0
 76146  1  0  0  0
 76147  1  0  0  0
 77 79  1  0  0  0
 77148  1  0  0  0
 77149  1  0  0  0
 78 79  1  0  0  0
 78150  1  0  0  0
 78151  1  0  0  0
 79 82  1  0  0  0
 79 85  1  0  0  0
 80152  1  0  0  0
 80153  1  0  0  0
 80154  1  0  0  0
 81155  1  0  0  0
 81156  1  0  0  0
 81157  1  0  0  0
 82158  1  0  0  0
 82159  1  0  0  0
 83160  1  0  0  0
 83161  1  0  0  0
 85162  1  0  0  0
M  ISO  4   1 100  68 101  83 101  85 100
M  END
> <chiral flag>
0

> <version>
0

> <s_m_source_file>
/data/baiqing/PycharmProjects/Reinvent-master-3.2/result/LINK_invent/BTK/process_docking_weight1_custom_sum_contain_oxygen_bond_distance_aromatic_linkinvent_7_9_3/rearranged_h_0171.sdf

> <i_m_source_file_index>
9

> <r_mmod_Potential_Energy-OPLS-2005>
643.876403808594

> <r_mmod_Stretch_Energy-OPLS-2005>
328.365386962891

> <r_mmod_Bend_Energy-OPLS-2005>
344.347320556641

> <r_mmod_Torsional_Energy-OPLS-2005>
257.329437255859

> <r_mmod_Improper_Torsional_Energy-OPLS-2005>
7.21106576919556

> <r_mmod_Van_der_Waal_Energy-OPLS-2005>
123.768707275391

> <r_mmod_Electrostatic_Energy-OPLS-2005>
-424.49853515625

> <r_mmod_Solvation_Energy-OPLS-2005>
-232.842514038086

> <b_mmod_Minimization_Converged-OPLS-2005>
0

> <r_mmod_RMS_Derivative-OPLS-2005>
2.91930294036865

$$$$
9
                    3D
 Structure written by MMmdl.
168177  0  0  1  0            999 V2000
  -30.6868  -14.6087   20.5164 C   0  0  0  0  0  0
  -30.4255  -12.3801   19.4503 C   0  0  0  0  0  0
  -29.5005  -12.5003   18.2222 C   0  0  0  0  0  0
  -28.0269  -12.3384   18.6403 C   0  0  0  0  0  0
  -27.6513  -13.2220   19.8597 C   0  0  2  0  0  0
  -28.6980  -13.1054   20.9907 C   0  0  0  0  0  0
  -25.2555  -13.8188   20.5702 C   0  0  0  0  0  0
  -24.1823  -13.0446   20.9200 C   0  0  0  0  0  0
  -24.6395  -11.6925   20.8742 C   0  0  0  0  0  0
  -23.9069  -10.4302   21.0406 C   0  0  0  0  0  0
  -24.3613   -9.4216   21.9188 C   0  0  0  0  0  0
  -23.6288   -8.2251   22.0760 C   0  0  0  0  0  0
  -22.4270   -8.0288   21.3549 C   0  0  0  0  0  0
  -21.9914   -9.0263   20.4646 C   0  0  0  0  0  0
  -22.7243  -10.2141   20.3056 C   0  0  0  0  0  0
  -21.6851   -6.0740   22.5284 C   0  0  0  0  0  0
  -21.4015   -6.5645   23.8214 C   0  0  0  0  0  0
  -21.3661   -5.6797   24.9179 C   0  0  0  0  0  0
  -21.6040   -4.3057   24.7230 C   0  0  0  0  0  0
  -21.8818   -3.8154   23.4343 C   0  0  0  0  0  0
  -21.9191   -4.6969   22.3398 C   0  0  0  0  0  0
  -22.7843  -13.5231   21.1857 C   0  0  0  0  0  0
  -22.1661   -4.2153   21.0978 F   0  0  0  0  0  0
  -21.5624   -3.4537   25.7748 F   0  0  0  0  0  0
  -30.0135  -13.4202   20.4137 N   0  0  0  0  0  0
  -26.2987  -12.9388   20.3323 N   0  0  0  0  0  0
  -25.9327  -11.6541   20.5766 N   0  0  0  0  0  0
  -22.0485  -12.8222   22.0412 N   0  0  0  0  0  0
  -25.4263  -15.1905   20.4131 N   0  0  0  0  0  0
  -31.8572  -14.7120   20.1461 O   0  0  0  0  0  0
  -21.6638   -6.8884   21.4249 O   0  0  0  0  0  0
  -22.3535  -14.5541   20.6707 O   0  0  0  0  0  0
  -24.6242  -31.8631   23.2052 C   0  0  0  0  0  0
  -25.9103  -32.4802   23.8376 C   0  0  1  0  0  0
  -27.2239  -27.3375   20.1161 C   0  0  0  0  0  0
  -25.5933  -33.8599   24.2306 N   0  0  0  0  0  0
  -23.4177  -30.4838   21.5490 C   0  0  2  0  0  0
  -24.8662  -28.9457   20.1106 C   0  0  0  0  0  0
  -22.7473  -29.4619   22.4975 C   0  0  0  0  0  0
  -18.0283  -28.1364   22.8478 C   0  0  0  0  0  0
  -24.1493  -36.7294   23.2641 C   0  0  0  0  0  0
  -25.9562  -30.7979   21.3751 C   0  0  0  0  0  0
  -26.0346  -29.4264   20.7182 C   0  0  0  0  0  0
  -27.2195  -28.6331   20.7150 C   0  0  0  0  0  0
  -26.0407  -26.9155   19.4693 C   0  0  0  0  0  0
  -24.8701  -27.6943   19.4770 C   0  0  0  0  0  0
  -23.6311  -29.8198   20.1636 C   0  0  0  0  0  0
  -25.4124  -36.3091   24.0323 C   0  0  1  0  0  0
  -20.5879  -28.3673   23.1292 C   0  0  2  0  0  0
  -20.6777  -26.9406   22.5397 C   0  0  0  0  0  0
  -19.5748  -26.6374   21.5194 C   0  0  0  0  0  0
  -18.1929  -26.7911   22.1599 C   0  0  0  0  0  0
  -19.1532  -28.8837   23.2867 C   0  0  0  0  0  0
  -18.9464  -30.1438   23.8876 C   0  0  0  0  0  0
  -17.6472  -30.6585   24.0539 C   0  0  0  0  0  0
  -25.9052  -34.9462   23.5113 C   0  0  0  0  0  0
  -16.5365  -29.9080   23.6314 C   0  0  0  0  0  0
  -16.7273  -28.6484   23.0362 C   0  0  0  0  0  0
  -26.4501  -31.6605   25.0735 C   0  0  0  0  0  0
  -25.3735  -31.3705   26.1457 C   0  0  0  0  0  0
  -27.0394  -30.3062   24.6155 C   0  0  0  0  0  0
  -27.6051  -32.4354   25.7517 C   0  0  0  0  0  0
  -27.5588  -37.1809   24.8469 C   0  0  0  0  0  0
  -21.4184  -29.3041   22.3710 N   0  0  0  0  0  0
  -26.4303  -37.3783   23.9409 N   0  0  0  0  0  0
  -24.6845  -31.0639   22.1011 N   0  0  0  0  0  0
  -23.4195  -28.8144   23.3043 O   0  0  0  0  0  0
  -28.3061  -26.4510   20.1630 O   0  0  0  0  0  0
  -26.5605  -34.8919   22.4668 O   0  0  0  0  0  0
  -23.5406  -32.1441   23.7367 O   0  0  0  0  0  0
  -29.7649  -21.1678   20.6529 C   0  0  0  0  0  0
  -29.3215  -21.7321   19.4257 C   0  0  0  0  0  0
  -28.8099  -23.0797   19.4303 C   0  0  0  0  0  0
  -29.7236  -22.0123   21.7630 C   0  0  0  0  0  0
  -28.7889  -23.8452   20.6411 C   0  0  0  0  0  0
  -30.2900  -21.3525   22.9870 C   0  0  0  0  0  0
  -30.4543  -19.8784   22.5605 C   0  0  0  0  0  0
  -30.4655  -19.8001   21.0014 C   0  0  2  0  0  0
  -29.3784  -20.9313   18.1332 C   0  0  0  0  0  0
  -28.2558  -23.6767   18.1406 C   0  0  0  0  0  0
  -31.9298  -19.9035   20.5225 C   0  0  0  0  0  0
  -28.3244  -18.3259   20.5880 C   0  0  0  0  0  0
  -27.9857  -25.1852   20.8561 C   0  0  0  0  0  0
  -30.5278  -17.0883   21.1819 C   0  0  0  0  0  0
  -29.8604  -18.3827   20.5179 C   0  0  2  0  0  0
  -29.2677  -23.2883   21.7865 N   0  0  0  0  0  0
  -29.9808  -15.7170   20.8885 N   0  0  0  0  0  0
  -31.4683  -12.4809   19.1453 H   0  0  0  0  0  0
  -30.3407  -11.3905   19.9019 H   0  0  0  0  0  0
  -29.7620  -11.7475   17.4776 H   0  0  0  0  0  0
  -29.6442  -13.4709   17.7440 H   0  0  0  0  0  0
  -27.8715  -11.2868   18.8851 H   0  0  0  0  0  0
  -27.3674  -12.5525   17.7991 H   0  0  0  0  0  0
  -27.6666  -14.2528   19.5069 H   0  0  0  0  0  0
  -28.7027  -12.0989   21.4119 H   0  0  0  0  0  0
  -28.4509  -13.7757   21.8155 H   0  0  0  0  0  0
  -25.2754   -9.5695   22.4772 H   0  0  0  0  0  0
  -24.0006   -7.4646   22.7481 H   0  0  0  0  0  0
  -21.0856   -8.8772   19.8945 H   0  0  0  0  0  0
  -22.3701  -10.9674   19.6169 H   0  0  0  0  0  0
  -21.2014   -7.6156   23.9723 H   0  0  0  0  0  0
  -21.1482   -6.0524   25.9083 H   0  0  0  0  0  0
  -22.0594   -2.7614   23.2845 H   0  0  0  0  0  0
  -22.4101  -11.9875   22.4783 H   0  0  0  0  0  0
  -21.1104  -13.1256   22.2628 H   0  0  0  0  0  0
  -24.6594  -15.8444   20.5235 H   0  0  0  0  0  0
  -26.2787  -15.6318   20.0930 H   0  0  0  0  0  0
  -26.7160  -32.5499   23.1118 H   0  0  0  0  0  0
  -25.0143  -33.9748   25.0494 H   0  0  0  0  0  0
  -22.7088  -31.3017   21.4081 H   0  0  0  0  0  0
  -23.3747  -35.9629   23.3302 H   0  0  0  0  0  0
  -24.3572  -36.8935   22.2056 H   0  0  0  0  0  0
  -23.7249  -37.6490   23.6676 H   0  0  0  0  0  0
  -26.0811  -31.5609   20.6043 H   0  0  0  0  0  0
  -26.8372  -30.8529   22.0021 H   0  0  0  0  0  0
  -28.1130  -28.9927   21.2068 H   0  0  0  0  0  0
  -26.0075  -25.9583   18.9697 H   0  0  0  0  0  0
  -23.9769  -27.3232   18.9918 H   0  0  0  0  0  0
  -23.7421  -30.5960   19.4061 H   0  0  0  0  0  0
  -22.7521  -29.2434   19.8653 H   0  0  0  0  0  0
  -25.1288  -36.1950   25.0807 H   0  0  0  0  0  0
  -20.9941  -28.3251   24.1418 H   0  0  0  0  0  0
  -20.5703  -26.2288   23.3591 H   0  0  0  0  0  0
  -21.6663  -26.7463   22.1194 H   0  0  0  0  0  0
  -19.6914  -25.6264   21.1267 H   0  0  0  0  0  0
  -19.6674  -27.3157   20.6696 H   0  0  0  0  0  0
  -17.4199  -26.6642   21.3993 H   0  0  0  0  0  0
  -18.0310  -26.0041   22.8976 H   0  0  0  0  0  0
  -19.7957  -30.7233   24.2255 H   0  0  0  0  0  0
  -17.5051  -31.6274   24.5137 H   0  0  0  0  0  0
  -15.5361  -30.2994   23.7655 H   0  0  0  0  0  0
  -15.8663  -28.0806   22.7113 H   0  0  0  0  0  0
  -24.5925  -30.7027   25.7798 H   0  0  0  0  0  0
  -24.8877  -32.2845   26.4875 H   0  0  0  0  0  0
  -25.8059  -30.8907   27.0245 H   0  0  0  0  0  0
  -26.2981  -29.6772   24.1208 H   0  0  0  0  0  0
  -27.4188  -29.7339   25.4631 H   0  0  0  0  0  0
  -27.8794  -30.4403   23.9335 H   0  0  0  0  0  0
  -27.2666  -33.3683   26.2032 H   0  0  0  0  0  0
  -28.3891  -32.6879   25.0368 H   0  0  0  0  0  0
  -28.0679  -31.8520   26.5479 H   0  0  0  0  0  0
  -28.2601  -38.0120   24.7557 H   0  0  0  0  0  0
  -28.1094  -36.2643   24.6267 H   0  0  0  0  0  0
  -27.2280  -37.1453   25.8866 H   0  0  0  0  0  0
  -20.9370  -29.8822   21.6959 H   0  0  0  0  0  0
  -26.0178  -38.2854   24.1404 H   0  0  0  0  0  0
  -29.6285  -21.4621   23.8476 H   0  0  0  0  0  0
  -31.2551  -21.7995   23.2288 H   0  0  0  0  0  0
  -29.5653  -19.3640   22.9233 H   0  0  0  0  0  0
  -31.3040  -19.3918   23.0411 H   0  0  0  0  0  0
  -30.0873  -20.1096   18.1846 H   0  0  0  0  0  0
  -29.6966  -21.5522   17.2972 H   0  0  0  0  0  0
  -28.3977  -20.5185   17.9001 H   0  0  0  0  0  0
  -27.4657  -23.0418   17.7363 H   0  0  0  0  0  0
  -29.0416  -23.7698   17.3898 H   0  0  0  0  0  0
  -27.8366  -24.6714   18.2785 H   0  0  0  0  0  0
  -32.4018  -20.8255   20.8644 H   0  0  0  0  0  0
  -32.0019  -19.8860   19.4360 H   0  0  0  0  0  0
  -32.5467  -19.0879   20.8969 H   0  0  0  0  0  0
  -27.8713  -19.1860   20.0959 H   0  0  0  0  0  0
  -27.9657  -18.3009   21.6156 H   0  0  0  0  0  0
  -27.9446  -17.4380   20.0843 H   0  0  0  0  0  0
  -28.0410  -25.4306   21.9177 H   0  0  0  0  0  0
  -26.9457  -24.8988   20.7049 H   0  0  0  0  0  0
  -30.4800  -17.1847   22.2661 H   0  0  0  0  0  0
  -31.5928  -17.0932   20.9491 H   0  0  0  0  0  0
  -30.0916  -18.2986   19.4563 H   0  0  0  0  0  0
  -29.0080  -15.5659   21.1080 H   0  0  0  0  0  0
  1 25  1  0  0  0
  1 30  2  0  0  0
  1 87  1  0  0  0
  2  3  1  0  0  0
  2 25  1  0  0  0
  2 88  1  0  0  0
  2 89  1  0  0  0
  3  4  1  0  0  0
  3 90  1  0  0  0
  3 91  1  0  0  0
  4  5  1  0  0  0
  4 92  1  0  0  0
  4 93  1  0  0  0
  5  6  1  0  0  0
  5 26  1  0  0  0
  5 94  1  0  0  0
  6 25  1  0  0  0
  6 95  1  0  0  0
  6 96  1  0  0  0
  7  8  2  0  0  0
  7 26  1  0  0  0
  7 29  1  0  0  0
  8  9  1  0  0  0
  8 22  1  0  0  0
  9 10  1  0  0  0
  9 27  2  0  0  0
 10 11  2  0  0  0
 10 15  1  0  0  0
 11 12  1  0  0  0
 11 97  1  0  0  0
 12 13  2  0  0  0
 12 98  1  0  0  0
 13 14  1  0  0  0
 13 31  1  0  0  0
 14 15  2  0  0  0
 14 99  1  0  0  0
 15100  1  0  0  0
 16 17  2  0  0  0
 16 21  1  0  0  0
 16 31  1  0  0  0
 17 18  1  0  0  0
 17101  1  0  0  0
 18 19  2  0  0  0
 18102  1  0  0  0
 19 20  1  0  0  0
 19 24  1  0  0  0
 20 21  2  0  0  0
 20103  1  0  0  0
 21 23  1  0  0  0
 22 28  1  0  0  0
 22 32  2  0  0  0
 26 27  1  0  0  0
 28104  1  0  0  0
 28105  1  0  0  0
 29106  1  0  0  0
 29107  1  0  0  0
 33 34  1  0  0  0
 33 66  1  0  0  0
 33 70  2  0  0  0
 34 36  1  0  0  0
 34 59  1  0  0  0
 34108  1  0  0  0
 35 44  2  0  0  0
 35 45  1  0  0  0
 35 68  1  0  0  0
 36 56  1  0  0  0
 36109  1  0  0  0
 37 39  1  0  0  0
 37 47  1  0  0  0
 37 66  1  0  0  0
 37110  1  0  0  0
 38 43  2  0  0  0
 38 46  1  0  0  0
 38 47  1  0  0  0
 39 64  1  0  0  0
 39 67  2  0  0  0
 40 52  1  0  0  0
 40 53  2  0  0  0
 40 58  1  0  0  0
 41111  1  0  0  0
 41112  1  0  0  0
 41113  1  0  0  0
 41 48  1  0  0  0
 42 43  1  0  0  0
 42 66  1  0  0  0
 42114  1  0  0  0
 42115  1  0  0  0
 43 44  1  0  0  0
 44116  1  0  0  0
 45 46  2  0  0  0
 45117  1  0  0  0
 46118  1  0  0  0
 47119  1  0  0  0
 47120  1  0  0  0
 48 56  1  0  0  0
 48 65  1  0  0  0
 48121  1  0  0  0
 49 50  1  0  0  0
 49 53  1  0  0  0
 49 64  1  0  0  0
 49122  1  0  0  0
 50 51  1  0  0  0
 50123  1  0  0  0
 50124  1  0  0  0
 51 52  1  0  0  0
 51125  1  0  0  0
 51126  1  0  0  0
 52127  1  0  0  0
 52128  1  0  0  0
 53 54  1  0  0  0
 54 55  2  0  0  0
 54129  1  0  0  0
 55 57  1  0  0  0
 55130  1  0  0  0
 56 69  2  0  0  0
 57 58  2  0  0  0
 57131  1  0  0  0
 58132  1  0  0  0
 59 60  1  0  0  0
 59 61  1  0  0  0
 59 62  1  0  0  0
 60133  1  0  0  0
 60134  1  0  0  0
 60135  1  0  0  0
 61136  1  0  0  0
 61137  1  0  0  0
 61138  1  0  0  0
 62139  1  0  0  0
 62140  1  0  0  0
 62141  1  0  0  0
 63 65  1  0  0  0
 63142  1  0  0  0
 63143  1  0  0  0
 63144  1  0  0  0
 64145  1  0  0  0
 65146  1  0  0  0
 68 83  1  0  0  0
 71 72  2  0  0  0
 71 74  1  0  0  0
 71 78  1  0  0  0
 72 73  1  0  0  0
 72 79  1  0  0  0
 73 75  2  0  0  0
 73 80  1  0  0  0
 74 76  1  0  0  0
 74 86  2  0  0  0
 75 83  1  0  0  0
 75 86  1  0  0  0
 76 77  1  0  0  0
 76147  1  0  0  0
 76148  1  0  0  0
 77 78  1  0  0  0
 77149  1  0  0  0
 77150  1  0  0  0
 78 81  1  0  0  0
 78 85  1  0  0  0
 79151  1  0  0  0
 79152  1  0  0  0
 79153  1  0  0  0
 80154  1  0  0  0
 80155  1  0  0  0
 80156  1  0  0  0
 81157  1  0  0  0
 81158  1  0  0  0
 81159  1  0  0  0
 82160  1  0  0  0
 82161  1  0  0  0
 82162  1  0  0  0
 82 85  1  0  0  0
 83163  1  0  0  0
 83164  1  0  0  0
 84 85  1  0  0  0
 84 87  1  0  0  0
 84165  1  0  0  0
 84166  1  0  0  0
 85167  1  0  0  0
 87168  1  0  0  0
M  ISO  4   1 100  68 101  83 101  87 100
M  END
> <chiral flag>
0

> <version>
0

> <s_m_source_file>
/data/baiqing/PycharmProjects/Reinvent-master-3.2/result/LINK_invent/BTK/process_docking_weight1_custom_sum_contain_oxygen_bond_distance_aromatic_linkinvent_7_9_3/rearranged_h_0171.sdf

> <i_m_source_file_index>
10

> <r_mmod_Potential_Energy-OPLS-2005>
-12.261212348938

> <r_mmod_Stretch_Energy-OPLS-2005>
84.2933197021484

> <r_mmod_Bend_Energy-OPLS-2005>
196.48908996582

> <r_mmod_Torsional_Energy-OPLS-2005>
258.438446044922

> <r_mmod_Improper_Torsional_Energy-OPLS-2005>
5.62757873535156

> <r_mmod_Van_der_Waal_Energy-OPLS-2005>
145.22151184082

> <r_mmod_Electrostatic_Energy-OPLS-2005>
-527.4814453125

> <r_mmod_Solvation_Energy-OPLS-2005>
-220.002014160156

> <b_mmod_Minimization_Converged-OPLS-2005>
0

> <r_mmod_RMS_Derivative-OPLS-2005>
2.15838861465454

$$$$
10
                    3D
 Structure written by MMmdl.
165174  0  0  1  0            999 V2000
  -30.6444  -14.8613   20.4297 C   0  0  0  0  0  0
  -30.4143  -12.5390   19.4802 C   0  0  0  0  0  0
  -29.4986  -12.5048   18.2400 C   0  0  0  0  0  0
  -28.0374  -12.2894   18.6711 C   0  0  0  0  0  0
  -27.6195  -13.2308   19.8294 C   0  0  2  0  0  0
  -28.6695  -13.2938   20.9607 C   0  0  0  0  0  0
  -25.2446  -13.8169   20.5729 C   0  0  0  0  0  0
  -24.1754  -13.0417   20.9245 C   0  0  0  0  0  0
  -24.6353  -11.6894   20.8784 C   0  0  0  0  0  0
  -23.9041  -10.4276   21.0431 C   0  0  0  0  0  0
  -24.3602   -9.4192   21.9199 C   0  0  0  0  0  0
  -23.6279   -8.2224   22.0760 C   0  0  0  0  0  0
  -22.4261   -8.0269   21.3549 C   0  0  0  0  0  0
  -21.9898   -9.0239   20.4648 C   0  0  0  0  0  0
  -22.7222  -10.2118   20.3066 C   0  0  0  0  0  0
  -21.6847   -6.0727   22.5279 C   0  0  0  0  0  0
  -21.4008   -6.5635   23.8211 C   0  0  0  0  0  0
  -21.3659   -5.6791   24.9176 C   0  0  0  0  0  0
  -21.6047   -4.3053   24.7227 C   0  0  0  0  0  0
  -21.8822   -3.8143   23.4349 C   0  0  0  0  0  0
  -21.9187   -4.6957   22.3403 C   0  0  0  0  0  0
  -22.7781  -13.5203   21.1893 C   0  0  0  0  0  0
  -22.1661   -4.2143   21.0982 F   0  0  0  0  0  0
  -21.5630   -3.4539   25.7742 F   0  0  0  0  0  0
  -29.9503  -13.6603   20.3441 N   0  0  0  0  0  0
  -26.2841  -12.9363   20.3268 N   0  0  0  0  0  0
  -25.9276  -11.6515   20.5786 N   0  0  0  0  0  0
  -22.0433  -12.8198   22.0450 N   0  0  0  0  0  0
  -25.4127  -15.1897   20.4152 N   0  0  0  0  0  0
  -31.8576  -14.8186   20.2016 O   0  0  0  0  0  0
  -21.6630   -6.8864   21.4238 O   0  0  0  0  0  0
  -22.3478  -14.5512   20.6730 O   0  0  0  0  0  0
  -24.6383  -31.8496   23.1940 C   0  0  0  0  0  0
  -25.9186  -32.4722   23.8307 C   0  0  1  0  0  0
  -27.2185  -27.1979   20.1406 C   0  0  0  0  0  0
  -25.5952  -33.8527   24.2226 N   0  0  0  0  0  0
  -23.4388  -30.4694   21.5384 C   0  0  2  0  0  0
  -24.8873  -28.9039   20.1141 C   0  0  0  0  0  0
  -22.7537  -29.4568   22.4892 C   0  0  0  0  0  0
  -18.0301  -28.1379   22.8473 C   0  0  0  0  0  0
  -24.1483  -36.7248   23.2646 C   0  0  0  0  0  0
  -25.9909  -30.7400   21.3859 C   0  0  0  0  0  0
  -26.0626  -29.3568   20.7275 C   0  0  0  0  0  0
  -27.2333  -28.5197   20.7238 C   0  0  0  0  0  0
  -26.0219  -26.8327   19.4888 C   0  0  0  0  0  0
  -24.8748  -27.6515   19.4816 C   0  0  0  0  0  0
  -23.6625  -29.8004   20.1568 C   0  0  0  0  0  0
  -25.4116  -36.3040   24.0320 C   0  0  1  0  0  0
  -20.5910  -28.3700   23.1242 C   0  0  2  0  0  0
  -20.6782  -26.9410   22.5398 C   0  0  0  0  0  0
  -19.5758  -26.6369   21.5201 C   0  0  0  0  0  0
  -18.1938  -26.7920   22.1612 C   0  0  0  0  0  0
  -19.1557  -28.8856   23.2849 C   0  0  0  0  0  0
  -18.9483  -30.1451   23.8874 C   0  0  0  0  0  0
  -17.6481  -30.6578   24.0551 C   0  0  0  0  0  0
  -25.9070  -34.9420   23.5077 C   0  0  0  0  0  0
  -16.5368  -29.9069   23.6335 C   0  0  0  0  0  0
  -16.7289  -28.6483   23.0363 C   0  0  0  0  0  0
  -26.4530  -31.6578   25.0730 C   0  0  0  0  0  0
  -25.3729  -31.3722   26.1430 C   0  0  0  0  0  0
  -27.0424  -30.2998   24.6275 C   0  0  0  0  0  0
  -27.6056  -32.4356   25.7505 C   0  0  0  0  0  0
  -27.5569  -37.1776   24.8476 C   0  0  0  0  0  0
  -21.4243  -29.3036   22.3632 N   0  0  0  0  0  0
  -26.4283  -37.3750   23.9417 N   0  0  0  0  0  0
  -24.7085  -31.0398   22.0946 N   0  0  0  0  0  0
  -23.4202  -28.8117   23.3026 O   0  0  0  0  0  0
  -28.2898  -26.2550   20.1513 O   0  0  0  0  0  0
  -26.5645  -34.8907   22.4650 O   0  0  0  0  0  0
  -23.5515  -32.1365   23.7187 O   0  0  0  0  0  0
  -29.4629  -20.9469   19.9638 C   0  0  0  0  0  0
  -28.7426  -22.1110   20.5273 C   0  0  0  0  0  0
  -28.8337  -23.4897   19.9907 C   0  0  0  0  0  0
  -30.2633  -21.3044   18.8404 C   0  0  0  0  0  0
  -29.6693  -23.5986   18.8602 C   0  0  0  0  0  0
  -28.7270  -18.2567   19.6783 C   0  0  0  0  0  0
  -30.7972  -18.6916   20.8755 C   0  0  0  0  0  0
  -28.7702  -16.7192   20.1737 C   0  0  0  0  0  0
  -30.7521  -17.2091   21.4610 C   0  0  0  0  0  0
  -29.4322  -19.3931   20.5270 C   0  0  0  0  0  0
  -27.8598  -21.8594   21.7371 C   0  0  0  0  0  0
  -31.1698  -20.3440   18.0885 C   0  0  0  0  0  0
  -29.8797  -24.9089   18.1229 C   0  0  0  0  0  0
  -28.0199  -24.7952   20.5379 C   0  0  0  0  0  0
  -30.3427  -22.5554   18.3320 N   0  0  0  0  0  0
  -30.0490  -16.1265   20.6910 N   0  0  0  0  0  0
  -31.4534  -12.6492   19.1661 H   0  0  0  0  0  0
  -30.3683  -11.5930   20.0226 H   0  0  0  0  0  0
  -29.8089  -11.7124   17.5571 H   0  0  0  0  0  0
  -29.5871  -13.4422   17.6881 H   0  0  0  0  0  0
  -27.9389  -11.2505   18.9889 H   0  0  0  0  0  0
  -27.3667  -12.4115   17.8200 H   0  0  0  0  0  0
  -27.5589  -14.2117   19.3710 H   0  0  0  0  0  0
  -28.7464  -12.3390   21.4824 H   0  0  0  0  0  0
  -28.3820  -14.0360   21.7072 H   0  0  0  0  0  0
  -25.2739   -9.5677   22.4783 H   0  0  0  0  0  0
  -23.9992   -7.4621   22.7480 H   0  0  0  0  0  0
  -21.0831   -8.8757   19.8947 H   0  0  0  0  0  0
  -22.3679  -10.9665   19.6182 H   0  0  0  0  0  0
  -21.1999   -7.6144   23.9712 H   0  0  0  0  0  0
  -21.1483   -6.0522   25.9081 H   0  0  0  0  0  0
  -22.0598   -2.7605   23.2852 H   0  0  0  0  0  0
  -22.4044  -11.9852   22.4826 H   0  0  0  0  0  0
  -21.1056  -13.1231   22.2667 H   0  0  0  0  0  0
  -24.6454  -15.8427   20.5311 H   0  0  0  0  0  0
  -26.2649  -15.6314   20.0976 H   0  0  0  0  0  0
  -26.7247  -32.5355   23.1034 H   0  0  0  0  0  0
  -25.0094  -33.9650   25.0369 H   0  0  0  0  0  0
  -22.7378  -31.2929   21.3865 H   0  0  0  0  0  0
  -23.3753  -35.9575   23.3307 H   0  0  0  0  0  0
  -24.3564  -36.8895   22.2066 H   0  0  0  0  0  0
  -23.7241  -37.6436   23.6693 H   0  0  0  0  0  0
  -26.1458  -31.4973   20.6167 H   0  0  0  0  0  0
  -26.8623  -30.7854   22.0273 H   0  0  0  0  0  0
  -28.1341  -28.8631   21.2133 H   0  0  0  0  0  0
  -25.9592  -25.8822   18.9790 H   0  0  0  0  0  0
  -23.9778  -27.3021   18.9883 H   0  0  0  0  0  0
  -23.7967  -30.5749   19.4009 H   0  0  0  0  0  0
  -22.7790  -29.2411   19.8467 H   0  0  0  0  0  0
  -25.1307  -36.1860   25.0812 H   0  0  0  0  0  0
  -21.0002  -28.3277   24.1363 H   0  0  0  0  0  0
  -20.5666  -26.2312   23.3610 H   0  0  0  0  0  0
  -21.6651  -26.7408   22.1207 H   0  0  0  0  0  0
  -19.6916  -25.6272   21.1250 H   0  0  0  0  0  0
  -19.6694  -27.3156   20.6712 H   0  0  0  0  0  0
  -17.4211  -26.6664   21.4011 H   0  0  0  0  0  0
  -18.0334  -26.0062   22.9008 H   0  0  0  0  0  0
  -19.7964  -30.7265   24.2235 H   0  0  0  0  0  0
  -17.5044  -31.6262   24.5145 H   0  0  0  0  0  0
  -15.5370  -30.2967   23.7670 H   0  0  0  0  0  0
  -15.8686  -28.0793   22.7104 H   0  0  0  0  0  0
  -24.5924  -30.7051   25.7744 H   0  0  0  0  0  0
  -24.8887  -32.2887   26.4814 H   0  0  0  0  0  0
  -25.8042  -30.8925   27.0229 H   0  0  0  0  0  0
  -26.3044  -29.6692   24.1307 H   0  0  0  0  0  0
  -27.4109  -29.7317   25.4827 H   0  0  0  0  0  0
  -27.8917  -30.4278   23.9559 H   0  0  0  0  0  0
  -27.2656  -33.3698   26.1988 H   0  0  0  0  0  0
  -28.3900  -32.6860   25.0349 H   0  0  0  0  0  0
  -28.0685  -31.8552   26.5499 H   0  0  0  0  0  0
  -28.2577  -38.0077   24.7525 H   0  0  0  0  0  0
  -28.1071  -36.2608   24.6304 H   0  0  0  0  0  0
  -27.2282  -37.1426   25.8876 H   0  0  0  0  0  0
  -20.9448  -29.8765   21.6833 H   0  0  0  0  0  0
  -26.0145  -38.2812   24.1437 H   0  0  0  0  0  0
  -27.6803  -18.5360   19.5509 H   0  0  0  0  0  0
  -29.1215  -18.2583   18.6665 H   0  0  0  0  0  0
  -31.4425  -18.6464   20.0039 H   0  0  0  0  0  0
  -31.3267  -19.3228   21.5896 H   0  0  0  0  0  0
  -28.4363  -16.1184   19.3320 H   0  0  0  0  0  0
  -28.0283  -16.5880   20.9617 H   0  0  0  0  0  0
  -30.2763  -17.2473   22.4412 H   0  0  0  0  0  0
  -31.7794  -16.9020   21.6650 H   0  0  0  0  0  0
  -28.8853  -19.4335   21.4683 H   0  0  0  0  0  0
  -27.1287  -21.0826   21.5149 H   0  0  0  0  0  0
  -27.3051  -22.7386   22.0582 H   0  0  0  0  0  0
  -28.4688  -21.5292   22.5785 H   0  0  0  0  0  0
  -30.7576  -19.3478   17.9837 H   0  0  0  0  0  0
  -32.1345  -20.2759   18.5904 H   0  0  0  0  0  0
  -31.3611  -20.6979   17.0742 H   0  0  0  0  0  0
  -28.9301  -25.3076   17.7660 H   0  0  0  0  0  0
  -30.5303  -24.7868   17.2559 H   0  0  0  0  0  0
  -30.3458  -25.6456   18.7767 H   0  0  0  0  0  0
  -28.1587  -24.7902   21.6186 H   0  0  0  0  0  0
  -26.9660  -24.5609   20.3994 H   0  0  0  0  0  0
  1 25  1  0  0  0
  1 30  2  0  0  0
  1 86  1  0  0  0
  2  3  1  0  0  0
  2 25  1  0  0  0
  2 87  1  0  0  0
  2 88  1  0  0  0
  3  4  1  0  0  0
  3 89  1  0  0  0
  3 90  1  0  0  0
  4  5  1  0  0  0
  4 91  1  0  0  0
  4 92  1  0  0  0
  5  6  1  0  0  0
  5 26  1  0  0  0
  5 93  1  0  0  0
  6 25  1  0  0  0
  6 94  1  0  0  0
  6 95  1  0  0  0
  7  8  2  0  0  0
  7 26  1  0  0  0
  7 29  1  0  0  0
  8  9  1  0  0  0
  8 22  1  0  0  0
  9 10  1  0  0  0
  9 27  2  0  0  0
 10 11  2  0  0  0
 10 15  1  0  0  0
 11 12  1  0  0  0
 11 96  1  0  0  0
 12 13  2  0  0  0
 12 97  1  0  0  0
 13 14  1  0  0  0
 13 31  1  0  0  0
 14 15  2  0  0  0
 14 98  1  0  0  0
 15 99  1  0  0  0
 16 17  2  0  0  0
 16 21  1  0  0  0
 16 31  1  0  0  0
 17 18  1  0  0  0
 17100  1  0  0  0
 18 19  2  0  0  0
 18101  1  0  0  0
 19 20  1  0  0  0
 19 24  1  0  0  0
 20 21  2  0  0  0
 20102  1  0  0  0
 21 23  1  0  0  0
 22 28  1  0  0  0
 22 32  2  0  0  0
 26 27  1  0  0  0
 28103  1  0  0  0
 28104  1  0  0  0
 29105  1  0  0  0
 29106  1  0  0  0
 33 34  1  0  0  0
 33 66  1  0  0  0
 33 70  2  0  0  0
 34 36  1  0  0  0
 34 59  1  0  0  0
 34107  1  0  0  0
 35 44  2  0  0  0
 35 45  1  0  0  0
 35 68  1  0  0  0
 36 56  1  0  0  0
 36108  1  0  0  0
 37 39  1  0  0  0
 37 47  1  0  0  0
 37 66  1  0  0  0
 37109  1  0  0  0
 38 43  2  0  0  0
 38 46  1  0  0  0
 38 47  1  0  0  0
 39 64  1  0  0  0
 39 67  2  0  0  0
 40 52  1  0  0  0
 40 53  2  0  0  0
 40 58  1  0  0  0
 41110  1  0  0  0
 41111  1  0  0  0
 41112  1  0  0  0
 41 48  1  0  0  0
 42 43  1  0  0  0
 42 66  1  0  0  0
 42113  1  0  0  0
 42114  1  0  0  0
 43 44  1  0  0  0
 44115  1  0  0  0
 45 46  2  0  0  0
 45116  1  0  0  0
 46117  1  0  0  0
 47118  1  0  0  0
 47119  1  0  0  0
 48 56  1  0  0  0
 48 65  1  0  0  0
 48120  1  0  0  0
 49 50  1  0  0  0
 49 53  1  0  0  0
 49 64  1  0  0  0
 49121  1  0  0  0
 50 51  1  0  0  0
 50122  1  0  0  0
 50123  1  0  0  0
 51 52  1  0  0  0
 51124  1  0  0  0
 51125  1  0  0  0
 52126  1  0  0  0
 52127  1  0  0  0
 53 54  1  0  0  0
 54 55  2  0  0  0
 54128  1  0  0  0
 55 57  1  0  0  0
 55129  1  0  0  0
 56 69  2  0  0  0
 57 58  2  0  0  0
 57130  1  0  0  0
 58131  1  0  0  0
 59 60  1  0  0  0
 59 61  1  0  0  0
 59 62  1  0  0  0
 60132  1  0  0  0
 60133  1  0  0  0
 60134  1  0  0  0
 61135  1  0  0  0
 61136  1  0  0  0
 61137  1  0  0  0
 62138  1  0  0  0
 62139  1  0  0  0
 62140  1  0  0  0
 63 65  1  0  0  0
 63141  1  0  0  0
 63142  1  0  0  0
 63143  1  0  0  0
 64144  1  0  0  0
 65145  1  0  0  0
 68 84  1  0  0  0
 71 72  2  0  0  0
 71 74  1  0  0  0
 71 80  1  0  0  0
 72 73  1  0  0  0
 72 81  1  0  0  0
 73 75  2  0  0  0
 73 84  1  0  0  0
 74 82  1  0  0  0
 74 85  2  0  0  0
 75 83  1  0  0  0
 75 85  1  0  0  0
 76 78  1  0  0  0
 76 80  1  0  0  0
 76146  1  0  0  0
 76147  1  0  0  0
 77 79  1  0  0  0
 77 80  1  0  0  0
 77148  1  0  0  0
 77149  1  0  0  0
 78 86  1  0  0  0
 78150  1  0  0  0
 78151  1  0  0  0
 79 86  1  0  0  0
 79152  1  0  0  0
 79153  1  0  0  0
 80154  1  0  0  0
 81155  1  0  0  0
 81156  1  0  0  0
 81157  1  0  0  0
 82158  1  0  0  0
 82159  1  0  0  0
 82160  1  0  0  0
 83161  1  0  0  0
 83162  1  0  0  0
 83163  1  0  0  0
 84164  1  0  0  0
 84165  1  0  0  0
M  ISO  4   1 100  68 101  84 101  86 100
M  END
> <chiral flag>
0

> <version>
0

> <s_m_source_file>
/data/baiqing/PycharmProjects/Reinvent-master-3.2/result/LINK_invent/BTK/process_docking_weight1_custom_sum_contain_oxygen_bond_distance_aromatic_linkinvent_7_9_3/rearranged_h_0171.sdf

> <i_m_source_file_index>
11

> <r_mmod_Potential_Energy-OPLS-2005>
426.871246337891

> <r_mmod_Stretch_Energy-OPLS-2005>
190.380416870117

> <r_mmod_Bend_Energy-OPLS-2005>
239.780776977539

> <r_mmod_Torsional_Energy-OPLS-2005>
337.630340576172

> <r_mmod_Improper_Torsional_Energy-OPLS-2005>
1.93758893013

> <r_mmod_Van_der_Waal_Energy-OPLS-2005>
145.806106567383

> <r_mmod_Electrostatic_Energy-OPLS-2005>
-418.221099853516

> <r_mmod_Solvation_Energy-OPLS-2005>
-212.324951171875

> <b_mmod_Minimization_Converged-OPLS-2005>
0

> <r_mmod_RMS_Derivative-OPLS-2005>
1.26584625244141

$$$$
11
                    3D
 Structure written by MMmdl.
174183  0  0  1  0            999 V2000
  -30.6897  -14.6778   20.4660 C   0  0  0  0  0  0
  -30.4245  -12.4200   19.4523 C   0  0  0  0  0  0
  -29.4933  -12.4705   18.2228 C   0  0  0  0  0  0
  -28.0281  -12.2608   18.6505 C   0  0  0  0  0  0
  -27.6263  -13.1733   19.8324 C   0  0  2  0  0  0
  -28.6873  -13.1659   20.9649 C   0  0  0  0  0  0
  -25.2487  -13.8010   20.5681 C   0  0  0  0  0  0
  -24.1748  -13.0349   20.9253 C   0  0  0  0  0  0
  -24.6284  -11.6811   20.8812 C   0  0  0  0  0  0
  -23.8950  -10.4237   21.0457 C   0  0  0  0  0  0
  -24.3536   -9.4169   21.9220 C   0  0  0  0  0  0
  -23.6246   -8.2197   22.0762 C   0  0  0  0  0  0
  -22.4238   -8.0230   21.3540 C   0  0  0  0  0  0
  -21.9845   -9.0195   20.4648 C   0  0  0  0  0  0
  -22.7147  -10.2087   20.3079 C   0  0  0  0  0  0
  -21.6834   -6.0702   22.5275 C   0  0  0  0  0  0
  -21.3994   -6.5608   23.8205 C   0  0  0  0  0  0
  -21.3656   -5.6771   24.9175 C   0  0  0  0  0  0
  -21.6049   -4.3036   24.7231 C   0  0  0  0  0  0
  -21.8824   -3.8123   23.4352 C   0  0  0  0  0  0
  -21.9194   -4.6935   22.3406 C   0  0  0  0  0  0
  -22.7796  -13.5218   21.1872 C   0  0  0  0  0  0
  -22.1670   -4.2123   21.0984 F   0  0  0  0  0  0
  -21.5637   -3.4520   25.7746 F   0  0  0  0  0  0
  -29.9955  -13.4922   20.3749 N   0  0  0  0  0  0
  -26.2845  -12.9092   20.3264 N   0  0  0  0  0  0
  -25.9186  -11.6313   20.5816 N   0  0  0  0  0  0
  -22.0384  -12.8271   22.0424 N   0  0  0  0  0  0
  -25.4130  -15.1723   20.4000 N   0  0  0  0  0  0
  -31.8930  -14.7119   20.2004 O   0  0  0  0  0  0
  -21.6613   -6.8827   21.4232 O   0  0  0  0  0  0
  -22.3534  -14.5529   20.6682 O   0  0  0  0  0  0
  -24.6227  -31.8617   23.2049 C   0  0  0  0  0  0
  -25.9091  -32.4787   23.8370 C   0  0  1  0  0  0
  -27.2327  -27.3505   20.1173 C   0  0  0  0  0  0
  -25.5921  -33.8586   24.2296 N   0  0  0  0  0  0
  -23.4144  -30.4849   21.5473 C   0  0  2  0  0  0
  -24.8624  -28.9438   20.1124 C   0  0  0  0  0  0
  -22.7457  -29.4633   22.4967 C   0  0  0  0  0  0
  -18.0277  -28.1376   22.8488 C   0  0  0  0  0  0
  -24.1488  -36.7295   23.2641 C   0  0  0  0  0  0
  -25.9522  -30.8039   21.3700 C   0  0  0  0  0  0
  -26.0286  -29.4338   20.7128 C   0  0  0  0  0  0
  -27.2159  -28.6491   20.7040 C   0  0  0  0  0  0
  -26.0415  -26.9031   19.4975 C   0  0  0  0  0  0
  -24.8696  -27.6828   19.4959 C   0  0  0  0  0  0
  -23.6261  -29.8166   20.1632 C   0  0  0  0  0  0
  -25.4111  -36.3089   24.0334 C   0  0  1  0  0  0
  -20.5873  -28.3673   23.1298 C   0  0  2  0  0  0
  -20.6768  -26.9404   22.5410 C   0  0  0  0  0  0
  -19.5745  -26.6378   21.5210 C   0  0  0  0  0  0
  -18.1923  -26.7924   22.1617 C   0  0  0  0  0  0
  -19.1528  -28.8843   23.2883 C   0  0  0  0  0  0
  -18.9453  -30.1453   23.8883 C   0  0  0  0  0  0
  -17.6453  -30.6585   24.0550 C   0  0  0  0  0  0
  -25.9044  -34.9456   23.5114 C   0  0  0  0  0  0
  -16.5342  -29.9076   23.6334 C   0  0  0  0  0  0
  -16.7264  -28.6494   23.0353 C   0  0  0  0  0  0
  -26.4490  -31.6584   25.0725 C   0  0  0  0  0  0
  -25.3736  -31.3703   26.1457 C   0  0  0  0  0  0
  -27.0329  -30.3016   24.6154 C   0  0  0  0  0  0
  -27.6059  -32.4309   25.7494 C   0  0  0  0  0  0
  -27.5579  -37.1799   24.8464 C   0  0  0  0  0  0
  -21.4173  -29.3034   22.3709 N   0  0  0  0  0  0
  -26.4294  -37.3779   23.9407 N   0  0  0  0  0  0
  -24.6816  -31.0659   22.0980 N   0  0  0  0  0  0
  -23.4199  -28.8174   23.3035 O   0  0  0  0  0  0
  -28.3721  -26.5397   20.1680 O   0  0  0  0  0  0
  -26.5608  -34.8921   22.4677 O   0  0  0  0  0  0
  -23.5400  -32.1402   23.7395 O   0  0  0  0  0  0
  -28.7195  -17.7395   19.7800 C   0  0  0  0  0  0
  -28.8018  -16.2204   19.9561 C   0  0  0  0  0  0
  -28.8567  -22.0986   21.5512 C   0  0  0  0  0  0
  -28.5686  -20.5664   21.4587 C   0  0  0  0  0  0
  -30.2308  -20.3895   19.7371 C   0  0  0  0  0  0
  -29.4669  -18.2638   20.9913 C   0  0  1  0  0  0
  -30.4801  -21.9452   19.8423 C   0  0  1  0  0  0
  -30.6226  -17.1900   21.1003 C   0  0  1  0  0  0
  -30.9572  -22.4356   18.4592 C   0  0  0  0  0  0
  -32.1230  -18.3773   22.8328 C   0  0  0  0  0  0
  -30.4148  -16.6807   23.6375 C   0  0  0  0  0  0
  -29.4444  -24.1861   20.4245 C   0  0  0  0  0  0
  -28.1932  -25.0835   20.0760 C   0  0  0  0  0  0
  -31.3393  -17.1027   22.4788 C   0  0  0  0  0  0
  -30.0137  -15.8658   20.7084 N   0  0  0  0  0  0
  -29.2657  -22.6990   20.2651 N   0  0  0  0  0  0
  -29.7471  -19.7669   21.0036 N   0  3  2  0  0  0
  -31.4638  -12.5277   19.1374 H   0  0  0  0  0  0
  -30.3618  -11.4492   19.9459 H   0  0  0  0  0  0
  -29.7824  -11.7066   17.4993 H   0  0  0  0  0  0
  -29.5977  -13.4302   17.7136 H   0  0  0  0  0  0
  -27.9132  -11.2158   18.9401 H   0  0  0  0  0  0
  -27.3584  -12.4172   17.8037 H   0  0  0  0  0  0
  -27.5583  -14.1425   19.3681 H   0  0  0  0  0  0
  -28.7289  -12.1877   21.4445 H   0  0  0  0  0  0
  -28.4228  -13.8776   21.7489 H   0  0  0  0  0  0
  -25.2681   -9.5679   22.4795 H   0  0  0  0  0  0
  -23.9966   -7.4588   22.7478 H   0  0  0  0  0  0
  -21.0778   -8.8696   19.8957 H   0  0  0  0  0  0
  -22.3597  -10.9621   19.6189 H   0  0  0  0  0  0
  -21.1969   -7.6115   23.9698 H   0  0  0  0  0  0
  -21.1474   -6.0502   25.9075 H   0  0  0  0  0  0
  -22.0610   -2.7589   23.2852 H   0  0  0  0  0  0
  -22.3942  -11.9942   22.4876 H   0  0  0  0  0  0
  -21.0998  -13.1331   22.2553 H   0  0  0  0  0  0
  -24.6381  -15.8175   20.5060 H   0  0  0  0  0  0
  -26.2453  -15.6081   20.0287 H   0  0  0  0  0  0
  -26.7158  -32.5468   23.1121 H   0  0  0  0  0  0
  -25.0090  -33.9736   25.0456 H   0  0  0  0  0  0
  -22.7060  -31.3038   21.4054 H   0  0  0  0  0  0
  -23.3751  -35.9625   23.3304 H   0  0  0  0  0  0
  -24.3580  -36.8912   22.2055 H   0  0  0  0  0  0
  -23.7243  -37.6501   23.6655 H   0  0  0  0  0  0
  -26.0782  -31.5692   20.6027 H   0  0  0  0  0  0
  -26.8341  -30.8520   21.9970 H   0  0  0  0  0  0
  -28.1119  -29.0229   21.1785 H   0  0  0  0  0  0
  -25.9893  -25.9388   19.0153 H   0  0  0  0  0  0
  -23.9751  -27.3006   19.0235 H   0  0  0  0  0  0
  -23.7348  -30.5899   19.4019 H   0  0  0  0  0  0
  -22.7488  -29.2375   19.8693 H   0  0  0  0  0  0
  -25.1289  -36.1941   25.0826 H   0  0  0  0  0  0
  -20.9957  -28.3237   24.1419 H   0  0  0  0  0  0
  -20.5680  -26.2278   23.3600 H   0  0  0  0  0  0
  -21.6635  -26.7450   22.1195 H   0  0  0  0  0  0
  -19.6907  -25.6286   21.1247 H   0  0  0  0  0  0
  -19.6693  -27.3183   20.6737 H   0  0  0  0  0  0
  -17.4202  -26.6682   21.4007 H   0  0  0  0  0  0
  -18.0314  -26.0060   22.9007 H   0  0  0  0  0  0
  -19.7929  -30.7274   24.2243 H   0  0  0  0  0  0
  -17.5009  -31.6268   24.5142 H   0  0  0  0  0  0
  -15.5342  -30.2967   23.7678 H   0  0  0  0  0  0
  -15.8665  -28.0812   22.7074 H   0  0  0  0  0  0
  -24.5906  -30.7061   25.7781 H   0  0  0  0  0  0
  -24.8930  -32.2859   26.4914 H   0  0  0  0  0  0
  -25.8069  -30.8855   27.0215 H   0  0  0  0  0  0
  -26.2888  -29.6766   24.1201 H   0  0  0  0  0  0
  -27.4065  -29.7270   25.4640 H   0  0  0  0  0  0
  -27.8744  -30.4311   23.9344 H   0  0  0  0  0  0
  -27.2679  -33.3610   26.2076 H   0  0  0  0  0  0
  -28.3870  -32.6864   25.0320 H   0  0  0  0  0  0
  -28.0728  -31.8428   26.5404 H   0  0  0  0  0  0
  -28.2595  -38.0099   24.7513 H   0  0  0  0  0  0
  -28.1074  -36.2628   24.6282 H   0  0  0  0  0  0
  -27.2294  -37.1445   25.8868 H   0  0  0  0  0  0
  -20.9352  -29.8749   21.6915 H   0  0  0  0  0  0
  -26.0176  -38.2858   24.1391 H   0  0  0  0  0  0
  -27.6902  -18.0961   19.7202 H   0  0  0  0  0  0
  -29.2234  -18.0079   18.8515 H   0  0  0  0  0  0
  -28.7887  -15.7569   18.9690 H   0  0  0  0  0  0
  -27.9479  -15.8991   20.5474 H   0  0  0  0  0  0
  -29.6204  -22.2790   22.3109 H   0  0  0  0  0  0
  -27.9541  -22.5996   21.9058 H   0  0  0  0  0  0
  -27.7273  -20.3956   20.7856 H   0  0  0  0  0  0
  -28.2477  -20.2148   22.4401 H   0  0  0  0  0  0
  -31.1494  -19.8842   19.4349 H   0  0  0  0  0  0
  -29.5051  -20.2166   18.9413 H   0  0  0  0  0  0
  -28.8178  -18.0811   21.8493 H   0  0  0  0  0  0
  -31.2813  -22.1201   20.5638 H   0  0  0  0  0  0
  -31.3731  -17.4216   20.3412 H   0  0  0  0  0  0
  -30.1424  -22.4364   17.7341 H   0  0  0  0  0  0
  -31.7378  -21.7841   18.0642 H   0  0  0  0  0  0
  -31.3919  -23.4331   18.4806 H   0  0  0  0  0  0
  -32.7917  -18.6718   22.0228 H   0  0  0  0  0  0
  -32.7439  -18.2138   23.7147 H   0  0  0  0  0  0
  -31.4685  -19.2173   23.0594 H   0  0  0  0  0  0
  -29.8567  -15.7730   23.4072 H   0  0  0  0  0  0
  -29.6942  -17.4585   23.8903 H   0  0  0  0  0  0
  -30.9940  -16.4781   24.5391 H   0  0  0  0  0  0
  -29.7861  -24.4131   21.4360 H   0  0  0  0  0  0
  -30.2460  -24.5447   19.7845 H   0  0  0  0  0  0
  -27.3679  -24.7886   20.7264 H   0  0  0  0  0  0
  -27.8936  -24.8393   19.0560 H   0  0  0  0  0  0
  -32.0933  -16.3189   22.3905 H   0  0  0  0  0  0
  -30.4642  -19.9206   21.6966 H   0  0  0  0  0  0
  1 25  1  0  0  0
  1 30  2  0  0  0
  1 85  1  0  0  0
  2  3  1  0  0  0
  2 25  1  0  0  0
  2 88  1  0  0  0
  2 89  1  0  0  0
  3  4  1  0  0  0
  3 90  1  0  0  0
  3 91  1  0  0  0
  4  5  1  0  0  0
  4 92  1  0  0  0
  4 93  1  0  0  0
  5  6  1  0  0  0
  5 26  1  0  0  0
  5 94  1  0  0  0
  6 25  1  0  0  0
  6 95  1  0  0  0
  6 96  1  0  0  0
  7  8  2  0  0  0
  7 26  1  0  0  0
  7 29  1  0  0  0
  8  9  1  0  0  0
  8 22  1  0  0  0
  9 10  1  0  0  0
  9 27  2  0  0  0
 10 11  2  0  0  0
 10 15  1  0  0  0
 11 12  1  0  0  0
 11 97  1  0  0  0
 12 13  2  0  0  0
 12 98  1  0  0  0
 13 14  1  0  0  0
 13 31  1  0  0  0
 14 15  2  0  0  0
 14 99  1  0  0  0
 15100  1  0  0  0
 16 17  2  0  0  0
 16 21  1  0  0  0
 16 31  1  0  0  0
 17 18  1  0  0  0
 17101  1  0  0  0
 18 19  2  0  0  0
 18102  1  0  0  0
 19 20  1  0  0  0
 19 24  1  0  0  0
 20 21  2  0  0  0
 20103  1  0  0  0
 21 23  1  0  0  0
 22 28  1  0  0  0
 22 32  2  0  0  0
 26 27  1  0  0  0
 28104  1  0  0  0
 28105  1  0  0  0
 29106  1  0  0  0
 29107  1  0  0  0
 33 34  1  0  0  0
 33 66  1  0  0  0
 33 70  2  0  0  0
 34 36  1  0  0  0
 34 59  1  0  0  0
 34108  1  0  0  0
 35 44  2  0  0  0
 35 45  1  0  0  0
 35 68  1  0  0  0
 36 56  1  0  0  0
 36109  1  0  0  0
 37 39  1  0  0  0
 37 47  1  0  0  0
 37 66  1  0  0  0
 37110  1  0  0  0
 38 43  2  0  0  0
 38 46  1  0  0  0
 38 47  1  0  0  0
 39 64  1  0  0  0
 39 67  2  0  0  0
 40 52  1  0  0  0
 40 53  2  0  0  0
 40 58  1  0  0  0
 41111  1  0  0  0
 41112  1  0  0  0
 41113  1  0  0  0
 41 48  1  0  0  0
 42 43  1  0  0  0
 42 66  1  0  0  0
 42114  1  0  0  0
 42115  1  0  0  0
 43 44  1  0  0  0
 44116  1  0  0  0
 45 46  2  0  0  0
 45117  1  0  0  0
 46118  1  0  0  0
 47119  1  0  0  0
 47120  1  0  0  0
 48 56  1  0  0  0
 48 65  1  0  0  0
 48121  1  0  0  0
 49 50  1  0  0  0
 49 53  1  0  0  0
 49 64  1  0  0  0
 49122  1  0  0  0
 50 51  1  0  0  0
 50123  1  0  0  0
 50124  1  0  0  0
 51 52  1  0  0  0
 51125  1  0  0  0
 51126  1  0  0  0
 52127  1  0  0  0
 52128  1  0  0  0
 53 54  1  0  0  0
 54 55  2  0  0  0
 54129  1  0  0  0
 55 57  1  0  0  0
 55130  1  0  0  0
 56 69  2  0  0  0
 57 58  2  0  0  0
 57131  1  0  0  0
 58132  1  0  0  0
 59 60  1  0  0  0
 59 61  1  0  0  0
 59 62  1  0  0  0
 60133  1  0  0  0
 60134  1  0  0  0
 60135  1  0  0  0
 61136  1  0  0  0
 61137  1  0  0  0
 61138  1  0  0  0
 62139  1  0  0  0
 62140  1  0  0  0
 62141  1  0  0  0
 63 65  1  0  0  0
 63142  1  0  0  0
 63143  1  0  0  0
 63144  1  0  0  0
 64145  1  0  0  0
 65146  1  0  0  0
 68 83  1  0  0  0
 71 72  1  0  0  0
 71147  1  0  0  0
 71148  1  0  0  0
 71 76  1  0  0  0
 72 85  1  0  0  0
 72149  1  0  0  0
 72150  1  0  0  0
 73 74  1  0  0  0
 73 86  1  0  0  0
 73151  1  0  0  0
 73152  1  0  0  0
 74153  1  0  0  0
 74154  1  0  0  0
 74 87  1  0  0  0
 75 77  1  0  0  0
 75 87  1  0  0  0
 75155  1  0  0  0
 75156  1  0  0  0
 76 78  1  0  0  0
 76 87  1  0  0  0
 76157  1  0  0  0
 77 79  1  0  0  0
 77 86  1  0  0  0
 77158  1  0  0  0
 78 84  1  0  0  0
 78 85  1  0  0  0
 78159  1  0  0  0
 79160  1  0  0  0
 79161  1  0  0  0
 79162  1  0  0  0
 80163  1  0  0  0
 80164  1  0  0  0
 80165  1  0  0  0
 80 84  1  0  0  0
 81 84  1  0  0  0
 81166  1  0  0  0
 81167  1  0  0  0
 81168  1  0  0  0
 82 83  1  0  0  0
 82 86  1  0  0  0
 82169  1  0  0  0
 82170  1  0  0  0
 83171  1  0  0  0
 83172  1  0  0  0
 84173  1  0  0  0
 87174  1  0  0  0
M  CHG  1  87   1
M  ISO  4   1 100  68 101  83 101  85 100
M  END
> <chiral flag>
0

> <version>
0

> <s_m_source_file>
/data/baiqing/PycharmProjects/Reinvent-master-3.2/result/LINK_invent/BTK/process_docking_weight1_custom_sum_contain_oxygen_bond_distance_aromatic_linkinvent_7_9_3/rearranged_h_0171.sdf

> <i_m_source_file_index>
12

> <r_mmod_Potential_Energy-OPLS-2005>
249.479080200195

> <r_mmod_Stretch_Energy-OPLS-2005>
80.2751541137695

> <r_mmod_Bend_Energy-OPLS-2005>
183.649856567383

> <r_mmod_Torsional_Energy-OPLS-2005>
353.124420166016

> <r_mmod_Improper_Torsional_Energy-OPLS-2005>
5.74538326263428

> <r_mmod_Van_der_Waal_Energy-OPLS-2005>
140.487808227539

> <r_mmod_Electrostatic_Energy-OPLS-2005>
-155.403533935547

> <r_mmod_Solvation_Energy-OPLS-2005>
-415.568237304688

> <b_mmod_Minimization_Converged-OPLS-2005>
0

> <r_mmod_RMS_Derivative-OPLS-2005>
1.23685002326965

$$$$
12
                    3D
 Structure written by MMmdl.
174183  0  0  1  0            999 V2000
  -30.6667  -14.6992   20.5070 C   0  0  0  0  0  0
  -30.4213  -12.4386   19.4672 C   0  0  0  0  0  0
  -29.5005  -12.5062   18.2311 C   0  0  0  0  0  0
  -28.0292  -12.3340   18.6504 C   0  0  0  0  0  0
  -27.6418  -13.2345   19.8537 C   0  0  2  0  0  0
  -28.6870  -13.1665   20.9882 C   0  0  0  0  0  0
  -25.2506  -13.8212   20.5726 C   0  0  0  0  0  0
  -24.1798  -13.0460   20.9224 C   0  0  0  0  0  0
  -24.6393  -11.6932   20.8767 C   0  0  0  0  0  0
  -23.9078  -10.4303   21.0417 C   0  0  0  0  0  0
  -24.3623   -9.4217   21.9198 C   0  0  0  0  0  0
  -23.6298   -8.2252   22.0762 C   0  0  0  0  0  0
  -22.4283   -8.0287   21.3548 C   0  0  0  0  0  0
  -21.9924   -9.0264   20.4648 C   0  0  0  0  0  0
  -22.7256  -10.2143   20.3062 C   0  0  0  0  0  0
  -21.6848   -6.0741   22.5282 C   0  0  0  0  0  0
  -21.4014   -6.5644   23.8216 C   0  0  0  0  0  0
  -21.3662   -5.6795   24.9177 C   0  0  0  0  0  0
  -21.6035   -4.3055   24.7230 C   0  0  0  0  0  0
  -21.8822   -3.8155   23.4349 C   0  0  0  0  0  0
  -21.9197   -4.6972   22.3406 C   0  0  0  0  0  0
  -22.7819  -13.5227   21.1874 C   0  0  0  0  0  0
  -22.1661   -4.2154   21.0985 F   0  0  0  0  0  0
  -21.5631   -3.4540   25.7743 F   0  0  0  0  0  0
  -29.9912  -13.5047   20.4040 N   0  0  0  0  0  0
  -26.2940  -12.9426   20.3314 N   0  0  0  0  0  0
  -25.9324  -11.6566   20.5782 N   0  0  0  0  0  0
  -22.0448  -12.8208   22.0407 N   0  0  0  0  0  0
  -25.4200  -15.1940   20.4131 N   0  0  0  0  0  0
  -31.8414  -14.7443   20.1383 O   0  0  0  0  0  0
  -21.6642   -6.8890   21.4243 O   0  0  0  0  0  0
  -22.3518  -14.5550   20.6730 O   0  0  0  0  0  0
  -24.6320  -31.8558   23.2008 C   0  0  0  0  0  0
  -25.9164  -32.4743   23.8343 C   0  0  1  0  0  0
  -27.2167  -27.2649   20.1347 C   0  0  0  0  0  0
  -25.5964  -33.8545   24.2244 N   0  0  0  0  0  0
  -23.4278  -30.4791   21.5425 C   0  0  2  0  0  0
  -24.8734  -28.9296   20.1094 C   0  0  0  0  0  0
  -22.7517  -29.4590   22.4912 C   0  0  0  0  0  0
  -18.0294  -28.1371   22.8463 C   0  0  0  0  0  0
  -24.1476  -36.7276   23.2644 C   0  0  0  0  0  0
  -25.9761  -30.7638   21.3891 C   0  0  0  0  0  0
  -26.0443  -29.3918   20.7242 C   0  0  0  0  0  0
  -27.2175  -28.5724   20.7251 C   0  0  0  0  0  0
  -26.0244  -26.8732   19.4804 C   0  0  0  0  0  0
  -24.8690  -27.6782   19.4759 C   0  0  0  0  0  0
  -23.6479  -29.8216   20.1545 C   0  0  0  0  0  0
  -25.4105  -36.3053   24.0320 C   0  0  1  0  0  0
  -20.5900  -28.3683   23.1256 C   0  0  2  0  0  0
  -20.6777  -26.9397   22.5404 C   0  0  0  0  0  0
  -19.5751  -26.6354   21.5207 C   0  0  0  0  0  0
  -18.1927  -26.7907   22.1602 C   0  0  0  0  0  0
  -19.1553  -28.8840   23.2839 C   0  0  0  0  0  0
  -18.9483  -30.1446   23.8842 C   0  0  0  0  0  0
  -17.6487  -30.6573   24.0552 C   0  0  0  0  0  0
  -25.9063  -34.9429   23.5079 C   0  0  0  0  0  0
  -16.5375  -29.9070   23.6337 C   0  0  0  0  0  0
  -16.7282  -28.6498   23.0329 C   0  0  0  0  0  0
  -26.4525  -31.6602   25.0764 C   0  0  0  0  0  0
  -25.3740  -31.3757   26.1485 C   0  0  0  0  0  0
  -27.0443  -30.3016   24.6330 C   0  0  0  0  0  0
  -27.6016  -32.4438   25.7549 C   0  0  0  0  0  0
  -27.5564  -37.1800   24.8463 C   0  0  0  0  0  0
  -21.4222  -29.3033   22.3648 N   0  0  0  0  0  0
  -26.4263  -37.3772   23.9418 N   0  0  0  0  0  0
  -24.6962  -31.0527   22.0980 N   0  0  0  0  0  0
  -23.4218  -28.8130   23.3011 O   0  0  0  0  0  0
  -28.3114  -26.3731   20.2178 O   0  0  0  0  0  0
  -26.5639  -34.8905   22.4650 O   0  0  0  0  0  0
  -23.5472  -32.1422   23.7279 O   0  0  0  0  0  0
  -30.8419  -18.4307   23.7017 C   0  0  0  0  0  0
  -29.5645  -18.5552   21.0414 C   0  0  0  0  0  0
  -30.9938  -20.7888   21.0494 C   0  0  0  0  0  0
  -30.0290  -19.7072   23.3437 C   0  0  0  0  0  0
  -30.5072  -17.0763   23.0020 C   0  0  0  0  0  0
  -29.9901  -19.9096   21.8020 C   0  0  2  0  0  0
  -30.4627  -17.2259   21.4229 C   0  0  2  0  0  0
  -28.5928  -19.5956   23.9196 C   0  0  0  0  0  0
  -30.6775  -20.9149   24.0995 C   0  0  0  0  0  0
  -29.1541  -16.5228   23.5360 C   0  0  0  0  0  0
  -31.5669  -16.0297   23.4772 C   0  0  0  0  0  0
  -31.8766  -17.5498   20.8562 C   0  0  0  0  0  0
  -29.0948  -23.8134   20.6801 C   0  0  0  0  0  0
  -28.9050  -22.1987   20.5137 C   0  0  0  0  0  0
  -28.0837  -24.8966   20.0417 C   0  0  0  0  0  0
  -29.9845  -15.8475   20.9001 N   0  0  0  0  0  0
  -29.7520  -21.3929   21.4945 N   0  3  2  0  0  0
  -31.7219  -18.4817   24.5688 O   0  0  0  0  0  0
  -31.4626  -12.5439   19.1588 H   0  0  0  0  0  0
  -30.3534  -11.4614   19.9478 H   0  0  0  0  0  0
  -29.7755  -11.7329   17.5118 H   0  0  0  0  0  0
  -29.6309  -13.4636   17.7221 H   0  0  0  0  0  0
  -27.8848  -11.2854   18.9147 H   0  0  0  0  0  0
  -27.3686  -12.5272   17.8050 H   0  0  0  0  0  0
  -27.6393  -14.2577   19.4779 H   0  0  0  0  0  0
  -28.7141  -12.1702   21.4317 H   0  0  0  0  0  0
  -28.4235  -13.8502   21.7958 H   0  0  0  0  0  0
  -25.2760   -9.5690   22.4783 H   0  0  0  0  0  0
  -24.0002   -7.4642   22.7477 H   0  0  0  0  0  0
  -21.0863   -8.8793   19.8943 H   0  0  0  0  0  0
  -22.3726  -10.9688   19.6175 H   0  0  0  0  0  0
  -21.1997   -7.6149   23.9722 H   0  0  0  0  0  0
  -21.1476   -6.0521   25.9077 H   0  0  0  0  0  0
  -22.0596   -2.7616   23.2852 H   0  0  0  0  0  0
  -22.4048  -11.9846   22.4770 H   0  0  0  0  0  0
  -21.1060  -13.1230   22.2592 H   0  0  0  0  0  0
  -24.6500  -15.8454   20.5207 H   0  0  0  0  0  0
  -26.2623  -15.6318   20.0634 H   0  0  0  0  0  0
  -26.7217  -32.5342   23.1064 H   0  0  0  0  0  0
  -25.0105  -33.9668   25.0377 H   0  0  0  0  0  0
  -22.7250  -31.3010   21.3986 H   0  0  0  0  0  0
  -23.3740  -35.9609   23.3324 H   0  0  0  0  0  0
  -24.3542  -36.8913   22.2056 H   0  0  0  0  0  0
  -23.7240  -37.6471   23.6687 H   0  0  0  0  0  0
  -26.1372  -31.5317   20.6323 H   0  0  0  0  0  0
  -26.8435  -30.7908   22.0369 H   0  0  0  0  0  0
  -28.1110  -28.9197   21.2252 H   0  0  0  0  0  0
  -25.9570  -25.9224   18.9738 H   0  0  0  0  0  0
  -23.9750  -27.3230   18.9804 H   0  0  0  0  0  0
  -23.7831  -30.6071   19.4093 H   0  0  0  0  0  0
  -22.7628  -29.2678   19.8355 H   0  0  0  0  0  0
  -25.1286  -36.1891   25.0816 H   0  0  0  0  0  0
  -20.9950  -28.3257   24.1391 H   0  0  0  0  0  0
  -20.5677  -26.2291   23.3614 H   0  0  0  0  0  0
  -21.6644  -26.7404   22.1204 H   0  0  0  0  0  0
  -19.6918  -25.6254   21.1261 H   0  0  0  0  0  0
  -19.6702  -27.3125   20.6709 H   0  0  0  0  0  0
  -17.4204  -26.6655   21.3996 H   0  0  0  0  0  0
  -18.0322  -26.0041   22.8986 H   0  0  0  0  0  0
  -19.7974  -30.7262   24.2188 H   0  0  0  0  0  0
  -17.5058  -31.6247   24.5159 H   0  0  0  0  0  0
  -15.5375  -30.2960   23.7692 H   0  0  0  0  0  0
  -15.8682  -28.0814   22.7054 H   0  0  0  0  0  0
  -24.5845  -30.7190   25.7819 H   0  0  0  0  0  0
  -24.9003  -32.2937   26.4977 H   0  0  0  0  0  0
  -25.8047  -30.8867   27.0235 H   0  0  0  0  0  0
  -26.3087  -29.6708   24.1321 H   0  0  0  0  0  0
  -27.4085  -29.7337   25.4907 H   0  0  0  0  0  0
  -27.8978  -30.4305   23.9664 H   0  0  0  0  0  0
  -27.2534  -33.3735   26.2070 H   0  0  0  0  0  0
  -28.3839  -32.7053   25.0410 H   0  0  0  0  0  0
  -28.0694  -31.8652   26.5526 H   0  0  0  0  0  0
  -28.2572  -38.0104   24.7517 H   0  0  0  0  0  0
  -28.1074  -36.2636   24.6283 H   0  0  0  0  0  0
  -27.2290  -37.1457   25.8867 H   0  0  0  0  0  0
  -20.9428  -29.8785   21.6860 H   0  0  0  0  0  0
  -26.0139  -38.2844   24.1418 H   0  0  0  0  0  0
  -29.6135  -18.7300   19.9665 H   0  0  0  0  0  0
  -28.5106  -18.3639   21.2413 H   0  0  0  0  0  0
  -31.0411  -20.7296   19.9646 H   0  0  0  0  0  0
  -31.8353  -21.2565   21.5532 H   0  0  0  0  0  0
  -27.9186  -19.0155   23.2946 H   0  0  0  0  0  0
  -28.1256  -20.5746   24.0311 H   0  0  0  0  0  0
  -28.5941  -19.1401   24.9123 H   0  0  0  0  0  0
  -31.7153  -21.0821   23.8063 H   0  0  0  0  0  0
  -30.6924  -20.7410   25.1775 H   0  0  0  0  0  0
  -30.1367  -21.8535   23.9777 H   0  0  0  0  0  0
  -28.2945  -16.8658   22.9620 H   0  0  0  0  0  0
  -28.9804  -16.7894   24.5800 H   0  0  0  0  0  0
  -29.1177  -15.4335   23.4975 H   0  0  0  0  0  0
  -32.5915  -16.3397   23.2705 H   0  0  0  0  0  0
  -31.4333  -15.0433   23.0393 H   0  0  0  0  0  0
  -31.5079  -15.8737   24.5566 H   0  0  0  0  0  0
  -32.2715  -18.4975   21.2166 H   0  0  0  0  0  0
  -31.8589  -17.6019   19.7674 H   0  0  0  0  0  0
  -32.6354  -16.8175   21.1221 H   0  0  0  0  0  0
  -30.1002  -24.0571   20.3396 H   0  0  0  0  0  0
  -29.1090  -24.0299   21.7477 H   0  0  0  0  0  0
  -29.1087  -21.8912   19.4886 H   0  0  0  0  0  0
  -27.8641  -21.9471   20.7170 H   0  0  0  0  0  0
  -27.0997  -24.6501   20.4441 H   0  0  0  0  0  0
  -28.0256  -24.7095   18.9689 H   0  0  0  0  0  0
  -29.0044  -15.6741   21.0607 H   0  0  0  0  0  0
  -29.8977  -21.9100   22.3489 H   0  0  0  0  0  0
  1 25  1  0  0  0
  1 30  2  0  0  0
  1 86  1  0  0  0
  2  3  1  0  0  0
  2 25  1  0  0  0
  2 89  1  0  0  0
  2 90  1  0  0  0
  3  4  1  0  0  0
  3 91  1  0  0  0
  3 92  1  0  0  0
  4  5  1  0  0  0
  4 93  1  0  0  0
  4 94  1  0  0  0
  5  6  1  0  0  0
  5 26  1  0  0  0
  5 95  1  0  0  0
  6 25  1  0  0  0
  6 96  1  0  0  0
  6 97  1  0  0  0
  7  8  2  0  0  0
  7 26  1  0  0  0
  7 29  1  0  0  0
  8  9  1  0  0  0
  8 22  1  0  0  0
  9 10  1  0  0  0
  9 27  2  0  0  0
 10 11  2  0  0  0
 10 15  1  0  0  0
 11 12  1  0  0  0
 11 98  1  0  0  0
 12 13  2  0  0  0
 12 99  1  0  0  0
 13 14  1  0  0  0
 13 31  1  0  0  0
 14 15  2  0  0  0
 14100  1  0  0  0
 15101  1  0  0  0
 16 17  2  0  0  0
 16 21  1  0  0  0
 16 31  1  0  0  0
 17 18  1  0  0  0
 17102  1  0  0  0
 18 19  2  0  0  0
 18103  1  0  0  0
 19 20  1  0  0  0
 19 24  1  0  0  0
 20 21  2  0  0  0
 20104  1  0  0  0
 21 23  1  0  0  0
 22 28  1  0  0  0
 22 32  2  0  0  0
 26 27  1  0  0  0
 28105  1  0  0  0
 28106  1  0  0  0
 29107  1  0  0  0
 29108  1  0  0  0
 33 34  1  0  0  0
 33 66  1  0  0  0
 33 70  2  0  0  0
 34 36  1  0  0  0
 34 59  1  0  0  0
 34109  1  0  0  0
 35 44  2  0  0  0
 35 45  1  0  0  0
 35 68  1  0  0  0
 36 56  1  0  0  0
 36110  1  0  0  0
 37 39  1  0  0  0
 37 47  1  0  0  0
 37 66  1  0  0  0
 37111  1  0  0  0
 38 43  2  0  0  0
 38 46  1  0  0  0
 38 47  1  0  0  0
 39 64  1  0  0  0
 39 67  2  0  0  0
 40 52  1  0  0  0
 40 53  2  0  0  0
 40 58  1  0  0  0
 41112  1  0  0  0
 41113  1  0  0  0
 41114  1  0  0  0
 41 48  1  0  0  0
 42 43  1  0  0  0
 42 66  1  0  0  0
 42115  1  0  0  0
 42116  1  0  0  0
 43 44  1  0  0  0
 44117  1  0  0  0
 45 46  2  0  0  0
 45118  1  0  0  0
 46119  1  0  0  0
 47120  1  0  0  0
 47121  1  0  0  0
 48 56  1  0  0  0
 48 65  1  0  0  0
 48122  1  0  0  0
 49 50  1  0  0  0
 49 53  1  0  0  0
 49 64  1  0  0  0
 49123  1  0  0  0
 50 51  1  0  0  0
 50124  1  0  0  0
 50125  1  0  0  0
 51 52  1  0  0  0
 51126  1  0  0  0
 51127  1  0  0  0
 52128  1  0  0  0
 52129  1  0  0  0
 53 54  1  0  0  0
 54 55  2  0  0  0
 54130  1  0  0  0
 55 57  1  0  0  0
 55131  1  0  0  0
 56 69  2  0  0  0
 57 58  2  0  0  0
 57132  1  0  0  0
 58133  1  0  0  0
 59 60  1  0  0  0
 59 61  1  0  0  0
 59 62  1  0  0  0
 60134  1  0  0  0
 60135  1  0  0  0
 60136  1  0  0  0
 61137  1  0  0  0
 61138  1  0  0  0
 61139  1  0  0  0
 62140  1  0  0  0
 62141  1  0  0  0
 62142  1  0  0  0
 63 65  1  0  0  0
 63143  1  0  0  0
 63144  1  0  0  0
 63145  1  0  0  0
 64146  1  0  0  0
 65147  1  0  0  0
 68 85  1  0  0  0
 71 74  1  0  0  0
 71 75  1  0  0  0
 71 88  2  0  0  0
 72 77  1  0  0  0
 72148  1  0  0  0
 72149  1  0  0  0
 72 76  1  0  0  0
 73 76  1  0  0  0
 73 87  1  0  0  0
 73150  1  0  0  0
 73151  1  0  0  0
 74 76  1  0  0  0
 74 78  1  0  0  0
 74 79  1  0  0  0
 75 77  1  0  0  0
 75 80  1  0  0  0
 75 81  1  0  0  0
 76 87  1  0  0  0
 77 82  1  0  0  0
 77 86  1  0  0  0
 78152  1  0  0  0
 78153  1  0  0  0
 78154  1  0  0  0
 79155  1  0  0  0
 79156  1  0  0  0
 79157  1  0  0  0
 80158  1  0  0  0
 80159  1  0  0  0
 80160  1  0  0  0
 81161  1  0  0  0
 81162  1  0  0  0
 81163  1  0  0  0
 82164  1  0  0  0
 82165  1  0  0  0
 82166  1  0  0  0
 83 84  1  0  0  0
 83 85  1  0  0  0
 83167  1  0  0  0
 83168  1  0  0  0
 84169  1  0  0  0
 84170  1  0  0  0
 84 87  1  0  0  0
 85171  1  0  0  0
 85172  1  0  0  0
 86173  1  0  0  0
 87174  1  0  0  0
M  CHG  1  87   1
M  ISO  4   1 100  68 101  85 101  86 100
M  END
> <chiral flag>
0

> <version>
0

> <s_m_source_file>
/data/baiqing/PycharmProjects/Reinvent-master-3.2/result/LINK_invent/BTK/process_docking_weight1_custom_sum_contain_oxygen_bond_distance_aromatic_linkinvent_7_9_3/rearranged_h_0171.sdf

> <i_m_source_file_index>
13

> <r_mmod_Potential_Energy-OPLS-2005>
225.552047729492

> <r_mmod_Stretch_Energy-OPLS-2005>
153.10530090332

> <r_mmod_Bend_Energy-OPLS-2005>
276.451141357422

> <r_mmod_Torsional_Energy-OPLS-2005>
296.124725341797

> <r_mmod_Improper_Torsional_Energy-OPLS-2005>
3.38367414474487

> <r_mmod_Van_der_Waal_Energy-OPLS-2005>
164.498291015625

> <r_mmod_Electrostatic_Energy-OPLS-2005>
-268.635009765625

> <r_mmod_Solvation_Energy-OPLS-2005>
-475.487426757812

> <b_mmod_Minimization_Converged-OPLS-2005>
0

> <r_mmod_RMS_Derivative-OPLS-2005>
2.42693614959717

$$$$
13
                    3D
 Structure written by MMmdl.
180190  0  0  1  0            999 V2000
  -30.5999  -14.9034   20.4316 C   0  0  0  0  0  0
  -30.4257  -12.5629   19.4949 C   0  0  0  0  0  0
  -29.5126  -12.5215   18.2507 C   0  0  0  0  0  0
  -28.0456  -12.3196   18.6703 C   0  0  0  0  0  0
  -27.6273  -13.2540   19.8371 C   0  0  2  0  0  0
  -28.6708  -13.2916   20.9734 C   0  0  0  0  0  0
  -25.2458  -13.8240   20.5729 C   0  0  0  0  0  0
  -24.1775  -13.0451   20.9224 C   0  0  0  0  0  0
  -24.6400  -11.6938   20.8754 C   0  0  0  0  0  0
  -23.9089  -10.4300   21.0403 C   0  0  0  0  0  0
  -24.3637   -9.4213   21.9180 C   0  0  0  0  0  0
  -23.6308   -8.2248   22.0749 C   0  0  0  0  0  0
  -22.4289   -8.0286   21.3541 C   0  0  0  0  0  0
  -21.9928   -9.0262   20.4642 C   0  0  0  0  0  0
  -22.7261  -10.2140   20.3053 C   0  0  0  0  0  0
  -21.6857   -6.0744   22.5280 C   0  0  0  0  0  0
  -21.4016   -6.5644   23.8213 C   0  0  0  0  0  0
  -21.3661   -5.6795   24.9175 C   0  0  0  0  0  0
  -21.6045   -4.3059   24.7223 C   0  0  0  0  0  0
  -21.8821   -3.8152   23.4344 C   0  0  0  0  0  0
  -21.9193   -4.6970   22.3402 C   0  0  0  0  0  0
  -22.7793  -13.5211   21.1879 C   0  0  0  0  0  0
  -22.1660   -4.2157   21.0980 F   0  0  0  0  0  0
  -21.5629   -3.4541   25.7735 F   0  0  0  0  0  0
  -29.9480  -13.6761   20.3641 N   0  0  0  0  0  0
  -26.2884  -12.9484   20.3267 N   0  0  0  0  0  0
  -25.9337  -11.6605   20.5755 N   0  0  0  0  0  0
  -22.0454  -12.8191   22.0438 N   0  0  0  0  0  0
  -25.4147  -15.1970   20.4186 N   0  0  0  0  0  0
  -31.8080  -14.9001   20.1676 O   0  0  0  0  0  0
  -21.6648   -6.8885   21.4240 O   0  0  0  0  0  0
  -22.3467  -14.5510   20.6722 O   0  0  0  0  0  0
  -24.6432  -31.8463   23.1924 C   0  0  0  0  0  0
  -25.9211  -32.4707   23.8300 C   0  0  1  0  0  0
  -27.2036  -27.1421   20.1417 C   0  0  0  0  0  0
  -25.5964  -33.8514   24.2212 N   0  0  0  0  0  0
  -23.4454  -30.4698   21.5383 C   0  0  2  0  0  0
  -24.8929  -28.9074   20.1072 C   0  0  0  0  0  0
  -22.7567  -29.4557   22.4864 C   0  0  0  0  0  0
  -18.0305  -28.1394   22.8477 C   0  0  0  0  0  0
  -24.1491  -36.7257   23.2641 C   0  0  0  0  0  0
  -26.0034  -30.7201   21.3940 C   0  0  0  0  0  0
  -26.0717  -29.3346   20.7317 C   0  0  0  0  0  0
  -27.2281  -28.4667   20.7380 C   0  0  0  0  0  0
  -26.0024  -26.8315   19.4605 C   0  0  0  0  0  0
  -24.8715  -27.6689   19.4563 C   0  0  0  0  0  0
  -23.6708  -29.8085   20.1545 C   0  0  0  0  0  0
  -25.4123  -36.3039   24.0317 C   0  0  1  0  0  0
  -20.5917  -28.3718   23.1236 C   0  0  2  0  0  0
  -20.6789  -26.9420   22.5403 C   0  0  0  0  0  0
  -19.5762  -26.6378   21.5212 C   0  0  0  0  0  0
  -18.1943  -26.7933   22.1622 C   0  0  0  0  0  0
  -19.1562  -28.8875   23.2850 C   0  0  0  0  0  0
  -18.9477  -30.1473   23.8875 C   0  0  0  0  0  0
  -17.6472  -30.6590   24.0560 C   0  0  0  0  0  0
  -25.9075  -34.9413   23.5070 C   0  0  0  0  0  0
  -16.5364  -29.9081   23.6337 C   0  0  0  0  0  0
  -16.7289  -28.6500   23.0357 C   0  0  0  0  0  0
  -26.4529  -31.6572   25.0739 C   0  0  0  0  0  0
  -25.3712  -31.3762   26.1432 C   0  0  0  0  0  0
  -27.0397  -30.2967   24.6327 C   0  0  0  0  0  0
  -27.6059  -32.4339   25.7523 C   0  0  0  0  0  0
  -27.5576  -37.1788   24.8464 C   0  0  0  0  0  0
  -21.4260  -29.3049   22.3613 N   0  0  0  0  0  0
  -26.4287  -37.3751   23.9407 N   0  0  0  0  0  0
  -24.7172  -31.0325   22.0962 N   0  0  0  0  0  0
  -23.4216  -28.8093   23.3000 O   0  0  0  0  0  0
  -28.2273  -26.1261   20.2320 O   0  0  0  0  0  0
  -26.5652  -34.8903   22.4643 O   0  0  0  0  0  0
  -23.5553  -32.1341   23.7143 O   0  0  0  0  0  0
  -30.3282  -22.0983   21.2596 C   0  0  0  0  0  0
  -29.4541  -21.1404   20.6043 C   0  0  0  0  0  0
  -29.9013  -23.3998   21.0425 C   0  0  0  0  0  0
  -28.4675  -22.0193   20.0864 C   0  0  0  0  0  0
  -30.5927  -24.6523   21.4890 C   0  0  0  0  0  0
  -29.2135  -18.5039   21.6438 C   0  0  0  0  0  0
  -29.4720  -18.6049   19.2836 C   0  0  0  0  0  0
  -29.8526  -17.0157   21.6833 C   0  0  0  0  0  0
  -30.1311  -17.1271   19.3021 C   0  0  0  0  0  0
  -32.0643  -23.1604   22.7783 C   0  0  0  0  0  0
  -29.7421  -19.4978   20.5411 C   0  0  0  0  0  0
  -31.6207  -21.8654   22.0455 C   0  0  1  0  0  0
  -27.2470  -21.6413   19.3106 C   0  0  0  0  0  0
  -31.5393  -20.7319   23.0840 C   0  0  0  0  0  0
  -34.2428  -25.4152   22.2093 C   0  0  0  0  0  0
  -32.3727  -25.9471   23.8504 C   0  0  0  0  0  0
  -27.8415  -24.6823   19.9385 C   0  0  0  0  0  0
  -32.7221  -25.5637   22.3963 C   0  0  0  0  0  0
  -28.7116  -23.4319   20.3437 N   0  0  0  0  0  0
  -29.9028  -16.1537   20.4442 N   0  0  0  0  0  0
  -31.9889  -24.3610   21.9025 N   0  3  2  0  0  0
  -31.4636  -12.6922   19.1837 H   0  0  0  0  0  0
  -30.3946  -11.6142   20.0327 H   0  0  0  0  0  0
  -29.8237  -11.7227   17.5764 H   0  0  0  0  0  0
  -29.6109  -13.4529   17.6905 H   0  0  0  0  0  0
  -27.9340  -11.2780   18.9742 H   0  0  0  0  0  0
  -27.3833  -12.4592   17.8151 H   0  0  0  0  0  0
  -27.5889  -14.2563   19.4084 H   0  0  0  0  0  0
  -28.7477  -12.3263   21.4757 H   0  0  0  0  0  0
  -28.3812  -14.0203   21.7325 H   0  0  0  0  0  0
  -25.2782   -9.5688   22.4757 H   0  0  0  0  0  0
  -24.0019   -7.4640   22.7470 H   0  0  0  0  0  0
  -21.0859   -8.8782   19.8948 H   0  0  0  0  0  0
  -22.3718  -10.9679   19.6161 H   0  0  0  0  0  0
  -21.2007   -7.6151   23.9721 H   0  0  0  0  0  0
  -21.1480   -6.0523   25.9078 H   0  0  0  0  0  0
  -22.0597   -2.7614   23.2844 H   0  0  0  0  0  0
  -22.4089  -11.9857   22.4820 H   0  0  0  0  0  0
  -21.1062  -13.1188   22.2637 H   0  0  0  0  0  0
  -24.6530  -15.8550   20.5424 H   0  0  0  0  0  0
  -26.2792  -15.6396   20.1320 H   0  0  0  0  0  0
  -26.7275  -32.5312   23.1027 H   0  0  0  0  0  0
  -25.0102  -33.9636   25.0353 H   0  0  0  0  0  0
  -22.7474  -31.2962   21.3889 H   0  0  0  0  0  0
  -23.3760  -35.9581   23.3290 H   0  0  0  0  0  0
  -24.3577  -36.8900   22.2058 H   0  0  0  0  0  0
  -23.7236  -37.6446   23.6684 H   0  0  0  0  0  0
  -26.1625  -31.4767   20.6245 H   0  0  0  0  0  0
  -26.8730  -30.7658   22.0377 H   0  0  0  0  0  0
  -28.1202  -28.7839   21.2592 H   0  0  0  0  0  0
  -25.8818  -25.8964   18.9363 H   0  0  0  0  0  0
  -23.9747  -27.3411   18.9484 H   0  0  0  0  0  0
  -23.8076  -30.5878   19.4038 H   0  0  0  0  0  0
  -22.7851  -29.2531   19.8409 H   0  0  0  0  0  0
  -25.1310  -36.1872   25.0809 H   0  0  0  0  0  0
  -21.0012  -28.3305   24.1356 H   0  0  0  0  0  0
  -20.5681  -26.2330   23.3622 H   0  0  0  0  0  0
  -21.6655  -26.7427   22.1200 H   0  0  0  0  0  0
  -19.6922  -25.6283   21.1255 H   0  0  0  0  0  0
  -19.6701  -27.3176   20.6733 H   0  0  0  0  0  0
  -17.4214  -26.6685   21.4024 H   0  0  0  0  0  0
  -18.0338  -26.0078   22.9021 H   0  0  0  0  0  0
  -19.7952  -30.7298   24.2233 H   0  0  0  0  0  0
  -17.5023  -31.6267   24.5165 H   0  0  0  0  0  0
  -15.5363  -30.2973   23.7675 H   0  0  0  0  0  0
  -15.8689  -28.0811   22.7084 H   0  0  0  0  0  0
  -24.5902  -30.7097   25.7753 H   0  0  0  0  0  0
  -24.8890  -32.2945   26.4794 H   0  0  0  0  0  0
  -25.7995  -30.8980   27.0251 H   0  0  0  0  0  0
  -26.3023  -29.6688   24.1315 H   0  0  0  0  0  0
  -27.3982  -29.7268   25.4909 H   0  0  0  0  0  0
  -27.8943  -30.4198   23.9671 H   0  0  0  0  0  0
  -27.2651  -33.3658   26.2047 H   0  0  0  0  0  0
  -28.3898  -32.6873   25.0374 H   0  0  0  0  0  0
  -28.0695  -31.8503   26.5486 H   0  0  0  0  0  0
  -28.2584  -38.0093   24.7512 H   0  0  0  0  0  0
  -28.1083  -36.2622   24.6291 H   0  0  0  0  0  0
  -27.2294  -37.1432   25.8867 H   0  0  0  0  0  0
  -20.9463  -29.8780   21.6810 H   0  0  0  0  0  0
  -26.0155  -38.2818   24.1413 H   0  0  0  0  0  0
  -30.0340  -25.1012   22.3104 H   0  0  0  0  0  0
  -30.6126  -25.3793   20.6768 H   0  0  0  0  0  0
  -29.3578  -18.9560   22.6242 H   0  0  0  0  0  0
  -28.1305  -18.4179   21.5429 H   0  0  0  0  0  0
  -28.3968  -18.5163   19.1248 H   0  0  0  0  0  0
  -29.8498  -19.1297   18.4053 H   0  0  0  0  0  0
  -29.3330  -16.4440   22.4534 H   0  0  0  0  0  0
  -30.8791  -17.1093   22.0427 H   0  0  0  0  0  0
  -31.2101  -17.2627   19.2077 H   0  0  0  0  0  0
  -29.8304  -16.6159   18.3861 H   0  0  0  0  0  0
  -33.0764  -23.0252   23.1592 H   0  0  0  0  0  0
  -31.4266  -23.3256   23.6483 H   0  0  0  0  0  0
  -30.8282  -19.4728   20.6113 H   0  0  0  0  0  0
  -32.3897  -21.6056   21.3162 H   0  0  0  0  0  0
  -27.1021  -20.5614   19.3024 H   0  0  0  0  0  0
  -27.3242  -21.9750   18.2757 H   0  0  0  0  0  0
  -26.3513  -22.0866   19.7438 H   0  0  0  0  0  0
  -30.6792  -20.8552   23.7428 H   0  0  0  0  0  0
  -32.4311  -20.7183   23.7115 H   0  0  0  0  0  0
  -31.4896  -19.7458   22.6339 H   0  0  0  0  0  0
  -34.7532  -26.3442   22.4656 H   0  0  0  0  0  0
  -34.4985  -25.1850   21.1746 H   0  0  0  0  0  0
  -34.6645  -24.6340   22.8414 H   0  0  0  0  0  0
  -32.8687  -26.8770   24.1300 H   0  0  0  0  0  0
  -32.6937  -25.1891   24.5650 H   0  0  0  0  0  0
  -31.3033  -26.1062   23.9865 H   0  0  0  0  0  0
  -26.8750  -24.5037   20.4123 H   0  0  0  0  0  0
  -27.6991  -24.6034   18.8601 H   0  0  0  0  0  0
  -32.4251  -26.4012   21.7618 H   0  0  0  0  0  0
  -32.4466  -24.0961   21.0436 H   0  0  0  0  0  0
  1 25  1  0  0  0
  1 30  2  0  0  0
  1 90  1  0  0  0
  2  3  1  0  0  0
  2 25  1  0  0  0
  2 92  1  0  0  0
  2 93  1  0  0  0
  3  4  1  0  0  0
  3 94  1  0  0  0
  3 95  1  0  0  0
  4  5  1  0  0  0
  4 96  1  0  0  0
  4 97  1  0  0  0
  5  6  1  0  0  0
  5 26  1  0  0  0
  5 98  1  0  0  0
  6 25  1  0  0  0
  6 99  1  0  0  0
  6100  1  0  0  0
  7  8  2  0  0  0
  7 26  1  0  0  0
  7 29  1  0  0  0
  8  9  1  0  0  0
  8 22  1  0  0  0
  9 10  1  0  0  0
  9 27  2  0  0  0
 10 11  2  0  0  0
 10 15  1  0  0  0
 11 12  1  0  0  0
 11101  1  0  0  0
 12 13  2  0  0  0
 12102  1  0  0  0
 13 14  1  0  0  0
 13 31  1  0  0  0
 14 15  2  0  0  0
 14103  1  0  0  0
 15104  1  0  0  0
 16 17  2  0  0  0
 16 21  1  0  0  0
 16 31  1  0  0  0
 17 18  1  0  0  0
 17105  1  0  0  0
 18 19  2  0  0  0
 18106  1  0  0  0
 19 20  1  0  0  0
 19 24  1  0  0  0
 20 21  2  0  0  0
 20107  1  0  0  0
 21 23  1  0  0  0
 22 28  1  0  0  0
 22 32  2  0  0  0
 26 27  1  0  0  0
 28108  1  0  0  0
 28109  1  0  0  0
 29110  1  0  0  0
 29111  1  0  0  0
 33 34  1  0  0  0
 33 66  1  0  0  0
 33 70  2  0  0  0
 34 36  1  0  0  0
 34 59  1  0  0  0
 34112  1  0  0  0
 35 44  2  0  0  0
 35 45  1  0  0  0
 35 68  1  0  0  0
 36 56  1  0  0  0
 36113  1  0  0  0
 37 39  1  0  0  0
 37 47  1  0  0  0
 37 66  1  0  0  0
 37114  1  0  0  0
 38 43  2  0  0  0
 38 46  1  0  0  0
 38 47  1  0  0  0
 39 64  1  0  0  0
 39 67  2  0  0  0
 40 52  1  0  0  0
 40 53  2  0  0  0
 40 58  1  0  0  0
 41115  1  0  0  0
 41116  1  0  0  0
 41117  1  0  0  0
 41 48  1  0  0  0
 42 43  1  0  0  0
 42 66  1  0  0  0
 42118  1  0  0  0
 42119  1  0  0  0
 43 44  1  0  0  0
 44120  1  0  0  0
 45 46  2  0  0  0
 45121  1  0  0  0
 46122  1  0  0  0
 47123  1  0  0  0
 47124  1  0  0  0
 48 56  1  0  0  0
 48 65  1  0  0  0
 48125  1  0  0  0
 49 50  1  0  0  0
 49 53  1  0  0  0
 49 64  1  0  0  0
 49126  1  0  0  0
 50 51  1  0  0  0
 50127  1  0  0  0
 50128  1  0  0  0
 51 52  1  0  0  0
 51129  1  0  0  0
 51130  1  0  0  0
 52131  1  0  0  0
 52132  1  0  0  0
 53 54  1  0  0  0
 54 55  2  0  0  0
 54133  1  0  0  0
 55 57  1  0  0  0
 55134  1  0  0  0
 56 69  2  0  0  0
 57 58  2  0  0  0
 57135  1  0  0  0
 58136  1  0  0  0
 59 60  1  0  0  0
 59 61  1  0  0  0
 59 62  1  0  0  0
 60137  1  0  0  0
 60138  1  0  0  0
 60139  1  0  0  0
 61140  1  0  0  0
 61141  1  0  0  0
 61142  1  0  0  0
 62143  1  0  0  0
 62144  1  0  0  0
 62145  1  0  0  0
 63 65  1  0  0  0
 63146  1  0  0  0
 63147  1  0  0  0
 63148  1  0  0  0
 64149  1  0  0  0
 65150  1  0  0  0
 68 87  1  0  0  0
 71 72  1  0  0  0
 71 73  2  0  0  0
 71 82  1  0  0  0
 72 74  2  0  0  0
 72 81  1  0  0  0
 73 75  1  0  0  0
 73 89  1  0  0  0
 74 83  1  0  0  0
 74 89  1  0  0  0
 75151  1  0  0  0
 75152  1  0  0  0
 75 91  1  0  0  0
 76 78  1  0  0  0
 76 81  1  0  0  0
 76153  1  0  0  0
 76154  1  0  0  0
 77 79  1  0  0  0
 77 81  1  0  0  0
 77155  1  0  0  0
 77156  1  0  0  0
 78 90  1  0  0  0
 78157  1  0  0  0
 78158  1  0  0  0
 79 90  1  0  0  0
 79159  1  0  0  0
 79160  1  0  0  0
 80 82  1  0  0  0
 80 91  1  0  0  0
 80161  1  0  0  0
 80162  1  0  0  0
 81163  1  0  0  0
 82 84  1  0  0  0
 82164  1  0  0  0
 83165  1  0  0  0
 83166  1  0  0  0
 83167  1  0  0  0
 84168  1  0  0  0
 84169  1  0  0  0
 84170  1  0  0  0
 85171  1  0  0  0
 85172  1  0  0  0
 85173  1  0  0  0
 85 88  1  0  0  0
 86 88  1  0  0  0
 86174  1  0  0  0
 86175  1  0  0  0
 86176  1  0  0  0
 87 89  1  0  0  0
 87177  1  0  0  0
 87178  1  0  0  0
 88 91  1  0  0  0
 88179  1  0  0  0
 91180  1  0  0  0
M  CHG  1  91   1
M  ISO  4   1 100  68 101  87 101  90 100
M  END
> <chiral flag>
0

> <version>
0

> <s_m_source_file>
/data/baiqing/PycharmProjects/Reinvent-master-3.2/result/LINK_invent/BTK/process_docking_weight1_custom_sum_contain_oxygen_bond_distance_aromatic_linkinvent_7_9_3/rearranged_h_0171.sdf

> <i_m_source_file_index>
14

> <r_mmod_Potential_Energy-OPLS-2005>
545.779968261719

> <r_mmod_Stretch_Energy-OPLS-2005>
221.214157104492

> <r_mmod_Bend_Energy-OPLS-2005>
292.577972412109

> <r_mmod_Torsional_Energy-OPLS-2005>
352.598480224609

> <r_mmod_Improper_Torsional_Energy-OPLS-2005>
13.4663429260254

> <r_mmod_Van_der_Waal_Energy-OPLS-2005>
126.921546936035

> <r_mmod_Electrostatic_Energy-OPLS-2005>
-251.559661865234

> <r_mmod_Solvation_Energy-OPLS-2005>
-389.344512939453

> <b_mmod_Minimization_Converged-OPLS-2005>
0

> <r_mmod_RMS_Derivative-OPLS-2005>
0.458934128284454

$$$$
14
                    3D
 Structure written by MMmdl.
169179  0  0  1  0            999 V2000
  -30.6176  -14.8163   20.4833 C   0  0  0  0  0  0
  -30.4328  -12.5175   19.4773 C   0  0  0  0  0  0
  -29.5106  -12.5227   18.2375 C   0  0  0  0  0  0
  -28.0379  -12.3256   18.6491 C   0  0  0  0  0  0
  -27.6350  -13.2253   19.8450 C   0  0  2  0  0  0
  -28.6843  -13.1715   20.9792 C   0  0  0  0  0  0
  -25.2424  -13.8122   20.5612 C   0  0  0  0  0  0
  -24.1762  -13.0378   20.9214 C   0  0  0  0  0  0
  -24.6372  -11.6871   20.8775 C   0  0  0  0  0  0
  -23.9057  -10.4261   21.0427 C   0  0  0  0  0  0
  -24.3607   -9.4180   21.9202 C   0  0  0  0  0  0
  -23.6291   -8.2210   22.0751 C   0  0  0  0  0  0
  -22.4278   -8.0261   21.3538 C   0  0  0  0  0  0
  -21.9911   -9.0232   20.4642 C   0  0  0  0  0  0
  -22.7228  -10.2114   20.3065 C   0  0  0  0  0  0
  -21.6832   -6.0741   22.5280 C   0  0  0  0  0  0
  -21.3992   -6.5640   23.8218 C   0  0  0  0  0  0
  -21.3663   -5.6793   24.9180 C   0  0  0  0  0  0
  -21.6049   -4.3057   24.7222 C   0  0  0  0  0  0
  -21.8819   -3.8151   23.4341 C   0  0  0  0  0  0
  -21.9173   -4.6969   22.3401 C   0  0  0  0  0  0
  -22.7783  -13.5181   21.1863 C   0  0  0  0  0  0
  -22.1644   -4.2156   21.0981 F   0  0  0  0  0  0
  -21.5641   -3.4541   25.7735 F   0  0  0  0  0  0
  -29.9653  -13.5923   20.3944 N   0  0  0  0  0  0
  -26.2887  -12.9344   20.3250 N   0  0  0  0  0  0
  -25.9308  -11.6494   20.5794 N   0  0  0  0  0  0
  -22.0432  -12.8204   22.0437 N   0  0  0  0  0  0
  -25.3913  -15.1832   20.3860 N   0  0  0  0  0  0
  -31.8086  -14.8509   20.1531 O   0  0  0  0  0  0
  -21.6617   -6.8877   21.4249 O   0  0  0  0  0  0
  -22.3481  -14.5486   20.6703 O   0  0  0  0  0  0
  -24.6341  -31.8509   23.1930 C   0  0  0  0  0  0
  -25.9150  -32.4726   23.8301 C   0  0  1  0  0  0
  -27.2409  -27.2478   20.1172 C   0  0  0  0  0  0
  -25.5935  -33.8533   24.2222 N   0  0  0  0  0  0
  -23.4334  -30.4689   21.5370 C   0  0  2  0  0  0
  -24.8849  -28.9113   20.1016 C   0  0  0  0  0  0
  -22.7529  -29.4569   22.4904 C   0  0  0  0  0  0
  -18.0294  -28.1393   22.8479 C   0  0  0  0  0  0
  -24.1484  -36.7266   23.2645 C   0  0  0  0  0  0
  -25.9793  -30.7578   21.3749 C   0  0  0  0  0  0
  -26.0541  -29.3802   20.7129 C   0  0  0  0  0  0
  -27.2274  -28.5578   20.7134 C   0  0  0  0  0  0
  -26.0429  -26.8405   19.5083 C   0  0  0  0  0  0
  -24.8847  -27.6474   19.4882 C   0  0  0  0  0  0
  -23.6520  -29.7954   20.1541 C   0  0  0  0  0  0
  -25.4113  -36.3046   24.0323 C   0  0  1  0  0  0
  -20.5905  -28.3705   23.1275 C   0  0  2  0  0  0
  -20.6775  -26.9421   22.5421 C   0  0  0  0  0  0
  -19.5751  -26.6383   21.5226 C   0  0  0  0  0  0
  -18.1933  -26.7928   22.1629 C   0  0  0  0  0  0
  -19.1553  -28.8868   23.2863 C   0  0  0  0  0  0
  -18.9463  -30.1466   23.8878 C   0  0  0  0  0  0
  -17.6458  -30.6586   24.0569 C   0  0  0  0  0  0
  -25.9065  -34.9423   23.5079 C   0  0  0  0  0  0
  -16.5349  -29.9084   23.6334 C   0  0  0  0  0  0
  -16.7280  -28.6511   23.0344 C   0  0  0  0  0  0
  -26.4499  -31.6568   25.0710 C   0  0  0  0  0  0
  -25.3708  -31.3743   26.1423 C   0  0  0  0  0  0
  -27.0347  -30.2976   24.6228 C   0  0  0  0  0  0
  -27.6051  -32.4314   25.7485 C   0  0  0  0  0  0
  -27.5572  -37.1789   24.8462 C   0  0  0  0  0  0
  -21.4234  -29.3034   22.3653 N   0  0  0  0  0  0
  -26.4276  -37.3757   23.9412 N   0  0  0  0  0  0
  -24.7013  -31.0450   22.0909 N   0  0  0  0  0  0
  -23.4212  -28.8136   23.3037 O   0  0  0  0  0  0
  -28.3329  -26.3560   20.2624 O   0  0  0  0  0  0
  -26.5646  -34.8906   22.4651 O   0  0  0  0  0  0
  -23.5481  -32.1336   23.7207 O   0  0  0  0  0  0
  -27.4891  -20.8492   19.4085 C   0  0  0  0  0  0
  -27.1649  -23.1857   18.6181 C   0  0  0  0  0  0
  -26.7234  -21.8224   18.7377 C   0  0  0  0  0  0
  -28.2552  -23.6320   19.4588 C   0  0  0  0  0  0
  -29.0384  -22.5574   20.1041 C   0  0  0  0  0  0
  -28.7201  -21.1316   20.0099 C   0  0  0  0  0  0
  -25.1941  -24.4568   17.1771 C   0  0  0  0  0  0
  -26.0353  -23.6762   16.1890 C   0  0  0  0  0  0
  -28.4589  -17.8792   21.4194 C   0  0  0  0  0  0
  -28.6749  -16.3382   21.3324 C   0  0  0  0  0  0
  -30.4328  -17.4263   20.2232 C   0  0  0  0  0  0
  -26.6350  -24.1219   17.5068 C   0  0  0  0  0  0
  -29.2580  -18.5105   20.2797 C   0  0  2  0  0  0
  -25.4590  -21.2486   18.1108 C   0  0  0  0  0  0
  -30.3037  -22.9280   20.8630 C   0  0  0  0  0  0
  -28.7490  -25.1884   19.3995 C   0  0  0  0  0  0
  -29.9276  -16.0445   20.6142 N   0  0  0  0  0  0
  -29.5429  -20.0073   20.4549 N   0  0  0  0  0  0
  -31.4685  -12.6547   19.1629 H   0  0  0  0  0  0
  -30.4065  -11.5473   19.9747 H   0  0  0  0  0  0
  -29.8140  -11.7420   17.5385 H   0  0  0  0  0  0
  -29.6184  -13.4685   17.7038 H   0  0  0  0  0  0
  -27.9059  -11.2772   18.9191 H   0  0  0  0  0  0
  -27.3797  -12.5075   17.7984 H   0  0  0  0  0  0
  -27.6180  -14.2349   19.4394 H   0  0  0  0  0  0
  -28.7609  -12.1605   21.3811 H   0  0  0  0  0  0
  -28.3951  -13.7880   21.8265 H   0  0  0  0  0  0
  -25.2732   -9.5655   22.4803 H   0  0  0  0  0  0
  -23.9993   -7.4598   22.7467 H   0  0  0  0  0  0
  -21.0837   -8.8752   19.8952 H   0  0  0  0  0  0
  -22.3679  -10.9668   19.6195 H   0  0  0  0  0  0
  -21.1979   -7.6145   23.9726 H   0  0  0  0  0  0
  -21.1492   -6.0517   25.9087 H   0  0  0  0  0  0
  -22.0597   -2.7614   23.2828 H   0  0  0  0  0  0
  -22.4032  -11.9864   22.4840 H   0  0  0  0  0  0
  -21.1059  -13.1255   22.2646 H   0  0  0  0  0  0
  -24.6055  -15.8171   20.4840 H   0  0  0  0  0  0
  -26.2136  -15.6274   20.0006 H   0  0  0  0  0  0
  -26.7225  -32.5353   23.1048 H   0  0  0  0  0  0
  -25.0066  -33.9664   25.0354 H   0  0  0  0  0  0
  -22.7310  -31.2908   21.3868 H   0  0  0  0  0  0
  -23.3742  -35.9600   23.3284 H   0  0  0  0  0  0
  -24.3594  -36.8910   22.2067 H   0  0  0  0  0  0
  -23.7230  -37.6461   23.6678 H   0  0  0  0  0  0
  -26.1246  -31.5177   20.6050 H   0  0  0  0  0  0
  -26.8536  -30.8051   22.0130 H   0  0  0  0  0  0
  -28.1159  -28.9072   21.2202 H   0  0  0  0  0  0
  -25.9698  -25.8420   19.1300 H   0  0  0  0  0  0
  -23.9831  -27.2660   19.0284 H   0  0  0  0  0  0
  -23.7713  -30.5674   19.3938 H   0  0  0  0  0  0
  -22.7699  -29.2260   19.8562 H   0  0  0  0  0  0
  -25.1301  -36.1880   25.0817 H   0  0  0  0  0  0
  -21.0002  -28.3269   24.1392 H   0  0  0  0  0  0
  -20.5684  -26.2319   23.3629 H   0  0  0  0  0  0
  -21.6642  -26.7437   22.1211 H   0  0  0  0  0  0
  -19.6918  -25.6296   21.1252 H   0  0  0  0  0  0
  -19.6681  -27.3193   20.6757 H   0  0  0  0  0  0
  -17.4216  -26.6687   21.4020 H   0  0  0  0  0  0
  -18.0311  -26.0070   22.9020 H   0  0  0  0  0  0
  -19.7940  -30.7299   24.2227 H   0  0  0  0  0  0
  -17.5010  -31.6262   24.5183 H   0  0  0  0  0  0
  -15.5350  -30.2980   23.7670 H   0  0  0  0  0  0
  -15.8678  -28.0835   22.7050 H   0  0  0  0  0  0
  -24.5887  -30.7088   25.7748 H   0  0  0  0  0  0
  -24.8895  -32.2923   26.4811 H   0  0  0  0  0  0
  -25.8012  -30.8945   27.0224 H   0  0  0  0  0  0
  -26.2943  -29.6718   24.1230 H   0  0  0  0  0  0
  -27.3984  -29.7251   25.4773 H   0  0  0  0  0  0
  -27.8837  -30.4229   23.9503 H   0  0  0  0  0  0
  -27.2661  -33.3629   26.2033 H   0  0  0  0  0  0
  -28.3874  -32.6853   25.0318 H   0  0  0  0  0  0
  -28.0697  -31.8456   26.5426 H   0  0  0  0  0  0
  -28.2582  -38.0093   24.7513 H   0  0  0  0  0  0
  -28.1069  -36.2627   24.6261 H   0  0  0  0  0  0
  -27.2308  -37.1411   25.8871 H   0  0  0  0  0  0
  -20.9440  -29.8746   21.6835 H   0  0  0  0  0  0
  -26.0139  -38.2824   24.1408 H   0  0  0  0  0  0
  -27.1307  -19.8313   19.3973 H   0  0  0  0  0  0
  -24.3844  -23.9636   17.7023 H   0  0  0  0  0  0
  -24.9820  -25.4905   16.9078 H   0  0  0  0  0  0
  -26.3540  -24.2140   15.2973 H   0  0  0  0  0  0
  -25.7887  -22.6388   16.0099 H   0  0  0  0  0  0
  -28.8401  -18.2372   22.3774 H   0  0  0  0  0  0
  -27.4018  -18.1456   21.3803 H   0  0  0  0  0  0
  -27.8496  -15.9093   20.7789 H   0  0  0  0  0  0
  -28.6768  -15.9027   22.3315 H   0  0  0  0  0  0
  -31.2269  -17.6947   20.9223 H   0  0  0  0  0  0
  -30.8844  -17.3964   19.2310 H   0  0  0  0  0  0
  -27.3297  -24.9206   17.3101 H   0  0  0  0  0  0
  -28.6945  -18.3829   19.3554 H   0  0  0  0  0  0
  -25.0750  -20.4282   18.7180 H   0  0  0  0  0  0
  -25.6715  -20.8277   17.1287 H   0  0  0  0  0  0
  -24.6377  -21.9508   18.0468 H   0  0  0  0  0  0
  -30.1625  -23.8344   21.4509 H   0  0  0  0  0  0
  -31.1269  -23.0855   20.1659 H   0  0  0  0  0  0
  -30.6002  -22.1481   21.5625 H   0  0  0  0  0  0
  -28.8451  -25.5608   18.3860 H   0  0  0  0  0  0
  -29.8082  -25.1303   19.6370 H   0  0  0  0  0  0
  -30.4473  -20.2405   20.8545 H   0  0  0  0  0  0
  1 25  1  0  0  0
  1 30  2  0  0  0
  1 87  1  0  0  0
  2  3  1  0  0  0
  2 25  1  0  0  0
  2 89  1  0  0  0
  2 90  1  0  0  0
  3  4  1  0  0  0
  3 91  1  0  0  0
  3 92  1  0  0  0
  4  5  1  0  0  0
  4 93  1  0  0  0
  4 94  1  0  0  0
  5  6  1  0  0  0
  5 26  1  0  0  0
  5 95  1  0  0  0
  6 25  1  0  0  0
  6 96  1  0  0  0
  6 97  1  0  0  0
  7  8  2  0  0  0
  7 26  1  0  0  0
  7 29  1  0  0  0
  8  9  1  0  0  0
  8 22  1  0  0  0
  9 10  1  0  0  0
  9 27  2  0  0  0
 10 11  2  0  0  0
 10 15  1  0  0  0
 11 12  1  0  0  0
 11 98  1  0  0  0
 12 13  2  0  0  0
 12 99  1  0  0  0
 13 14  1  0  0  0
 13 31  1  0  0  0
 14 15  2  0  0  0
 14100  1  0  0  0
 15101  1  0  0  0
 16 17  2  0  0  0
 16 21  1  0  0  0
 16 31  1  0  0  0
 17 18  1  0  0  0
 17102  1  0  0  0
 18 19  2  0  0  0
 18103  1  0  0  0
 19 20  1  0  0  0
 19 24  1  0  0  0
 20 21  2  0  0  0
 20104  1  0  0  0
 21 23  1  0  0  0
 22 28  1  0  0  0
 22 32  2  0  0  0
 26 27  1  0  0  0
 28105  1  0  0  0
 28106  1  0  0  0
 29107  1  0  0  0
 29108  1  0  0  0
 33 34  1  0  0  0
 33 66  1  0  0  0
 33 70  2  0  0  0
 34 36  1  0  0  0
 34 59  1  0  0  0
 34109  1  0  0  0
 35 44  2  0  0  0
 35 45  1  0  0  0
 35 68  1  0  0  0
 36 56  1  0  0  0
 36110  1  0  0  0
 37 39  1  0  0  0
 37 47  1  0  0  0
 37 66  1  0  0  0
 37111  1  0  0  0
 38 43  2  0  0  0
 38 46  1  0  0  0
 38 47  1  0  0  0
 39 64  1  0  0  0
 39 67  2  0  0  0
 40 52  1  0  0  0
 40 53  2  0  0  0
 40 58  1  0  0  0
 41112  1  0  0  0
 41113  1  0  0  0
 41114  1  0  0  0
 41 48  1  0  0  0
 42 43  1  0  0  0
 42 66  1  0  0  0
 42115  1  0  0  0
 42116  1  0  0  0
 43 44  1  0  0  0
 44117  1  0  0  0
 45 46  2  0  0  0
 45118  1  0  0  0
 46119  1  0  0  0
 47120  1  0  0  0
 47121  1  0  0  0
 48 56  1  0  0  0
 48 65  1  0  0  0
 48122  1  0  0  0
 49 50  1  0  0  0
 49 53  1  0  0  0
 49 64  1  0  0  0
 49123  1  0  0  0
 50 51  1  0  0  0
 50124  1  0  0  0
 50125  1  0  0  0
 51 52  1  0  0  0
 51126  1  0  0  0
 51127  1  0  0  0
 52128  1  0  0  0
 52129  1  0  0  0
 53 54  1  0  0  0
 54 55  2  0  0  0
 54130  1  0  0  0
 55 57  1  0  0  0
 55131  1  0  0  0
 56 69  2  0  0  0
 57 58  2  0  0  0
 57132  1  0  0  0
 58133  1  0  0  0
 59 60  1  0  0  0
 59 61  1  0  0  0
 59 62  1  0  0  0
 60134  1  0  0  0
 60135  1  0  0  0
 60136  1  0  0  0
 61137  1  0  0  0
 61138  1  0  0  0
 61139  1  0  0  0
 62140  1  0  0  0
 62141  1  0  0  0
 62142  1  0  0  0
 63 65  1  0  0  0
 63143  1  0  0  0
 63144  1  0  0  0
 63145  1  0  0  0
 64146  1  0  0  0
 65147  1  0  0  0
 68 86  1  0  0  0
 71 73  2  0  0  0
 71 76  1  0  0  0
 71148  1  0  0  0
 72 73  1  0  0  0
 72 74  2  0  0  0
 72 82  1  0  0  0
 73 84  1  0  0  0
 74 75  1  0  0  0
 74 86  1  0  0  0
 75 76  2  0  0  0
 75 85  1  0  0  0
 76 88  1  0  0  0
 77 78  1  0  0  0
 77 82  1  0  0  0
 77149  1  0  0  0
 77150  1  0  0  0
 78 82  1  0  0  0
 78151  1  0  0  0
 78152  1  0  0  0
 79 80  1  0  0  0
 79 83  1  0  0  0
 79153  1  0  0  0
 79154  1  0  0  0
 80 87  1  0  0  0
 80155  1  0  0  0
 80156  1  0  0  0
 81 83  1  0  0  0
 81 87  1  0  0  0
 81157  1  0  0  0
 81158  1  0  0  0
 82159  1  0  0  0
 83 88  1  0  0  0
 83160  1  0  0  0
 84161  1  0  0  0
 84162  1  0  0  0
 84163  1  0  0  0
 85164  1  0  0  0
 85165  1  0  0  0
 85166  1  0  0  0
 86167  1  0  0  0
 86168  1  0  0  0
 88169  1  0  0  0
M  ISO  4   1 100  68 101  86 101  87 100
M  END
> <chiral flag>
0

> <version>
0

> <s_m_source_file>
/data/baiqing/PycharmProjects/Reinvent-master-3.2/result/LINK_invent/BTK/process_docking_weight1_custom_sum_contain_oxygen_bond_distance_aromatic_linkinvent_7_9_3/rearranged_h_0171.sdf

> <i_m_source_file_index>
15

> <r_mmod_Potential_Energy-OPLS-2005>
515.549865722656

> <r_mmod_Stretch_Energy-OPLS-2005>
162.971984863281

> <r_mmod_Bend_Energy-OPLS-2005>
293.4287109375

> <r_mmod_Torsional_Energy-OPLS-2005>
355.340515136719

> <r_mmod_Improper_Torsional_Energy-OPLS-2005>
12.0103282928467

> <r_mmod_Van_der_Waal_Energy-OPLS-2005>
157.884674072266

> <r_mmod_Electrostatic_Energy-OPLS-2005>
-363.366302490234

> <r_mmod_Solvation_Energy-OPLS-2005>
-209.644119262695

> <b_mmod_Minimization_Converged-OPLS-2005>
0

> <r_mmod_RMS_Derivative-OPLS-2005>
1.9022182226181

$$$$
15
                    3D
 Structure written by MMmdl.
156165  0  0  1  0            999 V2000
  -30.5996  -14.9004   20.4643 C   0  0  0  0  0  0
  -30.4362  -12.5689   19.4887 C   0  0  0  0  0  0
  -29.5139  -12.5320   18.2487 C   0  0  0  0  0  0
  -28.0461  -12.3229   18.6660 C   0  0  0  0  0  0
  -27.6330  -13.2407   19.8456 C   0  0  2  0  0  0
  -28.6826  -13.2242   20.9791 C   0  0  0  0  0  0
  -25.2420  -13.8179   20.5656 C   0  0  0  0  0  0
  -24.1759  -13.0409   20.9225 C   0  0  0  0  0  0
  -24.6391  -11.6904   20.8774 C   0  0  0  0  0  0
  -23.9079  -10.4277   21.0418 C   0  0  0  0  0  0
  -24.3626   -9.4191   21.9194 C   0  0  0  0  0  0
  -23.6295   -8.2231   22.0759 C   0  0  0  0  0  0
  -22.4277   -8.0275   21.3546 C   0  0  0  0  0  0
  -21.9919   -9.0251   20.4648 C   0  0  0  0  0  0
  -22.7253  -10.2126   20.3061 C   0  0  0  0  0  0
  -21.6851   -6.0733   22.5280 C   0  0  0  0  0  0
  -21.4013   -6.5639   23.8213 C   0  0  0  0  0  0
  -21.3659   -5.6792   24.9175 C   0  0  0  0  0  0
  -21.6044   -4.3055   24.7226 C   0  0  0  0  0  0
  -21.8819   -3.8145   23.4348 C   0  0  0  0  0  0
  -21.9192   -4.6961   22.3404 C   0  0  0  0  0  0
  -22.7780  -13.5183   21.1879 C   0  0  0  0  0  0
  -22.1661   -4.2146   21.0982 F   0  0  0  0  0  0
  -21.5629   -3.4539   25.7740 F   0  0  0  0  0  0
  -29.9561  -13.6618   20.3861 N   0  0  0  0  0  0
  -26.2890  -12.9425   20.3278 N   0  0  0  0  0  0
  -25.9328  -11.6560   20.5784 N   0  0  0  0  0  0
  -22.0438  -12.8178   22.0446 N   0  0  0  0  0  0
  -25.3949  -15.1895   20.3950 N   0  0  0  0  0  0
  -31.7909  -14.9225   20.1336 O   0  0  0  0  0  0
  -21.6637   -6.8876   21.4242 O   0  0  0  0  0  0
  -22.3459  -14.5487   20.6724 O   0  0  0  0  0  0
  -24.6426  -31.8476   23.1934 C   0  0  0  0  0  0
  -25.9209  -32.4714   23.8306 C   0  0  1  0  0  0
  -27.2106  -27.1562   20.1356 C   0  0  0  0  0  0
  -25.5966  -33.8519   24.2218 N   0  0  0  0  0  0
  -23.4444  -30.4717   21.5394 C   0  0  2  0  0  0
  -24.8926  -28.9124   20.1087 C   0  0  0  0  0  0
  -22.7565  -29.4568   22.4870 C   0  0  0  0  0  0
  -18.0305  -28.1395   22.8478 C   0  0  0  0  0  0
  -24.1493  -36.7260   23.2640 C   0  0  0  0  0  0
  -26.0023  -30.7261   21.3932 C   0  0  0  0  0  0
  -26.0722  -29.3422   20.7298 C   0  0  0  0  0  0
  -27.2324  -28.4796   20.7317 C   0  0  0  0  0  0
  -26.0033  -26.8400   19.4645 C   0  0  0  0  0  0
  -24.8705  -27.6731   19.4616 C   0  0  0  0  0  0
  -23.6694  -29.8113   20.1557 C   0  0  0  0  0  0
  -25.4123  -36.3043   24.0318 C   0  0  1  0  0  0
  -20.5918  -28.3721   23.1235 C   0  0  2  0  0  0
  -20.6792  -26.9427   22.5400 C   0  0  0  0  0  0
  -19.5762  -26.6383   21.5211 C   0  0  0  0  0  0
  -18.1945  -26.7933   22.1625 C   0  0  0  0  0  0
  -19.1562  -28.8876   23.2849 C   0  0  0  0  0  0
  -18.9478  -30.1473   23.8874 C   0  0  0  0  0  0
  -17.6474  -30.6591   24.0559 C   0  0  0  0  0  0
  -25.9074  -34.9416   23.5071 C   0  0  0  0  0  0
  -16.5365  -29.9084   23.6337 C   0  0  0  0  0  0
  -16.7290  -28.6503   23.0357 C   0  0  0  0  0  0
  -26.4531  -31.6571   25.0737 C   0  0  0  0  0  0
  -25.3716  -31.3755   26.1431 C   0  0  0  0  0  0
  -27.0397  -30.2967   24.6315 C   0  0  0  0  0  0
  -27.6061  -32.4335   25.7522 C   0  0  0  0  0  0
  -27.5578  -37.1788   24.8465 C   0  0  0  0  0  0
  -21.4259  -29.3054   22.3614 N   0  0  0  0  0  0
  -26.4288  -37.3753   23.9409 N   0  0  0  0  0  0
  -24.7162  -31.0350   22.0967 N   0  0  0  0  0  0
  -23.4218  -28.8102   23.3001 O   0  0  0  0  0  0
  -28.2404  -26.1458   20.2167 O   0  0  0  0  0  0
  -26.5650  -34.8906   22.4644 O   0  0  0  0  0  0
  -23.5547  -32.1348   23.7160 O   0  0  0  0  0  0
  -29.0709  -22.4781   19.0422 C   0  0  0  0  0  0
  -29.3523  -21.0624   19.1096 C   0  0  0  0  0  0
  -28.6142  -23.2470   20.1602 C   0  0  0  0  0  0
  -29.2069  -20.3011   20.3051 C   0  0  0  0  0  0
  -28.5708  -22.4211   21.3383 C   0  0  0  0  0  0
  -28.4583  -17.9733   21.5113 C   0  0  0  0  0  0
  -28.6955  -16.4268   21.3855 C   0  0  0  0  0  0
  -30.3696  -17.5705   20.2041 C   0  0  0  0  0  0
  -29.1680  -18.6509   20.3348 C   0  0  2  0  0  0
  -28.0717  -23.0145   22.6398 C   0  0  0  0  0  0
  -27.8290  -24.6789   19.9557 C   0  0  0  0  0  0
  -28.8630  -21.0553   21.4040 N   0  0  0  0  0  0
  -29.9097  -16.1462   20.5955 N   0  0  0  0  0  0
  -31.4694  -12.7134   19.1696 H   0  0  0  0  0  0
  -30.4260  -11.6089   20.0073 H   0  0  0  0  0  0
  -29.8259  -11.7399   17.5666 H   0  0  0  0  0  0
  -29.6073  -13.4677   17.6953 H   0  0  0  0  0  0
  -27.9328  -11.2779   18.9568 H   0  0  0  0  0  0
  -27.3826  -12.4756   17.8140 H   0  0  0  0  0  0
  -27.6065  -14.2480   19.4314 H   0  0  0  0  0  0
  -28.7732  -12.2229   21.4029 H   0  0  0  0  0  0
  -28.3813  -13.8579   21.8094 H   0  0  0  0  0  0
  -25.2769   -9.5665   22.4773 H   0  0  0  0  0  0
  -23.9999   -7.4620   22.7478 H   0  0  0  0  0  0
  -21.0851   -8.8776   19.8951 H   0  0  0  0  0  0
  -22.3717  -10.9670   19.6172 H   0  0  0  0  0  0
  -21.2006   -7.6148   23.9715 H   0  0  0  0  0  0
  -21.1480   -6.0523   25.9078 H   0  0  0  0  0  0
  -22.0599   -2.7607   23.2849 H   0  0  0  0  0  0
  -22.4067  -11.9847   22.4839 H   0  0  0  0  0  0
  -21.1053  -13.1193   22.2654 H   0  0  0  0  0  0
  -24.6154  -15.8304   20.4958 H   0  0  0  0  0  0
  -26.2270  -15.6332   20.0302 H   0  0  0  0  0  0
  -26.7274  -32.5325   23.1036 H   0  0  0  0  0  0
  -25.0102  -33.9642   25.0357 H   0  0  0  0  0  0
  -22.7458  -31.2977   21.3908 H   0  0  0  0  0  0
  -23.3761  -35.9586   23.3292 H   0  0  0  0  0  0
  -24.3578  -36.8901   22.2057 H   0  0  0  0  0  0
  -23.7241  -37.6452   23.6680 H   0  0  0  0  0  0
  -26.1602  -31.4841   20.6248 H   0  0  0  0  0  0
  -26.8721  -30.7707   22.0368 H   0  0  0  0  0  0
  -28.1264  -28.8010   21.2476 H   0  0  0  0  0  0
  -25.8726  -25.9052   18.9440 H   0  0  0  0  0  0
  -23.9725  -27.3409   18.9586 H   0  0  0  0  0  0
  -23.8055  -30.5907   19.4050 H   0  0  0  0  0  0
  -22.7841  -29.2550   19.8423 H   0  0  0  0  0  0
  -25.1310  -36.1874   25.0810 H   0  0  0  0  0  0
  -21.0009  -28.3309   24.1357 H   0  0  0  0  0  0
  -20.5691  -26.2334   23.3617 H   0  0  0  0  0  0
  -21.6657  -26.7438   22.1193 H   0  0  0  0  0  0
  -19.6923  -25.6288   21.1254 H   0  0  0  0  0  0
  -19.6695  -27.3181   20.6731 H   0  0  0  0  0  0
  -17.4212  -26.6676   21.4031 H   0  0  0  0  0  0
  -18.0346  -26.0082   22.9028 H   0  0  0  0  0  0
  -19.7953  -30.7297   24.2231 H   0  0  0  0  0  0
  -17.5026  -31.6269   24.5166 H   0  0  0  0  0  0
  -15.5364  -30.2977   23.7675 H   0  0  0  0  0  0
  -15.8691  -28.0813   22.7084 H   0  0  0  0  0  0
  -24.5905  -30.7093   25.7751 H   0  0  0  0  0  0
  -24.8895  -32.2934   26.4802 H   0  0  0  0  0  0
  -25.8001  -30.8965   27.0244 H   0  0  0  0  0  0
  -26.3017  -29.6691   24.1304 H   0  0  0  0  0  0
  -27.3991  -29.7263   25.4890 H   0  0  0  0  0  0
  -27.8935  -30.4203   23.9650 H   0  0  0  0  0  0
  -27.2654  -33.3653   26.2047 H   0  0  0  0  0  0
  -28.3900  -32.6867   25.0370 H   0  0  0  0  0  0
  -28.0699  -31.8495   26.5482 H   0  0  0  0  0  0
  -28.2585  -38.0095   24.7518 H   0  0  0  0  0  0
  -28.1084  -36.2624   24.6287 H   0  0  0  0  0  0
  -27.2294  -37.1428   25.8867 H   0  0  0  0  0  0
  -20.9465  -29.8779   21.6807 H   0  0  0  0  0  0
  -26.0157  -38.2821   24.1414 H   0  0  0  0  0  0
  -29.1059  -22.9529   18.0721 H   0  0  0  0  0  0
  -29.5973  -20.5421   18.1933 H   0  0  0  0  0  0
  -28.9008  -18.3310   22.4421 H   0  0  0  0  0  0
  -27.3976  -18.2247   21.5474 H   0  0  0  0  0  0
  -27.8472  -15.9813   20.8775 H   0  0  0  0  0  0
  -28.7632  -15.9788   22.3776 H   0  0  0  0  0  0
  -31.1849  -17.8518   20.8717 H   0  0  0  0  0  0
  -30.7777  -17.5720   19.1930 H   0  0  0  0  0  0
  -28.5372  -18.4380   19.4703 H   0  0  0  0  0  0
  -28.4374  -24.0341   22.7639 H   0  0  0  0  0  0
  -28.4102  -22.4336   23.4982 H   0  0  0  0  0  0
  -26.9821  -23.0373   22.6522 H   0  0  0  0  0  0
  -26.8896  -24.5299   20.4898 H   0  0  0  0  0  0
  -27.5703  -24.6505   18.8973 H   0  0  0  0  0  0
  1 25  1  0  0  0
  1 30  2  0  0  0
  1 83  1  0  0  0
  2  3  1  0  0  0
  2 25  1  0  0  0
  2 84  1  0  0  0
  2 85  1  0  0  0
  3  4  1  0  0  0
  3 86  1  0  0  0
  3 87  1  0  0  0
  4  5  1  0  0  0
  4 88  1  0  0  0
  4 89  1  0  0  0
  5  6  1  0  0  0
  5 26  1  0  0  0
  5 90  1  0  0  0
  6 25  1  0  0  0
  6 91  1  0  0  0
  6 92  1  0  0  0
  7  8  2  0  0  0
  7 26  1  0  0  0
  7 29  1  0  0  0
  8  9  1  0  0  0
  8 22  1  0  0  0
  9 10  1  0  0  0
  9 27  2  0  0  0
 10 11  2  0  0  0
 10 15  1  0  0  0
 11 12  1  0  0  0
 11 93  1  0  0  0
 12 13  2  0  0  0
 12 94  1  0  0  0
 13 14  1  0  0  0
 13 31  1  0  0  0
 14 15  2  0  0  0
 14 95  1  0  0  0
 15 96  1  0  0  0
 16 17  2  0  0  0
 16 21  1  0  0  0
 16 31  1  0  0  0
 17 18  1  0  0  0
 17 97  1  0  0  0
 18 19  2  0  0  0
 18 98  1  0  0  0
 19 20  1  0  0  0
 19 24  1  0  0  0
 20 21  2  0  0  0
 20 99  1  0  0  0
 21 23  1  0  0  0
 22 28  1  0  0  0
 22 32  2  0  0  0
 26 27  1  0  0  0
 28100  1  0  0  0
 28101  1  0  0  0
 29102  1  0  0  0
 29103  1  0  0  0
 33 34  1  0  0  0
 33 66  1  0  0  0
 33 70  2  0  0  0
 34 36  1  0  0  0
 34 59  1  0  0  0
 34104  1  0  0  0
 35 44  2  0  0  0
 35 45  1  0  0  0
 35 68  1  0  0  0
 36 56  1  0  0  0
 36105  1  0  0  0
 37 39  1  0  0  0
 37 47  1  0  0  0
 37 66  1  0  0  0
 37106  1  0  0  0
 38 43  2  0  0  0
 38 46  1  0  0  0
 38 47  1  0  0  0
 39 64  1  0  0  0
 39 67  2  0  0  0
 40 52  1  0  0  0
 40 53  2  0  0  0
 40 58  1  0  0  0
 41107  1  0  0  0
 41108  1  0  0  0
 41109  1  0  0  0
 41 48  1  0  0  0
 42 43  1  0  0  0
 42 66  1  0  0  0
 42110  1  0  0  0
 42111  1  0  0  0
 43 44  1  0  0  0
 44112  1  0  0  0
 45 46  2  0  0  0
 45113  1  0  0  0
 46114  1  0  0  0
 47115  1  0  0  0
 47116  1  0  0  0
 48 56  1  0  0  0
 48 65  1  0  0  0
 48117  1  0  0  0
 49 50  1  0  0  0
 49 53  1  0  0  0
 49 64  1  0  0  0
 49118  1  0  0  0
 50 51  1  0  0  0
 50119  1  0  0  0
 50120  1  0  0  0
 51 52  1  0  0  0
 51121  1  0  0  0
 51122  1  0  0  0
 52123  1  0  0  0
 52124  1  0  0  0
 53 54  1  0  0  0
 54 55  2  0  0  0
 54125  1  0  0  0
 55 57  1  0  0  0
 55126  1  0  0  0
 56 69  2  0  0  0
 57 58  2  0  0  0
 57127  1  0  0  0
 58128  1  0  0  0
 59 60  1  0  0  0
 59 61  1  0  0  0
 59 62  1  0  0  0
 60129  1  0  0  0
 60130  1  0  0  0
 60131  1  0  0  0
 61132  1  0  0  0
 61133  1  0  0  0
 61134  1  0  0  0
 62135  1  0  0  0
 62136  1  0  0  0
 62137  1  0  0  0
 63 65  1  0  0  0
 63138  1  0  0  0
 63139  1  0  0  0
 63140  1  0  0  0
 64141  1  0  0  0
 65142  1  0  0  0
 68 81  1  0  0  0
 71 72  2  0  0  0
 71 73  1  0  0  0
 71143  1  0  0  0
 72 74  1  0  0  0
 72144  1  0  0  0
 73 75  2  0  0  0
 73 81  1  0  0  0
 74 82  2  0  0  0
 74 79  1  0  0  0
 75 80  1  0  0  0
 75 82  1  0  0  0
 76 77  1  0  0  0
 76 79  1  0  0  0
 76145  1  0  0  0
 76146  1  0  0  0
 77 83  1  0  0  0
 77147  1  0  0  0
 77148  1  0  0  0
 78 79  1  0  0  0
 78 83  1  0  0  0
 78149  1  0  0  0
 78150  1  0  0  0
 79151  1  0  0  0
 80152  1  0  0  0
 80153  1  0  0  0
 80154  1  0  0  0
 81155  1  0  0  0
 81156  1  0  0  0
M  ISO  4   1 100  68 101  81 101  83 100
M  END
> <chiral flag>
0

> <version>
0

> <s_m_source_file>
/data/baiqing/PycharmProjects/Reinvent-master-3.2/result/LINK_invent/BTK/process_docking_weight1_custom_sum_contain_oxygen_bond_distance_aromatic_linkinvent_7_9_3/rearranged_h_0171.sdf

> <i_m_source_file_index>
16

> <r_mmod_Potential_Energy-OPLS-2005>
507.730987548828

> <r_mmod_Stretch_Energy-OPLS-2005>
202.679489135742

> <r_mmod_Bend_Energy-OPLS-2005>
291.161834716797

> <r_mmod_Torsional_Energy-OPLS-2005>
330.398193359375

> <r_mmod_Improper_Torsional_Energy-OPLS-2005>
14.0657825469971

> <r_mmod_Van_der_Waal_Energy-OPLS-2005>
140.283645629883

> <r_mmod_Electrostatic_Energy-OPLS-2005>
-419.833953857422

> <r_mmod_Solvation_Energy-OPLS-2005>
-217.278457641602

> <b_mmod_Minimization_Converged-OPLS-2005>
0

> <r_mmod_RMS_Derivative-OPLS-2005>
0.14482370018959

$$$$
16
                    3D
 Structure written by MMmdl.
166174  0  0  1  0            999 V2000
  -30.6492  -14.6245   20.4757 C   0  0  0  0  0  0
  -30.4285  -12.3787   19.4557 C   0  0  0  0  0  0
  -29.5042  -12.5000   18.2246 C   0  0  0  0  0  0
  -28.0268  -12.3462   18.6362 C   0  0  0  0  0  0
  -27.6513  -13.2231   19.8612 C   0  0  2  0  0  0
  -28.6967  -13.0988   20.9929 C   0  0  0  0  0  0
  -25.2551  -13.8200   20.5699 C   0  0  0  0  0  0
  -24.1819  -13.0447   20.9175 C   0  0  0  0  0  0
  -24.6402  -11.6921   20.8733 C   0  0  0  0  0  0
  -23.9075  -10.4300   21.0401 C   0  0  0  0  0  0
  -24.3625   -9.4216   21.9182 C   0  0  0  0  0  0
  -23.6302   -8.2249   22.0753 C   0  0  0  0  0  0
  -22.4283   -8.0287   21.3547 C   0  0  0  0  0  0
  -21.9918   -9.0259   20.4645 C   0  0  0  0  0  0
  -22.7246  -10.2139   20.3052 C   0  0  0  0  0  0
  -21.6854   -6.0743   22.5281 C   0  0  0  0  0  0
  -21.4014   -6.5645   23.8215 C   0  0  0  0  0  0
  -21.3660   -5.6797   24.9178 C   0  0  0  0  0  0
  -21.6042   -4.3060   24.7227 C   0  0  0  0  0  0
  -21.8821   -3.8154   23.4348 C   0  0  0  0  0  0
  -21.9195   -4.6970   22.3403 C   0  0  0  0  0  0
  -22.7842  -13.5233   21.1848 C   0  0  0  0  0  0
  -22.1664   -4.2157   21.0981 F   0  0  0  0  0  0
  -21.5626   -3.4543   25.7739 F   0  0  0  0  0  0
  -30.0125  -13.4146   20.4213 N   0  0  0  0  0  0
  -26.2988  -12.9391   20.3334 N   0  0  0  0  0  0
  -25.9335  -11.6537   20.5764 N   0  0  0  0  0  0
  -22.0491  -12.8214   22.0405 N   0  0  0  0  0  0
  -25.4248  -15.1926   20.4179 N   0  0  0  0  0  0
  -31.8286  -14.7445   20.1364 O   0  0  0  0  0  0
  -21.6645   -6.8885   21.4244 O   0  0  0  0  0  0
  -22.3519  -14.5540   20.6708 O   0  0  0  0  0  0
  -24.6244  -31.8605   23.2042 C   0  0  0  0  0  0
  -25.9098  -32.4787   23.8363 C   0  0  1  0  0  0
  -27.2243  -27.3274   20.1217 C   0  0  0  0  0  0
  -25.5927  -33.8588   24.2294 N   0  0  0  0  0  0
  -23.4181  -30.4836   21.5459 C   0  0  2  0  0  0
  -24.8652  -28.9401   20.1108 C   0  0  0  0  0  0
  -22.7464  -29.4623   22.4942 C   0  0  0  0  0  0
  -18.0278  -28.1384   22.8483 C   0  0  0  0  0  0
  -24.1489  -36.7293   23.2640 C   0  0  0  0  0  0
  -25.9566  -30.7942   21.3735 C   0  0  0  0  0  0
  -26.0308  -29.4215   20.7182 C   0  0  0  0  0  0
  -27.2117  -28.6247   20.7171 C   0  0  0  0  0  0
  -26.0409  -26.9024   19.4750 C   0  0  0  0  0  0
  -24.8711  -27.6863   19.4796 C   0  0  0  0  0  0
  -23.6331  -29.8193   20.1600 C   0  0  0  0  0  0
  -25.4115  -36.3092   24.0334 C   0  0  1  0  0  0
  -20.5874  -28.3690   23.1286 C   0  0  2  0  0  0
  -20.6775  -26.9415   22.5412 C   0  0  0  0  0  0
  -19.5755  -26.6383   21.5211 C   0  0  0  0  0  0
  -18.1931  -26.7926   22.1619 C   0  0  0  0  0  0
  -19.1530  -28.8854   23.2880 C   0  0  0  0  0  0
  -18.9459  -30.1454   23.8903 C   0  0  0  0  0  0
  -17.6462  -30.6593   24.0561 C   0  0  0  0  0  0
  -25.9051  -34.9457   23.5114 C   0  0  0  0  0  0
  -16.5352  -29.9094   23.6326 C   0  0  0  0  0  0
  -16.7265  -28.6507   23.0351 C   0  0  0  0  0  0
  -26.4491  -31.6595   25.0724 C   0  0  0  0  0  0
  -25.3729  -31.3723   26.1454 C   0  0  0  0  0  0
  -27.0338  -30.3029   24.6155 C   0  0  0  0  0  0
  -27.6062  -32.4321   25.7492 C   0  0  0  0  0  0
  -27.5582  -37.1804   24.8466 C   0  0  0  0  0  0
  -21.4180  -29.3045   22.3689 N   0  0  0  0  0  0
  -26.4295  -37.3787   23.9412 N   0  0  0  0  0  0
  -24.6851  -31.0621   22.0989 N   0  0  0  0  0  0
  -23.4188  -28.8161   23.3018 O   0  0  0  0  0  0
  -28.3564  -26.5037   20.1846 O   0  0  0  0  0  0
  -26.5611  -34.8921   22.4674 O   0  0  0  0  0  0
  -23.5411  -32.1399   23.7378 O   0  0  0  0  0  0
  -28.9698  -18.1376   20.7383 C   0  0  0  0  0  0
  -27.8044  -21.8254   20.9474 C   0  0  0  0  0  0
  -27.9062  -20.3071   21.3105 C   0  0  0  0  0  0
  -30.2921  -20.3199   20.5418 C   0  0  0  0  0  0
  -29.1332  -22.5868   21.0886 C   0  0  1  0  0  0
  -30.1152  -21.8380   20.1395 C   0  0  1  0  0  0
  -31.4983  -22.5060   20.0667 C   0  0  0  0  0  0
  -30.3184  -17.2544   18.7650 C   0  0  0  0  0  0
  -28.6028  -24.6392   22.5262 C   0  0  0  0  0  0
  -28.2269  -25.0315   20.0662 C   0  0  0  0  0  0
  -30.1313  -17.1689   20.2981 C   0  0  2  0  0  0
  -29.0623  -24.1999   21.1210 C   0  0  2  0  0  0
  -29.0566  -19.5239   20.7687 N   0  0  0  0  0  0
  -29.8632  -15.7266   20.6619 N   0  0  0  0  0  0
  -27.9208  -17.5682   21.0609 O   0  0  0  0  0  0
  -31.4719  -12.4854   19.1543 H   0  0  0  0  0  0
  -30.3462  -11.3880   19.9051 H   0  0  0  0  0  0
  -29.7644  -11.7448   17.4818 H   0  0  0  0  0  0
  -29.6532  -13.4681   17.7429 H   0  0  0  0  0  0
  -27.8589  -11.2940   18.8688 H   0  0  0  0  0  0
  -27.3741  -12.5775   17.7938 H   0  0  0  0  0  0
  -27.6635  -14.2552   19.5106 H   0  0  0  0  0  0
  -28.7004  -12.0899   21.4078 H   0  0  0  0  0  0
  -28.4526  -13.7659   21.8213 H   0  0  0  0  0  0
  -25.2772   -9.5692   22.4756 H   0  0  0  0  0  0
  -24.0015   -7.4641   22.7471 H   0  0  0  0  0  0
  -21.0851   -8.8780   19.8948 H   0  0  0  0  0  0
  -22.3708  -10.9680   19.6161 H   0  0  0  0  0  0
  -21.2006   -7.6153   23.9721 H   0  0  0  0  0  0
  -21.1477   -6.0528   25.9081 H   0  0  0  0  0  0
  -22.0597   -2.7617   23.2847 H   0  0  0  0  0  0
  -22.4119  -11.9879   22.4787 H   0  0  0  0  0  0
  -21.1107  -13.1228   22.2616 H   0  0  0  0  0  0
  -24.6638  -15.8466   20.5631 H   0  0  0  0  0  0
  -26.2976  -15.6553   20.1932 H   0  0  0  0  0  0
  -26.7166  -32.5458   23.1118 H   0  0  0  0  0  0
  -25.0090  -33.9740   25.0449 H   0  0  0  0  0  0
  -22.7122  -31.3045   21.4042 H   0  0  0  0  0  0
  -23.3752  -35.9624   23.3303 H   0  0  0  0  0  0
  -24.3573  -36.8909   22.2053 H   0  0  0  0  0  0
  -23.7239  -37.6495   23.6654 H   0  0  0  0  0  0
  -26.0814  -31.5562   20.6029 H   0  0  0  0  0  0
  -26.8391  -30.8462   21.9994 H   0  0  0  0  0  0
  -28.1048  -28.9867   21.2076 H   0  0  0  0  0  0
  -25.9961  -25.9556   18.9578 H   0  0  0  0  0  0
  -23.9794  -27.3181   18.9913 H   0  0  0  0  0  0
  -23.7548  -30.5962   19.4045 H   0  0  0  0  0  0
  -22.7540  -29.2489   19.8553 H   0  0  0  0  0  0
  -25.1292  -36.1957   25.0827 H   0  0  0  0  0  0
  -20.9960  -28.3266   24.1407 H   0  0  0  0  0  0
  -20.5695  -26.2296   23.3609 H   0  0  0  0  0  0
  -21.6647  -26.7464   22.1203 H   0  0  0  0  0  0
  -19.6927  -25.6292   21.1250 H   0  0  0  0  0  0
  -19.6701  -27.3188   20.6735 H   0  0  0  0  0  0
  -17.4205  -26.6664   21.4018 H   0  0  0  0  0  0
  -18.0338  -26.0067   22.9014 H   0  0  0  0  0  0
  -19.7940  -30.7254   24.2291 H   0  0  0  0  0  0
  -17.5025  -31.6278   24.5158 H   0  0  0  0  0  0
  -15.5359  -30.3007   23.7652 H   0  0  0  0  0  0
  -15.8655  -28.0838   22.7070 H   0  0  0  0  0  0
  -24.5911  -30.7069   25.7773 H   0  0  0  0  0  0
  -24.8914  -32.2884   26.4876 H   0  0  0  0  0  0
  -25.8052  -30.8901   27.0229 H   0  0  0  0  0  0
  -26.2906  -29.6778   24.1193 H   0  0  0  0  0  0
  -27.4065  -29.7284   25.4644 H   0  0  0  0  0  0
  -27.8755  -30.4328   23.9352 H   0  0  0  0  0  0
  -27.2690  -33.3628   26.2062 H   0  0  0  0  0  0
  -28.3872  -32.6868   25.0317 H   0  0  0  0  0  0
  -28.0723  -31.8449   26.5412 H   0  0  0  0  0  0
  -28.2603  -38.0101   24.7514 H   0  0  0  0  0  0
  -28.1078  -36.2629   24.6294 H   0  0  0  0  0  0
  -27.2291  -37.1452   25.8869 H   0  0  0  0  0  0
  -20.9362  -29.8765   21.6896 H   0  0  0  0  0  0
  -26.0176  -38.2861   24.1416 H   0  0  0  0  0  0
  -27.0442  -22.2819   21.5821 H   0  0  0  0  0  0
  -27.4344  -21.9318   19.9266 H   0  0  0  0  0  0
  -26.9620  -19.8465   21.0146 H   0  0  0  0  0  0
  -27.9479  -20.2144   22.3969 H   0  0  0  0  0  0
  -30.8621  -20.2679   21.4706 H   0  0  0  0  0  0
  -30.9216  -19.8394   19.7958 H   0  0  0  0  0  0
  -29.5075  -22.3294   22.0808 H   0  0  0  0  0  0
  -29.7007  -21.8682   19.1300 H   0  0  0  0  0  0
  -31.9466  -22.6043   21.0562 H   0  0  0  0  0  0
  -31.4427  -23.4984   19.6194 H   0  0  0  0  0  0
  -32.1850  -21.9229   19.4521 H   0  0  0  0  0  0
  -30.3863  -18.2780   18.3996 H   0  0  0  0  0  0
  -29.4835  -16.7903   18.2385 H   0  0  0  0  0  0
  -31.2308  -16.7498   18.4480 H   0  0  0  0  0  0
  -29.2302  -24.2120   23.3090 H   0  0  0  0  0  0
  -27.5731  -24.3382   22.7209 H   0  0  0  0  0  0
  -28.6524  -25.7223   22.6409 H   0  0  0  0  0  0
  -28.5324  -24.7479   19.0587 H   0  0  0  0  0  0
  -27.1943  -24.7035   20.1772 H   0  0  0  0  0  0
  -31.0446  -17.4887   20.8017 H   0  0  0  0  0  0
  -30.0858  -24.5610   21.0372 H   0  0  0  0  0  0
  -28.9119  -15.5557   20.9555 H   0  0  0  0  0  0
  1 25  1  0  0  0
  1 30  2  0  0  0
  1 84  1  0  0  0
  2  3  1  0  0  0
  2 25  1  0  0  0
  2 86  1  0  0  0
  2 87  1  0  0  0
  3  4  1  0  0  0
  3 88  1  0  0  0
  3 89  1  0  0  0
  4  5  1  0  0  0
  4 90  1  0  0  0
  4 91  1  0  0  0
  5  6  1  0  0  0
  5 26  1  0  0  0
  5 92  1  0  0  0
  6 25  1  0  0  0
  6 93  1  0  0  0
  6 94  1  0  0  0
  7  8  2  0  0  0
  7 26  1  0  0  0
  7 29  1  0  0  0
  8  9  1  0  0  0
  8 22  1  0  0  0
  9 10  1  0  0  0
  9 27  2  0  0  0
 10 11  2  0  0  0
 10 15  1  0  0  0
 11 12  1  0  0  0
 11 95  1  0  0  0
 12 13  2  0  0  0
 12 96  1  0  0  0
 13 14  1  0  0  0
 13 31  1  0  0  0
 14 15  2  0  0  0
 14 97  1  0  0  0
 15 98  1  0  0  0
 16 17  2  0  0  0
 16 21  1  0  0  0
 16 31  1  0  0  0
 17 18  1  0  0  0
 17 99  1  0  0  0
 18 19  2  0  0  0
 18100  1  0  0  0
 19 20  1  0  0  0
 19 24  1  0  0  0
 20 21  2  0  0  0
 20101  1  0  0  0
 21 23  1  0  0  0
 22 28  1  0  0  0
 22 32  2  0  0  0
 26 27  1  0  0  0
 28102  1  0  0  0
 28103  1  0  0  0
 29104  1  0  0  0
 29105  1  0  0  0
 33 34  1  0  0  0
 33 66  1  0  0  0
 33 70  2  0  0  0
 34 36  1  0  0  0
 34 59  1  0  0  0
 34106  1  0  0  0
 35 44  2  0  0  0
 35 45  1  0  0  0
 35 68  1  0  0  0
 36 56  1  0  0  0
 36107  1  0  0  0
 37 39  1  0  0  0
 37 47  1  0  0  0
 37 66  1  0  0  0
 37108  1  0  0  0
 38 43  2  0  0  0
 38 46  1  0  0  0
 38 47  1  0  0  0
 39 64  1  0  0  0
 39 67  2  0  0  0
 40 52  1  0  0  0
 40 53  2  0  0  0
 40 58  1  0  0  0
 41109  1  0  0  0
 41110  1  0  0  0
 41111  1  0  0  0
 41 48  1  0  0  0
 42 43  1  0  0  0
 42 66  1  0  0  0
 42112  1  0  0  0
 42113  1  0  0  0
 43 44  1  0  0  0
 44114  1  0  0  0
 45 46  2  0  0  0
 45115  1  0  0  0
 46116  1  0  0  0
 47117  1  0  0  0
 47118  1  0  0  0
 48 56  1  0  0  0
 48 65  1  0  0  0
 48119  1  0  0  0
 49 50  1  0  0  0
 49 53  1  0  0  0
 49 64  1  0  0  0
 49120  1  0  0  0
 50 51  1  0  0  0
 50121  1  0  0  0
 50122  1  0  0  0
 51 52  1  0  0  0
 51123  1  0  0  0
 51124  1  0  0  0
 52125  1  0  0  0
 52126  1  0  0  0
 53 54  1  0  0  0
 54 55  2  0  0  0
 54127  1  0  0  0
 55 57  1  0  0  0
 55128  1  0  0  0
 56 69  2  0  0  0
 57 58  2  0  0  0
 57129  1  0  0  0
 58130  1  0  0  0
 59 60  1  0  0  0
 59 61  1  0  0  0
 59 62  1  0  0  0
 60131  1  0  0  0
 60132  1  0  0  0
 60133  1  0  0  0
 61134  1  0  0  0
 61135  1  0  0  0
 61136  1  0  0  0
 62137  1  0  0  0
 62138  1  0  0  0
 62139  1  0  0  0
 63 65  1  0  0  0
 63140  1  0  0  0
 63141  1  0  0  0
 63142  1  0  0  0
 64143  1  0  0  0
 65144  1  0  0  0
 68 80  1  0  0  0
 71 81  1  0  0  0
 71 83  1  0  0  0
 71 85  2  0  0  0
 72 73  1  0  0  0
 72145  1  0  0  0
 72146  1  0  0  0
 72 75  1  0  0  0
 73 83  1  0  0  0
 73147  1  0  0  0
 73148  1  0  0  0
 74 76  1  0  0  0
 74 83  1  0  0  0
 74149  1  0  0  0
 74150  1  0  0  0
 75 76  1  0  0  0
 75 82  1  0  0  0
 75151  1  0  0  0
 76 77  1  0  0  0
 76152  1  0  0  0
 77153  1  0  0  0
 77154  1  0  0  0
 77155  1  0  0  0
 78156  1  0  0  0
 78157  1  0  0  0
 78158  1  0  0  0
 78 81  1  0  0  0
 79159  1  0  0  0
 79160  1  0  0  0
 79161  1  0  0  0
 79 82  1  0  0  0
 80 82  1  0  0  0
 80162  1  0  0  0
 80163  1  0  0  0
 81 84  1  0  0  0
 81164  1  0  0  0
 82165  1  0  0  0
 84166  1  0  0  0
M  ISO  4   1 100  68 101  80 101  84 100
M  END
> <chiral flag>
0

> <version>
0

> <s_m_source_file>
/data/baiqing/PycharmProjects/Reinvent-master-3.2/result/LINK_invent/BTK/process_docking_weight1_custom_sum_contain_oxygen_bond_distance_aromatic_linkinvent_7_9_3/rearranged_h_0171.sdf

> <i_m_source_file_index>
17

> <r_mmod_Potential_Energy-OPLS-2005>
92.9213485717773

> <r_mmod_Stretch_Energy-OPLS-2005>
82.6609573364258

> <r_mmod_Bend_Energy-OPLS-2005>
160.607788085938

> <r_mmod_Torsional_Energy-OPLS-2005>
298.467559814453

> <r_mmod_Improper_Torsional_Energy-OPLS-2005>
6.56668329238892

> <r_mmod_Van_der_Waal_Energy-OPLS-2005>
134.160125732422

> <r_mmod_Electrostatic_Energy-OPLS-2005>
-429.704406738281

> <r_mmod_Solvation_Energy-OPLS-2005>
-205.424743652344

> <b_mmod_Minimization_Converged-OPLS-2005>
0

> <r_mmod_RMS_Derivative-OPLS-2005>
0.877413153648376

$$$$
17
                    3D
 Structure written by MMmdl.
173182  0  0  1  0            999 V2000
  -30.7517  -14.5414   20.5164 C   0  0  0  0  0  0
  -30.4042  -12.3485   19.4375 C   0  0  0  0  0  0
  -29.4868  -12.5060   18.2104 C   0  0  0  0  0  0
  -28.0135  -12.3453   18.6272 C   0  0  0  0  0  0
  -27.6483  -13.2039   19.8671 C   0  0  2  0  0  0
  -28.7059  -13.0643   20.9938 C   0  0  0  0  0  0
  -25.2548  -13.8144   20.5700 C   0  0  0  0  0  0
  -24.1813  -13.0418   20.9256 C   0  0  0  0  0  0
  -24.6375  -11.6909   20.8824 C   0  0  0  0  0  0
  -23.9040  -10.4292   21.0451 C   0  0  0  0  0  0
  -24.3620   -9.4213   21.9207 C   0  0  0  0  0  0
  -23.6325   -8.2232   22.0750 C   0  0  0  0  0  0
  -22.4308   -8.0278   21.3546 C   0  0  0  0  0  0
  -21.9932   -9.0231   20.4643 C   0  0  0  0  0  0
  -22.7222  -10.2131   20.3070 C   0  0  0  0  0  0
  -21.6864   -6.0751   22.5286 C   0  0  0  0  0  0
  -21.4004   -6.5645   23.8219 C   0  0  0  0  0  0
  -21.3677   -5.6788   24.9175 C   0  0  0  0  0  0
  -21.6068   -4.3056   24.7226 C   0  0  0  0  0  0
  -21.8822   -3.8153   23.4341 C   0  0  0  0  0  0
  -21.9192   -4.6978   22.3396 C   0  0  0  0  0  0
  -22.7841  -13.5265   21.1891 C   0  0  0  0  0  0
  -22.1662   -4.2166   21.0981 F   0  0  0  0  0  0
  -21.5655   -3.4537   25.7740 F   0  0  0  0  0  0
  -30.0194  -13.3861   20.4152 N   0  0  0  0  0  0
  -26.2978  -12.9283   20.3403 N   0  0  0  0  0  0
  -25.9308  -11.6466   20.5852 N   0  0  0  0  0  0
  -22.0472  -12.8210   22.0444 N   0  0  0  0  0  0
  -25.4192  -15.1851   20.4043 N   0  0  0  0  0  0
  -31.9120  -14.5751   20.0974 O   0  0  0  0  0  0
  -21.6666   -6.8886   21.4248 O   0  0  0  0  0  0
  -22.3548  -14.5568   20.6744 O   0  0  0  0  0  0
  -24.6239  -31.8635   23.2028 C   0  0  0  0  0  0
  -25.9107  -32.4796   23.8332 C   0  0  1  0  0  0
  -27.1994  -27.3602   20.1129 C   0  0  0  0  0  0
  -25.5939  -33.8602   24.2294 N   0  0  0  0  0  0
  -23.4110  -30.4931   21.5464 C   0  0  2  0  0  0
  -24.8502  -28.9535   20.1086 C   0  0  0  0  0  0
  -22.7457  -29.4661   22.4941 C   0  0  0  0  0  0
  -18.0291  -28.1388   22.8472 C   0  0  0  0  0  0
  -24.1491  -36.7310   23.2644 C   0  0  0  0  0  0
  -25.9465  -30.8137   21.3570 C   0  0  0  0  0  0
  -26.0192  -29.4416   20.7098 C   0  0  0  0  0  0
  -27.2035  -28.6555   20.7003 C   0  0  0  0  0  0
  -26.0152  -26.9155   19.4954 C   0  0  0  0  0  0
  -24.8477  -27.6954   19.4930 C   0  0  0  0  0  0
  -23.6197  -29.8336   20.1579 C   0  0  0  0  0  0
  -25.4102  -36.3112   24.0341 C   0  0  1  0  0  0
  -20.5900  -28.3682   23.1324 C   0  0  2  0  0  0
  -20.6786  -26.9404   22.5441 C   0  0  0  0  0  0
  -19.5762  -26.6389   21.5242 C   0  0  0  0  0  0
  -18.1927  -26.7936   22.1631 C   0  0  0  0  0  0
  -19.1538  -28.8845   23.2889 C   0  0  0  0  0  0
  -18.9466  -30.1459   23.8882 C   0  0  0  0  0  0
  -17.6466  -30.6573   24.0561 C   0  0  0  0  0  0
  -25.9046  -34.9483   23.5118 C   0  0  0  0  0  0
  -16.5346  -29.9082   23.6343 C   0  0  0  0  0  0
  -16.7279  -28.6521   23.0311 C   0  0  0  0  0  0
  -26.4464  -31.6581   25.0696 C   0  0  0  0  0  0
  -25.3700  -31.3706   26.1428 C   0  0  0  0  0  0
  -27.0257  -30.3021   24.6062 C   0  0  0  0  0  0
  -27.6070  -32.4250   25.7453 C   0  0  0  0  0  0
  -27.5571  -37.1807   24.8480 C   0  0  0  0  0  0
  -21.4173  -29.3034   22.3693 N   0  0  0  0  0  0
  -26.4301  -37.3795   23.9408 N   0  0  0  0  0  0
  -24.6800  -31.0717   22.0939 N   0  0  0  0  0  0
  -23.4226  -28.8223   23.3012 O   0  0  0  0  0  0
  -28.3035  -26.5162   20.1334 O   0  0  0  0  0  0
  -26.5624  -34.8954   22.4696 O   0  0  0  0  0  0
  -23.5437  -32.1404   23.7419 O   0  0  0  0  0  0
  -28.3037  -22.2000   22.1816 C   0  0  0  0  0  0
  -28.7327  -22.6330   20.8793 C   0  0  0  0  0  0
  -29.0037  -21.0627   22.5119 C   0  0  0  0  0  0
  -29.6563  -21.6897   20.4624 C   0  0  0  0  0  0
  -28.8465  -17.7161   21.1312 C   0  0  0  0  0  0
  -28.8613  -16.2257   20.7441 C   0  0  0  0  0  0
  -31.0523  -16.8877   21.3011 C   0  0  0  0  0  0
  -30.2732  -18.1577   20.8674 C   0  0  1  0  0  0
  -27.2886  -22.8719   23.0838 C   0  0  0  0  0  0
  -28.9830  -20.3080   23.8107 C   0  0  0  0  0  0
  -30.4570  -21.6404   19.1962 C   0  0  0  0  0  0
  -26.9554  -23.4663   19.3122 C   0  0  0  0  0  0
  -31.7670  -19.5078   22.5686 C   0  0  0  0  0  0
  -28.1195  -25.2366   20.8309 C   0  0  0  0  0  0
  -28.2532  -23.8640   20.0464 C   0  0  1  0  0  0
  -30.8030  -19.5619   21.3697 C   0  0  2  0  0  0
  -29.8320  -20.7069   21.4459 N   0  0  0  0  0  0
  -30.2061  -15.6968   21.0192 N   0  0  0  0  0  0
  -31.4505  -12.4165   19.1364 H   0  0  0  0  0  0
  -30.2887  -11.3551   19.8721 H   0  0  0  0  0  0
  -29.7382  -11.7695   17.4451 H   0  0  0  0  0  0
  -29.6372  -13.4860   17.7537 H   0  0  0  0  0  0
  -27.8475  -11.2872   18.8382 H   0  0  0  0  0  0
  -27.3569  -12.5979   17.7935 H   0  0  0  0  0  0
  -27.6484  -14.2272   19.5086 H   0  0  0  0  0  0
  -28.7110  -12.0404   21.3705 H   0  0  0  0  0  0
  -28.4845  -13.6810   21.8634 H   0  0  0  0  0  0
  -25.2767   -9.5708   22.4776 H   0  0  0  0  0  0
  -24.0059   -7.4629   22.7452 H   0  0  0  0  0  0
  -21.0868   -8.8744   19.8940 H   0  0  0  0  0  0
  -22.3676  -10.9683   19.6198 H   0  0  0  0  0  0
  -21.1950   -7.6147   23.9730 H   0  0  0  0  0  0
  -21.1527   -6.0518   25.9089 H   0  0  0  0  0  0
  -22.0580   -2.7615   23.2836 H   0  0  0  0  0  0
  -22.4121  -11.9879   22.4809 H   0  0  0  0  0  0
  -21.1084  -13.1245   22.2648 H   0  0  0  0  0  0
  -24.6441  -15.8317   20.5026 H   0  0  0  0  0  0
  -26.2616  -15.6271   20.0634 H   0  0  0  0  0  0
  -26.7173  -32.5448   23.1084 H   0  0  0  0  0  0
  -25.0093  -33.9715   25.0445 H   0  0  0  0  0  0
  -22.7059  -31.3171   21.4114 H   0  0  0  0  0  0
  -23.3770  -35.9630   23.3321 H   0  0  0  0  0  0
  -24.3628  -36.8905   22.2069 H   0  0  0  0  0  0
  -23.7226  -37.6522   23.6624 H   0  0  0  0  0  0
  -26.0618  -31.5704   20.5806 H   0  0  0  0  0  0
  -26.8376  -30.8719   21.9702 H   0  0  0  0  0  0
  -28.1062  -29.0219   21.1710 H   0  0  0  0  0  0
  -25.9731  -25.9535   19.0176 H   0  0  0  0  0  0
  -23.9487  -27.3173   19.0233 H   0  0  0  0  0  0
  -23.7326  -30.6160   19.4048 H   0  0  0  0  0  0
  -22.7350  -29.2694   19.8568 H   0  0  0  0  0  0
  -25.1272  -36.1969   25.0830 H   0  0  0  0  0  0
  -20.9962  -28.3219   24.1458 H   0  0  0  0  0  0
  -20.5744  -26.2229   23.3595 H   0  0  0  0  0  0
  -21.6638  -26.7451   22.1175 H   0  0  0  0  0  0
  -19.6917  -25.6327   21.1220 H   0  0  0  0  0  0
  -19.6729  -27.3236   20.6810 H   0  0  0  0  0  0
  -17.4204  -26.6720   21.4013 H   0  0  0  0  0  0
  -18.0284  -26.0080   22.9035 H   0  0  0  0  0  0
  -19.7932  -30.7296   24.2204 H   0  0  0  0  0  0
  -17.5015  -31.6249   24.5184 H   0  0  0  0  0  0
  -15.5347  -30.2963   23.7687 H   0  0  0  0  0  0
  -15.8684  -28.0869   22.6967 H   0  0  0  0  0  0
  -24.5939  -30.6953   25.7787 H   0  0  0  0  0  0
  -24.8803  -32.2861   26.4769 H   0  0  0  0  0  0
  -25.8059  -30.8991   27.0247 H   0  0  0  0  0  0
  -26.2769  -29.6818   24.1122 H   0  0  0  0  0  0
  -27.4064  -29.7219   25.4476 H   0  0  0  0  0  0
  -27.8580  -30.4365   23.9146 H   0  0  0  0  0  0
  -27.2776  -33.3635   26.1903 H   0  0  0  0  0  0
  -28.3935  -32.6626   25.0282 H   0  0  0  0  0  0
  -28.0607  -31.8394   26.5450 H   0  0  0  0  0  0
  -28.2605  -38.0091   24.7524 H   0  0  0  0  0  0
  -28.1035  -36.2634   24.6279 H   0  0  0  0  0  0
  -27.2301  -37.1437   25.8890 H   0  0  0  0  0  0
  -20.9324  -29.8763   21.6931 H   0  0  0  0  0  0
  -26.0194  -38.2877   24.1416 H   0  0  0  0  0  0
  -28.5905  -17.7929   22.1824 H   0  0  0  0  0  0
  -28.1092  -18.2878   20.5689 H   0  0  0  0  0  0
  -28.0850  -15.7035   21.2945 H   0  0  0  0  0  0
  -28.6680  -16.1357   19.6741 H   0  0  0  0  0  0
  -31.2483  -16.8853   22.3746 H   0  0  0  0  0  0
  -32.0296  -16.8715   20.8126 H   0  0  0  0  0  0
  -30.3445  -18.2039   19.7779 H   0  0  0  0  0  0
  -26.6200  -23.5194   22.5191 H   0  0  0  0  0  0
  -27.7992  -23.4585   23.8533 H   0  0  0  0  0  0
  -26.6550  -22.1377   23.5888 H   0  0  0  0  0  0
  -28.1319  -20.5755   24.4340 H   0  0  0  0  0  0
  -29.8704  -20.5262   24.4033 H   0  0  0  0  0  0
  -28.9339  -19.2351   23.6567 H   0  0  0  0  0  0
  -31.4379  -22.0963   19.3609 H   0  0  0  0  0  0
  -29.9677  -22.1722   18.3828 H   0  0  0  0  0  0
  -30.5953  -20.6148   18.8496 H   0  0  0  0  0  0
  -26.0912  -23.5044   19.9771 H   0  0  0  0  0  0
  -27.0134  -22.4494   18.9196 H   0  0  0  0  0  0
  -26.7585  -24.1054   18.4515 H   0  0  0  0  0  0
  -32.6422  -18.8959   22.3436 H   0  0  0  0  0  0
  -31.3136  -19.0958   23.4663 H   0  0  0  0  0  0
  -32.1419  -20.5068   22.7926 H   0  0  0  0  0  0
  -28.8873  -25.2202   21.6039 H   0  0  0  0  0  0
  -27.1782  -25.2569   21.3805 H   0  0  0  0  0  0
  -29.0106  -24.0213   19.2812 H   0  0  0  0  0  0
  -31.5260  -19.8434   20.6074 H   0  0  0  0  0  0
  1 25  1  0  0  0
  1 30  2  0  0  0
  1 88  1  0  0  0
  2  3  1  0  0  0
  2 25  1  0  0  0
  2 89  1  0  0  0
  2 90  1  0  0  0
  3  4  1  0  0  0
  3 91  1  0  0  0
  3 92  1  0  0  0
  4  5  1  0  0  0
  4 93  1  0  0  0
  4 94  1  0  0  0
  5  6  1  0  0  0
  5 26  1  0  0  0
  5 95  1  0  0  0
  6 25  1  0  0  0
  6 96  1  0  0  0
  6 97  1  0  0  0
  7  8  2  0  0  0
  7 26  1  0  0  0
  7 29  1  0  0  0
  8  9  1  0  0  0
  8 22  1  0  0  0
  9 10  1  0  0  0
  9 27  2  0  0  0
 10 11  2  0  0  0
 10 15  1  0  0  0
 11 12  1  0  0  0
 11 98  1  0  0  0
 12 13  2  0  0  0
 12 99  1  0  0  0
 13 14  1  0  0  0
 13 31  1  0  0  0
 14 15  2  0  0  0
 14100  1  0  0  0
 15101  1  0  0  0
 16 17  2  0  0  0
 16 21  1  0  0  0
 16 31  1  0  0  0
 17 18  1  0  0  0
 17102  1  0  0  0
 18 19  2  0  0  0
 18103  1  0  0  0
 19 20  1  0  0  0
 19 24  1  0  0  0
 20 21  2  0  0  0
 20104  1  0  0  0
 21 23  1  0  0  0
 22 28  1  0  0  0
 22 32  2  0  0  0
 26 27  1  0  0  0
 28105  1  0  0  0
 28106  1  0  0  0
 29107  1  0  0  0
 29108  1  0  0  0
 33 34  1  0  0  0
 33 66  1  0  0  0
 33 70  2  0  0  0
 34 36  1  0  0  0
 34 59  1  0  0  0
 34109  1  0  0  0
 35 44  2  0  0  0
 35 45  1  0  0  0
 35 68  1  0  0  0
 36 56  1  0  0  0
 36110  1  0  0  0
 37 39  1  0  0  0
 37 47  1  0  0  0
 37 66  1  0  0  0
 37111  1  0  0  0
 38 43  2  0  0  0
 38 46  1  0  0  0
 38 47  1  0  0  0
 39 64  1  0  0  0
 39 67  2  0  0  0
 40 52  1  0  0  0
 40 53  2  0  0  0
 40 58  1  0  0  0
 41112  1  0  0  0
 41113  1  0  0  0
 41114  1  0  0  0
 41 48  1  0  0  0
 42 43  1  0  0  0
 42 66  1  0  0  0
 42115  1  0  0  0
 42116  1  0  0  0
 43 44  1  0  0  0
 44117  1  0  0  0
 45 46  2  0  0  0
 45118  1  0  0  0
 46119  1  0  0  0
 47120  1  0  0  0
 47121  1  0  0  0
 48 56  1  0  0  0
 48 65  1  0  0  0
 48122  1  0  0  0
 49 50  1  0  0  0
 49 53  1  0  0  0
 49 64  1  0  0  0
 49123  1  0  0  0
 50 51  1  0  0  0
 50124  1  0  0  0
 50125  1  0  0  0
 51 52  1  0  0  0
 51126  1  0  0  0
 51127  1  0  0  0
 52128  1  0  0  0
 52129  1  0  0  0
 53 54  1  0  0  0
 54 55  2  0  0  0
 54130  1  0  0  0
 55 57  1  0  0  0
 55131  1  0  0  0
 56 69  2  0  0  0
 57 58  2  0  0  0
 57132  1  0  0  0
 58133  1  0  0  0
 59 60  1  0  0  0
 59 61  1  0  0  0
 59 62  1  0  0  0
 60134  1  0  0  0
 60135  1  0  0  0
 60136  1  0  0  0
 61137  1  0  0  0
 61138  1  0  0  0
 61139  1  0  0  0
 62140  1  0  0  0
 62141  1  0  0  0
 62142  1  0  0  0
 63 65  1  0  0  0
 63143  1  0  0  0
 63144  1  0  0  0
 63145  1  0  0  0
 64146  1  0  0  0
 65147  1  0  0  0
 68 84  1  0  0  0
 71 72  1  0  0  0
 71 73  2  0  0  0
 71 79  1  0  0  0
 72 74  2  0  0  0
 72 85  1  0  0  0
 73 80  1  0  0  0
 73 87  1  0  0  0
 74 81  1  0  0  0
 74 87  1  0  0  0
 75 76  1  0  0  0
 75148  1  0  0  0
 75149  1  0  0  0
 75 78  1  0  0  0
 76 88  1  0  0  0
 76150  1  0  0  0
 76151  1  0  0  0
 77 78  1  0  0  0
 77 88  1  0  0  0
 77152  1  0  0  0
 77153  1  0  0  0
 78 86  1  0  0  0
 78154  1  0  0  0
 79155  1  0  0  0
 79156  1  0  0  0
 79157  1  0  0  0
 80158  1  0  0  0
 80159  1  0  0  0
 80160  1  0  0  0
 81161  1  0  0  0
 81162  1  0  0  0
 81163  1  0  0  0
 82164  1  0  0  0
 82165  1  0  0  0
 82166  1  0  0  0
 82 85  1  0  0  0
 83167  1  0  0  0
 83168  1  0  0  0
 83169  1  0  0  0
 83 86  1  0  0  0
 84 85  1  0  0  0
 84170  1  0  0  0
 84171  1  0  0  0
 85172  1  0  0  0
 86 87  1  0  0  0
 86173  1  0  0  0
M  ISO  4   1 100  68 101  84 101  88 100
M  END
> <chiral flag>
0

> <version>
0

> <s_m_source_file>
/data/baiqing/PycharmProjects/Reinvent-master-3.2/result/LINK_invent/BTK/process_docking_weight1_custom_sum_contain_oxygen_bond_distance_aromatic_linkinvent_7_9_3/rearranged_h_0171.sdf

> <i_m_source_file_index>
18

> <r_mmod_Potential_Energy-OPLS-2005>
260.746002197266

> <r_mmod_Stretch_Energy-OPLS-2005>
64.3552551269531

> <r_mmod_Bend_Energy-OPLS-2005>
187.064010620117

> <r_mmod_Torsional_Energy-OPLS-2005>
364.433685302734

> <r_mmod_Improper_Torsional_Energy-OPLS-2005>
4.80576705932617

> <r_mmod_Van_der_Waal_Energy-OPLS-2005>
135.521713256836

> <r_mmod_Electrostatic_Energy-OPLS-2005>
-331.021392822266

> <r_mmod_Solvation_Energy-OPLS-2005>
-198.091430664062

> <b_mmod_Minimization_Converged-OPLS-2005>
0

> <r_mmod_RMS_Derivative-OPLS-2005>
6.11711931228638

$$$$
18
                    3D
 Structure written by MMmdl.
185196  0  0  1  0            999 V2000
  -30.7705  -14.3399   20.6987 C   0  0  0  0  0  0
  -30.4130  -12.2832   19.3829 C   0  0  0  0  0  0
  -29.4763  -12.5301   18.1860 C   0  0  0  0  0  0
  -28.0014  -12.3822   18.6042 C   0  0  0  0  0  0
  -27.6669  -13.1901   19.8845 C   0  0  2  0  0  0
  -28.7068  -12.8946   20.9906 C   0  0  0  0  0  0
  -25.2617  -13.8131   20.5681 C   0  0  0  0  0  0
  -24.1848  -13.0428   20.9171 C   0  0  0  0  0  0
  -24.6376  -11.6889   20.8732 C   0  0  0  0  0  0
  -23.9040  -10.4285   21.0410 C   0  0  0  0  0  0
  -24.3597   -9.4204   21.9187 C   0  0  0  0  0  0
  -23.6277   -8.2236   22.0753 C   0  0  0  0  0  0
  -22.4262   -8.0274   21.3538 C   0  0  0  0  0  0
  -21.9897   -9.0248   20.4640 C   0  0  0  0  0  0
  -22.7217  -10.2131   20.3055 C   0  0  0  0  0  0
  -21.6844   -6.0730   22.5276 C   0  0  0  0  0  0
  -21.4008   -6.5638   23.8209 C   0  0  0  0  0  0
  -21.3662   -5.6793   24.9174 C   0  0  0  0  0  0
  -21.6046   -4.3055   24.7225 C   0  0  0  0  0  0
  -21.8819   -3.8144   23.4347 C   0  0  0  0  0  0
  -21.9192   -4.6958   22.3402 C   0  0  0  0  0  0
  -22.7873  -13.5236   21.1839 C   0  0  0  0  0  0
  -22.1660   -4.2143   21.0979 F   0  0  0  0  0  0
  -21.5634   -3.4540   25.7741 F   0  0  0  0  0  0
  -30.0450  -13.2132   20.4621 N   0  0  0  0  0  0
  -26.3046  -12.9268   20.3412 N   0  0  0  0  0  0
  -25.9295  -11.6441   20.5768 N   0  0  0  0  0  0
  -22.0510  -12.8233   22.0395 N   0  0  0  0  0  0
  -25.4358  -15.1847   20.4079 N   0  0  0  0  0  0
  -31.7838  -14.6169   20.0451 O   0  0  0  0  0  0
  -21.6627   -6.8870   21.4235 O   0  0  0  0  0  0
  -22.3568  -14.5549   20.6692 O   0  0  0  0  0  0
  -24.6056  -31.8725   23.2147 C   0  0  0  0  0  0
  -25.8987  -32.4849   23.8422 C   0  0  1  0  0  0
  -27.2685  -27.5098   20.0730 C   0  0  0  0  0  0
  -25.5878  -33.8651   24.2360 N   0  0  0  0  0  0
  -23.3909  -30.4920   21.5521 C   0  0  2  0  0  0
  -24.8432  -28.9565   20.1242 C   0  0  0  0  0  0
  -22.7363  -29.4662   22.5029 C   0  0  0  0  0  0
  -18.0261  -28.1370   22.8492 C   0  0  0  0  0  0
  -24.1489  -36.7320   23.2635 C   0  0  0  0  0  0
  -25.9090  -30.8554   21.3603 C   0  0  0  0  0  0
  -25.9908  -29.4888   20.7213 C   0  0  0  0  0  0
  -27.1955  -28.7656   20.7177 C   0  0  0  0  0  0
  -26.0970  -26.9622   19.5092 C   0  0  0  0  0  0
  -24.8847  -27.6823   19.5270 C   0  0  0  0  0  0
  -23.5999  -29.8155   20.1681 C   0  0  0  0  0  0
  -25.4109  -36.3140   24.0346 C   0  0  1  0  0  0
  -20.5840  -28.3638   23.1350 C   0  0  2  0  0  0
  -20.6750  -26.9384   22.5429 C   0  0  0  0  0  0
  -19.5739  -26.6383   21.5214 C   0  0  0  0  0  0
  -18.1910  -26.7921   22.1616 C   0  0  0  0  0  0
  -19.1504  -28.8825   23.2919 C   0  0  0  0  0  0
  -18.9435  -30.1432   23.8925 C   0  0  0  0  0  0
  -17.6439  -30.6580   24.0564 C   0  0  0  0  0  0
  -25.9029  -34.9498   23.5154 C   0  0  0  0  0  0
  -16.5333  -29.9086   23.6317 C   0  0  0  0  0  0
  -16.7253  -28.6498   23.0342 C   0  0  0  0  0  0
  -26.4450  -31.6598   25.0713 C   0  0  0  0  0  0
  -25.3743  -31.3663   26.1473 C   0  0  0  0  0  0
  -27.0271  -30.3061   24.6015 C   0  0  0  0  0  0
  -27.6033  -32.4299   25.7487 C   0  0  0  0  0  0
  -27.5581  -37.1829   24.8471 C   0  0  0  0  0  0
  -21.4100  -29.3008   22.3758 N   0  0  0  0  0  0
  -26.4298  -37.3820   23.9411 N   0  0  0  0  0  0
  -24.6522  -31.0879   22.1014 N   0  0  0  0  0  0
  -23.4165  -28.8216   23.3057 O   0  0  0  0  0  0
  -28.4450  -26.8078   19.9446 O   0  0  0  0  0  0
  -26.5585  -34.8933   22.4711 O   0  0  0  0  0  0
  -23.5275  -32.1448   23.7590 O   0  0  0  0  0  0
  -31.8924  -19.0787   19.9615 C   0  0  0  0  0  0
  -30.9458  -20.4280   21.7254 C   0  0  0  0  0  0
  -31.2760  -19.1605   21.2257 C   0  0  0  0  0  0
  -32.1198  -20.2534   19.2198 C   0  0  0  0  0  0
  -31.6883  -21.4744   19.7883 C   0  0  0  0  0  0
  -33.8499  -19.1941   17.5343 C   0  0  0  0  0  0
  -34.1247  -20.6774   17.5844 C   0  0  0  0  0  0
  -29.6491  -17.2770   21.2890 C   0  0  0  0  0  0
  -32.0313  -16.9169   22.1894 C   0  0  0  0  0  0
  -32.4549  -23.8814   19.7840 C   0  0  0  0  0  0
  -29.2927  -15.9117   21.8877 C   0  0  0  0  0  0
  -31.5316  -15.5464   22.6948 C   0  0  0  0  0  0
  -32.2851  -25.2706   19.1607 C   0  0  0  0  0  0
  -30.1628  -24.6462   18.1206 C   0  0  0  0  0  0
  -30.8669  -17.9141   21.9880 C   0  0  0  0  0  0
  -32.7291  -20.1615   17.8489 C   0  0  0  0  0  0
  -31.6803  -22.7891   19.0108 C   0  0  2  0  0  0
  -30.2218  -23.2132   18.6722 C   0  0  2  0  0  0
  -29.5264  -22.2379   17.7016 C   0  0  0  0  0  0
  -30.5462  -27.0054   18.7481 C   0  0  0  0  0  0
  -29.6448  -27.5905   19.8405 C   0  0  0  0  0  0
  -31.1401  -21.5552   21.0219 N   0  0  0  0  0  0
  -30.4645  -15.0263   21.8264 N   0  0  0  0  0  0
  -30.8432  -25.5857   19.0404 N   0  3  2  0  0  0
  -31.4544  -12.3855   19.0731 H   0  0  0  0  0  0
  -30.3156  -11.2549   19.7345 H   0  0  0  0  0  0
  -29.7052  -11.8347   17.3770 H   0  0  0  0  0  0
  -29.6452  -13.5314   17.7869 H   0  0  0  0  0  0
  -27.8033  -11.3227   18.7714 H   0  0  0  0  0  0
  -27.3467  -12.6870   17.7870 H   0  0  0  0  0  0
  -27.7315  -14.2443   19.6178 H   0  0  0  0  0  0
  -28.6736  -11.8358   21.2516 H   0  0  0  0  0  0
  -28.4655  -13.4061   21.9212 H   0  0  0  0  0  0
  -25.2739   -9.5680   22.4764 H   0  0  0  0  0  0
  -23.9983   -7.4627   22.7477 H   0  0  0  0  0  0
  -21.0829   -8.8764   19.8944 H   0  0  0  0  0  0
  -22.3672  -10.9674   19.6168 H   0  0  0  0  0  0
  -21.1996   -7.6145   23.9706 H   0  0  0  0  0  0
  -21.1490   -6.0527   25.9076 H   0  0  0  0  0  0
  -22.0599   -2.7606   23.2849 H   0  0  0  0  0  0
  -22.4108  -11.9881   22.4773 H   0  0  0  0  0  0
  -21.1131  -13.1264   22.2595 H   0  0  0  0  0  0
  -24.6707  -15.8417   20.5154 H   0  0  0  0  0  0
  -26.2908  -15.6237   20.0910 H   0  0  0  0  0  0
  -26.7068  -32.5603   23.1208 H   0  0  0  0  0  0
  -25.0090  -33.9844   25.0539 H   0  0  0  0  0  0
  -22.6758  -31.3049   21.4114 H   0  0  0  0  0  0
  -23.3764  -35.9643   23.3318 H   0  0  0  0  0  0
  -24.3582  -36.8906   22.2046 H   0  0  0  0  0  0
  -23.7229  -37.6525   23.6630 H   0  0  0  0  0  0
  -26.0085  -31.6165   20.5854 H   0  0  0  0  0  0
  -26.8007  -30.9213   21.9709 H   0  0  0  0  0  0
  -28.0640  -29.1957   21.1964 H   0  0  0  0  0  0
  -26.1350  -25.9956   19.0268 H   0  0  0  0  0  0
  -24.0001  -27.2593   19.0719 H   0  0  0  0  0  0
  -23.7038  -30.5858   19.4027 H   0  0  0  0  0  0
  -22.7281  -29.2272   19.8758 H   0  0  0  0  0  0
  -25.1282  -36.2022   25.0839 H   0  0  0  0  0  0
  -20.9932  -28.3198   24.1473 H   0  0  0  0  0  0
  -20.5653  -26.2242   23.3602 H   0  0  0  0  0  0
  -21.6624  -26.7440   22.1224 H   0  0  0  0  0  0
  -19.6903  -25.6304   21.1220 H   0  0  0  0  0  0
  -19.6683  -27.3213   20.6759 H   0  0  0  0  0  0
  -17.4185  -26.6686   21.4007 H   0  0  0  0  0  0
  -18.0298  -26.0050   22.8997 H   0  0  0  0  0  0
  -19.7917  -30.7240   24.2303 H   0  0  0  0  0  0
  -17.5001  -31.6264   24.5162 H   0  0  0  0  0  0
  -15.5336  -30.2997   23.7628 H   0  0  0  0  0  0
  -15.8656  -28.0838   22.7036 H   0  0  0  0  0  0
  -24.5926  -30.6999   25.7810 H   0  0  0  0  0  0
  -24.8924  -32.2799   26.4960 H   0  0  0  0  0  0
  -25.8121  -30.8812   27.0203 H   0  0  0  0  0  0
  -26.2791  -29.6858   24.1064 H   0  0  0  0  0  0
  -27.4072  -29.7248   25.4424 H   0  0  0  0  0  0
  -27.8609  -30.4411   23.9121 H   0  0  0  0  0  0
  -27.2653  -33.3575   26.2118 H   0  0  0  0  0  0
  -28.3827  -32.6895   25.0310 H   0  0  0  0  0  0
  -28.0718  -31.8387   26.5367 H   0  0  0  0  0  0
  -28.2626  -38.0106   24.7514 H   0  0  0  0  0  0
  -28.1056  -36.2639   24.6311 H   0  0  0  0  0  0
  -27.2297  -37.1494   25.8877 H   0  0  0  0  0  0
  -20.9256  -29.8721   21.6975 H   0  0  0  0  0  0
  -26.0195  -38.2905   24.1404 H   0  0  0  0  0  0
  -32.1416  -18.1180   19.5351 H   0  0  0  0  0  0
  -30.4605  -20.5419   22.6838 H   0  0  0  0  0  0
  -34.2624  -18.5885   18.3395 H   0  0  0  0  0  0
  -33.8575  -18.7273   16.5509 H   0  0  0  0  0  0
  -34.3155  -21.1730   16.6341 H   0  0  0  0  0  0
  -34.7018  -21.0484   18.4297 H   0  0  0  0  0  0
  -28.7890  -17.9458   21.3538 H   0  0  0  0  0  0
  -29.8497  -17.1496   20.2236 H   0  0  0  0  0  0
  -32.5745  -16.7629   21.2583 H   0  0  0  0  0  0
  -32.7598  -17.3309   22.8879 H   0  0  0  0  0  0
  -32.1080  -23.9353   20.8166 H   0  0  0  0  0  0
  -33.5120  -23.6184   19.8379 H   0  0  0  0  0  0
  -28.4373  -15.5193   21.3443 H   0  0  0  0  0  0
  -28.9646  -16.0201   22.9227 H   0  0  0  0  0  0
  -31.1552  -15.6383   23.7148 H   0  0  0  0  0  0
  -32.3618  -14.8390   22.7448 H   0  0  0  0  0  0
  -32.7662  -25.3167   18.1820 H   0  0  0  0  0  0
  -32.7824  -26.0074   19.7926 H   0  0  0  0  0  0
  -29.1185  -24.9409   18.0032 H   0  0  0  0  0  0
  -30.6163  -24.7011   17.1294 H   0  0  0  0  0  0
  -30.5407  -18.2169   22.9849 H   0  0  0  0  0  0
  -31.9763  -20.3222   17.0783 H   0  0  0  0  0  0
  -32.2038  -22.6614   18.0639 H   0  0  0  0  0  0
  -29.6424  -23.2143   19.5970 H   0  0  0  0  0  0
  -30.0571  -22.1744   16.7509 H   0  0  0  0  0  0
  -28.5054  -22.5560   17.4874 H   0  0  0  0  0  0
  -29.4656  -21.2316   18.1169 H   0  0  0  0  0  0
  -31.4635  -27.5932   18.6943 H   0  0  0  0  0  0
  -30.0686  -27.1161   17.7735 H   0  0  0  0  0  0
  -29.4570  -28.6276   19.5594 H   0  0  0  0  0  0
  -30.1559  -27.6053   20.8038 H   0  0  0  0  0  0
  -30.4362  -25.4241   19.9518 H   0  0  0  0  0  0
  1 25  1  0  0  0
  1 30  2  0  0  0
  1 93  1  0  0  0
  2  3  1  0  0  0
  2 25  1  0  0  0
  2 95  1  0  0  0
  2 96  1  0  0  0
  3  4  1  0  0  0
  3 97  1  0  0  0
  3 98  1  0  0  0
  4  5  1  0  0  0
  4 99  1  0  0  0
  4100  1  0  0  0
  5  6  1  0  0  0
  5 26  1  0  0  0
  5101  1  0  0  0
  6 25  1  0  0  0
  6102  1  0  0  0
  6103  1  0  0  0
  7  8  2  0  0  0
  7 26  1  0  0  0
  7 29  1  0  0  0
  8  9  1  0  0  0
  8 22  1  0  0  0
  9 10  1  0  0  0
  9 27  2  0  0  0
 10 11  2  0  0  0
 10 15  1  0  0  0
 11 12  1  0  0  0
 11104  1  0  0  0
 12 13  2  0  0  0
 12105  1  0  0  0
 13 14  1  0  0  0
 13 31  1  0  0  0
 14 15  2  0  0  0
 14106  1  0  0  0
 15107  1  0  0  0
 16 17  2  0  0  0
 16 21  1  0  0  0
 16 31  1  0  0  0
 17 18  1  0  0  0
 17108  1  0  0  0
 18 19  2  0  0  0
 18109  1  0  0  0
 19 20  1  0  0  0
 19 24  1  0  0  0
 20 21  2  0  0  0
 20110  1  0  0  0
 21 23  1  0  0  0
 22 28  1  0  0  0
 22 32  2  0  0  0
 26 27  1  0  0  0
 28111  1  0  0  0
 28112  1  0  0  0
 29113  1  0  0  0
 29114  1  0  0  0
 33 34  1  0  0  0
 33 66  1  0  0  0
 33 70  2  0  0  0
 34 36  1  0  0  0
 34 59  1  0  0  0
 34115  1  0  0  0
 35 44  2  0  0  0
 35 45  1  0  0  0
 35 68  1  0  0  0
 36 56  1  0  0  0
 36116  1  0  0  0
 37 39  1  0  0  0
 37 47  1  0  0  0
 37 66  1  0  0  0
 37117  1  0  0  0
 38 43  2  0  0  0
 38 46  1  0  0  0
 38 47  1  0  0  0
 39 64  1  0  0  0
 39 67  2  0  0  0
 40 52  1  0  0  0
 40 53  2  0  0  0
 40 58  1  0  0  0
 41118  1  0  0  0
 41119  1  0  0  0
 41120  1  0  0  0
 41 48  1  0  0  0
 42 43  1  0  0  0
 42 66  1  0  0  0
 42121  1  0  0  0
 42122  1  0  0  0
 43 44  1  0  0  0
 44123  1  0  0  0
 45 46  2  0  0  0
 45124  1  0  0  0
 46125  1  0  0  0
 47126  1  0  0  0
 47127  1  0  0  0
 48 56  1  0  0  0
 48 65  1  0  0  0
 48128  1  0  0  0
 49 50  1  0  0  0
 49 53  1  0  0  0
 49 64  1  0  0  0
 49129  1  0  0  0
 50 51  1  0  0  0
 50130  1  0  0  0
 50131  1  0  0  0
 51 52  1  0  0  0
 51132  1  0  0  0
 51133  1  0  0  0
 52134  1  0  0  0
 52135  1  0  0  0
 53 54  1  0  0  0
 54 55  2  0  0  0
 54136  1  0  0  0
 55 57  1  0  0  0
 55137  1  0  0  0
 56 69  2  0  0  0
 57 58  2  0  0  0
 57138  1  0  0  0
 58139  1  0  0  0
 59 60  1  0  0  0
 59 61  1  0  0  0
 59 62  1  0  0  0
 60140  1  0  0  0
 60141  1  0  0  0
 60142  1  0  0  0
 61143  1  0  0  0
 61144  1  0  0  0
 61145  1  0  0  0
 62146  1  0  0  0
 62147  1  0  0  0
 62148  1  0  0  0
 63 65  1  0  0  0
 63149  1  0  0  0
 63150  1  0  0  0
 63151  1  0  0  0
 64152  1  0  0  0
 65153  1  0  0  0
 68 91  1  0  0  0
 71 73  2  0  0  0
 71 74  1  0  0  0
 71154  1  0  0  0
 72 73  1  0  0  0
 72 92  2  0  0  0
 72155  1  0  0  0
 73 85  1  0  0  0
 74 75  2  0  0  0
 74 86  1  0  0  0
 75 92  1  0  0  0
 75 87  1  0  0  0
 76 77  1  0  0  0
 76 86  1  0  0  0
 76156  1  0  0  0
 76157  1  0  0  0
 77 86  1  0  0  0
 77158  1  0  0  0
 77159  1  0  0  0
 78 81  1  0  0  0
 78 85  1  0  0  0
 78160  1  0  0  0
 78161  1  0  0  0
 79 82  1  0  0  0
 79 85  1  0  0  0
 79162  1  0  0  0
 79163  1  0  0  0
 80 83  1  0  0  0
 80 87  1  0  0  0
 80164  1  0  0  0
 80165  1  0  0  0
 81 93  1  0  0  0
 81166  1  0  0  0
 81167  1  0  0  0
 82 93  1  0  0  0
 82168  1  0  0  0
 82169  1  0  0  0
 83 94  1  0  0  0
 83170  1  0  0  0
 83171  1  0  0  0
 84 88  1  0  0  0
 84 94  1  0  0  0
 84172  1  0  0  0
 84173  1  0  0  0
 85174  1  0  0  0
 86175  1  0  0  0
 87 88  1  0  0  0
 87176  1  0  0  0
 88 89  1  0  0  0
 88177  1  0  0  0
 89178  1  0  0  0
 89179  1  0  0  0
 89180  1  0  0  0
 90 91  1  0  0  0
 90181  1  0  0  0
 90182  1  0  0  0
 90 94  1  0  0  0
 91183  1  0  0  0
 91184  1  0  0  0
 94185  1  0  0  0
M  CHG  1  94   1
M  ISO  4   1 100  68 101  91 101  93 100
M  END
> <chiral flag>
0

> <version>
0

> <s_m_source_file>
/data/baiqing/PycharmProjects/Reinvent-master-3.2/result/LINK_invent/BTK/process_docking_weight1_custom_sum_contain_oxygen_bond_distance_aromatic_linkinvent_7_9_3/rearranged_h_0171.sdf

> <i_m_source_file_index>
19

> <r_mmod_Potential_Energy-OPLS-2005>
-15.8479614257812

> <r_mmod_Stretch_Energy-OPLS-2005>
36.0218200683594

> <r_mmod_Bend_Energy-OPLS-2005>
106.428520202637

> <r_mmod_Torsional_Energy-OPLS-2005>
376.444915771484

> <r_mmod_Improper_Torsional_Energy-OPLS-2005>
8.20195484161377

> <r_mmod_Van_der_Waal_Energy-OPLS-2005>
175.52131652832

> <r_mmod_Electrostatic_Energy-OPLS-2005>
-328.862884521484

> <r_mmod_Solvation_Energy-OPLS-2005>
-396.881988525391

> <b_mmod_Minimization_Converged-OPLS-2005>
0

> <r_mmod_RMS_Derivative-OPLS-2005>
1.06100654602051

$$$$
19
                    3D
 Structure written by MMmdl.
174184  0  0  1  0            999 V2000
  -30.6920  -14.5073   20.4915 C   0  0  0  0  0  0
  -30.4150  -12.3092   19.4221 C   0  0  0  0  0  0
  -29.4913  -12.4845   18.1997 C   0  0  0  0  0  0
  -28.0119  -12.3598   18.6161 C   0  0  0  0  0  0
  -27.6515  -13.2071   19.8679 C   0  0  2  0  0  0
  -28.7023  -13.0464   20.9890 C   0  0  0  0  0  0
  -25.2565  -13.8146   20.5716 C   0  0  0  0  0  0
  -24.1812  -13.0425   20.9192 C   0  0  0  0  0  0
  -24.6364  -11.6883   20.8735 C   0  0  0  0  0  0
  -23.9027  -10.4277   21.0403 C   0  0  0  0  0  0
  -24.3591   -9.4195   21.9180 C   0  0  0  0  0  0
  -23.6275   -8.2227   22.0768 C   0  0  0  0  0  0
  -22.4263   -8.0247   21.3549 C   0  0  0  0  0  0
  -21.9872   -9.0225   20.4662 C   0  0  0  0  0  0
  -22.7196  -10.2112   20.3066 C   0  0  0  0  0  0
  -21.6847   -6.0693   22.5260 C   0  0  0  0  0  0
  -21.4013   -6.5608   23.8186 C   0  0  0  0  0  0
  -21.3680   -5.6775   24.9156 C   0  0  0  0  0  0
  -21.6058   -4.3037   24.7224 C   0  0  0  0  0  0
  -21.8822   -3.8112   23.4347 C   0  0  0  0  0  0
  -21.9196   -4.6918   22.3392 C   0  0  0  0  0  0
  -22.7851  -13.5237   21.1842 C   0  0  0  0  0  0
  -22.1665   -4.2096   21.0971 F   0  0  0  0  0  0
  -21.5646   -3.4529   25.7746 F   0  0  0  0  0  0
  -30.0220  -13.3272   20.4070 N   0  0  0  0  0  0
  -26.2983  -12.9301   20.3378 N   0  0  0  0  0  0
  -25.9292  -11.6464   20.5775 N   0  0  0  0  0  0
  -22.0477  -12.8240   22.0402 N   0  0  0  0  0  0
  -25.4284  -15.1870   20.4181 N   0  0  0  0  0  0
  -31.8780  -14.6219   20.1641 O   0  0  0  0  0  0
  -21.6652   -6.8827   21.4221 O   0  0  0  0  0  0
  -22.3538  -14.5538   20.6680 O   0  0  0  0  0  0
  -24.6172  -31.8662   23.2084 C   0  0  0  0  0  0
  -25.9066  -32.4812   23.8374 C   0  0  1  0  0  0
  -27.2294  -27.4017   20.0979 C   0  0  0  0  0  0
  -25.5912  -33.8612   24.2286 N   0  0  0  0  0  0
  -23.4048  -30.4904   21.5512 C   0  0  2  0  0  0
  -24.8510  -28.9584   20.1147 C   0  0  0  0  0  0
  -22.7415  -29.4640   22.4986 C   0  0  0  0  0  0
  -18.0265  -28.1384   22.8499 C   0  0  0  0  0  0
  -24.1484  -36.7309   23.2633 C   0  0  0  0  0  0
  -25.9387  -30.8266   21.3634 C   0  0  0  0  0  0
  -26.0146  -29.4592   20.7094 C   0  0  0  0  0  0
  -27.2065  -28.6904   20.6930 C   0  0  0  0  0  0
  -26.0404  -26.9337   19.4890 C   0  0  0  0  0  0
  -24.8618  -27.6981   19.4994 C   0  0  0  0  0  0
  -23.6141  -29.8258   20.1658 C   0  0  0  0  0  0
  -25.4112  -36.3095   24.0317 C   0  0  1  0  0  0
  -20.5856  -28.3657   23.1329 C   0  0  2  0  0  0
  -20.6752  -26.9389   22.5435 C   0  0  0  0  0  0
  -19.5739  -26.6385   21.5223 C   0  0  0  0  0  0
  -18.1917  -26.7933   22.1631 C   0  0  0  0  0  0
  -19.1515  -28.8844   23.2913 C   0  0  0  0  0  0
  -18.9442  -30.1452   23.8916 C   0  0  0  0  0  0
  -17.6443  -30.6591   24.0573 C   0  0  0  0  0  0
  -25.9047  -34.9461   23.5101 C   0  0  0  0  0  0
  -16.5335  -29.9092   23.6335 C   0  0  0  0  0  0
  -16.7255  -28.6514   23.0351 C   0  0  0  0  0  0
  -26.4481  -31.6597   25.0711 C   0  0  0  0  0  0
  -25.3726  -31.3734   26.1440 C   0  0  0  0  0  0
  -27.0289  -30.3023   24.6109 C   0  0  0  0  0  0
  -27.6041  -32.4307   25.7497 C   0  0  0  0  0  0
  -27.5573  -37.1811   24.8461 C   0  0  0  0  0  0
  -21.4142  -29.3021   22.3730 N   0  0  0  0  0  0
  -26.4287  -37.3787   23.9403 N   0  0  0  0  0  0
  -24.6724  -31.0739   22.0997 N   0  0  0  0  0  0
  -23.4183  -28.8170   23.3027 O   0  0  0  0  0  0
  -28.4046  -26.6601   20.1129 O   0  0  0  0  0  0
  -26.5612  -34.8919   22.4661 O   0  0  0  0  0  0
  -23.5368  -32.1415   23.7474 O   0  0  0  0  0  0
  -29.8808  -20.9705   20.9247 C   0  0  0  0  0  0
  -30.1820  -22.3649   20.8668 C   0  0  0  0  0  0
  -30.6952  -19.9995   20.2864 C   0  0  0  0  0  0
  -31.3320  -22.7156   20.0983 C   0  0  0  0  0  0
  -31.7803  -20.4829   19.5269 C   0  0  0  0  0  0
  -29.8796  -17.9552   21.7466 C   0  0  0  0  0  0
  -29.5743  -17.8875   19.3351 C   0  0  0  0  0  0
  -29.6880  -24.6747   22.2469 C   0  0  0  0  0  0
  -29.9693  -16.4025   21.8478 C   0  0  0  0  0  0
  -29.6857  -16.3459   19.2905 C   0  0  0  0  0  0
  -29.3249  -23.2913   21.7485 C   0  0  1  0  0  0
  -30.4606  -18.4746   20.4257 C   0  0  0  0  0  0
  -28.4481  -24.5081   21.3848 C   0  0  1  0  0  0
  -27.0962  -24.6069   22.0760 C   0  0  0  0  0  0
  -33.9969  -19.9972   18.5527 C   0  0  0  0  0  0
  -28.3706  -25.2093   20.0149 C   0  0  0  0  0  0
  -31.9364  -24.1164   19.9976 C   0  0  0  0  0  0
  -32.0715  -21.7899   19.4455 N   0  0  0  0  0  0
  -29.9159  -15.6261   20.5794 N   0  0  0  0  0  0
  -32.6148  -19.6141   18.8116 N   0  0  0  0  0  0
  -32.7030  -24.3679   21.0598 F   0  0  0  0  0  0
  -32.6780  -24.2544   18.8950 F   0  0  0  0  0  0
  -31.4611  -12.3911   19.1233 H   0  0  0  0  0  0
  -30.3012  -11.3111   19.8472 H   0  0  0  0  0  0
  -29.7245  -11.7319   17.4450 H   0  0  0  0  0  0
  -29.6694  -13.4517   17.7248 H   0  0  0  0  0  0
  -27.8182  -11.3050   18.8131 H   0  0  0  0  0  0
  -27.3647  -12.6371   17.7825 H   0  0  0  0  0  0
  -27.6622  -14.2456   19.5511 H   0  0  0  0  0  0
  -28.6838  -12.0377   21.4013 H   0  0  0  0  0  0
  -28.4833  -13.7195   21.8195 H   0  0  0  0  0  0
  -25.2736   -9.5679   22.4748 H   0  0  0  0  0  0
  -23.9978   -7.4632   22.7500 H   0  0  0  0  0  0
  -21.0797   -8.8749   19.8977 H   0  0  0  0  0  0
  -22.3644  -10.9657   19.6184 H   0  0  0  0  0  0
  -21.1993   -7.6117   23.9666 H   0  0  0  0  0  0
  -21.1522   -6.0514   25.9060 H   0  0  0  0  0  0
  -22.0590   -2.7569   23.2868 H   0  0  0  0  0  0
  -22.4095  -11.9911   22.4811 H   0  0  0  0  0  0
  -21.1106  -13.1306   22.2604 H   0  0  0  0  0  0
  -24.6681  -15.8476   20.5371 H   0  0  0  0  0  0
  -26.2939  -15.6269   20.1331 H   0  0  0  0  0  0
  -26.7144  -32.5526   23.1144 H   0  0  0  0  0  0
  -25.0061  -33.9765   25.0430 H   0  0  0  0  0  0
  -22.6933  -31.3074   21.4129 H   0  0  0  0  0  0
  -23.3727  -35.9663   23.3318 H   0  0  0  0  0  0
  -24.3575  -36.8916   22.2046 H   0  0  0  0  0  0
  -23.7252  -37.6521   23.6652 H   0  0  0  0  0  0
  -26.0480  -31.5930   20.5944 H   0  0  0  0  0  0
  -26.8278  -30.8835   21.9804 H   0  0  0  0  0  0
  -28.1063  -29.0780   21.1512 H   0  0  0  0  0  0
  -25.9844  -25.9862   18.9808 H   0  0  0  0  0  0
  -23.9705  -27.3117   19.0234 H   0  0  0  0  0  0
  -23.7234  -30.6018   19.4074 H   0  0  0  0  0  0
  -22.7390  -29.2445   19.8702 H   0  0  0  0  0  0
  -25.1291  -36.1950   25.0809 H   0  0  0  0  0  0
  -20.9950  -28.3232   24.1449 H   0  0  0  0  0  0
  -20.5652  -26.2260   23.3620 H   0  0  0  0  0  0
  -21.6626  -26.7437   22.1230 H   0  0  0  0  0  0
  -19.6895  -25.6298   21.1253 H   0  0  0  0  0  0
  -19.6695  -27.3196   20.6759 H   0  0  0  0  0  0
  -17.4183  -26.6684   21.4034 H   0  0  0  0  0  0
  -18.0322  -26.0069   22.9028 H   0  0  0  0  0  0
  -19.7913  -30.7274   24.2290 H   0  0  0  0  0  0
  -17.4994  -31.6272   24.5164 H   0  0  0  0  0  0
  -15.5336  -30.3003   23.7642 H   0  0  0  0  0  0
  -15.8654  -28.0845   22.7048 H   0  0  0  0  0  0
  -24.5926  -30.7045   25.7791 H   0  0  0  0  0  0
  -24.8889  -32.2906   26.4815 H   0  0  0  0  0  0
  -25.8065  -30.8969   27.0244 H   0  0  0  0  0  0
  -26.2847  -29.6813   24.1112 H   0  0  0  0  0  0
  -27.3972  -29.7238   25.4595 H   0  0  0  0  0  0
  -27.8723  -30.4297   23.9311 H   0  0  0  0  0  0
  -27.2655  -33.3610   26.2076 H   0  0  0  0  0  0
  -28.3883  -32.6864   25.0353 H   0  0  0  0  0  0
  -28.0680  -31.8424   26.5430 H   0  0  0  0  0  0
  -28.2597  -38.0100   24.7492 H   0  0  0  0  0  0
  -28.1054  -36.2627   24.6301 H   0  0  0  0  0  0
  -27.2294  -37.1482   25.8866 H   0  0  0  0  0  0
  -20.9282  -29.8749   21.6967 H   0  0  0  0  0  0
  -26.0160  -38.2858   24.1415 H   0  0  0  0  0  0
  -29.0410  -20.6316   21.5132 H   0  0  0  0  0  0
  -30.4099  -18.3958   22.5935 H   0  0  0  0  0  0
  -28.8398  -18.2692   21.8501 H   0  0  0  0  0  0
  -28.5384  -18.1975   19.4894 H   0  0  0  0  0  0
  -29.8605  -18.2841   18.3595 H   0  0  0  0  0  0
  -30.4918  -25.2610   21.8229 H   0  0  0  0  0  0
  -29.5277  -24.8657   23.3072 H   0  0  0  0  0  0
  -29.1806  -16.0400   22.5081 H   0  0  0  0  0  0
  -30.9049  -16.1706   22.3622 H   0  0  0  0  0  0
  -30.4978  -16.1172   18.5968 H   0  0  0  0  0  0
  -28.7968  -15.9502   18.8009 H   0  0  0  0  0  0
  -28.9152  -22.6586   22.5349 H   0  0  0  0  0  0
  -31.4423  -18.0048   20.3494 H   0  0  0  0  0  0
  -27.1144  -24.0935   23.0381 H   0  0  0  0  0  0
  -26.3114  -24.1571   21.4678 H   0  0  0  0  0  0
  -26.8369  -25.6478   22.2643 H   0  0  0  0  0  0
  -34.5554  -19.1447   18.1635 H   0  0  0  0  0  0
  -34.4841  -20.3230   19.4733 H   0  0  0  0  0  0
  -34.0531  -20.8035   17.8199 H   0  0  0  0  0  0
  -27.5262  -24.7982   19.4711 H   0  0  0  0  0  0
  -29.2048  -24.8989   19.3952 H   0  0  0  0  0  0
  -31.2030  -24.9043   19.9142 H   0  0  0  0  0  0
  -32.4320  -18.6205   18.8961 H   0  0  0  0  0  0
  1 25  1  0  0  0
  1 30  2  0  0  0
  1 89  1  0  0  0
  2  3  1  0  0  0
  2 25  1  0  0  0
  2 93  1  0  0  0
  2 94  1  0  0  0
  3  4  1  0  0  0
  3 95  1  0  0  0
  3 96  1  0  0  0
  4  5  1  0  0  0
  4 97  1  0  0  0
  4 98  1  0  0  0
  5  6  1  0  0  0
  5 26  1  0  0  0
  5 99  1  0  0  0
  6 25  1  0  0  0
  6100  1  0  0  0
  6101  1  0  0  0
  7  8  2  0  0  0
  7 26  1  0  0  0
  7 29  1  0  0  0
  8  9  1  0  0  0
  8 22  1  0  0  0
  9 10  1  0  0  0
  9 27  2  0  0  0
 10 11  2  0  0  0
 10 15  1  0  0  0
 11 12  1  0  0  0
 11102  1  0  0  0
 12 13  2  0  0  0
 12103  1  0  0  0
 13 14  1  0  0  0
 13 31  1  0  0  0
 14 15  2  0  0  0
 14104  1  0  0  0
 15105  1  0  0  0
 16 17  2  0  0  0
 16 21  1  0  0  0
 16 31  1  0  0  0
 17 18  1  0  0  0
 17106  1  0  0  0
 18 19  2  0  0  0
 18107  1  0  0  0
 19 20  1  0  0  0
 19 24  1  0  0  0
 20 21  2  0  0  0
 20108  1  0  0  0
 21 23  1  0  0  0
 22 28  1  0  0  0
 22 32  2  0  0  0
 26 27  1  0  0  0
 28109  1  0  0  0
 28110  1  0  0  0
 29111  1  0  0  0
 29112  1  0  0  0
 33 34  1  0  0  0
 33 66  1  0  0  0
 33 70  2  0  0  0
 34 36  1  0  0  0
 34 59  1  0  0  0
 34113  1  0  0  0
 35 44  2  0  0  0
 35 45  1  0  0  0
 35 68  1  0  0  0
 36 56  1  0  0  0
 36114  1  0  0  0
 37 39  1  0  0  0
 37 47  1  0  0  0
 37 66  1  0  0  0
 37115  1  0  0  0
 38 43  2  0  0  0
 38 46  1  0  0  0
 38 47  1  0  0  0
 39 64  1  0  0  0
 39 67  2  0  0  0
 40 52  1  0  0  0
 40 53  2  0  0  0
 40 58  1  0  0  0
 41116  1  0  0  0
 41117  1  0  0  0
 41118  1  0  0  0
 41 48  1  0  0  0
 42 43  1  0  0  0
 42 66  1  0  0  0
 42119  1  0  0  0
 42120  1  0  0  0
 43 44  1  0  0  0
 44121  1  0  0  0
 45 46  2  0  0  0
 45122  1  0  0  0
 46123  1  0  0  0
 47124  1  0  0  0
 47125  1  0  0  0
 48 56  1  0  0  0
 48 65  1  0  0  0
 48126  1  0  0  0
 49 50  1  0  0  0
 49 53  1  0  0  0
 49 64  1  0  0  0
 49127  1  0  0  0
 50 51  1  0  0  0
 50128  1  0  0  0
 50129  1  0  0  0
 51 52  1  0  0  0
 51130  1  0  0  0
 51131  1  0  0  0
 52132  1  0  0  0
 52133  1  0  0  0
 53 54  1  0  0  0
 54 55  2  0  0  0
 54134  1  0  0  0
 55 57  1  0  0  0
 55135  1  0  0  0
 56 69  2  0  0  0
 57 58  2  0  0  0
 57136  1  0  0  0
 58137  1  0  0  0
 59 60  1  0  0  0
 59 61  1  0  0  0
 59 62  1  0  0  0
 60138  1  0  0  0
 60139  1  0  0  0
 60140  1  0  0  0
 61141  1  0  0  0
 61142  1  0  0  0
 61143  1  0  0  0
 62144  1  0  0  0
 62145  1  0  0  0
 62146  1  0  0  0
 63 65  1  0  0  0
 63147  1  0  0  0
 63148  1  0  0  0
 63149  1  0  0  0
 64150  1  0  0  0
 65151  1  0  0  0
 68 86  1  0  0  0
 71 72  2  0  0  0
 71 73  1  0  0  0
 71152  1  0  0  0
 72 74  1  0  0  0
 72 81  1  0  0  0
 73 75  2  0  0  0
 73 82  1  0  0  0
 74 87  1  0  0  0
 74 88  2  0  0  0
 75 88  1  0  0  0
 75 90  1  0  0  0
 76 79  1  0  0  0
 76 82  1  0  0  0
 76153  1  0  0  0
 76154  1  0  0  0
 77 80  1  0  0  0
 77 82  1  0  0  0
 77155  1  0  0  0
 77156  1  0  0  0
 78 81  1  0  0  0
 78 83  1  0  0  0
 78157  1  0  0  0
 78158  1  0  0  0
 79 89  1  0  0  0
 79159  1  0  0  0
 79160  1  0  0  0
 80 89  1  0  0  0
 80161  1  0  0  0
 80162  1  0  0  0
 81 83  1  0  0  0
 81163  1  0  0  0
 82164  1  0  0  0
 83 84  1  0  0  0
 83 86  1  0  0  0
 84165  1  0  0  0
 84166  1  0  0  0
 84167  1  0  0  0
 85 90  1  0  0  0
 85168  1  0  0  0
 85169  1  0  0  0
 85170  1  0  0  0
 86171  1  0  0  0
 86172  1  0  0  0
 87 91  1  0  0  0
 87 92  1  0  0  0
 87173  1  0  0  0
 90174  1  0  0  0
M  ISO  4   1 100  68 101  86 101  89 100
M  END
> <chiral flag>
0

> <version>
0

> <s_m_source_file>
/data/baiqing/PycharmProjects/Reinvent-master-3.2/result/LINK_invent/BTK/process_docking_weight1_custom_sum_contain_oxygen_bond_distance_aromatic_linkinvent_7_9_3/rearranged_h_0171.sdf

> <i_m_source_file_index>
20

> <r_mmod_Potential_Energy-OPLS-2005>
121.768348693848

> <r_mmod_Stretch_Energy-OPLS-2005>
54.694766998291

> <r_mmod_Bend_Energy-OPLS-2005>
166.938323974609

> <r_mmod_Torsional_Energy-OPLS-2005>
378.855224609375

> <r_mmod_Improper_Torsional_Energy-OPLS-2005>
14.9407501220703

> <r_mmod_Van_der_Waal_Energy-OPLS-2005>
168.227951049805

> <r_mmod_Electrostatic_Energy-OPLS-2005>
-469.379760742188

> <r_mmod_Solvation_Energy-OPLS-2005>
-214.233139038086

> <b_mmod_Minimization_Converged-OPLS-2005>
0

> <r_mmod_RMS_Derivative-OPLS-2005>
2.80982828140259

$$$$
20
                    3D
 Structure written by MMmdl.
175185  0  0  1  0            999 V2000
  -30.7124  -14.4410   20.5533 C   0  0  0  0  0  0
  -30.4129  -12.2835   19.4174 C   0  0  0  0  0  0
  -29.4907  -12.5058   18.2015 C   0  0  0  0  0  0
  -28.0110  -12.3721   18.6123 C   0  0  0  0  0  0
  -27.6598  -13.2063   19.8746 C   0  0  2  0  0  0
  -28.7011  -12.9854   20.9939 C   0  0  0  0  0  0
  -25.2596  -13.8163   20.5725 C   0  0  0  0  0  0
  -24.1839  -13.0436   20.9181 C   0  0  0  0  0  0
  -24.6393  -11.6900   20.8742 C   0  0  0  0  0  0
  -23.9060  -10.4286   21.0414 C   0  0  0  0  0  0
  -24.3619   -9.4201   21.9187 C   0  0  0  0  0  0
  -23.6304   -8.2228   22.0751 C   0  0  0  0  0  0
  -22.4282   -8.0269   21.3548 C   0  0  0  0  0  0
  -21.9910   -9.0241   20.4648 C   0  0  0  0  0  0
  -22.7237  -10.2125   20.3056 C   0  0  0  0  0  0
  -21.6851   -6.0726   22.5272 C   0  0  0  0  0  0
  -21.4016   -6.5629   23.8207 C   0  0  0  0  0  0
  -21.3665   -5.6784   24.9170 C   0  0  0  0  0  0
  -21.6054   -4.3048   24.7214 C   0  0  0  0  0  0
  -21.8825   -3.8136   23.4334 C   0  0  0  0  0  0
  -21.9197   -4.6954   22.3393 C   0  0  0  0  0  0
  -22.7867  -13.5237   21.1852 C   0  0  0  0  0  0
  -22.1668   -4.2142   21.0972 F   0  0  0  0  0  0
  -21.5632   -3.4531   25.7723 F   0  0  0  0  0  0
  -30.0321  -13.2722   20.4354 N   0  0  0  0  0  0
  -26.3020  -12.9325   20.3394 N   0  0  0  0  0  0
  -25.9319  -11.6481   20.5760 N   0  0  0  0  0  0
  -22.0496  -12.8238   22.0403 N   0  0  0  0  0  0
  -25.4359  -15.1876   20.4218 N   0  0  0  0  0  0
  -31.8599  -14.5930   20.1171 O   0  0  0  0  0  0
  -21.6651   -6.8868   21.4236 O   0  0  0  0  0  0
  -22.3558  -14.5544   20.6697 O   0  0  0  0  0  0
  -24.6155  -31.8710   23.2143 C   0  0  0  0  0  0
  -25.9061  -32.4831   23.8435 C   0  0  1  0  0  0
  -27.2245  -27.4484   20.1079 C   0  0  0  0  0  0
  -25.5923  -33.8628   24.2381 N   0  0  0  0  0  0
  -23.4031  -30.4988   21.5520 C   0  0  2  0  0  0
  -24.8498  -28.9730   20.1081 C   0  0  0  0  0  0
  -22.7435  -29.4704   22.4977 C   0  0  0  0  0  0
  -18.0299  -28.1361   22.8570 C   0  0  0  0  0  0
  -24.1475  -36.7310   23.2646 C   0  0  0  0  0  0
  -25.9303  -30.8387   21.3693 C   0  0  0  0  0  0
  -26.0065  -29.4746   20.7205 C   0  0  0  0  0  0
  -27.1980  -28.7154   20.7337 C   0  0  0  0  0  0
  -26.0710  -26.9845   19.4436 C   0  0  0  0  0  0
  -24.8763  -27.7227   19.4684 C   0  0  0  0  0  0
  -23.6101  -29.8363   20.1641 C   0  0  0  0  0  0
  -25.4099  -36.3117   24.0360 C   0  0  1  0  0  0
  -20.5899  -28.3684   23.1276 C   0  0  2  0  0  0
  -20.6814  -26.9454   22.5312 C   0  0  0  0  0  0
  -19.5709  -26.6402   21.5214 C   0  0  0  0  0  0
  -18.1953  -26.7868   22.1778 C   0  0  0  0  0  0
  -19.1559  -28.8841   23.2922 C   0  0  0  0  0  0
  -18.9479  -30.1447   23.8929 C   0  0  0  0  0  0
  -17.6478  -30.6595   24.0564 C   0  0  0  0  0  0
  -25.9025  -34.9478   23.5162 C   0  0  0  0  0  0
  -16.5364  -29.9097   23.6329 C   0  0  0  0  0  0
  -16.7284  -28.6485   23.0414 C   0  0  0  0  0  0
  -26.4493  -31.6593   25.0742 C   0  0  0  0  0  0
  -25.3768  -31.3686   26.1493 C   0  0  0  0  0  0
  -27.0344  -30.3047   24.6099 C   0  0  0  0  0  0
  -27.6085  -32.4309   25.7486 C   0  0  0  0  0  0
  -27.5584  -37.1813   24.8473 C   0  0  0  0  0  0
  -21.4179  -29.3049   22.3685 N   0  0  0  0  0  0
  -26.4290  -37.3799   23.9418 N   0  0  0  0  0  0
  -24.6676  -31.0831   22.1040 N   0  0  0  0  0  0
  -23.4210  -28.8280   23.3048 O   0  0  0  0  0  0
  -28.3071  -26.6001   20.1171 O   0  0  0  0  0  0
  -26.5562  -34.8938   22.4706 O   0  0  0  0  0  0
  -23.5346  -32.1443   23.7553 O   0  0  0  0  0  0
  -28.6831  -16.9425   22.4229 C   0  0  0  0  0  0
  -28.8085  -17.6160   20.0363 C   0  0  0  0  0  0
  -27.0538  -21.1721   20.7239 C   0  0  0  0  0  0
  -28.3768  -26.4085   22.6771 C   0  0  0  0  0  0
  -29.8808  -15.9961   22.2198 C   0  0  0  0  0  0
  -29.9830  -16.6333   19.8605 C   0  0  0  0  0  0
  -26.8411  -19.6537   20.7265 C   0  0  0  0  0  0
  -28.8542  -25.1108   22.0434 C   0  0  2  0  0  0
  -28.7590  -18.1643   21.4792 C   0  0  0  0  0  0
  -28.1774  -21.4393   21.7255 C   0  0  2  0  0  0
  -29.0580  -26.4599   21.3280 C   0  0  1  0  0  0
  -27.9791  -20.2481   22.6816 C   0  0  2  0  0  0
  -29.0974  -20.0481   23.7251 C   0  0  0  0  0  0
  -26.3791  -24.3912   21.8329 C   0  0  0  0  0  0
  -27.8601  -23.9923   21.6444 C   0  0  2  0  0  0
  -29.9492  -15.5244   20.8311 N   0  0  0  0  0  0
  -27.6535  -19.0920   21.8194 N   0  0  0  0  0  0
  -28.1066  -22.7520   22.4337 N   0  3  0  0  0  0
  -31.4614  -12.3636   19.1219 H   0  0  0  0  0  0
  -30.2901  -11.2743   19.8134 H   0  0  0  0  0  0
  -29.7239  -11.7903   17.4113 H   0  0  0  0  0  0
  -29.6696  -13.4978   17.7811 H   0  0  0  0  0  0
  -27.8156  -11.3161   18.7998 H   0  0  0  0  0  0
  -27.3627  -12.6568   17.7826 H   0  0  0  0  0  0
  -27.7019  -14.2554   19.5818 H   0  0  0  0  0  0
  -28.6692  -11.9540   21.3478 H   0  0  0  0  0  0
  -28.4718  -13.6004   21.8638 H   0  0  0  0  0  0
  -25.2757   -9.5673   22.4774 H   0  0  0  0  0  0
  -24.0018   -7.4605   22.7456 H   0  0  0  0  0  0
  -21.0838   -8.8751   19.8955 H   0  0  0  0  0  0
  -22.3687  -10.9665   19.6166 H   0  0  0  0  0  0
  -21.2011   -7.6132   23.9705 H   0  0  0  0  0  0
  -21.1496   -6.0514   25.9079 H   0  0  0  0  0  0
  -22.0608   -2.7594   23.2831 H   0  0  0  0  0  0
  -22.4105  -11.9916   22.4813 H   0  0  0  0  0  0
  -21.1097  -13.1254   22.2571 H   0  0  0  0  0  0
  -24.6875  -15.8526   20.5813 H   0  0  0  0  0  0
  -26.3187  -15.6286   20.1978 H   0  0  0  0  0  0
  -26.7158  -32.5554   23.1231 H   0  0  0  0  0  0
  -25.0133  -33.9802   25.0566 H   0  0  0  0  0  0
  -22.6909  -31.3166   21.4197 H   0  0  0  0  0  0
  -23.3729  -35.9643   23.3311 H   0  0  0  0  0  0
  -24.3573  -36.8892   22.2053 H   0  0  0  0  0  0
  -23.7230  -37.6532   23.6636 H   0  0  0  0  0  0
  -26.0425  -31.6031   20.5993 H   0  0  0  0  0  0
  -26.8195  -30.8947   21.9843 H   0  0  0  0  0  0
  -28.0809  -29.0968   21.2291 H   0  0  0  0  0  0
  -26.0855  -26.0214   18.9507 H   0  0  0  0  0  0
  -23.9907  -27.3317   18.9876 H   0  0  0  0  0  0
  -23.7182  -30.6156   19.4084 H   0  0  0  0  0  0
  -22.7327  -29.2580   19.8677 H   0  0  0  0  0  0
  -25.1276  -36.1997   25.0853 H   0  0  0  0  0  0
  -21.0066  -28.3248   24.1368 H   0  0  0  0  0  0
  -20.5876  -26.2275   23.3462 H   0  0  0  0  0  0
  -21.6643  -26.7589   22.0970 H   0  0  0  0  0  0
  -19.6913  -25.6339   21.1201 H   0  0  0  0  0  0
  -19.6470  -27.3256   20.6763 H   0  0  0  0  0  0
  -17.4128  -26.6511   21.4296 H   0  0  0  0  0  0
  -18.0520  -26.0054   22.9265 H   0  0  0  0  0  0
  -19.7970  -30.7251   24.2284 H   0  0  0  0  0  0
  -17.5038  -31.6288   24.5154 H   0  0  0  0  0  0
  -15.5370  -30.3021   23.7625 H   0  0  0  0  0  0
  -15.8671  -28.0801   22.7178 H   0  0  0  0  0  0
  -24.5949  -30.7030   25.7824 H   0  0  0  0  0  0
  -24.8956  -32.2837   26.4965 H   0  0  0  0  0  0
  -25.8133  -30.8841   27.0240 H   0  0  0  0  0  0
  -26.2893  -29.6773   24.1195 H   0  0  0  0  0  0
  -27.4188  -29.7322   25.4552 H   0  0  0  0  0  0
  -27.8695  -30.4383   23.9215 H   0  0  0  0  0  0
  -27.2732  -33.3611   26.2090 H   0  0  0  0  0  0
  -28.3875  -32.6857   25.0287 H   0  0  0  0  0  0
  -28.0778  -31.8408   26.5367 H   0  0  0  0  0  0
  -28.2630  -38.0089   24.7519 H   0  0  0  0  0  0
  -28.1062  -36.2631   24.6302 H   0  0  0  0  0  0
  -27.2312  -37.1473   25.8880 H   0  0  0  0  0  0
  -20.9366  -29.8767   21.6889 H   0  0  0  0  0  0
  -26.0180  -38.2885   24.1388 H   0  0  0  0  0  0
  -28.6463  -17.2395   23.4680 H   0  0  0  0  0  0
  -27.7594  -16.3904   22.2409 H   0  0  0  0  0  0
  -27.8754  -17.1143   19.7761 H   0  0  0  0  0  0
  -28.9518  -18.4280   19.3223 H   0  0  0  0  0  0
  -26.1165  -21.6230   21.0389 H   0  0  0  0  0  0
  -27.2882  -21.5531   19.7298 H   0  0  0  0  0  0
  -28.9443  -26.7690   23.5314 H   0  0  0  0  0  0
  -27.3194  -26.6522   22.7183 H   0  0  0  0  0  0
  -29.8012  -15.1567   22.9125 H   0  0  0  0  0  0
  -30.8101  -16.5090   22.4746 H   0  0  0  0  0  0
  -30.9311  -17.1674   19.9533 H   0  0  0  0  0  0
  -29.9544  -16.2345   18.8429 H   0  0  0  0  0  0
  -27.0086  -19.2323   19.7392 H   0  0  0  0  0  0
  -25.7934  -19.4468   20.9502 H   0  0  0  0  0  0
  -29.7963  -24.7136   22.4172 H   0  0  0  0  0  0
  -29.7097  -18.6766   21.6219 H   0  0  0  0  0  0
  -29.1388  -21.3529   21.2158 H   0  0  0  0  0  0
  -30.0674  -26.8597   21.2560 H   0  0  0  0  0  0
  -27.0621  -20.4369   23.2446 H   0  0  0  0  0  0
  -30.0847  -19.9363   23.2781 H   0  0  0  0  0  0
  -28.9036  -19.1892   24.3643 H   0  0  0  0  0  0
  -29.1530  -20.9045   24.3960 H   0  0  0  0  0  0
  -26.1340  -25.3075   21.3148 H   0  0  0  0  0  0
  -26.1402  -24.5519   22.8852 H   0  0  0  0  0  0
  -25.6858  -23.6467   21.4520 H   0  0  0  0  0  0
  -28.0496  -23.7788   20.5911 H   0  0  0  0  0  0
  -28.9822  -22.8665   22.9195 H   0  0  0  0  0  0
  -27.3925  -22.6915   23.1406 H   0  0  0  0  0  0
  1 25  1  0  0  0
  1 30  2  0  0  0
  1 86  1  0  0  0
  2  3  1  0  0  0
  2 25  1  0  0  0
  2 89  1  0  0  0
  2 90  1  0  0  0
  3  4  1  0  0  0
  3 91  1  0  0  0
  3 92  1  0  0  0
  4  5  1  0  0  0
  4 93  1  0  0  0
  4 94  1  0  0  0
  5  6  1  0  0  0
  5 26  1  0  0  0
  5 95  1  0  0  0
  6 25  1  0  0  0
  6 96  1  0  0  0
  6 97  1  0  0  0
  7  8  2  0  0  0
  7 26  1  0  0  0
  7 29  1  0  0  0
  8  9  1  0  0  0
  8 22  1  0  0  0
  9 10  1  0  0  0
  9 27  2  0  0  0
 10 11  2  0  0  0
 10 15  1  0  0  0
 11 12  1  0  0  0
 11 98  1  0  0  0
 12 13  2  0  0  0
 12 99  1  0  0  0
 13 14  1  0  0  0
 13 31  1  0  0  0
 14 15  2  0  0  0
 14100  1  0  0  0
 15101  1  0  0  0
 16 17  2  0  0  0
 16 21  1  0  0  0
 16 31  1  0  0  0
 17 18  1  0  0  0
 17102  1  0  0  0
 18 19  2  0  0  0
 18103  1  0  0  0
 19 20  1  0  0  0
 19 24  1  0  0  0
 20 21  2  0  0  0
 20104  1  0  0  0
 21 23  1  0  0  0
 22 28  1  0  0  0
 22 32  2  0  0  0
 26 27  1  0  0  0
 28105  1  0  0  0
 28106  1  0  0  0
 29107  1  0  0  0
 29108  1  0  0  0
 33 34  1  0  0  0
 33 66  1  0  0  0
 33 70  2  0  0  0
 34 36  1  0  0  0
 34 59  1  0  0  0
 34109  1  0  0  0
 35 44  2  0  0  0
 35 45  1  0  0  0
 35 68  1  0  0  0
 36 56  1  0  0  0
 36110  1  0  0  0
 37 39  1  0  0  0
 37 47  1  0  0  0
 37 66  1  0  0  0
 37111  1  0  0  0
 38 43  2  0  0  0
 38 46  1  0  0  0
 38 47  1  0  0  0
 39 64  1  0  0  0
 39 67  2  0  0  0
 40 52  1  0  0  0
 40 53  2  0  0  0
 40 58  1  0  0  0
 41112  1  0  0  0
 41113  1  0  0  0
 41114  1  0  0  0
 41 48  1  0  0  0
 42 43  1  0  0  0
 42 66  1  0  0  0
 42115  1  0  0  0
 42116  1  0  0  0
 43 44  1  0  0  0
 44117  1  0  0  0
 45 46  2  0  0  0
 45118  1  0  0  0
 46119  1  0  0  0
 47120  1  0  0  0
 47121  1  0  0  0
 48 56  1  0  0  0
 48 65  1  0  0  0
 48122  1  0  0  0
 49 50  1  0  0  0
 49 53  1  0  0  0
 49 64  1  0  0  0
 49123  1  0  0  0
 50 51  1  0  0  0
 50124  1  0  0  0
 50125  1  0  0  0
 51 52  1  0  0  0
 51126  1  0  0  0
 51127  1  0  0  0
 52128  1  0  0  0
 52129  1  0  0  0
 53 54  1  0  0  0
 54 55  2  0  0  0
 54130  1  0  0  0
 55 57  1  0  0  0
 55131  1  0  0  0
 56 69  2  0  0  0
 57 58  2  0  0  0
 57132  1  0  0  0
 58133  1  0  0  0
 59 60  1  0  0  0
 59 61  1  0  0  0
 59 62  1  0  0  0
 60134  1  0  0  0
 60135  1  0  0  0
 60136  1  0  0  0
 61137  1  0  0  0
 61138  1  0  0  0
 61139  1  0  0  0
 62140  1  0  0  0
 62141  1  0  0  0
 62142  1  0  0  0
 63 65  1  0  0  0
 63143  1  0  0  0
 63144  1  0  0  0
 63145  1  0  0  0
 64146  1  0  0  0
 65147  1  0  0  0
 68 81  1  0  0  0
 71 75  1  0  0  0
 71 79  1  0  0  0
 71148  1  0  0  0
 71149  1  0  0  0
 72 76  1  0  0  0
 72 79  1  0  0  0
 72150  1  0  0  0
 72151  1  0  0  0
 73 77  1  0  0  0
 73 80  1  0  0  0
 73152  1  0  0  0
 73153  1  0  0  0
 74 81  1  0  0  0
 74154  1  0  0  0
 74155  1  0  0  0
 74 78  1  0  0  0
 75 86  1  0  0  0
 75156  1  0  0  0
 75157  1  0  0  0
 76 86  1  0  0  0
 76158  1  0  0  0
 76159  1  0  0  0
 77160  1  0  0  0
 77161  1  0  0  0
 77 87  1  0  0  0
 78 81  1  0  0  0
 78 85  1  0  0  0
 78162  1  0  0  0
 79 87  1  0  0  0
 79163  1  0  0  0
 80 82  1  0  0  0
 80 88  1  0  0  0
 80164  1  0  0  0
 81165  1  0  0  0
 82 83  1  0  0  0
 82 87  1  0  0  0
 82166  1  0  0  0
 83167  1  0  0  0
 83168  1  0  0  0
 83169  1  0  0  0
 84170  1  0  0  0
 84171  1  0  0  0
 84172  1  0  0  0
 84 85  1  0  0  0
 85 88  1  0  0  0
 85173  1  0  0  0
 88174  1  0  0  0
 88175  1  0  0  0
M  CHG  1  88   1
M  ISO  4   1 100  68 101  81 101  86 100
M  END
> <chiral flag>
0

> <version>
0

> <s_m_source_file>
/data/baiqing/PycharmProjects/Reinvent-master-3.2/result/LINK_invent/BTK/process_docking_weight1_custom_sum_contain_oxygen_bond_distance_aromatic_linkinvent_7_9_3/rearranged_h_0171.sdf

> <i_m_source_file_index>
21

> <r_mmod_Potential_Energy-OPLS-2005>
191.676147460938

> <r_mmod_Stretch_Energy-OPLS-2005>
41.5662460327148

> <r_mmod_Bend_Energy-OPLS-2005>
169.787567138672

> <r_mmod_Torsional_Energy-OPLS-2005>
480.499938964844

> <r_mmod_Improper_Torsional_Energy-OPLS-2005>
12.8980360031128

> <r_mmod_Van_der_Waal_Energy-OPLS-2005>
141.955017089844

> <r_mmod_Electrostatic_Energy-OPLS-2005>
-238.923416137695

> <r_mmod_Solvation_Energy-OPLS-2005>
-431.719665527344

> <b_mmod_Minimization_Converged-OPLS-2005>
0

> <r_mmod_RMS_Derivative-OPLS-2005>
2.68227696418762

$$$$
21
                    3D
 Structure written by MMmdl.
166175  0  0  1  0            999 V2000
  -30.5840  -14.7610   20.4473 C   0  0  0  0  0  0
  -30.4355  -12.4623   19.4833 C   0  0  0  0  0  0
  -29.5155  -12.5082   18.2430 C   0  0  0  0  0  0
  -28.0407  -12.3299   18.6520 C   0  0  0  0  0  0
  -27.6396  -13.2309   19.8506 C   0  0  2  0  0  0
  -28.6800  -13.1680   20.9905 C   0  0  0  0  0  0
  -25.2472  -13.8171   20.5627 C   0  0  0  0  0  0
  -24.1781  -13.0425   20.9192 C   0  0  0  0  0  0
  -24.6384  -11.6908   20.8744 C   0  0  0  0  0  0
  -23.9062  -10.4287   21.0408 C   0  0  0  0  0  0
  -24.3610   -9.4204   21.9180 C   0  0  0  0  0  0
  -23.6285   -8.2243   22.0752 C   0  0  0  0  0  0
  -22.4271   -8.0286   21.3547 C   0  0  0  0  0  0
  -21.9896   -9.0258   20.4650 C   0  0  0  0  0  0
  -22.7231  -10.2135   20.3056 C   0  0  0  0  0  0
  -21.6854   -6.0729   22.5271 C   0  0  0  0  0  0
  -21.4024   -6.5629   23.8205 C   0  0  0  0  0  0
  -21.3651   -5.6784   24.9167 C   0  0  0  0  0  0
  -21.6035   -4.3049   24.7219 C   0  0  0  0  0  0
  -21.8823   -3.8141   23.4338 C   0  0  0  0  0  0
  -21.9194   -4.6953   22.3395 C   0  0  0  0  0  0
  -22.7801  -13.5211   21.1860 C   0  0  0  0  0  0
  -22.1663   -4.2147   21.0969 F   0  0  0  0  0  0
  -21.5617   -3.4528   25.7726 F   0  0  0  0  0  0
  -29.9814  -13.5230   20.4130 N   0  0  0  0  0  0
  -26.2913  -12.9387   20.3255 N   0  0  0  0  0  0
  -25.9315  -11.6534   20.5748 N   0  0  0  0  0  0
  -22.0446  -12.8228   22.0425 N   0  0  0  0  0  0
  -25.4107  -15.1878   20.3951 N   0  0  0  0  0  0
  -31.7751  -14.8613   20.1433 O   0  0  0  0  0  0
  -21.6640   -6.8874   21.4236 O   0  0  0  0  0  0
  -22.3489  -14.5510   20.6699 O   0  0  0  0  0  0
  -24.6311  -31.8548   23.1961 C   0  0  0  0  0  0
  -25.9139  -32.4747   23.8324 C   0  0  1  0  0  0
  -27.2231  -27.2643   20.1499 C   0  0  0  0  0  0
  -25.5948  -33.8543   24.2263 N   0  0  0  0  0  0
  -23.4279  -30.4744   21.5386 C   0  0  2  0  0  0
  -24.8781  -28.9153   20.1140 C   0  0  0  0  0  0
  -22.7501  -29.4583   22.4889 C   0  0  0  0  0  0
  -18.0299  -28.1384   22.8470 C   0  0  0  0  0  0
  -24.1489  -36.7265   23.2631 C   0  0  0  0  0  0
  -25.9715  -30.7728   21.3717 C   0  0  0  0  0  0
  -26.0474  -29.3924   20.7192 C   0  0  0  0  0  0
  -27.2265  -28.5815   20.7181 C   0  0  0  0  0  0
  -26.0328  -26.8429   19.5239 C   0  0  0  0  0  0
  -24.8757  -27.6498   19.5020 C   0  0  0  0  0  0
  -23.6478  -29.8032   20.1559 C   0  0  0  0  0  0
  -25.4115  -36.3051   24.0318 C   0  0  1  0  0  0
  -20.5898  -28.3689   23.1259 C   0  0  2  0  0  0
  -20.6774  -26.9400   22.5401 C   0  0  0  0  0  0
  -19.5753  -26.6374   21.5200 C   0  0  0  0  0  0
  -18.1936  -26.7926   22.1611 C   0  0  0  0  0  0
  -19.1549  -28.8856   23.2862 C   0  0  0  0  0  0
  -18.9469  -30.1455   23.8883 C   0  0  0  0  0  0
  -17.6464  -30.6574   24.0565 C   0  0  0  0  0  0
  -25.9064  -34.9429   23.5096 C   0  0  0  0  0  0
  -16.5360  -29.9069   23.6320 C   0  0  0  0  0  0
  -16.7289  -28.6493   23.0338 C   0  0  0  0  0  0
  -26.4520  -31.6556   25.0704 C   0  0  0  0  0  0
  -25.3755  -31.3730   26.1442 C   0  0  0  0  0  0
  -27.0335  -30.2958   24.6182 C   0  0  0  0  0  0
  -27.6088  -32.4283   25.7467 C   0  0  0  0  0  0
  -27.5583  -37.1771   24.8453 C   0  0  0  0  0  0
  -21.4205  -29.3030   22.3641 N   0  0  0  0  0  0
  -26.4277  -37.3762   23.9422 N   0  0  0  0  0  0
  -24.6961  -31.0521   22.0924 N   0  0  0  0  0  0
  -23.4201  -28.8134   23.2997 O   0  0  0  0  0  0
  -28.3332  -26.3959   20.1507 O   0  0  0  0  0  0
  -26.5614  -34.8905   22.4651 O   0  0  0  0  0  0
  -23.5461  -32.1361   23.7256 O   0  0  0  0  0  0
  -30.9785  -20.9153   21.2463 C   0  0  0  0  0  0
  -28.4473  -21.0235   20.0423 C   0  0  0  0  0  0
  -30.3179  -19.7074   20.9317 C   0  0  0  0  0  0
  -29.0606  -19.7479   20.3531 C   0  0  0  0  0  0
  -30.3922  -22.1812   20.9365 C   0  0  0  0  0  0
  -29.1079  -22.2886   20.3110 C   0  0  0  0  0  0
  -30.8332  -18.2633   21.0956 C   0  0  0  0  0  0
  -28.5869  -18.2765   20.1375 C   0  0  0  0  0  0
  -29.9288  -17.3635   20.1718 C   0  0  1  0  0  0
  -31.2146  -23.4221   21.2460 C   0  0  0  0  0  0
  -27.7507  -18.1287   18.8483 C   0  0  0  0  0  0
  -27.6810  -17.9071   21.3306 C   0  0  0  0  0  0
  -30.5688  -17.3768   18.7569 C   0  0  0  0  0  0
  -28.5724  -23.7006   19.7531 C   0  0  0  0  0  0
  -28.2100  -24.9883   20.6700 C   0  0  0  0  0  0
  -29.7674  -15.8819   20.5878 N   0  0  0  0  0  0
  -31.4752  -12.5949   19.1823 H   0  0  0  0  0  0
  -30.3860  -11.4870   19.9700 H   0  0  0  0  0  0
  -29.8009  -11.7338   17.5296 H   0  0  0  0  0  0
  -29.6442  -13.4617   17.7279 H   0  0  0  0  0  0
  -27.8978  -11.2811   18.9151 H   0  0  0  0  0  0
  -27.3889  -12.5204   17.7985 H   0  0  0  0  0  0
  -27.6313  -14.2507   19.4674 H   0  0  0  0  0  0
  -28.7146  -12.1702   21.4301 H   0  0  0  0  0  0
  -28.4109  -13.8490   21.7994 H   0  0  0  0  0  0
  -25.2751   -9.5676   22.4760 H   0  0  0  0  0  0
  -23.9989   -7.4622   22.7471 H   0  0  0  0  0  0
  -21.0823   -8.8780   19.8954 H   0  0  0  0  0  0
  -22.3687  -10.9671   19.6170 H   0  0  0  0  0  0
  -21.2032   -7.6140   23.9708 H   0  0  0  0  0  0
  -21.1460   -6.0515   25.9069 H   0  0  0  0  0  0
  -22.0610   -2.7605   23.2846 H   0  0  0  0  0  0
  -22.4065  -11.9918   22.4853 H   0  0  0  0  0  0
  -21.1059  -13.1277   22.2606 H   0  0  0  0  0  0
  -24.6368  -15.8347   20.4928 H   0  0  0  0  0  0
  -26.2397  -15.6210   20.0126 H   0  0  0  0  0  0
  -26.7200  -32.5414   23.1058 H   0  0  0  0  0  0
  -25.0132  -33.9690   25.0439 H   0  0  0  0  0  0
  -22.7239  -31.2949   21.3885 H   0  0  0  0  0  0
  -23.3765  -35.9576   23.3246 H   0  0  0  0  0  0
  -24.3609  -36.8937   22.2058 H   0  0  0  0  0  0
  -23.7211  -37.6434   23.6698 H   0  0  0  0  0  0
  -26.1059  -31.5336   20.6010 H   0  0  0  0  0  0
  -26.8489  -30.8268   22.0037 H   0  0  0  0  0  0
  -28.1280  -28.9466   21.1909 H   0  0  0  0  0  0
  -25.9967  -25.8688   19.0561 H   0  0  0  0  0  0
  -23.9799  -27.2808   19.0223 H   0  0  0  0  0  0
  -23.7737  -30.5774   19.3987 H   0  0  0  0  0  0
  -22.7672  -29.2364   19.8490 H   0  0  0  0  0  0
  -25.1283  -36.1886   25.0803 H   0  0  0  0  0  0
  -21.0002  -28.3281   24.1376 H   0  0  0  0  0  0
  -20.5656  -26.2303   23.3612 H   0  0  0  0  0  0
  -21.6651  -26.7408   22.1214 H   0  0  0  0  0  0
  -19.6914  -25.6286   21.1227 H   0  0  0  0  0  0
  -19.6686  -27.3181   20.6727 H   0  0  0  0  0  0
  -17.4204  -26.6667   21.4021 H   0  0  0  0  0  0
  -18.0330  -26.0076   22.9011 H   0  0  0  0  0  0
  -19.7950  -30.7273   24.2241 H   0  0  0  0  0  0
  -17.5020  -31.6254   24.5170 H   0  0  0  0  0  0
  -15.5357  -30.2961   23.7648 H   0  0  0  0  0  0
  -15.8691  -28.0805   22.7046 H   0  0  0  0  0  0
  -24.5910  -30.7091   25.7796 H   0  0  0  0  0  0
  -24.8983  -32.2914   26.4864 H   0  0  0  0  0  0
  -25.8085  -30.8915   27.0218 H   0  0  0  0  0  0
  -26.2895  -29.6704   24.1234 H   0  0  0  0  0  0
  -27.4030  -29.7221   25.4694 H   0  0  0  0  0  0
  -27.8777  -30.4200   23.9392 H   0  0  0  0  0  0
  -27.2727  -33.3607   26.2011 H   0  0  0  0  0  0
  -28.3917  -32.6794   25.0298 H   0  0  0  0  0  0
  -28.0729  -31.8423   26.5410 H   0  0  0  0  0  0
  -28.2552  -38.0115   24.7564 H   0  0  0  0  0  0
  -28.1122  -36.2652   24.6182 H   0  0  0  0  0  0
  -27.2329  -37.1300   25.8859 H   0  0  0  0  0  0
  -20.9389  -29.8767   21.6852 H   0  0  0  0  0  0
  -26.0144  -38.2815   24.1483 H   0  0  0  0  0  0
  -31.9617  -20.8706   21.6951 H   0  0  0  0  0  0
  -27.4853  -21.0308   19.5501 H   0  0  0  0  0  0
  -30.7166  -17.9783   22.1424 H   0  0  0  0  0  0
  -31.8933  -18.1849   20.8496 H   0  0  0  0  0  0
  -32.2643  -23.1695   21.3964 H   0  0  0  0  0  0
  -30.8614  -23.9014   22.1590 H   0  0  0  0  0  0
  -31.1799  -24.1482   20.4342 H   0  0  0  0  0  0
  -28.2780  -18.5005   17.9704 H   0  0  0  0  0  0
  -26.8219  -18.6970   18.9121 H   0  0  0  0  0  0
  -27.4850  -17.0875   18.6645 H   0  0  0  0  0  0
  -28.2027  -18.0270   22.2807 H   0  0  0  0  0  0
  -27.3379  -16.8763   21.2805 H   0  0  0  0  0  0
  -26.7944  -18.5420   21.3684 H   0  0  0  0  0  0
  -30.6175  -18.3874   18.3482 H   0  0  0  0  0  0
  -30.0093  -16.7639   18.0489 H   0  0  0  0  0  0
  -31.5923  -17.0055   18.7674 H   0  0  0  0  0  0
  -27.7021  -23.4932   19.1309 H   0  0  0  0  0  0
  -29.3285  -24.0317   19.0411 H   0  0  0  0  0  0
  -28.8777  -24.9682   21.5297 H   0  0  0  0  0  0
  -27.2202  -24.8394   21.1044 H   0  0  0  0  0  0
  -28.8291  -15.6505   20.8726 H   0  0  0  0  0  0
  1 25  1  0  0  0
  1 30  2  0  0  0
  1 86  1  0  0  0
  2  3  1  0  0  0
  2 25  1  0  0  0
  2 87  1  0  0  0
  2 88  1  0  0  0
  3  4  1  0  0  0
  3 89  1  0  0  0
  3 90  1  0  0  0
  4  5  1  0  0  0
  4 91  1  0  0  0
  4 92  1  0  0  0
  5  6  1  0  0  0
  5 26  1  0  0  0
  5 93  1  0  0  0
  6 25  1  0  0  0
  6 94  1  0  0  0
  6 95  1  0  0  0
  7  8  2  0  0  0
  7 26  1  0  0  0
  7 29  1  0  0  0
  8  9  1  0  0  0
  8 22  1  0  0  0
  9 10  1  0  0  0
  9 27  2  0  0  0
 10 11  2  0  0  0
 10 15  1  0  0  0
 11 12  1  0  0  0
 11 96  1  0  0  0
 12 13  2  0  0  0
 12 97  1  0  0  0
 13 14  1  0  0  0
 13 31  1  0  0  0
 14 15  2  0  0  0
 14 98  1  0  0  0
 15 99  1  0  0  0
 16 17  2  0  0  0
 16 21  1  0  0  0
 16 31  1  0  0  0
 17 18  1  0  0  0
 17100  1  0  0  0
 18 19  2  0  0  0
 18101  1  0  0  0
 19 20  1  0  0  0
 19 24  1  0  0  0
 20 21  2  0  0  0
 20102  1  0  0  0
 21 23  1  0  0  0
 22 28  1  0  0  0
 22 32  2  0  0  0
 26 27  1  0  0  0
 28103  1  0  0  0
 28104  1  0  0  0
 29105  1  0  0  0
 29106  1  0  0  0
 33 34  1  0  0  0
 33 66  1  0  0  0
 33 70  2  0  0  0
 34 36  1  0  0  0
 34 59  1  0  0  0
 34107  1  0  0  0
 35 44  2  0  0  0
 35 45  1  0  0  0
 35 68  1  0  0  0
 36 56  1  0  0  0
 36108  1  0  0  0
 37 39  1  0  0  0
 37 47  1  0  0  0
 37 66  1  0  0  0
 37109  1  0  0  0
 38 43  2  0  0  0
 38 46  1  0  0  0
 38 47  1  0  0  0
 39 64  1  0  0  0
 39 67  2  0  0  0
 40 52  1  0  0  0
 40 53  2  0  0  0
 40 58  1  0  0  0
 41110  1  0  0  0
 41111  1  0  0  0
 41112  1  0  0  0
 41 48  1  0  0  0
 42 43  1  0  0  0
 42 66  1  0  0  0
 42113  1  0  0  0
 42114  1  0  0  0
 43 44  1  0  0  0
 44115  1  0  0  0
 45 46  2  0  0  0
 45116  1  0  0  0
 46117  1  0  0  0
 47118  1  0  0  0
 47119  1  0  0  0
 48 56  1  0  0  0
 48 65  1  0  0  0
 48120  1  0  0  0
 49 50  1  0  0  0
 49 53  1  0  0  0
 49 64  1  0  0  0
 49121  1  0  0  0
 50 51  1  0  0  0
 50122  1  0  0  0
 50123  1  0  0  0
 51 52  1  0  0  0
 51124  1  0  0  0
 51125  1  0  0  0
 52126  1  0  0  0
 52127  1  0  0  0
 53 54  1  0  0  0
 54 55  2  0  0  0
 54128  1  0  0  0
 55 57  1  0  0  0
 55129  1  0  0  0
 56 69  2  0  0  0
 57 58  2  0  0  0
 57130  1  0  0  0
 58131  1  0  0  0
 59 60  1  0  0  0
 59 61  1  0  0  0
 59 62  1  0  0  0
 60132  1  0  0  0
 60133  1  0  0  0
 60134  1  0  0  0
 61135  1  0  0  0
 61136  1  0  0  0
 61137  1  0  0  0
 62138  1  0  0  0
 62139  1  0  0  0
 62140  1  0  0  0
 63 65  1  0  0  0
 63141  1  0  0  0
 63142  1  0  0  0
 63143  1  0  0  0
 64144  1  0  0  0
 65145  1  0  0  0
 68 85  1  0  0  0
 71 73  2  0  0  0
 71 75  1  0  0  0
 71146  1  0  0  0
 72 74  2  0  0  0
 72 76  1  0  0  0
 72147  1  0  0  0
 73 74  1  0  0  0
 73 77  1  0  0  0
 74 78  1  0  0  0
 75 76  2  0  0  0
 75 80  1  0  0  0
 76 84  1  0  0  0
 77 79  1  0  0  0
 77148  1  0  0  0
 77149  1  0  0  0
 78 79  1  0  0  0
 78 81  1  0  0  0
 78 82  1  0  0  0
 79 83  1  0  0  0
 79 86  1  0  0  0
 80150  1  0  0  0
 80151  1  0  0  0
 80152  1  0  0  0
 81153  1  0  0  0
 81154  1  0  0  0
 81155  1  0  0  0
 82156  1  0  0  0
 82157  1  0  0  0
 82158  1  0  0  0
 83159  1  0  0  0
 83160  1  0  0  0
 83161  1  0  0  0
 84 85  1  0  0  0
 84162  1  0  0  0
 84163  1  0  0  0
 85164  1  0  0  0
 85165  1  0  0  0
 86166  1  0  0  0
M  ISO  4   1 100  68 101  85 101  86 100
M  END
> <chiral flag>
0

> <version>
0

> <s_m_source_file>
/data/baiqing/PycharmProjects/Reinvent-master-3.2/result/LINK_invent/BTK/process_docking_weight1_custom_sum_contain_oxygen_bond_distance_aromatic_linkinvent_7_9_3/rearranged_h_0171.sdf

> <i_m_source_file_index>
22

> <r_mmod_Potential_Energy-OPLS-2005>
184.539077758789

> <r_mmod_Stretch_Energy-OPLS-2005>
130.213287353516

> <r_mmod_Bend_Energy-OPLS-2005>
217.065765380859

> <r_mmod_Torsional_Energy-OPLS-2005>
251.339111328125

> <r_mmod_Improper_Torsional_Energy-OPLS-2005>
7.26652765274048

> <r_mmod_Van_der_Waal_Energy-OPLS-2005>
130.323104858398

> <r_mmod_Electrostatic_Energy-OPLS-2005>
-442.450347900391

> <r_mmod_Solvation_Energy-OPLS-2005>
-195.734878540039

> <b_mmod_Minimization_Converged-OPLS-2005>
0

> <r_mmod_RMS_Derivative-OPLS-2005>
2.25593018531799

$$$$
22
                    3D
 Structure written by MMmdl.
171180  0  0  1  0            999 V2000
  -30.7086  -14.3967   20.6449 C   0  0  0  0  0  0
  -30.4327  -12.2854   19.3997 C   0  0  0  0  0  0
  -29.5010  -12.5162   18.1905 C   0  0  0  0  0  0
  -28.0204  -12.3784   18.5991 C   0  0  0  0  0  0
  -27.6725  -13.1936   19.8759 C   0  0  2  0  0  0
  -28.7065  -12.9087   20.9875 C   0  0  0  0  0  0
  -25.2647  -13.8120   20.5604 C   0  0  0  0  0  0
  -24.1857  -13.0445   20.9094 C   0  0  0  0  0  0
  -24.6383  -11.6901   20.8667 C   0  0  0  0  0  0
  -23.9028  -10.4305   21.0366 C   0  0  0  0  0  0
  -24.3601   -9.4224   21.9150 C   0  0  0  0  0  0
  -23.6286   -8.2258   22.0732 C   0  0  0  0  0  0
  -22.4256   -8.0277   21.3517 C   0  0  0  0  0  0
  -21.9872   -9.0241   20.4618 C   0  0  0  0  0  0
  -22.7207  -10.2122   20.3009 C   0  0  0  0  0  0
  -21.6854   -6.0712   22.5269 C   0  0  0  0  0  0
  -21.4021   -6.5623   23.8192 C   0  0  0  0  0  0
  -21.3659   -5.6772   24.9163 C   0  0  0  0  0  0
  -21.6051   -4.3047   24.7222 C   0  0  0  0  0  0
  -21.8829   -3.8131   23.4346 C   0  0  0  0  0  0
  -21.9192   -4.6933   22.3403 C   0  0  0  0  0  0
  -22.7886  -13.5268   21.1807 C   0  0  0  0  0  0
  -22.1652   -4.2119   21.0980 F   0  0  0  0  0  0
  -21.5667   -3.4553   25.7742 F   0  0  0  0  0  0
  -30.0483  -13.2256   20.4577 N   0  0  0  0  0  0
  -26.3067  -12.9257   20.3307 N   0  0  0  0  0  0
  -25.9299  -11.6441   20.5678 N   0  0  0  0  0  0
  -22.0533  -12.8230   22.0348 N   0  0  0  0  0  0
  -25.4494  -15.1805   20.4036 N   0  0  0  0  0  0
  -31.7693  -14.6858   20.0793 O   0  0  0  0  0  0
  -21.6641   -6.8853   21.4221 O   0  0  0  0  0  0
  -22.3557  -14.5592   20.6687 O   0  0  0  0  0  0
  -24.6125  -31.8698   23.2123 C   0  0  0  0  0  0
  -25.9020  -32.4832   23.8405 C   0  0  1  0  0  0
  -27.2182  -27.4593   20.0880 C   0  0  0  0  0  0
  -25.5885  -33.8634   24.2337 N   0  0  0  0  0  0
  -23.3989  -30.4946   21.5519 C   0  0  2  0  0  0
  -24.8424  -28.9673   20.1104 C   0  0  0  0  0  0
  -22.7397  -29.4660   22.4983 C   0  0  0  0  0  0
  -18.0270  -28.1374   22.8489 C   0  0  0  0  0  0
  -24.1486  -36.7319   23.2636 C   0  0  0  0  0  0
  -25.9257  -30.8440   21.3616 C   0  0  0  0  0  0
  -26.0023  -29.4821   20.7053 C   0  0  0  0  0  0
  -27.1995  -28.7338   20.6924 C   0  0  0  0  0  0
  -26.0502  -26.9545   19.4836 C   0  0  0  0  0  0
  -24.8597  -27.7030   19.4970 C   0  0  0  0  0  0
  -23.6047  -29.8315   20.1637 C   0  0  0  0  0  0
  -25.4107  -36.3122   24.0343 C   0  0  1  0  0  0
  -20.5857  -28.3654   23.1322 C   0  0  2  0  0  0
  -20.6755  -26.9389   22.5420 C   0  0  0  0  0  0
  -19.5733  -26.6385   21.5206 C   0  0  0  0  0  0
  -18.1912  -26.7926   22.1612 C   0  0  0  0  0  0
  -19.1519  -28.8836   23.2905 C   0  0  0  0  0  0
  -18.9451  -30.1434   23.8918 C   0  0  0  0  0  0
  -17.6449  -30.6573   24.0570 C   0  0  0  0  0  0
  -25.9030  -34.9479   23.5139 C   0  0  0  0  0  0
  -16.5346  -29.9080   23.6324 C   0  0  0  0  0  0
  -16.7263  -28.6498   23.0345 C   0  0  0  0  0  0
  -26.4463  -31.6609   25.0728 C   0  0  0  0  0  0
  -25.3743  -31.3730   26.1495 C   0  0  0  0  0  0
  -27.0277  -30.3048   24.6087 C   0  0  0  0  0  0
  -27.6053  -32.4331   25.7467 C   0  0  0  0  0  0
  -27.5585  -37.1821   24.8463 C   0  0  0  0  0  0
  -21.4124  -29.3027   22.3734 N   0  0  0  0  0  0
  -26.4294  -37.3804   23.9405 N   0  0  0  0  0  0
  -24.6636  -31.0822   22.1005 N   0  0  0  0  0  0
  -23.4184  -28.8190   23.3003 O   0  0  0  0  0  0
  -28.3509  -26.6916   20.1013 O   0  0  0  0  0  0
  -26.5574  -34.8927   22.4694 O   0  0  0  0  0  0
  -23.5320  -32.1430   23.7530 O   0  0  0  0  0  0
  -28.9406  -20.9081   21.6909 C   0  0  0  0  0  0
  -28.7635  -20.1045   19.3859 C   0  0  0  0  0  0
  -29.1340  -22.2117   21.1904 C   0  0  0  0  0  0
  -29.1403  -22.4613   19.8265 C   0  0  0  0  0  0
  -28.9392  -21.4209   18.8959 C   0  0  0  0  0  0
  -28.7786  -19.8403   20.7805 C   0  0  0  0  0  0
  -29.3955  -23.9178   19.5315 C   0  0  0  0  0  0
  -29.4179  -23.4536   22.0106 C   0  0  0  0  0  0
  -29.4582  -24.6269   20.9224 C   0  0  1  0  0  0
  -28.9044  -21.7025   17.4023 C   0  0  0  0  0  0
  -30.7737  -23.2129   22.7169 C   0  0  0  0  0  0
  -28.3525  -23.6330   23.1197 C   0  0  0  0  0  0
  -30.7359  -25.5030   21.0240 C   0  0  0  0  0  0
  -28.2497  -25.5970   21.0194 C   0  0  0  0  0  0
  -29.2908  -17.4371   20.6166 C   0  0  0  0  0  0
  -30.2708  -16.6907   21.5470 C   0  0  0  0  0  0
  -28.6420  -18.5471   21.3016 N   0  0  0  0  0  0
  -30.0612  -15.2567   21.4367 N   0  0  0  0  0  0
  -31.4822  -12.3903   19.1110 H   0  0  0  0  0  0
  -30.3345  -11.2649   19.7671 H   0  0  0  0  0  0
  -29.7376  -11.8070   17.3972 H   0  0  0  0  0  0
  -29.6791  -13.5080   17.7639 H   0  0  0  0  0  0
  -27.8247  -11.3177   18.7673 H   0  0  0  0  0  0
  -27.3751  -12.6750   17.7740 H   0  0  0  0  0  0
  -27.7406  -14.2487   19.6087 H   0  0  0  0  0  0
  -28.6711  -11.8550   21.2679 H   0  0  0  0  0  0
  -28.4575  -13.4477   21.9016 H   0  0  0  0  0  0
  -25.2779   -9.5741   22.4670 H   0  0  0  0  0  0
  -24.0029   -7.4653   22.7449 H   0  0  0  0  0  0
  -21.0796   -8.8732   19.8916 H   0  0  0  0  0  0
  -22.3669  -10.9618   19.6084 H   0  0  0  0  0  0
  -21.2001   -7.6126   23.9688 H   0  0  0  0  0  0
  -21.1488   -6.0513   25.9059 H   0  0  0  0  0  0
  -22.0610   -2.7580   23.2858 H   0  0  0  0  0  0
  -22.4164  -11.9895   22.4719 H   0  0  0  0  0  0
  -21.1136  -13.1198   22.2586 H   0  0  0  0  0  0
  -24.7071  -15.8604   20.5280 H   0  0  0  0  0  0
  -26.3339  -15.6046   20.1552 H   0  0  0  0  0  0
  -26.7105  -32.5557   23.1180 H   0  0  0  0  0  0
  -25.0050  -33.9796   25.0494 H   0  0  0  0  0  0
  -22.6856  -31.3102   21.4157 H   0  0  0  0  0  0
  -23.3747  -35.9656   23.3321 H   0  0  0  0  0  0
  -24.3593  -36.8909   22.2051 H   0  0  0  0  0  0
  -23.7240  -37.6532   23.6640 H   0  0  0  0  0  0
  -26.0368  -31.6132   20.5961 H   0  0  0  0  0  0
  -26.8145  -30.8949   21.9788 H   0  0  0  0  0  0
  -28.0964  -29.1192   21.1567 H   0  0  0  0  0  0
  -26.0612  -25.9812   19.0128 H   0  0  0  0  0  0
  -23.9667  -27.3022   19.0348 H   0  0  0  0  0  0
  -23.7102  -30.6076   19.4044 H   0  0  0  0  0  0
  -22.7309  -29.2487   19.8692 H   0  0  0  0  0  0
  -25.1281  -36.1999   25.0833 H   0  0  0  0  0  0
  -20.9940  -28.3224   24.1443 H   0  0  0  0  0  0
  -20.5648  -26.2255   23.3602 H   0  0  0  0  0  0
  -21.6635  -26.7434   22.1228 H   0  0  0  0  0  0
  -19.6894  -25.6302   21.1217 H   0  0  0  0  0  0
  -19.6671  -27.3212   20.6748 H   0  0  0  0  0  0
  -17.4177  -26.6688   21.4009 H   0  0  0  0  0  0
  -18.0298  -26.0067   22.9001 H   0  0  0  0  0  0
  -19.7923  -30.7253   24.2303 H   0  0  0  0  0  0
  -17.5008  -31.6257   24.5162 H   0  0  0  0  0  0
  -15.5351  -30.2992   23.7644 H   0  0  0  0  0  0
  -15.8653  -28.0834   22.7047 H   0  0  0  0  0  0
  -24.5886  -30.7104   25.7851 H   0  0  0  0  0  0
  -24.8970  -32.2897   26.4971 H   0  0  0  0  0  0
  -25.8108  -30.8881   27.0235 H   0  0  0  0  0  0
  -26.2805  -29.6825   24.1148 H   0  0  0  0  0  0
  -27.4057  -29.7276   25.4534 H   0  0  0  0  0  0
  -27.8642  -30.4369   23.9219 H   0  0  0  0  0  0
  -27.2678  -33.3622   26.2072 H   0  0  0  0  0  0
  -28.3826  -32.6907   25.0262 H   0  0  0  0  0  0
  -28.0756  -31.8443   26.5350 H   0  0  0  0  0  0
  -28.2623  -38.0096   24.7495 H   0  0  0  0  0  0
  -28.1055  -36.2636   24.6299 H   0  0  0  0  0  0
  -27.2312  -37.1492   25.8866 H   0  0  0  0  0  0
  -20.9267  -29.8770   21.6982 H   0  0  0  0  0  0
  -26.0190  -38.2890   24.1387 H   0  0  0  0  0  0
  -28.9502  -20.7299   22.7559 H   0  0  0  0  0  0
  -28.6114  -19.2968   18.6833 H   0  0  0  0  0  0
  -28.6179  -24.3211   18.8798 H   0  0  0  0  0  0
  -30.3401  -24.0088   18.9967 H   0  0  0  0  0  0
  -28.7959  -20.7865   16.8211 H   0  0  0  0  0  0
  -29.8205  -22.1983   17.0808 H   0  0  0  0  0  0
  -28.0622  -22.3528   17.1652 H   0  0  0  0  0  0
  -31.5690  -22.9970   22.0039 H   0  0  0  0  0  0
  -30.7251  -22.3579   23.3910 H   0  0  0  0  0  0
  -31.0747  -24.0698   23.3192 H   0  0  0  0  0  0
  -27.3376  -23.6691   22.7237 H   0  0  0  0  0  0
  -28.5281  -24.5469   23.6887 H   0  0  0  0  0  0
  -28.3799  -22.8128   23.8377 H   0  0  0  0  0  0
  -31.6491  -24.9313   20.8755 H   0  0  0  0  0  0
  -30.7965  -25.9989   21.9931 H   0  0  0  0  0  0
  -30.7494  -26.2859   20.2677 H   0  0  0  0  0  0
  -28.1812  -26.0309   22.0186 H   0  0  0  0  0  0
  -27.3249  -25.0396   20.8552 H   0  0  0  0  0  0
  -28.4978  -16.7712   20.2718 H   0  0  0  0  0  0
  -29.8300  -17.7559   19.7238 H   0  0  0  0  0  0
  -30.1015  -16.9528   22.5940 H   0  0  0  0  0  0
  -31.3012  -16.9678   21.3268 H   0  0  0  0  0  0
  -28.6375  -18.4807   22.3166 H   0  0  0  0  0  0
  -29.2350  -14.8934   21.8888 H   0  0  0  0  0  0
  1 25  1  0  0  0
  1 30  2  0  0  0
  1 88  1  0  0  0
  2  3  1  0  0  0
  2 25  1  0  0  0
  2 89  1  0  0  0
  2 90  1  0  0  0
  3  4  1  0  0  0
  3 91  1  0  0  0
  3 92  1  0  0  0
  4  5  1  0  0  0
  4 93  1  0  0  0
  4 94  1  0  0  0
  5  6  1  0  0  0
  5 26  1  0  0  0
  5 95  1  0  0  0
  6 25  1  0  0  0
  6 96  1  0  0  0
  6 97  1  0  0  0
  7  8  2  0  0  0
  7 26  1  0  0  0
  7 29  1  0  0  0
  8  9  1  0  0  0
  8 22  1  0  0  0
  9 10  1  0  0  0
  9 27  2  0  0  0
 10 11  2  0  0  0
 10 15  1  0  0  0
 11 12  1  0  0  0
 11 98  1  0  0  0
 12 13  2  0  0  0
 12 99  1  0  0  0
 13 14  1  0  0  0
 13 31  1  0  0  0
 14 15  2  0  0  0
 14100  1  0  0  0
 15101  1  0  0  0
 16 17  2  0  0  0
 16 21  1  0  0  0
 16 31  1  0  0  0
 17 18  1  0  0  0
 17102  1  0  0  0
 18 19  2  0  0  0
 18103  1  0  0  0
 19 20  1  0  0  0
 19 24  1  0  0  0
 20 21  2  0  0  0
 20104  1  0  0  0
 21 23  1  0  0  0
 22 28  1  0  0  0
 22 32  2  0  0  0
 26 27  1  0  0  0
 28105  1  0  0  0
 28106  1  0  0  0
 29107  1  0  0  0
 29108  1  0  0  0
 33 34  1  0  0  0
 33 66  1  0  0  0
 33 70  2  0  0  0
 34 36  1  0  0  0
 34 59  1  0  0  0
 34109  1  0  0  0
 35 44  2  0  0  0
 35 45  1  0  0  0
 35 68  1  0  0  0
 36 56  1  0  0  0
 36110  1  0  0  0
 37 39  1  0  0  0
 37 47  1  0  0  0
 37 66  1  0  0  0
 37111  1  0  0  0
 38 43  2  0  0  0
 38 46  1  0  0  0
 38 47  1  0  0  0
 39 64  1  0  0  0
 39 67  2  0  0  0
 40 52  1  0  0  0
 40 53  2  0  0  0
 40 58  1  0  0  0
 41112  1  0  0  0
 41113  1  0  0  0
 41114  1  0  0  0
 41 48  1  0  0  0
 42 43  1  0  0  0
 42 66  1  0  0  0
 42115  1  0  0  0
 42116  1  0  0  0
 43 44  1  0  0  0
 44117  1  0  0  0
 45 46  2  0  0  0
 45118  1  0  0  0
 46119  1  0  0  0
 47120  1  0  0  0
 47121  1  0  0  0
 48 56  1  0  0  0
 48 65  1  0  0  0
 48122  1  0  0  0
 49 50  1  0  0  0
 49 53  1  0  0  0
 49 64  1  0  0  0
 49123  1  0  0  0
 50 51  1  0  0  0
 50124  1  0  0  0
 50125  1  0  0  0
 51 52  1  0  0  0
 51126  1  0  0  0
 51127  1  0  0  0
 52128  1  0  0  0
 52129  1  0  0  0
 53 54  1  0  0  0
 54 55  2  0  0  0
 54130  1  0  0  0
 55 57  1  0  0  0
 55131  1  0  0  0
 56 69  2  0  0  0
 57 58  2  0  0  0
 57132  1  0  0  0
 58133  1  0  0  0
 59 60  1  0  0  0
 59 61  1  0  0  0
 59 62  1  0  0  0
 60134  1  0  0  0
 60135  1  0  0  0
 60136  1  0  0  0
 61137  1  0  0  0
 61138  1  0  0  0
 61139  1  0  0  0
 62140  1  0  0  0
 62141  1  0  0  0
 62142  1  0  0  0
 63 65  1  0  0  0
 63143  1  0  0  0
 63144  1  0  0  0
 63145  1  0  0  0
 64146  1  0  0  0
 65147  1  0  0  0
 68 84  1  0  0  0
 71 73  2  0  0  0
 71 76  1  0  0  0
 71148  1  0  0  0
 72 75  1  0  0  0
 72 76  2  0  0  0
 72149  1  0  0  0
 73 74  1  0  0  0
 73 78  1  0  0  0
 74 75  2  0  0  0
 74 77  1  0  0  0
 75 80  1  0  0  0
 76 87  1  0  0  0
 77 79  1  0  0  0
 77150  1  0  0  0
 77151  1  0  0  0
 78 79  1  0  0  0
 78 81  1  0  0  0
 78 82  1  0  0  0
 79 83  1  0  0  0
 79 84  1  0  0  0
 80152  1  0  0  0
 80153  1  0  0  0
 80154  1  0  0  0
 81155  1  0  0  0
 81156  1  0  0  0
 81157  1  0  0  0
 82158  1  0  0  0
 82159  1  0  0  0
 82160  1  0  0  0
 83161  1  0  0  0
 83162  1  0  0  0
 83163  1  0  0  0
 84164  1  0  0  0
 84165  1  0  0  0
 85 86  1  0  0  0
 85 87  1  0  0  0
 85166  1  0  0  0
 85167  1  0  0  0
 86 88  1  0  0  0
 86168  1  0  0  0
 86169  1  0  0  0
 87170  1  0  0  0
 88171  1  0  0  0
M  ISO  4   1 100  68 101  84 101  88 100
M  END
> <chiral flag>
0

> <version>
0

> <s_m_source_file>
/data/baiqing/PycharmProjects/Reinvent-master-3.2/result/LINK_invent/BTK/process_docking_weight1_custom_sum_contain_oxygen_bond_distance_aromatic_linkinvent_7_9_3/rearranged_h_0171.sdf

> <i_m_source_file_index>
23

> <r_mmod_Potential_Energy-OPLS-2005>
-81.2788467407227

> <r_mmod_Stretch_Energy-OPLS-2005>
41.5671730041504

> <r_mmod_Bend_Energy-OPLS-2005>
134.271087646484

> <r_mmod_Torsional_Energy-OPLS-2005>
242.583831787109

> <r_mmod_Improper_Torsional_Energy-OPLS-2005>
5.65075635910034

> <r_mmod_Van_der_Waal_Energy-OPLS-2005>
164.380432128906

> <r_mmod_Electrostatic_Energy-OPLS-2005>
-471.493133544922

> <r_mmod_Solvation_Energy-OPLS-2005>
-207.473022460938

> <b_mmod_Minimization_Converged-OPLS-2005>
0

> <r_mmod_RMS_Derivative-OPLS-2005>
4.44413375854492

$$$$
23
                    3D
 Structure written by MMmdl.
174183  0  0  1  0            999 V2000
  -30.6672  -14.5758   20.4382 C   0  0  0  0  0  0
  -30.4256  -12.3382   19.4417 C   0  0  0  0  0  0
  -29.4892  -12.4311   18.2176 C   0  0  0  0  0  0
  -28.0108  -12.3045   18.6361 C   0  0  0  0  0  0
  -27.6405  -13.1865   19.8591 C   0  0  2  0  0  0
  -28.7002  -13.0934   20.9808 C   0  0  0  0  0  0
  -25.2550  -13.8101   20.5694 C   0  0  0  0  0  0
  -24.1792  -13.0410   20.9196 C   0  0  0  0  0  0
  -24.6319  -11.6864   20.8745 C   0  0  0  0  0  0
  -23.8998  -10.4258   21.0406 C   0  0  0  0  0  0
  -24.3581   -9.4193   21.9183 C   0  0  0  0  0  0
  -23.6277   -8.2224   22.0731 C   0  0  0  0  0  0
  -22.4246   -8.0249   21.3514 C   0  0  0  0  0  0
  -21.9872   -9.0218   20.4615 C   0  0  0  0  0  0
  -22.7165  -10.2115   20.3039 C   0  0  0  0  0  0
  -21.6842   -6.0705   22.5269 C   0  0  0  0  0  0
  -21.4004   -6.5617   23.8201 C   0  0  0  0  0  0
  -21.3662   -5.6785   24.9176 C   0  0  0  0  0  0
  -21.6066   -4.3046   24.7237 C   0  0  0  0  0  0
  -21.8841   -3.8130   23.4363 C   0  0  0  0  0  0
  -21.9196   -4.6937   22.3405 C   0  0  0  0  0  0
  -22.7828  -13.5196   21.1861 C   0  0  0  0  0  0
  -22.1646   -4.2113   21.0989 F   0  0  0  0  0  0
  -21.5648   -3.4534   25.7767 F   0  0  0  0  0  0
  -30.0126  -13.3821   20.3883 N   0  0  0  0  0  0
  -26.2929  -12.9191   20.3407 N   0  0  0  0  0  0
  -25.9252  -11.6395   20.5871 N   0  0  0  0  0  0
  -22.0506  -12.8143   22.0435 N   0  0  0  0  0  0
  -25.4437  -15.1810   20.4071 N   0  0  0  0  0  0
  -31.8844  -14.6740   20.2530 O   0  0  0  0  0  0
  -21.6626   -6.8830   21.4213 O   0  0  0  0  0  0
  -22.3520  -14.5527   20.6759 O   0  0  0  0  0  0
  -24.6187  -31.8675   23.2133 C   0  0  0  0  0  0
  -25.9095  -32.4818   23.8409 C   0  0  1  0  0  0
  -27.2150  -27.4161   20.0958 C   0  0  0  0  0  0
  -25.5961  -33.8619   24.2339 N   0  0  0  0  0  0
  -23.4040  -30.4982   21.5549 C   0  0  2  0  0  0
  -24.8437  -28.9696   20.1106 C   0  0  0  0  0  0
  -22.7415  -29.4693   22.4995 C   0  0  0  0  0  0
  -18.0274  -28.1379   22.8480 C   0  0  0  0  0  0
  -24.1485  -36.7289   23.2639 C   0  0  0  0  0  0
  -25.9369  -30.8297   21.3682 C   0  0  0  0  0  0
  -26.0093  -29.4680   20.7053 C   0  0  0  0  0  0
  -27.2004  -28.7024   20.6892 C   0  0  0  0  0  0
  -26.0280  -26.9461   19.4827 C   0  0  0  0  0  0
  -24.8499  -27.7102   19.4919 C   0  0  0  0  0  0
  -23.6093  -29.8383   20.1658 C   0  0  0  0  0  0
  -25.4109  -36.3089   24.0332 C   0  0  1  0  0  0
  -20.5860  -28.3672   23.1303 C   0  0  2  0  0  0
  -20.6775  -26.9413   22.5401 C   0  0  0  0  0  0
  -19.5752  -26.6384   21.5202 C   0  0  0  0  0  0
  -18.1923  -26.7931   22.1609 C   0  0  0  0  0  0
  -19.1519  -28.8846   23.2885 C   0  0  0  0  0  0
  -18.9454  -30.1453   23.8886 C   0  0  0  0  0  0
  -17.6457  -30.6599   24.0569 C   0  0  0  0  0  0
  -25.9045  -34.9469   23.5117 C   0  0  0  0  0  0
  -16.5345  -29.9088   23.6350 C   0  0  0  0  0  0
  -16.7260  -28.6511   23.0361 C   0  0  0  0  0  0
  -26.4515  -31.6607   25.0755 C   0  0  0  0  0  0
  -25.3787  -31.3714   26.1509 C   0  0  0  0  0  0
  -27.0365  -30.3043   24.6171 C   0  0  0  0  0  0
  -27.6081  -32.4336   25.7529 C   0  0  0  0  0  0
  -27.5570  -37.1798   24.8470 C   0  0  0  0  0  0
  -21.4140  -29.3050   22.3722 N   0  0  0  0  0  0
  -26.4279  -37.3782   23.9420 N   0  0  0  0  0  0
  -24.6725  -31.0780   22.1029 N   0  0  0  0  0  0
  -23.4180  -28.8230   23.3048 O   0  0  0  0  0  0
  -28.3581  -26.6336   20.1448 O   0  0  0  0  0  0
  -26.5573  -34.8917   22.4661 O   0  0  0  0  0  0
  -23.5390  -32.1445   23.7523 O   0  0  0  0  0  0
  -30.8396  -21.4541   21.0570 C   0  0  0  0  0  0
  -29.5311  -16.0438   18.9025 C   0  0  0  0  0  0
  -30.0959  -16.9722   20.9913 C   0  0  0  0  0  0
  -29.8059  -17.5290   18.7235 C   0  0  2  0  0  0
  -29.4403  -18.0639   20.1004 C   0  0  2  0  0  0
  -29.5126  -21.8675   20.4243 C   0  0  1  0  0  0
  -31.1134  -20.0390   20.5143 C   0  0  2  0  0  0
  -28.7252  -20.5362   20.4801 C   0  0  1  0  0  0
  -29.0647  -18.1254   17.5224 C   0  0  0  0  0  0
  -31.8937  -20.1016   19.1889 C   0  0  0  0  0  0
  -27.6083  -20.4878   19.4233 C   0  0  0  0  0  0
  -29.8863  -25.0252   22.0868 C   0  0  0  0  0  0
  -28.1193  -25.2113   20.2452 C   0  0  0  0  0  0
  -29.2946  -24.3766   20.8210 C   0  0  2  0  0  0
  -29.8766  -15.6776   20.2914 N   0  0  0  0  0  0
  -29.7647  -19.4965   20.3172 N   0  0  0  0  0  0
  -28.8410  -22.9865   21.1387 N   0  3  0  0  0  0
  -31.4638  -12.4542   19.1291 H   0  0  0  0  0  0
  -30.3581  -11.3581   19.9139 H   0  0  0  0  0  0
  -29.7356  -11.6442   17.5026 H   0  0  0  0  0  0
  -29.6436  -13.3661   17.6862 H   0  0  0  0  0  0
  -27.8287  -11.2551   18.8748 H   0  0  0  0  0  0
  -27.3613  -12.5323   17.7887 H   0  0  0  0  0  0
  -27.6209  -14.2035   19.4996 H   0  0  0  0  0  0
  -28.7096  -12.1005   21.4305 H   0  0  0  0  0  0
  -28.4754  -13.7942   21.7858 H   0  0  0  0  0  0
  -25.2751   -9.5678   22.4743 H   0  0  0  0  0  0
  -23.9984   -7.4604   22.7428 H   0  0  0  0  0  0
  -21.0798   -8.8717   19.8890 H   0  0  0  0  0  0
  -22.3611  -10.9659   19.6148 H   0  0  0  0  0  0
  -21.1963   -7.6125   23.9679 H   0  0  0  0  0  0
  -21.1455   -6.0529   25.9074 H   0  0  0  0  0  0
  -22.0607   -2.7573   23.2902 H   0  0  0  0  0  0
  -22.4155  -11.9758   22.4714 H   0  0  0  0  0  0
  -21.1144  -13.1121   22.2737 H   0  0  0  0  0  0
  -24.6969  -15.8552   20.5239 H   0  0  0  0  0  0
  -26.3239  -15.6014   20.1349 H   0  0  0  0  0  0
  -26.7168  -32.5494   23.1169 H   0  0  0  0  0  0
  -25.0207  -33.9794   25.0548 H   0  0  0  0  0  0
  -22.6945  -31.3174   21.4210 H   0  0  0  0  0  0
  -23.3742  -35.9624   23.3311 H   0  0  0  0  0  0
  -24.3563  -36.8894   22.2045 H   0  0  0  0  0  0
  -23.7235  -37.6500   23.6646 H   0  0  0  0  0  0
  -26.0605  -31.6022   20.6080 H   0  0  0  0  0  0
  -26.8205  -30.8685   21.9939 H   0  0  0  0  0  0
  -28.0995  -29.0820   21.1541 H   0  0  0  0  0  0
  -25.9838  -25.9851   18.9924 H   0  0  0  0  0  0
  -23.9550  -27.3254   19.0246 H   0  0  0  0  0  0
  -23.7168  -30.6194   19.4110 H   0  0  0  0  0  0
  -22.7290  -29.2642   19.8676 H   0  0  0  0  0  0
  -25.1287  -36.1942   25.0821 H   0  0  0  0  0  0
  -20.9942  -28.3233   24.1429 H   0  0  0  0  0  0
  -20.5694  -26.2283   23.3590 H   0  0  0  0  0  0
  -21.6650  -26.7478   22.1187 H   0  0  0  0  0  0
  -19.6931  -25.6285   21.1252 H   0  0  0  0  0  0
  -19.6716  -27.3180   20.6718 H   0  0  0  0  0  0
  -17.4208  -26.6678   21.4000 H   0  0  0  0  0  0
  -18.0330  -26.0061   22.8995 H   0  0  0  0  0  0
  -19.7930  -30.7282   24.2246 H   0  0  0  0  0  0
  -17.5014  -31.6282   24.5166 H   0  0  0  0  0  0
  -15.5345  -30.2998   23.7706 H   0  0  0  0  0  0
  -15.8645  -28.0842   22.7079 H   0  0  0  0  0  0
  -24.5953  -30.7070   25.7849 H   0  0  0  0  0  0
  -24.9007  -32.2875   26.4985 H   0  0  0  0  0  0
  -25.8158  -30.8869   27.0247 H   0  0  0  0  0  0
  -26.2930  -29.6772   24.1242 H   0  0  0  0  0  0
  -27.4131  -29.7324   25.4658 H   0  0  0  0  0  0
  -27.8762  -30.4347   23.9342 H   0  0  0  0  0  0
  -27.2682  -33.3610   26.2141 H   0  0  0  0  0  0
  -28.3887  -32.6927   25.0370 H   0  0  0  0  0  0
  -28.0754  -31.8443   26.5425 H   0  0  0  0  0  0
  -28.2592  -38.0091   24.7517 H   0  0  0  0  0  0
  -28.1066  -36.2624   24.6305 H   0  0  0  0  0  0
  -27.2286  -37.1452   25.8872 H   0  0  0  0  0  0
  -20.9306  -29.8767   21.6931 H   0  0  0  0  0  0
  -26.0160  -38.2852   24.1444 H   0  0  0  0  0  0
  -30.7402  -21.4023   22.1426 H   0  0  0  0  0  0
  -31.6434  -22.1586   20.8446 H   0  0  0  0  0  0
  -30.0851  -15.4816   18.1513 H   0  0  0  0  0  0
  -28.4725  -15.8842   18.7204 H   0  0  0  0  0  0
  -29.6566  -16.9520   21.9887 H   0  0  0  0  0  0
  -31.1668  -17.1579   21.1013 H   0  0  0  0  0  0
  -30.8755  -17.6254   18.5518 H   0  0  0  0  0  0
  -28.3639  -17.9533   20.2325 H   0  0  0  0  0  0
  -29.6740  -22.1429   19.3793 H   0  0  0  0  0  0
  -31.6700  -19.4613   21.2519 H   0  0  0  0  0  0
  -28.2879  -20.4151   21.4734 H   0  0  0  0  0  0
  -27.9861  -18.1349   17.6774 H   0  0  0  0  0  0
  -29.2720  -17.5475   16.6218 H   0  0  0  0  0  0
  -29.3961  -19.1459   17.3371 H   0  0  0  0  0  0
  -31.2690  -20.4454   18.3631 H   0  0  0  0  0  0
  -32.3166  -19.1354   18.9199 H   0  0  0  0  0  0
  -32.7378  -20.7871   19.2622 H   0  0  0  0  0  0
  -28.0020  -20.6055   18.4155 H   0  0  0  0  0  0
  -26.8906  -21.2943   19.5780 H   0  0  0  0  0  0
  -27.0432  -19.5572   19.4660 H   0  0  0  0  0  0
  -30.3066  -26.0067   21.8629 H   0  0  0  0  0  0
  -30.6926  -24.4206   22.5045 H   0  0  0  0  0  0
  -29.1326  -25.1643   22.8644 H   0  0  0  0  0  0
  -27.2481  -25.0416   20.8827 H   0  0  0  0  0  0
  -27.8696  -24.8188   19.2574 H   0  0  0  0  0  0
  -30.0802  -24.3426   20.0660 H   0  0  0  0  0  0
  -28.9142  -22.8258   22.1310 H   0  0  0  0  0  0
  -27.8600  -22.9275   20.9144 H   0  0  0  0  0  0
  1 25  1  0  0  0
  1 30  2  0  0  0
  1 85  1  0  0  0
  2  3  1  0  0  0
  2 25  1  0  0  0
  2 88  1  0  0  0
  2 89  1  0  0  0
  3  4  1  0  0  0
  3 90  1  0  0  0
  3 91  1  0  0  0
  4  5  1  0  0  0
  4 92  1  0  0  0
  4 93  1  0  0  0
  5  6  1  0  0  0
  5 26  1  0  0  0
  5 94  1  0  0  0
  6 25  1  0  0  0
  6 95  1  0  0  0
  6 96  1  0  0  0
  7  8  2  0  0  0
  7 26  1  0  0  0
  7 29  1  0  0  0
  8  9  1  0  0  0
  8 22  1  0  0  0
  9 10  1  0  0  0
  9 27  2  0  0  0
 10 11  2  0  0  0
 10 15  1  0  0  0
 11 12  1  0  0  0
 11 97  1  0  0  0
 12 13  2  0  0  0
 12 98  1  0  0  0
 13 14  1  0  0  0
 13 31  1  0  0  0
 14 15  2  0  0  0
 14 99  1  0  0  0
 15100  1  0  0  0
 16 17  2  0  0  0
 16 21  1  0  0  0
 16 31  1  0  0  0
 17 18  1  0  0  0
 17101  1  0  0  0
 18 19  2  0  0  0
 18102  1  0  0  0
 19 20  1  0  0  0
 19 24  1  0  0  0
 20 21  2  0  0  0
 20103  1  0  0  0
 21 23  1  0  0  0
 22 28  1  0  0  0
 22 32  2  0  0  0
 26 27  1  0  0  0
 28104  1  0  0  0
 28105  1  0  0  0
 29106  1  0  0  0
 29107  1  0  0  0
 33 34  1  0  0  0
 33 66  1  0  0  0
 33 70  2  0  0  0
 34 36  1  0  0  0
 34 59  1  0  0  0
 34108  1  0  0  0
 35 44  2  0  0  0
 35 45  1  0  0  0
 35 68  1  0  0  0
 36 56  1  0  0  0
 36109  1  0  0  0
 37 39  1  0  0  0
 37 47  1  0  0  0
 37 66  1  0  0  0
 37110  1  0  0  0
 38 43  2  0  0  0
 38 46  1  0  0  0
 38 47  1  0  0  0
 39 64  1  0  0  0
 39 67  2  0  0  0
 40 52  1  0  0  0
 40 53  2  0  0  0
 40 58  1  0  0  0
 41111  1  0  0  0
 41112  1  0  0  0
 41113  1  0  0  0
 41 48  1  0  0  0
 42 43  1  0  0  0
 42 66  1  0  0  0
 42114  1  0  0  0
 42115  1  0  0  0
 43 44  1  0  0  0
 44116  1  0  0  0
 45 46  2  0  0  0
 45117  1  0  0  0
 46118  1  0  0  0
 47119  1  0  0  0
 47120  1  0  0  0
 48 56  1  0  0  0
 48 65  1  0  0  0
 48121  1  0  0  0
 49 50  1  0  0  0
 49 53  1  0  0  0
 49 64  1  0  0  0
 49122  1  0  0  0
 50 51  1  0  0  0
 50123  1  0  0  0
 50124  1  0  0  0
 51 52  1  0  0  0
 51125  1  0  0  0
 51126  1  0  0  0
 52127  1  0  0  0
 52128  1  0  0  0
 53 54  1  0  0  0
 54 55  2  0  0  0
 54129  1  0  0  0
 55 57  1  0  0  0
 55130  1  0  0  0
 56 69  2  0  0  0
 57 58  2  0  0  0
 57131  1  0  0  0
 58132  1  0  0  0
 59 60  1  0  0  0
 59 61  1  0  0  0
 59 62  1  0  0  0
 60133  1  0  0  0
 60134  1  0  0  0
 60135  1  0  0  0
 61136  1  0  0  0
 61137  1  0  0  0
 61138  1  0  0  0
 62139  1  0  0  0
 62140  1  0  0  0
 62141  1  0  0  0
 63 65  1  0  0  0
 63142  1  0  0  0
 63143  1  0  0  0
 63144  1  0  0  0
 64145  1  0  0  0
 65146  1  0  0  0
 68 83  1  0  0  0
 71 76  1  0  0  0
 71 77  1  0  0  0
 71147  1  0  0  0
 71148  1  0  0  0
 72 74  1  0  0  0
 72 85  1  0  0  0
 72149  1  0  0  0
 72150  1  0  0  0
 73 75  1  0  0  0
 73 85  1  0  0  0
 73151  1  0  0  0
 73152  1  0  0  0
 74 75  1  0  0  0
 74 79  1  0  0  0
 74153  1  0  0  0
 75154  1  0  0  0
 75 86  1  0  0  0
 76 78  1  0  0  0
 76 87  1  0  0  0
 76155  1  0  0  0
 77 80  1  0  0  0
 77 86  1  0  0  0
 77156  1  0  0  0
 78 81  1  0  0  0
 78 86  1  0  0  0
 78157  1  0  0  0
 79158  1  0  0  0
 79159  1  0  0  0
 79160  1  0  0  0
 80161  1  0  0  0
 80162  1  0  0  0
 80163  1  0  0  0
 81164  1  0  0  0
 81165  1  0  0  0
 81166  1  0  0  0
 82167  1  0  0  0
 82168  1  0  0  0
 82169  1  0  0  0
 82 84  1  0  0  0
 83 84  1  0  0  0
 83170  1  0  0  0
 83171  1  0  0  0
 84 87  1  0  0  0
 84172  1  0  0  0
 87173  1  0  0  0
 87174  1  0  0  0
M  CHG  1  87   1
M  ISO  4   1 100  68 101  83 101  85 100
M  END
> <chiral flag>
0

> <version>
0

> <s_m_source_file>
/data/baiqing/PycharmProjects/Reinvent-master-3.2/result/LINK_invent/BTK/process_docking_weight1_custom_sum_contain_oxygen_bond_distance_aromatic_linkinvent_7_9_3/rearranged_h_0171.sdf

> <i_m_source_file_index>
24

> <r_mmod_Potential_Energy-OPLS-2005>
189.280410766602

> <r_mmod_Stretch_Energy-OPLS-2005>
45.1246490478516

> <r_mmod_Bend_Energy-OPLS-2005>
203.523986816406

> <r_mmod_Torsional_Energy-OPLS-2005>
441.607482910156

> <r_mmod_Improper_Torsional_Energy-OPLS-2005>
15.2605180740356

> <r_mmod_Van_der_Waal_Energy-OPLS-2005>
122.332511901855

> <r_mmod_Electrostatic_Energy-OPLS-2005>
-254.611785888672

> <r_mmod_Solvation_Energy-OPLS-2005>
-420.352111816406

> <b_mmod_Minimization_Converged-OPLS-2005>
0

> <r_mmod_RMS_Derivative-OPLS-2005>
3.51575803756714

$$$$
24
                    3D
 Structure written by MMmdl.
174184  0  0  1  0            999 V2000
  -30.6787  -14.6556   20.5014 C   0  0  0  0  0  0
  -30.4272  -12.4095   19.4606 C   0  0  0  0  0  0
  -29.5089  -12.5115   18.2247 C   0  0  0  0  0  0
  -28.0291  -12.3593   18.6290 C   0  0  0  0  0  0
  -27.6487  -13.2317   19.8579 C   0  0  2  0  0  0
  -28.6960  -13.1126   20.9859 C   0  0  0  0  0  0
  -25.2533  -13.8188   20.5700 C   0  0  0  0  0  0
  -24.1823  -13.0428   20.9188 C   0  0  0  0  0  0
  -24.6422  -11.6906   20.8729 C   0  0  0  0  0  0
  -23.9089  -10.4278   21.0383 C   0  0  0  0  0  0
  -24.3638   -9.4197   21.9171 C   0  0  0  0  0  0
  -23.6313   -8.2233   22.0754 C   0  0  0  0  0  0
  -22.4288   -8.0271   21.3545 C   0  0  0  0  0  0
  -21.9926   -9.0240   20.4645 C   0  0  0  0  0  0
  -22.7260  -10.2117   20.3039 C   0  0  0  0  0  0
  -21.6850   -6.0738   22.5288 C   0  0  0  0  0  0
  -21.4011   -6.5639   23.8221 C   0  0  0  0  0  0
  -21.3662   -5.6791   24.9182 C   0  0  0  0  0  0
  -21.6044   -4.3056   24.7227 C   0  0  0  0  0  0
  -21.8821   -3.8147   23.4347 C   0  0  0  0  0  0
  -21.9195   -4.6966   22.3405 C   0  0  0  0  0  0
  -22.7841  -13.5212   21.1839 C   0  0  0  0  0  0
  -22.1660   -4.2157   21.0984 F   0  0  0  0  0  0
  -21.5634   -3.4540   25.7736 F   0  0  0  0  0  0
  -30.0008  -13.4626   20.4094 N   0  0  0  0  0  0
  -26.2984  -12.9411   20.3315 N   0  0  0  0  0  0
  -25.9360  -11.6546   20.5753 N   0  0  0  0  0  0
  -22.0481  -12.8205   22.0399 N   0  0  0  0  0  0
  -25.4180  -15.1915   20.4111 N   0  0  0  0  0  0
  -31.8655  -14.7048   20.1612 O   0  0  0  0  0  0
  -21.6646   -6.8876   21.4249 O   0  0  0  0  0  0
  -22.3519  -14.5519   20.6697 O   0  0  0  0  0  0
  -24.6290  -31.8606   23.2046 C   0  0  0  0  0  0
  -25.9133  -32.4783   23.8379 C   0  0  1  0  0  0
  -27.2166  -27.3045   20.1126 C   0  0  0  0  0  0
  -25.5943  -33.8585   24.2295 N   0  0  0  0  0  0
  -23.4216  -30.4882   21.5488 C   0  0  2  0  0  0
  -24.8649  -28.9476   20.1125 C   0  0  0  0  0  0
  -22.7492  -29.4642   22.4945 C   0  0  0  0  0  0
  -18.0290  -28.1390   22.8487 C   0  0  0  0  0  0
  -24.1482  -36.7288   23.2634 C   0  0  0  0  0  0
  -25.9665  -30.7879   21.3772 C   0  0  0  0  0  0
  -26.0389  -29.4163   20.7150 C   0  0  0  0  0  0
  -27.2186  -28.6080   20.7034 C   0  0  0  0  0  0
  -26.0126  -26.8997   19.4825 C   0  0  0  0  0  0
  -24.8548  -27.6943   19.4879 C   0  0  0  0  0  0
  -23.6355  -29.8306   20.1626 C   0  0  0  0  0  0
  -25.4109  -36.3088   24.0331 C   0  0  1  0  0  0
  -20.5893  -28.3700   23.1279 C   0  0  2  0  0  0
  -20.6784  -26.9422   22.5412 C   0  0  0  0  0  0
  -19.5754  -26.6390   21.5217 C   0  0  0  0  0  0
  -18.1932  -26.7938   22.1624 C   0  0  0  0  0  0
  -19.1544  -28.8861   23.2879 C   0  0  0  0  0  0
  -18.9464  -30.1461   23.8899 C   0  0  0  0  0  0
  -17.6464  -30.6589   24.0566 C   0  0  0  0  0  0
  -25.9055  -34.9457   23.5112 C   0  0  0  0  0  0
  -16.5357  -29.9089   23.6329 C   0  0  0  0  0  0
  -16.7277  -28.6508   23.0349 C   0  0  0  0  0  0
  -26.4503  -31.6593   25.0758 C   0  0  0  0  0  0
  -25.3733  -31.3739   26.1482 C   0  0  0  0  0  0
  -27.0335  -30.3011   24.6222 C   0  0  0  0  0  0
  -27.6062  -32.4327   25.7534 C   0  0  0  0  0  0
  -27.5584  -37.1796   24.8458 C   0  0  0  0  0  0
  -21.4202  -29.3055   22.3678 N   0  0  0  0  0  0
  -26.4280  -37.3795   23.9426 N   0  0  0  0  0  0
  -24.6917  -31.0620   22.1004 N   0  0  0  0  0  0
  -23.4206  -28.8172   23.3025 O   0  0  0  0  0  0
  -28.3166  -26.4224   20.1758 O   0  0  0  0  0  0
  -26.5624  -34.8924   22.4676 O   0  0  0  0  0  0
  -23.5451  -32.1412   23.7368 O   0  0  0  0  0  0
  -30.9938  -21.7004   20.5023 C   0  0  0  0  0  0
  -30.4813  -24.0720   20.0306 C   0  0  0  0  0  0
  -31.4160  -23.0238   20.2578 C   0  0  0  0  0  0
  -29.0908  -23.8196   20.2052 C   0  0  0  0  0  0
  -28.6879  -22.4413   20.4616 C   0  0  0  0  0  0
  -29.6295  -21.3516   20.5855 C   0  0  0  0  0  0
  -30.5235  -26.0426   18.2629 C   0  0  0  0  0  0
  -31.9404  -25.5728   18.4144 C   0  0  0  0  0  0
  -29.6093  -17.8106   22.0816 C   0  0  0  0  0  0
  -30.8159  -18.1966   19.8942 C   0  0  0  0  0  0
  -29.1009  -16.4318   21.5207 C   0  0  0  0  0  0
  -30.1509  -16.8657   19.4109 C   0  0  0  0  0  0
  -30.9730  -25.4278   19.5772 C   0  0  0  0  0  0
  -30.1359  -18.9078   21.0959 C   0  0  0  0  0  0
  -32.9182  -23.2746   20.2367 C   0  0  0  0  0  0
  -26.5591  -21.8874   19.1899 C   0  0  0  0  0  0
  -27.2083  -22.0770   20.5665 C   0  0  0  0  0  0
  -28.0262  -24.9742   19.9795 C   0  0  0  0  0  0
  -29.9532  -15.8384   20.4664 N   0  0  0  0  0  0
  -29.2056  -20.0070   20.7676 O   0  0  0  0  0  0
  -31.4704  -12.5091   19.1572 H   0  0  0  0  0  0
  -30.3496  -11.4233   19.9208 H   0  0  0  0  0  0
  -29.7792  -11.7526   17.4893 H   0  0  0  0  0  0
  -29.6604  -13.4750   17.7362 H   0  0  0  0  0  0
  -27.8576  -11.3068   18.8550 H   0  0  0  0  0  0
  -27.3833  -12.5972   17.7822 H   0  0  0  0  0  0
  -27.6570  -14.2667   19.5145 H   0  0  0  0  0  0
  -28.7194  -12.0968   21.3829 H   0  0  0  0  0  0
  -28.4363  -13.7499   21.8279 H   0  0  0  0  0  0
  -25.2779   -9.5685   22.4757 H   0  0  0  0  0  0
  -24.0021   -7.4631   22.7473 H   0  0  0  0  0  0
  -21.0857   -8.8749   19.8954 H   0  0  0  0  0  0
  -22.3708  -10.9654   19.6142 H   0  0  0  0  0  0
  -21.1997   -7.6145   23.9736 H   0  0  0  0  0  0
  -21.1486   -6.0512   25.9088 H   0  0  0  0  0  0
  -22.0602   -2.7614   23.2843 H   0  0  0  0  0  0
  -22.4087  -11.9867   22.4797 H   0  0  0  0  0  0
  -21.1097  -13.1227   22.2580 H   0  0  0  0  0  0
  -24.6481  -15.8404   20.5269 H   0  0  0  0  0  0
  -26.2706  -15.6394   20.0996 H   0  0  0  0  0  0
  -26.7208  -32.5434   23.1133 H   0  0  0  0  0  0
  -25.0098  -33.9740   25.0445 H   0  0  0  0  0  0
  -22.7158  -31.3099   21.4093 H   0  0  0  0  0  0
  -23.3770  -35.9590   23.3254 H   0  0  0  0  0  0
  -24.3591  -36.8955   22.2060 H   0  0  0  0  0  0
  -23.7194  -37.6459   23.6685 H   0  0  0  0  0  0
  -26.1025  -31.5540   20.6124 H   0  0  0  0  0  0
  -26.8459  -30.8333   22.0081 H   0  0  0  0  0  0
  -28.1181  -28.9645   21.1851 H   0  0  0  0  0  0
  -25.9156  -25.9463   18.9880 H   0  0  0  0  0  0
  -23.9543  -27.3292   19.0131 H   0  0  0  0  0  0
  -23.7585  -30.6112   19.4110 H   0  0  0  0  0  0
  -22.7531  -29.2661   19.8557 H   0  0  0  0  0  0
  -25.1283  -36.1938   25.0823 H   0  0  0  0  0  0
  -20.9980  -28.3272   24.1404 H   0  0  0  0  0  0
  -20.5687  -26.2315   23.3617 H   0  0  0  0  0  0
  -21.6648  -26.7458   22.1193 H   0  0  0  0  0  0
  -19.6915  -25.6299   21.1255 H   0  0  0  0  0  0
  -19.6691  -27.3195   20.6746 H   0  0  0  0  0  0
  -17.4206  -26.6690   21.4019 H   0  0  0  0  0  0
  -18.0324  -26.0076   22.9015 H   0  0  0  0  0  0
  -19.7938  -30.7280   24.2267 H   0  0  0  0  0  0
  -17.5016  -31.6270   24.5166 H   0  0  0  0  0  0
  -15.5356  -30.2992   23.7658 H   0  0  0  0  0  0
  -15.8674  -28.0830   22.7067 H   0  0  0  0  0  0
  -24.5901  -30.7097   25.7811 H   0  0  0  0  0  0
  -24.8938  -32.2906   26.4924 H   0  0  0  0  0  0
  -25.8055  -30.8902   27.0252 H   0  0  0  0  0  0
  -26.2913  -29.6777   24.1222 H   0  0  0  0  0  0
  -27.3990  -29.7259   25.4741 H   0  0  0  0  0  0
  -27.8806  -30.4285   23.9479 H   0  0  0  0  0  0
  -27.2681  -33.3647   26.2078 H   0  0  0  0  0  0
  -28.3901  -32.6850   25.0380 H   0  0  0  0  0  0
  -28.0692  -31.8465   26.5484 H   0  0  0  0  0  0
  -28.2564  -38.0133   24.7568 H   0  0  0  0  0  0
  -28.1122  -36.2672   24.6197 H   0  0  0  0  0  0
  -27.2320  -37.1330   25.8863 H   0  0  0  0  0  0
  -20.9388  -29.8781   21.6889 H   0  0  0  0  0  0
  -26.0155  -38.2858   24.1473 H   0  0  0  0  0  0
  -31.7635  -20.9494   20.5979 H   0  0  0  0  0  0
  -29.8738  -25.4553   17.6168 H   0  0  0  0  0  0
  -30.3701  -27.1193   18.2262 H   0  0  0  0  0  0
  -32.7110  -26.3365   18.4907 H   0  0  0  0  0  0
  -32.2127  -24.6893   17.8394 H   0  0  0  0  0  0
  -30.4466  -17.5621   22.7369 H   0  0  0  0  0  0
  -28.8600  -18.2439   22.7456 H   0  0  0  0  0  0
  -30.9071  -18.8962   19.0628 H   0  0  0  0  0  0
  -31.8419  -17.9597   20.1841 H   0  0  0  0  0  0
  -28.0956  -16.5565   21.1169 H   0  0  0  0  0  0
  -29.0077  -15.7474   22.3616 H   0  0  0  0  0  0
  -30.7376  -16.4530   18.5877 H   0  0  0  0  0  0
  -29.1772  -17.0961   18.9760 H   0  0  0  0  0  0
  -31.1052  -26.0967   20.4261 H   0  0  0  0  0  0
  -30.9257  -19.3789   21.6777 H   0  0  0  0  0  0
  -33.4458  -22.5466   20.8540 H   0  0  0  0  0  0
  -33.1671  -24.2602   20.6313 H   0  0  0  0  0  0
  -33.3120  -23.1908   19.2240 H   0  0  0  0  0  0
  -25.5010  -21.6431   19.2883 H   0  0  0  0  0  0
  -27.0403  -21.0764   18.6427 H   0  0  0  0  0  0
  -26.6334  -22.7865   18.5792 H   0  0  0  0  0  0
  -26.6617  -22.8081   21.1587 H   0  0  0  0  0  0
  -27.0956  -21.1533   21.1345 H   0  0  0  0  0  0
  -27.1680  -24.7629   20.6124 H   0  0  0  0  0  0
  -27.7115  -24.8390   18.9455 H   0  0  0  0  0  0
  1 25  1  0  0  0
  1 30  2  0  0  0
  1 89  1  0  0  0
  2  3  1  0  0  0
  2 25  1  0  0  0
  2 91  1  0  0  0
  2 92  1  0  0  0
  3  4  1  0  0  0
  3 93  1  0  0  0
  3 94  1  0  0  0
  4  5  1  0  0  0
  4 95  1  0  0  0
  4 96  1  0  0  0
  5  6  1  0  0  0
  5 26  1  0  0  0
  5 97  1  0  0  0
  6 25  1  0  0  0
  6 98  1  0  0  0
  6 99  1  0  0  0
  7  8  2  0  0  0
  7 26  1  0  0  0
  7 29  1  0  0  0
  8  9  1  0  0  0
  8 22  1  0  0  0
  9 10  1  0  0  0
  9 27  2  0  0  0
 10 11  2  0  0  0
 10 15  1  0  0  0
 11 12  1  0  0  0
 11100  1  0  0  0
 12 13  2  0  0  0
 12101  1  0  0  0
 13 14  1  0  0  0
 13 31  1  0  0  0
 14 15  2  0  0  0
 14102  1  0  0  0
 15103  1  0  0  0
 16 17  2  0  0  0
 16 21  1  0  0  0
 16 31  1  0  0  0
 17 18  1  0  0  0
 17104  1  0  0  0
 18 19  2  0  0  0
 18105  1  0  0  0
 19 20  1  0  0  0
 19 24  1  0  0  0
 20 21  2  0  0  0
 20106  1  0  0  0
 21 23  1  0  0  0
 22 28  1  0  0  0
 22 32  2  0  0  0
 26 27  1  0  0  0
 28107  1  0  0  0
 28108  1  0  0  0
 29109  1  0  0  0
 29110  1  0  0  0
 33 34  1  0  0  0
 33 66  1  0  0  0
 33 70  2  0  0  0
 34 36  1  0  0  0
 34 59  1  0  0  0
 34111  1  0  0  0
 35 44  2  0  0  0
 35 45  1  0  0  0
 35 68  1  0  0  0
 36 56  1  0  0  0
 36112  1  0  0  0
 37 39  1  0  0  0
 37 47  1  0  0  0
 37 66  1  0  0  0
 37113  1  0  0  0
 38 43  2  0  0  0
 38 46  1  0  0  0
 38 47  1  0  0  0
 39 64  1  0  0  0
 39 67  2  0  0  0
 40 52  1  0  0  0
 40 53  2  0  0  0
 40 58  1  0  0  0
 41114  1  0  0  0
 41115  1  0  0  0
 41116  1  0  0  0
 41 48  1  0  0  0
 42 43  1  0  0  0
 42 66  1  0  0  0
 42117  1  0  0  0
 42118  1  0  0  0
 43 44  1  0  0  0
 44119  1  0  0  0
 45 46  2  0  0  0
 45120  1  0  0  0
 46121  1  0  0  0
 47122  1  0  0  0
 47123  1  0  0  0
 48 56  1  0  0  0
 48 65  1  0  0  0
 48124  1  0  0  0
 49 50  1  0  0  0
 49 53  1  0  0  0
 49 64  1  0  0  0
 49125  1  0  0  0
 50 51  1  0  0  0
 50126  1  0  0  0
 50127  1  0  0  0
 51 52  1  0  0  0
 51128  1  0  0  0
 51129  1  0  0  0
 52130  1  0  0  0
 52131  1  0  0  0
 53 54  1  0  0  0
 54 55  2  0  0  0
 54132  1  0  0  0
 55 57  1  0  0  0
 55133  1  0  0  0
 56 69  2  0  0  0
 57 58  2  0  0  0
 57134  1  0  0  0
 58135  1  0  0  0
 59 60  1  0  0  0
 59 61  1  0  0  0
 59 62  1  0  0  0
 60136  1  0  0  0
 60137  1  0  0  0
 60138  1  0  0  0
 61139  1  0  0  0
 61140  1  0  0  0
 61141  1  0  0  0
 62142  1  0  0  0
 62143  1  0  0  0
 62144  1  0  0  0
 63 65  1  0  0  0
 63145  1  0  0  0
 63146  1  0  0  0
 63147  1  0  0  0
 64148  1  0  0  0
 65149  1  0  0  0
 68 88  1  0  0  0
 71 73  2  0  0  0
 71 76  1  0  0  0
 71150  1  0  0  0
 72 73  1  0  0  0
 72 74  2  0  0  0
 72 83  1  0  0  0
 73 85  1  0  0  0
 74 75  1  0  0  0
 74 88  1  0  0  0
 75 76  2  0  0  0
 75 87  1  0  0  0
 76 90  1  0  0  0
 77 78  1  0  0  0
 77 83  1  0  0  0
 77151  1  0  0  0
 77152  1  0  0  0
 78 83  1  0  0  0
 78153  1  0  0  0
 78154  1  0  0  0
 79 81  1  0  0  0
 79 84  1  0  0  0
 79155  1  0  0  0
 79156  1  0  0  0
 80 82  1  0  0  0
 80 84  1  0  0  0
 80157  1  0  0  0
 80158  1  0  0  0
 81 89  1  0  0  0
 81159  1  0  0  0
 81160  1  0  0  0
 82 89  1  0  0  0
 82161  1  0  0  0
 82162  1  0  0  0
 83163  1  0  0  0
 84 90  1  0  0  0
 84164  1  0  0  0
 85165  1  0  0  0
 85166  1  0  0  0
 85167  1  0  0  0
 86 87  1  0  0  0
 86168  1  0  0  0
 86169  1  0  0  0
 86170  1  0  0  0
 87171  1  0  0  0
 87172  1  0  0  0
 88173  1  0  0  0
 88174  1  0  0  0
M  ISO  4   1 100  68 101  88 101  89 100
M  END
> <chiral flag>
0

> <version>
0

> <s_m_source_file>
/data/baiqing/PycharmProjects/Reinvent-master-3.2/result/LINK_invent/BTK/process_docking_weight1_custom_sum_contain_oxygen_bond_distance_aromatic_linkinvent_7_9_3/rearranged_h_0171.sdf

> <i_m_source_file_index>
25

> <r_mmod_Potential_Energy-OPLS-2005>
389.902801513672

> <r_mmod_Stretch_Energy-OPLS-2005>
98.725715637207

> <r_mmod_Bend_Energy-OPLS-2005>
173.211120605469

> <r_mmod_Torsional_Energy-OPLS-2005>
364.174102783203

> <r_mmod_Improper_Torsional_Energy-OPLS-2005>
17.0799751281738

> <r_mmod_Van_der_Waal_Energy-OPLS-2005>
158.848052978516

> <r_mmod_Electrostatic_Energy-OPLS-2005>
-288.727691650391

> <r_mmod_Solvation_Energy-OPLS-2005>
-190.707550048828

> <b_mmod_Minimization_Converged-OPLS-2005>
0

> <r_mmod_RMS_Derivative-OPLS-2005>
1.65745329856873

$$$$
25
                    3D
 Structure written by MMmdl.
164173  0  0  1  0            999 V2000
  -30.6241  -14.8217   20.4618 C   0  0  0  0  0  0
  -30.4231  -12.5134   19.4829 C   0  0  0  0  0  0
  -29.5071  -12.5174   18.2401 C   0  0  0  0  0  0
  -28.0356  -12.3345   18.6544 C   0  0  0  0  0  0
  -27.6323  -13.2489   19.8435 C   0  0  2  0  0  0
  -28.6773  -13.2475   20.9810 C   0  0  0  0  0  0
  -25.2470  -13.8235   20.5733 C   0  0  0  0  0  0
  -24.1769  -13.0457   20.9195 C   0  0  0  0  0  0
  -24.6394  -11.6940   20.8733 C   0  0  0  0  0  0
  -23.9073  -10.4299   21.0392 C   0  0  0  0  0  0
  -24.3619   -9.4224   21.9175 C   0  0  0  0  0  0
  -23.6299   -8.2256   22.0759 C   0  0  0  0  0  0
  -22.4286   -8.0273   21.3550 C   0  0  0  0  0  0
  -21.9916   -9.0240   20.4655 C   0  0  0  0  0  0
  -22.7239  -10.2127   20.3053 C   0  0  0  0  0  0
  -21.6856   -6.0722   22.5278 C   0  0  0  0  0  0
  -21.4013   -6.5633   23.8208 C   0  0  0  0  0  0
  -21.3663   -5.6788   24.9172 C   0  0  0  0  0  0
  -21.6048   -4.3045   24.7227 C   0  0  0  0  0  0
  -21.8820   -3.8141   23.4349 C   0  0  0  0  0  0
  -21.9196   -4.6951   22.3401 C   0  0  0  0  0  0
  -22.7795  -13.5230   21.1850 C   0  0  0  0  0  0
  -22.1658   -4.2128   21.0983 F   0  0  0  0  0  0
  -21.5642   -3.4543   25.7744 F   0  0  0  0  0  0
  -29.9656  -13.6074   20.3803 N   0  0  0  0  0  0
  -26.2901  -12.9485   20.3308 N   0  0  0  0  0  0
  -25.9333  -11.6608   20.5768 N   0  0  0  0  0  0
  -22.0451  -12.8207   22.0410 N   0  0  0  0  0  0
  -25.4162  -15.1971   20.4191 N   0  0  0  0  0  0
  -31.8261  -14.8432   20.1688 O   0  0  0  0  0  0
  -21.6662   -6.8861   21.4236 O   0  0  0  0  0  0
  -22.3462  -14.5511   20.6677 O   0  0  0  0  0  0
  -24.6369  -31.8473   23.1914 C   0  0  0  0  0  0
  -25.9161  -32.4719   23.8283 C   0  0  1  0  0  0
  -27.2158  -27.1960   20.1628 C   0  0  0  0  0  0
  -25.5929  -33.8521   24.2195 N   0  0  0  0  0  0
  -23.4379  -30.4654   21.5345 C   0  0  2  0  0  0
  -24.8839  -28.8923   20.1193 C   0  0  0  0  0  0
  -22.7538  -29.4558   22.4887 C   0  0  0  0  0  0
  -18.0310  -28.1391   22.8477 C   0  0  0  0  0  0
  -24.1497  -36.7271   23.2652 C   0  0  0  0  0  0
  -25.9869  -30.7390   21.3806 C   0  0  0  0  0  0
  -26.0571  -29.3532   20.7297 C   0  0  0  0  0  0
  -27.2271  -28.5204   20.7330 C   0  0  0  0  0  0
  -26.0186  -26.8029   19.5359 C   0  0  0  0  0  0
  -24.8713  -27.6239   19.5134 C   0  0  0  0  0  0
  -23.6599  -29.7890   20.1564 C   0  0  0  0  0  0
  -25.4114  -36.3042   24.0322 C   0  0  1  0  0  0
  -20.5914  -28.3689   23.1272 C   0  0  2  0  0  0
  -20.6783  -26.9401   22.5419 C   0  0  0  0  0  0
  -19.5753  -26.6358   21.5236 C   0  0  0  0  0  0
  -18.1928  -26.7927   22.1624 C   0  0  0  0  0  0
  -19.1569  -28.8850   23.2864 C   0  0  0  0  0  0
  -18.9489  -30.1450   23.8888 C   0  0  0  0  0  0
  -17.6489  -30.6582   24.0550 C   0  0  0  0  0  0
  -25.9049  -34.9426   23.5052 C   0  0  0  0  0  0
  -16.5377  -29.9080   23.6335 C   0  0  0  0  0  0
  -16.7298  -28.6493   23.0348 C   0  0  0  0  0  0
  -26.4490  -31.6576   25.0712 C   0  0  0  0  0  0
  -25.3690  -31.3774   26.1425 C   0  0  0  0  0  0
  -27.0350  -30.2986   24.6248 C   0  0  0  0  0  0
  -27.6017  -32.4350   25.7499 C   0  0  0  0  0  0
  -27.5570  -37.1781   24.8455 C   0  0  0  0  0  0
  -21.4229  -29.3035   22.3645 N   0  0  0  0  0  0
  -26.4280  -37.3747   23.9420 N   0  0  0  0  0  0
  -24.7069  -31.0391   22.0908 N   0  0  0  0  0  0
  -23.4218  -28.8113   23.3010 O   0  0  0  0  0  0
  -28.3056  -26.2852   20.1343 O   0  0  0  0  0  0
  -26.5662  -34.8918   22.4651 O   0  0  0  0  0  0
  -23.5492  -32.1352   23.7123 O   0  0  0  0  0  0
  -27.0909  -20.3794   20.9016 C   0  0  0  0  0  0
  -26.4975  -21.4320   21.8223 C   0  0  0  0  0  0
  -27.7476  -22.1435   22.3250 C   0  0  0  0  0  0
  -29.2013  -18.3623   19.4193 C   0  0  0  0  0  0
  -29.2248  -18.2954   21.8322 C   0  0  0  0  0  0
  -30.0847  -17.0306   19.4241 C   0  0  0  0  0  0
  -30.0676  -16.9287   21.7551 C   0  0  0  0  0  0
  -29.3528  -19.3450   20.6431 C   0  0  0  0  0  0
  -28.6792  -22.0686   21.1107 C   0  0  2  0  0  0
  -29.2588  -23.3883   18.9480 C   0  0  0  0  0  0
  -28.2509  -24.9227   20.8198 C   0  0  0  0  0  0
  -28.3220  -23.3966   20.1610 C   0  0  2  0  0  0
  -28.4020  -20.5979   20.6581 N   0  0  0  0  0  0
  -29.9184  -16.0458   20.5489 N   0  0  0  0  0  0
  -26.4347  -19.3891   20.5672 O   0  0  0  0  0  0
  -31.4642  -12.6295   19.1766 H   0  0  0  0  0  0
  -30.3711  -11.5518   19.9968 H   0  0  0  0  0  0
  -29.8018  -11.7257   17.5509 H   0  0  0  0  0  0
  -29.6208  -13.4574   17.6978 H   0  0  0  0  0  0
  -27.9025  -11.2861   18.9247 H   0  0  0  0  0  0
  -27.3756  -12.5117   17.8029 H   0  0  0  0  0  0
  -27.6063  -14.2614   19.4380 H   0  0  0  0  0  0
  -28.7356  -12.2773   21.4757 H   0  0  0  0  0  0
  -28.4030  -13.9724   21.7487 H   0  0  0  0  0  0
  -25.2765   -9.5724   22.4742 H   0  0  0  0  0  0
  -24.0013   -7.4665   22.7492 H   0  0  0  0  0  0
  -21.0843   -8.8737   19.8969 H   0  0  0  0  0  0
  -22.3672  -10.9643   19.6153 H   0  0  0  0  0  0
  -21.1993   -7.6136   23.9699 H   0  0  0  0  0  0
  -21.1488   -6.0524   25.9069 H   0  0  0  0  0  0
  -22.0595   -2.7600   23.2857 H   0  0  0  0  0  0
  -22.4092  -11.9880   22.4797 H   0  0  0  0  0  0
  -21.1065  -13.1213   22.2613 H   0  0  0  0  0  0
  -24.6578  -15.8562   20.5544 H   0  0  0  0  0  0
  -26.2854  -15.6463   20.1591 H   0  0  0  0  0  0
  -26.7220  -32.5332   23.1003 H   0  0  0  0  0  0
  -25.0009  -33.9628   25.0300 H   0  0  0  0  0  0
  -22.7391  -31.2886   21.3728 H   0  0  0  0  0  0
  -23.3769  -35.9600   23.3308 H   0  0  0  0  0  0
  -24.3576  -36.8911   22.2067 H   0  0  0  0  0  0
  -23.7248  -37.6467   23.6688 H   0  0  0  0  0  0
  -26.1297  -31.4888   20.6031 H   0  0  0  0  0  0
  -26.8661  -30.7926   22.0133 H   0  0  0  0  0  0
  -28.1270  -28.8712   21.2174 H   0  0  0  0  0  0
  -25.9676  -25.8278   19.0738 H   0  0  0  0  0  0
  -23.9697  -27.2569   19.0436 H   0  0  0  0  0  0
  -23.7921  -30.5569   19.3933 H   0  0  0  0  0  0
  -22.7782  -29.2235   19.8486 H   0  0  0  0  0  0
  -25.1294  -36.1847   25.0812 H   0  0  0  0  0  0
  -20.9991  -28.3264   24.1399 H   0  0  0  0  0  0
  -20.5669  -26.2309   23.3623 H   0  0  0  0  0  0
  -21.6630  -26.7387   22.1206 H   0  0  0  0  0  0
  -19.6913  -25.6271   21.1250 H   0  0  0  0  0  0
  -19.6694  -27.3169   20.6776 H   0  0  0  0  0  0
  -17.4191  -26.6701   21.4020 H   0  0  0  0  0  0
  -18.0292  -26.0075   22.9021 H   0  0  0  0  0  0
  -19.7979  -30.7248   24.2245 H   0  0  0  0  0  0
  -17.5057  -31.6269   24.5143 H   0  0  0  0  0  0
  -15.5382  -30.2980   23.7673 H   0  0  0  0  0  0
  -15.8695  -28.0803   22.7091 H   0  0  0  0  0  0
  -24.5860  -30.7105   25.7789 H   0  0  0  0  0  0
  -24.8874  -32.2953   26.4811 H   0  0  0  0  0  0
  -25.7991  -30.8994   27.0237 H   0  0  0  0  0  0
  -26.2943  -29.6742   24.1233 H   0  0  0  0  0  0
  -27.3981  -29.7232   25.4782 H   0  0  0  0  0  0
  -27.8846  -30.4270   23.9542 H   0  0  0  0  0  0
  -27.2589  -33.3664   26.2029 H   0  0  0  0  0  0
  -28.3874  -32.6897   25.0371 H   0  0  0  0  0  0
  -28.0642  -31.8500   26.5463 H   0  0  0  0  0  0
  -28.2558  -38.0103   24.7500 H   0  0  0  0  0  0
  -28.1090  -36.2621   24.6273 H   0  0  0  0  0  0
  -27.2277  -37.1414   25.8855 H   0  0  0  0  0  0
  -20.9424  -29.8798   21.6873 H   0  0  0  0  0  0
  -26.0152  -38.2820   24.1438 H   0  0  0  0  0  0
  -25.9187  -20.9986   22.6390 H   0  0  0  0  0  0
  -25.8512  -22.0924   21.2426 H   0  0  0  0  0  0
  -28.1789  -21.5907   23.1616 H   0  0  0  0  0  0
  -27.5429  -23.1448   22.6943 H   0  0  0  0  0  0
  -28.1622  -18.0531   19.3177 H   0  0  0  0  0  0
  -29.4251  -18.9242   18.5111 H   0  0  0  0  0  0
  -29.4844  -18.7972   22.7657 H   0  0  0  0  0  0
  -28.1807  -18.0080   21.9563 H   0  0  0  0  0  0
  -31.1369  -17.3212   19.3865 H   0  0  0  0  0  0
  -29.9046  -16.5005   18.4868 H   0  0  0  0  0  0
  -29.8313  -16.3289   22.6361 H   0  0  0  0  0  0
  -31.1265  -17.1765   21.8534 H   0  0  0  0  0  0
  -30.3737  -19.7289   20.6494 H   0  0  0  0  0  0
  -29.7124  -22.1472   21.4509 H   0  0  0  0  0  0
  -29.1884  -22.4416   18.4109 H   0  0  0  0  0  0
  -30.2970  -23.5269   19.2490 H   0  0  0  0  0  0
  -29.0049  -24.1853   18.2475 H   0  0  0  0  0  0
  -29.1051  -24.9659   21.4961 H   0  0  0  0  0  0
  -27.3854  -24.9540   21.4818 H   0  0  0  0  0  0
  -27.3218  -23.2311   19.7562 H   0  0  0  0  0  0
  1 25  1  0  0  0
  1 30  2  0  0  0
  1 84  1  0  0  0
  2  3  1  0  0  0
  2 25  1  0  0  0
  2 86  1  0  0  0
  2 87  1  0  0  0
  3  4  1  0  0  0
  3 88  1  0  0  0
  3 89  1  0  0  0
  4  5  1  0  0  0
  4 90  1  0  0  0
  4 91  1  0  0  0
  5  6  1  0  0  0
  5 26  1  0  0  0
  5 92  1  0  0  0
  6 25  1  0  0  0
  6 93  1  0  0  0
  6 94  1  0  0  0
  7  8  2  0  0  0
  7 26  1  0  0  0
  7 29  1  0  0  0
  8  9  1  0  0  0
  8 22  1  0  0  0
  9 10  1  0  0  0
  9 27  2  0  0  0
 10 11  2  0  0  0
 10 15  1  0  0  0
 11 12  1  0  0  0
 11 95  1  0  0  0
 12 13  2  0  0  0
 12 96  1  0  0  0
 13 14  1  0  0  0
 13 31  1  0  0  0
 14 15  2  0  0  0
 14 97  1  0  0  0
 15 98  1  0  0  0
 16 17  2  0  0  0
 16 21  1  0  0  0
 16 31  1  0  0  0
 17 18  1  0  0  0
 17 99  1  0  0  0
 18 19  2  0  0  0
 18100  1  0  0  0
 19 20  1  0  0  0
 19 24  1  0  0  0
 20 21  2  0  0  0
 20101  1  0  0  0
 21 23  1  0  0  0
 22 28  1  0  0  0
 22 32  2  0  0  0
 26 27  1  0  0  0
 28102  1  0  0  0
 28103  1  0  0  0
 29104  1  0  0  0
 29105  1  0  0  0
 33 34  1  0  0  0
 33 66  1  0  0  0
 33 70  2  0  0  0
 34 36  1  0  0  0
 34 59  1  0  0  0
 34106  1  0  0  0
 35 44  2  0  0  0
 35 45  1  0  0  0
 35 68  1  0  0  0
 36 56  1  0  0  0
 36107  1  0  0  0
 37 39  1  0  0  0
 37 47  1  0  0  0
 37 66  1  0  0  0
 37108  1  0  0  0
 38 43  2  0  0  0
 38 46  1  0  0  0
 38 47  1  0  0  0
 39 64  1  0  0  0
 39 67  2  0  0  0
 40 52  1  0  0  0
 40 53  2  0  0  0
 40 58  1  0  0  0
 41109  1  0  0  0
 41110  1  0  0  0
 41111  1  0  0  0
 41 48  1  0  0  0
 42 43  1  0  0  0
 42 66  1  0  0  0
 42112  1  0  0  0
 42113  1  0  0  0
 43 44  1  0  0  0
 44114  1  0  0  0
 45 46  2  0  0  0
 45115  1  0  0  0
 46116  1  0  0  0
 47117  1  0  0  0
 47118  1  0  0  0
 48 56  1  0  0  0
 48 65  1  0  0  0
 48119  1  0  0  0
 49 50  1  0  0  0
 49 53  1  0  0  0
 49 64  1  0  0  0
 49120  1  0  0  0
 50 51  1  0  0  0
 50121  1  0  0  0
 50122  1  0  0  0
 51 52  1  0  0  0
 51123  1  0  0  0
 51124  1  0  0  0
 52125  1  0  0  0
 52126  1  0  0  0
 53 54  1  0  0  0
 54 55  2  0  0  0
 54127  1  0  0  0
 55 57  1  0  0  0
 55128  1  0  0  0
 56 69  2  0  0  0
 57 58  2  0  0  0
 57129  1  0  0  0
 58130  1  0  0  0
 59 60  1  0  0  0
 59 61  1  0  0  0
 59 62  1  0  0  0
 60131  1  0  0  0
 60132  1  0  0  0
 60133  1  0  0  0
 61134  1  0  0  0
 61135  1  0  0  0
 61136  1  0  0  0
 62137  1  0  0  0
 62138  1  0  0  0
 62139  1  0  0  0
 63 65  1  0  0  0
 63140  1  0  0  0
 63141  1  0  0  0
 63142  1  0  0  0
 64143  1  0  0  0
 65144  1  0  0  0
 68 81  1  0  0  0
 71 72  1  0  0  0
 71 83  1  0  0  0
 71 85  2  0  0  0
 72 73  1  0  0  0
 72145  1  0  0  0
 72146  1  0  0  0
 73147  1  0  0  0
 73148  1  0  0  0
 73 79  1  0  0  0
 74 76  1  0  0  0
 74 78  1  0  0  0
 74149  1  0  0  0
 74150  1  0  0  0
 75 77  1  0  0  0
 75 78  1  0  0  0
 75151  1  0  0  0
 75152  1  0  0  0
 76 84  1  0  0  0
 76153  1  0  0  0
 76154  1  0  0  0
 77 84  1  0  0  0
 77155  1  0  0  0
 77156  1  0  0  0
 78 83  1  0  0  0
 78157  1  0  0  0
 79 82  1  0  0  0
 79 83  1  0  0  0
 79158  1  0  0  0
 80159  1  0  0  0
 80160  1  0  0  0
 80161  1  0  0  0
 80 82  1  0  0  0
 81 82  1  0  0  0
 81162  1  0  0  0
 81163  1  0  0  0
 82164  1  0  0  0
M  ISO  4   1 100  68 101  81 101  84 100
M  END
> <chiral flag>
0

> <version>
0

> <s_m_source_file>
/data/baiqing/PycharmProjects/Reinvent-master-3.2/result/LINK_invent/BTK/process_docking_weight1_custom_sum_contain_oxygen_bond_distance_aromatic_linkinvent_7_9_3/rearranged_h_0171.sdf

> <i_m_source_file_index>
26

> <r_mmod_Potential_Energy-OPLS-2005>
674.587158203125

> <r_mmod_Stretch_Energy-OPLS-2005>
190.581832885742

> <r_mmod_Bend_Energy-OPLS-2005>
294.485717773438

> <r_mmod_Torsional_Energy-OPLS-2005>
405.276153564453

> <r_mmod_Improper_Torsional_Energy-OPLS-2005>
16.2933788299561

> <r_mmod_Van_der_Waal_Energy-OPLS-2005>
112.714179992676

> <r_mmod_Electrostatic_Energy-OPLS-2005>
-271.153137207031

> <r_mmod_Solvation_Energy-OPLS-2005>
-197.091766357422

> <b_mmod_Minimization_Converged-OPLS-2005>
0

> <r_mmod_RMS_Derivative-OPLS-2005>
3.55437231063843

$$$$
26
                    3D
 Structure written by MMmdl.
155164  0  0  1  0            999 V2000
  -30.5297  -15.1277   20.3937 C   0  0  0  0  0  0
  -30.4292  -12.7226   19.5106 C   0  0  0  0  0  0
  -29.5194  -12.5263   18.2771 C   0  0  0  0  0  0
  -28.0710  -12.2684   18.7230 C   0  0  0  0  0  0
  -27.6113  -13.2618   19.8189 C   0  0  2  0  0  0
  -28.6486  -13.4212   20.9488 C   0  0  0  0  0  0
  -25.2405  -13.8234   20.5751 C   0  0  0  0  0  0
  -24.1732  -13.0445   20.9271 C   0  0  0  0  0  0
  -24.6381  -11.6937   20.8807 C   0  0  0  0  0  0
  -23.9067  -10.4302   21.0437 C   0  0  0  0  0  0
  -24.3620   -9.4213   21.9208 C   0  0  0  0  0  0
  -23.6287   -8.2252   22.0771 C   0  0  0  0  0  0
  -22.4262   -8.0301   21.3560 C   0  0  0  0  0  0
  -21.9913   -9.0278   20.4661 C   0  0  0  0  0  0
  -22.7249  -10.2151   20.3072 C   0  0  0  0  0  0
  -21.6849   -6.0746   22.5283 C   0  0  0  0  0  0
  -21.4017   -6.5644   23.8209 C   0  0  0  0  0  0
  -21.3658   -5.6801   24.9171 C   0  0  0  0  0  0
  -21.6031   -4.3065   24.7233 C   0  0  0  0  0  0
  -21.8811   -3.8151   23.4352 C   0  0  0  0  0  0
  -21.9199   -4.6968   22.3407 C   0  0  0  0  0  0
  -22.7759  -13.5236   21.1899 C   0  0  0  0  0  0
  -22.1665   -4.2143   21.0991 F   0  0  0  0  0  0
  -21.5608   -3.4552   25.7750 F   0  0  0  0  0  0
  -29.8943  -13.8721   20.3141 N   0  0  0  0  0  0
  -26.2810  -12.9483   20.3227 N   0  0  0  0  0  0
  -25.9320  -11.6599   20.5784 N   0  0  0  0  0  0
  -22.0409  -12.8213   22.0458 N   0  0  0  0  0  0
  -25.4090  -15.1961   20.4194 N   0  0  0  0  0  0
  -31.7590  -15.0693   20.2401 O   0  0  0  0  0  0
  -21.6641   -6.8893   21.4246 O   0  0  0  0  0  0
  -22.3485  -14.5564   20.6769 O   0  0  0  0  0  0
  -24.6530  -31.8326   23.1746 C   0  0  0  0  0  0
  -25.9262  -32.4622   23.8167 C   0  0  1  0  0  0
  -27.2007  -27.0096   20.1767 C   0  0  0  0  0  0
  -25.5968  -33.8420   24.2081 N   0  0  0  0  0  0
  -23.4599  -30.4475   21.5240 C   0  0  2  0  0  0
  -24.9027  -28.8415   20.1136 C   0  0  0  0  0  0
  -22.7604  -29.4503   22.4805 C   0  0  0  0  0  0
  -18.0322  -28.1412   22.8466 C   0  0  0  0  0  0
  -24.1503  -36.7226   23.2638 C   0  0  0  0  0  0
  -26.0207  -30.6624   21.3915 C   0  0  0  0  0  0
  -26.0823  -29.2584   20.7433 C   0  0  0  0  0  0
  -27.2249  -28.3592   20.7541 C   0  0  0  0  0  0
  -25.9985  -26.7212   19.4967 C   0  0  0  0  0  0
  -24.8801  -27.5921   19.4749 C   0  0  0  0  0  0
  -23.6888  -29.7647   20.1476 C   0  0  0  0  0  0
  -25.4135  -36.2978   24.0293 C   0  0  1  0  0  0
  -20.5930  -28.3760   23.1227 C   0  0  2  0  0  0
  -20.6815  -26.9437   22.5501 C   0  0  0  0  0  0
  -19.5807  -26.6307   21.5315 C   0  0  0  0  0  0
  -18.1975  -26.7920   22.1695 C   0  0  0  0  0  0
  -19.1566  -28.8903   23.2823 C   0  0  0  0  0  0
  -18.9470  -30.1512   23.8819 C   0  0  0  0  0  0
  -17.6467  -30.6617   24.0514 C   0  0  0  0  0  0
  -25.9112  -34.9366   23.5020 C   0  0  0  0  0  0
  -16.5360  -29.9075   23.6328 C   0  0  0  0  0  0
  -16.7308  -28.6503   23.0358 C   0  0  0  0  0  0
  -26.4538  -31.6542   25.0668 C   0  0  0  0  0  0
  -25.3669  -31.3794   26.1334 C   0  0  0  0  0  0
  -27.0409  -30.2920   24.6336 C   0  0  0  0  0  0
  -27.6055  -32.4314   25.7452 C   0  0  0  0  0  0
  -27.5573  -37.1763   24.8459 C   0  0  0  0  0  0
  -21.4276  -29.3042   22.3537 N   0  0  0  0  0  0
  -26.4292  -37.3706   23.9405 N   0  0  0  0  0  0
  -24.7318  -31.0050   22.0851 N   0  0  0  0  0  0
  -23.4193  -28.8082   23.3024 O   0  0  0  0  0  0
  -28.2933  -26.0327   20.1940 O   0  0  0  0  0  0
  -26.5695  -34.8912   22.4607 O   0  0  0  0  0  0
  -23.5631  -32.1263   23.6915 O   0  0  0  0  0  0
  -29.7032  -22.5560   20.4536 C   0  0  0  0  0  0
  -28.6899  -21.5391   20.3381 C   0  0  0  0  0  0
  -27.4534  -22.2864   20.1286 C   0  0  0  0  0  0
  -28.3273  -24.5556   20.2408 C   0  0  0  0  0  0
  -28.7175  -18.7414   19.3994 C   0  0  0  0  0  0
  -30.2480  -19.2052   21.1096 C   0  0  0  0  0  0
  -28.8144  -17.1069   19.6843 C   0  0  0  0  0  0
  -30.4593  -17.5869   21.3915 C   0  0  0  0  0  0
  -28.8906  -19.8427   20.5542 C   0  0  0  0  0  0
  -26.1625  -21.5184   19.9054 C   0  0  0  0  0  0
  -29.5316  -23.9470   20.4000 N   0  0  0  0  0  0
  -27.2883  -23.6916   20.0911 N   0  0  0  0  0  0
  -29.8898  -16.4428   20.5449 N   0  0  0  0  0  0
  -31.4521  -12.8956   19.1751 H   0  0  0  0  0  0
  -30.4801  -11.8184   20.1167 H   0  0  0  0  0  0
  -29.8806  -11.6907   17.6745 H   0  0  0  0  0  0
  -29.5550  -13.4102   17.6389 H   0  0  0  0  0  0
  -28.0315  -11.2504   19.1177 H   0  0  0  0  0  0
  -27.3935  -12.2888   17.8697 H   0  0  0  0  0  0
  -27.5367  -14.2257   19.3142 H   0  0  0  0  0  0
  -28.7879  -12.4874   21.4930 H   0  0  0  0  0  0
  -28.3137  -14.1619   21.6764 H   0  0  0  0  0  0
  -25.2751   -9.5673   22.4807 H   0  0  0  0  0  0
  -23.9983   -7.4633   22.7490 H   0  0  0  0  0  0
  -21.0831   -8.8800   19.8975 H   0  0  0  0  0  0
  -22.3700  -10.9696   19.6185 H   0  0  0  0  0  0
  -21.2029   -7.6151   23.9709 H   0  0  0  0  0  0
  -21.1463   -6.0534   25.9060 H   0  0  0  0  0  0
  -22.0593   -2.7616   23.2854 H   0  0  0  0  0  0
  -22.4032  -11.9857   22.4807 H   0  0  0  0  0  0
  -21.1027  -13.1230   22.2680 H   0  0  0  0  0  0
  -24.6531  -15.8586   20.5550 H   0  0  0  0  0  0
  -26.2703  -15.6312   20.1165 H   0  0  0  0  0  0
  -26.7313  -32.5183   23.0866 H   0  0  0  0  0  0
  -25.0057  -33.9523   25.0185 H   0  0  0  0  0  0
  -22.7732  -31.2794   21.3611 H   0  0  0  0  0  0
  -23.3778  -35.9551   23.3277 H   0  0  0  0  0  0
  -24.3588  -36.8883   22.2060 H   0  0  0  0  0  0
  -23.7263  -37.6410   23.6710 H   0  0  0  0  0  0
  -26.1886  -31.4058   20.6112 H   0  0  0  0  0  0
  -26.8872  -30.7160   22.0372 H   0  0  0  0  0  0
  -28.1279  -28.6801   21.2529 H   0  0  0  0  0  0
  -25.9000  -25.7699   18.9928 H   0  0  0  0  0  0
  -23.9806  -27.2727   18.9672 H   0  0  0  0  0  0
  -23.8363  -30.5337   19.3890 H   0  0  0  0  0  0
  -22.7992  -29.2156   19.8370 H   0  0  0  0  0  0
  -25.1337  -36.1766   25.0780 H   0  0  0  0  0  0
  -21.0041  -28.3433   24.1355 H   0  0  0  0  0  0
  -20.5727  -26.2402   23.3767 H   0  0  0  0  0  0
  -21.6693  -26.7433   22.1319 H   0  0  0  0  0  0
  -19.7006  -25.6178   21.1482 H   0  0  0  0  0  0
  -19.6795  -27.3038   20.6776 H   0  0  0  0  0  0
  -17.4275  -26.6602   21.4085 H   0  0  0  0  0  0
  -18.0367  -26.0138   22.9164 H   0  0  0  0  0  0
  -19.7946  -30.7348   24.2138 H   0  0  0  0  0  0
  -17.5020  -31.6329   24.5040 H   0  0  0  0  0  0
  -15.5359  -30.2961   23.7668 H   0  0  0  0  0  0
  -15.8714  -28.0808   22.7111 H   0  0  0  0  0  0
  -24.5862  -30.7137   25.7643 H   0  0  0  0  0  0
  -24.8857  -32.3015   26.4616 H   0  0  0  0  0  0
  -25.7908  -30.9043   27.0191 H   0  0  0  0  0  0
  -26.3052  -29.6615   24.1341 H   0  0  0  0  0  0
  -27.3983  -29.7255   25.4942 H   0  0  0  0  0  0
  -27.8974  -30.4131   23.9699 H   0  0  0  0  0  0
  -27.2645  -33.3635   26.1967 H   0  0  0  0  0  0
  -28.3901  -32.6822   25.0302 H   0  0  0  0  0  0
  -28.0692  -31.8467   26.5410 H   0  0  0  0  0  0
  -28.2567  -38.0075   24.7514 H   0  0  0  0  0  0
  -28.1090  -36.2608   24.6278 H   0  0  0  0  0  0
  -27.2304  -37.1393   25.8864 H   0  0  0  0  0  0
  -20.9505  -29.8665   21.6627 H   0  0  0  0  0  0
  -26.0135  -38.2766   24.1420 H   0  0  0  0  0  0
  -30.7226  -22.2376   20.6159 H   0  0  0  0  0  0
  -27.7629  -18.9230   18.9048 H   0  0  0  0  0  0
  -29.4661  -18.9728   18.6407 H   0  0  0  0  0  0
  -31.0381  -19.5092   20.4203 H   0  0  0  0  0  0
  -30.5051  -19.7225   22.0357 H   0  0  0  0  0  0
  -28.8662  -16.6203   18.7067 H   0  0  0  0  0  0
  -27.8618  -16.7799   20.1003 H   0  0  0  0  0  0
  -30.1098  -17.3855   22.4055 H   0  0  0  0  0  0
  -31.5378  -17.4364   21.4593 H   0  0  0  0  0  0
  -28.1236  -19.6046   21.2944 H   0  0  0  0  0  0
  -26.2407  -20.8949   19.0126 H   0  0  0  0  0  0
  -25.3125  -22.1883   19.7672 H   0  0  0  0  0  0
  -25.9427  -20.8778   20.7589 H   0  0  0  0  0  0
  1 25  1  0  0  0
  1 30  2  0  0  0
  1 83  1  0  0  0
  2  3  1  0  0  0
  2 25  1  0  0  0
  2 84  1  0  0  0
  2 85  1  0  0  0
  3  4  1  0  0  0
  3 86  1  0  0  0
  3 87  1  0  0  0
  4  5  1  0  0  0
  4 88  1  0  0  0
  4 89  1  0  0  0
  5  6  1  0  0  0
  5 26  1  0  0  0
  5 90  1  0  0  0
  6 25  1  0  0  0
  6 91  1  0  0  0
  6 92  1  0  0  0
  7  8  2  0  0  0
  7 26  1  0  0  0
  7 29  1  0  0  0
  8  9  1  0  0  0
  8 22  1  0  0  0
  9 10  1  0  0  0
  9 27  2  0  0  0
 10 11  2  0  0  0
 10 15  1  0  0  0
 11 12  1  0  0  0
 11 93  1  0  0  0
 12 13  2  0  0  0
 12 94  1  0  0  0
 13 14  1  0  0  0
 13 31  1  0  0  0
 14 15  2  0  0  0
 14 95  1  0  0  0
 15 96  1  0  0  0
 16 17  2  0  0  0
 16 21  1  0  0  0
 16 31  1  0  0  0
 17 18  1  0  0  0
 17 97  1  0  0  0
 18 19  2  0  0  0
 18 98  1  0  0  0
 19 20  1  0  0  0
 19 24  1  0  0  0
 20 21  2  0  0  0
 20 99  1  0  0  0
 21 23  1  0  0  0
 22 28  1  0  0  0
 22 32  2  0  0  0
 26 27  1  0  0  0
 28100  1  0  0  0
 28101  1  0  0  0
 29102  1  0  0  0
 29103  1  0  0  0
 33 34  1  0  0  0
 33 66  1  0  0  0
 33 70  2  0  0  0
 34 36  1  0  0  0
 34 59  1  0  0  0
 34104  1  0  0  0
 35 44  2  0  0  0
 35 45  1  0  0  0
 35 68  1  0  0  0
 36 56  1  0  0  0
 36105  1  0  0  0
 37 39  1  0  0  0
 37 47  1  0  0  0
 37 66  1  0  0  0
 37106  1  0  0  0
 38 43  2  0  0  0
 38 46  1  0  0  0
 38 47  1  0  0  0
 39 64  1  0  0  0
 39 67  2  0  0  0
 40 52  1  0  0  0
 40 53  2  0  0  0
 40 58  1  0  0  0
 41107  1  0  0  0
 41108  1  0  0  0
 41109  1  0  0  0
 41 48  1  0  0  0
 42 43  1  0  0  0
 42 66  1  0  0  0
 42110  1  0  0  0
 42111  1  0  0  0
 43 44  1  0  0  0
 44112  1  0  0  0
 45 46  2  0  0  0
 45113  1  0  0  0
 46114  1  0  0  0
 47115  1  0  0  0
 47116  1  0  0  0
 48 56  1  0  0  0
 48 65  1  0  0  0
 48117  1  0  0  0
 49 50  1  0  0  0
 49 53  1  0  0  0
 49 64  1  0  0  0
 49118  1  0  0  0
 50 51  1  0  0  0
 50119  1  0  0  0
 50120  1  0  0  0
 51 52  1  0  0  0
 51121  1  0  0  0
 51122  1  0  0  0
 52123  1  0  0  0
 52124  1  0  0  0
 53 54  1  0  0  0
 54 55  2  0  0  0
 54125  1  0  0  0
 55 57  1  0  0  0
 55126  1  0  0  0
 56 69  2  0  0  0
 57 58  2  0  0  0
 57127  1  0  0  0
 58128  1  0  0  0
 59 60  1  0  0  0
 59 61  1  0  0  0
 59 62  1  0  0  0
 60129  1  0  0  0
 60130  1  0  0  0
 60131  1  0  0  0
 61132  1  0  0  0
 61133  1  0  0  0
 61134  1  0  0  0
 62135  1  0  0  0
 62136  1  0  0  0
 62137  1  0  0  0
 63 65  1  0  0  0
 63138  1  0  0  0
 63139  1  0  0  0
 63140  1  0  0  0
 64141  1  0  0  0
 65142  1  0  0  0
 68 74  1  0  0  0
 71 72  2  0  0  0
 71 81  1  0  0  0
 71143  1  0  0  0
 72 73  1  0  0  0
 72 79  1  0  0  0
 73 80  1  0  0  0
 73 82  2  0  0  0
 74 81  2  0  0  0
 74 82  1  0  0  0
 75 77  1  0  0  0
 75 79  1  0  0  0
 75144  1  0  0  0
 75145  1  0  0  0
 76 78  1  0  0  0
 76 79  1  0  0  0
 76146  1  0  0  0
 76147  1  0  0  0
 77 83  1  0  0  0
 77148  1  0  0  0
 77149  1  0  0  0
 78 83  1  0  0  0
 78150  1  0  0  0
 78151  1  0  0  0
 79152  1  0  0  0
 80153  1  0  0  0
 80154  1  0  0  0
 80155  1  0  0  0
M  ISO  4   1 100  68 101  74 101  83 100
M  END
> <chiral flag>
0

> <version>
0

> <s_m_source_file>
/data/baiqing/PycharmProjects/Reinvent-master-3.2/result/LINK_invent/BTK/process_docking_weight1_custom_sum_contain_oxygen_bond_distance_aromatic_linkinvent_7_9_3/rearranged_h_0171.sdf

> <i_m_source_file_index>
27

> <r_mmod_Potential_Energy-OPLS-2005>
656.786560058594

> <r_mmod_Stretch_Energy-OPLS-2005>
323.011840820312

> <r_mmod_Bend_Energy-OPLS-2005>
408.263916015625

> <r_mmod_Torsional_Energy-OPLS-2005>
324.933013916016

> <r_mmod_Improper_Torsional_Energy-OPLS-2005>
3.18403172492981

> <r_mmod_Van_der_Waal_Energy-OPLS-2005>
130.081817626953

> <r_mmod_Electrostatic_Energy-OPLS-2005>
-634.483337402344

> <r_mmod_Solvation_Energy-OPLS-2005>
-219.665023803711

> <b_mmod_Minimization_Converged-OPLS-2005>
0

> <r_mmod_RMS_Derivative-OPLS-2005>
3.8869264125824

$$$$
27
                    3D
 Structure written by MMmdl.
180190  0  0  1  0            999 V2000
  -30.7740  -14.3568   20.6928 C   0  0  0  0  0  0
  -30.4210  -12.2902   19.3932 C   0  0  0  0  0  0
  -29.4847  -12.5266   18.1938 C   0  0  0  0  0  0
  -28.0107  -12.3786   18.6133 C   0  0  0  0  0  0
  -27.6692  -13.2023   19.8817 C   0  0  2  0  0  0
  -28.7062  -12.9424   20.9962 C   0  0  0  0  0  0
  -25.2627  -13.8147   20.5700 C   0  0  0  0  0  0
  -24.1869  -13.0434   20.9226 C   0  0  0  0  0  0
  -24.6413  -11.6906   20.8764 C   0  0  0  0  0  0
  -23.9069  -10.4293   21.0425 C   0  0  0  0  0  0
  -24.3617   -9.4208   21.9198 C   0  0  0  0  0  0
  -23.6293   -8.2241   22.0759 C   0  0  0  0  0  0
  -22.4275   -8.0285   21.3547 C   0  0  0  0  0  0
  -21.9917   -9.0259   20.4650 C   0  0  0  0  0  0
  -22.7247  -10.2141   20.3067 C   0  0  0  0  0  0
  -21.6851   -6.0739   22.5280 C   0  0  0  0  0  0
  -21.4007   -6.5638   23.8214 C   0  0  0  0  0  0
  -21.3660   -5.6793   24.9178 C   0  0  0  0  0  0
  -21.6046   -4.3057   24.7228 C   0  0  0  0  0  0
  -21.8818   -3.8151   23.4349 C   0  0  0  0  0  0
  -21.9190   -4.6967   22.3406 C   0  0  0  0  0  0
  -22.7896  -13.5257   21.1851 C   0  0  0  0  0  0
  -22.1660   -4.2154   21.0985 F   0  0  0  0  0  0
  -21.5634   -3.4544   25.7738 F   0  0  0  0  0  0
  -30.0533  -13.2293   20.4628 N   0  0  0  0  0  0
  -26.3067  -12.9316   20.3396 N   0  0  0  0  0  0
  -25.9334  -11.6484   20.5777 N   0  0  0  0  0  0
  -22.0493  -12.8251   22.0380 N   0  0  0  0  0  0
  -25.4335  -15.1840   20.3966 N   0  0  0  0  0  0
  -31.7882  -14.6604   20.0581 O   0  0  0  0  0  0
  -21.6637   -6.8888   21.4243 O   0  0  0  0  0  0
  -22.3634  -14.5571   20.6691 O   0  0  0  0  0  0
  -24.6111  -31.8678   23.2128 C   0  0  0  0  0  0
  -25.9033  -32.4801   23.8404 C   0  0  1  0  0  0
  -27.2507  -27.4740   20.1029 C   0  0  0  0  0  0
  -25.5916  -33.8591   24.2352 N   0  0  0  0  0  0
  -23.4011  -30.4893   21.5480 C   0  0  2  0  0  0
  -24.8536  -28.9565   20.1204 C   0  0  0  0  0  0
  -22.7429  -29.4632   22.4991 C   0  0  0  0  0  0
  -18.0285  -28.1381   22.8477 C   0  0  0  0  0  0
  -24.1489  -36.7307   23.2649 C   0  0  0  0  0  0
  -25.9221  -30.8486   21.3584 C   0  0  0  0  0  0
  -26.0054  -29.4785   20.7233 C   0  0  0  0  0  0
  -27.2066  -28.7396   20.7247 C   0  0  0  0  0  0
  -26.0896  -26.9564   19.4972 C   0  0  0  0  0  0
  -24.8867  -27.6897   19.5094 C   0  0  0  0  0  0
  -23.6124  -29.8184   20.1630 C   0  0  0  0  0  0
  -25.4096  -36.3079   24.0366 C   0  0  1  0  0  0
  -20.5872  -28.3641   23.1349 C   0  0  2  0  0  0
  -20.6761  -26.9384   22.5427 C   0  0  0  0  0  0
  -19.5732  -26.6379   21.5221 C   0  0  0  0  0  0
  -18.1916  -26.7926   22.1633 C   0  0  0  0  0  0
  -19.1533  -28.8836   23.2895 C   0  0  0  0  0  0
  -18.9457  -30.1444   23.8906 C   0  0  0  0  0  0
  -17.6454  -30.6578   24.0563 C   0  0  0  0  0  0
  -25.9027  -34.9452   23.5145 C   0  0  0  0  0  0
  -16.5345  -29.9083   23.6324 C   0  0  0  0  0  0
  -16.7275  -28.6516   23.0318 C   0  0  0  0  0  0
  -26.4488  -31.6549   25.0692 C   0  0  0  0  0  0
  -25.3775  -31.3644   26.1450 C   0  0  0  0  0  0
  -27.0280  -30.3003   24.5958 C   0  0  0  0  0  0
  -27.6048  -32.4267   25.7475 C   0  0  0  0  0  0
  -27.5573  -37.1802   24.8472 C   0  0  0  0  0  0
  -21.4155  -29.3012   22.3770 N   0  0  0  0  0  0
  -26.4274  -37.3758   23.9430 N   0  0  0  0  0  0
  -24.6623  -31.0824   22.0999 N   0  0  0  0  0  0
  -23.4233  -28.8153   23.2989 O   0  0  0  0  0  0
  -28.4179  -26.7605   20.0087 O   0  0  0  0  0  0
  -26.5552  -34.8898   22.4676 O   0  0  0  0  0  0
  -23.5321  -32.1399   23.7557 O   0  0  0  0  0  0
  -27.6520  -24.2193   22.0222 C   0  0  0  0  0  0
  -28.7750  -24.7835   21.3600 C   0  0  0  0  0  0
  -27.4952  -22.8065   22.0061 C   0  0  0  0  0  0
  -29.6908  -23.9002   20.7410 C   0  0  0  0  0  0
  -28.4832  -22.0161   21.3703 C   0  0  0  0  0  0
  -28.5452  -19.8103   22.4735 C   0  0  0  0  0  0
  -28.8059  -20.0006   20.0031 C   0  0  0  0  0  0
  -26.7700  -18.5058   20.2342 C   0  0  0  0  0  0
  -28.8416  -17.6948   21.0618 C   0  0  1  0  0  0
  -28.0714  -18.3452   22.2268 C   0  0  2  0  0  0
  -28.2839  -18.5418   19.9014 C   0  0  2  0  0  0
  -26.5908  -25.0974   22.6890 C   0  0  0  0  0  0
  -26.2367  -22.1770   22.6025 C   0  0  0  0  0  0
  -30.8990  -24.3880   19.9598 C   0  0  0  0  0  0
  -28.5918  -17.9429   18.5179 C   0  0  0  0  0  0
  -28.9772  -26.2955   21.2314 C   0  0  0  0  0  0
  -30.3825  -17.5745   21.1969 C   0  0  0  0  0  0
  -30.8517  -16.4186   22.1083 C   0  0  0  0  0  0
  -29.5520  -22.5619   20.7680 N   0  0  0  0  0  0
  -28.3713  -20.6186   21.2619 N   0  0  0  0  0  0
  -30.3155  -15.1232   21.6897 N   0  0  0  0  0  0
  -26.6868  -18.3456   21.7062 N   0  3  0  0  0  0
  -31.4626  -12.3979   19.0837 H   0  0  0  0  0  0
  -30.3279  -11.2652   19.7554 H   0  0  0  0  0  0
  -29.7164  -11.8233   17.3927 H   0  0  0  0  0  0
  -29.6530  -13.5242   17.7847 H   0  0  0  0  0  0
  -27.8237  -11.3201   18.8000 H   0  0  0  0  0  0
  -27.3544  -12.6632   17.7907 H   0  0  0  0  0  0
  -27.7292  -14.2570   19.6119 H   0  0  0  0  0  0
  -28.6639  -11.8995   21.3147 H   0  0  0  0  0  0
  -28.4484  -13.5202   21.8842 H   0  0  0  0  0  0
  -25.2766   -9.5676   22.4774 H   0  0  0  0  0  0
  -24.0001   -7.4631   22.7482 H   0  0  0  0  0  0
  -21.0852   -8.8790   19.8953 H   0  0  0  0  0  0
  -22.3724  -10.9683   19.6172 H   0  0  0  0  0  0
  -21.1989   -7.6144   23.9719 H   0  0  0  0  0  0
  -21.1488   -6.0524   25.9080 H   0  0  0  0  0  0
  -22.0596   -2.7612   23.2850 H   0  0  0  0  0  0
  -22.4070  -11.9893   22.4750 H   0  0  0  0  0  0
  -21.1111  -13.1305   22.2560 H   0  0  0  0  0  0
  -24.5639  -15.6889   20.2584 H   0  0  0  0  0  0
  -26.1309  -15.4355   19.7075 H   0  0  0  0  0  0
  -26.7125  -32.5571   23.1207 H   0  0  0  0  0  0
  -25.0127  -33.9726   25.0541 H   0  0  0  0  0  0
  -22.6872  -31.3028   21.4046 H   0  0  0  0  0  0
  -23.3718  -35.9673   23.3286 H   0  0  0  0  0  0
  -24.3636  -36.8914   22.2070 H   0  0  0  0  0  0
  -23.7259  -37.6530   23.6646 H   0  0  0  0  0  0
  -26.0123  -31.6081   20.5801 H   0  0  0  0  0  0
  -26.8220  -30.9210   21.9588 H   0  0  0  0  0  0
  -28.1003  -29.1465   21.1769 H   0  0  0  0  0  0
  -26.1208  -25.9854   19.0223 H   0  0  0  0  0  0
  -24.0038  -27.2786   19.0397 H   0  0  0  0  0  0
  -23.7227  -30.5882   19.3982 H   0  0  0  0  0  0
  -22.7391  -29.2331   19.8683 H   0  0  0  0  0  0
  -25.1253  -36.1948   25.0861 H   0  0  0  0  0  0
  -20.9950  -28.3171   24.1469 H   0  0  0  0  0  0
  -20.5656  -26.2239   23.3600 H   0  0  0  0  0  0
  -21.6636  -26.7426   22.1206 H   0  0  0  0  0  0
  -19.6886  -25.6293   21.1247 H   0  0  0  0  0  0
  -19.6678  -27.3195   20.6753 H   0  0  0  0  0  0
  -17.4180  -26.6695   21.4028 H   0  0  0  0  0  0
  -18.0282  -26.0077   22.9037 H   0  0  0  0  0  0
  -19.7931  -30.7252   24.2280 H   0  0  0  0  0  0
  -17.5011  -31.6256   24.5147 H   0  0  0  0  0  0
  -15.5351  -30.2967   23.7642 H   0  0  0  0  0  0
  -15.8685  -28.0849   22.6989 H   0  0  0  0  0  0
  -24.5975  -30.6938   25.7822 H   0  0  0  0  0  0
  -24.8935  -32.2792   26.4879 H   0  0  0  0  0  0
  -25.8159  -30.8859   27.0217 H   0  0  0  0  0  0
  -26.2761  -29.6793   24.1064 H   0  0  0  0  0  0
  -27.4158  -29.7179   25.4329 H   0  0  0  0  0  0
  -27.8554  -30.4341   23.8983 H   0  0  0  0  0  0
  -27.2641  -33.3568   26.2049 H   0  0  0  0  0  0
  -28.3886  -32.6836   25.0331 H   0  0  0  0  0  0
  -28.0680  -31.8387   26.5412 H   0  0  0  0  0  0
  -28.2551  -38.0123   24.7498 H   0  0  0  0  0  0
  -28.1085  -36.2643   24.6284 H   0  0  0  0  0  0
  -27.2310  -37.1452   25.8879 H   0  0  0  0  0  0
  -20.9317  -29.8762   21.7019 H   0  0  0  0  0  0
  -26.0152  -38.2838   24.1407 H   0  0  0  0  0  0
  -29.5894  -19.8400   22.7829 H   0  0  0  0  0  0
  -27.9857  -20.2481   23.2999 H   0  0  0  0  0  0
  -28.4302  -20.5900   19.1639 H   0  0  0  0  0  0
  -29.8948  -20.0262   19.9356 H   0  0  0  0  0  0
  -26.2736  -17.6644   19.7537 H   0  0  0  0  0  0
  -26.2495  -19.4070   19.9068 H   0  0  0  0  0  0
  -28.4526  -16.6848   20.9227 H   0  0  0  0  0  0
  -28.1470  -17.7594   23.1436 H   0  0  0  0  0  0
  -26.9783  -26.0348   23.0770 H   0  0  0  0  0  0
  -26.1391  -24.6052   23.5491 H   0  0  0  0  0  0
  -25.7951  -25.3300   21.9799 H   0  0  0  0  0  0
  -25.3516  -22.7605   22.3482 H   0  0  0  0  0  0
  -26.3120  -22.1297   23.6890 H   0  0  0  0  0  0
  -26.0466  -21.1750   22.2241 H   0  0  0  0  0  0
  -30.6469  -25.2316   19.3179 H   0  0  0  0  0  0
  -31.2986  -23.6049   19.3150 H   0  0  0  0  0  0
  -31.6896  -24.6959   20.6438 H   0  0  0  0  0  0
  -28.0789  -18.4912   17.7273 H   0  0  0  0  0  0
  -28.2775  -16.9008   18.4532 H   0  0  0  0  0  0
  -29.6578  -17.9777   18.2932 H   0  0  0  0  0  0
  -30.0440  -26.5196   21.2209 H   0  0  0  0  0  0
  -28.6139  -26.8446   22.0983 H   0  0  0  0  0  0
  -30.8223  -18.5078   21.5483 H   0  0  0  0  0  0
  -30.8169  -17.4150   20.2102 H   0  0  0  0  0  0
  -30.5412  -16.6025   23.1371 H   0  0  0  0  0  0
  -31.9423  -16.3778   22.1252 H   0  0  0  0  0  0
  -29.5098  -14.7703   22.1851 H   0  0  0  0  0  0
  -26.2538  -17.4571   21.9088 H   0  0  0  0  0  0
  -26.1406  -19.0757   22.1299 H   0  0  0  0  0  0
  1 25  1  0  0  0
  1 30  2  0  0  0
  1 91  1  0  0  0
  2  3  1  0  0  0
  2 25  1  0  0  0
  2 93  1  0  0  0
  2 94  1  0  0  0
  3  4  1  0  0  0
  3 95  1  0  0  0
  3 96  1  0  0  0
  4  5  1  0  0  0
  4 97  1  0  0  0
  4 98  1  0  0  0
  5  6  1  0  0  0
  5 26  1  0  0  0
  5 99  1  0  0  0
  6 25  1  0  0  0
  6100  1  0  0  0
  6101  1  0  0  0
  7  8  2  0  0  0
  7 26  1  0  0  0
  7 29  1  0  0  0
  8  9  1  0  0  0
  8 22  1  0  0  0
  9 10  1  0  0  0
  9 27  2  0  0  0
 10 11  2  0  0  0
 10 15  1  0  0  0
 11 12  1  0  0  0
 11102  1  0  0  0
 12 13  2  0  0  0
 12103  1  0  0  0
 13 14  1  0  0  0
 13 31  1  0  0  0
 14 15  2  0  0  0
 14104  1  0  0  0
 15105  1  0  0  0
 16 17  2  0  0  0
 16 21  1  0  0  0
 16 31  1  0  0  0
 17 18  1  0  0  0
 17106  1  0  0  0
 18 19  2  0  0  0
 18107  1  0  0  0
 19 20  1  0  0  0
 19 24  1  0  0  0
 20 21  2  0  0  0
 20108  1  0  0  0
 21 23  1  0  0  0
 22 28  1  0  0  0
 22 32  2  0  0  0
 26 27  1  0  0  0
 28109  1  0  0  0
 28110  1  0  0  0
 29111  1  0  0  0
 29112  1  0  0  0
 33 34  1  0  0  0
 33 66  1  0  0  0
 33 70  2  0  0  0
 34 36  1  0  0  0
 34 59  1  0  0  0
 34113  1  0  0  0
 35 44  2  0  0  0
 35 45  1  0  0  0
 35 68  1  0  0  0
 36 56  1  0  0  0
 36114  1  0  0  0
 37 39  1  0  0  0
 37 47  1  0  0  0
 37 66  1  0  0  0
 37115  1  0  0  0
 38 43  2  0  0  0
 38 46  1  0  0  0
 38 47  1  0  0  0
 39 64  1  0  0  0
 39 67  2  0  0  0
 40 52  1  0  0  0
 40 53  2  0  0  0
 40 58  1  0  0  0
 41116  1  0  0  0
 41117  1  0  0  0
 41118  1  0  0  0
 41 48  1  0  0  0
 42 43  1  0  0  0
 42 66  1  0  0  0
 42119  1  0  0  0
 42120  1  0  0  0
 43 44  1  0  0  0
 44121  1  0  0  0
 45 46  2  0  0  0
 45122  1  0  0  0
 46123  1  0  0  0
 47124  1  0  0  0
 47125  1  0  0  0
 48 56  1  0  0  0
 48 65  1  0  0  0
 48126  1  0  0  0
 49 50  1  0  0  0
 49 53  1  0  0  0
 49 64  1  0  0  0
 49127  1  0  0  0
 50 51  1  0  0  0
 50128  1  0  0  0
 50129  1  0  0  0
 51 52  1  0  0  0
 51130  1  0  0  0
 51131  1  0  0  0
 52132  1  0  0  0
 52133  1  0  0  0
 53 54  1  0  0  0
 54 55  2  0  0  0
 54134  1  0  0  0
 55 57  1  0  0  0
 55135  1  0  0  0
 56 69  2  0  0  0
 57 58  2  0  0  0
 57136  1  0  0  0
 58137  1  0  0  0
 59 60  1  0  0  0
 59 61  1  0  0  0
 59 62  1  0  0  0
 60138  1  0  0  0
 60139  1  0  0  0
 60140  1  0  0  0
 61141  1  0  0  0
 61142  1  0  0  0
 61143  1  0  0  0
 62144  1  0  0  0
 62145  1  0  0  0
 62146  1  0  0  0
 63 65  1  0  0  0
 63147  1  0  0  0
 63148  1  0  0  0
 63149  1  0  0  0
 64150  1  0  0  0
 65151  1  0  0  0
 68 86  1  0  0  0
 71 72  2  0  0  0
 71 73  1  0  0  0
 71 82  1  0  0  0
 72 74  1  0  0  0
 72 86  1  0  0  0
 73 75  2  0  0  0
 73 83  1  0  0  0
 74 84  1  0  0  0
 74 89  2  0  0  0
 75 89  1  0  0  0
 75 90  1  0  0  0
 76 90  1  0  0  0
 76152  1  0  0  0
 76153  1  0  0  0
 76 80  1  0  0  0
 77 81  1  0  0  0
 77 90  1  0  0  0
 77154  1  0  0  0
 77155  1  0  0  0
 78 81  1  0  0  0
 78 92  1  0  0  0
 78156  1  0  0  0
 78157  1  0  0  0
 79 80  1  0  0  0
 79 81  1  0  0  0
 79 87  1  0  0  0
 79158  1  0  0  0
 80 92  1  0  0  0
 80159  1  0  0  0
 81 85  1  0  0  0
 82160  1  0  0  0
 82161  1  0  0  0
 82162  1  0  0  0
 83163  1  0  0  0
 83164  1  0  0  0
 83165  1  0  0  0
 84166  1  0  0  0
 84167  1  0  0  0
 84168  1  0  0  0
 85169  1  0  0  0
 85170  1  0  0  0
 85171  1  0  0  0
 86172  1  0  0  0
 86173  1  0  0  0
 87 88  1  0  0  0
 87174  1  0  0  0
 87175  1  0  0  0
 88 91  1  0  0  0
 88176  1  0  0  0
 88177  1  0  0  0
 91178  1  0  0  0
 92179  1  0  0  0
 92180  1  0  0  0
M  CHG  1  92   1
M  ISO  4   1 100  68 101  86 101  91 100
M  END
> <chiral flag>
0

> <version>
0

> <s_m_source_file>
/data/baiqing/PycharmProjects/Reinvent-master-3.2/result/LINK_invent/BTK/process_docking_weight1_custom_sum_contain_oxygen_bond_distance_aromatic_linkinvent_7_9_3/rearranged_h_0171.sdf

> <i_m_source_file_index>
28

> <r_mmod_Potential_Energy-OPLS-2005>
-286.491851806641

> <r_mmod_Stretch_Energy-OPLS-2005>
38.6162872314453

> <r_mmod_Bend_Energy-OPLS-2005>
143.752227783203

> <r_mmod_Torsional_Energy-OPLS-2005>
379.778747558594

> <r_mmod_Improper_Torsional_Energy-OPLS-2005>
9.54963779449463

> <r_mmod_Van_der_Waal_Energy-OPLS-2005>
168.811737060547

> <r_mmod_Electrostatic_Energy-OPLS-2005>
-567.446411132812

> <r_mmod_Solvation_Energy-OPLS-2005>
-465.266326904297

> <b_mmod_Minimization_Converged-OPLS-2005>
0

> <r_mmod_RMS_Derivative-OPLS-2005>
2.30832266807556

$$$$
28
                    3D
 Structure written by MMmdl.
185195  0  0  1  0            999 V2000
  -30.6928  -14.4104   20.4093 C   0  0  0  0  0  0
  -30.3833  -12.2083   19.4161 C   0  0  0  0  0  0
  -29.4516  -12.3879   18.1927 C   0  0  0  0  0  0
  -27.9737  -12.2330   18.6171 C   0  0  0  0  0  0
  -27.6296  -13.1385   19.8185 C   0  0  2  0  0  0
  -28.6805  -13.0080   20.9530 C   0  0  0  0  0  0
  -25.2553  -13.8027   20.5530 C   0  0  0  0  0  0
  -24.1759  -13.0378   20.9136 C   0  0  0  0  0  0
  -24.6225  -11.6853   20.8745 C   0  0  0  0  0  0
  -23.8897  -10.4251   21.0396 C   0  0  0  0  0  0
  -24.3484   -9.4192   21.9189 C   0  0  0  0  0  0
  -23.6209   -8.2214   22.0774 C   0  0  0  0  0  0
  -22.4218   -8.0229   21.3554 C   0  0  0  0  0  0
  -21.9791   -9.0176   20.4666 C   0  0  0  0  0  0
  -22.7052  -10.2096   20.3056 C   0  0  0  0  0  0
  -21.6828   -6.0714   22.5294 C   0  0  0  0  0  0
  -21.4013   -6.5652   23.8232 C   0  0  0  0  0  0
  -21.3646   -5.6819   24.9194 C   0  0  0  0  0  0
  -21.6010   -4.3084   24.7246 C   0  0  0  0  0  0
  -21.8824   -3.8157   23.4375 C   0  0  0  0  0  0
  -21.9194   -4.6952   22.3416 C   0  0  0  0  0  0
  -22.7824  -13.5247   21.1828 C   0  0  0  0  0  0
  -22.1668   -4.2126   21.0994 F   0  0  0  0  0  0
  -21.5613   -3.4588   25.7771 F   0  0  0  0  0  0
  -30.0117  -13.2395   20.3853 N   0  0  0  0  0  0
  -26.2811  -12.9007   20.3114 N   0  0  0  0  0  0
  -25.9101  -11.6258   20.5775 N   0  0  0  0  0  0
  -22.0465  -12.8259   22.0441 N   0  0  0  0  0  0
  -25.4443  -15.1687   20.3922 N   0  0  0  0  0  0
  -31.9143  -14.4811   20.2677 O   0  0  0  0  0  0
  -21.6625   -6.8803   21.4234 O   0  0  0  0  0  0
  -22.3490  -14.5508   20.6626 O   0  0  0  0  0  0
  -24.6153  -31.8747   23.2082 C   0  0  0  0  0  0
  -25.9065  -32.4873   23.8366 C   0  0  1  0  0  0
  -27.2282  -27.4921   20.0094 C   0  0  0  0  0  0
  -25.5903  -33.8666   24.2325 N   0  0  0  0  0  0
  -23.4077  -30.5044   21.5467 C   0  0  2  0  0  0
  -24.8450  -28.9827   20.1201 C   0  0  0  0  0  0
  -22.7439  -29.4707   22.4846 C   0  0  0  0  0  0
  -18.0308  -28.1494   22.8426 C   0  0  0  0  0  0
  -24.1510  -36.7375   23.2619 C   0  0  0  0  0  0
  -25.9421  -30.8581   21.3566 C   0  0  0  0  0  0
  -26.0159  -29.4968   20.6957 C   0  0  0  0  0  0
  -27.2115  -28.7517   20.6396 C   0  0  0  0  0  0
  -26.0415  -27.0058   19.4083 C   0  0  0  0  0  0
  -24.8444  -27.7277   19.4988 C   0  0  0  0  0  0
  -23.6185  -29.8511   20.1590 C   0  0  0  0  0  0
  -25.4124  -36.3134   24.0318 C   0  0  1  0  0  0
  -20.5896  -28.3749   23.1254 C   0  0  2  0  0  0
  -20.6755  -26.9485   22.5353 C   0  0  0  0  0  0
  -19.5726  -26.6469   21.5173 C   0  0  0  0  0  0
  -18.1930  -26.8020   22.1628 C   0  0  0  0  0  0
  -19.1551  -28.8931   23.2870 C   0  0  0  0  0  0
  -18.9443  -30.1481   23.8967 C   0  0  0  0  0  0
  -17.6426  -30.6626   24.0593 C   0  0  0  0  0  0
  -25.9020  -34.9501   23.5119 C   0  0  0  0  0  0
  -16.5333  -29.9149   23.6287 C   0  0  0  0  0  0
  -16.7274  -28.6612   23.0243 C   0  0  0  0  0  0
  -26.4514  -31.6587   25.0657 C   0  0  0  0  0  0
  -25.3747  -31.3598   26.1320 C   0  0  0  0  0  0
  -27.0226  -30.3000   24.5998 C   0  0  0  0  0  0
  -27.6162  -32.4182   25.7396 C   0  0  0  0  0  0
  -27.5611  -37.1811   24.8444 C   0  0  0  0  0  0
  -21.4154  -29.3119   22.3643 N   0  0  0  0  0  0
  -26.4334  -37.3775   23.9399 N   0  0  0  0  0  0
  -24.6767  -31.0826   22.0988 N   0  0  0  0  0  0
  -23.4221  -28.8212   23.2830 O   0  0  0  0  0  0
  -28.4105  -26.8028   19.9937 O   0  0  0  0  0  0
  -26.5558  -34.8933   22.4662 O   0  0  0  0  0  0
  -23.5324  -32.1473   23.7413 O   0  0  0  0  0  0
  -30.8689  -19.7398   23.2182 C   0  0  0  0  0  0
  -30.0301  -20.8815   23.1477 C   0  0  0  0  0  0
  -30.9761  -18.8888   22.0750 C   0  0  0  0  0  0
  -29.2411  -21.0504   21.9866 C   0  0  0  0  0  0
  -30.1655  -19.1891   20.9377 C   0  0  0  0  0  0
  -27.0563  -22.1602   22.3574 C   0  0  0  0  0  0
  -28.2723  -22.1387   21.7705 C   0  0  0  0  0  0
  -26.0181  -23.2526   22.1173 C   0  0  0  0  0  0
  -28.6617  -23.1939   20.7644 C   0  0  0  0  0  0
  -26.3983  -24.2134   20.9707 C   0  0  0  0  0  0
  -28.5893  -17.4776   20.0266 C   0  0  0  0  0  0
  -28.9488  -16.1459   20.6808 C   0  0  0  0  0  0
  -30.4331  -16.0810   18.6601 C   0  0  0  0  0  0
  -29.8476  -18.3115   19.7087 C   0  0  2  0  0  0
  -30.9676  -17.4865   19.0003 C   0  0  2  0  0  0
  -27.9220  -24.5311   20.9366 C   0  0  2  0  0  0
  -31.6027  -19.4045   24.5258 C   0  0  0  0  0  0
  -29.9775  -21.9071   24.2784 C   0  0  0  0  0  0
  -31.9400  -17.6946   22.1231 C   0  0  0  0  0  0
  -31.5371  -18.1592   17.7414 C   0  0  0  0  0  0
  -28.3432  -25.2187   22.2564 C   0  0  0  0  0  0
  -28.3926  -25.4030   19.7326 C   0  0  0  0  0  0
  -29.3407  -20.2487   20.9277 N   0  0  0  0  0  0
  -29.9513  -15.4111   19.8860 N   0  0  0  0  0  0
  -31.4323  -12.2653   19.1235 H   0  0  0  0  0  0
  -30.2385  -11.2187   19.8577 H   0  0  0  0  0  0
  -29.6679  -11.6462   17.4242 H   0  0  0  0  0  0
  -29.6099  -13.3597   17.7289 H   0  0  0  0  0  0
  -27.7902  -11.1897   18.8858 H   0  0  0  0  0  0
  -27.3073  -12.4352   17.7836 H   0  0  0  0  0  0
  -27.6363  -14.1267   19.3745 H   0  0  0  0  0  0
  -28.6368  -12.0172   21.3994 H   0  0  0  0  0  0
  -28.4718  -13.6930   21.7714 H   0  0  0  0  0  0
  -25.2622   -9.5749   22.4768 H   0  0  0  0  0  0
  -23.9973   -7.4584   22.7472 H   0  0  0  0  0  0
  -21.0732   -8.8566   19.8951 H   0  0  0  0  0  0
  -22.3381  -10.9616   19.6192 H   0  0  0  0  0  0
  -21.2018   -7.6173   23.9730 H   0  0  0  0  0  0
  -21.1454   -6.0551   25.9090 H   0  0  0  0  0  0
  -22.0595   -2.7616   23.2873 H   0  0  0  0  0  0
  -22.4143  -11.9886   22.4744 H   0  0  0  0  0  0
  -21.1096  -13.1313   22.2787 H   0  0  0  0  0  0
  -24.6871  -15.8320   20.5144 H   0  0  0  0  0  0
  -26.2946  -15.5900   20.0373 H   0  0  0  0  0  0
  -26.7125  -32.5602   23.1120 H   0  0  0  0  0  0
  -24.9928  -33.9843   25.0373 H   0  0  0  0  0  0
  -22.7128  -31.3322   21.3940 H   0  0  0  0  0  0
  -23.3722  -35.9750   23.3299 H   0  0  0  0  0  0
  -24.3571  -36.8968   22.2016 H   0  0  0  0  0  0
  -23.7334  -37.6618   23.6627 H   0  0  0  0  0  0
  -26.0456  -31.6372   20.5975 H   0  0  0  0  0  0
  -26.8462  -30.9123   21.9563 H   0  0  0  0  0  0
  -28.1329  -29.1384   21.0617 H   0  0  0  0  0  0
  -26.0079  -26.0759   18.8674 H   0  0  0  0  0  0
  -23.9355  -27.3192   19.0758 H   0  0  0  0  0  0
  -23.7913  -30.6433   19.4282 H   0  0  0  0  0  0
  -22.7421  -29.2987   19.8033 H   0  0  0  0  0  0
  -25.1270  -36.2029   25.0798 H   0  0  0  0  0  0
  -21.0029  -28.3333   24.1353 H   0  0  0  0  0  0
  -20.5623  -26.2371   23.3544 H   0  0  0  0  0  0
  -21.6614  -26.7460   22.1160 H   0  0  0  0  0  0
  -19.6895  -25.6384   21.1201 H   0  0  0  0  0  0
  -19.6717  -27.3274   20.6706 H   0  0  0  0  0  0
  -17.4139  -26.6705   21.4101 H   0  0  0  0  0  0
  -18.0420  -26.0267   22.9147 H   0  0  0  0  0  0
  -19.7877  -30.7278   24.2483 H   0  0  0  0  0  0
  -17.4944  -31.6293   24.5197 H   0  0  0  0  0  0
  -15.5314  -30.3051   23.7576 H   0  0  0  0  0  0
  -15.8705  -28.0954   22.6867 H   0  0  0  0  0  0
  -24.6080  -30.6846   25.7532 H   0  0  0  0  0  0
  -24.8746  -32.2657   26.4702 H   0  0  0  0  0  0
  -25.8068  -30.8777   27.0088 H   0  0  0  0  0  0
  -26.2678  -29.6817   24.1136 H   0  0  0  0  0  0
  -27.3999  -29.7211   25.4420 H   0  0  0  0  0  0
  -27.8555  -30.4196   23.9078 H   0  0  0  0  0  0
  -27.2944  -33.3479   26.2065 H   0  0  0  0  0  0
  -28.3956  -32.6708   25.0201 H   0  0  0  0  0  0
  -28.0891  -31.8223   26.5180 H   0  0  0  0  0  0
  -28.2551  -38.0151   24.7417 H   0  0  0  0  0  0
  -28.1189  -36.2667   24.6358 H   0  0  0  0  0  0
  -27.2304  -37.1502   25.8828 H   0  0  0  0  0  0
  -20.9386  -29.8919   21.6912 H   0  0  0  0  0  0
  -26.0257  -38.2883   24.1319 H   0  0  0  0  0  0
  -26.7809  -21.3716   23.0475 H   0  0  0  0  0  0
  -25.9224  -23.8220   23.0473 H   0  0  0  0  0  0
  -25.0463  -22.8086   21.8936 H   0  0  0  0  0  0
  -28.4666  -22.7798   19.7697 H   0  0  0  0  0  0
  -29.7401  -23.3485   20.8241 H   0  0  0  0  0  0
  -25.8048  -25.1205   21.0876 H   0  0  0  0  0  0
  -26.0834  -23.7529   20.0267 H   0  0  0  0  0  0
  -27.8756  -18.0368   20.6349 H   0  0  0  0  0  0
  -28.0504  -17.2653   19.1002 H   0  0  0  0  0  0
  -28.0167  -15.6071   20.7929 H   0  0  0  0  0  0
  -29.3082  -16.2865   21.7012 H   0  0  0  0  0  0
  -29.6183  -16.1280   17.9343 H   0  0  0  0  0  0
  -31.2003  -15.4949   18.1504 H   0  0  0  0  0  0
  -29.4975  -19.0112   18.9442 H   0  0  0  0  0  0
  -31.8240  -17.3494   19.6477 H   0  0  0  0  0  0
  -31.5144  -20.1670   25.3030 H   0  0  0  0  0  0
  -32.6715  -19.2434   24.3530 H   0  0  0  0  0  0
  -31.1652  -18.5025   24.9661 H   0  0  0  0  0  0
  -29.4644  -21.4939   25.1533 H   0  0  0  0  0  0
  -29.4557  -22.8190   23.9923 H   0  0  0  0  0  0
  -30.9886  -22.2196   24.5482 H   0  0  0  0  0  0
  -31.5264  -16.8288   21.6207 H   0  0  0  0  0  0
  -32.1492  -17.3351   23.1293 H   0  0  0  0  0  0
  -32.8993  -17.9433   21.6621 H   0  0  0  0  0  0
  -31.7189  -19.2237   17.8974 H   0  0  0  0  0  0
  -30.8866  -18.0363   16.8801 H   0  0  0  0  0  0
  -32.4909  -17.7209   17.4632 H   0  0  0  0  0  0
  -27.8474  -26.1792   22.3939 H   0  0  0  0  0  0
  -29.4187  -25.3888   22.2786 H   0  0  0  0  0  0
  -28.1041  -24.6248   23.1359 H   0  0  0  0  0  0
  -27.9061  -25.1405   18.7939 H   0  0  0  0  0  0
  -29.4428  -25.1893   19.5344 H   0  0  0  0  0  0
  1 25  1  0  0  0
  1 30  2  0  0  0
  1 94  1  0  0  0
  2  3  1  0  0  0
  2 25  1  0  0  0
  2 95  1  0  0  0
  2 96  1  0  0  0
  3  4  1  0  0  0
  3 97  1  0  0  0
  3 98  1  0  0  0
  4  5  1  0  0  0
  4 99  1  0  0  0
  4100  1  0  0  0
  5  6  1  0  0  0
  5 26  1  0  0  0
  5101  1  0  0  0
  6 25  1  0  0  0
  6102  1  0  0  0
  6103  1  0  0  0
  7  8  2  0  0  0
  7 26  1  0  0  0
  7 29  1  0  0  0
  8  9  1  0  0  0
  8 22  1  0  0  0
  9 10  1  0  0  0
  9 27  2  0  0  0
 10 11  2  0  0  0
 10 15  1  0  0  0
 11 12  1  0  0  0
 11104  1  0  0  0
 12 13  2  0  0  0
 12105  1  0  0  0
 13 14  1  0  0  0
 13 31  1  0  0  0
 14 15  2  0  0  0
 14106  1  0  0  0
 15107  1  0  0  0
 16 17  2  0  0  0
 16 21  1  0  0  0
 16 31  1  0  0  0
 17 18  1  0  0  0
 17108  1  0  0  0
 18 19  2  0  0  0
 18109  1  0  0  0
 19 20  1  0  0  0
 19 24  1  0  0  0
 20 21  2  0  0  0
 20110  1  0  0  0
 21 23  1  0  0  0
 22 28  1  0  0  0
 22 32  2  0  0  0
 26 27  1  0  0  0
 28111  1  0  0  0
 28112  1  0  0  0
 29113  1  0  0  0
 29114  1  0  0  0
 33 34  1  0  0  0
 33 66  1  0  0  0
 33 70  2  0  0  0
 34 36  1  0  0  0
 34 59  1  0  0  0
 34115  1  0  0  0
 35 44  2  0  0  0
 35 45  1  0  0  0
 35 68  1  0  0  0
 36 56  1  0  0  0
 36116  1  0  0  0
 37 39  1  0  0  0
 37 47  1  0  0  0
 37 66  1  0  0  0
 37117  1  0  0  0
 38 43  2  0  0  0
 38 46  1  0  0  0
 38 47  1  0  0  0
 39 64  1  0  0  0
 39 67  2  0  0  0
 40 52  1  0  0  0
 40 53  2  0  0  0
 40 58  1  0  0  0
 41118  1  0  0  0
 41119  1  0  0  0
 41120  1  0  0  0
 41 48  1  0  0  0
 42 43  1  0  0  0
 42 66  1  0  0  0
 42121  1  0  0  0
 42122  1  0  0  0
 43 44  1  0  0  0
 44123  1  0  0  0
 45 46  2  0  0  0
 45124  1  0  0  0
 46125  1  0  0  0
 47126  1  0  0  0
 47127  1  0  0  0
 48 56  1  0  0  0
 48 65  1  0  0  0
 48128  1  0  0  0
 49 50  1  0  0  0
 49 53  1  0  0  0
 49 64  1  0  0  0
 49129  1  0  0  0
 50 51  1  0  0  0
 50130  1  0  0  0
 50131  1  0  0  0
 51 52  1  0  0  0
 51132  1  0  0  0
 51133  1  0  0  0
 52134  1  0  0  0
 52135  1  0  0  0
 53 54  1  0  0  0
 54 55  2  0  0  0
 54136  1  0  0  0
 55 57  1  0  0  0
 55137  1  0  0  0
 56 69  2  0  0  0
 57 58  2  0  0  0
 57138  1  0  0  0
 58139  1  0  0  0
 59 60  1  0  0  0
 59 61  1  0  0  0
 59 62  1  0  0  0
 60140  1  0  0  0
 60141  1  0  0  0
 60142  1  0  0  0
 61143  1  0  0  0
 61144  1  0  0  0
 61145  1  0  0  0
 62146  1  0  0  0
 62147  1  0  0  0
 62148  1  0  0  0
 63 65  1  0  0  0
 63149  1  0  0  0
 63150  1  0  0  0
 63151  1  0  0  0
 64152  1  0  0  0
 65153  1  0  0  0
 68 92  1  0  0  0
 71 72  2  0  0  0
 71 73  1  0  0  0
 71 87  1  0  0  0
 72 74  1  0  0  0
 72 88  1  0  0  0
 73 75  2  0  0  0
 73 89  1  0  0  0
 74 77  1  0  0  0
 74 93  2  0  0  0
 75 93  1  0  0  0
 75 84  1  0  0  0
 76 77  2  0  0  0
 76 78  1  0  0  0
 76154  1  0  0  0
 77 79  1  0  0  0
 78 80  1  0  0  0
 78155  1  0  0  0
 78156  1  0  0  0
 79 86  1  0  0  0
 79157  1  0  0  0
 79158  1  0  0  0
 80 86  1  0  0  0
 80159  1  0  0  0
 80160  1  0  0  0
 81 82  1  0  0  0
 81 84  1  0  0  0
 81161  1  0  0  0
 81162  1  0  0  0
 82 94  1  0  0  0
 82163  1  0  0  0
 82164  1  0  0  0
 83 85  1  0  0  0
 83 94  1  0  0  0
 83165  1  0  0  0
 83166  1  0  0  0
 84 85  1  0  0  0
 84167  1  0  0  0
 85 90  1  0  0  0
 85168  1  0  0  0
 86 91  1  0  0  0
 86 92  1  0  0  0
 87169  1  0  0  0
 87170  1  0  0  0
 87171  1  0  0  0
 88172  1  0  0  0
 88173  1  0  0  0
 88174  1  0  0  0
 89175  1  0  0  0
 89176  1  0  0  0
 89177  1  0  0  0
 90178  1  0  0  0
 90179  1  0  0  0
 90180  1  0  0  0
 91181  1  0  0  0
 91182  1  0  0  0
 91183  1  0  0  0
 92184  1  0  0  0
 92185  1  0  0  0
M  ISO  4   1 100  68 101  92 101  94 100
M  END
> <chiral flag>
0

> <version>
0

> <s_m_source_file>
/data/baiqing/PycharmProjects/Reinvent-master-3.2/result/LINK_invent/BTK/process_docking_weight1_custom_sum_contain_oxygen_bond_distance_aromatic_linkinvent_7_9_3/rearranged_h_0171.sdf

> <i_m_source_file_index>
29

> <r_mmod_Potential_Energy-OPLS-2005>
220.552963256836

> <r_mmod_Stretch_Energy-OPLS-2005>
43.6948738098145

> <r_mmod_Bend_Energy-OPLS-2005>
162.460540771484

> <r_mmod_Torsional_Energy-OPLS-2005>
379.647399902344

> <r_mmod_Improper_Torsional_Energy-OPLS-2005>
28.5185070037842

> <r_mmod_Van_der_Waal_Energy-OPLS-2005>
205.937423706055

> <r_mmod_Electrostatic_Energy-OPLS-2005>
-448.380187988281

> <r_mmod_Solvation_Energy-OPLS-2005>
-187.752380371094

> <b_mmod_Minimization_Converged-OPLS-2005>
0

> <r_mmod_RMS_Derivative-OPLS-2005>
10.5019464492798

$$$$
29
                    3D
 Structure written by MMmdl.
172181  0  0  1  0            999 V2000
  -30.7135  -14.4907   20.5306 C   0  0  0  0  0  0
  -30.4064  -12.3071   19.4331 C   0  0  0  0  0  0
  -29.4884  -12.4924   18.2084 C   0  0  0  0  0  0
  -28.0093  -12.3640   18.6203 C   0  0  0  0  0  0
  -27.6508  -13.2187   19.8663 C   0  0  2  0  0  0
  -28.6955  -13.0508   20.9931 C   0  0  0  0  0  0
  -25.2533  -13.8180   20.5708 C   0  0  0  0  0  0
  -24.1801  -13.0439   20.9199 C   0  0  0  0  0  0
  -24.6381  -11.6913   20.8751 C   0  0  0  0  0  0
  -23.9059  -10.4288   21.0408 C   0  0  0  0  0  0
  -24.3603   -9.4198   21.9187 C   0  0  0  0  0  0
  -23.6284   -8.2232   22.0757 C   0  0  0  0  0  0
  -22.4271   -8.0266   21.3547 C   0  0  0  0  0  0
  -21.9912   -9.0234   20.4646 C   0  0  0  0  0  0
  -22.7237  -10.2118   20.3055 C   0  0  0  0  0  0
  -21.6847   -6.0722   22.5276 C   0  0  0  0  0  0
  -21.4011   -6.5633   23.8212 C   0  0  0  0  0  0
  -21.3662   -5.6794   24.9185 C   0  0  0  0  0  0
  -21.6048   -4.3057   24.7241 C   0  0  0  0  0  0
  -21.8812   -3.8149   23.4363 C   0  0  0  0  0  0
  -21.9192   -4.6952   22.3408 C   0  0  0  0  0  0
  -22.7824  -13.5214   21.1873 C   0  0  0  0  0  0
  -22.1652   -4.2139   21.0982 F   0  0  0  0  0  0
  -21.5640   -3.4547   25.7757 F   0  0  0  0  0  0
  -30.0197  -13.3259   20.4214 N   0  0  0  0  0  0
  -26.2968  -12.9366   20.3359 N   0  0  0  0  0  0
  -25.9315  -11.6523   20.5792 N   0  0  0  0  0  0
  -22.0463  -12.8184   22.0412 N   0  0  0  0  0  0
  -25.4272  -15.1893   20.4106 N   0  0  0  0  0  0
  -31.8904  -14.5953   20.1731 O   0  0  0  0  0  0
  -21.6630   -6.8866   21.4238 O   0  0  0  0  0  0
  -22.3511  -14.5530   20.6748 O   0  0  0  0  0  0
  -24.6132  -31.8679   23.2064 C   0  0  0  0  0  0
  -25.9021  -32.4822   23.8365 C   0  0  1  0  0  0
  -27.2402  -27.4169   20.1008 C   0  0  0  0  0  0
  -25.5882  -33.8625   24.2304 N   0  0  0  0  0  0
  -23.4009  -30.4856   21.5491 C   0  0  2  0  0  0
  -24.8478  -28.9434   20.1167 C   0  0  0  0  0  0
  -22.7393  -29.4654   22.5021 C   0  0  0  0  0  0
  -18.0247  -28.1369   22.8512 C   0  0  0  0  0  0
  -24.1480  -36.7308   23.2638 C   0  0  0  0  0  0
  -25.9274  -30.8265   21.3577 C   0  0  0  0  0  0
  -26.0058  -29.4559   20.7132 C   0  0  0  0  0  0
  -27.1993  -28.6984   20.7034 C   0  0  0  0  0  0
  -26.0603  -26.9199   19.5005 C   0  0  0  0  0  0
  -24.8717  -27.6767   19.5082 C   0  0  0  0  0  0
  -23.6063  -29.8072   20.1677 C   0  0  0  0  0  0
  -25.4110  -36.3122   24.0330 C   0  0  1  0  0  0
  -20.5836  -28.3662   23.1344 C   0  0  2  0  0  0
  -20.6751  -26.9402   22.5436 C   0  0  0  0  0  0
  -19.5734  -26.6380   21.5225 C   0  0  0  0  0  0
  -18.1897  -26.7919   22.1627 C   0  0  0  0  0  0
  -19.1496  -28.8829   23.2920 C   0  0  0  0  0  0
  -18.9433  -30.1433   23.8921 C   0  0  0  0  0  0
  -17.6449  -30.6595   24.0556 C   0  0  0  0  0  0
  -25.9048  -34.9485   23.5129 C   0  0  0  0  0  0
  -16.5333  -29.9096   23.6331 C   0  0  0  0  0  0
  -16.7239  -28.6498   23.0376 C   0  0  0  0  0  0
  -26.4446  -31.6608   25.0701 C   0  0  0  0  0  0
  -25.3680  -31.3694   26.1422 C   0  0  0  0  0  0
  -27.0306  -30.3065   24.6073 C   0  0  0  0  0  0
  -27.6018  -32.4336   25.7478 C   0  0  0  0  0  0
  -27.5585  -37.1797   24.8454 C   0  0  0  0  0  0
  -21.4117  -29.3038   22.3768 N   0  0  0  0  0  0
  -26.4285  -37.3819   23.9420 N   0  0  0  0  0  0
  -24.6655  -31.0756   22.0971 N   0  0  0  0  0  0
  -23.4165  -28.8203   23.3068 O   0  0  0  0  0  0
  -28.4389  -26.7249   20.1267 O   0  0  0  0  0  0
  -26.5632  -34.8941   22.4702 O   0  0  0  0  0  0
  -23.5330  -32.1449   23.7461 O   0  0  0  0  0  0
  -29.5534  -20.9162   21.7095 C   0  0  0  0  0  0
  -28.3742  -20.5973   19.5511 C   0  0  0  0  0  0
  -29.8937  -16.4621   19.4879 C   0  0  0  0  0  0
  -30.2224  -16.4264   21.9116 C   0  0  0  0  0  0
  -28.8637  -22.2966   21.8450 C   0  0  0  0  0  0
  -29.0036  -17.7145   19.6262 C   0  0  0  0  0  0
  -29.3757  -17.7297   22.0149 C   0  0  0  0  0  0
  -28.7138  -19.8968   20.9009 C   0  0  1  0  0  0
  -27.7121  -22.0012   19.7058 C   0  0  2  0  0  0
  -27.3615  -22.5741   18.3186 C   0  0  0  0  0  0
  -30.0668  -25.1966   19.3885 C   0  0  0  0  0  0
  -28.0306  -24.3326   20.6897 C   0  0  0  0  0  0
  -28.5615  -25.3703   19.6474 C   0  0  1  0  0  0
  -29.9735  -15.6207   20.6989 N   0  0  0  0  0  0
  -29.4172  -18.5601   20.7760 N   0  3  0  0  0  0
  -28.5580  -22.9281   20.5268 N   0  3  1  0  0  0
  -31.4551  -12.3793   19.1377 H   0  0  0  0  0  0
  -30.2817  -11.3095   19.8570 H   0  0  0  0  0  0
  -29.7266  -11.7550   17.4404 H   0  0  0  0  0  0
  -29.6634  -13.4693   17.7559 H   0  0  0  0  0  0
  -27.8167  -11.3102   18.8252 H   0  0  0  0  0  0
  -27.3609  -12.6317   17.7839 H   0  0  0  0  0  0
  -27.6767  -14.2594   19.5446 H   0  0  0  0  0  0
  -28.6702  -12.0383   21.3984 H   0  0  0  0  0  0
  -28.4758  -13.7213   21.8263 H   0  0  0  0  0  0
  -25.2734   -9.5676   22.4769 H   0  0  0  0  0  0
  -23.9994   -7.4622   22.7473 H   0  0  0  0  0  0
  -21.0854   -8.8740   19.8936 H   0  0  0  0  0  0
  -22.3688  -10.9648   19.6162 H   0  0  0  0  0  0
  -21.1990   -7.6132   23.9714 H   0  0  0  0  0  0
  -21.1495   -6.0531   25.9088 H   0  0  0  0  0  0
  -22.0592   -2.7610   23.2879 H   0  0  0  0  0  0
  -22.4066  -11.9819   22.4760 H   0  0  0  0  0  0
  -21.1093  -13.1207   22.2640 H   0  0  0  0  0  0
  -24.6655  -15.8510   20.5125 H   0  0  0  0  0  0
  -26.2844  -15.6154   20.0874 H   0  0  0  0  0  0
  -26.7090  -32.5543   23.1122 H   0  0  0  0  0  0
  -24.9968  -33.9793   25.0403 H   0  0  0  0  0  0
  -22.6876  -31.3004   21.4063 H   0  0  0  0  0  0
  -23.3776  -35.9606   23.3269 H   0  0  0  0  0  0
  -24.3571  -36.8975   22.2059 H   0  0  0  0  0  0
  -23.7193  -37.6475   23.6691 H   0  0  0  0  0  0
  -26.0297  -31.5836   20.5788 H   0  0  0  0  0  0
  -26.8196  -30.8940   21.9679 H   0  0  0  0  0  0
  -28.0945  -29.0931   21.1635 H   0  0  0  0  0  0
  -26.0285  -25.9529   19.0228 H   0  0  0  0  0  0
  -23.9800  -27.2753   19.0465 H   0  0  0  0  0  0
  -23.6962  -30.5726   19.3958 H   0  0  0  0  0  0
  -22.7330  -29.2125   19.8913 H   0  0  0  0  0  0
  -25.1281  -36.1975   25.0813 H   0  0  0  0  0  0
  -20.9899  -28.3224   24.1475 H   0  0  0  0  0  0
  -20.5663  -26.2264   23.3618 H   0  0  0  0  0  0
  -21.6629  -26.7464   22.1234 H   0  0  0  0  0  0
  -19.6911  -25.6296   21.1241 H   0  0  0  0  0  0
  -19.6668  -27.3205   20.6765 H   0  0  0  0  0  0
  -17.4176  -26.6680   21.4011 H   0  0  0  0  0  0
  -18.0284  -26.0039   22.8995 H   0  0  0  0  0  0
  -19.7911  -30.7236   24.2318 H   0  0  0  0  0  0
  -17.5003  -31.6279   24.5150 H   0  0  0  0  0  0
  -15.5339  -30.3009   23.7655 H   0  0  0  0  0  0
  -15.8628  -28.0817   22.7130 H   0  0  0  0  0  0
  -24.5875  -30.7033   25.7716 H   0  0  0  0  0  0
  -24.8824  -32.2837   26.4855 H   0  0  0  0  0  0
  -25.8001  -30.8855   27.0187 H   0  0  0  0  0  0
  -26.2876  -29.6815   24.1103 H   0  0  0  0  0  0
  -27.4075  -29.7314   25.4538 H   0  0  0  0  0  0
  -27.8689  -30.4421   23.9233 H   0  0  0  0  0  0
  -27.2648  -33.3645   26.2057 H   0  0  0  0  0  0
  -28.3828  -32.6890   25.0299 H   0  0  0  0  0  0
  -28.0668  -31.8440   26.5386 H   0  0  0  0  0  0
  -28.2567  -38.0131   24.7595 H   0  0  0  0  0  0
  -28.1122  -36.2673   24.6180 H   0  0  0  0  0  0
  -27.2301  -37.1318   25.8851 H   0  0  0  0  0  0
  -20.9269  -29.8768   21.7002 H   0  0  0  0  0  0
  -26.0167  -38.2887   24.1476 H   0  0  0  0  0  0
  -29.7538  -20.5394   22.7118 H   0  0  0  0  0  0
  -30.5274  -21.0517   21.2378 H   0  0  0  0  0  0
  -27.6838  -19.9734   18.9832 H   0  0  0  0  0  0
  -29.2766  -20.6899   18.9450 H   0  0  0  0  0  0
  -30.8989  -16.7842   19.2038 H   0  0  0  0  0  0
  -29.5251  -15.8623   18.6531 H   0  0  0  0  0  0
  -30.0336  -15.8127   22.7944 H   0  0  0  0  0  0
  -31.2824  -16.6881   21.9542 H   0  0  0  0  0  0
  -29.5142  -22.9525   22.4253 H   0  0  0  0  0  0
  -27.9415  -22.1943   22.4210 H   0  0  0  0  0  0
  -27.9582  -17.4253   19.7393 H   0  0  0  0  0  0
  -29.0833  -18.2620   18.6877 H   0  0  0  0  0  0
  -29.7280  -18.3048   22.8708 H   0  0  0  0  0  0
  -28.3393  -17.4701   22.2359 H   0  0  0  0  0  0
  -27.7706  -19.7197   21.4237 H   0  0  0  0  0  0
  -26.7691  -21.8610   20.2396 H   0  0  0  0  0  0
  -28.2503  -22.8654   17.7580 H   0  0  0  0  0  0
  -26.7011  -23.4373   18.3942 H   0  0  0  0  0  0
  -26.8270  -21.8380   17.7179 H   0  0  0  0  0  0
  -30.2857  -24.2632   18.8704 H   0  0  0  0  0  0
  -30.6367  -25.2162   20.3187 H   0  0  0  0  0  0
  -30.4440  -26.0009   18.7572 H   0  0  0  0  0  0
  -26.9413  -24.3348   20.7203 H   0  0  0  0  0  0
  -28.3396  -24.7065   21.6674 H   0  0  0  0  0  0
  -28.0606  -25.2652   18.6859 H   0  0  0  0  0  0
  -30.3899  -18.7744   20.6134 H   0  0  0  0  0  0
  -29.4477  -23.0354   20.0581 H   0  0  0  0  0  0
  1 25  1  0  0  0
  1 30  2  0  0  0
  1 84  1  0  0  0
  2  3  1  0  0  0
  2 25  1  0  0  0
  2 87  1  0  0  0
  2 88  1  0  0  0
  3  4  1  0  0  0
  3 89  1  0  0  0
  3 90  1  0  0  0
  4  5  1  0  0  0
  4 91  1  0  0  0
  4 92  1  0  0  0
  5  6  1  0  0  0
  5 26  1  0  0  0
  5 93  1  0  0  0
  6 25  1  0  0  0
  6 94  1  0  0  0
  6 95  1  0  0  0
  7  8  2  0  0  0
  7 26  1  0  0  0
  7 29  1  0  0  0
  8  9  1  0  0  0
  8 22  1  0  0  0
  9 10  1  0  0  0
  9 27  2  0  0  0
 10 11  2  0  0  0
 10 15  1  0  0  0
 11 12  1  0  0  0
 11 96  1  0  0  0
 12 13  2  0  0  0
 12 97  1  0  0  0
 13 14  1  0  0  0
 13 31  1  0  0  0
 14 15  2  0  0  0
 14 98  1  0  0  0
 15 99  1  0  0  0
 16 17  2  0  0  0
 16 21  1  0  0  0
 16 31  1  0  0  0
 17 18  1  0  0  0
 17100  1  0  0  0
 18 19  2  0  0  0
 18101  1  0  0  0
 19 20  1  0  0  0
 19 24  1  0  0  0
 20 21  2  0  0  0
 20102  1  0  0  0
 21 23  1  0  0  0
 22 28  1  0  0  0
 22 32  2  0  0  0
 26 27  1  0  0  0
 28103  1  0  0  0
 28104  1  0  0  0
 29105  1  0  0  0
 29106  1  0  0  0
 33 34  1  0  0  0
 33 66  1  0  0  0
 33 70  2  0  0  0
 34 36  1  0  0  0
 34 59  1  0  0  0
 34107  1  0  0  0
 35 44  2  0  0  0
 35 45  1  0  0  0
 35 68  1  0  0  0
 36 56  1  0  0  0
 36108  1  0  0  0
 37 39  1  0  0  0
 37 47  1  0  0  0
 37 66  1  0  0  0
 37109  1  0  0  0
 38 43  2  0  0  0
 38 46  1  0  0  0
 38 47  1  0  0  0
 39 64  1  0  0  0
 39 67  2  0  0  0
 40 52  1  0  0  0
 40 53  2  0  0  0
 40 58  1  0  0  0
 41110  1  0  0  0
 41111  1  0  0  0
 41112  1  0  0  0
 41 48  1  0  0  0
 42 43  1  0  0  0
 42 66  1  0  0  0
 42113  1  0  0  0
 42114  1  0  0  0
 43 44  1  0  0  0
 44115  1  0  0  0
 45 46  2  0  0  0
 45116  1  0  0  0
 46117  1  0  0  0
 47118  1  0  0  0
 47119  1  0  0  0
 48 56  1  0  0  0
 48 65  1  0  0  0
 48120  1  0  0  0
 49 50  1  0  0  0
 49 53  1  0  0  0
 49 64  1  0  0  0
 49121  1  0  0  0
 50 51  1  0  0  0
 50122  1  0  0  0
 50123  1  0  0  0
 51 52  1  0  0  0
 51124  1  0  0  0
 51125  1  0  0  0
 52126  1  0  0  0
 52127  1  0  0  0
 53 54  1  0  0  0
 54 55  2  0  0  0
 54128  1  0  0  0
 55 57  1  0  0  0
 55129  1  0  0  0
 56 69  2  0  0  0
 57 58  2  0  0  0
 57130  1  0  0  0
 58131  1  0  0  0
 59 60  1  0  0  0
 59 61  1  0  0  0
 59 62  1  0  0  0
 60132  1  0  0  0
 60133  1  0  0  0
 60134  1  0  0  0
 61135  1  0  0  0
 61136  1  0  0  0
 61137  1  0  0  0
 62138  1  0  0  0
 62139  1  0  0  0
 62140  1  0  0  0
 63 65  1  0  0  0
 63141  1  0  0  0
 63142  1  0  0  0
 63143  1  0  0  0
 64144  1  0  0  0
 65145  1  0  0  0
 68 83  1  0  0  0
 71 75  1  0  0  0
 71146  1  0  0  0
 71147  1  0  0  0
 71 78  1  0  0  0
 72 78  1  0  0  0
 72 79  1  0  0  0
 72148  1  0  0  0
 72149  1  0  0  0
 73 76  1  0  0  0
 73 84  1  0  0  0
 73150  1  0  0  0
 73151  1  0  0  0
 74 77  1  0  0  0
 74 84  1  0  0  0
 74152  1  0  0  0
 74153  1  0  0  0
 75 86  1  0  0  0
 75154  1  0  0  0
 75155  1  0  0  0
 76156  1  0  0  0
 76157  1  0  0  0
 76 85  1  0  0  0
 77 85  1  0  0  0
 77158  1  0  0  0
 77159  1  0  0  0
 78 85  1  0  0  0
 78160  1  0  0  0
 79 80  1  0  0  0
 79 86  1  0  0  0
 79161  1  0  0  0
 80162  1  0  0  0
 80163  1  0  0  0
 80164  1  0  0  0
 81165  1  0  0  0
 81166  1  0  0  0
 81167  1  0  0  0
 81 83  1  0  0  0
 82 83  1  0  0  0
 82168  1  0  0  0
 82169  1  0  0  0
 82 86  1  0  0  0
 83170  1  0  0  0
 85171  1  0  0  0
 86172  1  0  0  0
M  CHG  2  85   1  86   1
M  ISO  4   1 100  68 101  83 101  84 100
M  END
> <chiral flag>
0

> <version>
0

> <s_m_source_file>
/data/baiqing/PycharmProjects/Reinvent-master-3.2/result/LINK_invent/BTK/process_docking_weight1_custom_sum_contain_oxygen_bond_distance_aromatic_linkinvent_7_9_3/rearranged_h_0171.sdf

> <i_m_source_file_index>
30

> <r_mmod_Potential_Energy-OPLS-2005>
31.9975414276123

> <r_mmod_Stretch_Energy-OPLS-2005>
49.0362396240234

> <r_mmod_Bend_Energy-OPLS-2005>
132.500473022461

> <r_mmod_Torsional_Energy-OPLS-2005>
426.743194580078

> <r_mmod_Improper_Torsional_Energy-OPLS-2005>
13.6760692596436

> <r_mmod_Van_der_Waal_Energy-OPLS-2005>
140.428466796875

> <r_mmod_Electrostatic_Energy-OPLS-2005>
166.651489257812

> <r_mmod_Solvation_Energy-OPLS-2005>
-916.449401855469

> <b_mmod_Minimization_Converged-OPLS-2005>
0

> <r_mmod_RMS_Derivative-OPLS-2005>
2.04941654205322

$$$$
30
                    3D
 Structure written by MMmdl.
161170  0  0  1  0            999 V2000
  -30.6555  -14.6803   20.5022 C   0  0  0  0  0  0
  -30.4243  -12.4273   19.4562 C   0  0  0  0  0  0
  -29.4994  -12.5083   18.2228 C   0  0  0  0  0  0
  -28.0239  -12.3390   18.6357 C   0  0  0  0  0  0
  -27.6428  -13.2191   19.8549 C   0  0  2  0  0  0
  -28.6908  -13.0940   20.9825 C   0  0  0  0  0  0
  -25.2484  -13.8162   20.5646 C   0  0  0  0  0  0
  -24.1785  -13.0418   20.9202 C   0  0  0  0  0  0
  -24.6383  -11.6901   20.8768 C   0  0  0  0  0  0
  -23.9064  -10.4280   21.0422 C   0  0  0  0  0  0
  -24.3619   -9.4194   21.9198 C   0  0  0  0  0  0
  -23.6294   -8.2232   22.0764 C   0  0  0  0  0  0
  -22.4278   -8.0273   21.3550 C   0  0  0  0  0  0
  -21.9917   -9.0244   20.4650 C   0  0  0  0  0  0
  -22.7243  -10.2123   20.3063 C   0  0  0  0  0  0
  -21.6851   -6.0737   22.5283 C   0  0  0  0  0  0
  -21.4010   -6.5644   23.8215 C   0  0  0  0  0  0
  -21.3662   -5.6797   24.9178 C   0  0  0  0  0  0
  -21.6050   -4.3058   24.7228 C   0  0  0  0  0  0
  -21.8817   -3.8151   23.4348 C   0  0  0  0  0  0
  -21.9189   -4.6965   22.3405 C   0  0  0  0  0  0
  -22.7809  -13.5205   21.1862 C   0  0  0  0  0  0
  -22.1660   -4.2149   21.0983 F   0  0  0  0  0  0
  -21.5634   -3.4542   25.7740 F   0  0  0  0  0  0
  -29.9869  -13.4775   20.4067 N   0  0  0  0  0  0
  -26.2927  -12.9358   20.3292 N   0  0  0  0  0  0
  -25.9307  -11.6512   20.5773 N   0  0  0  0  0  0
  -22.0466  -12.8192   22.0430 N   0  0  0  0  0  0
  -25.4088  -15.1875   20.3976 N   0  0  0  0  0  0
  -31.8370  -14.7342   20.1439 O   0  0  0  0  0  0
  -21.6639   -6.8876   21.4244 O   0  0  0  0  0  0
  -22.3487  -14.5507   20.6710 O   0  0  0  0  0  0
  -24.6262  -31.8590   23.2015 C   0  0  0  0  0  0
  -25.9108  -32.4774   23.8340 C   0  0  1  0  0  0
  -27.2229  -27.3081   20.1042 C   0  0  0  0  0  0
  -25.5918  -33.8574   24.2261 N   0  0  0  0  0  0
  -23.4195  -30.4830   21.5451 C   0  0  2  0  0  0
  -24.8640  -28.9379   20.1077 C   0  0  0  0  0  0
  -22.7468  -29.4622   22.4940 C   0  0  0  0  0  0
  -18.0281  -28.1389   22.8494 C   0  0  0  0  0  0
  -24.1484  -36.7299   23.2637 C   0  0  0  0  0  0
  -25.9608  -30.7854   21.3733 C   0  0  0  0  0  0
  -26.0328  -29.4118   20.7146 C   0  0  0  0  0  0
  -27.2103  -28.6057   20.7089 C   0  0  0  0  0  0
  -26.0201  -26.8810   19.4942 C   0  0  0  0  0  0
  -24.8603  -27.6785   19.4908 C   0  0  0  0  0  0
  -23.6322  -29.8181   20.1599 C   0  0  0  0  0  0
  -25.4111  -36.3079   24.0322 C   0  0  1  0  0  0
  -20.5879  -28.3692   23.1290 C   0  0  2  0  0  0
  -20.6776  -26.9417   22.5416 C   0  0  0  0  0  0
  -19.5747  -26.6383   21.5224 C   0  0  0  0  0  0
  -18.1921  -26.7934   22.1627 C   0  0  0  0  0  0
  -19.1533  -28.8858   23.2886 C   0  0  0  0  0  0
  -18.9456  -30.1462   23.8897 C   0  0  0  0  0  0
  -17.6456  -30.6597   24.0562 C   0  0  0  0  0  0
  -25.9055  -34.9451   23.5096 C   0  0  0  0  0  0
  -16.5347  -29.9094   23.6332 C   0  0  0  0  0  0
  -16.7268  -28.6509   23.0361 C   0  0  0  0  0  0
  -26.4490  -31.6586   25.0716 C   0  0  0  0  0  0
  -25.3712  -31.3717   26.1430 C   0  0  0  0  0  0
  -27.0343  -30.3011   24.6177 C   0  0  0  0  0  0
  -27.6046  -32.4327   25.7487 C   0  0  0  0  0  0
  -27.5588  -37.1790   24.8454 C   0  0  0  0  0  0
  -21.4180  -29.3047   22.3686 N   0  0  0  0  0  0
  -26.4284  -37.3785   23.9422 N   0  0  0  0  0  0
  -24.6880  -31.0590   22.0970 N   0  0  0  0  0  0
  -23.4193  -28.8165   23.3023 O   0  0  0  0  0  0
  -28.3526  -26.4738   20.1781 O   0  0  0  0  0  0
  -26.5634  -34.8925   22.4670 O   0  0  0  0  0  0
  -23.5424  -32.1399   23.7338 O   0  0  0  0  0  0
  -30.2078  -22.1250   21.0622 C   0  0  0  0  0  0
  -29.8886  -23.4989   20.7925 C   0  0  0  0  0  0
  -29.4737  -21.0526   20.4624 C   0  0  0  0  0  0
  -28.7807  -23.8220   19.9640 C   0  0  0  0  0  0
  -28.3415  -21.4904   19.7027 C   0  0  0  0  0  0
  -28.7312  -17.7501   21.6368 C   0  0  0  0  0  0
  -28.8335  -16.2076   21.5139 C   0  0  0  0  0  0
  -30.4613  -17.1985   20.1234 C   0  0  0  0  0  0
  -29.4113  -18.3375   20.4014 C   0  0  2  0  0  0
  -31.3848  -21.7902   21.9787 C   0  0  0  0  0  0
  -30.7704  -24.6154   21.3467 C   0  0  0  0  0  0
  -28.5059  -25.2577   19.3441 C   0  0  0  0  0  0
  -28.0246  -22.8028   19.4763 N   0  0  0  0  0  0
  -29.9555  -15.8783   20.6234 N   0  0  0  0  0  0
  -29.9809  -19.7032   20.6350 N   0  0  0  0  0  0
  -27.2814  -20.3583   18.9434 Cl  0  0  0  0  0  0
  -31.4651  -12.5394   19.1478 H   0  0  0  0  0  0
  -30.3629  -11.4410   19.9196 H   0  0  0  0  0  0
  -29.7730  -11.7459   17.4921 H   0  0  0  0  0  0
  -29.6343  -13.4706   17.7262 H   0  0  0  0  0  0
  -27.8686  -11.2871   18.8774 H   0  0  0  0  0  0
  -27.3676  -12.5558   17.7924 H   0  0  0  0  0  0
  -27.6515  -14.2468   19.4934 H   0  0  0  0  0  0
  -28.7279  -12.0673   21.3501 H   0  0  0  0  0  0
  -28.4253  -13.6898   21.8517 H   0  0  0  0  0  0
  -25.2760   -9.5675   22.4781 H   0  0  0  0  0  0
  -24.0003   -7.4622   22.7484 H   0  0  0  0  0  0
  -21.0855   -8.8760   19.8948 H   0  0  0  0  0  0
  -22.3703  -10.9666   19.6176 H   0  0  0  0  0  0
  -21.2002   -7.6153   23.9715 H   0  0  0  0  0  0
  -21.1492   -6.0533   25.9082 H   0  0  0  0  0  0
  -22.0597   -2.7616   23.2846 H   0  0  0  0  0  0
  -22.4087  -11.9853   22.4807 H   0  0  0  0  0  0
  -21.1082  -13.1205   22.2639 H   0  0  0  0  0  0
  -24.6373  -15.8365   20.5068 H   0  0  0  0  0  0
  -26.2533  -15.6302   20.0602 H   0  0  0  0  0  0
  -26.7175  -32.5438   23.1088 H   0  0  0  0  0  0
  -25.0033  -33.9704   25.0382 H   0  0  0  0  0  0
  -22.7132  -31.3039   21.4037 H   0  0  0  0  0  0
  -23.3771  -35.9604   23.3232 H   0  0  0  0  0  0
  -24.3587  -36.9007   22.2070 H   0  0  0  0  0  0
  -23.7203  -37.6457   23.6722 H   0  0  0  0  0  0
  -26.0897  -31.5478   20.6036 H   0  0  0  0  0  0
  -26.8421  -30.8359   22.0011 H   0  0  0  0  0  0
  -28.1057  -28.9635   21.1977 H   0  0  0  0  0  0
  -25.9174  -25.9061   19.0457 H   0  0  0  0  0  0
  -23.9590  -27.3043   19.0240 H   0  0  0  0  0  0
  -23.7468  -30.5934   19.4014 H   0  0  0  0  0  0
  -22.7516  -29.2459   19.8626 H   0  0  0  0  0  0
  -25.1287  -36.1921   25.0813 H   0  0  0  0  0  0
  -20.9971  -28.3274   24.1412 H   0  0  0  0  0  0
  -20.5694  -26.2299   23.3616 H   0  0  0  0  0  0
  -21.6642  -26.7464   22.1199 H   0  0  0  0  0  0
  -19.6903  -25.6292   21.1257 H   0  0  0  0  0  0
  -19.6678  -27.3188   20.6747 H   0  0  0  0  0  0
  -17.4201  -26.6703   21.4016 H   0  0  0  0  0  0
  -18.0297  -26.0069   22.9011 H   0  0  0  0  0  0
  -19.7933  -30.7278   24.2260 H   0  0  0  0  0  0
  -17.5016  -31.6277   24.5163 H   0  0  0  0  0  0
  -15.5347  -30.3001   23.7647 H   0  0  0  0  0  0
  -15.8669  -28.0824   22.7079 H   0  0  0  0  0  0
  -24.5886  -30.7076   25.7742 H   0  0  0  0  0  0
  -24.8895  -32.2877   26.4860 H   0  0  0  0  0  0
  -25.8021  -30.8879   27.0203 H   0  0  0  0  0  0
  -26.2920  -29.6747   24.1215 H   0  0  0  0  0  0
  -27.4054  -29.7287   25.4688 H   0  0  0  0  0  0
  -27.8784  -30.4299   23.9398 H   0  0  0  0  0  0
  -27.2667  -33.3656   26.2014 H   0  0  0  0  0  0
  -28.3879  -32.6837   25.0323 H   0  0  0  0  0  0
  -28.0682  -31.8474   26.5437 H   0  0  0  0  0  0
  -28.2552  -38.0140   24.7590 H   0  0  0  0  0  0
  -28.1137  -36.2676   24.6175 H   0  0  0  0  0  0
  -27.2314  -37.1313   25.8853 H   0  0  0  0  0  0
  -20.9351  -29.8779   21.6907 H   0  0  0  0  0  0
  -26.0157  -38.2846   24.1476 H   0  0  0  0  0  0
  -29.2622  -18.0633   22.5371 H   0  0  0  0  0  0
  -27.6992  -18.0884   21.7401 H   0  0  0  0  0  0
  -27.9112  -15.8267   21.0869 H   0  0  0  0  0  0
  -28.9620  -15.7593   22.5000 H   0  0  0  0  0  0
  -31.3967  -17.4131   20.6433 H   0  0  0  0  0  0
  -30.6971  -17.1402   19.0593 H   0  0  0  0  0  0
  -28.7103  -18.3366   19.5696 H   0  0  0  0  0  0
  -31.5779  -22.5709   22.7127 H   0  0  0  0  0  0
  -32.2891  -21.6384   21.3900 H   0  0  0  0  0  0
  -31.1984  -20.8891   22.5627 H   0  0  0  0  0  0
  -31.8269  -24.3589   21.2643 H   0  0  0  0  0  0
  -30.5406  -24.7924   22.3982 H   0  0  0  0  0  0
  -30.6514  -25.5595   20.8190 H   0  0  0  0  0  0
  -27.7444  -25.1639   18.5750 H   0  0  0  0  0  0
  -29.3961  -25.4642   18.7491 H   0  0  0  0  0  0
  -30.8826  -19.6715   21.0988 H   0  0  0  0  0  0
  1 25  1  0  0  0
  1 30  2  0  0  0
  1 84  1  0  0  0
  2  3  1  0  0  0
  2 25  1  0  0  0
  2 87  1  0  0  0
  2 88  1  0  0  0
  3  4  1  0  0  0
  3 89  1  0  0  0
  3 90  1  0  0  0
  4  5  1  0  0  0
  4 91  1  0  0  0
  4 92  1  0  0  0
  5  6  1  0  0  0
  5 26  1  0  0  0
  5 93  1  0  0  0
  6 25  1  0  0  0
  6 94  1  0  0  0
  6 95  1  0  0  0
  7  8  2  0  0  0
  7 26  1  0  0  0
  7 29  1  0  0  0
  8  9  1  0  0  0
  8 22  1  0  0  0
  9 10  1  0  0  0
  9 27  2  0  0  0
 10 11  2  0  0  0
 10 15  1  0  0  0
 11 12  1  0  0  0
 11 96  1  0  0  0
 12 13  2  0  0  0
 12 97  1  0  0  0
 13 14  1  0  0  0
 13 31  1  0  0  0
 14 15  2  0  0  0
 14 98  1  0  0  0
 15 99  1  0  0  0
 16 17  2  0  0  0
 16 21  1  0  0  0
 16 31  1  0  0  0
 17 18  1  0  0  0
 17100  1  0  0  0
 18 19  2  0  0  0
 18101  1  0  0  0
 19 20  1  0  0  0
 19 24  1  0  0  0
 20 21  2  0  0  0
 20102  1  0  0  0
 21 23  1  0  0  0
 22 28  1  0  0  0
 22 32  2  0  0  0
 26 27  1  0  0  0
 28103  1  0  0  0
 28104  1  0  0  0
 29105  1  0  0  0
 29106  1  0  0  0
 33 34  1  0  0  0
 33 66  1  0  0  0
 33 70  2  0  0  0
 34 36  1  0  0  0
 34 59  1  0  0  0
 34107  1  0  0  0
 35 44  2  0  0  0
 35 45  1  0  0  0
 35 68  1  0  0  0
 36 56  1  0  0  0
 36108  1  0  0  0
 37 39  1  0  0  0
 37 47  1  0  0  0
 37 66  1  0  0  0
 37109  1  0  0  0
 38 43  2  0  0  0
 38 46  1  0  0  0
 38 47  1  0  0  0
 39 64  1  0  0  0
 39 67  2  0  0  0
 40 52  1  0  0  0
 40 53  2  0  0  0
 40 58  1  0  0  0
 41110  1  0  0  0
 41111  1  0  0  0
 41112  1  0  0  0
 41 48  1  0  0  0
 42 43  1  0  0  0
 42 66  1  0  0  0
 42113  1  0  0  0
 42114  1  0  0  0
 43 44  1  0  0  0
 44115  1  0  0  0
 45 46  2  0  0  0
 45116  1  0  0  0
 46117  1  0  0  0
 47118  1  0  0  0
 47119  1  0  0  0
 48 56  1  0  0  0
 48 65  1  0  0  0
 48120  1  0  0  0
 49 50  1  0  0  0
 49 53  1  0  0  0
 49 64  1  0  0  0
 49121  1  0  0  0
 50 51  1  0  0  0
 50122  1  0  0  0
 50123  1  0  0  0
 51 52  1  0  0  0
 51124  1  0  0  0
 51125  1  0  0  0
 52126  1  0  0  0
 52127  1  0  0  0
 53 54  1  0  0  0
 54 55  2  0  0  0
 54128  1  0  0  0
 55 57  1  0  0  0
 55129  1  0  0  0
 56 69  2  0  0  0
 57 58  2  0  0  0
 57130  1  0  0  0
 58131  1  0  0  0
 59 60  1  0  0  0
 59 61  1  0  0  0
 59 62  1  0  0  0
 60132  1  0  0  0
 60133  1  0  0  0
 60134  1  0  0  0
 61135  1  0  0  0
 61136  1  0  0  0
 61137  1  0  0  0
 62138  1  0  0  0
 62139  1  0  0  0
 62140  1  0  0  0
 63 65  1  0  0  0
 63141  1  0  0  0
 63142  1  0  0  0
 63143  1  0  0  0
 64144  1  0  0  0
 65145  1  0  0  0
 68 82  1  0  0  0
 71 72  2  0  0  0
 71 73  1  0  0  0
 71 80  1  0  0  0
 72 74  1  0  0  0
 72 81  1  0  0  0
 73 75  2  0  0  0
 73 85  1  0  0  0
 74 82  1  0  0  0
 74 83  2  0  0  0
 75 83  1  0  0  0
 75 86  1  0  0  0
 76 77  1  0  0  0
 76 79  1  0  0  0
 76146  1  0  0  0
 76147  1  0  0  0
 77 84  1  0  0  0
 77148  1  0  0  0
 77149  1  0  0  0
 78 79  1  0  0  0
 78 84  1  0  0  0
 78150  1  0  0  0
 78151  1  0  0  0
 79 85  1  0  0  0
 79152  1  0  0  0
 80153  1  0  0  0
 80154  1  0  0  0
 80155  1  0  0  0
 81156  1  0  0  0
 81157  1  0  0  0
 81158  1  0  0  0
 82159  1  0  0  0
 82160  1  0  0  0
 85161  1  0  0  0
M  ISO  4   1 100  68 101  82 101  84 100
M  END
> <chiral flag>
0

> <version>
0

> <s_m_source_file>
/data/baiqing/PycharmProjects/Reinvent-master-3.2/result/LINK_invent/BTK/process_docking_weight1_custom_sum_contain_oxygen_bond_distance_aromatic_linkinvent_7_9_3/rearranged_h_0171.sdf

> <i_m_source_file_index>
31

> <r_mmod_Potential_Energy-OPLS-2005>
232.390747070312

> <r_mmod_Stretch_Energy-OPLS-2005>
90.5603713989258

> <r_mmod_Bend_Energy-OPLS-2005>
220.573104858398

> <r_mmod_Torsional_Energy-OPLS-2005>
310.946258544922

> <r_mmod_Improper_Torsional_Energy-OPLS-2005>
12.53147315979

> <r_mmod_Van_der_Waal_Energy-OPLS-2005>
155.052398681641

> <r_mmod_Electrostatic_Energy-OPLS-2005>
-404.123504638672

> <r_mmod_Solvation_Energy-OPLS-2005>
-209.620300292969

> <b_mmod_Minimization_Converged-OPLS-2005>
0

> <r_mmod_RMS_Derivative-OPLS-2005>
0.952914535999298

$$$$
31
                    3D
 Structure written by MMmdl.
156165  0  0  1  0            999 V2000
  -30.5228  -15.0241   20.4137 C   0  0  0  0  0  0
  -30.4342  -12.6373   19.5142 C   0  0  0  0  0  0
  -29.5218  -12.5410   18.2685 C   0  0  0  0  0  0
  -28.0563  -12.3193   18.6825 C   0  0  0  0  0  0
  -27.6248  -13.2560   19.8403 C   0  0  2  0  0  0
  -28.6642  -13.3151   20.9799 C   0  0  0  0  0  0
  -25.2441  -13.8238   20.5737 C   0  0  0  0  0  0
  -24.1768  -13.0445   20.9242 C   0  0  0  0  0  0
  -24.6399  -11.6933   20.8762 C   0  0  0  0  0  0
  -23.9091  -10.4294   21.0405 C   0  0  0  0  0  0
  -24.3635   -9.4210   21.9187 C   0  0  0  0  0  0
  -23.6303   -8.2246   22.0754 C   0  0  0  0  0  0
  -22.4286   -8.0280   21.3540 C   0  0  0  0  0  0
  -21.9929   -9.0258   20.4647 C   0  0  0  0  0  0
  -22.7259  -10.2138   20.3054 C   0  0  0  0  0  0
  -21.6860   -6.0742   22.5278 C   0  0  0  0  0  0
  -21.4018   -6.5649   23.8208 C   0  0  0  0  0  0
  -21.3654   -5.6803   24.9170 C   0  0  0  0  0  0
  -21.6038   -4.3065   24.7226 C   0  0  0  0  0  0
  -21.8816   -3.8158   23.4350 C   0  0  0  0  0  0
  -21.9195   -4.6971   22.3406 C   0  0  0  0  0  0
  -22.7786  -13.5208   21.1886 C   0  0  0  0  0  0
  -22.1663   -4.2160   21.0981 F   0  0  0  0  0  0
  -21.5624   -3.4543   25.7738 F   0  0  0  0  0  0
  -29.9309  -13.7515   20.3802 N   0  0  0  0  0  0
  -26.2861  -12.9484   20.3258 N   0  0  0  0  0  0
  -25.9331  -11.6606   20.5754 N   0  0  0  0  0  0
  -22.0453  -12.8176   22.0441 N   0  0  0  0  0  0
  -25.4136  -15.1964   20.4174 N   0  0  0  0  0  0
  -31.7300  -15.0386   20.1369 O   0  0  0  0  0  0
  -21.6641   -6.8882   21.4239 O   0  0  0  0  0  0
  -22.3460  -14.5515   20.6738 O   0  0  0  0  0  0
  -24.6478  -31.8381   23.1829 C   0  0  0  0  0  0
  -25.9226  -32.4655   23.8235 C   0  0  1  0  0  0
  -27.2110  -27.0763   20.1779 C   0  0  0  0  0  0
  -25.5958  -33.8468   24.2152 N   0  0  0  0  0  0
  -23.4549  -30.4562   21.5294 C   0  0  2  0  0  0
  -24.9032  -28.8717   20.1065 C   0  0  0  0  0  0
  -22.7592  -29.4515   22.4838 C   0  0  0  0  0  0
  -18.0304  -28.1406   22.8477 C   0  0  0  0  0  0
  -24.1481  -36.7233   23.2664 C   0  0  0  0  0  0
  -26.0123  -30.6944   21.3887 C   0  0  0  0  0  0
  -26.0800  -29.3003   20.7325 C   0  0  0  0  0  0
  -27.2314  -28.4205   20.7471 C   0  0  0  0  0  0
  -26.0127  -26.7629   19.4985 C   0  0  0  0  0  0
  -24.8867  -27.6186   19.4709 C   0  0  0  0  0  0
  -23.6823  -29.7818   20.1486 C   0  0  0  0  0  0
  -25.4124  -36.3014   24.0319 C   0  0  1  0  0  0
  -20.5920  -28.3739   23.1230 C   0  0  2  0  0  0
  -20.6778  -26.9428   22.5430 C   0  0  0  0  0  0
  -19.5762  -26.6383   21.5233 C   0  0  0  0  0  0
  -18.1933  -26.7949   22.1624 C   0  0  0  0  0  0
  -19.1565  -28.8881   23.2837 C   0  0  0  0  0  0
  -18.9496  -30.1479   23.8860 C   0  0  0  0  0  0
  -17.6491  -30.6595   24.0560 C   0  0  0  0  0  0
  -25.9091  -34.9388   23.5045 C   0  0  0  0  0  0
  -16.5379  -29.9092   23.6347 C   0  0  0  0  0  0
  -16.7287  -28.6516   23.0356 C   0  0  0  0  0  0
  -26.4534  -31.6544   25.0699 C   0  0  0  0  0  0
  -25.3703  -31.3764   26.1395 C   0  0  0  0  0  0
  -27.0407  -30.2936   24.6316 C   0  0  0  0  0  0
  -27.6067  -32.4317   25.7467 C   0  0  0  0  0  0
  -27.5533  -37.1799   24.8492 C   0  0  0  0  0  0
  -21.4273  -29.3037   22.3579 N   0  0  0  0  0  0
  -26.4288  -37.3718   23.9371 N   0  0  0  0  0  0
  -24.7248  -31.0197   22.0886 N   0  0  0  0  0  0
  -23.4194  -28.8074   23.3031 O   0  0  0  0  0  0
  -28.2523  -26.0682   20.2919 O   0  0  0  0  0  0
  -26.5679  -34.8885   22.4641 O   0  0  0  0  0  0
  -23.5582  -32.1288   23.7019 O   0  0  0  0  0  0
  -30.6952  -20.4496   19.5369 C   0  0  0  0  0  0
  -29.1935  -18.9508   20.6539 C   0  0  0  0  0  0
  -29.5056  -20.3765   20.2838 C   0  0  0  0  0  0
  -31.4555  -19.3023   19.2303 C   0  0  0  0  0  0
  -30.0203  -17.7414   20.2965 C   0  0  0  0  0  0
  -27.2953  -22.1225   20.6047 C   0  0  0  0  0  0
  -27.0463  -23.6767   20.8556 C   0  0  0  0  0  0
  -29.2800  -23.3539   20.1315 C   0  0  0  0  0  0
  -28.8172  -21.8579   20.6915 C   0  0  2  0  0  0
  -28.0909  -24.5091   20.0525 C   0  0  2  0  0  0
  -32.7480  -19.4502   18.4543 C   0  0  0  0  0  0
  -31.1306  -18.0358   19.5840 N   0  0  0  0  0  0
  -29.7634  -16.2390   20.6019 N   0  0  0  0  0  0
  -31.4661  -12.7973   19.1978 H   0  0  0  0  0  0
  -30.4412  -11.6950   20.0634 H   0  0  0  0  0  0
  -29.8520  -11.7314   17.6160 H   0  0  0  0  0  0
  -29.6024  -13.4578   17.6835 H   0  0  0  0  0  0
  -27.9530  -11.2788   18.9910 H   0  0  0  0  0  0
  -27.3954  -12.4479   17.8247 H   0  0  0  0  0  0
  -27.5789  -14.2519   19.4004 H   0  0  0  0  0  0
  -28.7698  -12.3467   21.4698 H   0  0  0  0  0  0
  -28.3497  -14.0190   21.7519 H   0  0  0  0  0  0
  -25.2777   -9.5686   22.4765 H   0  0  0  0  0  0
  -24.0015   -7.4636   22.7468 H   0  0  0  0  0  0
  -21.0868   -8.8775   19.8945 H   0  0  0  0  0  0
  -22.3717  -10.9679   19.6164 H   0  0  0  0  0  0
  -21.2011   -7.6155   23.9717 H   0  0  0  0  0  0
  -21.1475   -6.0530   25.9072 H   0  0  0  0  0  0
  -22.0603   -2.7620   23.2843 H   0  0  0  0  0  0
  -22.4099  -11.9822   22.4791 H   0  0  0  0  0  0
  -21.1062  -13.1164   22.2667 H   0  0  0  0  0  0
  -24.6458  -15.8498   20.5241 H   0  0  0  0  0  0
  -26.2548  -15.6343   20.0657 H   0  0  0  0  0  0
  -26.7277  -32.5238   23.0938 H   0  0  0  0  0  0
  -25.0074  -33.9575   25.0280 H   0  0  0  0  0  0
  -22.7617  -31.2835   21.3682 H   0  0  0  0  0  0
  -23.3710  -35.9611   23.3456 H   0  0  0  0  0  0
  -24.3535  -36.8745   22.2054 H   0  0  0  0  0  0
  -23.7312  -37.6497   23.6622 H   0  0  0  0  0  0
  -26.1738  -31.4444   20.6134 H   0  0  0  0  0  0
  -26.8822  -30.7465   22.0315 H   0  0  0  0  0  0
  -28.1230  -28.7420   21.2669 H   0  0  0  0  0  0
  -25.9135  -25.8036   19.0128 H   0  0  0  0  0  0
  -23.9897  -27.2845   18.9657 H   0  0  0  0  0  0
  -23.8269  -30.5554   19.3942 H   0  0  0  0  0  0
  -22.7941  -29.2289   19.8372 H   0  0  0  0  0  0
  -25.1329  -36.1857   25.0817 H   0  0  0  0  0  0
  -21.0002  -28.3332   24.1357 H   0  0  0  0  0  0
  -20.5712  -26.2329   23.3656 H   0  0  0  0  0  0
  -21.6632  -26.7447   22.1196 H   0  0  0  0  0  0
  -19.6947  -25.6303   21.1250 H   0  0  0  0  0  0
  -19.6703  -27.3199   20.6773 H   0  0  0  0  0  0
  -17.4218  -26.6716   21.4010 H   0  0  0  0  0  0
  -18.0279  -26.0105   22.9029 H   0  0  0  0  0  0
  -19.7975  -30.7293   24.2190 H   0  0  0  0  0  0
  -17.5059  -31.6282   24.5173 H   0  0  0  0  0  0
  -15.5378  -30.2990   23.7704 H   0  0  0  0  0  0
  -15.8681  -28.0839   22.7075 H   0  0  0  0  0  0
  -24.5948  -30.7027   25.7735 H   0  0  0  0  0  0
  -24.8818  -32.2939   26.4673 H   0  0  0  0  0  0
  -25.7987  -30.9072   27.0266 H   0  0  0  0  0  0
  -26.3043  -29.6633   24.1319 H   0  0  0  0  0  0
  -27.4009  -29.7269   25.4910 H   0  0  0  0  0  0
  -27.8932  -30.4164   23.9641 H   0  0  0  0  0  0
  -27.2718  -33.3721   26.1848 H   0  0  0  0  0  0
  -28.3951  -32.6709   25.0320 H   0  0  0  0  0  0
  -28.0619  -31.8565   26.5538 H   0  0  0  0  0  0
  -28.2657  -37.9972   24.7349 H   0  0  0  0  0  0
  -28.0908  -36.2508   24.6566 H   0  0  0  0  0  0
  -27.2225  -37.1746   25.8889 H   0  0  0  0  0  0
  -20.9495  -29.8736   21.6743 H   0  0  0  0  0  0
  -26.0168  -38.2807   24.1300 H   0  0  0  0  0  0
  -31.0648  -21.4150   19.2199 H   0  0  0  0  0  0
  -28.3052  -18.7840   21.2494 H   0  0  0  0  0  0
  -26.9380  -21.8513   19.6111 H   0  0  0  0  0  0
  -26.7485  -21.5057   21.3186 H   0  0  0  0  0  0
  -27.1641  -23.8858   21.9202 H   0  0  0  0  0  0
  -26.0240  -23.9555   20.5940 H   0  0  0  0  0  0
  -29.6725  -23.2468   19.1211 H   0  0  0  0  0  0
  -30.1134  -23.7126   20.7370 H   0  0  0  0  0  0
  -29.0301  -21.9034   21.7609 H   0  0  0  0  0  0
  -27.7525  -24.4600   19.0158 H   0  0  0  0  0  0
  -33.2582  -20.3747   18.7261 H   0  0  0  0  0  0
  -32.5436  -19.4748   17.3845 H   0  0  0  0  0  0
  -33.4320  -18.6256   18.6567 H   0  0  0  0  0  0
  -28.8281  -16.0583   20.9301 H   0  0  0  0  0  0
  1 25  1  0  0  0
  1 30  2  0  0  0
  1 83  1  0  0  0
  2  3  1  0  0  0
  2 25  1  0  0  0
  2 84  1  0  0  0
  2 85  1  0  0  0
  3  4  1  0  0  0
  3 86  1  0  0  0
  3 87  1  0  0  0
  4  5  1  0  0  0
  4 88  1  0  0  0
  4 89  1  0  0  0
  5  6  1  0  0  0
  5 26  1  0  0  0
  5 90  1  0  0  0
  6 25  1  0  0  0
  6 91  1  0  0  0
  6 92  1  0  0  0
  7  8  2  0  0  0
  7 26  1  0  0  0
  7 29  1  0  0  0
  8  9  1  0  0  0
  8 22  1  0  0  0
  9 10  1  0  0  0
  9 27  2  0  0  0
 10 11  2  0  0  0
 10 15  1  0  0  0
 11 12  1  0  0  0
 11 93  1  0  0  0
 12 13  2  0  0  0
 12 94  1  0  0  0
 13 14  1  0  0  0
 13 31  1  0  0  0
 14 15  2  0  0  0
 14 95  1  0  0  0
 15 96  1  0  0  0
 16 17  2  0  0  0
 16 21  1  0  0  0
 16 31  1  0  0  0
 17 18  1  0  0  0
 17 97  1  0  0  0
 18 19  2  0  0  0
 18 98  1  0  0  0
 19 20  1  0  0  0
 19 24  1  0  0  0
 20 21  2  0  0  0
 20 99  1  0  0  0
 21 23  1  0  0  0
 22 28  1  0  0  0
 22 32  2  0  0  0
 26 27  1  0  0  0
 28100  1  0  0  0
 28101  1  0  0  0
 29102  1  0  0  0
 29103  1  0  0  0
 33 34  1  0  0  0
 33 66  1  0  0  0
 33 70  2  0  0  0
 34 36  1  0  0  0
 34 59  1  0  0  0
 34104  1  0  0  0
 35 44  2  0  0  0
 35 45  1  0  0  0
 35 68  1  0  0  0
 36 56  1  0  0  0
 36105  1  0  0  0
 37 39  1  0  0  0
 37 47  1  0  0  0
 37 66  1  0  0  0
 37106  1  0  0  0
 38 43  2  0  0  0
 38 46  1  0  0  0
 38 47  1  0  0  0
 39 64  1  0  0  0
 39 67  2  0  0  0
 40 52  1  0  0  0
 40 53  2  0  0  0
 40 58  1  0  0  0
 41107  1  0  0  0
 41108  1  0  0  0
 41109  1  0  0  0
 41 48  1  0  0  0
 42 43  1  0  0  0
 42 66  1  0  0  0
 42110  1  0  0  0
 42111  1  0  0  0
 43 44  1  0  0  0
 44112  1  0  0  0
 45 46  2  0  0  0
 45113  1  0  0  0
 46114  1  0  0  0
 47115  1  0  0  0
 47116  1  0  0  0
 48 56  1  0  0  0
 48 65  1  0  0  0
 48117  1  0  0  0
 49 50  1  0  0  0
 49 53  1  0  0  0
 49 64  1  0  0  0
 49118  1  0  0  0
 50 51  1  0  0  0
 50119  1  0  0  0
 50120  1  0  0  0
 51 52  1  0  0  0
 51121  1  0  0  0
 51122  1  0  0  0
 52123  1  0  0  0
 52124  1  0  0  0
 53 54  1  0  0  0
 54 55  2  0  0  0
 54125  1  0  0  0
 55 57  1  0  0  0
 55126  1  0  0  0
 56 69  2  0  0  0
 57 58  2  0  0  0
 57127  1  0  0  0
 58128  1  0  0  0
 59 60  1  0  0  0
 59 61  1  0  0  0
 59 62  1  0  0  0
 60129  1  0  0  0
 60130  1  0  0  0
 60131  1  0  0  0
 61132  1  0  0  0
 61133  1  0  0  0
 61134  1  0  0  0
 62135  1  0  0  0
 62136  1  0  0  0
 62137  1  0  0  0
 63 65  1  0  0  0
 63138  1  0  0  0
 63139  1  0  0  0
 63140  1  0  0  0
 64141  1  0  0  0
 65142  1  0  0  0
 68 80  1  0  0  0
 71 73  2  0  0  0
 71 74  1  0  0  0
 71143  1  0  0  0
 72 73  1  0  0  0
 72 75  2  0  0  0
 72144  1  0  0  0
 73 79  1  0  0  0
 74 81  1  0  0  0
 74 82  2  0  0  0
 75 82  1  0  0  0
 75 83  1  0  0  0
 76 77  1  0  0  0
 76 79  1  0  0  0
 76145  1  0  0  0
 76146  1  0  0  0
 77 80  1  0  0  0
 77147  1  0  0  0
 77148  1  0  0  0
 78 79  1  0  0  0
 78 80  1  0  0  0
 78149  1  0  0  0
 78150  1  0  0  0
 79151  1  0  0  0
 80152  1  0  0  0
 81153  1  0  0  0
 81154  1  0  0  0
 81155  1  0  0  0
 83156  1  0  0  0
M  ISO  4   1 100  68 101  80 101  83 100
M  END
> <chiral flag>
0

> <version>
0

> <s_m_source_file>
/data/baiqing/PycharmProjects/Reinvent-master-3.2/result/LINK_invent/BTK/process_docking_weight1_custom_sum_contain_oxygen_bond_distance_aromatic_linkinvent_7_9_3/rearranged_h_0171.sdf

> <i_m_source_file_index>
32

> <r_mmod_Potential_Energy-OPLS-2005>
507.170593261719

> <r_mmod_Stretch_Energy-OPLS-2005>
303.155517578125

> <r_mmod_Bend_Energy-OPLS-2005>
330.574096679688

> <r_mmod_Torsional_Energy-OPLS-2005>
244.985458374023

> <r_mmod_Improper_Torsional_Energy-OPLS-2005>
3.74211668968201

> <r_mmod_Van_der_Waal_Energy-OPLS-2005>
127.028305053711

> <r_mmod_Electrostatic_Energy-OPLS-2005>
-515.47119140625

> <r_mmod_Solvation_Energy-OPLS-2005>
-233.475891113281

> <b_mmod_Minimization_Converged-OPLS-2005>
0

> <r_mmod_RMS_Derivative-OPLS-2005>
2.81247639656067

$$$$
32
                    3D
 Structure written by MMmdl.
169179  0  0  1  0            999 V2000
  -30.6678  -14.5942   20.5267 C   0  0  0  0  0  0
  -30.4217  -12.3740   19.4420 C   0  0  0  0  0  0
  -29.4912  -12.5022   18.2166 C   0  0  0  0  0  0
  -28.0155  -12.3534   18.6350 C   0  0  0  0  0  0
  -27.6497  -13.2232   19.8669 C   0  0  2  0  0  0
  -28.6950  -13.0793   20.9943 C   0  0  0  0  0  0
  -25.2533  -13.8196   20.5721 C   0  0  0  0  0  0
  -24.1791  -13.0440   20.9194 C   0  0  0  0  0  0
  -24.6373  -11.6918   20.8748 C   0  0  0  0  0  0
  -23.9050  -10.4295   21.0403 C   0  0  0  0  0  0
  -24.3592   -9.4224   21.9189 C   0  0  0  0  0  0
  -23.6279   -8.2251   22.0761 C   0  0  0  0  0  0
  -22.4275   -8.0277   21.3540 C   0  0  0  0  0  0
  -21.9898   -9.0256   20.4656 C   0  0  0  0  0  0
  -22.7215  -10.2137   20.3069 C   0  0  0  0  0  0
  -21.6846   -6.0727   22.5272 C   0  0  0  0  0  0
  -21.4015   -6.5635   23.8199 C   0  0  0  0  0  0
  -21.3668   -5.6794   24.9166 C   0  0  0  0  0  0
  -21.6028   -4.3053   24.7222 C   0  0  0  0  0  0
  -21.8824   -3.8146   23.4347 C   0  0  0  0  0  0
  -21.9198   -4.6954   22.3399 C   0  0  0  0  0  0
  -22.7827  -13.5249   21.1860 C   0  0  0  0  0  0
  -22.1666   -4.2142   21.0972 F   0  0  0  0  0  0
  -21.5627   -3.4542   25.7737 F   0  0  0  0  0  0
  -30.0135  -13.3980   20.4243 N   0  0  0  0  0  0
  -26.2970  -12.9390   20.3384 N   0  0  0  0  0  0
  -25.9310  -11.6530   20.5794 N   0  0  0  0  0  0
  -22.0485  -12.8237   22.0427 N   0  0  0  0  0  0
  -25.4228  -15.1917   20.4152 N   0  0  0  0  0  0
  -31.8205  -14.7403   20.1070 O   0  0  0  0  0  0
  -21.6640   -6.8873   21.4236 O   0  0  0  0  0  0
  -22.3513  -14.5561   20.6731 O   0  0  0  0  0  0
  -24.6206  -31.8656   23.2036 C   0  0  0  0  0  0
  -25.9076  -32.4800   23.8368 C   0  0  1  0  0  0
  -27.2220  -27.3381   20.1198 C   0  0  0  0  0  0
  -25.5923  -33.8603   24.2304 N   0  0  0  0  0  0
  -23.4142  -30.4891   21.5489 C   0  0  2  0  0  0
  -24.8592  -28.9471   20.1101 C   0  0  0  0  0  0
  -22.7463  -29.4661   22.4978 C   0  0  0  0  0  0
  -18.0313  -28.1334   22.8489 C   0  0  0  0  0  0
  -24.1504  -36.7297   23.2641 C   0  0  0  0  0  0
  -25.9544  -30.7966   21.3776 C   0  0  0  0  0  0
  -26.0271  -29.4269   20.7160 C   0  0  0  0  0  0
  -27.2123  -28.6361   20.7080 C   0  0  0  0  0  0
  -26.0335  -26.9082   19.4844 C   0  0  0  0  0  0
  -24.8652  -27.6915   19.4848 C   0  0  0  0  0  0
  -23.6233  -29.8233   20.1637 C   0  0  0  0  0  0
  -25.4136  -36.3115   24.0342 C   0  0  1  0  0  0
  -20.5913  -28.3671   23.1287 C   0  0  2  0  0  0
  -20.6840  -26.9406   22.5413 C   0  0  0  0  0  0
  -19.5810  -26.6359   21.5224 C   0  0  0  0  0  0
  -18.1970  -26.7883   22.1613 C   0  0  0  0  0  0
  -19.1555  -28.8822   23.2869 C   0  0  0  0  0  0
  -18.9493  -30.1425   23.8869 C   0  0  0  0  0  0
  -17.6489  -30.6560   24.0544 C   0  0  0  0  0  0
  -25.9057  -34.9474   23.5127 C   0  0  0  0  0  0
  -16.5380  -29.9050   23.6319 C   0  0  0  0  0  0
  -16.7300  -28.6459   23.0354 C   0  0  0  0  0  0
  -26.4458  -31.6578   25.0724 C   0  0  0  0  0  0
  -25.3719  -31.3657   26.1471 C   0  0  0  0  0  0
  -27.0305  -30.3016   24.6136 C   0  0  0  0  0  0
  -27.6000  -32.4349   25.7482 C   0  0  0  0  0  0
  -27.5597  -37.1812   24.8473 C   0  0  0  0  0  0
  -21.4198  -29.3023   22.3659 N   0  0  0  0  0  0
  -26.4312  -37.3809   23.9407 N   0  0  0  0  0  0
  -24.6808  -31.0679   22.0981 N   0  0  0  0  0  0
  -23.4197  -28.8247   23.3082 O   0  0  0  0  0  0
  -28.3463  -26.5021   20.1631 O   0  0  0  0  0  0
  -26.5629  -34.8915   22.4696 O   0  0  0  0  0  0
  -23.5395  -32.1463   23.7393 O   0  0  0  0  0  0
  -30.8772  -20.8225   23.3918 C   0  0  0  0  0  0
  -29.7554  -20.2699   20.9156 C   0  0  0  0  0  0
  -30.0913  -21.8114   22.7750 C   0  0  0  0  0  0
  -30.4516  -19.2100   21.6023 C   0  0  0  0  0  0
  -31.1101  -19.5669   22.8060 C   0  0  0  0  0  0
  -29.6211  -21.6104   21.4448 C   0  0  0  0  0  0
  -28.9414  -22.7191   24.9113 C   0  0  0  0  0  0
  -28.3741  -23.5648   23.7986 C   0  0  0  0  0  0
  -30.3449  -16.5264   22.0770 C   0  0  0  0  0  0
  -29.6455  -16.9149   20.1765 C   0  0  0  0  0  0
  -29.7634  -22.9796   23.6631 C   0  0  0  0  0  0
  -30.5656  -17.7164   21.1143 C   0  0  0  0  0  0
  -32.0769  -18.6348   23.5248 C   0  0  0  0  0  0
  -30.5589  -24.6050   21.1275 C   0  0  0  0  0  0
  -28.1085  -25.0727   20.4469 C   0  0  0  0  0  0
  -29.3220  -24.0529   20.4009 C   0  0  2  0  0  0
  -29.9322  -15.6691   20.9510 N   0  0  0  0  0  0
  -28.9309  -22.6249   20.6988 N   0  0  0  0  0  0
  -31.4638  -12.4841   19.1373 H   0  0  0  0  0  0
  -30.3413  -11.3795   19.8833 H   0  0  0  0  0  0
  -29.7418  -11.7453   17.4726 H   0  0  0  0  0  0
  -29.6407  -13.4685   17.7312 H   0  0  0  0  0  0
  -27.8422  -11.3009   18.8636 H   0  0  0  0  0  0
  -27.3583  -12.5934   17.7983 H   0  0  0  0  0  0
  -27.6697  -14.2612   19.5317 H   0  0  0  0  0  0
  -28.6962  -12.0681   21.4017 H   0  0  0  0  0  0
  -28.4508  -13.7396   21.8270 H   0  0  0  0  0  0
  -25.2729   -9.5705   22.4768 H   0  0  0  0  0  0
  -23.9993   -7.4649   22.7479 H   0  0  0  0  0  0
  -21.0828   -8.8769   19.8960 H   0  0  0  0  0  0
  -22.3667  -10.9676   19.6186 H   0  0  0  0  0  0
  -21.2010   -7.6146   23.9701 H   0  0  0  0  0  0
  -21.1477   -6.0522   25.9062 H   0  0  0  0  0  0
  -22.0596   -2.7609   23.2845 H   0  0  0  0  0  0
  -22.4090  -11.9880   22.4784 H   0  0  0  0  0  0
  -21.1142  -13.1299   22.2706 H   0  0  0  0  0  0
  -24.6589  -15.8494   20.5305 H   0  0  0  0  0  0
  -26.2896  -15.6362   20.1368 H   0  0  0  0  0  0
  -26.7137  -32.5471   23.1106 H   0  0  0  0  0  0
  -25.0080  -33.9751   25.0462 H   0  0  0  0  0  0
  -22.7046  -31.3064   21.4093 H   0  0  0  0  0  0
  -23.3780  -35.9607   23.3320 H   0  0  0  0  0  0
  -24.3590  -36.8916   22.2046 H   0  0  0  0  0  0
  -23.7234  -37.6497   23.6662 H   0  0  0  0  0  0
  -26.1022  -31.5645   20.6182 H   0  0  0  0  0  0
  -26.8277  -30.8315   22.0156 H   0  0  0  0  0  0
  -28.1085  -29.0048   21.1885 H   0  0  0  0  0  0
  -25.9794  -25.9617   18.9718 H   0  0  0  0  0  0
  -23.9756  -27.3183   18.9962 H   0  0  0  0  0  0
  -23.7298  -30.6007   19.4057 H   0  0  0  0  0  0
  -22.7431  -29.2495   19.8693 H   0  0  0  0  0  0
  -25.1311  -36.1982   25.0837 H   0  0  0  0  0  0
  -20.9997  -28.3267   24.1412 H   0  0  0  0  0  0
  -20.5840  -26.2267   23.3603 H   0  0  0  0  0  0
  -21.6698  -26.7505   22.1144 H   0  0  0  0  0  0
  -19.6992  -25.6276   21.1244 H   0  0  0  0  0  0
  -19.6734  -27.3173   20.6754 H   0  0  0  0  0  0
  -17.4269  -26.6649   21.3979 H   0  0  0  0  0  0
  -18.0339  -25.9992   22.8974 H   0  0  0  0  0  0
  -19.7977  -30.7240   24.2215 H   0  0  0  0  0  0
  -17.5060  -31.6241   24.5146 H   0  0  0  0  0  0
  -15.5382  -30.2946   23.7665 H   0  0  0  0  0  0
  -15.8699  -28.0771   22.7080 H   0  0  0  0  0  0
  -24.5901  -30.6985   25.7814 H   0  0  0  0  0  0
  -24.8876  -32.2783   26.4954 H   0  0  0  0  0  0
  -25.8092  -30.8814   27.0210 H   0  0  0  0  0  0
  -26.2848  -29.6756   24.1210 H   0  0  0  0  0  0
  -27.4089  -29.7264   25.4594 H   0  0  0  0  0  0
  -27.8689  -30.4324   23.9287 H   0  0  0  0  0  0
  -27.2571  -33.3655   26.2008 H   0  0  0  0  0  0
  -28.3788  -32.6918   25.0295 H   0  0  0  0  0  0
  -28.0666  -31.8522   26.5428 H   0  0  0  0  0  0
  -28.2617  -38.0105   24.7569 H   0  0  0  0  0  0
  -28.1109  -36.2658   24.6289 H   0  0  0  0  0  0
  -27.2315  -37.1441   25.8869 H   0  0  0  0  0  0
  -20.9393  -29.8626   21.6753 H   0  0  0  0  0  0
  -26.0216  -38.2893   24.1403 H   0  0  0  0  0  0
  -31.2867  -21.0248   24.3737 H   0  0  0  0  0  0
  -29.3134  -20.0418   19.9583 H   0  0  0  0  0  0
  -28.5154  -21.7268   25.0523 H   0  0  0  0  0  0
  -29.2208  -23.2373   25.8283 H   0  0  0  0  0  0
  -28.2854  -24.6318   23.9996 H   0  0  0  0  0  0
  -27.5911  -23.1434   23.1721 H   0  0  0  0  0  0
  -29.5388  -16.7017   22.7914 H   0  0  0  0  0  0
  -31.2454  -16.1903   22.5943 H   0  0  0  0  0  0
  -29.9808  -16.9081   19.1376 H   0  0  0  0  0  0
  -28.6004  -17.2207   20.2398 H   0  0  0  0  0  0
  -30.6381  -23.6106   23.8112 H   0  0  0  0  0  0
  -31.5754  -17.6360   20.7069 H   0  0  0  0  0  0
  -32.7823  -19.2072   24.1301 H   0  0  0  0  0  0
  -32.6812  -18.0635   22.8204 H   0  0  0  0  0  0
  -31.5566  -17.9457   24.1906 H   0  0  0  0  0  0
  -30.9281  -25.4895   20.6029 H   0  0  0  0  0  0
  -31.3789  -23.8856   21.1614 H   0  0  0  0  0  0
  -30.3252  -24.9455   22.1325 H   0  0  0  0  0  0
  -27.6321  -25.0144   21.4262 H   0  0  0  0  0  0
  -27.3852  -24.6692   19.7391 H   0  0  0  0  0  0
  -29.6263  -24.0160   19.3540 H   0  0  0  0  0  0
  -28.3902  -22.2407   19.9278 H   0  0  0  0  0  0
  1 25  1  0  0  0
  1 30  2  0  0  0
  1 87  1  0  0  0
  2  3  1  0  0  0
  2 25  1  0  0  0
  2 89  1  0  0  0
  2 90  1  0  0  0
  3  4  1  0  0  0
  3 91  1  0  0  0
  3 92  1  0  0  0
  4  5  1  0  0  0
  4 93  1  0  0  0
  4 94  1  0  0  0
  5  6  1  0  0  0
  5 26  1  0  0  0
  5 95  1  0  0  0
  6 25  1  0  0  0
  6 96  1  0  0  0
  6 97  1  0  0  0
  7  8  2  0  0  0
  7 26  1  0  0  0
  7 29  1  0  0  0
  8  9  1  0  0  0
  8 22  1  0  0  0
  9 10  1  0  0  0
  9 27  2  0  0  0
 10 11  2  0  0  0
 10 15  1  0  0  0
 11 12  1  0  0  0
 11 98  1  0  0  0
 12 13  2  0  0  0
 12 99  1  0  0  0
 13 14  1  0  0  0
 13 31  1  0  0  0
 14 15  2  0  0  0
 14100  1  0  0  0
 15101  1  0  0  0
 16 17  2  0  0  0
 16 21  1  0  0  0
 16 31  1  0  0  0
 17 18  1  0  0  0
 17102  1  0  0  0
 18 19  2  0  0  0
 18103  1  0  0  0
 19 20  1  0  0  0
 19 24  1  0  0  0
 20 21  2  0  0  0
 20104  1  0  0  0
 21 23  1  0  0  0
 22 28  1  0  0  0
 22 32  2  0  0  0
 26 27  1  0  0  0
 28105  1  0  0  0
 28106  1  0  0  0
 29107  1  0  0  0
 29108  1  0  0  0
 33 34  1  0  0  0
 33 66  1  0  0  0
 33 70  2  0  0  0
 34 36  1  0  0  0
 34 59  1  0  0  0
 34109  1  0  0  0
 35 44  2  0  0  0
 35 45  1  0  0  0
 35 68  1  0  0  0
 36 56  1  0  0  0
 36110  1  0  0  0
 37 39  1  0  0  0
 37 47  1  0  0  0
 37 66  1  0  0  0
 37111  1  0  0  0
 38 43  2  0  0  0
 38 46  1  0  0  0
 38 47  1  0  0  0
 39 64  1  0  0  0
 39 67  2  0  0  0
 40 52  1  0  0  0
 40 53  2  0  0  0
 40 58  1  0  0  0
 41112  1  0  0  0
 41113  1  0  0  0
 41114  1  0  0  0
 41 48  1  0  0  0
 42 43  1  0  0  0
 42 66  1  0  0  0
 42115  1  0  0  0
 42116  1  0  0  0
 43 44  1  0  0  0
 44117  1  0  0  0
 45 46  2  0  0  0
 45118  1  0  0  0
 46119  1  0  0  0
 47120  1  0  0  0
 47121  1  0  0  0
 48 56  1  0  0  0
 48 65  1  0  0  0
 48122  1  0  0  0
 49 50  1  0  0  0
 49 53  1  0  0  0
 49 64  1  0  0  0
 49123  1  0  0  0
 50 51  1  0  0  0
 50124  1  0  0  0
 50125  1  0  0  0
 51 52  1  0  0  0
 51126  1  0  0  0
 51127  1  0  0  0
 52128  1  0  0  0
 52129  1  0  0  0
 53 54  1  0  0  0
 54 55  2  0  0  0
 54130  1  0  0  0
 55 57  1  0  0  0
 55131  1  0  0  0
 56 69  2  0  0  0
 57 58  2  0  0  0
 57132  1  0  0  0
 58133  1  0  0  0
 59 60  1  0  0  0
 59 61  1  0  0  0
 59 62  1  0  0  0
 60134  1  0  0  0
 60135  1  0  0  0
 60136  1  0  0  0
 61137  1  0  0  0
 61138  1  0  0  0
 61139  1  0  0  0
 62140  1  0  0  0
 62141  1  0  0  0
 62142  1  0  0  0
 63 65  1  0  0  0
 63143  1  0  0  0
 63144  1  0  0  0
 63145  1  0  0  0
 64146  1  0  0  0
 65147  1  0  0  0
 68 85  1  0  0  0
 71 73  2  0  0  0
 71 75  1  0  0  0
 71148  1  0  0  0
 72 74  1  0  0  0
 72 76  2  0  0  0
 72149  1  0  0  0
 73 76  1  0  0  0
 73 81  1  0  0  0
 74 75  2  0  0  0
 74 82  1  0  0  0
 75 83  1  0  0  0
 76 88  1  0  0  0
 77 78  1  0  0  0
 77 81  1  0  0  0
 77150  1  0  0  0
 77151  1  0  0  0
 78 81  1  0  0  0
 78152  1  0  0  0
 78153  1  0  0  0
 79 82  1  0  0  0
 79 87  1  0  0  0
 79154  1  0  0  0
 79155  1  0  0  0
 80 82  1  0  0  0
 80 87  1  0  0  0
 80156  1  0  0  0
 80157  1  0  0  0
 81158  1  0  0  0
 82159  1  0  0  0
 83160  1  0  0  0
 83161  1  0  0  0
 83162  1  0  0  0
 84163  1  0  0  0
 84164  1  0  0  0
 84165  1  0  0  0
 84 86  1  0  0  0
 85 86  1  0  0  0
 85166  1  0  0  0
 85167  1  0  0  0
 86 88  1  0  0  0
 86168  1  0  0  0
 88169  1  0  0  0
M  ISO  4   1 100  68 101  85 101  87 100
M  END
> <chiral flag>
0

> <version>
0

> <s_m_source_file>
/data/baiqing/PycharmProjects/Reinvent-master-3.2/result/LINK_invent/BTK/process_docking_weight1_custom_sum_contain_oxygen_bond_distance_aromatic_linkinvent_7_9_3/rearranged_h_0171.sdf

> <i_m_source_file_index>
33

> <r_mmod_Potential_Energy-OPLS-2005>
210.748748779297

> <r_mmod_Stretch_Energy-OPLS-2005>
77.8775405883789

> <r_mmod_Bend_Energy-OPLS-2005>
169.923553466797

> <r_mmod_Torsional_Energy-OPLS-2005>
331.845581054688

> <r_mmod_Improper_Torsional_Energy-OPLS-2005>
13.3794193267822

> <r_mmod_Van_der_Waal_Energy-OPLS-2005>
146.446960449219

> <r_mmod_Electrostatic_Energy-OPLS-2005>
-364.178863525391

> <r_mmod_Solvation_Energy-OPLS-2005>
-202.77864074707

> <b_mmod_Minimization_Converged-OPLS-2005>
0

> <r_mmod_RMS_Derivative-OPLS-2005>
3.93765711784363

$$$$
33
                    3D
 Structure written by MMmdl.
165174  0  0  1  0            999 V2000
  -30.5618  -14.0287   21.0380 C   0  0  0  0  0  0
  -30.7559  -12.4047   19.0994 C   0  0  0  0  0  0
  -29.8005  -12.6990   17.8556 C   0  0  0  0  0  0
  -28.2945  -13.0586   18.1126 C   0  0  0  0  0  0
  -28.2505  -13.8237   19.4687 C   0  0  2  0  0  0
  -28.8828  -12.5806   20.2882 C   0  0  0  0  0  0
  -25.1473  -14.7430   20.8519 C   0  0  0  0  0  0
  -24.0214  -13.7292   21.1770 C   0  0  0  0  0  0
  -24.5754  -12.5531   21.5452 C   0  0  0  0  0  0
  -23.9583  -11.0055   21.2460 C   0  0  0  0  0  0
  -24.3910   -9.8432   22.0124 C   0  0  0  0  0  0
  -23.7419   -8.5478   22.0814 C   0  0  0  0  0  0
  -22.5592   -8.2586   21.3574 C   0  0  0  0  0  0
  -22.1690   -9.3048   20.4795 C   0  0  0  0  0  0
  -22.8410  -10.5885   20.4158 C   0  0  0  0  0  0
  -21.7795   -6.1824   22.4975 C   0  0  0  0  0  0
  -21.4690   -6.6344   23.8026 C   0  0  0  0  0  0
  -21.3839   -5.7283   24.8860 C   0  0  0  0  0  0
  -21.6012   -4.3525   24.6845 C   0  0  0  0  0  0
  -21.8725   -3.8809   23.3894 C   0  0  0  0  0  0
  -21.9485   -4.7828   22.3063 C   0  0  0  0  0  0
  -22.4955  -13.8605   21.2308 C   0  0  0  0  0  0
  -22.1802   -4.2848   21.0677 F   0  0  0  0  0  0
  -21.5450   -3.4870   25.7283 F   0  0  0  0  0  0
  -30.2340  -12.9062   20.3761 N   0  0  0  0  0  0
  -26.5727  -14.7915   20.1364 N   0  0  0  0  0  0
  -24.9878  -14.0110   21.0918 N   0  0  0  0  0  0
  -21.8259  -13.0214   22.0259 N   0  0  0  0  0  0
  -26.6616  -15.1884   20.0488 N   0  0  0  0  0  0
  -31.5129  -14.7245   20.6274 O   0  0  0  0  0  0
  -21.8324   -7.0510   21.4039 O   0  0  0  0  0  0
  -21.9624  -14.7324   20.5720 O   0  0  0  0  0  0
  -24.7477  -31.7027   23.1025 C   0  0  0  0  0  0
  -25.9762  -32.3939   23.7745 C   0  0  1  0  0  0
  -26.5304  -25.6979   20.3528 C   0  0  0  0  0  0
  -25.6070  -33.7852   24.1512 N   0  0  0  0  0  0
  -23.5665  -30.3172   21.4787 C   0  0  2  0  0  0
  -24.8985  -28.4894   20.0925 C   0  0  0  0  0  0
  -22.7867  -29.3874   22.4491 C   0  0  0  0  0  0
  -18.0327  -28.1443   22.8419 C   0  0  0  0  0  0
  -24.1499  -36.6931   23.2676 C   0  0  0  0  0  0
  -26.1381  -30.0606   21.5222 C   0  0  0  0  0  0
  -26.0472  -28.5434   20.8738 C   0  0  0  0  0  0
  -26.8467  -27.1871   20.9618 C   0  0  0  0  0  0
  -25.5613  -26.1240   19.3944 C   0  0  0  0  0  0
  -24.7746  -27.3331   19.3046 C   0  0  0  0  0  0
  -23.8252  -29.6112   20.1080 C   0  0  0  0  0  0
  -25.4187  -36.2606   24.0219 C   0  0  1  0  0  0
  -20.5965  -28.3789   23.1047 C   0  0  2  0  0  0
  -20.6752  -26.9398   22.5424 C   0  0  0  0  0  0
  -19.5756  -26.6328   21.5217 C   0  0  0  0  0  0
  -18.1934  -26.7958   22.1595 C   0  0  0  0  0  0
  -19.1605  -28.8954   23.2702 C   0  0  0  0  0  0
  -18.9521  -30.1527   23.8772 C   0  0  0  0  0  0
  -17.6513  -30.6615   24.0543 C   0  0  0  0  0  0
  -25.9220  -34.9014   23.4762 C   0  0  0  0  0  0
  -16.5393  -29.9094   23.6370 C   0  0  0  0  0  0
  -16.7307  -28.6522   23.0369 C   0  0  0  0  0  0
  -26.4721  -31.6397   25.0723 C   0  0  0  0  0  0
  -25.3593  -31.3958   26.1201 C   0  0  0  0  0  0
  -27.0798  -30.2661   24.7304 C   0  0  0  0  0  0
  -27.6030  -32.4488   25.7515 C   0  0  0  0  0  0
  -27.5537  -37.1627   24.8468 C   0  0  0  0  0  0
  -21.4482  -29.2916   22.3268 N   0  0  0  0  0  0
  -26.4241  -37.3463   23.9401 N   0  0  0  0  0  0
  -24.8631  -30.7596   22.0779 N   0  0  0  0  0  0
  -23.4060  -28.7531   23.3068 O   0  0  0  0  0  0
  -26.8749  -23.9549   20.5207 O   0  0  0  0  0  0
  -26.5968  -34.8750   22.4456 O   0  0  0  0  0  0
  -23.6403  -32.0622   23.5510 O   0  0  0  0  0  0
  -26.6943  -15.8700   22.2098 C   0  0  0  0  0  0
  -25.7721  -17.1907   20.7522 C   0  0  0  0  0  0
  -24.9281  -16.2281   19.0938 C   0  0  0  0  0  0
  -27.1077  -13.7049   21.9267 C   0  0  0  0  0  0
  -25.1603  -14.0134   18.6279 C   0  0  0  0  0  0
  -25.1202  -18.9893   18.9817 C   0  0  0  0  0  0
  -25.6878  -19.3999   20.4854 C   0  0  1  0  0  0
  -24.4103  -17.5451   18.4309 C   0  0  0  0  0  0
  -24.5864  -13.4093   17.3699 C   0  0  0  0  0  0
  -24.5377  -19.6865   21.4588 C   0  0  0  0  0  0
  -22.9063  -17.6350   18.7327 C   0  0  0  0  0  0
  -24.5873  -17.4380   16.9115 C   0  0  0  0  0  0
  -28.4965  -13.5397   22.7111 C   0  0  0  0  0  0
  -26.3700  -21.8027   20.2261 C   0  0  0  0  0  0
  -26.3098  -12.6629   19.9544 N   0  0  0  0  0  0
  -29.7394  -14.2697   22.1336 N   0  0  0  0  0  0
  -31.7471  -12.8172   18.9004 H   0  0  0  0  0  0
  -30.9195  -11.3288   19.1928 H   0  0  0  0  0  0
  -29.8699  -11.8865   17.1312 H   0  0  0  0  0  0
  -30.2321  -13.5572   17.3380 H   0  0  0  0  0  0
  -27.6808  -12.1601   18.0378 H   0  0  0  0  0  0
  -27.9354  -13.7113   17.3173 H   0  0  0  0  0  0
  -28.9424  -14.6459   19.2629 H   0  0  0  0  0  0
  -28.7678  -11.6267   19.7618 H   0  0  0  0  0  0
  -28.4268  -11.9859   21.0651 H   0  0  0  0  0  0
  -25.2406   -9.9870   22.6640 H   0  0  0  0  0  0
  -24.1528   -7.7943   22.7384 H   0  0  0  0  0  0
  -21.3045   -9.1504   19.8503 H   0  0  0  0  0  0
  -22.4118  -11.3319   19.7595 H   0  0  0  0  0  0
  -21.3005   -7.6868   23.9762 H   0  0  0  0  0  0
  -21.1601   -6.0948   25.8768 H   0  0  0  0  0  0
  -22.0212   -2.8247   23.2213 H   0  0  0  0  0  0
  -22.3062  -12.3130   22.5600 H   0  0  0  0  0  0
  -20.8186  -13.0739   22.0799 H   0  0  0  0  0  0
  -26.0983  -15.8372   19.4739 H   0  0  0  0  0  0
  -26.9302  -15.7184   20.8902 H   0  0  0  0  0  0
  -26.7894  -32.4170   23.0471 H   0  0  0  0  0  0
  -24.9997  -33.8775   24.9516 H   0  0  0  0  0  0
  -22.9402  -31.1884   21.2761 H   0  0  0  0  0  0
  -23.3807  -35.9207   23.3225 H   0  0  0  0  0  0
  -24.3528  -36.8761   22.2112 H   0  0  0  0  0  0
  -23.7221  -37.6032   23.6900 H   0  0  0  0  0  0
  -26.5021  -30.7076   20.7229 H   0  0  0  0  0  0
  -26.9530  -30.0590   22.2293 H   0  0  0  0  0  0
  -27.6641  -27.2072   21.6691 H   0  0  0  0  0  0
  -25.2160  -25.3375   18.7389 H   0  0  0  0  0  0
  -23.9584  -27.3103   18.5956 H   0  0  0  0  0  0
  -24.1296  -30.3610   19.3764 H   0  0  0  0  0  0
  -22.8860  -29.2033   19.7294 H   0  0  0  0  0  0
  -25.1436  -36.1264   25.0707 H   0  0  0  0  0  0
  -21.0039  -28.3481   24.1176 H   0  0  0  0  0  0
  -20.5554  -26.2428   23.3731 H   0  0  0  0  0  0
  -21.6611  -26.7249   22.1286 H   0  0  0  0  0  0
  -19.6893  -25.6206   21.1327 H   0  0  0  0  0  0
  -19.6740  -27.3072   20.6703 H   0  0  0  0  0  0
  -17.4210  -26.6705   21.3990 H   0  0  0  0  0  0
  -18.0287  -26.0137   22.9023 H   0  0  0  0  0  0
  -19.8002  -30.7359   24.2091 H   0  0  0  0  0  0
  -17.5069  -31.6283   24.5165 H   0  0  0  0  0  0
  -15.5392  -30.2967   23.7766 H   0  0  0  0  0  0
  -15.8699  -28.0815   22.7149 H   0  0  0  0  0  0
  -24.5845  -30.7244   25.7485 H   0  0  0  0  0  0
  -24.8724  -32.3249   26.4173 H   0  0  0  0  0  0
  -25.7581  -30.9411   27.0277 H   0  0  0  0  0  0
  -26.3519  -29.5841   24.2910 H   0  0  0  0  0  0
  -27.4393  -29.7695   25.6330 H   0  0  0  0  0  0
  -27.9474  -30.3575   24.0768 H   0  0  0  0  0  0
  -27.2482  -33.3961   26.1592 H   0  0  0  0  0  0
  -28.4039  -32.6773   25.0471 H   0  0  0  0  0  0
  -28.0488  -31.9005   26.5827 H   0  0  0  0  0  0
  -28.2486  -37.9984   24.7513 H   0  0  0  0  0  0
  -28.1106  -36.2496   24.6310 H   0  0  0  0  0  0
  -27.2245  -37.1248   25.8868 H   0  0  0  0  0  0
  -20.9891  -29.8535   21.6238 H   0  0  0  0  0  0
  -25.9997  -38.2475   24.1430 H   0  0  0  0  0  0
  -27.1967  -16.3483   23.0389 H   0  0  0  0  0  0
  -26.0312  -19.0620   18.3863 H   0  0  0  0  0  0
  -24.5179  -19.8227   18.6170 H   0  0  0  0  0  0
  -23.5894  -13.8071   17.1842 H   0  0  0  0  0  0
  -24.5156  -12.3269   17.4697 H   0  0  0  0  0  0
  -25.2179  -13.6458   16.5142 H   0  0  0  0  0  0
  -23.7308  -18.9625   21.3615 H   0  0  0  0  0  0
  -24.1134  -20.6771   21.2952 H   0  0  0  0  0  0
  -24.8934  -19.6426   22.4889 H   0  0  0  0  0  0
  -22.7196  -17.6691   19.8053 H   0  0  0  0  0  0
  -22.3684  -16.7708   18.3415 H   0  0  0  0  0  0
  -22.4560  -18.5265   18.2961 H   0  0  0  0  0  0
  -25.6375  -17.3415   16.6340 H   0  0  0  0  0  0
  -24.1937  -18.3215   16.4087 H   0  0  0  0  0  0
  -24.0598  -16.5728   16.5083 H   0  0  0  0  0  0
  -28.7153  -12.5101   23.0026 H   0  0  0  0  0  0
  -28.3164  -14.0178   23.6747 H   0  0  0  0  0  0
  -25.4757  -22.0664   19.6606 H   0  0  0  0  0  0
  -27.1367  -21.6363   19.4698 H   0  0  0  0  0  0
  -29.9752  -15.1145   22.6329 H   0  0  0  0  0  0
  1 25  1  0  0  0
  1 30  2  0  0  0
  1 86  1  0  0  0
  2  3  1  0  0  0
  2 25  1  0  0  0
  2 87  1  0  0  0
  2 88  1  0  0  0
  3  4  1  0  0  0
  3 89  1  0  0  0
  3 90  1  0  0  0
  4  5  1  0  0  0
  4 91  1  0  0  0
  4 92  1  0  0  0
  5  6  1  0  0  0
  5 26  1  0  0  0
  5 93  1  0  0  0
  6 25  1  0  0  0
  6 94  1  0  0  0
  6 95  1  0  0  0
  7  8  2  0  0  0
  7 26  1  0  0  0
  7 29  1  0  0  0
  8  9  1  0  0  0
  8 22  1  0  0  0
  9 10  1  0  0  0
  9 27  2  0  0  0
 10 11  2  0  0  0
 10 15  1  0  0  0
 11 12  1  0  0  0
 11 96  1  0  0  0
 12 13  2  0  0  0
 12 97  1  0  0  0
 13 14  1  0  0  0
 13 31  1  0  0  0
 14 15  2  0  0  0
 14 98  1  0  0  0
 15 99  1  0  0  0
 16 17  2  0  0  0
 16 21  1  0  0  0
 16 31  1  0  0  0
 17 18  1  0  0  0
 17100  1  0  0  0
 18 19  2  0  0  0
 18101  1  0  0  0
 19 20  1  0  0  0
 19 24  1  0  0  0
 20 21  2  0  0  0
 20102  1  0  0  0
 21 23  1  0  0  0
 22 28  1  0  0  0
 22 32  2  0  0  0
 26 27  1  0  0  0
 28103  1  0  0  0
 28104  1  0  0  0
 29105  1  0  0  0
 29106  1  0  0  0
 33 34  1  0  0  0
 33 66  1  0  0  0
 33 70  2  0  0  0
 34 36  1  0  0  0
 34 59  1  0  0  0
 34107  1  0  0  0
 35 44  2  0  0  0
 35 45  1  0  0  0
 35 68  1  0  0  0
 36 56  1  0  0  0
 36108  1  0  0  0
 37 39  1  0  0  0
 37 47  1  0  0  0
 37 66  1  0  0  0
 37109  1  0  0  0
 38 43  2  0  0  0
 38 46  1  0  0  0
 38 47  1  0  0  0
 39 64  1  0  0  0
 39 67  2  0  0  0
 40 52  1  0  0  0
 40 53  2  0  0  0
 40 58  1  0  0  0
 41110  1  0  0  0
 41111  1  0  0  0
 41112  1  0  0  0
 41 48  1  0  0  0
 42 43  1  0  0  0
 42 66  1  0  0  0
 42113  1  0  0  0
 42114  1  0  0  0
 43 44  1  0  0  0
 44115  1  0  0  0
 45 46  2  0  0  0
 45116  1  0  0  0
 46117  1  0  0  0
 47118  1  0  0  0
 47119  1  0  0  0
 48 56  1  0  0  0
 48 65  1  0  0  0
 48120  1  0  0  0
 49 50  1  0  0  0
 49 53  1  0  0  0
 49 64  1  0  0  0
 49121  1  0  0  0
 50 51  1  0  0  0
 50122  1  0  0  0
 50123  1  0  0  0
 51 52  1  0  0  0
 51124  1  0  0  0
 51125  1  0  0  0
 52126  1  0  0  0
 52127  1  0  0  0
 53 54  1  0  0  0
 54 55  2  0  0  0
 54128  1  0  0  0
 55 57  1  0  0  0
 55129  1  0  0  0
 56 69  2  0  0  0
 57 58  2  0  0  0
 57130  1  0  0  0
 58131  1  0  0  0
 59 60  1  0  0  0
 59 61  1  0  0  0
 59 62  1  0  0  0
 60132  1  0  0  0
 60133  1  0  0  0
 60134  1  0  0  0
 61135  1  0  0  0
 61136  1  0  0  0
 61137  1  0  0  0
 62138  1  0  0  0
 62139  1  0  0  0
 62140  1  0  0  0
 63 65  1  0  0  0
 63141  1  0  0  0
 63142  1  0  0  0
 63143  1  0  0  0
 64144  1  0  0  0
 65145  1  0  0  0
 68 84  1  0  0  0
 71 72  2  0  0  0
 71 74  1  0  0  0
 71146  1  0  0  0
 72 73  1  0  0  0
 72 77  1  0  0  0
 73 75  2  0  0  0
 73 78  1  0  0  0
 74 83  1  0  0  0
 74 85  2  0  0  0
 75 79  1  0  0  0
 75 85  1  0  0  0
 76 77  1  0  0  0
 76 78  1  0  0  0
 76147  1  0  0  0
 76148  1  0  0  0
 77 80  1  0  0  0
 77 84  1  0  0  0
 78 81  1  0  0  0
 78 82  1  0  0  0
 79149  1  0  0  0
 79150  1  0  0  0
 79151  1  0  0  0
 80152  1  0  0  0
 80153  1  0  0  0
 80154  1  0  0  0
 81155  1  0  0  0
 81156  1  0  0  0
 81157  1  0  0  0
 82158  1  0  0  0
 82159  1  0  0  0
 82160  1  0  0  0
 83 86  1  0  0  0
 83161  1  0  0  0
 83162  1  0  0  0
 84163  1  0  0  0
 84164  1  0  0  0
 86165  1  0  0  0
M  ISO  4   1 100  68 101  84 101  86 100
M  END
> <chiral flag>
0

> <version>
0

> <s_m_source_file>
/data/baiqing/PycharmProjects/Reinvent-master-3.2/result/LINK_invent/BTK/process_docking_weight1_custom_sum_contain_oxygen_bond_distance_aromatic_linkinvent_7_9_3/rearranged_h_0171.sdf

> <i_m_source_file_index>
34

> <r_mmod_Potential_Energy-OPLS-2005>
26096.2578125

> <r_mmod_Stretch_Energy-OPLS-2005>
13883.3828125

> <r_mmod_Bend_Energy-OPLS-2005>
3992.22729492188

> <r_mmod_Torsional_Energy-OPLS-2005>
488.353424072266

> <r_mmod_Improper_Torsional_Energy-OPLS-2005>
66.8973693847656

> <r_mmod_Van_der_Waal_Energy-OPLS-2005>
4471.498046875

> <r_mmod_Electrostatic_Energy-OPLS-2005>
-628.147583007812

> <r_mmod_Solvation_Energy-OPLS-2005>
-223.196411132812

> <b_mmod_Minimization_Converged-OPLS-2005>
0

> <r_mmod_RMS_Derivative-OPLS-2005>
3.39391112327576

$$$$
34
                    3D
 Structure written by MMmdl.
170180  0  0  1  0            999 V2000
  -30.6890  -14.5741   20.5258 C   0  0  0  0  0  0
  -30.4251  -12.3628   19.4391 C   0  0  0  0  0  0
  -29.4976  -12.5050   18.2140 C   0  0  0  0  0  0
  -28.0209  -12.3560   18.6300 C   0  0  0  0  0  0
  -27.6561  -13.2133   19.8722 C   0  0  2  0  0  0
  -28.7077  -13.0319   20.9908 C   0  0  0  0  0  0
  -25.2579  -13.8182   20.5715 C   0  0  0  0  0  0
  -24.1832  -13.0450   20.9206 C   0  0  0  0  0  0
  -24.6392  -11.6921   20.8761 C   0  0  0  0  0  0
  -23.9066  -10.4302   21.0414 C   0  0  0  0  0  0
  -24.3636   -9.4198   21.9175 C   0  0  0  0  0  0
  -23.6292   -8.2237   22.0741 C   0  0  0  0  0  0
  -22.4265   -8.0282   21.3547 C   0  0  0  0  0  0
  -21.9883   -9.0280   20.4678 C   0  0  0  0  0  0
  -22.7223  -10.2150   20.3078 C   0  0  0  0  0  0
  -21.6850   -6.0746   22.5289 C   0  0  0  0  0  0
  -21.4011   -6.5643   23.8225 C   0  0  0  0  0  0
  -21.3647   -5.6788   24.9184 C   0  0  0  0  0  0
  -21.6043   -4.3054   24.7238 C   0  0  0  0  0  0
  -21.8810   -3.8151   23.4357 C   0  0  0  0  0  0
  -21.9178   -4.6972   22.3416 C   0  0  0  0  0  0
  -22.7859  -13.5259   21.1832 C   0  0  0  0  0  0
  -22.1659   -4.2157   21.0997 F   0  0  0  0  0  0
  -21.5611   -3.4530   25.7751 F   0  0  0  0  0  0
  -30.0113  -13.3882   20.4184 N   0  0  0  0  0  0
  -26.3005  -12.9351   20.3387 N   0  0  0  0  0  0
  -25.9323  -11.6506   20.5788 N   0  0  0  0  0  0
  -22.0470  -12.8269   22.0385 N   0  0  0  0  0  0
  -25.4261  -15.1903   20.4171 N   0  0  0  0  0  0
  -31.8737  -14.6395   20.1817 O   0  0  0  0  0  0
  -21.6619   -6.8886   21.4250 O   0  0  0  0  0  0
  -22.3571  -14.5579   20.6681 O   0  0  0  0  0  0
  -24.6192  -31.8659   23.2087 C   0  0  0  0  0  0
  -25.9083  -32.4807   23.8378 C   0  0  1  0  0  0
  -27.2175  -27.3559   20.1481 C   0  0  0  0  0  0
  -25.5930  -33.8603   24.2310 N   0  0  0  0  0  0
  -23.4106  -30.4894   21.5465 C   0  0  2  0  0  0
  -24.8646  -28.9488   20.1149 C   0  0  0  0  0  0
  -22.7436  -29.4657   22.4946 C   0  0  0  0  0  0
  -18.0288  -28.1387   22.8489 C   0  0  0  0  0  0
  -24.1495  -36.7308   23.2632 C   0  0  0  0  0  0
  -25.9463  -30.8024   21.3835 C   0  0  0  0  0  0
  -26.0207  -29.4259   20.7476 C   0  0  0  0  0  0
  -27.1991  -28.6295   20.7796 C   0  0  0  0  0  0
  -26.0750  -26.9582   19.4302 C   0  0  0  0  0  0
  -24.8902  -27.7133   19.4490 C   0  0  0  0  0  0
  -23.6299  -29.8237   20.1603 C   0  0  0  0  0  0
  -25.4116  -36.3099   24.0328 C   0  0  1  0  0  0
  -20.5889  -28.3691   23.1299 C   0  0  2  0  0  0
  -20.6788  -26.9422   22.5421 C   0  0  0  0  0  0
  -19.5773  -26.6396   21.5216 C   0  0  0  0  0  0
  -18.1948  -26.7931   22.1628 C   0  0  0  0  0  0
  -19.1539  -28.8854   23.2889 C   0  0  0  0  0  0
  -18.9459  -30.1457   23.8906 C   0  0  0  0  0  0
  -17.6459  -30.6590   24.0563 C   0  0  0  0  0  0
  -25.9038  -34.9465   23.5108 C   0  0  0  0  0  0
  -16.5352  -29.9094   23.6327 C   0  0  0  0  0  0
  -16.7273  -28.6513   23.0346 C   0  0  0  0  0  0
  -26.4498  -31.6577   25.0706 C   0  0  0  0  0  0
  -25.3741  -31.3704   26.1436 C   0  0  0  0  0  0
  -27.0320  -30.2995   24.6124 C   0  0  0  0  0  0
  -27.6077  -32.4282   25.7480 C   0  0  0  0  0  0
  -27.5579  -37.1820   24.8463 C   0  0  0  0  0  0
  -21.4164  -29.3044   22.3679 N   0  0  0  0  0  0
  -26.4298  -37.3790   23.9397 N   0  0  0  0  0  0
  -24.6757  -31.0696   22.1033 N   0  0  0  0  0  0
  -23.4177  -28.8217   23.3020 O   0  0  0  0  0  0
  -28.3269  -26.5247   20.0933 O   0  0  0  0  0  0
  -26.5600  -34.8930   22.4669 O   0  0  0  0  0  0
  -23.5377  -32.1457   23.7447 O   0  0  0  0  0  0
  -29.2670  -20.7952   20.2398 C   0  0  0  0  0  0
  -28.9688  -22.2906   22.5701 C   0  0  0  0  0  0
  -29.5631  -20.1549   21.4696 C   0  0  0  0  0  0
  -28.5902  -22.9028   21.3475 C   0  0  0  0  0  0
  -29.4372  -20.9505   22.6442 C   0  0  0  0  0  0
  -28.8110  -22.1409   20.1703 C   0  0  0  0  0  0
  -26.6745  -24.2869   22.4091 C   0  0  0  0  0  0
  -26.2974  -24.0337   20.9861 C   0  0  0  0  0  0
  -28.7386  -17.7042   21.6891 C   0  0  0  0  0  0
  -30.8628  -18.1181   20.3762 C   0  0  0  0  0  0
  -29.0832  -16.1785   21.6640 C   0  0  0  0  0  0
  -30.3072  -16.8634   19.6397 C   0  0  0  0  0  0
  -29.9577  -18.6426   21.5267 C   0  0  0  0  0  0
  -27.7694  -24.2149   21.3504 C   0  0  0  0  0  0
  -29.7492  -20.3748   24.0179 C   0  0  0  0  0  0
  -28.5090  -22.7335   18.8069 C   0  0  0  0  0  0
  -28.5839  -25.5478   21.1551 C   0  0  0  0  0  0
  -29.9538  -15.7409   20.5468 N   0  0  0  0  0  0
  -31.4677  -12.4622   19.1332 H   0  0  0  0  0  0
  -30.3412  -11.3665   19.8748 H   0  0  0  0  0  0
  -29.7490  -11.7587   17.4591 H   0  0  0  0  0  0
  -29.6513  -13.4786   17.7453 H   0  0  0  0  0  0
  -27.8452  -11.3008   18.8458 H   0  0  0  0  0  0
  -27.3633  -12.6057   17.7976 H   0  0  0  0  0  0
  -27.6832  -14.2548   19.5496 H   0  0  0  0  0  0
  -28.7244  -11.9953   21.3288 H   0  0  0  0  0  0
  -28.4737  -13.6020   21.8857 H   0  0  0  0  0  0
  -25.2804   -9.5634   22.4730 H   0  0  0  0  0  0
  -24.0000   -7.4618   22.7451 H   0  0  0  0  0  0
  -21.0774   -8.8833   19.9043 H   0  0  0  0  0  0
  -22.3676  -10.9713   19.6211 H   0  0  0  0  0  0
  -21.2024   -7.6156   23.9722 H   0  0  0  0  0  0
  -21.1473   -6.0532   25.9080 H   0  0  0  0  0  0
  -22.0600   -2.7612   23.2868 H   0  0  0  0  0  0
  -22.4053  -11.9930   22.4808 H   0  0  0  0  0  0
  -21.1103  -13.1364   22.2562 H   0  0  0  0  0  0
  -24.6545  -15.8382   20.5324 H   0  0  0  0  0  0
  -26.2781  -15.6396   20.1065 H   0  0  0  0  0  0
  -26.7144  -32.5520   23.1128 H   0  0  0  0  0  0
  -25.0090  -33.9752   25.0462 H   0  0  0  0  0  0
  -22.7018  -31.3078   21.4040 H   0  0  0  0  0  0
  -23.3744  -35.9648   23.3305 H   0  0  0  0  0  0
  -24.3579  -36.8914   22.2038 H   0  0  0  0  0  0
  -23.7264  -37.6524   23.6637 H   0  0  0  0  0  0
  -26.0640  -31.5571   20.6041 H   0  0  0  0  0  0
  -26.8318  -30.8658   22.0040 H   0  0  0  0  0  0
  -28.0852  -28.9827   21.2900 H   0  0  0  0  0  0
  -26.1028  -26.0417   18.8572 H   0  0  0  0  0  0
  -24.0190  -27.3582   18.9162 H   0  0  0  0  0  0
  -23.7453  -30.5980   19.4015 H   0  0  0  0  0  0
  -22.7534  -29.2475   19.8579 H   0  0  0  0  0  0
  -25.1297  -36.1953   25.0820 H   0  0  0  0  0  0
  -20.9971  -28.3277   24.1419 H   0  0  0  0  0  0
  -20.5709  -26.2301   23.3605 H   0  0  0  0  0  0
  -21.6656  -26.7478   22.1199 H   0  0  0  0  0  0
  -19.6930  -25.6305   21.1240 H   0  0  0  0  0  0
  -19.6699  -27.3208   20.6738 H   0  0  0  0  0  0
  -17.4211  -26.6678   21.4027 H   0  0  0  0  0  0
  -18.0350  -26.0065   22.9018 H   0  0  0  0  0  0
  -19.7938  -30.7274   24.2273 H   0  0  0  0  0  0
  -17.5019  -31.6269   24.5170 H   0  0  0  0  0  0
  -15.5360  -30.3000   23.7636 H   0  0  0  0  0  0
  -15.8679  -28.0833   22.7049 H   0  0  0  0  0  0
  -24.5934  -30.7037   25.7754 H   0  0  0  0  0  0
  -24.8919  -32.2864   26.4848 H   0  0  0  0  0  0
  -25.8081  -30.8890   27.0205 H   0  0  0  0  0  0
  -26.2876  -29.6769   24.1152 H   0  0  0  0  0  0
  -27.4012  -29.7234   25.4616 H   0  0  0  0  0  0
  -27.8753  -30.4262   23.9337 H   0  0  0  0  0  0
  -27.2699  -33.3571   26.2087 H   0  0  0  0  0  0
  -28.3883  -32.6849   25.0303 H   0  0  0  0  0  0
  -28.0740  -31.8371   26.5372 H   0  0  0  0  0  0
  -28.2617  -38.0104   24.7488 H   0  0  0  0  0  0
  -28.1067  -36.2631   24.6319 H   0  0  0  0  0  0
  -27.2287  -37.1496   25.8869 H   0  0  0  0  0  0
  -20.9336  -29.8746   21.6873 H   0  0  0  0  0  0
  -26.0186  -38.2869   24.1389 H   0  0  0  0  0  0
  -29.3522  -20.2332   19.3212 H   0  0  0  0  0  0
  -28.8202  -22.8411   23.4896 H   0  0  0  0  0  0
  -26.5506  -23.4579   23.1024 H   0  0  0  0  0  0
  -26.4145  -25.2634   22.8103 H   0  0  0  0  0  0
  -25.6819  -24.8124   20.5662 H   0  0  0  0  0  0
  -25.9688  -23.0267   20.7372 H   0  0  0  0  0  0
  -28.2230  -17.9377   22.6205 H   0  0  0  0  0  0
  -28.0146  -17.9166   20.9003 H   0  0  0  0  0  0
  -31.0760  -18.8987   19.6482 H   0  0  0  0  0  0
  -31.8422  -17.8723   20.7900 H   0  0  0  0  0  0
  -28.1319  -15.6537   21.6168 H   0  0  0  0  0  0
  -29.5577  -15.8985   22.6062 H   0  0  0  0  0  0
  -29.4099  -17.1441   19.0846 H   0  0  0  0  0  0
  -31.0147  -16.5563   18.8665 H   0  0  0  0  0  0
  -30.5562  -18.5017   22.4274 H   0  0  0  0  0  0
  -29.5416  -21.0912   24.8130 H   0  0  0  0  0  0
  -30.8021  -20.1008   24.0911 H   0  0  0  0  0  0
  -29.1473  -19.4891   24.2158 H   0  0  0  0  0  0
  -29.0252  -22.1820   18.0212 H   0  0  0  0  0  0
  -28.8393  -23.7714   18.7518 H   0  0  0  0  0  0
  -27.4390  -22.6979   18.6033 H   0  0  0  0  0  0
  -29.6232  -25.2542   21.0117 H   0  0  0  0  0  0
  -28.5869  -26.0794   22.1071 H   0  0  0  0  0  0
  1 25  1  0  0  0
  1 30  2  0  0  0
  1 88  1  0  0  0
  2  3  1  0  0  0
  2 25  1  0  0  0
  2 89  1  0  0  0
  2 90  1  0  0  0
  3  4  1  0  0  0
  3 91  1  0  0  0
  3 92  1  0  0  0
  4  5  1  0  0  0
  4 93  1  0  0  0
  4 94  1  0  0  0
  5  6  1  0  0  0
  5 26  1  0  0  0
  5 95  1  0  0  0
  6 25  1  0  0  0
  6 96  1  0  0  0
  6 97  1  0  0  0
  7  8  2  0  0  0
  7 26  1  0  0  0
  7 29  1  0  0  0
  8  9  1  0  0  0
  8 22  1  0  0  0
  9 10  1  0  0  0
  9 27  2  0  0  0
 10 11  2  0  0  0
 10 15  1  0  0  0
 11 12  1  0  0  0
 11 98  1  0  0  0
 12 13  2  0  0  0
 12 99  1  0  0  0
 13 14  1  0  0  0
 13 31  1  0  0  0
 14 15  2  0  0  0
 14100  1  0  0  0
 15101  1  0  0  0
 16 17  2  0  0  0
 16 21  1  0  0  0
 16 31  1  0  0  0
 17 18  1  0  0  0
 17102  1  0  0  0
 18 19  2  0  0  0
 18103  1  0  0  0
 19 20  1  0  0  0
 19 24  1  0  0  0
 20 21  2  0  0  0
 20104  1  0  0  0
 21 23  1  0  0  0
 22 28  1  0  0  0
 22 32  2  0  0  0
 26 27  1  0  0  0
 28105  1  0  0  0
 28106  1  0  0  0
 29107  1  0  0  0
 29108  1  0  0  0
 33 34  1  0  0  0
 33 66  1  0  0  0
 33 70  2  0  0  0
 34 36  1  0  0  0
 34 59  1  0  0  0
 34109  1  0  0  0
 35 44  2  0  0  0
 35 45  1  0  0  0
 35 68  1  0  0  0
 36 56  1  0  0  0
 36110  1  0  0  0
 37 39  1  0  0  0
 37 47  1  0  0  0
 37 66  1  0  0  0
 37111  1  0  0  0
 38 43  2  0  0  0
 38 46  1  0  0  0
 38 47  1  0  0  0
 39 64  1  0  0  0
 39 67  2  0  0  0
 40 52  1  0  0  0
 40 53  2  0  0  0
 40 58  1  0  0  0
 41112  1  0  0  0
 41113  1  0  0  0
 41114  1  0  0  0
 41 48  1  0  0  0
 42 43  1  0  0  0
 42 66  1  0  0  0
 42115  1  0  0  0
 42116  1  0  0  0
 43 44  1  0  0  0
 44117  1  0  0  0
 45 46  2  0  0  0
 45118  1  0  0  0
 46119  1  0  0  0
 47120  1  0  0  0
 47121  1  0  0  0
 48 56  1  0  0  0
 48 65  1  0  0  0
 48122  1  0  0  0
 49 50  1  0  0  0
 49 53  1  0  0  0
 49 64  1  0  0  0
 49123  1  0  0  0
 50 51  1  0  0  0
 50124  1  0  0  0
 50125  1  0  0  0
 51 52  1  0  0  0
 51126  1  0  0  0
 51127  1  0  0  0
 52128  1  0  0  0
 52129  1  0  0  0
 53 54  1  0  0  0
 54 55  2  0  0  0
 54130  1  0  0  0
 55 57  1  0  0  0
 55131  1  0  0  0
 56 69  2  0  0  0
 57 58  2  0  0  0
 57132  1  0  0  0
 58133  1  0  0  0
 59 60  1  0  0  0
 59 61  1  0  0  0
 59 62  1  0  0  0
 60134  1  0  0  0
 60135  1  0  0  0
 60136  1  0  0  0
 61137  1  0  0  0
 61138  1  0  0  0
 61139  1  0  0  0
 62140  1  0  0  0
 62141  1  0  0  0
 62142  1  0  0  0
 63 65  1  0  0  0
 63143  1  0  0  0
 63144  1  0  0  0
 63145  1  0  0  0
 64146  1  0  0  0
 65147  1  0  0  0
 68 87  1  0  0  0
 71 73  2  0  0  0
 71 76  1  0  0  0
 71148  1  0  0  0
 72 74  1  0  0  0
 72 75  2  0  0  0
 72149  1  0  0  0
 73 75  1  0  0  0
 73 83  1  0  0  0
 74 76  2  0  0  0
 74 84  1  0  0  0
 75 85  1  0  0  0
 76 86  1  0  0  0
 77 78  1  0  0  0
 77 84  1  0  0  0
 77150  1  0  0  0
 77151  1  0  0  0
 78 84  1  0  0  0
 78152  1  0  0  0
 78153  1  0  0  0
 79 81  1  0  0  0
 79 83  1  0  0  0
 79154  1  0  0  0
 79155  1  0  0  0
 80 82  1  0  0  0
 80 83  1  0  0  0
 80156  1  0  0  0
 80157  1  0  0  0
 81 88  1  0  0  0
 81158  1  0  0  0
 81159  1  0  0  0
 82 88  1  0  0  0
 82160  1  0  0  0
 82161  1  0  0  0
 83162  1  0  0  0
 84 87  1  0  0  0
 85163  1  0  0  0
 85164  1  0  0  0
 85165  1  0  0  0
 86166  1  0  0  0
 86167  1  0  0  0
 86168  1  0  0  0
 87169  1  0  0  0
 87170  1  0  0  0
M  ISO  4   1 100  68 101  87 101  88 100
M  END
> <chiral flag>
0

> <version>
0

> <s_m_source_file>
/data/baiqing/PycharmProjects/Reinvent-master-3.2/result/LINK_invent/BTK/process_docking_weight1_custom_sum_contain_oxygen_bond_distance_aromatic_linkinvent_7_9_3/rearranged_h_0171.sdf

> <i_m_source_file_index>
35

> <r_mmod_Potential_Energy-OPLS-2005>
339.656005859375

> <r_mmod_Stretch_Energy-OPLS-2005>
66.7792129516602

> <r_mmod_Bend_Energy-OPLS-2005>
150.156326293945

> <r_mmod_Torsional_Energy-OPLS-2005>
400.278137207031

> <r_mmod_Improper_Torsional_Energy-OPLS-2005>
17.2122020721436

> <r_mmod_Van_der_Waal_Energy-OPLS-2005>
155.411437988281

> <r_mmod_Electrostatic_Energy-OPLS-2005>
-299.290374755859

> <r_mmod_Solvation_Energy-OPLS-2005>
-185.207717895508

> <b_mmod_Minimization_Converged-OPLS-2005>
0

> <r_mmod_RMS_Derivative-OPLS-2005>
2.72070455551147

$$$$
35
                    3D
 Structure written by MMmdl.
154163  0  0  1  0            999 V2000
  -30.4865  -15.1641   20.3882 C   0  0  0  0  0  0
  -30.4373  -12.7387   19.5181 C   0  0  0  0  0  0
  -29.5308  -12.5610   18.2765 C   0  0  0  0  0  0
  -28.0742  -12.3056   18.7024 C   0  0  0  0  0  0
  -27.6169  -13.2706   19.8266 C   0  0  2  0  0  0
  -28.6538  -13.4097   20.9612 C   0  0  0  0  0  0
  -25.2426  -13.8254   20.5759 C   0  0  0  0  0  0
  -24.1758  -13.0448   20.9241 C   0  0  0  0  0  0
  -24.6400  -11.6940   20.8748 C   0  0  0  0  0  0
  -23.9089  -10.4299   21.0395 C   0  0  0  0  0  0
  -24.3635   -9.4212   21.9176 C   0  0  0  0  0  0
  -23.6308   -8.2246   22.0746 C   0  0  0  0  0  0
  -22.4289   -8.0281   21.3540 C   0  0  0  0  0  0
  -21.9926   -9.0255   20.4640 C   0  0  0  0  0  0
  -22.7257  -10.2136   20.3046 C   0  0  0  0  0  0
  -21.6857   -6.0736   22.5278 C   0  0  0  0  0  0
  -21.4016   -6.5637   23.8212 C   0  0  0  0  0  0
  -21.3665   -5.6789   24.9174 C   0  0  0  0  0  0
  -21.6046   -4.3052   24.7222 C   0  0  0  0  0  0
  -21.8820   -3.8144   23.4344 C   0  0  0  0  0  0
  -21.9195   -4.6963   22.3402 C   0  0  0  0  0  0
  -22.7777  -13.5206   21.1891 C   0  0  0  0  0  0
  -22.1662   -4.2149   21.0978 F   0  0  0  0  0  0
  -21.5632   -3.4536   25.7735 F   0  0  0  0  0  0
  -29.8984  -13.8790   20.3371 N   0  0  0  0  0  0
  -26.2847  -12.9517   20.3238 N   0  0  0  0  0  0
  -25.9341  -11.6626   20.5724 N   0  0  0  0  0  0
  -22.0432  -12.8189   22.0446 N   0  0  0  0  0  0
  -25.4115  -15.1986   20.4236 N   0  0  0  0  0  0
  -31.7044  -15.1634   20.1625 O   0  0  0  0  0  0
  -21.6647   -6.8881   21.4241 O   0  0  0  0  0  0
  -22.3457  -14.5505   20.6728 O   0  0  0  0  0  0
  -24.6579  -31.8303   23.1767 C   0  0  0  0  0  0
  -25.9289  -32.4622   23.8205 C   0  0  1  0  0  0
  -27.2120  -26.9834   20.1721 C   0  0  0  0  0  0
  -25.5984  -33.8432   24.2116 N   0  0  0  0  0  0
  -23.4690  -30.4457   21.5253 C   0  0  2  0  0  0
  -24.9212  -28.8481   20.1108 C   0  0  0  0  0  0
  -22.7640  -29.4477   22.4804 C   0  0  0  0  0  0
  -18.0318  -28.1406   22.8468 C   0  0  0  0  0  0
  -24.1495  -36.7221   23.2645 C   0  0  0  0  0  0
  -26.0363  -30.6541   21.3999 C   0  0  0  0  0  0
  -26.1045  -29.2508   20.7420 C   0  0  0  0  0  0
  -27.2476  -28.3387   20.7510 C   0  0  0  0  0  0
  -26.0005  -26.7264   19.4894 C   0  0  0  0  0  0
  -24.8911  -27.6042   19.4656 C   0  0  0  0  0  0
  -23.7050  -29.7689   20.1486 C   0  0  0  0  0  0
  -25.4135  -36.2988   24.0302 C   0  0  1  0  0  0
  -20.5941  -28.3746   23.1197 C   0  0  2  0  0  0
  -20.6798  -26.9433   22.5400 C   0  0  0  0  0  0
  -19.5772  -26.6378   21.5210 C   0  0  0  0  0  0
  -18.1952  -26.7940   22.1620 C   0  0  0  0  0  0
  -19.1578  -28.8895   23.2821 C   0  0  0  0  0  0
  -18.9491  -30.1486   23.8852 C   0  0  0  0  0  0
  -17.6482  -30.6596   24.0555 C   0  0  0  0  0  0
  -25.9097  -34.9365   23.5025 C   0  0  0  0  0  0
  -16.5373  -29.9083   23.6342 C   0  0  0  0  0  0
  -16.7301  -28.6504   23.0361 C   0  0  0  0  0  0
  -26.4556  -31.6542   25.0708 C   0  0  0  0  0  0
  -25.3698  -31.3774   26.1376 C   0  0  0  0  0  0
  -27.0447  -30.2915   24.6406 C   0  0  0  0  0  0
  -27.6061  -32.4335   25.7506 C   0  0  0  0  0  0
  -27.5571  -37.1772   24.8468 C   0  0  0  0  0  0
  -21.4316  -29.3046   22.3551 N   0  0  0  0  0  0
  -26.4289  -37.3714   23.9399 N   0  0  0  0  0  0
  -24.7419  -31.0018   22.0878 N   0  0  0  0  0  0
  -23.4215  -28.8040   23.3018 O   0  0  0  0  0  0
  -28.2041  -25.8858   20.2560 O   0  0  0  0  0  0
  -26.5693  -34.8888   22.4611 O   0  0  0  0  0  0
  -23.5661  -32.1250   23.6894 O   0  0  0  0  0  0
  -28.2166  -21.4282   20.1808 C   0  0  0  0  0  0
  -28.6503  -22.8085   20.2680 C   0  0  0  0  0  0
  -30.0230  -22.4545   20.5452 C   0  0  0  0  0  0
  -29.7775  -17.5946   19.4185 C   0  0  0  0  0  0
  -29.1798  -18.7164   20.4159 C   0  0  1  0  0  0
  -29.9022  -17.6446   21.3926 C   0  0  1  0  0  0
  -31.1470  -23.4237   20.7630 C   0  0  0  0  0  0
  -29.2957  -17.3400   22.7568 C   0  0  0  0  0  0
  -27.8182  -24.3232   20.0599 C   0  0  0  0  0  0
  -30.3202  -21.1116   20.6050 N   0  0  0  0  0  0
  -29.2040  -20.3488   20.3866 N   0  0  0  0  0  0
  -29.7390  -16.4329   20.4407 N   0  0  0  0  0  0
  -31.4627  -12.9213   19.1940 H   0  0  0  0  0  0
  -30.4745  -11.8207   20.1069 H   0  0  0  0  0  0
  -29.8912  -11.7396   17.6553 H   0  0  0  0  0  0
  -29.5801  -13.4585   17.6582 H   0  0  0  0  0  0
  -28.0126  -11.2760   19.0564 H   0  0  0  0  0  0
  -27.4060  -12.3727   17.8433 H   0  0  0  0  0  0
  -27.5447  -14.2482   19.3481 H   0  0  0  0  0  0
  -28.7965  -12.4685   21.4938 H   0  0  0  0  0  0
  -28.3144  -14.1412   21.6968 H   0  0  0  0  0  0
  -25.2776   -9.5691   22.4757 H   0  0  0  0  0  0
  -24.0015   -7.4638   22.7467 H   0  0  0  0  0  0
  -21.0855   -8.8774   19.8950 H   0  0  0  0  0  0
  -22.3707  -10.9673   19.6154 H   0  0  0  0  0  0
  -21.2005   -7.6145   23.9718 H   0  0  0  0  0  0
  -21.1489   -6.0516   25.9078 H   0  0  0  0  0  0
  -22.0596   -2.7606   23.2843 H   0  0  0  0  0  0
  -22.4059  -11.9864   22.4853 H   0  0  0  0  0  0
  -21.1036  -13.1189   22.2628 H   0  0  0  0  0  0
  -24.6520  -15.8578   20.5528 H   0  0  0  0  0  0
  -26.2771  -15.6402   20.1394 H   0  0  0  0  0  0
  -26.7355  -32.5175   23.0920 H   0  0  0  0  0  0
  -25.0095  -33.9520   25.0243 H   0  0  0  0  0  0
  -22.7793  -31.2761   21.3609 H   0  0  0  0  0  0
  -23.3763  -35.9547   23.3297 H   0  0  0  0  0  0
  -24.3574  -36.8871   22.2063 H   0  0  0  0  0  0
  -23.7245  -37.6406   23.6699 H   0  0  0  0  0  0
  -26.2115  -31.3995   20.6231 H   0  0  0  0  0  0
  -26.8984  -30.7081   22.0522 H   0  0  0  0  0  0
  -28.1417  -28.6425   21.2768 H   0  0  0  0  0  0
  -25.8624  -25.7809   18.9885 H   0  0  0  0  0  0
  -23.9918  -27.2897   18.9541 H   0  0  0  0  0  0
  -23.8560  -30.5407   19.3932 H   0  0  0  0  0  0
  -22.8155  -29.2215   19.8317 H   0  0  0  0  0  0
  -25.1332  -36.1799   25.0795 H   0  0  0  0  0  0
  -21.0028  -28.3348   24.1321 H   0  0  0  0  0  0
  -20.5680  -26.2362   23.3637 H   0  0  0  0  0  0
  -21.6661  -26.7418   22.1201 H   0  0  0  0  0  0
  -19.6930  -25.6277   21.1266 H   0  0  0  0  0  0
  -19.6709  -27.3166   20.6722 H   0  0  0  0  0  0
  -17.4222  -26.6681   21.4026 H   0  0  0  0  0  0
  -18.0353  -26.0094   22.9029 H   0  0  0  0  0  0
  -19.7964  -30.7316   24.2201 H   0  0  0  0  0  0
  -17.5034  -31.6272   24.5165 H   0  0  0  0  0  0
  -15.5371  -30.2971   23.7691 H   0  0  0  0  0  0
  -15.8702  -28.0807   22.7103 H   0  0  0  0  0  0
  -24.5892  -30.7113   25.7684 H   0  0  0  0  0  0
  -24.8880  -32.2973   26.4701 H   0  0  0  0  0  0
  -25.7949  -30.9006   27.0219 H   0  0  0  0  0  0
  -26.3109  -29.6599   24.1389 H   0  0  0  0  0  0
  -27.3975  -29.7264   25.5043 H   0  0  0  0  0  0
  -27.9050  -30.4108   23.9817 H   0  0  0  0  0  0
  -27.2641  -33.3670   26.1985 H   0  0  0  0  0  0
  -28.3925  -32.6838   25.0374 H   0  0  0  0  0  0
  -28.0671  -31.8527   26.5506 H   0  0  0  0  0  0
  -28.2584  -38.0071   24.7497 H   0  0  0  0  0  0
  -28.1071  -36.2596   24.6324 H   0  0  0  0  0  0
  -27.2283  -37.1449   25.8871 H   0  0  0  0  0  0
  -20.9559  -29.8745   21.6694 H   0  0  0  0  0  0
  -26.0145  -38.2777   24.1397 H   0  0  0  0  0  0
  -27.2056  -21.1054   19.9739 H   0  0  0  0  0  0
  -30.7855  -17.8307   19.0675 H   0  0  0  0  0  0
  -29.1346  -17.4342   18.5529 H   0  0  0  0  0  0
  -28.1088  -18.5186   20.4840 H   0  0  0  0  0  0
  -30.9558  -17.9165   21.5124 H   0  0  0  0  0  0
  -30.7809  -24.4495   20.8128 H   0  0  0  0  0  0
  -31.8728  -23.3736   19.9515 H   0  0  0  0  0  0
  -31.6724  -23.2181   21.6958 H   0  0  0  0  0  0
  -28.2500  -17.0421   22.6747 H   0  0  0  0  0  0
  -29.3363  -18.2151   23.4061 H   0  0  0  0  0  0
  -29.8312  -16.5365   23.2628 H   0  0  0  0  0  0
  -26.8987  -24.2334   20.6390 H   0  0  0  0  0  0
  -27.4701  -24.3017   19.0277 H   0  0  0  0  0  0
  1 25  1  0  0  0
  1 30  2  0  0  0
  1 82  1  0  0  0
  2  3  1  0  0  0
  2 25  1  0  0  0
  2 83  1  0  0  0
  2 84  1  0  0  0
  3  4  1  0  0  0
  3 85  1  0  0  0
  3 86  1  0  0  0
  4  5  1  0  0  0
  4 87  1  0  0  0
  4 88  1  0  0  0
  5  6  1  0  0  0
  5 26  1  0  0  0
  5 89  1  0  0  0
  6 25  1  0  0  0
  6 90  1  0  0  0
  6 91  1  0  0  0
  7  8  2  0  0  0
  7 26  1  0  0  0
  7 29  1  0  0  0
  8  9  1  0  0  0
  8 22  1  0  0  0
  9 10  1  0  0  0
  9 27  2  0  0  0
 10 11  2  0  0  0
 10 15  1  0  0  0
 11 12  1  0  0  0
 11 92  1  0  0  0
 12 13  2  0  0  0
 12 93  1  0  0  0
 13 14  1  0  0  0
 13 31  1  0  0  0
 14 15  2  0  0  0
 14 94  1  0  0  0
 15 95  1  0  0  0
 16 17  2  0  0  0
 16 21  1  0  0  0
 16 31  1  0  0  0
 17 18  1  0  0  0
 17 96  1  0  0  0
 18 19  2  0  0  0
 18 97  1  0  0  0
 19 20  1  0  0  0
 19 24  1  0  0  0
 20 21  2  0  0  0
 20 98  1  0  0  0
 21 23  1  0  0  0
 22 28  1  0  0  0
 22 32  2  0  0  0
 26 27  1  0  0  0
 28 99  1  0  0  0
 28100  1  0  0  0
 29101  1  0  0  0
 29102  1  0  0  0
 33 34  1  0  0  0
 33 66  1  0  0  0
 33 70  2  0  0  0
 34 36  1  0  0  0
 34 59  1  0  0  0
 34103  1  0  0  0
 35 44  2  0  0  0
 35 45  1  0  0  0
 35 68  1  0  0  0
 36 56  1  0  0  0
 36104  1  0  0  0
 37 39  1  0  0  0
 37 47  1  0  0  0
 37 66  1  0  0  0
 37105  1  0  0  0
 38 43  2  0  0  0
 38 46  1  0  0  0
 38 47  1  0  0  0
 39 64  1  0  0  0
 39 67  2  0  0  0
 40 52  1  0  0  0
 40 53  2  0  0  0
 40 58  1  0  0  0
 41106  1  0  0  0
 41107  1  0  0  0
 41108  1  0  0  0
 41 48  1  0  0  0
 42 43  1  0  0  0
 42 66  1  0  0  0
 42109  1  0  0  0
 42110  1  0  0  0
 43 44  1  0  0  0
 44111  1  0  0  0
 45 46  2  0  0  0
 45112  1  0  0  0
 46113  1  0  0  0
 47114  1  0  0  0
 47115  1  0  0  0
 48 56  1  0  0  0
 48 65  1  0  0  0
 48116  1  0  0  0
 49 50  1  0  0  0
 49 53  1  0  0  0
 49 64  1  0  0  0
 49117  1  0  0  0
 50 51  1  0  0  0
 50118  1  0  0  0
 50119  1  0  0  0
 51 52  1  0  0  0
 51120  1  0  0  0
 51121  1  0  0  0
 52122  1  0  0  0
 52123  1  0  0  0
 53 54  1  0  0  0
 54 55  2  0  0  0
 54124  1  0  0  0
 55 57  1  0  0  0
 55125  1  0  0  0
 56 69  2  0  0  0
 57 58  2  0  0  0
 57126  1  0  0  0
 58127  1  0  0  0
 59 60  1  0  0  0
 59 61  1  0  0  0
 59 62  1  0  0  0
 60128  1  0  0  0
 60129  1  0  0  0
 60130  1  0  0  0
 61131  1  0  0  0
 61132  1  0  0  0
 61133  1  0  0  0
 62134  1  0  0  0
 62135  1  0  0  0
 62136  1  0  0  0
 63 65  1  0  0  0
 63137  1  0  0  0
 63138  1  0  0  0
 63139  1  0  0  0
 64140  1  0  0  0
 65141  1  0  0  0
 68 79  1  0  0  0
 71 72  2  0  0  0
 71 81  1  0  0  0
 71142  1  0  0  0
 72 73  1  0  0  0
 72 79  1  0  0  0
 73 77  1  0  0  0
 73 80  2  0  0  0
 74 75  1  0  0  0
 74 82  1  0  0  0
 74143  1  0  0  0
 74144  1  0  0  0
 75 76  1  0  0  0
 75 81  1  0  0  0
 75145  1  0  0  0
 76 78  1  0  0  0
 76 82  1  0  0  0
 76146  1  0  0  0
 77147  1  0  0  0
 77148  1  0  0  0
 77149  1  0  0  0
 78150  1  0  0  0
 78151  1  0  0  0
 78152  1  0  0  0
 79153  1  0  0  0
 79154  1  0  0  0
 80 81  1  0  0  0
M  ISO  4   1 100  68 101  79 101  82 100
M  END
> <chiral flag>
0

> <version>
0

> <s_m_source_file>
/data/baiqing/PycharmProjects/Reinvent-master-3.2/result/LINK_invent/BTK/process_docking_weight1_custom_sum_contain_oxygen_bond_distance_aromatic_linkinvent_7_9_3/rearranged_h_0171.sdf

> <i_m_source_file_index>
36

> <r_mmod_Potential_Energy-OPLS-2005>
1017.14123535156

> <r_mmod_Stretch_Energy-OPLS-2005>
411.234558105469

> <r_mmod_Bend_Energy-OPLS-2005>
366.689880371094

> <r_mmod_Torsional_Energy-OPLS-2005>
287.674926757812

> <r_mmod_Improper_Torsional_Energy-OPLS-2005>
12.6364583969116

> <r_mmod_Van_der_Waal_Energy-OPLS-2005>
104.042137145996

> <r_mmod_Electrostatic_Energy-OPLS-2005>
-321.270568847656

> <r_mmod_Solvation_Energy-OPLS-2005>
-214.401123046875

> <b_mmod_Minimization_Converged-OPLS-2005>
0

> <r_mmod_RMS_Derivative-OPLS-2005>
0.671310305595398

$$$$
36
                    3D
 Structure written by MMmdl.
168179  0  0  1  0            999 V2000
  -30.6024  -14.9769   20.4061 C   0  0  0  0  0  0
  -30.4192  -12.6155   19.4995 C   0  0  0  0  0  0
  -29.5124  -12.5272   18.2544 C   0  0  0  0  0  0
  -28.0491  -12.3136   18.6775 C   0  0  0  0  0  0
  -27.6193  -13.2634   19.8271 C   0  0  2  0  0  0
  -28.6629  -13.3525   20.9604 C   0  0  0  0  0  0
  -25.2423  -13.8251   20.5740 C   0  0  0  0  0  0
  -24.1755  -13.0449   20.9233 C   0  0  0  0  0  0
  -24.6396  -11.6940   20.8759 C   0  0  0  0  0  0
  -23.9093  -10.4298   21.0398 C   0  0  0  0  0  0
  -24.3639   -9.4211   21.9175 C   0  0  0  0  0  0
  -23.6308   -8.2250   22.0746 C   0  0  0  0  0  0
  -22.4288   -8.0284   21.3538 C   0  0  0  0  0  0
  -21.9929   -9.0258   20.4641 C   0  0  0  0  0  0
  -22.7261  -10.2135   20.3050 C   0  0  0  0  0  0
  -21.6860   -6.0737   22.5271 C   0  0  0  0  0  0
  -21.4017   -6.5638   23.8206 C   0  0  0  0  0  0
  -21.3664   -5.6789   24.9167 C   0  0  0  0  0  0
  -21.6046   -4.3053   24.7216 C   0  0  0  0  0  0
  -21.8822   -3.8144   23.4338 C   0  0  0  0  0  0
  -21.9195   -4.6963   22.3393 C   0  0  0  0  0  0
  -22.7775  -13.5205   21.1880 C   0  0  0  0  0  0
  -22.1662   -4.2149   21.0974 F   0  0  0  0  0  0
  -21.5633   -3.4537   25.7728 F   0  0  0  0  0  0
  -29.9298  -13.7534   20.3387 N   0  0  0  0  0  0
  -26.2847  -12.9512   20.3236 N   0  0  0  0  0  0
  -25.9332  -11.6624   20.5738 N   0  0  0  0  0  0
  -22.0436  -12.8191   22.0437 N   0  0  0  0  0  0
  -25.4093  -15.1979   20.4197 N   0  0  0  0  0  0
  -31.8180  -14.9264   20.1902 O   0  0  0  0  0  0
  -21.6651   -6.8878   21.4234 O   0  0  0  0  0  0
  -22.3452  -14.5497   20.6708 O   0  0  0  0  0  0
  -24.6481  -31.8422   23.1874 C   0  0  0  0  0  0
  -25.9238  -32.4688   23.8272 C   0  0  1  0  0  0
  -27.2045  -27.0953   20.1619 C   0  0  0  0  0  0
  -25.5971  -33.8493   24.2190 N   0  0  0  0  0  0
  -23.4535  -30.4628   21.5332 C   0  0  2  0  0  0
  -24.9030  -28.8873   20.1110 C   0  0  0  0  0  0
  -22.7593  -29.4544   22.4841 C   0  0  0  0  0  0
  -18.0311  -28.1405   22.8473 C   0  0  0  0  0  0
  -24.1491  -36.7248   23.2640 C   0  0  0  0  0  0
  -26.0138  -30.7018   21.3956 C   0  0  0  0  0  0
  -26.0833  -29.3095   20.7378 C   0  0  0  0  0  0
  -27.2382  -28.4310   20.7457 C   0  0  0  0  0  0
  -26.0064  -26.7997   19.4748 C   0  0  0  0  0  0
  -24.8797  -27.6466   19.4615 C   0  0  0  0  0  0
  -23.6833  -29.7954   20.1525 C   0  0  0  0  0  0
  -25.4124  -36.3025   24.0315 C   0  0  1  0  0  0
  -20.5927  -28.3741   23.1224 C   0  0  2  0  0  0
  -20.6797  -26.9440   22.5403 C   0  0  0  0  0  0
  -19.5769  -26.6386   21.5215 C   0  0  0  0  0  0
  -18.1949  -26.7941   22.1621 C   0  0  0  0  0  0
  -19.1568  -28.8892   23.2839 C   0  0  0  0  0  0
  -18.9482  -30.1483   23.8873 C   0  0  0  0  0  0
  -17.6479  -30.6598   24.0559 C   0  0  0  0  0  0
  -25.9078  -34.9401   23.5059 C   0  0  0  0  0  0
  -16.5371  -29.9090   23.6339 C   0  0  0  0  0  0
  -16.7294  -28.6509   23.0358 C   0  0  0  0  0  0
  -26.4532  -31.6565   25.0728 C   0  0  0  0  0  0
  -25.3699  -31.3776   26.1415 C   0  0  0  0  0  0
  -27.0400  -30.2948   24.6353 C   0  0  0  0  0  0
  -27.6056  -32.4335   25.7521 C   0  0  0  0  0  0
  -27.5575  -37.1783   24.8463 C   0  0  0  0  0  0
  -21.4280  -29.3058   22.3585 N   0  0  0  0  0  0
  -26.4284  -37.3744   23.9409 N   0  0  0  0  0  0
  -24.7250  -31.0247   22.0930 N   0  0  0  0  0  0
  -23.4218  -28.8090   23.3005 O   0  0  0  0  0  0
  -28.2119  -26.0494   20.2078 O   0  0  0  0  0  0
  -26.5663  -34.8897   22.4636 O   0  0  0  0  0  0
  -23.5589  -32.1316   23.7065 O   0  0  0  0  0  0
  -29.1801  -22.5089   19.2793 C   0  0  0  0  0  0
  -29.6322  -21.0988   19.2367 C   0  0  0  0  0  0
  -28.4743  -23.0685   20.4095 C   0  0  0  0  0  0
  -29.2493  -20.1061   20.2248 C   0  0  0  0  0  0
  -28.2131  -22.0055   21.3620 C   0  0  0  0  0  0
  -31.8788  -19.9794   18.4057 C   0  0  0  0  0  0
  -31.8377  -21.3487   17.7893 C   0  0  0  0  0  0
  -28.3940  -24.4408   17.5835 C   0  0  0  0  0  0
  -30.7025  -17.5988   20.9277 C   0  0  0  0  0  0
  -28.7800  -17.0915   20.3018 C   0  0  0  0  0  0
  -28.7153  -23.9027   16.2043 C   0  0  0  0  0  0
  -30.5394  -20.6344   18.1204 C   0  0  0  0  0  0
  -29.4409  -23.4441   18.0852 C   0  0  2  0  0  0
  -29.6133  -18.4569   20.1700 C   0  0  0  0  0  0
  -27.4125  -22.3047   22.6167 C   0  0  0  0  0  0
  -27.7719  -24.5900   20.5886 C   0  0  0  0  0  0
  -28.5620  -20.6557   21.2734 N   0  0  0  0  0  0
  -30.0212  -16.2749   20.6238 N   0  0  0  0  0  0
  -29.4232  -22.7808   16.7834 O   0  0  0  0  0  0
  -31.4558  -12.7427   19.1842 H   0  0  0  0  0  0
  -30.3960  -11.6811   20.0632 H   0  0  0  0  0  0
  -29.8369  -11.7152   17.6019 H   0  0  0  0  0  0
  -29.5981  -13.4451   17.6706 H   0  0  0  0  0  0
  -27.9501  -11.2761   18.9993 H   0  0  0  0  0  0
  -27.3856  -12.4279   17.8195 H   0  0  0  0  0  0
  -27.5635  -14.2537   19.3737 H   0  0  0  0  0  0
  -28.7614  -12.4027   21.4873 H   0  0  0  0  0  0
  -28.3590  -14.0953   21.7000 H   0  0  0  0  0  0
  -25.2783   -9.5688   22.4757 H   0  0  0  0  0  0
  -24.0012   -7.4643   22.7475 H   0  0  0  0  0  0
  -21.0856   -8.8784   19.8953 H   0  0  0  0  0  0
  -22.3713  -10.9678   19.6166 H   0  0  0  0  0  0
  -21.2006   -7.6146   23.9708 H   0  0  0  0  0  0
  -21.1486   -6.0518   25.9071 H   0  0  0  0  0  0
  -22.0598   -2.7604   23.2838 H   0  0  0  0  0  0
  -22.4071  -11.9877   22.4850 H   0  0  0  0  0  0
  -21.1041  -13.1190   22.2623 H   0  0  0  0  0  0
  -24.6444  -15.8525   20.5420 H   0  0  0  0  0  0
  -26.2642  -15.6389   20.1082 H   0  0  0  0  0  0
  -26.7307  -32.5281   23.0999 H   0  0  0  0  0  0
  -25.0087  -33.9607   25.0315 H   0  0  0  0  0  0
  -22.7579  -31.2900   21.3781 H   0  0  0  0  0  0
  -23.3764  -35.9568   23.3279 H   0  0  0  0  0  0
  -24.3577  -36.8906   22.2060 H   0  0  0  0  0  0
  -23.7233  -37.6429   23.6696 H   0  0  0  0  0  0
  -26.1769  -31.4546   20.6233 H   0  0  0  0  0  0
  -26.8818  -30.7520   22.0414 H   0  0  0  0  0  0
  -28.1347  -28.7483   21.2597 H   0  0  0  0  0  0
  -25.9075  -25.8656   18.9437 H   0  0  0  0  0  0
  -23.9857  -27.3232   18.9454 H   0  0  0  0  0  0
  -23.8272  -30.5717   19.4003 H   0  0  0  0  0  0
  -22.7967  -29.2427   19.8372 H   0  0  0  0  0  0
  -25.1312  -36.1843   25.0808 H   0  0  0  0  0  0
  -21.0018  -28.3337   24.1348 H   0  0  0  0  0  0
  -20.5693  -26.2359   23.3628 H   0  0  0  0  0  0
  -21.6662  -26.7442   22.1200 H   0  0  0  0  0  0
  -19.6931  -25.6287   21.1271 H   0  0  0  0  0  0
  -19.6708  -27.3173   20.6726 H   0  0  0  0  0  0
  -17.4221  -26.6687   21.4024 H   0  0  0  0  0  0
  -18.0343  -26.0091   22.9022 H   0  0  0  0  0  0
  -19.7957  -30.7301   24.2236 H   0  0  0  0  0  0
  -17.5032  -31.6273   24.5164 H   0  0  0  0  0  0
  -15.5369  -30.2983   23.7680 H   0  0  0  0  0  0
  -15.8692  -28.0817   22.7096 H   0  0  0  0  0  0
  -24.5891  -30.7114   25.7736 H   0  0  0  0  0  0
  -24.8875  -32.2965   26.4759 H   0  0  0  0  0  0
  -25.7966  -30.9004   27.0246 H   0  0  0  0  0  0
  -26.3033  -29.6667   24.1338 H   0  0  0  0  0  0
  -27.3955  -29.7262   25.4955 H   0  0  0  0  0  0
  -27.8965  -30.4159   23.9721 H   0  0  0  0  0  0
  -27.2650  -33.3661   26.2035 H   0  0  0  0  0  0
  -28.3907  -32.6861   25.0381 H   0  0  0  0  0  0
  -28.0681  -31.8501   26.5493 H   0  0  0  0  0  0
  -28.2580  -38.0090   24.7512 H   0  0  0  0  0  0
  -28.1083  -36.2621   24.6282 H   0  0  0  0  0  0
  -27.2295  -37.1417   25.8865 H   0  0  0  0  0  0
  -20.9499  -29.8766   21.6752 H   0  0  0  0  0  0
  -26.0144  -38.2808   24.1416 H   0  0  0  0  0  0
  -32.2231  -19.9209   19.4361 H   0  0  0  0  0  0
  -32.1929  -19.1598   17.7611 H   0  0  0  0  0  0
  -32.1172  -21.4260   16.7401 H   0  0  0  0  0  0
  -32.1509  -22.1800   18.4179 H   0  0  0  0  0  0
  -27.3735  -24.2017   17.8792 H   0  0  0  0  0  0
  -28.6493  -25.4905   17.7273 H   0  0  0  0  0  0
  -30.7357  -17.8229   21.9944 H   0  0  0  0  0  0
  -31.6993  -17.7084   20.4983 H   0  0  0  0  0  0
  -28.2750  -16.8085   19.3780 H   0  0  0  0  0  0
  -28.0678  -17.1179   21.1274 H   0  0  0  0  0  0
  -29.3715  -24.5505   15.6200 H   0  0  0  0  0  0
  -27.8349  -23.6044   15.6335 H   0  0  0  0  0  0
  -29.9567  -20.2327   17.2920 H   0  0  0  0  0  0
  -30.3973  -23.9479   18.2418 H   0  0  0  0  0  0
  -29.9136  -18.3809   19.1274 H   0  0  0  0  0  0
  -27.9332  -23.0291   23.2427 H   0  0  0  0  0  0
  -27.2513  -21.4099   23.2198 H   0  0  0  0  0  0
  -26.4316  -22.7031   22.3577 H   0  0  0  0  0  0
  -27.6250  -24.7035   21.6606 H   0  0  0  0  0  0
  -26.7633  -24.4233   20.2190 H   0  0  0  0  0  0
  1 25  1  0  0  0
  1 30  2  0  0  0
  1 88  1  0  0  0
  2  3  1  0  0  0
  2 25  1  0  0  0
  2 90  1  0  0  0
  2 91  1  0  0  0
  3  4  1  0  0  0
  3 92  1  0  0  0
  3 93  1  0  0  0
  4  5  1  0  0  0
  4 94  1  0  0  0
  4 95  1  0  0  0
  5  6  1  0  0  0
  5 26  1  0  0  0
  5 96  1  0  0  0
  6 25  1  0  0  0
  6 97  1  0  0  0
  6 98  1  0  0  0
  7  8  2  0  0  0
  7 26  1  0  0  0
  7 29  1  0  0  0
  8  9  1  0  0  0
  8 22  1  0  0  0
  9 10  1  0  0  0
  9 27  2  0  0  0
 10 11  2  0  0  0
 10 15  1  0  0  0
 11 12  1  0  0  0
 11 99  1  0  0  0
 12 13  2  0  0  0
 12100  1  0  0  0
 13 14  1  0  0  0
 13 31  1  0  0  0
 14 15  2  0  0  0
 14101  1  0  0  0
 15102  1  0  0  0
 16 17  2  0  0  0
 16 21  1  0  0  0
 16 31  1  0  0  0
 17 18  1  0  0  0
 17103  1  0  0  0
 18 19  2  0  0  0
 18104  1  0  0  0
 19 20  1  0  0  0
 19 24  1  0  0  0
 20 21  2  0  0  0
 20105  1  0  0  0
 21 23  1  0  0  0
 22 28  1  0  0  0
 22 32  2  0  0  0
 26 27  1  0  0  0
 28106  1  0  0  0
 28107  1  0  0  0
 29108  1  0  0  0
 29109  1  0  0  0
 33 34  1  0  0  0
 33 66  1  0  0  0
 33 70  2  0  0  0
 34 36  1  0  0  0
 34 59  1  0  0  0
 34110  1  0  0  0
 35 44  2  0  0  0
 35 45  1  0  0  0
 35 68  1  0  0  0
 36 56  1  0  0  0
 36111  1  0  0  0
 37 39  1  0  0  0
 37 47  1  0  0  0
 37 66  1  0  0  0
 37112  1  0  0  0
 38 43  2  0  0  0
 38 46  1  0  0  0
 38 47  1  0  0  0
 39 64  1  0  0  0
 39 67  2  0  0  0
 40 52  1  0  0  0
 40 53  2  0  0  0
 40 58  1  0  0  0
 41113  1  0  0  0
 41114  1  0  0  0
 41115  1  0  0  0
 41 48  1  0  0  0
 42 43  1  0  0  0
 42 66  1  0  0  0
 42116  1  0  0  0
 42117  1  0  0  0
 43 44  1  0  0  0
 44118  1  0  0  0
 45 46  2  0  0  0
 45119  1  0  0  0
 46120  1  0  0  0
 47121  1  0  0  0
 47122  1  0  0  0
 48 56  1  0  0  0
 48 65  1  0  0  0
 48123  1  0  0  0
 49 50  1  0  0  0
 49 53  1  0  0  0
 49 64  1  0  0  0
 49124  1  0  0  0
 50 51  1  0  0  0
 50125  1  0  0  0
 50126  1  0  0  0
 51 52  1  0  0  0
 51127  1  0  0  0
 51128  1  0  0  0
 52129  1  0  0  0
 52130  1  0  0  0
 53 54  1  0  0  0
 54 55  2  0  0  0
 54131  1  0  0  0
 55 57  1  0  0  0
 55132  1  0  0  0
 56 69  2  0  0  0
 57 58  2  0  0  0
 57133  1  0  0  0
 58134  1  0  0  0
 59 60  1  0  0  0
 59 61  1  0  0  0
 59 62  1  0  0  0
 60135  1  0  0  0
 60136  1  0  0  0
 60137  1  0  0  0
 61138  1  0  0  0
 61139  1  0  0  0
 61140  1  0  0  0
 62141  1  0  0  0
 62142  1  0  0  0
 62143  1  0  0  0
 63 65  1  0  0  0
 63144  1  0  0  0
 63145  1  0  0  0
 63146  1  0  0  0
 64147  1  0  0  0
 65148  1  0  0  0
 68 86  1  0  0  0
 71 72  2  0  0  0
 71 73  1  0  0  0
 71 83  1  0  0  0
 72 74  1  0  0  0
 72 82  1  0  0  0
 73 75  2  0  0  0
 73 86  1  0  0  0
 74 87  2  0  0  0
 74 84  1  0  0  0
 75 85  1  0  0  0
 75 87  1  0  0  0
 76 77  1  0  0  0
 76 82  1  0  0  0
 76149  1  0  0  0
 76150  1  0  0  0
 77 82  1  0  0  0
 77151  1  0  0  0
 77152  1  0  0  0
 78 81  1  0  0  0
 78 83  1  0  0  0
 78153  1  0  0  0
 78154  1  0  0  0
 79 84  1  0  0  0
 79 88  1  0  0  0
 79155  1  0  0  0
 79156  1  0  0  0
 80 84  1  0  0  0
 80 88  1  0  0  0
 80157  1  0  0  0
 80158  1  0  0  0
 81 89  1  0  0  0
 81159  1  0  0  0
 81160  1  0  0  0
 82161  1  0  0  0
 83 89  1  0  0  0
 83162  1  0  0  0
 84163  1  0  0  0
 85164  1  0  0  0
 85165  1  0  0  0
 85166  1  0  0  0
 86167  1  0  0  0
 86168  1  0  0  0
M  ISO  4   1 100  68 101  86 101  88 100
M  END
> <chiral flag>
0

> <version>
0

> <s_m_source_file>
/data/baiqing/PycharmProjects/Reinvent-master-3.2/result/LINK_invent/BTK/process_docking_weight1_custom_sum_contain_oxygen_bond_distance_aromatic_linkinvent_7_9_3/rearranged_h_0171.sdf

> <i_m_source_file_index>
37

> <r_mmod_Potential_Energy-OPLS-2005>
633.006164550781

> <r_mmod_Stretch_Energy-OPLS-2005>
271.579803466797

> <r_mmod_Bend_Energy-OPLS-2005>
357.010711669922

> <r_mmod_Torsional_Energy-OPLS-2005>
328.626678466797

> <r_mmod_Improper_Torsional_Energy-OPLS-2005>
4.61738395690918

> <r_mmod_Van_der_Waal_Energy-OPLS-2005>
137.102035522461

> <r_mmod_Electrostatic_Energy-OPLS-2005>
-463.680358886719

> <r_mmod_Solvation_Energy-OPLS-2005>
-231.158264160156

> <b_mmod_Minimization_Converged-OPLS-2005>
0

> <r_mmod_RMS_Derivative-OPLS-2005>
1.06852066516876

$$$$
37
                    3D
 Structure written by MMmdl.
174184  0  0  1  0            999 V2000
  -30.7190  -14.4342   20.4607 C   0  0  0  0  0  0
  -30.4095  -12.2424   19.4178 C   0  0  0  0  0  0
  -29.4816  -12.4080   18.1961 C   0  0  0  0  0  0
  -27.9977  -12.3322   18.6093 C   0  0  0  0  0  0
  -27.6511  -13.1941   19.8536 C   0  0  2  0  0  0
  -28.7035  -13.0199   20.9732 C   0  0  0  0  0  0
  -25.2587  -13.8146   20.5676 C   0  0  0  0  0  0
  -24.1819  -13.0451   20.9184 C   0  0  0  0  0  0
  -24.6341  -11.6905   20.8749 C   0  0  0  0  0  0
  -23.9010  -10.4289   21.0397 C   0  0  0  0  0  0
  -24.3581   -9.4207   21.9171 C   0  0  0  0  0  0
  -23.6287   -8.2222   22.0737 C   0  0  0  0  0  0
  -22.4264   -8.0256   21.3529 C   0  0  0  0  0  0
  -21.9892   -9.0221   20.4633 C   0  0  0  0  0  0
  -22.7183  -10.2121   20.3039 C   0  0  0  0  0  0
  -21.6848   -6.0715   22.5282 C   0  0  0  0  0  0
  -21.3995   -6.5621   23.8209 C   0  0  0  0  0  0
  -21.3668   -5.6782   24.9183 C   0  0  0  0  0  0
  -21.6063   -4.3045   24.7227 C   0  0  0  0  0  0
  -21.8831   -3.8127   23.4346 C   0  0  0  0  0  0
  -21.9189   -4.6941   22.3402 C   0  0  0  0  0  0
  -22.7849  -13.5265   21.1859 C   0  0  0  0  0  0
  -22.1655   -4.2124   21.0985 F   0  0  0  0  0  0
  -21.5648   -3.4530   25.7733 F   0  0  0  0  0  0
  -30.0312  -13.2668   20.3945 N   0  0  0  0  0  0
  -26.2978  -12.9263   20.3327 N   0  0  0  0  0  0
  -25.9264  -11.6451   20.5796 N   0  0  0  0  0  0
  -22.0477  -12.8261   22.0399 N   0  0  0  0  0  0
  -25.4420  -15.1844   20.4057 N   0  0  0  0  0  0
  -31.9248  -14.5349   20.2199 O   0  0  0  0  0  0
  -21.6638   -6.8850   21.4236 O   0  0  0  0  0  0
  -22.3548  -14.5583   20.6707 O   0  0  0  0  0  0
  -24.6090  -31.8721   23.2140 C   0  0  0  0  0  0
  -25.9007  -32.4838   23.8408 C   0  0  1  0  0  0
  -27.2381  -27.4833   20.0771 C   0  0  0  0  0  0
  -25.5897  -33.8639   24.2342 N   0  0  0  0  0  0
  -23.3921  -30.4969   21.5536 C   0  0  2  0  0  0
  -24.8353  -28.9657   20.1174 C   0  0  0  0  0  0
  -22.7366  -29.4679   22.5007 C   0  0  0  0  0  0
  -18.0263  -28.1364   22.8497 C   0  0  0  0  0  0
  -24.1489  -36.7314   23.2638 C   0  0  0  0  0  0
  -25.9152  -30.8513   21.3600 C   0  0  0  0  0  0
  -25.9907  -29.4882   20.7088 C   0  0  0  0  0  0
  -27.1877  -28.7501   20.6937 C   0  0  0  0  0  0
  -26.0570  -26.9497   19.5094 C   0  0  0  0  0  0
  -24.8595  -27.6915   19.5229 C   0  0  0  0  0  0
  -23.5973  -29.8299   20.1672 C   0  0  0  0  0  0
  -25.4110  -36.3120   24.0339 C   0  0  1  0  0  0
  -20.5847  -28.3645   23.1335 C   0  0  2  0  0  0
  -20.6752  -26.9389   22.5419 C   0  0  0  0  0  0
  -19.5739  -26.6381   21.5205 C   0  0  0  0  0  0
  -18.1914  -26.7917   22.1617 C   0  0  0  0  0  0
  -19.1510  -28.8819   23.2917 C   0  0  0  0  0  0
  -18.9439  -30.1428   23.8921 C   0  0  0  0  0  0
  -17.6445  -30.6578   24.0559 C   0  0  0  0  0  0
  -25.9034  -34.9482   23.5134 C   0  0  0  0  0  0
  -16.5336  -29.9078   23.6327 C   0  0  0  0  0  0
  -16.7250  -28.6493   23.0351 C   0  0  0  0  0  0
  -26.4466  -31.6607   25.0718 C   0  0  0  0  0  0
  -25.3754  -31.3710   26.1485 C   0  0  0  0  0  0
  -27.0282  -30.3053   24.6065 C   0  0  0  0  0  0
  -27.6061  -32.4314   25.7465 C   0  0  0  0  0  0
  -27.5579  -37.1815   24.8466 C   0  0  0  0  0  0
  -21.4103  -29.3024   22.3748 N   0  0  0  0  0  0
  -26.4299  -37.3798   23.9404 N   0  0  0  0  0  0
  -24.6563  -31.0870   22.1018 N   0  0  0  0  0  0
  -23.4162  -28.8217   23.3036 O   0  0  0  0  0  0
  -28.4578  -26.8521   20.0892 O   0  0  0  0  0  0
  -26.5581  -34.8927   22.4686 O   0  0  0  0  0  0
  -23.5298  -32.1450   23.7581 O   0  0  0  0  0  0
  -28.6769  -23.2701   19.4358 C   0  0  0  0  0  0
  -29.8673  -22.1651   21.2142 C   0  0  0  0  0  0
  -29.1099  -22.0657   20.0295 C   0  0  0  0  0  0
  -29.1018  -24.5008   19.9663 C   0  0  0  0  0  0
  -29.9214  -24.4844   21.1218 C   0  0  0  0  0  0
  -30.3730  -17.3982   18.6988 C   0  0  0  0  0  0
  -29.2593  -17.8946   20.9221 C   0  0  0  0  0  0
  -29.8235  -15.9902   18.9005 C   0  0  0  0  0  0
  -30.0139  -16.5958   21.3110 C   0  0  0  0  0  0
  -29.7882  -20.6242   17.2393 C   0  0  0  0  0  0
  -28.8179  -20.6941   19.4095 C   0  0  2  0  0  0
  -29.5044  -18.3963   19.4730 C   0  0  0  0  0  0
  -30.8083  -20.2068   18.3080 C   0  0  1  0  0  0
  -30.5097  -25.7404   21.7407 C   0  0  0  0  0  0
  -31.8300  -21.3095   18.6621 C   0  0  0  0  0  0
  -28.7468  -25.7736   19.2133 C   0  0  0  0  0  0
  -30.2656  -23.3388   21.7473 N   0  0  0  0  0  0
  -29.9432  -15.5268   20.2976 N   0  0  0  0  0  0
  -29.9914  -19.7962   19.4748 N   0  0  0  0  0  0
  -28.5194  -20.7734   17.9623 N   0  3  0  0  0  0
  -31.4564  -12.3143   19.1155 H   0  0  0  0  0  0
  -30.2872  -11.2479   19.8528 H   0  0  0  0  0  0
  -29.6944  -11.6259   17.4670 H   0  0  0  0  0  0
  -29.6710  -13.3472   17.6820 H   0  0  0  0  0  0
  -27.7797  -11.2851   18.8187 H   0  0  0  0  0  0
  -27.3572  -12.6061   17.7697 H   0  0  0  0  0  0
  -27.6715  -14.2293   19.5241 H   0  0  0  0  0  0
  -28.6596  -12.0089   21.3805 H   0  0  0  0  0  0
  -28.5038  -13.6991   21.8029 H   0  0  0  0  0  0
  -25.2717   -9.5692   22.4753 H   0  0  0  0  0  0
  -24.0003   -7.4613   22.7452 H   0  0  0  0  0  0
  -21.0813   -8.8719   19.8949 H   0  0  0  0  0  0
  -22.3613  -10.9656   19.6148 H   0  0  0  0  0  0
  -21.1960   -7.6122   23.9711 H   0  0  0  0  0  0
  -21.1499   -6.0502   25.9097 H   0  0  0  0  0  0
  -22.0602   -2.7584   23.2852 H   0  0  0  0  0  0
  -22.4059  -11.9900   22.4774 H   0  0  0  0  0  0
  -21.1094  -13.1296   22.2609 H   0  0  0  0  0  0
  -24.6953  -15.8604   20.5212 H   0  0  0  0  0  0
  -26.3230  -15.6062   20.1411 H   0  0  0  0  0  0
  -26.7077  -32.5567   23.1176 H   0  0  0  0  0  0
  -25.0087  -33.9813   25.0513 H   0  0  0  0  0  0
  -22.6779  -31.3124   21.4180 H   0  0  0  0  0  0
  -23.3744  -35.9656   23.3337 H   0  0  0  0  0  0
  -24.3580  -36.8886   22.2045 H   0  0  0  0  0  0
  -23.7251  -37.6536   23.6625 H   0  0  0  0  0  0
  -26.0223  -31.6207   20.5944 H   0  0  0  0  0  0
  -26.8049  -30.9020   21.9752 H   0  0  0  0  0  0
  -28.0829  -29.1575   21.1426 H   0  0  0  0  0  0
  -26.0272  -25.9659   19.0663 H   0  0  0  0  0  0
  -23.9639  -27.2757   19.0809 H   0  0  0  0  0  0
  -23.7038  -30.6052   19.4070 H   0  0  0  0  0  0
  -22.7220  -29.2487   19.8718 H   0  0  0  0  0  0
  -25.1292  -36.1990   25.0832 H   0  0  0  0  0  0
  -20.9938  -28.3202   24.1456 H   0  0  0  0  0  0
  -20.5659  -26.2248   23.3595 H   0  0  0  0  0  0
  -21.6629  -26.7449   22.1207 H   0  0  0  0  0  0
  -19.6905  -25.6300   21.1218 H   0  0  0  0  0  0
  -19.6686  -27.3204   20.6747 H   0  0  0  0  0  0
  -17.4193  -26.6669   21.4008 H   0  0  0  0  0  0
  -18.0316  -26.0043   22.8997 H   0  0  0  0  0  0
  -19.7919  -30.7226   24.2304 H   0  0  0  0  0  0
  -17.5010  -31.6267   24.5146 H   0  0  0  0  0  0
  -15.5338  -30.2987   23.7648 H   0  0  0  0  0  0
  -15.8649  -28.0818   22.7063 H   0  0  0  0  0  0
  -24.5912  -30.7069   25.7831 H   0  0  0  0  0  0
  -24.8964  -32.2868   26.4960 H   0  0  0  0  0  0
  -25.8126  -30.8860   27.0224 H   0  0  0  0  0  0
  -26.2801  -29.6814   24.1159 H   0  0  0  0  0  0
  -27.4104  -29.7291   25.4503 H   0  0  0  0  0  0
  -27.8618  -30.4376   23.9161 H   0  0  0  0  0  0
  -27.2694  -33.3597   26.2096 H   0  0  0  0  0  0
  -28.3841  -32.6904   25.0269 H   0  0  0  0  0  0
  -28.0765  -31.8405   26.5336 H   0  0  0  0  0  0
  -28.2627  -38.0082   24.7489 H   0  0  0  0  0  0
  -28.1043  -36.2617   24.6329 H   0  0  0  0  0  0
  -27.2294  -37.1506   25.8869 H   0  0  0  0  0  0
  -20.9240  -29.8750   21.6985 H   0  0  0  0  0  0
  -26.0193  -38.2881   24.1395 H   0  0  0  0  0  0
  -28.0777  -23.2627   18.5375 H   0  0  0  0  0  0
  -30.2186  -21.2803   21.7241 H   0  0  0  0  0  0
  -30.3445  -17.6102   17.6298 H   0  0  0  0  0  0
  -31.4173  -17.4449   19.0158 H   0  0  0  0  0  0
  -29.5004  -18.6703   21.6511 H   0  0  0  0  0  0
  -28.1908  -17.7108   21.0412 H   0  0  0  0  0  0
  -30.3456  -15.3386   18.1978 H   0  0  0  0  0  0
  -28.7745  -15.9636   18.6066 H   0  0  0  0  0  0
  -29.6161  -16.2157   22.2545 H   0  0  0  0  0  0
  -31.0620  -16.8409   21.4962 H   0  0  0  0  0  0
  -29.6895  -19.8545   16.4719 H   0  0  0  0  0  0
  -30.0737  -21.5520   16.7415 H   0  0  0  0  0  0
  -27.9639  -20.2893   19.9586 H   0  0  0  0  0  0
  -28.5390  -18.3550   18.9655 H   0  0  0  0  0  0
  -31.4445  -19.4116   17.9270 H   0  0  0  0  0  0
  -30.8312  -26.4464   20.9754 H   0  0  0  0  0  0
  -31.3842  -25.5111   22.3507 H   0  0  0  0  0  0
  -29.7731  -26.2294   22.3776 H   0  0  0  0  0  0
  -31.3858  -22.2842   18.8522 H   0  0  0  0  0  0
  -32.5270  -21.4531   17.8371 H   0  0  0  0  0  0
  -32.4204  -21.0358   19.5373 H   0  0  0  0  0  0
  -27.9839  -25.5847   18.4608 H   0  0  0  0  0  0
  -29.6282  -26.0592   18.6382 H   0  0  0  0  0  0
  -27.9258  -20.0002   17.7060 H   0  0  0  0  0  0
  -28.0323  -21.6162   17.7107 H   0  0  0  0  0  0
  1 25  1  0  0  0
  1 30  2  0  0  0
  1 88  1  0  0  0
  2  3  1  0  0  0
  2 25  1  0  0  0
  2 91  1  0  0  0
  2 92  1  0  0  0
  3  4  1  0  0  0
  3 93  1  0  0  0
  3 94  1  0  0  0
  4  5  1  0  0  0
  4 95  1  0  0  0
  4 96  1  0  0  0
  5  6  1  0  0  0
  5 26  1  0  0  0
  5 97  1  0  0  0
  6 25  1  0  0  0
  6 98  1  0  0  0
  6 99  1  0  0  0
  7  8  2  0  0  0
  7 26  1  0  0  0
  7 29  1  0  0  0
  8  9  1  0  0  0
  8 22  1  0  0  0
  9 10  1  0  0  0
  9 27  2  0  0  0
 10 11  2  0  0  0
 10 15  1  0  0  0
 11 12  1  0  0  0
 11100  1  0  0  0
 12 13  2  0  0  0
 12101  1  0  0  0
 13 14  1  0  0  0
 13 31  1  0  0  0
 14 15  2  0  0  0
 14102  1  0  0  0
 15103  1  0  0  0
 16 17  2  0  0  0
 16 21  1  0  0  0
 16 31  1  0  0  0
 17 18  1  0  0  0
 17104  1  0  0  0
 18 19  2  0  0  0
 18105  1  0  0  0
 19 20  1  0  0  0
 19 24  1  0  0  0
 20 21  2  0  0  0
 20106  1  0  0  0
 21 23  1  0  0  0
 22 28  1  0  0  0
 22 32  2  0  0  0
 26 27  1  0  0  0
 28107  1  0  0  0
 28108  1  0  0  0
 29109  1  0  0  0
 29110  1  0  0  0
 33 34  1  0  0  0
 33 66  1  0  0  0
 33 70  2  0  0  0
 34 36  1  0  0  0
 34 59  1  0  0  0
 34111  1  0  0  0
 35 44  2  0  0  0
 35 45  1  0  0  0
 35 68  1  0  0  0
 36 56  1  0  0  0
 36112  1  0  0  0
 37 39  1  0  0  0
 37 47  1  0  0  0
 37 66  1  0  0  0
 37113  1  0  0  0
 38 43  2  0  0  0
 38 46  1  0  0  0
 38 47  1  0  0  0
 39 64  1  0  0  0
 39 67  2  0  0  0
 40 52  1  0  0  0
 40 53  2  0  0  0
 40 58  1  0  0  0
 41114  1  0  0  0
 41115  1  0  0  0
 41116  1  0  0  0
 41 48  1  0  0  0
 42 43  1  0  0  0
 42 66  1  0  0  0
 42117  1  0  0  0
 42118  1  0  0  0
 43 44  1  0  0  0
 44119  1  0  0  0
 45 46  2  0  0  0
 45120  1  0  0  0
 46121  1  0  0  0
 47122  1  0  0  0
 47123  1  0  0  0
 48 56  1  0  0  0
 48 65  1  0  0  0
 48124  1  0  0  0
 49 50  1  0  0  0
 49 53  1  0  0  0
 49 64  1  0  0  0
 49125  1  0  0  0
 50 51  1  0  0  0
 50126  1  0  0  0
 50127  1  0  0  0
 51 52  1  0  0  0
 51128  1  0  0  0
 51129  1  0  0  0
 52130  1  0  0  0
 52131  1  0  0  0
 53 54  1  0  0  0
 54 55  2  0  0  0
 54132  1  0  0  0
 55 57  1  0  0  0
 55133  1  0  0  0
 56 69  2  0  0  0
 57 58  2  0  0  0
 57134  1  0  0  0
 58135  1  0  0  0
 59 60  1  0  0  0
 59 61  1  0  0  0
 59 62  1  0  0  0
 60136  1  0  0  0
 60137  1  0  0  0
 60138  1  0  0  0
 61139  1  0  0  0
 61140  1  0  0  0
 61141  1  0  0  0
 62142  1  0  0  0
 62143  1  0  0  0
 62144  1  0  0  0
 63 65  1  0  0  0
 63145  1  0  0  0
 63146  1  0  0  0
 63147  1  0  0  0
 64148  1  0  0  0
 65149  1  0  0  0
 68 86  1  0  0  0
 71 73  2  0  0  0
 71 74  1  0  0  0
 71150  1  0  0  0
 72 73  1  0  0  0
 72 87  2  0  0  0
 72151  1  0  0  0
 73 81  1  0  0  0
 74 75  2  0  0  0
 74 86  1  0  0  0
 75 84  1  0  0  0
 75 87  1  0  0  0
 76 78  1  0  0  0
 76 82  1  0  0  0
 76152  1  0  0  0
 76153  1  0  0  0
 77 79  1  0  0  0
 77 82  1  0  0  0
 77154  1  0  0  0
 77155  1  0  0  0
 78 88  1  0  0  0
 78156  1  0  0  0
 78157  1  0  0  0
 79 88  1  0  0  0
 79158  1  0  0  0
 79159  1  0  0  0
 80 83  1  0  0  0
 80 90  1  0  0  0
 80160  1  0  0  0
 80161  1  0  0  0
 81 89  1  0  0  0
 81 90  1  0  0  0
 81162  1  0  0  0
 82163  1  0  0  0
 82 89  1  0  0  0
 83 85  1  0  0  0
 83 89  1  0  0  0
 83164  1  0  0  0
 84165  1  0  0  0
 84166  1  0  0  0
 84167  1  0  0  0
 85168  1  0  0  0
 85169  1  0  0  0
 85170  1  0  0  0
 86171  1  0  0  0
 86172  1  0  0  0
 90173  1  0  0  0
 90174  1  0  0  0
M  CHG  1  90   1
M  ISO  4   1 100  68 101  86 101  88 100
M  END
> <chiral flag>
0

> <version>
0

> <s_m_source_file>
/data/baiqing/PycharmProjects/Reinvent-master-3.2/result/LINK_invent/BTK/process_docking_weight1_custom_sum_contain_oxygen_bond_distance_aromatic_linkinvent_7_9_3/rearranged_h_0171.sdf

> <i_m_source_file_index>
38

> <r_mmod_Potential_Energy-OPLS-2005>
90.8394775390625

> <r_mmod_Stretch_Energy-OPLS-2005>
39.7063636779785

> <r_mmod_Bend_Energy-OPLS-2005>
141.041213989258

> <r_mmod_Torsional_Energy-OPLS-2005>
436.096374511719

> <r_mmod_Improper_Torsional_Energy-OPLS-2005>
18.6823921203613

> <r_mmod_Van_der_Waal_Energy-OPLS-2005>
184.976913452148

> <r_mmod_Electrostatic_Energy-OPLS-2005>
-281.374755859375

> <r_mmod_Solvation_Energy-OPLS-2005>
-471.628631591797

> <b_mmod_Minimization_Converged-OPLS-2005>
0

> <r_mmod_RMS_Derivative-OPLS-2005>
2.51126384735107

$$$$
38
                    3D
 Structure written by MMmdl.
172181  0  0  1  0            999 V2000
  -30.5102  -14.9602   20.4284 C   0  0  0  0  0  0
  -30.4476  -12.5903   19.5050 C   0  0  0  0  0  0
  -29.5258  -12.5377   18.2619 C   0  0  0  0  0  0
  -28.0563  -12.3185   18.6727 C   0  0  0  0  0  0
  -27.6360  -13.2367   19.8491 C   0  0  2  0  0  0
  -28.6798  -13.2207   20.9866 C   0  0  0  0  0  0
  -25.2515  -13.8185   20.5742 C   0  0  0  0  0  0
  -24.1784  -13.0432   20.9172 C   0  0  0  0  0  0
  -24.6381  -11.6904   20.8721 C   0  0  0  0  0  0
  -23.9057  -10.4284   21.0397 C   0  0  0  0  0  0
  -24.3610   -9.4206   21.9184 C   0  0  0  0  0  0
  -23.6287   -8.2244   22.0753 C   0  0  0  0  0  0
  -22.4270   -8.0275   21.3545 C   0  0  0  0  0  0
  -21.9906   -9.0244   20.4641 C   0  0  0  0  0  0
  -22.7228  -10.2126   20.3046 C   0  0  0  0  0  0
  -21.6849   -6.0729   22.5276 C   0  0  0  0  0  0
  -21.4008   -6.5636   23.8209 C   0  0  0  0  0  0
  -21.3661   -5.6793   24.9174 C   0  0  0  0  0  0
  -21.6049   -4.3053   24.7227 C   0  0  0  0  0  0
  -21.8818   -3.8142   23.4347 C   0  0  0  0  0  0
  -21.9194   -4.6956   22.3403 C   0  0  0  0  0  0
  -22.7810  -13.5215   21.1858 C   0  0  0  0  0  0
  -22.1661   -4.2144   21.0977 F   0  0  0  0  0  0
  -21.5639   -3.4533   25.7741 F   0  0  0  0  0  0
  -29.9524  -13.6740   20.4069 N   0  0  0  0  0  0
  -26.2923  -12.9388   20.3305 N   0  0  0  0  0  0
  -25.9313  -11.6518   20.5735 N   0  0  0  0  0  0
  -22.0468  -12.8199   22.0421 N   0  0  0  0  0  0
  -25.4349  -15.1890   20.4301 N   0  0  0  0  0  0
  -31.6945  -15.0105   20.0706 O   0  0  0  0  0  0
  -21.6635   -6.8871   21.4239 O   0  0  0  0  0  0
  -22.3483  -14.5518   20.6720 O   0  0  0  0  0  0
  -24.6407  -31.8430   23.1875 C   0  0  0  0  0  0
  -25.9180  -32.4689   23.8269 C   0  0  1  0  0  0
  -27.2289  -27.1502   20.1500 C   0  0  0  0  0  0
  -25.5914  -33.8492   24.2180 N   0  0  0  0  0  0
  -23.4452  -30.4595   21.5327 C   0  0  2  0  0  0
  -24.8968  -28.8821   20.1080 C   0  0  0  0  0  0
  -22.7550  -29.4536   22.4873 C   0  0  0  0  0  0
  -18.0298  -28.1398   22.8476 C   0  0  0  0  0  0
  -24.1484  -36.7265   23.2647 C   0  0  0  0  0  0
  -25.9967  -30.7210   21.3837 C   0  0  0  0  0  0
  -26.0691  -29.3320   20.7271 C   0  0  0  0  0  0
  -27.2313  -28.4789   20.7322 C   0  0  0  0  0  0
  -26.0316  -26.7899   19.4973 C   0  0  0  0  0  0
  -24.8890  -27.6249   19.4793 C   0  0  0  0  0  0
  -23.6709  -29.7805   20.1529 C   0  0  0  0  0  0
  -25.4118  -36.3033   24.0320 C   0  0  1  0  0  0
  -20.5906  -28.3723   23.1243 C   0  0  2  0  0  0
  -20.6781  -26.9426   22.5411 C   0  0  0  0  0  0
  -19.5766  -26.6381   21.5207 C   0  0  0  0  0  0
  -18.1946  -26.7944   22.1607 C   0  0  0  0  0  0
  -19.1554  -28.8874   23.2856 C   0  0  0  0  0  0
  -18.9469  -30.1460   23.8889 C   0  0  0  0  0  0
  -17.6475  -30.6596   24.0556 C   0  0  0  0  0  0
  -25.9064  -34.9405   23.5070 C   0  0  0  0  0  0
  -16.5361  -29.9095   23.6342 C   0  0  0  0  0  0
  -16.7279  -28.6509   23.0367 C   0  0  0  0  0  0
  -26.4505  -31.6564   25.0713 C   0  0  0  0  0  0
  -25.3691  -31.3741   26.1407 C   0  0  0  0  0  0
  -27.0392  -30.2971   24.6302 C   0  0  0  0  0  0
  -27.6036  -32.4340   25.7494 C   0  0  0  0  0  0
  -27.5580  -37.1791   24.8460 C   0  0  0  0  0  0
  -21.4252  -29.3048   22.3618 N   0  0  0  0  0  0
  -26.4290  -37.3739   23.9404 N   0  0  0  0  0  0
  -24.7140  -31.0297   22.0900 N   0  0  0  0  0  0
  -23.4201  -28.8090   23.3027 O   0  0  0  0  0  0
  -28.3157  -26.2165   20.2649 O   0  0  0  0  0  0
  -26.5669  -34.8902   22.4656 O   0  0  0  0  0  0
  -23.5526  -32.1290   23.7112 O   0  0  0  0  0  0
  -30.1885  -17.1031   22.1289 C   0  0  0  0  0  0
  -31.0823  -16.5725   22.9857 C   0  0  0  0  0  0
  -29.5306  -18.4699   22.4477 C   0  0  0  0  0  0
  -28.9449  -20.5604   19.6609 C   0  0  0  0  0  0
  -29.1937  -21.8956   20.5565 C   0  0  2  0  0  0
  -29.2623  -21.0313   21.8753 C   0  0  1  0  0  0
  -29.7694  -17.7079   19.7224 C   0  0  2  0  0  0
  -29.7562  -16.4339   20.8059 C   0  0  1  0  0  0
  -30.0928  -19.6750   21.6273 C   0  0  2  0  0  0
  -29.9674  -19.3492   20.0936 C   0  0  2  0  0  0
  -29.6770  -21.8093   23.1405 C   0  0  0  0  0  0
  -28.6946  -17.5698   18.6247 C   0  0  0  0  0  0
  -31.5658  -19.8756   22.0836 C   0  0  0  0  0  0
  -31.2527  -19.7331   19.2978 C   0  0  0  0  0  0
  -28.2616  -23.3162   20.6215 C   0  0  0  0  0  0
  -28.4070  -24.7499   19.7582 C   0  0  0  0  0  0
  -28.3698  -16.1967   20.9718 O   0  0  0  0  0  0
  -31.4782  -12.7544   19.1883 H   0  0  0  0  0  0
  -30.4541  -11.6302   20.0231 H   0  0  0  0  0  0
  -29.8472  -11.7440   17.5857 H   0  0  0  0  0  0
  -29.6148  -13.4714   17.7044 H   0  0  0  0  0  0
  -27.9487  -11.2735   18.9661 H   0  0  0  0  0  0
  -27.3949  -12.4660   17.8178 H   0  0  0  0  0  0
  -27.6090  -14.2431   19.4334 H   0  0  0  0  0  0
  -28.7756  -12.2186   21.4075 H   0  0  0  0  0  0
  -28.3783  -13.8576   21.8179 H   0  0  0  0  0  0
  -25.2750   -9.5694   22.4759 H   0  0  0  0  0  0
  -23.9997   -7.4641   22.7475 H   0  0  0  0  0  0
  -21.0841   -8.8755   19.8943 H   0  0  0  0  0  0
  -22.3681  -10.9662   19.6152 H   0  0  0  0  0  0
  -21.1983   -7.6140   23.9710 H   0  0  0  0  0  0
  -21.1490   -6.0519   25.9082 H   0  0  0  0  0  0
  -22.0594   -2.7600   23.2846 H   0  0  0  0  0  0
  -22.4090  -11.9854   22.4805 H   0  0  0  0  0  0
  -21.1084  -13.1218   22.2631 H   0  0  0  0  0  0
  -24.7121  -15.8721   20.6244 H   0  0  0  0  0  0
  -26.3672  -15.5902   20.3527 H   0  0  0  0  0  0
  -26.7253  -32.5309   23.1010 H   0  0  0  0  0  0
  -24.9973  -33.9579   25.0267 H   0  0  0  0  0  0
  -22.7466  -31.2843   21.3758 H   0  0  0  0  0  0
  -23.3741  -35.9600   23.3298 H   0  0  0  0  0  0
  -24.3543  -36.8901   22.2055 H   0  0  0  0  0  0
  -23.7248  -37.6460   23.6693 H   0  0  0  0  0  0
  -26.1478  -31.4749   20.6101 H   0  0  0  0  0  0
  -26.8683  -30.7749   22.0243 H   0  0  0  0  0  0
  -28.1246  -28.8157   21.2391 H   0  0  0  0  0  0
  -25.9440  -25.8203   19.0316 H   0  0  0  0  0  0
  -23.9908  -27.2734   18.9904 H   0  0  0  0  0  0
  -23.8045  -30.5505   19.3917 H   0  0  0  0  0  0
  -22.7870  -29.2166   19.8491 H   0  0  0  0  0  0
  -25.1313  -36.1868   25.0814 H   0  0  0  0  0  0
  -20.9989  -28.3318   24.1364 H   0  0  0  0  0  0
  -20.5660  -26.2335   23.3628 H   0  0  0  0  0  0
  -21.6662  -26.7430   22.1224 H   0  0  0  0  0  0
  -19.6916  -25.6283   21.1251 H   0  0  0  0  0  0
  -19.6709  -27.3176   20.6721 H   0  0  0  0  0  0
  -17.4218  -26.6683   21.4000 H   0  0  0  0  0  0
  -18.0331  -26.0083   22.8995 H   0  0  0  0  0  0
  -19.7950  -30.7270   24.2267 H   0  0  0  0  0  0
  -17.5037  -31.6279   24.5163 H   0  0  0  0  0  0
  -15.5365  -30.2995   23.7686 H   0  0  0  0  0  0
  -15.8672  -28.0822   22.7111 H   0  0  0  0  0  0
  -24.5899  -30.7059   25.7713 H   0  0  0  0  0  0
  -24.8843  -32.2914   26.4769 H   0  0  0  0  0  0
  -25.7978  -30.8957   27.0224 H   0  0  0  0  0  0
  -26.3022  -29.6668   24.1316 H   0  0  0  0  0  0
  -27.4007  -29.7299   25.4885 H   0  0  0  0  0  0
  -27.8914  -30.4198   23.9618 H   0  0  0  0  0  0
  -27.2640  -33.3673   26.2003 H   0  0  0  0  0  0
  -28.3884  -32.6850   25.0345 H   0  0  0  0  0  0
  -28.0678  -31.8521   26.5469 H   0  0  0  0  0  0
  -28.2597  -38.0092   24.7512 H   0  0  0  0  0  0
  -28.1086  -36.2624   24.6297 H   0  0  0  0  0  0
  -27.2285  -37.1427   25.8858 H   0  0  0  0  0  0
  -20.9462  -29.8750   21.6788 H   0  0  0  0  0  0
  -26.0162  -38.2805   24.1413 H   0  0  0  0  0  0
  -31.3521  -17.0917   23.8933 H   0  0  0  0  0  0
  -31.5701  -15.6264   22.8078 H   0  0  0  0  0  0
  -29.6513  -18.6754   23.5119 H   0  0  0  0  0  0
  -28.4531  -18.3946   22.3043 H   0  0  0  0  0  0
  -29.0238  -20.7906   18.5978 H   0  0  0  0  0  0
  -27.9176  -20.2225   19.8051 H   0  0  0  0  0  0
  -30.2047  -22.2474   20.3597 H   0  0  0  0  0  0
  -28.2310  -20.7291   22.0733 H   0  0  0  0  0  0
  -30.6746  -17.4414   19.1771 H   0  0  0  0  0  0
  -30.6395  -22.3064   23.0211 H   0  0  0  0  0  0
  -29.7444  -21.1417   24.0005 H   0  0  0  0  0  0
  -28.9422  -22.5661   23.4103 H   0  0  0  0  0  0
  -27.7056  -17.8297   19.0041 H   0  0  0  0  0  0
  -28.6464  -16.5524   18.2369 H   0  0  0  0  0  0
  -28.9046  -18.2313   17.7840 H   0  0  0  0  0  0
  -31.6444  -19.9600   23.1677 H   0  0  0  0  0  0
  -32.0053  -20.7828   21.6684 H   0  0  0  0  0  0
  -32.2024  -19.0372   21.8008 H   0  0  0  0  0  0
  -31.0956  -19.6097   18.2258 H   0  0  0  0  0  0
  -32.1098  -19.1103   19.5558 H   0  0  0  0  0  0
  -31.5613  -20.7670   19.4393 H   0  0  0  0  0  0
  -28.3767  -23.6707   21.6424 H   0  0  0  0  0  0
  -27.2129  -23.0216   20.5809 H   0  0  0  0  0  0
  -27.7974  -24.6592   18.8593 H   0  0  0  0  0  0
  -29.4204  -24.7125   19.3588 H   0  0  0  0  0  0
  -27.9960  -17.0228   21.2484 H   0  0  0  0  0  0
  1 25  1  0  0  0
  1 30  2  0  0  0
  1 78  1  0  0  0
  2  3  1  0  0  0
  2 25  1  0  0  0
  2 88  1  0  0  0
  2 89  1  0  0  0
  3  4  1  0  0  0
  3 90  1  0  0  0
  3 91  1  0  0  0
  4  5  1  0  0  0
  4 92  1  0  0  0
  4 93  1  0  0  0
  5  6  1  0  0  0
  5 26  1  0  0  0
  5 94  1  0  0  0
  6 25  1  0  0  0
  6 95  1  0  0  0
  6 96  1  0  0  0
  7  8  2  0  0  0
  7 26  1  0  0  0
  7 29  1  0  0  0
  8  9  1  0  0  0
  8 22  1  0  0  0
  9 10  1  0  0  0
  9 27  2  0  0  0
 10 11  2  0  0  0
 10 15  1  0  0  0
 11 12  1  0  0  0
 11 97  1  0  0  0
 12 13  2  0  0  0
 12 98  1  0  0  0
 13 14  1  0  0  0
 13 31  1  0  0  0
 14 15  2  0  0  0
 14 99  1  0  0  0
 15100  1  0  0  0
 16 17  2  0  0  0
 16 21  1  0  0  0
 16 31  1  0  0  0
 17 18  1  0  0  0
 17101  1  0  0  0
 18 19  2  0  0  0
 18102  1  0  0  0
 19 20  1  0  0  0
 19 24  1  0  0  0
 20 21  2  0  0  0
 20103  1  0  0  0
 21 23  1  0  0  0
 22 28  1  0  0  0
 22 32  2  0  0  0
 26 27  1  0  0  0
 28104  1  0  0  0
 28105  1  0  0  0
 29106  1  0  0  0
 29107  1  0  0  0
 33 34  1  0  0  0
 33 66  1  0  0  0
 33 70  2  0  0  0
 34 36  1  0  0  0
 34 59  1  0  0  0
 34108  1  0  0  0
 35 44  2  0  0  0
 35 45  1  0  0  0
 35 68  1  0  0  0
 36 56  1  0  0  0
 36109  1  0  0  0
 37 39  1  0  0  0
 37 47  1  0  0  0
 37 66  1  0  0  0
 37110  1  0  0  0
 38 43  2  0  0  0
 38 46  1  0  0  0
 38 47  1  0  0  0
 39 64  1  0  0  0
 39 67  2  0  0  0
 40 52  1  0  0  0
 40 53  2  0  0  0
 40 58  1  0  0  0
 41111  1  0  0  0
 41112  1  0  0  0
 41113  1  0  0  0
 41 48  1  0  0  0
 42 43  1  0  0  0
 42 66  1  0  0  0
 42114  1  0  0  0
 42115  1  0  0  0
 43 44  1  0  0  0
 44116  1  0  0  0
 45 46  2  0  0  0
 45117  1  0  0  0
 46118  1  0  0  0
 47119  1  0  0  0
 47120  1  0  0  0
 48 56  1  0  0  0
 48 65  1  0  0  0
 48121  1  0  0  0
 49 50  1  0  0  0
 49 53  1  0  0  0
 49 64  1  0  0  0
 49122  1  0  0  0
 50 51  1  0  0  0
 50123  1  0  0  0
 50124  1  0  0  0
 51 52  1  0  0  0
 51125  1  0  0  0
 51126  1  0  0  0
 52127  1  0  0  0
 52128  1  0  0  0
 53 54  1  0  0  0
 54 55  2  0  0  0
 54129  1  0  0  0
 55 57  1  0  0  0
 55130  1  0  0  0
 56 69  2  0  0  0
 57 58  2  0  0  0
 57131  1  0  0  0
 58132  1  0  0  0
 59 60  1  0  0  0
 59 61  1  0  0  0
 59 62  1  0  0  0
 60133  1  0  0  0
 60134  1  0  0  0
 60135  1  0  0  0
 61136  1  0  0  0
 61137  1  0  0  0
 61138  1  0  0  0
 62139  1  0  0  0
 62140  1  0  0  0
 62141  1  0  0  0
 63 65  1  0  0  0
 63142  1  0  0  0
 63143  1  0  0  0
 63144  1  0  0  0
 64145  1  0  0  0
 65146  1  0  0  0
 68 86  1  0  0  0
 71 72  2  0  0  0
 71 73  1  0  0  0
 71 78  1  0  0  0
 72147  1  0  0  0
 72148  1  0  0  0
 73 79  1  0  0  0
 73149  1  0  0  0
 73150  1  0  0  0
 74 75  1  0  0  0
 74 80  1  0  0  0
 74151  1  0  0  0
 74152  1  0  0  0
 75 76  1  0  0  0
 75 85  1  0  0  0
 75153  1  0  0  0
 76 79  1  0  0  0
 76 81  1  0  0  0
 76154  1  0  0  0
 77 78  1  0  0  0
 77 80  1  0  0  0
 77 82  1  0  0  0
 77155  1  0  0  0
 78 87  1  0  0  0
 79 80  1  0  0  0
 79 83  1  0  0  0
 80 84  1  0  0  0
 81156  1  0  0  0
 81157  1  0  0  0
 81158  1  0  0  0
 82159  1  0  0  0
 82160  1  0  0  0
 82161  1  0  0  0
 83162  1  0  0  0
 83163  1  0  0  0
 83164  1  0  0  0
 84165  1  0  0  0
 84166  1  0  0  0
 84167  1  0  0  0
 85 86  1  0  0  0
 85168  1  0  0  0
 85169  1  0  0  0
 86170  1  0  0  0
 86171  1  0  0  0
 87172  1  0  0  0
M  ISO  4   1 100  68 101  78 100  86 101
M  END
> <chiral flag>
0

> <version>
0

> <s_m_source_file>
/data/baiqing/PycharmProjects/Reinvent-master-3.2/result/LINK_invent/BTK/process_docking_weight1_custom_sum_contain_oxygen_bond_distance_aromatic_linkinvent_7_9_3/rearranged_h_0171.sdf

> <i_m_source_file_index>
39

> <r_mmod_Potential_Energy-OPLS-2005>
816.408081054688

> <r_mmod_Stretch_Energy-OPLS-2005>
287.381103515625

> <r_mmod_Bend_Energy-OPLS-2005>
375.87646484375

> <r_mmod_Torsional_Energy-OPLS-2005>
300.490325927734

> <r_mmod_Improper_Torsional_Energy-OPLS-2005>
2.57706618309021

> <r_mmod_Van_der_Waal_Energy-OPLS-2005>
143.550933837891

> <r_mmod_Electrostatic_Energy-OPLS-2005>
-308.601898193359

> <r_mmod_Solvation_Energy-OPLS-2005>
-166.67041015625

> <b_mmod_Minimization_Converged-OPLS-2005>
0

> <r_mmod_RMS_Derivative-OPLS-2005>
1.93879699707031

$$$$
39
                    3D
 Structure written by MMmdl.
159168  0  0  1  0            999 V2000
  -30.5819  -14.7910   20.4453 C   0  0  0  0  0  0
  -30.4399  -12.4840   19.4780 C   0  0  0  0  0  0
  -29.5136  -12.5134   18.2406 C   0  0  0  0  0  0
  -28.0411  -12.3279   18.6559 C   0  0  0  0  0  0
  -27.6416  -13.2312   19.8521 C   0  0  2  0  0  0
  -28.6869  -13.1793   20.9882 C   0  0  0  0  0  0
  -25.2512  -13.8190   20.5692 C   0  0  0  0  0  0
  -24.1801  -13.0437   20.9208 C   0  0  0  0  0  0
  -24.6396  -11.6916   20.8752 C   0  0  0  0  0  0
  -23.9078  -10.4291   21.0409 C   0  0  0  0  0  0
  -24.3620   -9.4209   21.9190 C   0  0  0  0  0  0
  -23.6291   -8.2246   22.0763 C   0  0  0  0  0  0
  -22.4281   -8.0282   21.3543 C   0  0  0  0  0  0
  -21.9919   -9.0258   20.4647 C   0  0  0  0  0  0
  -22.7247  -10.2138   20.3059 C   0  0  0  0  0  0
  -21.6855   -6.0732   22.5277 C   0  0  0  0  0  0
  -21.4012   -6.5636   23.8207 C   0  0  0  0  0  0
  -21.3664   -5.6793   24.9170 C   0  0  0  0  0  0
  -21.6046   -4.3055   24.7223 C   0  0  0  0  0  0
  -21.8820   -3.8145   23.4344 C   0  0  0  0  0  0
  -21.9188   -4.6960   22.3399 C   0  0  0  0  0  0
  -22.7822  -13.5221   21.1865 C   0  0  0  0  0  0
  -22.1657   -4.2150   21.0976 F   0  0  0  0  0  0
  -21.5635   -3.4541   25.7734 F   0  0  0  0  0  0
  -29.9827  -13.5479   20.4042 N   0  0  0  0  0  0
  -26.2942  -12.9399   20.3294 N   0  0  0  0  0  0
  -25.9332  -11.6542   20.5771 N   0  0  0  0  0  0
  -22.0468  -12.8204   22.0410 N   0  0  0  0  0  0
  -25.4180  -15.1913   20.4076 N   0  0  0  0  0  0
  -31.7729  -14.9013   20.1413 O   0  0  0  0  0  0
  -21.6642   -6.8879   21.4240 O   0  0  0  0  0  0
  -22.3508  -14.5538   20.6726 O   0  0  0  0  0  0
  -24.6359  -31.8536   23.1983 C   0  0  0  0  0  0
  -25.9175  -32.4749   23.8340 C   0  0  1  0  0  0
  -27.2079  -27.2213   20.1330 C   0  0  0  0  0  0
  -25.5959  -33.8558   24.2263 N   0  0  0  0  0  0
  -23.4338  -30.4786   21.5414 C   0  0  2  0  0  0
  -24.8817  -28.9316   20.1039 C   0  0  0  0  0  0
  -22.7533  -29.4595   22.4884 C   0  0  0  0  0  0
  -18.0300  -28.1393   22.8479 C   0  0  0  0  0  0
  -24.1488  -36.7273   23.2632 C   0  0  0  0  0  0
  -25.9859  -30.7520   21.3890 C   0  0  0  0  0  0
  -26.0559  -29.3744   20.7269 C   0  0  0  0  0  0
  -27.2201  -28.5315   20.7359 C   0  0  0  0  0  0
  -26.0165  -26.8808   19.4476 C   0  0  0  0  0  0
  -24.8713  -27.6942   19.4517 C   0  0  0  0  0  0
  -23.6551  -29.8210   20.1563 C   0  0  0  0  0  0
  -25.4107  -36.3062   24.0335 C   0  0  1  0  0  0
  -20.5910  -28.3713   23.1239 C   0  0  2  0  0  0
  -20.6792  -26.9427   22.5386 C   0  0  0  0  0  0
  -19.5750  -26.6380   21.5211 C   0  0  0  0  0  0
  -18.1925  -26.7931   22.1622 C   0  0  0  0  0  0
  -19.1554  -28.8870   23.2851 C   0  0  0  0  0  0
  -18.9484  -30.1463   23.8877 C   0  0  0  0  0  0
  -17.6483  -30.6591   24.0561 C   0  0  0  0  0  0
  -25.9067  -34.9441   23.5094 C   0  0  0  0  0  0
  -16.5374  -29.9083   23.6341 C   0  0  0  0  0  0
  -16.7288  -28.6505   23.0362 C   0  0  0  0  0  0
  -26.4520  -31.6583   25.0747 C   0  0  0  0  0  0
  -25.3714  -31.3748   26.1447 C   0  0  0  0  0  0
  -27.0389  -30.2998   24.6266 C   0  0  0  0  0  0
  -27.6067  -32.4344   25.7518 C   0  0  0  0  0  0
  -27.5586  -37.1767   24.8448 C   0  0  0  0  0  0
  -21.4236  -29.3065   22.3640 N   0  0  0  0  0  0
  -26.4266  -37.3774   23.9442 N   0  0  0  0  0  0
  -24.7045  -31.0464   22.0986 N   0  0  0  0  0  0
  -23.4223  -28.8112   23.2974 O   0  0  0  0  0  0
  -28.2487  -26.2505   20.2395 O   0  0  0  0  0  0
  -26.5628  -34.8915   22.4660 O   0  0  0  0  0  0
  -23.5499  -32.1391   23.7240 O   0  0  0  0  0  0
  -29.8677  -22.0840   22.0974 C   0  0  0  0  0  0
  -28.6150  -22.2477   19.6501 C   0  0  0  0  0  0
  -29.8487  -20.9047   21.2988 C   0  0  0  0  0  0
  -29.1835  -20.9714   20.0528 C   0  0  0  0  0  0
  -29.2931  -23.3289   21.6919 C   0  0  0  0  0  0
  -28.6668  -23.4725   20.4255 C   0  0  0  0  0  0
  -30.1003  -18.2272   21.7354 C   0  0  0  0  0  0
  -30.6988  -19.6693   21.7268 C   0  0  0  0  0  0
  -29.2105  -19.7270   19.0983 C   0  0  0  0  0  0
  -28.9550  -18.2210   19.5942 C   0  0  0  0  0  0
  -30.0644  -17.4263   20.4041 C   0  0  2  0  0  0
  -29.3604  -24.5090   22.6443 C   0  0  0  0  0  0
  -27.8832  -24.8009   19.9569 C   0  0  0  0  0  0
  -29.7730  -15.9151   20.5863 N   0  0  0  0  0  0
  -29.6626  -17.7543   22.7892 O   0  0  0  0  0  0
  -31.4773  -12.6246   19.1713 H   0  0  0  0  0  0
  -30.4014  -11.5096   19.9692 H   0  0  0  0  0  0
  -29.8031  -11.7360   17.5324 H   0  0  0  0  0  0
  -29.6268  -13.4636   17.7160 H   0  0  0  0  0  0
  -27.9064  -11.2797   18.9242 H   0  0  0  0  0  0
  -27.3811  -12.5116   17.8076 H   0  0  0  0  0  0
  -27.6312  -14.2503   19.4663 H   0  0  0  0  0  0
  -28.7344  -12.1837   21.4313 H   0  0  0  0  0  0
  -28.4170  -13.8606   21.7966 H   0  0  0  0  0  0
  -25.2762   -9.5684   22.4768 H   0  0  0  0  0  0
  -24.0000   -7.4639   22.7486 H   0  0  0  0  0  0
  -21.0854   -8.8777   19.8944 H   0  0  0  0  0  0
  -22.3709  -10.9680   19.6171 H   0  0  0  0  0  0
  -21.2007   -7.6141   23.9710 H   0  0  0  0  0  0
  -21.1486   -6.0521   25.9071 H   0  0  0  0  0  0
  -22.0594   -2.7609   23.2845 H   0  0  0  0  0  0
  -22.4093  -11.9858   22.4784 H   0  0  0  0  0  0
  -21.1092  -13.1237   22.2636 H   0  0  0  0  0  0
  -24.6450  -15.8389   20.5160 H   0  0  0  0  0  0
  -26.2505  -15.6316   20.0392 H   0  0  0  0  0  0
  -26.7239  -32.5376   23.1076 H   0  0  0  0  0  0
  -25.0155  -33.9715   25.0441 H   0  0  0  0  0  0
  -22.7311  -31.3011   21.3951 H   0  0  0  0  0  0
  -23.3785  -35.9563   23.3228 H   0  0  0  0  0  0
  -24.3593  -36.8979   22.2061 H   0  0  0  0  0  0
  -23.7216  -37.6437   23.6712 H   0  0  0  0  0  0
  -26.1344  -31.5095   20.6185 H   0  0  0  0  0  0
  -26.8603  -30.7969   22.0263 H   0  0  0  0  0  0
  -28.1061  -28.8569   21.2627 H   0  0  0  0  0  0
  -25.9148  -25.9481   18.9151 H   0  0  0  0  0  0
  -23.9801  -27.3542   18.9427 H   0  0  0  0  0  0
  -23.7817  -30.6013   19.4043 H   0  0  0  0  0  0
  -22.7734  -29.2573   19.8465 H   0  0  0  0  0  0
  -25.1280  -36.1885   25.0826 H   0  0  0  0  0  0
  -20.9994  -28.3286   24.1364 H   0  0  0  0  0  0
  -20.5692  -26.2335   23.3606 H   0  0  0  0  0  0
  -21.6653  -26.7427   22.1175 H   0  0  0  0  0  0
  -19.6912  -25.6282   21.1266 H   0  0  0  0  0  0
  -19.6684  -27.3168   20.6724 H   0  0  0  0  0  0
  -17.4202  -26.6708   21.4015 H   0  0  0  0  0  0
  -18.0290  -26.0061   22.8999 H   0  0  0  0  0  0
  -19.7959  -30.7284   24.2240 H   0  0  0  0  0  0
  -17.5038  -31.6270   24.5158 H   0  0  0  0  0  0
  -15.5376  -30.2992   23.7659 H   0  0  0  0  0  0
  -15.8686  -28.0818   22.7095 H   0  0  0  0  0  0
  -24.5934  -30.7045   25.7769 H   0  0  0  0  0  0
  -24.8841  -32.2913   26.4777 H   0  0  0  0  0  0
  -25.7996  -30.9001   27.0285 H   0  0  0  0  0  0
  -26.2992  -29.6729   24.1268 H   0  0  0  0  0  0
  -27.4053  -29.7280   25.4805 H   0  0  0  0  0  0
  -27.8873  -30.4290   23.9546 H   0  0  0  0  0  0
  -27.2695  -33.3706   26.1977 H   0  0  0  0  0  0
  -28.3915  -32.6810   25.0353 H   0  0  0  0  0  0
  -28.0678  -31.8544   26.5524 H   0  0  0  0  0  0
  -28.2505  -38.0150   24.7610 H   0  0  0  0  0  0
  -28.1186  -36.2703   24.6118 H   0  0  0  0  0  0
  -27.2331  -37.1205   25.8844 H   0  0  0  0  0  0
  -20.9427  -29.8854   21.6899 H   0  0  0  0  0  0
  -26.0144  -38.2829   24.1508 H   0  0  0  0  0  0
  -30.3732  -22.0404   23.0529 H   0  0  0  0  0  0
  -28.1176  -22.2951   18.6908 H   0  0  0  0  0  0
  -31.0881  -19.8558   22.7268 H   0  0  0  0  0  0
  -31.5748  -19.6451   21.0786 H   0  0  0  0  0  0
  -30.1624  -19.7538   18.5688 H   0  0  0  0  0  0
  -28.4663  -19.9318   18.3269 H   0  0  0  0  0  0
  -28.7864  -17.6376   18.6886 H   0  0  0  0  0  0
  -28.0012  -18.1835   20.1226 H   0  0  0  0  0  0
  -31.0247  -17.5334   19.8994 H   0  0  0  0  0  0
  -29.7504  -24.2139   23.6193 H   0  0  0  0  0  0
  -28.3722  -24.9435   22.7997 H   0  0  0  0  0  0
  -30.0131  -25.2827   22.2390 H   0  0  0  0  0  0
  -26.8947  -24.6319   20.3864 H   0  0  0  0  0  0
  -27.7701  -24.7135   18.8756 H   0  0  0  0  0  0
  -28.8240  -15.7041   20.8509 H   0  0  0  0  0  0
  1 25  1  0  0  0
  1 30  2  0  0  0
  1 84  1  0  0  0
  2  3  1  0  0  0
  2 25  1  0  0  0
  2 86  1  0  0  0
  2 87  1  0  0  0
  3  4  1  0  0  0
  3 88  1  0  0  0
  3 89  1  0  0  0
  4  5  1  0  0  0
  4 90  1  0  0  0
  4 91  1  0  0  0
  5  6  1  0  0  0
  5 26  1  0  0  0
  5 92  1  0  0  0
  6 25  1  0  0  0
  6 93  1  0  0  0
  6 94  1  0  0  0
  7  8  2  0  0  0
  7 26  1  0  0  0
  7 29  1  0  0  0
  8  9  1  0  0  0
  8 22  1  0  0  0
  9 10  1  0  0  0
  9 27  2  0  0  0
 10 11  2  0  0  0
 10 15  1  0  0  0
 11 12  1  0  0  0
 11 95  1  0  0  0
 12 13  2  0  0  0
 12 96  1  0  0  0
 13 14  1  0  0  0
 13 31  1  0  0  0
 14 15  2  0  0  0
 14 97  1  0  0  0
 15 98  1  0  0  0
 16 17  2  0  0  0
 16 21  1  0  0  0
 16 31  1  0  0  0
 17 18  1  0  0  0
 17 99  1  0  0  0
 18 19  2  0  0  0
 18100  1  0  0  0
 19 20  1  0  0  0
 19 24  1  0  0  0
 20 21  2  0  0  0
 20101  1  0  0  0
 21 23  1  0  0  0
 22 28  1  0  0  0
 22 32  2  0  0  0
 26 27  1  0  0  0
 28102  1  0  0  0
 28103  1  0  0  0
 29104  1  0  0  0
 29105  1  0  0  0
 33 34  1  0  0  0
 33 66  1  0  0  0
 33 70  2  0  0  0
 34 36  1  0  0  0
 34 59  1  0  0  0
 34106  1  0  0  0
 35 44  2  0  0  0
 35 45  1  0  0  0
 35 68  1  0  0  0
 36 56  1  0  0  0
 36107  1  0  0  0
 37 39  1  0  0  0
 37 47  1  0  0  0
 37 66  1  0  0  0
 37108  1  0  0  0
 38 43  2  0  0  0
 38 46  1  0  0  0
 38 47  1  0  0  0
 39 64  1  0  0  0
 39 67  2  0  0  0
 40 52  1  0  0  0
 40 53  2  0  0  0
 40 58  1  0  0  0
 41109  1  0  0  0
 41110  1  0  0  0
 41111  1  0  0  0
 41 48  1  0  0  0
 42 43  1  0  0  0
 42 66  1  0  0  0
 42112  1  0  0  0
 42113  1  0  0  0
 43 44  1  0  0  0
 44114  1  0  0  0
 45 46  2  0  0  0
 45115  1  0  0  0
 46116  1  0  0  0
 47117  1  0  0  0
 47118  1  0  0  0
 48 56  1  0  0  0
 48 65  1  0  0  0
 48119  1  0  0  0
 49 50  1  0  0  0
 49 53  1  0  0  0
 49 64  1  0  0  0
 49120  1  0  0  0
 50 51  1  0  0  0
 50121  1  0  0  0
 50122  1  0  0  0
 51 52  1  0  0  0
 51123  1  0  0  0
 51124  1  0  0  0
 52125  1  0  0  0
 52126  1  0  0  0
 53 54  1  0  0  0
 54 55  2  0  0  0
 54127  1  0  0  0
 55 57  1  0  0  0
 55128  1  0  0  0
 56 69  2  0  0  0
 57 58  2  0  0  0
 57129  1  0  0  0
 58130  1  0  0  0
 59 60  1  0  0  0
 59 61  1  0  0  0
 59 62  1  0  0  0
 60131  1  0  0  0
 60132  1  0  0  0
 60133  1  0  0  0
 61134  1  0  0  0
 61135  1  0  0  0
 61136  1  0  0  0
 62137  1  0  0  0
 62138  1  0  0  0
 62139  1  0  0  0
 63 65  1  0  0  0
 63140  1  0  0  0
 63141  1  0  0  0
 63142  1  0  0  0
 64143  1  0  0  0
 65144  1  0  0  0
 68 83  1  0  0  0
 71 73  2  0  0  0
 71 75  1  0  0  0
 71145  1  0  0  0
 72 74  2  0  0  0
 72 76  1  0  0  0
 72146  1  0  0  0
 73 74  1  0  0  0
 73 78  1  0  0  0
 74 79  1  0  0  0
 75 76  2  0  0  0
 75 82  1  0  0  0
 76 83  1  0  0  0
 77 78  1  0  0  0
 77 81  1  0  0  0
 77 85  2  0  0  0
 78147  1  0  0  0
 78148  1  0  0  0
 79 80  1  0  0  0
 79149  1  0  0  0
 79150  1  0  0  0
 80 81  1  0  0  0
 80151  1  0  0  0
 80152  1  0  0  0
 81 84  1  0  0  0
 81153  1  0  0  0
 82154  1  0  0  0
 82155  1  0  0  0
 82156  1  0  0  0
 83157  1  0  0  0
 83158  1  0  0  0
 84159  1  0  0  0
M  ISO  4   1 100  68 101  83 101  84 100
M  END
> <chiral flag>
0

> <version>
0

> <s_m_source_file>
/data/baiqing/PycharmProjects/Reinvent-master-3.2/result/LINK_invent/BTK/process_docking_weight1_custom_sum_contain_oxygen_bond_distance_aromatic_linkinvent_7_9_3/rearranged_h_0171.sdf

> <i_m_source_file_index>
40

> <r_mmod_Potential_Energy-OPLS-2005>
196.55436706543

> <r_mmod_Stretch_Energy-OPLS-2005>
135.963806152344

> <r_mmod_Bend_Energy-OPLS-2005>
192.592956542969

> <r_mmod_Torsional_Energy-OPLS-2005>
224.065353393555

> <r_mmod_Improper_Torsional_Energy-OPLS-2005>
7.84408283233643

> <r_mmod_Van_der_Waal_Energy-OPLS-2005>
140.550384521484

> <r_mmod_Electrostatic_Energy-OPLS-2005>
-401.901275634766

> <r_mmod_Solvation_Energy-OPLS-2005>
-219.59049987793

> <b_mmod_Minimization_Converged-OPLS-2005>
0

> <r_mmod_RMS_Derivative-OPLS-2005>
2.00726222991943

$$$$
40
                    3D
 Structure written by MMmdl.
172182  0  0  1  0            999 V2000
  -30.6527  -14.7208   20.5573 C   0  0  0  0  0  0
  -30.3979  -12.4635   19.4635 C   0  0  0  0  0  0
  -29.4844  -12.5529   18.2202 C   0  0  0  0  0  0
  -28.0120  -12.3788   18.6278 C   0  0  0  0  0  0
  -27.6328  -13.2472   19.8596 C   0  0  2  0  0  0
  -28.6742  -13.1385   20.9888 C   0  0  0  0  0  0
  -25.2354  -13.8186   20.5585 C   0  0  0  0  0  0
  -24.1766  -13.0460   20.9228 C   0  0  0  0  0  0
  -24.6434  -11.6958   20.8878 C   0  0  0  0  0  0
  -23.9172  -10.4308   21.0519 C   0  0  0  0  0  0
  -24.3716   -9.4170   21.9242 C   0  0  0  0  0  0
  -23.6358   -8.2209   22.0781 C   0  0  0  0  0  0
  -22.4317   -8.0301   21.3591 C   0  0  0  0  0  0
  -22.0012   -9.0288   20.4685 C   0  0  0  0  0  0
  -22.7389  -10.2143   20.3106 C   0  0  0  0  0  0
  -21.6847   -6.0794   22.5317 C   0  0  0  0  0  0
  -21.4044   -6.5708   23.8270 C   0  0  0  0  0  0
  -21.3641   -5.6852   24.9220 C   0  0  0  0  0  0
  -21.6000   -4.3113   24.7272 C   0  0  0  0  0  0
  -21.8824   -3.8209   23.4404 C   0  0  0  0  0  0
  -21.9198   -4.7016   22.3455 C   0  0  0  0  0  0
  -22.7765  -13.5169   21.1921 C   0  0  0  0  0  0
  -22.1643   -4.2188   21.1031 F   0  0  0  0  0  0
  -21.5588   -3.4611   25.7787 F   0  0  0  0  0  0
  -29.9749  -13.5195   20.4264 N   0  0  0  0  0  0
  -26.2891  -12.9473   20.3367 N   0  0  0  0  0  0
  -25.9363  -11.6612   20.5905 N   0  0  0  0  0  0
  -22.0490  -12.8098   22.0468 N   0  0  0  0  0  0
  -25.4009  -15.1894   20.3689 N   0  0  0  0  0  0
  -31.7968  -14.7709   20.1004 O   0  0  0  0  0  0
  -21.6660   -6.8912   21.4272 O   0  0  0  0  0  0
  -22.3417  -14.5489   20.6806 O   0  0  0  0  0  0
  -24.6350  -31.8543   23.1934 C   0  0  0  0  0  0
  -25.9170  -32.4734   23.8289 C   0  0  1  0  0  0
  -27.2170  -27.2235   20.1890 C   0  0  0  0  0  0
  -25.5964  -33.8533   24.2191 N   0  0  0  0  0  0
  -23.4326  -30.4708   21.5400 C   0  0  2  0  0  0
  -24.8818  -28.9102   20.1152 C   0  0  0  0  0  0
  -22.7516  -29.4584   22.4923 C   0  0  0  0  0  0
  -18.0310  -28.1403   22.8503 C   0  0  0  0  0  0
  -24.1486  -36.7225   23.2625 C   0  0  0  0  0  0
  -25.9800  -30.7541   21.3837 C   0  0  0  0  0  0
  -26.0521  -29.3740   20.7306 C   0  0  0  0  0  0
  -27.2246  -28.5472   20.7453 C   0  0  0  0  0  0
  -26.0260  -26.8333   19.5392 C   0  0  0  0  0  0
  -24.8795  -27.6535   19.4986 C   0  0  0  0  0  0
  -23.6504  -29.7970   20.1594 C   0  0  0  0  0  0
  -25.4138  -36.3041   24.0290 C   0  0  1  0  0  0
  -20.5884  -28.3719   23.1283 C   0  0  2  0  0  0
  -20.6782  -26.9436   22.5421 C   0  0  0  0  0  0
  -19.5750  -26.6392   21.5243 C   0  0  0  0  0  0
  -18.1929  -26.7956   22.1637 C   0  0  0  0  0  0
  -19.1541  -28.8888   23.2876 C   0  0  0  0  0  0
  -18.9452  -30.1497   23.8896 C   0  0  0  0  0  0
  -17.6436  -30.6598   24.0588 C   0  0  0  0  0  0
  -25.9099  -34.9416   23.5039 C   0  0  0  0  0  0
  -16.5346  -29.9085   23.6351 C   0  0  0  0  0  0
  -16.7289  -28.6495   23.0392 C   0  0  0  0  0  0
  -26.4525  -31.6591   25.0705 C   0  0  0  0  0  0
  -25.3685  -31.3793   26.1363 C   0  0  0  0  0  0
  -27.0411  -30.2995   24.6279 C   0  0  0  0  0  0
  -27.6048  -32.4367   25.7502 C   0  0  0  0  0  0
  -27.5584  -37.1774   24.8432 C   0  0  0  0  0  0
  -21.4204  -29.3031   22.3644 N   0  0  0  0  0  0
  -26.4287  -37.3765   23.9411 N   0  0  0  0  0  0
  -24.7000  -31.0478   22.0939 N   0  0  0  0  0  0
  -23.4208  -28.8150   23.3048 O   0  0  0  0  0  0
  -28.3039  -26.3123   20.2912 O   0  0  0  0  0  0
  -26.5646  -34.8921   22.4597 O   0  0  0  0  0  0
  -23.5477  -32.1360   23.7238 O   0  0  0  0  0  0
  -28.6546  -19.4365   23.3048 C   0  0  0  0  0  0
  -28.9776  -18.3250   22.5014 C   0  0  0  0  0  0
  -28.8986  -20.7562   22.8624 C   0  0  0  0  0  0
  -29.5388  -18.5491   21.2370 C   0  0  0  0  0  0
  -29.2224  -20.9704   21.4857 C   0  0  0  0  0  0
  -27.9767  -22.4510   19.7498 C   0  0  0  0  0  0
  -27.8422  -23.9231   19.2724 C   0  0  0  0  0  0
  -29.9084  -15.9510   22.5099 C   0  0  0  0  0  0
  -28.8400  -16.9235   23.0679 C   0  0  2  0  0  0
  -29.1665  -22.3902   20.7110 C   0  0  1  0  0  0
  -30.1634  -17.3136   20.4407 C   0  0  1  0  0  0
  -29.0667  -23.8804   21.3436 C   0  0  2  0  0  0
  -28.0611  -24.8229   20.5060 C   0  0  1  0  0  0
  -28.9010  -21.8259   23.9589 C   0  0  0  0  0  0
  -27.3924  -16.4024   22.9482 C   0  0  0  0  0  0
  -31.6452  -17.6947   20.1337 C   0  0  0  0  0  0
  -30.4696  -24.4978   21.5481 C   0  0  0  0  0  0
  -29.5729  -19.8474   20.7334 N   0  0  0  0  0  0
  -30.0173  -15.8821   21.0343 N   0  0  0  0  0  0
  -31.4417  -12.5429   19.1646 H   0  0  0  0  0  0
  -30.3028  -11.4801   19.9231 H   0  0  0  0  0  0
  -29.7468  -11.8150   17.4602 H   0  0  0  0  0  0
  -29.6092  -13.5255   17.7387 H   0  0  0  0  0  0
  -27.8449  -11.3229   18.8412 H   0  0  0  0  0  0
  -27.3558  -12.6153   17.7885 H   0  0  0  0  0  0
  -27.6352  -14.2836   19.5194 H   0  0  0  0  0  0
  -28.7011  -12.1148   21.3663 H   0  0  0  0  0  0
  -28.3829  -13.7709   21.8244 H   0  0  0  0  0  0
  -25.2852   -9.5600   22.4843 H   0  0  0  0  0  0
  -24.0037   -7.4603   22.7530 H   0  0  0  0  0  0
  -21.0888   -8.8854   19.8992 H   0  0  0  0  0  0
  -22.3884  -10.9697   19.6210 H   0  0  0  0  0  0
  -21.2075   -7.6224   23.9779 H   0  0  0  0  0  0
  -21.1419   -6.0611   25.9116 H   0  0  0  0  0  0
  -22.0611   -2.7668   23.2959 H   0  0  0  0  0  0
  -22.4187  -11.9678   22.4654 H   0  0  0  0  0  0
  -21.1106  -13.1038   22.2811 H   0  0  0  0  0  0
  -24.6589  -15.8658   20.5011 H   0  0  0  0  0  0
  -26.2750  -15.6104   20.0918 H   0  0  0  0  0  0
  -26.7231  -32.5382   23.1034 H   0  0  0  0  0  0
  -25.0219  -33.9673   25.0397 H   0  0  0  0  0  0
  -22.7300  -31.2925   21.3937 H   0  0  0  0  0  0
  -23.3804  -35.9488   23.3233 H   0  0  0  0  0  0
  -24.3574  -36.8935   22.2048 H   0  0  0  0  0  0
  -23.7176  -37.6371   23.6715 H   0  0  0  0  0  0
  -26.1319  -31.5149   20.6183 H   0  0  0  0  0  0
  -26.8486  -30.7998   22.0278 H   0  0  0  0  0  0
  -28.1166  -28.8912   21.2492 H   0  0  0  0  0  0
  -25.9347  -25.8679   19.0765 H   0  0  0  0  0  0
  -23.9896  -27.2898   19.0058 H   0  0  0  0  0  0
  -23.7618  -30.5671   19.3971 H   0  0  0  0  0  0
  -22.7713  -29.2210   19.8653 H   0  0  0  0  0  0
  -25.1336  -36.1863   25.0777 H   0  0  0  0  0  0
  -20.9989  -28.3319   24.1407 H   0  0  0  0  0  0
  -20.5761  -26.2318   23.3630 H   0  0  0  0  0  0
  -21.6648  -26.7492   22.1190 H   0  0  0  0  0  0
  -19.6918  -25.6312   21.1264 H   0  0  0  0  0  0
  -19.6692  -27.3208   20.6785 H   0  0  0  0  0  0
  -17.4214  -26.6758   21.4016 H   0  0  0  0  0  0
  -18.0280  -26.0085   22.9009 H   0  0  0  0  0  0
  -19.7921  -30.7331   24.2239 H   0  0  0  0  0  0
  -17.4989  -31.6286   24.5197 H   0  0  0  0  0  0
  -15.5345  -30.3003   23.7665 H   0  0  0  0  0  0
  -15.8685  -28.0814   22.7136 H   0  0  0  0  0  0
  -24.5841  -30.7218   25.7601 H   0  0  0  0  0  0
  -24.8929  -32.3008   26.4721 H   0  0  0  0  0  0
  -25.7902  -30.8940   27.0166 H   0  0  0  0  0  0
  -26.3051  -29.6733   24.1230 H   0  0  0  0  0  0
  -27.3971  -29.7299   25.4875 H   0  0  0  0  0  0
  -27.8967  -30.4249   23.9638 H   0  0  0  0  0  0
  -27.2603  -33.3642   26.2086 H   0  0  0  0  0  0
  -28.3862  -32.6983   25.0350 H   0  0  0  0  0  0
  -28.0718  -31.8509   26.5434 H   0  0  0  0  0  0
  -28.2526  -38.0149   24.7640 H   0  0  0  0  0  0
  -28.1184  -36.2700   24.6107 H   0  0  0  0  0  0
  -27.2306  -37.1219   25.8828 H   0  0  0  0  0  0
  -20.9406  -29.8677   21.6763 H   0  0  0  0  0  0
  -26.0139  -38.2798   24.1547 H   0  0  0  0  0  0
  -28.2892  -19.2690   24.3098 H   0  0  0  0  0  0
  -28.1123  -21.7556   18.9204 H   0  0  0  0  0  0
  -27.0746  -22.1330   20.2784 H   0  0  0  0  0  0
  -26.8747  -24.0668   18.7972 H   0  0  0  0  0  0
  -28.6094  -24.1278   18.5295 H   0  0  0  0  0  0
  -29.7757  -14.9739   22.9768 H   0  0  0  0  0  0
  -30.8792  -16.2898   22.8722 H   0  0  0  0  0  0
  -29.0581  -17.0351   24.1341 H   0  0  0  0  0  0
  -30.0579  -22.4079   20.0810 H   0  0  0  0  0  0
  -29.6164  -17.2915   19.4955 H   0  0  0  0  0  0
  -28.5523  -23.8521   22.2920 H   0  0  0  0  0  0
  -27.1235  -24.7756   21.0698 H   0  0  0  0  0  0
  -28.6843  -21.4041   24.9458 H   0  0  0  0  0  0
  -28.1410  -22.5877   23.8209 H   0  0  0  0  0  0
  -29.8990  -22.2719   24.0466 H   0  0  0  0  0  0
  -27.0914  -16.3307   21.9066 H   0  0  0  0  0  0
  -26.6824  -17.0699   23.4407 H   0  0  0  0  0  0
  -27.2592  -15.4137   23.3944 H   0  0  0  0  0  0
  -32.2539  -17.7156   21.0400 H   0  0  0  0  0  0
  -31.7183  -18.6723   19.6535 H   0  0  0  0  0  0
  -32.1305  -17.0168   19.4387 H   0  0  0  0  0  0
  -31.0945  -24.3688   20.6640 H   0  0  0  0  0  0
  -30.9926  -24.0312   22.3843 H   0  0  0  0  0  0
  -30.4215  -25.5649   21.7661 H   0  0  0  0  0  0
  1 25  1  0  0  0
  1 30  2  0  0  0
  1 89  1  0  0  0
  2  3  1  0  0  0
  2 25  1  0  0  0
  2 90  1  0  0  0
  2 91  1  0  0  0
  3  4  1  0  0  0
  3 92  1  0  0  0
  3 93  1  0  0  0
  4  5  1  0  0  0
  4 94  1  0  0  0
  4 95  1  0  0  0
  5  6  1  0  0  0
  5 26  1  0  0  0
  5 96  1  0  0  0
  6 25  1  0  0  0
  6 97  1  0  0  0
  6 98  1  0  0  0
  7  8  2  0  0  0
  7 26  1  0  0  0
  7 29  1  0  0  0
  8  9  1  0  0  0
  8 22  1  0  0  0
  9 10  1  0  0  0
  9 27  2  0  0  0
 10 11  2  0  0  0
 10 15  1  0  0  0
 11 12  1  0  0  0
 11 99  1  0  0  0
 12 13  2  0  0  0
 12100  1  0  0  0
 13 14  1  0  0  0
 13 31  1  0  0  0
 14 15  2  0  0  0
 14101  1  0  0  0
 15102  1  0  0  0
 16 17  2  0  0  0
 16 21  1  0  0  0
 16 31  1  0  0  0
 17 18  1  0  0  0
 17103  1  0  0  0
 18 19  2  0  0  0
 18104  1  0  0  0
 19 20  1  0  0  0
 19 24  1  0  0  0
 20 21  2  0  0  0
 20105  1  0  0  0
 21 23  1  0  0  0
 22 28  1  0  0  0
 22 32  2  0  0  0
 26 27  1  0  0  0
 28106  1  0  0  0
 28107  1  0  0  0
 29108  1  0  0  0
 29109  1  0  0  0
 33 34  1  0  0  0
 33 66  1  0  0  0
 33 70  2  0  0  0
 34 36  1  0  0  0
 34 59  1  0  0  0
 34110  1  0  0  0
 35 44  2  0  0  0
 35 45  1  0  0  0
 35 68  1  0  0  0
 36 56  1  0  0  0
 36111  1  0  0  0
 37 39  1  0  0  0
 37 47  1  0  0  0
 37 66  1  0  0  0
 37112  1  0  0  0
 38 43  2  0  0  0
 38 46  1  0  0  0
 38 47  1  0  0  0
 39 64  1  0  0  0
 39 67  2  0  0  0
 40 52  1  0  0  0
 40 53  2  0  0  0
 40 58  1  0  0  0
 41113  1  0  0  0
 41114  1  0  0  0
 41115  1  0  0  0
 41 48  1  0  0  0
 42 43  1  0  0  0
 42 66  1  0  0  0
 42116  1  0  0  0
 42117  1  0  0  0
 43 44  1  0  0  0
 44118  1  0  0  0
 45 46  2  0  0  0
 45119  1  0  0  0
 46120  1  0  0  0
 47121  1  0  0  0
 47122  1  0  0  0
 48 56  1  0  0  0
 48 65  1  0  0  0
 48123  1  0  0  0
 49 50  1  0  0  0
 49 53  1  0  0  0
 49 64  1  0  0  0
 49124  1  0  0  0
 50 51  1  0  0  0
 50125  1  0  0  0
 50126  1  0  0  0
 51 52  1  0  0  0
 51127  1  0  0  0
 51128  1  0  0  0
 52129  1  0  0  0
 52130  1  0  0  0
 53 54  1  0  0  0
 54 55  2  0  0  0
 54131  1  0  0  0
 55 57  1  0  0  0
 55132  1  0  0  0
 56 69  2  0  0  0
 57 58  2  0  0  0
 57133  1  0  0  0
 58134  1  0  0  0
 59 60  1  0  0  0
 59 61  1  0  0  0
 59 62  1  0  0  0
 60135  1  0  0  0
 60136  1  0  0  0
 60137  1  0  0  0
 61138  1  0  0  0
 61139  1  0  0  0
 61140  1  0  0  0
 62141  1  0  0  0
 62142  1  0  0  0
 62143  1  0  0  0
 63 65  1  0  0  0
 63144  1  0  0  0
 63145  1  0  0  0
 63146  1  0  0  0
 64147  1  0  0  0
 65148  1  0  0  0
 68 83  1  0  0  0
 71 72  2  0  0  0
 71 73  1  0  0  0
 71149  1  0  0  0
 72 74  1  0  0  0
 72 79  1  0  0  0
 73 75  2  0  0  0
 73 84  1  0  0  0
 74 81  1  0  0  0
 74 88  2  0  0  0
 75 88  1  0  0  0
 75 80  1  0  0  0
 76 77  1  0  0  0
 76 80  1  0  0  0
 76150  1  0  0  0
 76151  1  0  0  0
 77 83  1  0  0  0
 77152  1  0  0  0
 77153  1  0  0  0
 78 79  1  0  0  0
 78 89  1  0  0  0
 78154  1  0  0  0
 78155  1  0  0  0
 79 85  1  0  0  0
 79156  1  0  0  0
 80 82  1  0  0  0
 80157  1  0  0  0
 81 86  1  0  0  0
 81 89  1  0  0  0
 81158  1  0  0  0
 82 83  1  0  0  0
 82 87  1  0  0  0
 82159  1  0  0  0
 83160  1  0  0  0
 84161  1  0  0  0
 84162  1  0  0  0
 84163  1  0  0  0
 85164  1  0  0  0
 85165  1  0  0  0
 85166  1  0  0  0
 86167  1  0  0  0
 86168  1  0  0  0
 86169  1  0  0  0
 87170  1  0  0  0
 87171  1  0  0  0
 87172  1  0  0  0
M  ISO  4   1 100  68 101  83 101  89 100
M  END
> <chiral flag>
0

> <version>
0

> <s_m_source_file>
/data/baiqing/PycharmProjects/Reinvent-master-3.2/result/LINK_invent/BTK/process_docking_weight1_custom_sum_contain_oxygen_bond_distance_aromatic_linkinvent_7_9_3/rearranged_h_0171.sdf

> <i_m_source_file_index>
41

> <r_mmod_Potential_Energy-OPLS-2005>
284.331909179688

> <r_mmod_Stretch_Energy-OPLS-2005>
155.160354614258

> <r_mmod_Bend_Energy-OPLS-2005>
248.399002075195

> <r_mmod_Torsional_Energy-OPLS-2005>
361.965972900391

> <r_mmod_Improper_Torsional_Energy-OPLS-2005>
7.21507930755615

> <r_mmod_Van_der_Waal_Energy-OPLS-2005>
146.831634521484

> <r_mmod_Electrostatic_Energy-OPLS-2005>
-528.65478515625

> <r_mmod_Solvation_Energy-OPLS-2005>
-197.766693115234

> <b_mmod_Minimization_Converged-OPLS-2005>
0

> <r_mmod_RMS_Derivative-OPLS-2005>
9.48933506011963

$$$$
41
                    3D
 Structure written by MMmdl.
183195  0  0  1  0            999 V2000
  -30.6394  -14.7338   20.4365 C   0  0  0  0  0  0
  -30.4269  -12.4606   19.4233 C   0  0  0  0  0  0
  -29.4958  -12.5430   18.1950 C   0  0  0  0  0  0
  -28.0302  -12.3532   18.6241 C   0  0  0  0  0  0
  -27.6463  -13.2393   19.8406 C   0  0  2  0  0  0
  -28.7024  -13.1688   20.9627 C   0  0  0  0  0  0
  -25.2585  -13.8163   20.5724 C   0  0  0  0  0  0
  -24.1877  -13.0406   20.9198 C   0  0  0  0  0  0
  -24.6478  -11.6896   20.8711 C   0  0  0  0  0  0
  -23.9131  -10.4282   21.0407 C   0  0  0  0  0  0
  -24.3668   -9.4203   21.9182 C   0  0  0  0  0  0
  -23.6298   -8.2264   22.0772 C   0  0  0  0  0  0
  -22.4272   -8.0309   21.3566 C   0  0  0  0  0  0
  -21.9932   -9.0295   20.4678 C   0  0  0  0  0  0
  -22.7303  -10.2155   20.3058 C   0  0  0  0  0  0
  -21.6872   -6.0745   22.5261 C   0  0  0  0  0  0
  -21.4019   -6.5640   23.8184 C   0  0  0  0  0  0
  -21.3653   -5.6797   24.9145 C   0  0  0  0  0  0
  -21.6067   -4.3053   24.7209 C   0  0  0  0  0  0
  -21.8834   -3.8143   23.4323 C   0  0  0  0  0  0
  -21.9210   -4.6972   22.3390 C   0  0  0  0  0  0
  -22.7894  -13.5196   21.1853 C   0  0  0  0  0  0
  -22.1694   -4.2146   21.0968 F   0  0  0  0  0  0
  -21.5610   -3.4555   25.7722 F   0  0  0  0  0  0
  -29.9936  -13.5181   20.3670 N   0  0  0  0  0  0
  -26.3022  -12.9405   20.3304 N   0  0  0  0  0  0
  -25.9408  -11.6528   20.5739 N   0  0  0  0  0  0
  -22.0545  -12.8164   22.0395 N   0  0  0  0  0  0
  -25.4270  -15.1892   20.4145 N   0  0  0  0  0  0
  -31.8389  -14.7999   20.1594 O   0  0  0  0  0  0
  -21.6646   -6.8908   21.4228 O   0  0  0  0  0  0
  -22.3597  -14.5551   20.6760 O   0  0  0  0  0  0
  -24.6351  -31.8537   23.1998 C   0  0  0  0  0  0
  -25.9169  -32.4727   23.8344 C   0  0  1  0  0  0
  -27.2013  -27.2305   20.1399 C   0  0  0  0  0  0
  -25.5964  -33.8534   24.2250 N   0  0  0  0  0  0
  -23.4305  -30.4795   21.5426 C   0  0  2  0  0  0
  -24.8801  -28.9302   20.1033 C   0  0  0  0  0  0
  -22.7519  -29.4603   22.4902 C   0  0  0  0  0  0
  -18.0294  -28.1387   22.8485 C   0  0  0  0  0  0
  -24.1500  -36.7267   23.2635 C   0  0  0  0  0  0
  -25.9819  -30.7595   21.3844 C   0  0  0  0  0  0
  -26.0541  -29.3820   20.7234 C   0  0  0  0  0  0
  -27.2232  -28.5463   20.7285 C   0  0  0  0  0  0
  -26.0177  -26.8764   19.4581 C   0  0  0  0  0  0
  -24.8727  -27.6883   19.4547 C   0  0  0  0  0  0
  -23.6495  -29.8157   20.1580 C   0  0  0  0  0  0
  -25.4126  -36.3036   24.0318 C   0  0  1  0  0  0
  -20.5890  -28.3703   23.1251 C   0  0  2  0  0  0
  -20.6769  -26.9408   22.5408 C   0  0  0  0  0  0
  -19.5755  -26.6377   21.5212 C   0  0  0  0  0  0
  -18.1933  -26.7927   22.1628 C   0  0  0  0  0  0
  -19.1544  -28.8862   23.2859 C   0  0  0  0  0  0
  -18.9467  -30.1458   23.8889 C   0  0  0  0  0  0
  -17.6462  -30.6578   24.0559 C   0  0  0  0  0  0
  -25.9062  -34.9426   23.5082 C   0  0  0  0  0  0
  -16.5355  -29.9067   23.6326 C   0  0  0  0  0  0
  -16.7282  -28.6482   23.0352 C   0  0  0  0  0  0
  -26.4542  -31.6535   25.0722 C   0  0  0  0  0  0
  -25.3762  -31.3715   26.1430 C   0  0  0  0  0  0
  -27.0371  -30.2927   24.6242 C   0  0  0  0  0  0
  -27.6097  -32.4292   25.7513 C   0  0  0  0  0  0
  -27.5578  -37.1779   24.8459 C   0  0  0  0  0  0
  -21.4207  -29.3046   22.3646 N   0  0  0  0  0  0
  -26.4280  -37.3743   23.9408 N   0  0  0  0  0  0
  -24.7024  -31.0479   22.0991 N   0  0  0  0  0  0
  -23.4206  -28.8151   23.3020 O   0  0  0  0  0  0
  -28.2299  -26.2504   20.2087 O   0  0  0  0  0  0
  -26.5634  -34.8916   22.4650 O   0  0  0  0  0  0
  -23.5495  -32.1398   23.7257 O   0  0  0  0  0  0
  -29.4209  -21.2672   21.5317 C   0  0  0  0  0  0
  -28.5561  -23.4712   20.5826 C   0  0  0  0  0  0
  -28.7428  -22.5511   21.6829 C   0  0  0  0  0  0
  -29.6417  -20.7312   20.2240 C   0  0  0  0  0  0
  -28.8377  -22.8723   19.3183 C   0  0  0  0  0  0
  -30.8753  -21.0062   23.7620 C   0  0  0  0  0  0
  -31.3632  -19.9812   22.8006 C   0  0  0  0  0  0
  -30.4421  -17.0567   21.4211 C   0  0  0  0  0  0
  -29.3322  -16.7359   19.5480 C   0  0  0  0  0  0
  -28.6281  -23.1616   24.1361 C   0  0  0  0  0  0
  -26.8649  -21.9482   23.0876 C   0  0  0  0  0  0
  -29.9161  -20.4528   22.7137 C   0  0  0  0  0  0
  -30.4732  -19.4334   19.8127 C   0  0  1  0  0  0
  -30.9996  -18.1460   20.4824 C   0  0  2  0  0  0
  -30.1669  -18.0124   19.2200 C   0  0  1  0  0  0
  -28.0303  -22.1561   25.1417 C   0  0  2  0  0  0
  -26.6018  -22.0021   24.5992 C   0  0  2  0  0  0
  -28.5416  -23.6023   18.0228 C   0  0  0  0  0  0
  -28.1434  -22.5946   26.6071 C   0  0  0  0  0  0
  -27.8033  -24.8974   20.7611 C   0  0  0  0  0  0
  -29.3132  -21.5851   19.2035 N   0  3  0  0  0  0
  -28.0099  -22.8299   22.8574 N   0  0  0  0  0  0
  -29.9069  -15.9086   20.6507 N   0  0  0  0  0  0
  -25.8799  -20.8211   25.1041 N   0  3  0  0  0  0
  -31.4633  -12.5781   19.1088 H   0  0  0  0  0  0
  -30.3525  -11.4727   19.8799 H   0  0  0  0  0  0
  -29.7650  -11.7927   17.4530 H   0  0  0  0  0  0
  -29.6096  -13.5087   17.6998 H   0  0  0  0  0  0
  -27.8964  -11.2997   18.8680 H   0  0  0  0  0  0
  -27.3647  -12.5639   17.7842 H   0  0  0  0  0  0
  -27.6395  -14.2663   19.4718 H   0  0  0  0  0  0
  -28.7391  -12.1682   21.3946 H   0  0  0  0  0  0
  -28.4584  -13.8545   21.7744 H   0  0  0  0  0  0
  -25.2823   -9.5665   22.4736 H   0  0  0  0  0  0
  -24.0007   -7.4652   22.7469 H   0  0  0  0  0  0
  -21.0878   -8.8831   19.8981 H   0  0  0  0  0  0
  -22.3780  -10.9694   19.6153 H   0  0  0  0  0  0
  -21.2001   -7.6139   23.9695 H   0  0  0  0  0  0
  -21.1467   -6.0521   25.9056 H   0  0  0  0  0  0
  -22.0615   -2.7602   23.2819 H   0  0  0  0  0  0
  -22.4146  -11.9823   22.4781 H   0  0  0  0  0  0
  -21.1197  -13.1231   22.2635 H   0  0  0  0  0  0
  -24.6518  -15.8352   20.5149 H   0  0  0  0  0  0
  -26.2909  -15.6367   20.1351 H   0  0  0  0  0  0
  -26.7245  -32.5372   23.1091 H   0  0  0  0  0  0
  -25.0092  -33.9675   25.0382 H   0  0  0  0  0  0
  -22.7274  -31.3032   21.3976 H   0  0  0  0  0  0
  -23.3744  -35.9598   23.3279 H   0  0  0  0  0  0
  -24.3577  -36.8912   22.2040 H   0  0  0  0  0  0
  -23.7268  -37.6480   23.6680 H   0  0  0  0  0  0
  -26.1242  -31.5218   20.6171 H   0  0  0  0  0  0
  -26.8575  -30.8046   22.0205 H   0  0  0  0  0  0
  -28.1188  -28.8812   21.2345 H   0  0  0  0  0  0
  -25.9566  -25.9335   18.9339 H   0  0  0  0  0  0
  -23.9787  -27.3418   18.9527 H   0  0  0  0  0  0
  -23.7701  -30.5954   19.4073 H   0  0  0  0  0  0
  -22.7658  -29.2515   19.8524 H   0  0  0  0  0  0
  -25.1300  -36.1875   25.0801 H   0  0  0  0  0  0
  -20.9995  -28.3293   24.1372 H   0  0  0  0  0  0
  -20.5642  -26.2330   23.3619 H   0  0  0  0  0  0
  -21.6635  -26.7416   22.1226 H   0  0  0  0  0  0
  -19.6915  -25.6290   21.1234 H   0  0  0  0  0  0
  -19.6677  -27.3193   20.6744 H   0  0  0  0  0  0
  -17.4193  -26.6675   21.4031 H   0  0  0  0  0  0
  -18.0344  -26.0055   22.9025 H   0  0  0  0  0  0
  -19.7934  -30.7275   24.2258 H   0  0  0  0  0  0
  -17.5006  -31.6260   24.5168 H   0  0  0  0  0  0
  -15.5349  -30.2970   23.7638 H   0  0  0  0  0  0
  -15.8684  -28.0793   22.7073 H   0  0  0  0  0  0
  -24.5952  -30.7039   25.7783 H   0  0  0  0  0  0
  -24.8927  -32.2880   26.4834 H   0  0  0  0  0  0
  -25.8062  -30.8935   27.0232 H   0  0  0  0  0  0
  -26.2947  -29.6677   24.1250 H   0  0  0  0  0  0
  -27.3995  -29.7205   25.4797 H   0  0  0  0  0  0
  -27.8879  -30.4165   23.9527 H   0  0  0  0  0  0
  -27.2691  -33.3601   26.2086 H   0  0  0  0  0  0
  -28.3924  -32.6833   25.0340 H   0  0  0  0  0  0
  -28.0748  -31.8406   26.5439 H   0  0  0  0  0  0
  -28.2572  -38.0100   24.7490 H   0  0  0  0  0  0
  -28.1097  -36.2618   24.6291 H   0  0  0  0  0  0
  -27.2284  -37.1432   25.8859 H   0  0  0  0  0  0
  -20.9410  -29.8770   21.6830 H   0  0  0  0  0  0
  -26.0151  -38.2809   24.1414 H   0  0  0  0  0  0
  -31.3208  -21.9913   23.6332 H   0  0  0  0  0  0
  -30.7594  -20.6780   24.7924 H   0  0  0  0  0  0
  -31.5722  -18.9991   23.2196 H   0  0  0  0  0  0
  -32.0772  -20.3312   22.0579 H   0  0  0  0  0  0
  -29.6460  -17.4717   22.0386 H   0  0  0  0  0  0
  -31.2274  -16.7412   22.1120 H   0  0  0  0  0  0
  -29.2473  -16.1328   18.6430 H   0  0  0  0  0  0
  -28.3155  -17.0365   19.8091 H   0  0  0  0  0  0
  -29.7116  -23.1940   24.1280 H   0  0  0  0  0  0
  -28.3142  -24.1739   24.3948 H   0  0  0  0  0  0
  -25.9978  -22.2728   22.5108 H   0  0  0  0  0  0
  -27.0953  -20.9282   22.7750 H   0  0  0  0  0  0
  -29.1602  -19.7378   23.0328 H   0  0  0  0  0  0
  -31.2894  -19.9225   19.2831 H   0  0  0  0  0  0
  -32.0729  -18.0147   20.3540 H   0  0  0  0  0  0
  -30.7105  -17.8583   18.2910 H   0  0  0  0  0  0
  -28.5340  -21.1944   25.0356 H   0  0  0  0  0  0
  -26.0259  -22.9025   24.8294 H   0  0  0  0  0  0
  -29.0485  -24.5663   18.0077 H   0  0  0  0  0  0
  -27.4688  -23.7739   17.9335 H   0  0  0  0  0  0
  -28.8579  -23.0317   17.1488 H   0  0  0  0  0  0
  -27.6384  -23.5424   26.7855 H   0  0  0  0  0  0
  -29.1902  -22.7122   26.8886 H   0  0  0  0  0  0
  -27.7170  -21.8518   27.2792 H   0  0  0  0  0  0
  -27.7358  -25.0933   21.8315 H   0  0  0  0  0  0
  -26.7758  -24.6754   20.4827 H   0  0  0  0  0  0
  -29.4859  -21.2437   18.2547 H   0  0  0  0  0  0
  -26.3856  -19.9727   24.9343 H   0  0  0  0  0  0
  -24.9852  -20.7460   24.6528 H   0  0  0  0  0  0
  -25.7251  -20.9001   26.0928 H   0  0  0  0  0  0
  1 25  1  0  0  0
  1 30  2  0  0  0
  1 93  1  0  0  0
  2  3  1  0  0  0
  2 25  1  0  0  0
  2 95  1  0  0  0
  2 96  1  0  0  0
  3  4  1  0  0  0
  3 97  1  0  0  0
  3 98  1  0  0  0
  4  5  1  0  0  0
  4 99  1  0  0  0
  4100  1  0  0  0
  5  6  1  0  0  0
  5 26  1  0  0  0
  5101  1  0  0  0
  6 25  1  0  0  0
  6102  1  0  0  0
  6103  1  0  0  0
  7  8  2  0  0  0
  7 26  1  0  0  0
  7 29  1  0  0  0
  8  9  1  0  0  0
  8 22  1  0  0  0
  9 10  1  0  0  0
  9 27  2  0  0  0
 10 11  2  0  0  0
 10 15  1  0  0  0
 11 12  1  0  0  0
 11104  1  0  0  0
 12 13  2  0  0  0
 12105  1  0  0  0
 13 14  1  0  0  0
 13 31  1  0  0  0
 14 15  2  0  0  0
 14106  1  0  0  0
 15107  1  0  0  0
 16 17  2  0  0  0
 16 21  1  0  0  0
 16 31  1  0  0  0
 17 18  1  0  0  0
 17108  1  0  0  0
 18 19  2  0  0  0
 18109  1  0  0  0
 19 20  1  0  0  0
 19 24  1  0  0  0
 20 21  2  0  0  0
 20110  1  0  0  0
 21 23  1  0  0  0
 22 28  1  0  0  0
 22 32  2  0  0  0
 26 27  1  0  0  0
 28111  1  0  0  0
 28112  1  0  0  0
 29113  1  0  0  0
 29114  1  0  0  0
 33 34  1  0  0  0
 33 66  1  0  0  0
 33 70  2  0  0  0
 34 36  1  0  0  0
 34 59  1  0  0  0
 34115  1  0  0  0
 35 44  2  0  0  0
 35 45  1  0  0  0
 35 68  1  0  0  0
 36 56  1  0  0  0
 36116  1  0  0  0
 37 39  1  0  0  0
 37 47  1  0  0  0
 37 66  1  0  0  0
 37117  1  0  0  0
 38 43  2  0  0  0
 38 46  1  0  0  0
 38 47  1  0  0  0
 39 64  1  0  0  0
 39 67  2  0  0  0
 40 52  1  0  0  0
 40 53  2  0  0  0
 40 58  1  0  0  0
 41118  1  0  0  0
 41119  1  0  0  0
 41120  1  0  0  0
 41 48  1  0  0  0
 42 43  1  0  0  0
 42 66  1  0  0  0
 42121  1  0  0  0
 42122  1  0  0  0
 43 44  1  0  0  0
 44123  1  0  0  0
 45 46  2  0  0  0
 45124  1  0  0  0
 46125  1  0  0  0
 47126  1  0  0  0
 47127  1  0  0  0
 48 56  1  0  0  0
 48 65  1  0  0  0
 48128  1  0  0  0
 49 50  1  0  0  0
 49 53  1  0  0  0
 49 64  1  0  0  0
 49129  1  0  0  0
 50 51  1  0  0  0
 50130  1  0  0  0
 50131  1  0  0  0
 51 52  1  0  0  0
 51132  1  0  0  0
 51133  1  0  0  0
 52134  1  0  0  0
 52135  1  0  0  0
 53 54  1  0  0  0
 54 55  2  0  0  0
 54136  1  0  0  0
 55 57  1  0  0  0
 55137  1  0  0  0
 56 69  2  0  0  0
 57 58  2  0  0  0
 57138  1  0  0  0
 58139  1  0  0  0
 59 60  1  0  0  0
 59 61  1  0  0  0
 59 62  1  0  0  0
 60140  1  0  0  0
 60141  1  0  0  0
 60142  1  0  0  0
 61143  1  0  0  0
 61144  1  0  0  0
 61145  1  0  0  0
 62146  1  0  0  0
 62147  1  0  0  0
 62148  1  0  0  0
 63 65  1  0  0  0
 63149  1  0  0  0
 63150  1  0  0  0
 63151  1  0  0  0
 64152  1  0  0  0
 65153  1  0  0  0
 68 90  1  0  0  0
 71 73  2  0  0  0
 71 74  1  0  0  0
 71 82  1  0  0  0
 72 73  1  0  0  0
 72 75  2  0  0  0
 72 90  1  0  0  0
 73 92  1  0  0  0
 74 91  2  0  0  0
 74 83  1  0  0  0
 75 88  1  0  0  0
 75 91  1  0  0  0
 76 77  1  0  0  0
 76 82  1  0  0  0
 76154  1  0  0  0
 76155  1  0  0  0
 77 82  1  0  0  0
 77156  1  0  0  0
 77157  1  0  0  0
 78 93  1  0  0  0
 78158  1  0  0  0
 78159  1  0  0  0
 78 84  1  0  0  0
 79 93  1  0  0  0
 79160  1  0  0  0
 79161  1  0  0  0
 79 85  1  0  0  0
 80 86  1  0  0  0
 80 92  1  0  0  0
 80162  1  0  0  0
 80163  1  0  0  0
 81 87  1  0  0  0
 81 92  1  0  0  0
 81164  1  0  0  0
 81165  1  0  0  0
 82166  1  0  0  0
 83 84  1  0  0  0
 83 85  1  0  0  0
 83167  1  0  0  0
 84 85  1  0  0  0
 84168  1  0  0  0
 85169  1  0  0  0
 86 87  1  0  0  0
 86 89  1  0  0  0
 86170  1  0  0  0
 87 94  1  0  0  0
 87171  1  0  0  0
 88172  1  0  0  0
 88173  1  0  0  0
 88174  1  0  0  0
 89175  1  0  0  0
 89176  1  0  0  0
 89177  1  0  0  0
 90178  1  0  0  0
 90179  1  0  0  0
 91180  1  0  0  0
 94181  1  0  0  0
 94182  1  0  0  0
 94183  1  0  0  0
M  CHG  2  91   1  94   1
M  ISO  4   1 100  68 101  90 101  93 100
M  END
> <chiral flag>
0

> <version>
0

> <s_m_source_file>
/data/baiqing/PycharmProjects/Reinvent-master-3.2/result/LINK_invent/BTK/process_docking_weight1_custom_sum_contain_oxygen_bond_distance_aromatic_linkinvent_7_9_3/rearranged_h_0171.sdf

> <i_m_source_file_index>
42

> <r_mmod_Potential_Energy-OPLS-2005>
534.753967285156

> <r_mmod_Stretch_Energy-OPLS-2005>
137.966262817383

> <r_mmod_Bend_Energy-OPLS-2005>
400.828155517578

> <r_mmod_Torsional_Energy-OPLS-2005>
530.950439453125

> <r_mmod_Improper_Torsional_Energy-OPLS-2005>
18.4003143310547

> <r_mmod_Van_der_Waal_Energy-OPLS-2005>
132.264785766602

> <r_mmod_Electrostatic_Energy-OPLS-2005>
100.629974365234

> <r_mmod_Solvation_Energy-OPLS-2005>
-887.114318847656

> <b_mmod_Minimization_Converged-OPLS-2005>
0

> <r_mmod_RMS_Derivative-OPLS-2005>
4.95889377593994

$$$$
42
                    3D
 Structure written by MMmdl.
159168  0  0  1  0            999 V2000
  -30.4943  -15.1240   20.4074 C   0  0  0  0  0  0
  -30.4308  -12.7059   19.5150 C   0  0  0  0  0  0
  -29.5212  -12.5430   18.2729 C   0  0  0  0  0  0
  -28.0576  -12.3135   18.6880 C   0  0  0  0  0  0
  -27.6131  -13.2671   19.8257 C   0  0  2  0  0  0
  -28.6506  -13.3672   20.9621 C   0  0  0  0  0  0
  -25.2367  -13.8240   20.5739 C   0  0  0  0  0  0
  -24.1710  -13.0441   20.9236 C   0  0  0  0  0  0
  -24.6349  -11.6932   20.8743 C   0  0  0  0  0  0
  -23.9048  -10.4293   21.0396 C   0  0  0  0  0  0
  -24.3608   -9.4214   21.9176 C   0  0  0  0  0  0
  -23.6283   -8.2248   22.0750 C   0  0  0  0  0  0
  -22.4268   -8.0269   21.3536 C   0  0  0  0  0  0
  -21.9900   -9.0242   20.4635 C   0  0  0  0  0  0
  -22.7221  -10.2124   20.3041 C   0  0  0  0  0  0
  -21.6845   -6.0730   22.5278 C   0  0  0  0  0  0
  -21.4015   -6.5635   23.8210 C   0  0  0  0  0  0
  -21.3660   -5.6784   24.9172 C   0  0  0  0  0  0
  -21.6041   -4.3047   24.7216 C   0  0  0  0  0  0
  -21.8816   -3.8143   23.4335 C   0  0  0  0  0  0
  -21.9190   -4.6963   22.3395 C   0  0  0  0  0  0
  -22.7720  -13.5183   21.1918 C   0  0  0  0  0  0
  -22.1653   -4.2144   21.0970 F   0  0  0  0  0  0
  -21.5633   -3.4533   25.7733 F   0  0  0  0  0  0
  -29.9057  -13.8378   20.3542 N   0  0  0  0  0  0
  -26.2792  -12.9509   20.3198 N   0  0  0  0  0  0
  -25.9276  -11.6621   20.5696 N   0  0  0  0  0  0
  -22.0384  -12.8170   22.0469 N   0  0  0  0  0  0
  -25.4080  -15.1981   20.4223 N   0  0  0  0  0  0
  -31.6870  -15.1454   20.0722 O   0  0  0  0  0  0
  -21.6632   -6.8873   21.4233 O   0  0  0  0  0  0
  -22.3387  -14.5477   20.6741 O   0  0  0  0  0  0
  -24.6615  -31.8279   23.1719 C   0  0  0  0  0  0
  -25.9295  -32.4629   23.8169 C   0  0  1  0  0  0
  -27.2122  -26.9525   20.1651 C   0  0  0  0  0  0
  -25.5989  -33.8434   24.2101 N   0  0  0  0  0  0
  -23.4735  -30.4410   21.5220 C   0  0  2  0  0  0
  -24.9231  -28.8368   20.1059 C   0  0  0  0  0  0
  -22.7651  -29.4470   22.4791 C   0  0  0  0  0  0
  -18.0329  -28.1398   22.8503 C   0  0  0  0  0  0
  -24.1480  -36.7189   23.2646 C   0  0  0  0  0  0
  -26.0416  -30.6393   21.3963 C   0  0  0  0  0  0
  -26.1074  -29.2310   20.7417 C   0  0  0  0  0  0
  -27.2446  -28.3070   20.7538 C   0  0  0  0  0  0
  -26.0066  -26.7178   19.4612 C   0  0  0  0  0  0
  -24.8983  -27.6001   19.4444 C   0  0  0  0  0  0
  -23.7077  -29.7613   20.1465 C   0  0  0  0  0  0
  -25.4117  -36.2987   24.0329 C   0  0  1  0  0  0
  -20.5952  -28.3747   23.1205 C   0  0  2  0  0  0
  -20.6802  -26.9427   22.5410 C   0  0  0  0  0  0
  -19.5768  -26.6376   21.5231 C   0  0  0  0  0  0
  -18.1952  -26.7943   22.1634 C   0  0  0  0  0  0
  -19.1589  -28.8891   23.2850 C   0  0  0  0  0  0
  -18.9508  -30.1487   23.8876 C   0  0  0  0  0  0
  -17.6501  -30.6602   24.0562 C   0  0  0  0  0  0
  -25.9094  -34.9385   23.5028 C   0  0  0  0  0  0
  -16.5391  -29.9089   23.6339 C   0  0  0  0  0  0
  -16.7312  -28.6492   23.0392 C   0  0  0  0  0  0
  -26.4553  -31.6542   25.0669 C   0  0  0  0  0  0
  -25.3695  -31.3777   26.1340 C   0  0  0  0  0  0
  -27.0420  -30.2920   24.6323 C   0  0  0  0  0  0
  -27.6070  -32.4320   25.7453 C   0  0  0  0  0  0
  -27.5565  -37.1753   24.8474 C   0  0  0  0  0  0
  -21.4317  -29.3052   22.3552 N   0  0  0  0  0  0
  -26.4258  -37.3740   23.9442 N   0  0  0  0  0  0
  -24.7477  -30.9962   22.0843 N   0  0  0  0  0  0
  -23.4215  -28.8040   23.3018 O   0  0  0  0  0  0
  -28.1936  -25.8377   20.2702 O   0  0  0  0  0  0
  -26.5683  -34.8932   22.4613 O   0  0  0  0  0  0
  -23.5676  -32.1235   23.6817 O   0  0  0  0  0  0
  -27.8810  -21.6634   20.9877 C   0  0  0  0  0  0
  -28.1887  -20.2040   20.9815 C   0  0  0  0  0  0
  -28.5512  -22.7016   20.2031 C   0  0  0  0  0  0
  -29.3350  -19.6111   20.3153 C   0  0  0  0  0  0
  -29.6380  -21.9970   19.5293 C   0  0  0  0  0  0
  -30.4110  -17.9079   21.8751 C   0  0  0  0  0  0
  -29.5706  -16.6559   22.0787 C   0  0  0  0  0  0
  -29.9952  -17.9964   20.3920 C   0  0  2  0  0  0
  -26.7859  -22.1351   21.9297 C   0  0  0  0  0  0
  -27.2226  -19.2429   21.6808 C   0  0  0  0  0  0
  -30.5020  -22.7843   18.5598 C   0  0  0  0  0  0
  -27.8952  -24.2862   19.8575 C   0  0  0  0  0  0
  -30.0059  -20.6242   19.6284 N   0  0  0  0  0  0
  -29.7639  -16.3706   20.6559 N   0  0  0  0  0  0
  -31.4562  -12.8815   19.1896 H   0  0  0  0  0  0
  -30.4655  -11.7784   20.0905 H   0  0  0  0  0  0
  -29.8658  -11.7135   17.6531 H   0  0  0  0  0  0
  -29.5894  -13.4364   17.6513 H   0  0  0  0  0  0
  -27.9674  -11.2783   19.0191 H   0  0  0  0  0  0
  -27.3961  -12.4123   17.8259 H   0  0  0  0  0  0
  -27.5514  -14.2537   19.3642 H   0  0  0  0  0  0
  -28.7725  -12.4041   21.4603 H   0  0  0  0  0  0
  -28.3098  -14.0701   21.7229 H   0  0  0  0  0  0
  -25.2754   -9.5691   22.4748 H   0  0  0  0  0  0
  -23.9995   -7.4630   22.7462 H   0  0  0  0  0  0
  -21.0843   -8.8727   19.8931 H   0  0  0  0  0  0
  -22.3663  -10.9646   19.6141 H   0  0  0  0  0  0
  -21.2006   -7.6143   23.9709 H   0  0  0  0  0  0
  -21.1486   -6.0519   25.9073 H   0  0  0  0  0  0
  -22.0597   -2.7604   23.2830 H   0  0  0  0  0  0
  -22.4015  -11.9835   22.4865 H   0  0  0  0  0  0
  -21.0985  -13.1161   22.2665 H   0  0  0  0  0  0
  -24.6520  -15.8620   20.5558 H   0  0  0  0  0  0
  -26.2684  -15.6343   20.1159 H   0  0  0  0  0  0
  -26.7357  -32.5156   23.0870 H   0  0  0  0  0  0
  -25.0189  -33.9531   25.0283 H   0  0  0  0  0  0
  -22.7873  -31.2737   21.3558 H   0  0  0  0  0  0
  -23.3780  -35.9485   23.3298 H   0  0  0  0  0  0
  -24.3555  -36.8813   22.2060 H   0  0  0  0  0  0
  -23.7209  -37.6378   23.6676 H   0  0  0  0  0  0
  -26.2132  -31.3787   20.6121 H   0  0  0  0  0  0
  -26.9091  -30.7022   22.0423 H   0  0  0  0  0  0
  -28.1349  -28.6045   21.2870 H   0  0  0  0  0  0
  -25.8742  -25.7846   18.9350 H   0  0  0  0  0  0
  -24.0018  -27.2982   18.9176 H   0  0  0  0  0  0
  -23.8559  -30.5330   19.3895 H   0  0  0  0  0  0
  -22.8179  -29.2141   19.8332 H   0  0  0  0  0  0
  -25.1309  -36.1790   25.0827 H   0  0  0  0  0  0
  -21.0065  -28.3338   24.1322 H   0  0  0  0  0  0
  -20.5674  -26.2361   23.3652 H   0  0  0  0  0  0
  -21.6666  -26.7394   22.1230 H   0  0  0  0  0  0
  -19.6931  -25.6280   21.1284 H   0  0  0  0  0  0
  -19.6712  -27.3175   20.6757 H   0  0  0  0  0  0
  -17.4228  -26.6728   21.4029 H   0  0  0  0  0  0
  -18.0319  -26.0087   22.9016 H   0  0  0  0  0  0
  -19.7988  -30.7316   24.2223 H   0  0  0  0  0  0
  -17.5056  -31.6290   24.5151 H   0  0  0  0  0  0
  -15.5387  -30.2989   23.7682 H   0  0  0  0  0  0
  -15.8712  -28.0798   22.7137 H   0  0  0  0  0  0
  -24.5916  -30.7083   25.7653 H   0  0  0  0  0  0
  -24.8838  -32.2967   26.4630 H   0  0  0  0  0  0
  -25.7953  -30.9047   27.0195 H   0  0  0  0  0  0
  -26.3054  -29.6640   24.1308 H   0  0  0  0  0  0
  -27.3985  -29.7239   25.4918 H   0  0  0  0  0  0
  -27.8985  -30.4145   23.9698 H   0  0  0  0  0  0
  -27.2686  -33.3687   26.1892 H   0  0  0  0  0  0
  -28.3953  -32.6759   25.0319 H   0  0  0  0  0  0
  -28.0657  -31.8514   26.5470 H   0  0  0  0  0  0
  -28.2569  -38.0061   24.7547 H   0  0  0  0  0  0
  -28.1071  -36.2602   24.6249 H   0  0  0  0  0  0
  -27.2292  -37.1337   25.8876 H   0  0  0  0  0  0
  -20.9542  -29.8716   21.6694 H   0  0  0  0  0  0
  -26.0101  -38.2792   24.1480 H   0  0  0  0  0  0
  -31.4810  -17.7281   21.9992 H   0  0  0  0  0  0
  -30.0939  -18.7220   22.5278 H   0  0  0  0  0  0
  -28.5378  -16.8449   22.3686 H   0  0  0  0  0  0
  -30.0377  -15.9565   22.7786 H   0  0  0  0  0  0
  -28.9813  -17.9424   19.9970 H   0  0  0  0  0  0
  -26.8435  -21.5903   22.8739 H   0  0  0  0  0  0
  -25.7955  -21.9855   21.4994 H   0  0  0  0  0  0
  -26.9123  -23.1849   22.1880 H   0  0  0  0  0  0
  -26.2213  -19.6615   21.7815 H   0  0  0  0  0  0
  -27.5714  -18.9682   22.6766 H   0  0  0  0  0  0
  -27.0830  -18.3296   21.0998 H   0  0  0  0  0  0
  -30.8734  -23.6930   19.0325 H   0  0  0  0  0  0
  -29.9285  -23.0729   17.6805 H   0  0  0  0  0  0
  -31.3687  -22.2129   18.2224 H   0  0  0  0  0  0
  -26.8351  -24.1518   20.0670 H   0  0  0  0  0  0
  -27.9305  -24.3271   18.7684 H   0  0  0  0  0  0
  1 25  1  0  0  0
  1 30  2  0  0  0
  1 84  1  0  0  0
  2  3  1  0  0  0
  2 25  1  0  0  0
  2 85  1  0  0  0
  2 86  1  0  0  0
  3  4  1  0  0  0
  3 87  1  0  0  0
  3 88  1  0  0  0
  4  5  1  0  0  0
  4 89  1  0  0  0
  4 90  1  0  0  0
  5  6  1  0  0  0
  5 26  1  0  0  0
  5 91  1  0  0  0
  6 25  1  0  0  0
  6 92  1  0  0  0
  6 93  1  0  0  0
  7  8  2  0  0  0
  7 26  1  0  0  0
  7 29  1  0  0  0
  8  9  1  0  0  0
  8 22  1  0  0  0
  9 10  1  0  0  0
  9 27  2  0  0  0
 10 11  2  0  0  0
 10 15  1  0  0  0
 11 12  1  0  0  0
 11 94  1  0  0  0
 12 13  2  0  0  0
 12 95  1  0  0  0
 13 14  1  0  0  0
 13 31  1  0  0  0
 14 15  2  0  0  0
 14 96  1  0  0  0
 15 97  1  0  0  0
 16 17  2  0  0  0
 16 21  1  0  0  0
 16 31  1  0  0  0
 17 18  1  0  0  0
 17 98  1  0  0  0
 18 19  2  0  0  0
 18 99  1  0  0  0
 19 20  1  0  0  0
 19 24  1  0  0  0
 20 21  2  0  0  0
 20100  1  0  0  0
 21 23  1  0  0  0
 22 28  1  0  0  0
 22 32  2  0  0  0
 26 27  1  0  0  0
 28101  1  0  0  0
 28102  1  0  0  0
 29103  1  0  0  0
 29104  1  0  0  0
 33 34  1  0  0  0
 33 66  1  0  0  0
 33 70  2  0  0  0
 34 36  1  0  0  0
 34 59  1  0  0  0
 34105  1  0  0  0
 35 44  2  0  0  0
 35 45  1  0  0  0
 35 68  1  0  0  0
 36 56  1  0  0  0
 36106  1  0  0  0
 37 39  1  0  0  0
 37 47  1  0  0  0
 37 66  1  0  0  0
 37107  1  0  0  0
 38 43  2  0  0  0
 38 46  1  0  0  0
 38 47  1  0  0  0
 39 64  1  0  0  0
 39 67  2  0  0  0
 40 52  1  0  0  0
 40 53  2  0  0  0
 40 58  1  0  0  0
 41108  1  0  0  0
 41109  1  0  0  0
 41110  1  0  0  0
 41 48  1  0  0  0
 42 43  1  0  0  0
 42 66  1  0  0  0
 42111  1  0  0  0
 42112  1  0  0  0
 43 44  1  0  0  0
 44113  1  0  0  0
 45 46  2  0  0  0
 45114  1  0  0  0
 46115  1  0  0  0
 47116  1  0  0  0
 47117  1  0  0  0
 48 56  1  0  0  0
 48 65  1  0  0  0
 48118  1  0  0  0
 49 50  1  0  0  0
 49 53  1  0  0  0
 49 64  1  0  0  0
 49119  1  0  0  0
 50 51  1  0  0  0
 50120  1  0  0  0
 50121  1  0  0  0
 51 52  1  0  0  0
 51122  1  0  0  0
 51123  1  0  0  0
 52124  1  0  0  0
 52125  1  0  0  0
 53 54  1  0  0  0
 54 55  2  0  0  0
 54126  1  0  0  0
 55 57  1  0  0  0
 55127  1  0  0  0
 56 69  2  0  0  0
 57 58  2  0  0  0
 57128  1  0  0  0
 58129  1  0  0  0
 59 60  1  0  0  0
 59 61  1  0  0  0
 59 62  1  0  0  0
 60130  1  0  0  0
 60131  1  0  0  0
 60132  1  0  0  0
 61133  1  0  0  0
 61134  1  0  0  0
 61135  1  0  0  0
 62136  1  0  0  0
 62137  1  0  0  0
 62138  1  0  0  0
 63 65  1  0  0  0
 63139  1  0  0  0
 63140  1  0  0  0
 63141  1  0  0  0
 64142  1  0  0  0
 65143  1  0  0  0
 68 82  1  0  0  0
 71 72  2  0  0  0
 71 73  1  0  0  0
 71 79  1  0  0  0
 72 74  1  0  0  0
 72 80  1  0  0  0
 73 75  2  0  0  0
 73 82  1  0  0  0
 74 83  2  0  0  0
 74 78  1  0  0  0
 75 81  1  0  0  0
 75 83  1  0  0  0
 76 77  1  0  0  0
 76 78  1  0  0  0
 76144  1  0  0  0
 76145  1  0  0  0
 77 84  1  0  0  0
 77146  1  0  0  0
 77147  1  0  0  0
 78 84  1  0  0  0
 78148  1  0  0  0
 79149  1  0  0  0
 79150  1  0  0  0
 79151  1  0  0  0
 80152  1  0  0  0
 80153  1  0  0  0
 80154  1  0  0  0
 81155  1  0  0  0
 81156  1  0  0  0
 81157  1  0  0  0
 82158  1  0  0  0
 82159  1  0  0  0
M  ISO  4   1 100  68 101  82 101  84 100
M  END
> <chiral flag>
0

> <version>
0

> <s_m_source_file>
/data/baiqing/PycharmProjects/Reinvent-master-3.2/result/LINK_invent/BTK/process_docking_weight1_custom_sum_contain_oxygen_bond_distance_aromatic_linkinvent_7_9_3/rearranged_h_0171.sdf

> <i_m_source_file_index>
43

> <r_mmod_Potential_Energy-OPLS-2005>
1193.2470703125

> <r_mmod_Stretch_Energy-OPLS-2005>
478.876281738281

> <r_mmod_Bend_Energy-OPLS-2005>
640.406005859375

> <r_mmod_Torsional_Energy-OPLS-2005>
280.508483886719

> <r_mmod_Improper_Torsional_Energy-OPLS-2005>
13.7846403121948

> <r_mmod_Van_der_Waal_Energy-OPLS-2005>
141.013107299805

> <r_mmod_Electrostatic_Energy-OPLS-2005>
-504.397277832031

> <r_mmod_Solvation_Energy-OPLS-2005>
-223.203094482422

> <b_mmod_Minimization_Converged-OPLS-2005>
0

> <r_mmod_RMS_Derivative-OPLS-2005>
3.73317575454712

$$$$
43
                    3D
 Structure written by MMmdl.
199211  0  0  1  0            999 V2000
  -30.6081  -14.6668   20.5207 C   0  0  0  0  0  0
  -30.4376  -12.4107   19.4678 C   0  0  0  0  0  0
  -29.5123  -12.5276   18.2353 C   0  0  0  0  0  0
  -28.0344  -12.3600   18.6400 C   0  0  0  0  0  0
  -27.6538  -13.2240   19.8716 C   0  0  2  0  0  0
  -28.6944  -13.0759   21.0044 C   0  0  0  0  0  0
  -25.2530  -13.8196   20.5684 C   0  0  0  0  0  0
  -24.1810  -13.0440   20.9195 C   0  0  0  0  0  0
  -24.6398  -11.6922   20.8752 C   0  0  0  0  0  0
  -23.9080  -10.4292   21.0410 C   0  0  0  0  0  0
  -24.3629   -9.4202   21.9186 C   0  0  0  0  0  0
  -23.6296   -8.2242   22.0762 C   0  0  0  0  0  0
  -22.4280   -8.0287   21.3547 C   0  0  0  0  0  0
  -21.9919   -9.0263   20.4651 C   0  0  0  0  0  0
  -22.7256  -10.2137   20.3057 C   0  0  0  0  0  0
  -21.6849   -6.0738   22.5281 C   0  0  0  0  0  0
  -21.4014   -6.5640   23.8217 C   0  0  0  0  0  0
  -21.3660   -5.6795   24.9178 C   0  0  0  0  0  0
  -21.6045   -4.3060   24.7230 C   0  0  0  0  0  0
  -21.8815   -3.8152   23.4352 C   0  0  0  0  0  0
  -21.9188   -4.6965   22.3406 C   0  0  0  0  0  0
  -22.7824  -13.5219   21.1855 C   0  0  0  0  0  0
  -22.1658   -4.2145   21.0984 F   0  0  0  0  0  0
  -21.5629   -3.4550   25.7747 F   0  0  0  0  0  0
  -30.0105  -13.4313   20.4504 N   0  0  0  0  0  0
  -26.2983  -12.9390   20.3355 N   0  0  0  0  0  0
  -25.9333  -11.6538   20.5786 N   0  0  0  0  0  0
  -22.0479  -12.8207   22.0426 N   0  0  0  0  0  0
  -25.4206  -15.1916   20.4064 N   0  0  0  0  0  0
  -31.7395  -14.8313   20.0582 O   0  0  0  0  0  0
  -21.6635   -6.8887   21.4248 O   0  0  0  0  0  0
  -22.3498  -14.5509   20.6694 O   0  0  0  0  0  0
  -24.6262  -31.8582   23.1986 C   0  0  0  0  0  0
  -25.9105  -32.4767   23.8322 C   0  0  1  0  0  0
  -27.2300  -27.3047   20.1094 C   0  0  0  0  0  0
  -25.5915  -33.8571   24.2249 N   0  0  0  0  0  0
  -23.4200  -30.4790   21.5428 C   0  0  2  0  0  0
  -24.8660  -28.9275   20.1083 C   0  0  0  0  0  0
  -22.7461  -29.4620   22.4946 C   0  0  0  0  0  0
  -18.0271  -28.1393   22.8494 C   0  0  0  0  0  0
  -24.1489  -36.7292   23.2640 C   0  0  0  0  0  0
  -25.9604  -30.7833   21.3696 C   0  0  0  0  0  0
  -26.0331  -29.4079   20.7135 C   0  0  0  0  0  0
  -27.2119  -28.6044   20.7093 C   0  0  0  0  0  0
  -26.0353  -26.8712   19.4928 C   0  0  0  0  0  0
  -24.8691  -27.6650   19.4916 C   0  0  0  0  0  0
  -23.6338  -29.8096   20.1594 C   0  0  0  0  0  0
  -25.4118  -36.3081   24.0329 C   0  0  1  0  0  0
  -20.5874  -28.3699   23.1297 C   0  0  2  0  0  0
  -20.6776  -26.9424   22.5428 C   0  0  0  0  0  0
  -19.5754  -26.6394   21.5230 C   0  0  0  0  0  0
  -18.1925  -26.7934   22.1631 C   0  0  0  0  0  0
  -19.1523  -28.8862   23.2891 C   0  0  0  0  0  0
  -18.9453  -30.1470   23.8899 C   0  0  0  0  0  0
  -17.6455  -30.6598   24.0579 C   0  0  0  0  0  0
  -25.9060  -34.9454   23.5096 C   0  0  0  0  0  0
  -16.5347  -29.9105   23.6334 C   0  0  0  0  0  0
  -16.7259  -28.6524   23.0344 C   0  0  0  0  0  0
  -26.4483  -31.6571   25.0699 C   0  0  0  0  0  0
  -25.3711  -31.3700   26.1416 C   0  0  0  0  0  0
  -27.0340  -30.2995   24.6161 C   0  0  0  0  0  0
  -27.6051  -32.4292   25.7468 C   0  0  0  0  0  0
  -27.5578  -37.1799   24.8461 C   0  0  0  0  0  0
  -21.4174  -29.3043   22.3683 N   0  0  0  0  0  0
  -26.4291  -37.3784   23.9411 N   0  0  0  0  0  0
  -24.6880  -31.0573   22.0944 N   0  0  0  0  0  0
  -23.4171  -28.8182   23.3056 O   0  0  0  0  0  0
  -28.3704  -26.4854   20.1826 O   0  0  0  0  0  0
  -26.5644  -34.8939   22.4671 O   0  0  0  0  0  0
  -23.5427  -32.1392   23.7307 O   0  0  0  0  0  0
  -32.1934  -17.5366   21.5970 C   0  0  0  0  0  0
  -30.9625  -18.1472   21.2438 C   0  0  0  0  0  0
  -30.9122  -19.5946   21.1359 C   0  0  0  0  0  0
  -32.1354  -20.3008   21.2561 C   0  0  0  0  0  0
  -33.3376  -19.6568   21.5260 C   0  0  0  0  0  0
  -33.3887  -18.2699   21.7259 C   0  0  0  0  0  0
  -32.3566  -21.7931   21.1322 C   0  0  0  0  0  0
  -29.6136  -20.4405   21.0521 C   0  0  0  0  0  0
  -34.4935  -20.6227   21.5980 C   0  0  0  0  0  0
  -33.8194  -22.0094   21.5760 C   0  0  0  0  0  0
  -30.7356  -17.5278   16.8307 C   0  0  0  0  0  0
  -31.0536  -17.9262   18.2638 C   0  0  0  0  0  0
  -28.0294  -20.1754   17.4799 C   0  0  0  0  0  0
  -28.0635  -19.4355   16.1301 C   0  0  0  0  0  0
  -28.8643  -17.7575   19.7558 C   0  0  0  0  0  0
  -29.7457  -17.2228   20.9415 C   0  0  1  0  0  0
  -29.2706  -17.5293   17.2488 C   0  0  1  0  0  0
  -29.0195  -20.9454   19.6819 C   0  0  2  0  0  0
  -29.5828  -18.4083   18.5208 C   0  0  2  0  0  0
  -29.2969  -20.0151   18.3750 C   0  0  1  0  0  0
  -28.1537  -17.9053   16.2688 C   0  0  0  0  0  0
  -34.6923  -17.5663   22.0464 C   0  0  0  0  0  0
  -30.4754  -20.7089   17.6242 C   0  0  0  0  0  0
  -26.8076  -17.3442   16.7787 C   0  0  0  0  0  0
  -28.4180  -17.2862   14.8825 C   0  0  0  0  0  0
  -29.1614  -22.5528   19.4105 C   0  0  0  0  0  0
  -28.4855  -23.7561   20.2293 C   0  0  0  0  0  0
  -28.5176  -25.1833   19.4826 C   0  0  0  0  0  0
  -29.8223  -15.6931   20.9964 N   0  0  0  0  0  0
  -31.4800  -12.5340   19.1696 H   0  0  0  0  0  0
  -30.3721  -11.4140   19.9074 H   0  0  0  0  0  0
  -29.7825  -11.7822   17.4859 H   0  0  0  0  0  0
  -29.6538  -13.5016   17.7636 H   0  0  0  0  0  0
  -27.8711  -11.3053   18.8655 H   0  0  0  0  0  0
  -27.3817  -12.5962   17.7984 H   0  0  0  0  0  0
  -27.6745  -14.2619   19.5386 H   0  0  0  0  0  0
  -28.7086  -12.0508   21.3780 H   0  0  0  0  0  0
  -28.4302  -13.6977   21.8613 H   0  0  0  0  0  0
  -25.2778   -9.5669   22.4755 H   0  0  0  0  0  0
  -23.9993   -7.4636   22.7488 H   0  0  0  0  0  0
  -21.0846   -8.8801   19.8957 H   0  0  0  0  0  0
  -22.3731  -10.9681   19.6167 H   0  0  0  0  0  0
  -21.2008   -7.6151   23.9723 H   0  0  0  0  0  0
  -21.1489   -6.0528   25.9079 H   0  0  0  0  0  0
  -22.0588   -2.7613   23.2863 H   0  0  0  0  0  0
  -22.4093  -11.9854   22.4785 H   0  0  0  0  0  0
  -21.1102  -13.1232   22.2659 H   0  0  0  0  0  0
  -24.6434  -15.8382   20.4862 H   0  0  0  0  0  0
  -26.2582  -15.6258   20.0445 H   0  0  0  0  0  0
  -26.7179  -32.5437   23.1077 H   0  0  0  0  0  0
  -24.9998  -33.9713   25.0345 H   0  0  0  0  0  0
  -22.7156  -31.3011   21.3987 H   0  0  0  0  0  0
  -23.3763  -35.9610   23.3286 H   0  0  0  0  0  0
  -24.3567  -36.8932   22.2056 H   0  0  0  0  0  0
  -23.7250  -37.6494   23.6670 H   0  0  0  0  0  0
  -26.0902  -31.5447   20.5989 H   0  0  0  0  0  0
  -26.8411  -30.8347   21.9977 H   0  0  0  0  0  0
  -28.1075  -28.9665   21.1948 H   0  0  0  0  0  0
  -25.9660  -25.8982   19.0326 H   0  0  0  0  0  0
  -23.9711  -27.2869   19.0223 H   0  0  0  0  0  0
  -23.7509  -30.5850   19.4017 H   0  0  0  0  0  0
  -22.7519  -29.2389   19.8621 H   0  0  0  0  0  0
  -25.1309  -36.1915   25.0825 H   0  0  0  0  0  0
  -20.9955  -28.3289   24.1424 H   0  0  0  0  0  0
  -20.5695  -26.2315   23.3632 H   0  0  0  0  0  0
  -21.6650  -26.7474   22.1220 H   0  0  0  0  0  0
  -19.6931  -25.6309   21.1261 H   0  0  0  0  0  0
  -19.6696  -27.3213   20.6769 H   0  0  0  0  0  0
  -17.4203  -26.6673   21.4025 H   0  0  0  0  0  0
  -18.0317  -26.0080   22.9033 H   0  0  0  0  0  0
  -19.7932  -30.7292   24.2250 H   0  0  0  0  0  0
  -17.5015  -31.6272   24.5198 H   0  0  0  0  0  0
  -15.5351  -30.3018   23.7662 H   0  0  0  0  0  0
  -15.8653  -28.0870   22.7029 H   0  0  0  0  0  0
  -24.5900  -30.7044   25.7726 H   0  0  0  0  0  0
  -24.8893  -32.2865   26.4829 H   0  0  0  0  0  0
  -25.8031  -30.8879   27.0195 H   0  0  0  0  0  0
  -26.2925  -29.6723   24.1204 H   0  0  0  0  0  0
  -27.4064  -29.7269   25.4667 H   0  0  0  0  0  0
  -27.8770  -30.4287   23.9369 H   0  0  0  0  0  0
  -27.2675  -33.3603   26.2026 H   0  0  0  0  0  0
  -28.3860  -32.6819   25.0283 H   0  0  0  0  0  0
  -28.0707  -31.8420   26.5391 H   0  0  0  0  0  0
  -28.2593  -38.0097   24.7518 H   0  0  0  0  0  0
  -28.1077  -36.2637   24.6268 H   0  0  0  0  0  0
  -27.2291  -37.1419   25.8860 H   0  0  0  0  0  0
  -20.9342  -29.8741   21.6880 H   0  0  0  0  0  0
  -26.0165  -38.2858   24.1413 H   0  0  0  0  0  0
  -32.2419  -16.4739   21.7579 H   0  0  0  0  0  0
  -31.6653  -22.3803   21.7366 H   0  0  0  0  0  0
  -32.2384  -22.0843   20.0899 H   0  0  0  0  0  0
  -29.7251  -21.3058   21.7034 H   0  0  0  0  0  0
  -28.8490  -19.8737   21.5806 H   0  0  0  0  0  0
  -35.1339  -20.4827   20.7258 H   0  0  0  0  0  0
  -35.0955  -20.4754   22.4955 H   0  0  0  0  0  0
  -33.8147  -22.4018   22.5939 H   0  0  0  0  0  0
  -34.3534  -22.7327   20.9592 H   0  0  0  0  0  0
  -31.1108  -16.5419   16.5523 H   0  0  0  0  0  0
  -30.9902  -18.2576   16.0675 H   0  0  0  0  0  0
  -31.8456  -18.6649   18.3717 H   0  0  0  0  0  0
  -31.3294  -17.0369   18.8241 H   0  0  0  0  0  0
  -27.1515  -19.8447   18.0352 H   0  0  0  0  0  0
  -27.8350  -21.2234   17.2612 H   0  0  0  0  0  0
  -28.8985  -19.8070   15.5363 H   0  0  0  0  0  0
  -27.1731  -19.6996   15.5583 H   0  0  0  0  0  0
  -28.1250  -18.4534   20.1418 H   0  0  0  0  0  0
  -28.2136  -16.9410   19.4463 H   0  0  0  0  0  0
  -29.1258  -17.4010   21.8207 H   0  0  0  0  0  0
  -29.1091  -16.4934   17.5599 H   0  0  0  0  0  0
  -27.9485  -20.8559   19.8702 H   0  0  0  0  0  0
  -34.5317  -16.5138   22.2807 H   0  0  0  0  0  0
  -35.1781  -18.0284   22.9056 H   0  0  0  0  0  0
  -35.3700  -17.6219   21.1941 H   0  0  0  0  0  0
  -30.2242  -21.6926   17.2351 H   0  0  0  0  0  0
  -30.8093  -20.1800   16.7429 H   0  0  0  0  0  0
  -31.3417  -20.8315   18.2727 H   0  0  0  0  0  0
  -26.5649  -17.6935   17.7814 H   0  0  0  0  0  0
  -26.8270  -16.2543   16.8216 H   0  0  0  0  0  0
  -25.9812  -17.6242   16.1247 H   0  0  0  0  0  0
  -29.3323  -17.6727   14.4316 H   0  0  0  0  0  0
  -27.6044  -17.5006   14.1890 H   0  0  0  0  0  0
  -28.5202  -16.2022   14.9456 H   0  0  0  0  0  0
  -28.7830  -22.7381   18.4094 H   0  0  0  0  0  0
  -30.2219  -22.7876   19.3459 H   0  0  0  0  0  0
  -28.9928  -23.8461   21.1899 H   0  0  0  0  0  0
  -27.4481  -23.5067   20.4576 H   0  0  0  0  0  0
  -27.8863  -25.1407   18.5966 H   0  0  0  0  0  0
  -29.5188  -25.2572   19.0579 H   0  0  0  0  0  0
  -28.9770  -15.3116   21.3932 H   0  0  0  0  0  0
  1 25  1  0  0  0
  1 30  2  0  0  0
  1 99  1  0  0  0
  2  3  1  0  0  0
  2 25  1  0  0  0
  2100  1  0  0  0
  2101  1  0  0  0
  3  4  1  0  0  0
  3102  1  0  0  0
  3103  1  0  0  0
  4  5  1  0  0  0
  4104  1  0  0  0
  4105  1  0  0  0
  5  6  1  0  0  0
  5 26  1  0  0  0
  5106  1  0  0  0
  6 25  1  0  0  0
  6107  1  0  0  0
  6108  1  0  0  0
  7  8  2  0  0  0
  7 26  1  0  0  0
  7 29  1  0  0  0
  8  9  1  0  0  0
  8 22  1  0  0  0
  9 10  1  0  0  0
  9 27  2  0  0  0
 10 11  2  0  0  0
 10 15  1  0  0  0
 11 12  1  0  0  0
 11109  1  0  0  0
 12 13  2  0  0  0
 12110  1  0  0  0
 13 14  1  0  0  0
 13 31  1  0  0  0
 14 15  2  0  0  0
 14111  1  0  0  0
 15112  1  0  0  0
 16 17  2  0  0  0
 16 21  1  0  0  0
 16 31  1  0  0  0
 17 18  1  0  0  0
 17113  1  0  0  0
 18 19  2  0  0  0
 18114  1  0  0  0
 19 20  1  0  0  0
 19 24  1  0  0  0
 20 21  2  0  0  0
 20115  1  0  0  0
 21 23  1  0  0  0
 22 28  1  0  0  0
 22 32  2  0  0  0
 26 27  1  0  0  0
 28116  1  0  0  0
 28117  1  0  0  0
 29118  1  0  0  0
 29119  1  0  0  0
 33 34  1  0  0  0
 33 66  1  0  0  0
 33 70  2  0  0  0
 34 36  1  0  0  0
 34 59  1  0  0  0
 34120  1  0  0  0
 35 44  2  0  0  0
 35 45  1  0  0  0
 35 68  1  0  0  0
 36 56  1  0  0  0
 36121  1  0  0  0
 37 39  1  0  0  0
 37 47  1  0  0  0
 37 66  1  0  0  0
 37122  1  0  0  0
 38 43  2  0  0  0
 38 46  1  0  0  0
 38 47  1  0  0  0
 39 64  1  0  0  0
 39 67  2  0  0  0
 40 52  1  0  0  0
 40 53  2  0  0  0
 40 58  1  0  0  0
 41123  1  0  0  0
 41124  1  0  0  0
 41125  1  0  0  0
 41 48  1  0  0  0
 42 43  1  0  0  0
 42 66  1  0  0  0
 42126  1  0  0  0
 42127  1  0  0  0
 43 44  1  0  0  0
 44128  1  0  0  0
 45 46  2  0  0  0
 45129  1  0  0  0
 46130  1  0  0  0
 47131  1  0  0  0
 47132  1  0  0  0
 48 56  1  0  0  0
 48 65  1  0  0  0
 48133  1  0  0  0
 49 50  1  0  0  0
 49 53  1  0  0  0
 49 64  1  0  0  0
 49134  1  0  0  0
 50 51  1  0  0  0
 50135  1  0  0  0
 50136  1  0  0  0
 51 52  1  0  0  0
 51137  1  0  0  0
 51138  1  0  0  0
 52139  1  0  0  0
 52140  1  0  0  0
 53 54  1  0  0  0
 54 55  2  0  0  0
 54141  1  0  0  0
 55 57  1  0  0  0
 55142  1  0  0  0
 56 69  2  0  0  0
 57 58  2  0  0  0
 57143  1  0  0  0
 58144  1  0  0  0
 59 60  1  0  0  0
 59 61  1  0  0  0
 59 62  1  0  0  0
 60145  1  0  0  0
 60146  1  0  0  0
 60147  1  0  0  0
 61148  1  0  0  0
 61149  1  0  0  0
 61150  1  0  0  0
 62151  1  0  0  0
 62152  1  0  0  0
 62153  1  0  0  0
 63 65  1  0  0  0
 63154  1  0  0  0
 63155  1  0  0  0
 63156  1  0  0  0
 64157  1  0  0  0
 65158  1  0  0  0
 68 98  1  0  0  0
 71 72  2  0  0  0
 71 76  1  0  0  0
 71159  1  0  0  0
 72 73  1  0  0  0
 72 86  1  0  0  0
 73 74  2  0  0  0
 73 78  1  0  0  0
 74 75  1  0  0  0
 74 77  1  0  0  0
 75 76  2  0  0  0
 75 79  1  0  0  0
 76 92  1  0  0  0
 77 80  1  0  0  0
 77160  1  0  0  0
 77161  1  0  0  0
 78 88  1  0  0  0
 78162  1  0  0  0
 78163  1  0  0  0
 79 80  1  0  0  0
 79164  1  0  0  0
 79165  1  0  0  0
 80166  1  0  0  0
 80167  1  0  0  0
 81 82  1  0  0  0
 81168  1  0  0  0
 81169  1  0  0  0
 81 87  1  0  0  0
 82170  1  0  0  0
 82171  1  0  0  0
 82 89  1  0  0  0
 83 84  1  0  0  0
 83 90  1  0  0  0
 83172  1  0  0  0
 83173  1  0  0  0
 84 91  1  0  0  0
 84174  1  0  0  0
 84175  1  0  0  0
 85 86  1  0  0  0
 85 89  1  0  0  0
 85176  1  0  0  0
 85177  1  0  0  0
 86 99  1  0  0  0
 86178  1  0  0  0
 87 89  1  0  0  0
 87 91  1  0  0  0
 87179  1  0  0  0
 88 90  1  0  0  0
 88 96  1  0  0  0
 88180  1  0  0  0
 89 90  1  0  0  0
 90 93  1  0  0  0
 91 94  1  0  0  0
 91 95  1  0  0  0
 92181  1  0  0  0
 92182  1  0  0  0
 92183  1  0  0  0
 93184  1  0  0  0
 93185  1  0  0  0
 93186  1  0  0  0
 94187  1  0  0  0
 94188  1  0  0  0
 94189  1  0  0  0
 95190  1  0  0  0
 95191  1  0  0  0
 95192  1  0  0  0
 96 97  1  0  0  0
 96193  1  0  0  0
 96194  1  0  0  0
 97 98  1  0  0  0
 97195  1  0  0  0
 97196  1  0  0  0
 98197  1  0  0  0
 98198  1  0  0  0
 99199  1  0  0  0
M  ISO  4   1 100  68 101  98 101  99 100
M  END
> <chiral flag>
0

> <version>
0

> <s_m_source_file>
/data/baiqing/PycharmProjects/Reinvent-master-3.2/result/LINK_invent/BTK/process_docking_weight1_custom_sum_contain_oxygen_bond_distance_aromatic_linkinvent_7_9_3/rearranged_h_0171.sdf

> <i_m_source_file_index>
44

> <r_mmod_Potential_Energy-OPLS-2005>
386.174163818359

> <r_mmod_Stretch_Energy-OPLS-2005>
141.88752746582

> <r_mmod_Bend_Energy-OPLS-2005>
334.500091552734

> <r_mmod_Torsional_Energy-OPLS-2005>
357.030364990234

> <r_mmod_Improper_Torsional_Energy-OPLS-2005>
4.42732429504395

> <r_mmod_Van_der_Waal_Energy-OPLS-2005>
163.709197998047

> <r_mmod_Electrostatic_Energy-OPLS-2005>
-469.687225341797

> <r_mmod_Solvation_Energy-OPLS-2005>
-199.216659545898

> <b_mmod_Minimization_Converged-OPLS-2005>
0

> <r_mmod_RMS_Derivative-OPLS-2005>
1.57022511959076

$$$$
44
                    3D
 Structure written by MMmdl.
202214  0  0  1  0            999 V2000
  -30.7198  -14.3756   20.6425 C   0  0  0  0  0  0
  -30.4271  -12.2735   19.3977 C   0  0  0  0  0  0
  -29.4895  -12.5032   18.1960 C   0  0  0  0  0  0
  -28.0119  -12.3614   18.6119 C   0  0  0  0  0  0
  -27.6681  -13.1834   19.8819 C   0  0  2  0  0  0
  -28.7046  -12.9119   20.9949 C   0  0  0  0  0  0
  -25.2636  -13.8115   20.5675 C   0  0  0  0  0  0
  -24.1851  -13.0413   20.9164 C   0  0  0  0  0  0
  -24.6371  -11.6882   20.8716 C   0  0  0  0  0  0
  -23.9027  -10.4285   21.0387 C   0  0  0  0  0  0
  -24.3584   -9.4208   21.9181 C   0  0  0  0  0  0
  -23.6272   -8.2240   22.0752 C   0  0  0  0  0  0
  -22.4258   -8.0270   21.3542 C   0  0  0  0  0  0
  -21.9889   -9.0234   20.4642 C   0  0  0  0  0  0
  -22.7202  -10.2117   20.3049 C   0  0  0  0  0  0
  -21.6854   -6.0722   22.5278 C   0  0  0  0  0  0
  -21.4015   -6.5625   23.8209 C   0  0  0  0  0  0
  -21.3659   -5.6783   24.9176 C   0  0  0  0  0  0
  -21.6042   -4.3048   24.7226 C   0  0  0  0  0  0
  -21.8818   -3.8139   23.4349 C   0  0  0  0  0  0
  -21.9201   -4.6955   22.3396 C   0  0  0  0  0  0
  -22.7883  -13.5244   21.1827 C   0  0  0  0  0  0
  -22.1667   -4.2131   21.0977 F   0  0  0  0  0  0
  -21.5629   -3.4542   25.7744 F   0  0  0  0  0  0
  -30.0442  -13.2152   20.4567 N   0  0  0  0  0  0
  -26.3049  -12.9228   20.3386 N   0  0  0  0  0  0
  -25.9292  -11.6412   20.5750 N   0  0  0  0  0  0
  -22.0516  -12.8243   22.0386 N   0  0  0  0  0  0
  -25.4386  -15.1824   20.4086 N   0  0  0  0  0  0
  -31.8093  -14.6246   20.1182 O   0  0  0  0  0  0
  -21.6643   -6.8857   21.4234 O   0  0  0  0  0  0
  -22.3578  -14.5566   20.6705 O   0  0  0  0  0  0
  -24.5987  -31.8766   23.2183 C   0  0  0  0  0  0
  -25.8928  -32.4890   23.8432 C   0  0  1  0  0  0
  -27.2735  -27.5515   20.0916 C   0  0  0  0  0  0
  -25.5826  -33.8678   24.2384 N   0  0  0  0  0  0
  -23.3822  -30.4961   21.5543 C   0  0  2  0  0  0
  -24.8366  -28.9730   20.1178 C   0  0  0  0  0  0
  -22.7323  -29.4679   22.5049 C   0  0  0  0  0  0
  -18.0247  -28.1359   22.8483 C   0  0  0  0  0  0
  -24.1467  -36.7335   23.2655 C   0  0  0  0  0  0
  -25.8917  -30.8787   21.3497 C   0  0  0  0  0  0
  -25.9777  -29.5135   20.7169 C   0  0  0  0  0  0
  -27.1873  -28.8096   20.7189 C   0  0  0  0  0  0
  -26.1176  -27.0013   19.4948 C   0  0  0  0  0  0
  -24.8946  -27.7060   19.5063 C   0  0  0  0  0  0
  -23.5874  -29.8227   20.1673 C   0  0  0  0  0  0
  -25.4090  -36.3166   24.0372 C   0  0  1  0  0  0
  -20.5819  -28.3619   23.1352 C   0  0  2  0  0  0
  -20.6734  -26.9366   22.5430 C   0  0  0  0  0  0
  -19.5738  -26.6379   21.5199 C   0  0  0  0  0  0
  -18.1905  -26.7918   22.1586 C   0  0  0  0  0  0
  -19.1489  -28.8806   23.2910 C   0  0  0  0  0  0
  -18.9423  -30.1419   23.8920 C   0  0  0  0  0  0
  -17.6423  -30.6563   24.0552 C   0  0  0  0  0  0
  -25.8997  -34.9523   23.5179 C   0  0  0  0  0  0
  -16.5317  -29.9066   23.6312 C   0  0  0  0  0  0
  -16.7241  -28.6476   23.0343 C   0  0  0  0  0  0
  -26.4438  -31.6639   25.0693 C   0  0  0  0  0  0
  -25.3777  -31.3635   26.1486 C   0  0  0  0  0  0
  -27.0274  -30.3124   24.5964 C   0  0  0  0  0  0
  -27.6027  -32.4360   25.7429 C   0  0  0  0  0  0
  -27.5594  -37.1814   24.8477 C   0  0  0  0  0  0
  -21.4071  -29.3000   22.3787 N   0  0  0  0  0  0
  -26.4294  -37.3839   23.9437 N   0  0  0  0  0  0
  -24.6418  -31.0968   22.1016 N   0  0  0  0  0  0
  -23.4154  -28.8241   23.3062 O   0  0  0  0  0  0
  -28.4491  -26.8575   19.9670 O   0  0  0  0  0  0
  -26.5582  -34.8959   22.4748 O   0  0  0  0  0  0
  -23.5215  -32.1468   23.7647 O   0  0  0  0  0  0
  -27.4791  -21.9380   18.7308 C   0  0  0  0  0  0
  -27.5632  -20.7331   17.8043 C   0  0  0  0  0  0
  -29.0390  -16.7900   19.1114 C   0  0  0  0  0  0
  -29.9430  -20.4995   21.4370 C   0  0  0  0  0  0
  -27.9165  -21.9059   21.7655 C   0  0  0  0  0  0
  -28.9594  -17.7730   17.9402 C   0  0  0  0  0  0
  -30.9902  -19.7966   20.5370 C   0  0  0  0  0  0
  -28.4074  -22.6744   23.0003 C   0  0  0  0  0  0
  -29.2706  -24.2659   20.4501 C   0  0  0  0  0  0
  -28.8208  -21.4854   19.3608 C   0  0  2  0  0  0
  -28.4993  -20.0704   18.8390 C   0  0  2  0  0  0
  -29.6918  -17.5494   20.2831 C   0  0  2  0  0  0
  -29.0190  -24.9135   21.8044 C   0  0  1  0  0  0
  -29.1673  -21.7150   20.8584 C   0  0  2  0  0  0
  -29.6237  -19.0930   18.3939 C   0  0  1  0  0  0
  -30.5502  -18.6461   19.5897 C   0  0  1  0  0  0
  -29.5086  -23.6095   22.4896 C   0  0  2  0  0  0
  -29.9248  -23.0529   21.0987 C   0  0  2  0  0  0
  -30.4165  -19.6846   17.1968 C   0  0  0  0  0  0
  -31.8782  -18.0220   19.0572 C   0  0  0  0  0  0
  -30.5725  -23.7325   23.5877 C   0  0  0  0  0  0
  -31.4269  -22.9876   20.7784 C   0  0  0  0  0  0
  -28.8661  -27.0217   23.2249 C   0  0  0  0  0  0
  -29.9468  -17.2065   22.8300 C   0  0  0  0  0  0
  -29.5857  -27.1770   20.7854 C   0  0  0  0  0  0
  -29.5976  -26.3158   22.0691 C   0  0  2  0  0  0
  -30.3614  -16.7150   21.4314 C   0  0  1  0  0  0
  -30.0383  -15.2957   21.3393 N   0  0  0  0  0  0
  -31.4683  -12.3892   19.0927 H   0  0  0  0  0  0
  -30.3389  -11.2495   19.7630 H   0  0  0  0  0  0
  -29.7205  -11.7925   17.4018 H   0  0  0  0  0  0
  -29.6619  -13.4955   17.7767 H   0  0  0  0  0  0
  -27.8217  -11.3024   18.7970 H   0  0  0  0  0  0
  -27.3584  -12.6493   17.7872 H   0  0  0  0  0  0
  -27.7293  -14.2339   19.6084 H   0  0  0  0  0  0
  -28.6679  -11.8640   21.2948 H   0  0  0  0  0  0
  -28.4599  -13.4714   21.8987 H   0  0  0  0  0  0
  -25.2726   -9.5707   22.4749 H   0  0  0  0  0  0
  -23.9987   -7.4644   22.7486 H   0  0  0  0  0  0
  -21.0819   -8.8739   19.8947 H   0  0  0  0  0  0
  -22.3652  -10.9649   19.6153 H   0  0  0  0  0  0
  -21.1994   -7.6125   23.9703 H   0  0  0  0  0  0
  -21.1483   -6.0518   25.9073 H   0  0  0  0  0  0
  -22.0596   -2.7603   23.2864 H   0  0  0  0  0  0
  -22.4108  -11.9882   22.4753 H   0  0  0  0  0  0
  -21.1145  -13.1287   22.2593 H   0  0  0  0  0  0
  -24.6760  -15.8413   20.5199 H   0  0  0  0  0  0
  -26.2966  -15.6202   20.0984 H   0  0  0  0  0  0
  -26.7004  -32.5696   23.1220 H   0  0  0  0  0  0
  -24.9958  -33.9845   25.0524 H   0  0  0  0  0  0
  -22.6657  -31.3085   21.4172 H   0  0  0  0  0  0
  -23.3757  -35.9637   23.3307 H   0  0  0  0  0  0
  -24.3589  -36.8955   22.2076 H   0  0  0  0  0  0
  -23.7153  -37.6509   23.6662 H   0  0  0  0  0  0
  -25.9731  -31.6393   20.5714 H   0  0  0  0  0  0
  -26.7902  -30.9569   21.9500 H   0  0  0  0  0  0
  -28.0339  -29.2881   21.1799 H   0  0  0  0  0  0
  -26.1783  -26.0414   18.9995 H   0  0  0  0  0  0
  -24.0209  -27.2832   19.0283 H   0  0  0  0  0  0
  -23.6799  -30.5964   19.4039 H   0  0  0  0  0  0
  -22.7153  -29.2311   19.8820 H   0  0  0  0  0  0
  -25.1260  -36.2044   25.0869 H   0  0  0  0  0  0
  -20.9893  -28.3167   24.1479 H   0  0  0  0  0  0
  -20.5577  -26.2237   23.3601 H   0  0  0  0  0  0
  -21.6613  -26.7404   22.1240 H   0  0  0  0  0  0
  -19.6884  -25.6292   21.1217 H   0  0  0  0  0  0
  -19.6686  -27.3203   20.6732 H   0  0  0  0  0  0
  -17.4175  -26.6680   21.3978 H   0  0  0  0  0  0
  -18.0279  -26.0047   22.8959 H   0  0  0  0  0  0
  -19.7896  -30.7235   24.2292 H   0  0  0  0  0  0
  -17.4973  -31.6258   24.5121 H   0  0  0  0  0  0
  -15.5313  -30.2967   23.7630 H   0  0  0  0  0  0
  -15.8641  -28.0808   22.7049 H   0  0  0  0  0  0
  -24.5911  -30.7045   25.7788 H   0  0  0  0  0  0
  -24.9008  -32.2738   26.5127 H   0  0  0  0  0  0
  -25.8205  -30.8638   27.0119 H   0  0  0  0  0  0
  -26.2745  -29.6823   24.1211 H   0  0  0  0  0  0
  -27.4309  -29.7416   25.4338 H   0  0  0  0  0  0
  -27.8452  -30.4506   23.8891 H   0  0  0  0  0  0
  -27.2663  -33.3647   26.2063 H   0  0  0  0  0  0
  -28.3785  -32.6975   25.0216 H   0  0  0  0  0  0
  -28.0763  -31.8462   26.5293 H   0  0  0  0  0  0
  -28.2616  -38.0120   24.7562 H   0  0  0  0  0  0
  -28.1095  -36.2655   24.6244 H   0  0  0  0  0  0
  -27.2332  -37.1383   25.8889 H   0  0  0  0  0  0
  -20.9218  -29.8736   21.7034 H   0  0  0  0  0  0
  -26.0206  -38.2930   24.1445 H   0  0  0  0  0  0
  -26.6029  -21.8617   19.3744 H   0  0  0  0  0  0
  -27.5080  -22.8978   18.2133 H   0  0  0  0  0  0
  -28.0245  -21.0070   16.8558 H   0  0  0  0  0  0
  -26.6150  -20.2198   17.6447 H   0  0  0  0  0  0
  -29.6269  -15.9377   18.7818 H   0  0  0  0  0  0
  -28.0499  -16.4288   19.3855 H   0  0  0  0  0  0
  -30.4522  -20.8274   22.3428 H   0  0  0  0  0  0
  -29.2325  -19.7724   21.8108 H   0  0  0  0  0  0
  -27.1774  -22.5504   21.2927 H   0  0  0  0  0  0
  -27.3980  -20.9793   22.0146 H   0  0  0  0  0  0
  -27.9292  -17.9169   17.6098 H   0  0  0  0  0  0
  -29.4875  -17.3384   17.0897 H   0  0  0  0  0  0
  -31.7361  -19.3898   21.2194 H   0  0  0  0  0  0
  -31.5337  -20.5272   19.9454 H   0  0  0  0  0  0
  -28.7959  -21.9532   23.7205 H   0  0  0  0  0  0
  -27.5975  -23.2065   23.5013 H   0  0  0  0  0  0
  -29.9501  -24.7937   19.7830 H   0  0  0  0  0  0
  -28.3302  -24.0869   19.9371 H   0  0  0  0  0  0
  -29.6201  -21.8915   18.7406 H   0  0  0  0  0  0
  -27.8547  -19.5970   19.5811 H   0  0  0  0  0  0
  -28.8346  -18.0305   20.7448 H   0  0  0  0  0  0
  -27.9340  -24.9649   21.9164 H   0  0  0  0  0  0
  -29.7734  -19.9100   16.3492 H   0  0  0  0  0  0
  -31.1508  -18.9878   16.7956 H   0  0  0  0  0  0
  -30.9482  -20.5947   17.4694 H   0  0  0  0  0  0
  -32.5269  -17.6483   19.8468 H   0  0  0  0  0  0
  -32.4939  -18.7562   18.5375 H   0  0  0  0  0  0
  -31.7083  -17.1913   18.3730 H   0  0  0  0  0  0
  -30.1723  -24.2231   24.4753 H   0  0  0  0  0  0
  -31.4433  -24.3007   23.2651 H   0  0  0  0  0  0
  -30.9406  -22.7523   23.8988 H   0  0  0  0  0  0
  -31.5989  -22.7245   19.7355 H   0  0  0  0  0  0
  -31.9646  -22.2791   21.4073 H   0  0  0  0  0  0
  -31.9074  -23.9550   20.9328 H   0  0  0  0  0  0
  -28.9284  -26.4422   24.1455 H   0  0  0  0  0  0
  -27.8079  -27.1602   23.0006 H   0  0  0  0  0  0
  -29.2914  -28.0072   23.4236 H   0  0  0  0  0  0
  -30.3071  -18.2162   23.0175 H   0  0  0  0  0  0
  -30.3681  -16.5775   23.6155 H   0  0  0  0  0  0
  -28.8630  -17.2108   22.9556 H   0  0  0  0  0  0
  -30.4653  -26.9242   20.1945 H   0  0  0  0  0  0
  -29.7397  -28.2317   21.0002 H   0  0  0  0  0  0
  -30.6436  -26.2357   22.3675 H   0  0  0  0  0  0
  -31.4442  -16.8076   21.4054 H   0  0  0  0  0  0
  -29.1518  -14.9996   21.7180 H   0  0  0  0  0  0
  1 25  1  0  0  0
  1 30  2  0  0  0
  1 98  1  0  0  0
  2  3  1  0  0  0
  2 25  1  0  0  0
  2 99  1  0  0  0
  2100  1  0  0  0
  3  4  1  0  0  0
  3101  1  0  0  0
  3102  1  0  0  0
  4  5  1  0  0  0
  4103  1  0  0  0
  4104  1  0  0  0
  5  6  1  0  0  0
  5 26  1  0  0  0
  5105  1  0  0  0
  6 25  1  0  0  0
  6106  1  0  0  0
  6107  1  0  0  0
  7  8  2  0  0  0
  7 26  1  0  0  0
  7 29  1  0  0  0
  8  9  1  0  0  0
  8 22  1  0  0  0
  9 10  1  0  0  0
  9 27  2  0  0  0
 10 11  2  0  0  0
 10 15  1  0  0  0
 11 12  1  0  0  0
 11108  1  0  0  0
 12 13  2  0  0  0
 12109  1  0  0  0
 13 14  1  0  0  0
 13 31  1  0  0  0
 14 15  2  0  0  0
 14110  1  0  0  0
 15111  1  0  0  0
 16 17  2  0  0  0
 16 21  1  0  0  0
 16 31  1  0  0  0
 17 18  1  0  0  0
 17112  1  0  0  0
 18 19  2  0  0  0
 18113  1  0  0  0
 19 20  1  0  0  0
 19 24  1  0  0  0
 20 21  2  0  0  0
 20114  1  0  0  0
 21 23  1  0  0  0
 22 28  1  0  0  0
 22 32  2  0  0  0
 26 27  1  0  0  0
 28115  1  0  0  0
 28116  1  0  0  0
 29117  1  0  0  0
 29118  1  0  0  0
 33 34  1  0  0  0
 33 66  1  0  0  0
 33 70  2  0  0  0
 34 36  1  0  0  0
 34 59  1  0  0  0
 34119  1  0  0  0
 35 44  2  0  0  0
 35 45  1  0  0  0
 35 68  1  0  0  0
 36 56  1  0  0  0
 36120  1  0  0  0
 37 39  1  0  0  0
 37 47  1  0  0  0
 37 66  1  0  0  0
 37121  1  0  0  0
 38 43  2  0  0  0
 38 46  1  0  0  0
 38 47  1  0  0  0
 39 64  1  0  0  0
 39 67  2  0  0  0
 40 52  1  0  0  0
 40 53  2  0  0  0
 40 58  1  0  0  0
 41122  1  0  0  0
 41123  1  0  0  0
 41124  1  0  0  0
 41 48  1  0  0  0
 42 43  1  0  0  0
 42 66  1  0  0  0
 42125  1  0  0  0
 42126  1  0  0  0
 43 44  1  0  0  0
 44127  1  0  0  0
 45 46  2  0  0  0
 45128  1  0  0  0
 46129  1  0  0  0
 47130  1  0  0  0
 47131  1  0  0  0
 48 56  1  0  0  0
 48 65  1  0  0  0
 48132  1  0  0  0
 49 50  1  0  0  0
 49 53  1  0  0  0
 49 64  1  0  0  0
 49133  1  0  0  0
 50 51  1  0  0  0
 50134  1  0  0  0
 50135  1  0  0  0
 51 52  1  0  0  0
 51136  1  0  0  0
 51137  1  0  0  0
 52138  1  0  0  0
 52139  1  0  0  0
 53 54  1  0  0  0
 54 55  2  0  0  0
 54140  1  0  0  0
 55 57  1  0  0  0
 55141  1  0  0  0
 56 69  2  0  0  0
 57 58  2  0  0  0
 57142  1  0  0  0
 58143  1  0  0  0
 59 60  1  0  0  0
 59 61  1  0  0  0
 59 62  1  0  0  0
 60144  1  0  0  0
 60145  1  0  0  0
 60146  1  0  0  0
 61147  1  0  0  0
 61148  1  0  0  0
 61149  1  0  0  0
 62150  1  0  0  0
 62151  1  0  0  0
 62152  1  0  0  0
 63 65  1  0  0  0
 63153  1  0  0  0
 63154  1  0  0  0
 63155  1  0  0  0
 64156  1  0  0  0
 65157  1  0  0  0
 68 95  1  0  0  0
 71 72  1  0  0  0
 71158  1  0  0  0
 71159  1  0  0  0
 71 80  1  0  0  0
 72160  1  0  0  0
 72161  1  0  0  0
 72 81  1  0  0  0
 73 76  1  0  0  0
 73162  1  0  0  0
 73163  1  0  0  0
 73 82  1  0  0  0
 74 77  1  0  0  0
 74164  1  0  0  0
 74165  1  0  0  0
 74 84  1  0  0  0
 75 78  1  0  0  0
 75 84  1  0  0  0
 75166  1  0  0  0
 75167  1  0  0  0
 76 85  1  0  0  0
 76168  1  0  0  0
 76169  1  0  0  0
 77 86  1  0  0  0
 77170  1  0  0  0
 77171  1  0  0  0
 78 87  1  0  0  0
 78172  1  0  0  0
 78173  1  0  0  0
 79 88  1  0  0  0
 79174  1  0  0  0
 79175  1  0  0  0
 79 83  1  0  0  0
 80 81  1  0  0  0
 80 84  1  0  0  0
 80176  1  0  0  0
 81 85  1  0  0  0
 81177  1  0  0  0
 82 86  1  0  0  0
 82 97  1  0  0  0
 82178  1  0  0  0
 83 87  1  0  0  0
 83 96  1  0  0  0
 83179  1  0  0  0
 84 88  1  0  0  0
 85 86  1  0  0  0
 85 89  1  0  0  0
 86 90  1  0  0  0
 87 88  1  0  0  0
 87 91  1  0  0  0
 88 92  1  0  0  0
 89180  1  0  0  0
 89181  1  0  0  0
 89182  1  0  0  0
 90183  1  0  0  0
 90184  1  0  0  0
 90185  1  0  0  0
 91186  1  0  0  0
 91187  1  0  0  0
 91188  1  0  0  0
 92189  1  0  0  0
 92190  1  0  0  0
 92191  1  0  0  0
 93192  1  0  0  0
 93193  1  0  0  0
 93194  1  0  0  0
 93 96  1  0  0  0
 94195  1  0  0  0
 94196  1  0  0  0
 94197  1  0  0  0
 94 97  1  0  0  0
 95 96  1  0  0  0
 95198  1  0  0  0
 95199  1  0  0  0
 96200  1  0  0  0
 97 98  1  0  0  0
 97201  1  0  0  0
 98202  1  0  0  0
M  ISO  4   1 100  68 101  95 101  98 100
M  END
> <chiral flag>
0

> <version>
0

> <s_m_source_file>
/data/baiqing/PycharmProjects/Reinvent-master-3.2/result/LINK_invent/BTK/process_docking_weight1_custom_sum_contain_oxygen_bond_distance_aromatic_linkinvent_7_9_3/rearranged_h_0171.sdf

> <i_m_source_file_index>
45

> <r_mmod_Potential_Energy-OPLS-2005>
338.330047607422

> <r_mmod_Stretch_Energy-OPLS-2005>
47.3474655151367

> <r_mmod_Bend_Energy-OPLS-2005>
248.903228759766

> <r_mmod_Torsional_Energy-OPLS-2005>
483.532928466797

> <r_mmod_Improper_Torsional_Energy-OPLS-2005>
3.39462637901306

> <r_mmod_Van_der_Waal_Energy-OPLS-2005>
177.302856445312

> <r_mmod_Electrostatic_Energy-OPLS-2005>
-464.331817626953

> <r_mmod_Solvation_Energy-OPLS-2005>
-166.847076416016

> <b_mmod_Minimization_Converged-OPLS-2005>
0

> <r_mmod_RMS_Derivative-OPLS-2005>
2.96549534797668

$$$$
45
                    3D
 Structure written by MMmdl.
160169  0  0  1  0            999 V2000
  -30.6611  -14.7036   20.3754 C   0  0  0  0  0  0
  -30.4052  -12.4102   19.4586 C   0  0  0  0  0  0
  -29.4897  -12.4573   18.2172 C   0  0  0  0  0  0
  -28.0160  -12.3080   18.6467 C   0  0  0  0  0  0
  -27.6270  -13.2371   19.8327 C   0  0  2  0  0  0
  -28.6825  -13.2228   20.9598 C   0  0  0  0  0  0
  -25.2430  -13.8187   20.5743 C   0  0  0  0  0  0
  -24.1744  -13.0412   20.9252 C   0  0  0  0  0  0
  -24.6354  -11.6897   20.8794 C   0  0  0  0  0  0
  -23.9047  -10.4273   21.0448 C   0  0  0  0  0  0
  -24.3602   -9.4173   21.9195 C   0  0  0  0  0  0
  -23.6269   -8.2212   22.0753 C   0  0  0  0  0  0
  -22.4241   -8.0275   21.3565 C   0  0  0  0  0  0
  -21.9879   -9.0255   20.4666 C   0  0  0  0  0  0
  -22.7226  -10.2131   20.3098 C   0  0  0  0  0  0
  -21.6852   -6.0726   22.5302 C   0  0  0  0  0  0
  -21.4024   -6.5635   23.8235 C   0  0  0  0  0  0
  -21.3656   -5.6784   24.9191 C   0  0  0  0  0  0
  -21.6043   -4.3050   24.7245 C   0  0  0  0  0  0
  -21.8786   -3.8135   23.4358 C   0  0  0  0  0  0
  -21.9168   -4.6950   22.3409 C   0  0  0  0  0  0
  -22.7783  -13.5213   21.1886 C   0  0  0  0  0  0
  -22.1639   -4.2135   21.0993 F   0  0  0  0  0  0
  -21.5620   -3.4541   25.7752 F   0  0  0  0  0  0
  -29.9746  -13.5176   20.3354 N   0  0  0  0  0  0
  -26.2855  -12.9432   20.3254 N   0  0  0  0  0  0
  -25.9296  -11.6568   20.5785 N   0  0  0  0  0  0
  -22.0416  -12.8261   22.0469 N   0  0  0  0  0  0
  -25.4046  -15.1916   20.4217 N   0  0  0  0  0  0
  -31.8920  -14.6752   20.3009 O   0  0  0  0  0  0
  -21.6613   -6.8874   21.4277 O   0  0  0  0  0  0
  -22.3495  -14.5515   20.6712 O   0  0  0  0  0  0
  -24.6341  -31.8604   23.2067 C   0  0  0  0  0  0
  -25.9174  -32.4781   23.8406 C   0  0  1  0  0  0
  -27.1998  -27.2818   20.1094 C   0  0  0  0  0  0
  -25.5988  -33.8582   24.2342 N   0  0  0  0  0  0
  -23.4260  -30.4945   21.5469 C   0  0  2  0  0  0
  -24.8624  -28.9485   20.1094 C   0  0  0  0  0  0
  -22.7499  -29.4660   22.4869 C   0  0  0  0  0  0
  -18.0314  -28.1388   22.8467 C   0  0  0  0  0  0
  -24.1477  -36.7274   23.2634 C   0  0  0  0  0  0
  -25.9741  -30.7771   21.3839 C   0  0  0  0  0  0
  -26.0382  -29.4056   20.7162 C   0  0  0  0  0  0
  -27.2113  -28.5875   20.7010 C   0  0  0  0  0  0
  -25.9984  -26.8970   19.4654 C   0  0  0  0  0  0
  -24.8456  -27.7025   19.4729 C   0  0  0  0  0  0
  -23.6415  -29.8435   20.1593 C   0  0  0  0  0  0
  -25.4101  -36.3078   24.0339 C   0  0  1  0  0  0
  -20.5922  -28.3732   23.1229 C   0  0  2  0  0  0
  -20.6790  -26.9440   22.5377 C   0  0  0  0  0  0
  -19.5769  -26.6389   21.5182 C   0  0  0  0  0  0
  -18.1956  -26.7934   22.1597 C   0  0  0  0  0  0
  -19.1560  -28.8869   23.2860 C   0  0  0  0  0  0
  -18.9476  -30.1446   23.8924 C   0  0  0  0  0  0
  -17.6471  -30.6576   24.0570 C   0  0  0  0  0  0
  -25.9047  -34.9449   23.5131 C   0  0  0  0  0  0
  -16.5372  -29.9072   23.6314 C   0  0  0  0  0  0
  -16.7295  -28.6484   23.0353 C   0  0  0  0  0  0
  -26.4561  -31.6601   25.0781 C   0  0  0  0  0  0
  -25.3801  -31.3716   26.1510 C   0  0  0  0  0  0
  -27.0421  -30.3035   24.6240 C   0  0  0  0  0  0
  -27.6121  -32.4353   25.7531 C   0  0  0  0  0  0
  -27.5570  -37.1789   24.8461 C   0  0  0  0  0  0
  -21.4208  -29.3094   22.3614 N   0  0  0  0  0  0
  -26.4270  -37.3782   23.9424 N   0  0  0  0  0  0
  -24.6978  -31.0606   22.1026 N   0  0  0  0  0  0
  -23.4199  -28.8154   23.2922 O   0  0  0  0  0  0
  -28.2935  -26.3910   20.1496 O   0  0  0  0  0  0
  -26.5572  -34.8908   22.4665 O   0  0  0  0  0  0
  -23.5506  -32.1400   23.7396 O   0  0  0  0  0  0
  -31.5602  -19.8800   19.1414 C   0  0  0  0  0  0
  -29.1687  -19.6862   20.5294 C   0  0  0  0  0  0
  -30.9961  -18.6073   19.3629 C   0  0  0  0  0  0
  -29.8401  -18.4642   20.1524 C   0  0  0  0  0  0
  -30.9458  -21.0671   19.5975 C   0  0  0  0  0  0
  -29.6642  -21.0183   20.2267 C   0  0  0  0  0  0
  -31.6027  -17.3895   18.6998 C   0  0  0  0  0  0
  -29.3617  -16.9907   20.5172 C   0  0  0  0  0  0
  -30.5501  -16.2749   18.5210 C   0  0  0  0  0  0
  -31.7279  -22.3533   19.3710 C   0  0  0  0  0  0
  -28.7870  -22.2981   20.5887 C   0  0  0  0  0  0
  -29.1446  -23.8196   20.1829 C   0  0  0  0  0  0
  -27.9998  -24.9290   20.2930 C   0  0  0  0  0  0
  -30.0271  -15.8154   19.8226 N   0  0  0  0  0  0
  -31.4573  -12.4846   19.1737 H   0  0  0  0  0  0
  -30.2928  -11.4557   19.9776 H   0  0  0  0  0  0
  -29.7521  -11.6646   17.5171 H   0  0  0  0  0  0
  -29.6256  -13.3951   17.6779 H   0  0  0  0  0  0
  -27.8757  -11.2667   18.9418 H   0  0  0  0  0  0
  -27.3442  -12.4746   17.8015 H   0  0  0  0  0  0
  -27.5989  -14.2483   19.4245 H   0  0  0  0  0  0
  -28.7129  -12.2540   21.4627 H   0  0  0  0  0  0
  -28.4531  -13.9741   21.7164 H   0  0  0  0  0  0
  -25.2758   -9.5624   22.4763 H   0  0  0  0  0  0
  -23.9967   -7.4597   22.7467 H   0  0  0  0  0  0
  -21.0783   -8.8806   19.9002 H   0  0  0  0  0  0
  -22.3668  -10.9692   19.6226 H   0  0  0  0  0  0
  -21.2059   -7.6148   23.9745 H   0  0  0  0  0  0
  -21.1519   -6.0520   25.9095 H   0  0  0  0  0  0
  -22.0559   -2.7601   23.2876 H   0  0  0  0  0  0
  -22.4040  -11.9985   22.4984 H   0  0  0  0  0  0
  -21.1053  -13.1394   22.2647 H   0  0  0  0  0  0
  -24.6289  -15.8350   20.5418 H   0  0  0  0  0  0
  -26.2393  -15.6470   20.0831 H   0  0  0  0  0  0
  -26.7224  -32.5434   23.1133 H   0  0  0  0  0  0
  -25.0273  -33.9759   25.0583 H   0  0  0  0  0  0
  -22.7232  -31.3208   21.4116 H   0  0  0  0  0  0
  -23.3762  -35.9582   23.3284 H   0  0  0  0  0  0
  -24.3569  -36.8904   22.2048 H   0  0  0  0  0  0
  -23.7197  -37.6458   23.6660 H   0  0  0  0  0  0
  -26.1212  -31.5409   20.6196 H   0  0  0  0  0  0
  -26.8514  -30.8125   22.0196 H   0  0  0  0  0  0
  -28.1168  -28.9332   21.1792 H   0  0  0  0  0  0
  -25.9007  -25.9642   18.9358 H   0  0  0  0  0  0
  -23.9438  -27.3616   18.9828 H   0  0  0  0  0  0
  -23.7828  -30.6309   19.4163 H   0  0  0  0  0  0
  -22.7525  -29.2960   19.8399 H   0  0  0  0  0  0
  -25.1271  -36.1932   25.0829 H   0  0  0  0  0  0
  -21.0037  -28.3318   24.1338 H   0  0  0  0  0  0
  -20.5660  -26.2358   23.3600 H   0  0  0  0  0  0
  -21.6671  -26.7437   22.1209 H   0  0  0  0  0  0
  -19.6941  -25.6292   21.1238 H   0  0  0  0  0  0
  -19.6708  -27.3174   20.6698 H   0  0  0  0  0  0
  -17.4220  -26.6693   21.3988 H   0  0  0  0  0  0
  -18.0359  -26.0063   22.8988 H   0  0  0  0  0  0
  -19.7951  -30.7245   24.2329 H   0  0  0  0  0  0
  -17.5032  -31.6260   24.5161 H   0  0  0  0  0  0
  -15.5376  -30.2991   23.7623 H   0  0  0  0  0  0
  -15.8701  -28.0805   22.7086 H   0  0  0  0  0  0
  -24.5954  -30.7101   25.7826 H   0  0  0  0  0  0
  -24.9038  -32.2876   26.5011 H   0  0  0  0  0  0
  -25.8140  -30.8828   27.0244 H   0  0  0  0  0  0
  -26.3005  -29.6741   24.1313 H   0  0  0  0  0  0
  -27.4179  -29.7326   25.4739 H   0  0  0  0  0  0
  -27.8851  -30.4338   23.9453 H   0  0  0  0  0  0
  -27.2739  -33.3640   26.2140 H   0  0  0  0  0  0
  -28.3905  -32.6950   25.0341 H   0  0  0  0  0  0
  -28.0837  -31.8481   26.5418 H   0  0  0  0  0  0
  -28.2594  -38.0086   24.7536 H   0  0  0  0  0  0
  -28.1071  -36.2624   24.6257 H   0  0  0  0  0  0
  -27.2307  -37.1400   25.8871 H   0  0  0  0  0  0
  -20.9378  -29.8864   21.6883 H   0  0  0  0  0  0
  -26.0153  -38.2850   24.1465 H   0  0  0  0  0  0
  -32.4943  -19.9317   18.5969 H   0  0  0  0  0  0
  -28.2278  -19.6052   21.0527 H   0  0  0  0  0  0
  -32.4477  -17.0478   19.2990 H   0  0  0  0  0  0
  -32.0041  -17.6732   17.7232 H   0  0  0  0  0  0
  -28.2920  -16.9350   20.3035 H   0  0  0  0  0  0
  -29.4609  -16.8523   21.5932 H   0  0  0  0  0  0
  -30.9816  -15.4520   17.9452 H   0  0  0  0  0  0
  -29.7192  -16.6420   17.9120 H   0  0  0  0  0  0
  -32.7644  -22.1443   19.0980 H   0  0  0  0  0  0
  -31.7737  -22.9490   20.2775 H   0  0  0  0  0  0
  -31.3111  -22.9390   18.5545 H   0  0  0  0  0  0
  -28.6444  -22.2701   21.6713 H   0  0  0  0  0  0
  -27.7962  -22.0847   20.1823 H   0  0  0  0  0  0
  -29.4587  -23.8351   19.1409 H   0  0  0  0  0  0
  -29.9902  -24.1603   20.7767 H   0  0  0  0  0  0
  -27.4999  -24.7989   21.2538 H   0  0  0  0  0  0
  -27.2802  -24.6102   19.5436 H   0  0  0  0  0  0
  1 25  1  0  0  0
  1 30  2  0  0  0
  1 84  1  0  0  0
  2  3  1  0  0  0
  2 25  1  0  0  0
  2 85  1  0  0  0
  2 86  1  0  0  0
  3  4  1  0  0  0
  3 87  1  0  0  0
  3 88  1  0  0  0
  4  5  1  0  0  0
  4 89  1  0  0  0
  4 90  1  0  0  0
  5  6  1  0  0  0
  5 26  1  0  0  0
  5 91  1  0  0  0
  6 25  1  0  0  0
  6 92  1  0  0  0
  6 93  1  0  0  0
  7  8  2  0  0  0
  7 26  1  0  0  0
  7 29  1  0  0  0
  8  9  1  0  0  0
  8 22  1  0  0  0
  9 10  1  0  0  0
  9 27  2  0  0  0
 10 11  2  0  0  0
 10 15  1  0  0  0
 11 12  1  0  0  0
 11 94  1  0  0  0
 12 13  2  0  0  0
 12 95  1  0  0  0
 13 14  1  0  0  0
 13 31  1  0  0  0
 14 15  2  0  0  0
 14 96  1  0  0  0
 15 97  1  0  0  0
 16 17  2  0  0  0
 16 21  1  0  0  0
 16 31  1  0  0  0
 17 18  1  0  0  0
 17 98  1  0  0  0
 18 19  2  0  0  0
 18 99  1  0  0  0
 19 20  1  0  0  0
 19 24  1  0  0  0
 20 21  2  0  0  0
 20100  1  0  0  0
 21 23  1  0  0  0
 22 28  1  0  0  0
 22 32  2  0  0  0
 26 27  1  0  0  0
 28101  1  0  0  0
 28102  1  0  0  0
 29103  1  0  0  0
 29104  1  0  0  0
 33 34  1  0  0  0
 33 66  1  0  0  0
 33 70  2  0  0  0
 34 36  1  0  0  0
 34 59  1  0  0  0
 34105  1  0  0  0
 35 44  2  0  0  0
 35 45  1  0  0  0
 35 68  1  0  0  0
 36 56  1  0  0  0
 36106  1  0  0  0
 37 39  1  0  0  0
 37 47  1  0  0  0
 37 66  1  0  0  0
 37107  1  0  0  0
 38 43  2  0  0  0
 38 46  1  0  0  0
 38 47  1  0  0  0
 39 64  1  0  0  0
 39 67  2  0  0  0
 40 52  1  0  0  0
 40 53  2  0  0  0
 40 58  1  0  0  0
 41108  1  0  0  0
 41109  1  0  0  0
 41110  1  0  0  0
 41 48  1  0  0  0
 42 43  1  0  0  0
 42 66  1  0  0  0
 42111  1  0  0  0
 42112  1  0  0  0
 43 44  1  0  0  0
 44113  1  0  0  0
 45 46  2  0  0  0
 45114  1  0  0  0
 46115  1  0  0  0
 47116  1  0  0  0
 47117  1  0  0  0
 48 56  1  0  0  0
 48 65  1  0  0  0
 48118  1  0  0  0
 49 50  1  0  0  0
 49 53  1  0  0  0
 49 64  1  0  0  0
 49119  1  0  0  0
 50 51  1  0  0  0
 50120  1  0  0  0
 50121  1  0  0  0
 51 52  1  0  0  0
 51122  1  0  0  0
 51123  1  0  0  0
 52124  1  0  0  0
 52125  1  0  0  0
 53 54  1  0  0  0
 54 55  2  0  0  0
 54126  1  0  0  0
 55 57  1  0  0  0
 55127  1  0  0  0
 56 69  2  0  0  0
 57 58  2  0  0  0
 57128  1  0  0  0
 58129  1  0  0  0
 59 60  1  0  0  0
 59 61  1  0  0  0
 59 62  1  0  0  0
 60130  1  0  0  0
 60131  1  0  0  0
 60132  1  0  0  0
 61133  1  0  0  0
 61134  1  0  0  0
 61135  1  0  0  0
 62136  1  0  0  0
 62137  1  0  0  0
 62138  1  0  0  0
 63 65  1  0  0  0
 63139  1  0  0  0
 63140  1  0  0  0
 63141  1  0  0  0
 64142  1  0  0  0
 65143  1  0  0  0
 68 83  1  0  0  0
 71 73  2  0  0  0
 71 75  1  0  0  0
 71144  1  0  0  0
 72 74  2  0  0  0
 72 76  1  0  0  0
 72145  1  0  0  0
 73 74  1  0  0  0
 73 77  1  0  0  0
 74 78  1  0  0  0
 75 76  2  0  0  0
 75 80  1  0  0  0
 76 81  1  0  0  0
 77 79  1  0  0  0
 77146  1  0  0  0
 77147  1  0  0  0
 78 84  1  0  0  0
 78148  1  0  0  0
 78149  1  0  0  0
 79 84  1  0  0  0
 79150  1  0  0  0
 79151  1  0  0  0
 80152  1  0  0  0
 80153  1  0  0  0
 80154  1  0  0  0
 81 82  1  0  0  0
 81155  1  0  0  0
 81156  1  0  0  0
 82 83  1  0  0  0
 82157  1  0  0  0
 82158  1  0  0  0
 83159  1  0  0  0
 83160  1  0  0  0
M  ISO  4   1 100  68 101  83 101  84 100
M  END
> <chiral flag>
0

> <version>
0

> <s_m_source_file>
/data/baiqing/PycharmProjects/Reinvent-master-3.2/result/LINK_invent/BTK/process_docking_weight1_custom_sum_contain_oxygen_bond_distance_aromatic_linkinvent_7_9_3/rearranged_h_0171.sdf

> <i_m_source_file_index>
46

> <r_mmod_Potential_Energy-OPLS-2005>
327.830322265625

> <r_mmod_Stretch_Energy-OPLS-2005>
108.716941833496

> <r_mmod_Bend_Energy-OPLS-2005>
163.507110595703

> <r_mmod_Torsional_Energy-OPLS-2005>
313.155853271484

> <r_mmod_Improper_Torsional_Energy-OPLS-2005>
27.8901405334473

> <r_mmod_Van_der_Waal_Energy-OPLS-2005>
154.547073364258

> <r_mmod_Electrostatic_Energy-OPLS-2005>
-330.834411621094

> <r_mmod_Solvation_Energy-OPLS-2005>
-197.279220581055

> <b_mmod_Minimization_Converged-OPLS-2005>
0

> <r_mmod_RMS_Derivative-OPLS-2005>
5.03948736190796

$$$$
46
                    3D
 Structure written by MMmdl.
166176  0  0  1  0            999 V2000
  -30.5374  -14.9599   20.4082 C   0  0  0  0  0  0
  -30.4423  -12.5910   19.5082 C   0  0  0  0  0  0
  -29.5224  -12.5284   18.2655 C   0  0  0  0  0  0
  -28.0579  -12.3073   18.6866 C   0  0  0  0  0  0
  -27.6318  -13.2478   19.8442 C   0  0  2  0  0  0
  -28.6734  -13.2842   20.9836 C   0  0  0  0  0  0
  -25.2470  -13.8218   20.5732 C   0  0  0  0  0  0
  -24.1774  -13.0447   20.9224 C   0  0  0  0  0  0
  -24.6392  -11.6928   20.8763 C   0  0  0  0  0  0
  -23.9079  -10.4301   21.0413 C   0  0  0  0  0  0
  -24.3626   -9.4211   21.9191 C   0  0  0  0  0  0
  -23.6297   -8.2252   22.0758 C   0  0  0  0  0  0
  -22.4284   -8.0292   21.3544 C   0  0  0  0  0  0
  -21.9921   -9.0270   20.4648 C   0  0  0  0  0  0
  -22.7254  -10.2147   20.3061 C   0  0  0  0  0  0
  -21.6854   -6.0745   22.5280 C   0  0  0  0  0  0
  -21.4016   -6.5643   23.8219 C   0  0  0  0  0  0
  -21.3656   -5.6794   24.9177 C   0  0  0  0  0  0
  -21.6045   -4.3059   24.7224 C   0  0  0  0  0  0
  -21.8817   -3.8152   23.4343 C   0  0  0  0  0  0
  -21.9194   -4.6970   22.3402 C   0  0  0  0  0  0
  -22.7799  -13.5220   21.1880 C   0  0  0  0  0  0
  -22.1662   -4.2154   21.0978 F   0  0  0  0  0  0
  -21.5625   -3.4542   25.7735 F   0  0  0  0  0  0
  -29.9519  -13.6924   20.3872 N   0  0  0  0  0  0
  -26.2902  -12.9456   20.3301 N   0  0  0  0  0  0
  -25.9327  -11.6580   20.5772 N   0  0  0  0  0  0
  -22.0447  -12.8213   22.0437 N   0  0  0  0  0  0
  -25.4138  -15.1947   20.4154 N   0  0  0  0  0  0
  -31.7333  -15.0324   20.1081 O   0  0  0  0  0  0
  -21.6644   -6.8890   21.4247 O   0  0  0  0  0  0
  -22.3481  -14.5527   20.6730 O   0  0  0  0  0  0
  -24.6463  -31.8432   23.1868 C   0  0  0  0  0  0
  -25.9232  -32.4687   23.8264 C   0  0  1  0  0  0
  -27.2152  -27.1120   20.1529 C   0  0  0  0  0  0
  -25.5968  -33.8490   24.2178 N   0  0  0  0  0  0
  -23.4500  -30.4615   21.5326 C   0  0  2  0  0  0
  -24.8988  -28.8822   20.1145 C   0  0  0  0  0  0
  -22.7591  -29.4525   22.4840 C   0  0  0  0  0  0
  -18.0306  -28.1379   22.8463 C   0  0  0  0  0  0
  -24.1492  -36.7245   23.2641 C   0  0  0  0  0  0
  -26.0078  -30.7060   21.3916 C   0  0  0  0  0  0
  -26.0780  -29.3146   20.7350 C   0  0  0  0  0  0
  -27.2373  -28.4473   20.7343 C   0  0  0  0  0  0
  -26.0093  -26.7900   19.4898 C   0  0  0  0  0  0
  -24.8784  -27.6342   19.4775 C   0  0  0  0  0  0
  -23.6788  -29.7887   20.1535 C   0  0  0  0  0  0
  -25.4124  -36.3020   24.0309 C   0  0  1  0  0  0
  -20.5916  -28.3713   23.1195 C   0  0  2  0  0  0
  -20.6785  -26.9408   22.5383 C   0  0  0  0  0  0
  -19.5762  -26.6365   21.5183 C   0  0  0  0  0  0
  -18.1949  -26.7915   22.1605 C   0  0  0  0  0  0
  -19.1565  -28.8862   23.2825 C   0  0  0  0  0  0
  -18.9484  -30.1448   23.8862 C   0  0  0  0  0  0
  -17.6482  -30.6578   24.0541 C   0  0  0  0  0  0
  -25.9081  -34.9403   23.5054 C   0  0  0  0  0  0
  -16.5371  -29.9070   23.6335 C   0  0  0  0  0  0
  -16.7293  -28.6485   23.0358 C   0  0  0  0  0  0
  -26.4550  -31.6567   25.0725 C   0  0  0  0  0  0
  -25.3730  -31.3741   26.1418 C   0  0  0  0  0  0
  -27.0422  -30.2957   24.6343 C   0  0  0  0  0  0
  -27.6078  -32.4344   25.7508 C   0  0  0  0  0  0
  -27.5572  -37.1772   24.8464 C   0  0  0  0  0  0
  -21.4275  -29.3040   22.3581 N   0  0  0  0  0  0
  -26.4277  -37.3740   23.9418 N   0  0  0  0  0  0
  -24.7210  -31.0259   22.0916 N   0  0  0  0  0  0
  -23.4228  -28.8071   23.2994 O   0  0  0  0  0  0
  -28.2706  -26.1207   20.1884 O   0  0  0  0  0  0
  -26.5666  -34.8907   22.4632 O   0  0  0  0  0  0
  -23.5580  -32.1318   23.7078 O   0  0  0  0  0  0
  -27.0558  -19.7353   22.8234 C   0  0  0  0  0  0
  -27.8335  -20.6716   22.1259 C   0  0  0  0  0  0
  -28.7022  -20.2780   21.0598 C   0  0  0  0  0  0
  -27.1895  -18.3828   22.5524 C   0  0  0  0  0  0
  -28.8990  -18.7599   20.9818 C   0  0  0  0  0  0
  -28.9431  -22.7809   23.2228 C   0  0  0  0  0  0
  -27.8080  -22.3695   24.1187 C   0  0  0  0  0  0
  -28.5239  -22.2266   19.1309 C   0  0  0  0  0  0
  -27.7328  -22.0774   22.6322 C   0  0  0  0  0  0
  -29.2899  -21.5882   20.2471 C   0  0  1  0  0  0
  -29.0640  -23.2958   20.0778 C   0  0  1  0  0  0
  -26.3732  -17.3437   23.2915 C   0  0  0  0  0  0
  -30.3681  -24.0070   19.7699 C   0  0  0  0  0  0
  -29.9403  -17.6936   20.3059 C   0  0  0  0  0  0
  -27.9985  -24.5787   20.3454 C   0  0  0  0  0  0
  -28.0942  -17.9286   21.6857 N   0  0  0  0  0  0
  -29.7487  -16.1307   20.5524 N   0  0  0  0  0  0
  -31.4755  -12.7472   19.1932 H   0  0  0  0  0  0
  -30.4368  -11.6413   20.0451 H   0  0  0  0  0  0
  -29.8449  -11.7311   17.5942 H   0  0  0  0  0  0
  -29.6035  -13.4584   17.7009 H   0  0  0  0  0  0
  -27.9639  -11.2688   19.0059 H   0  0  0  0  0  0
  -27.3914  -12.4253   17.8316 H   0  0  0  0  0  0
  -27.5942  -14.2472   19.4098 H   0  0  0  0  0  0
  -28.7588  -12.3132   21.4725 H   0  0  0  0  0  0
  -28.3705  -13.9942   21.7549 H   0  0  0  0  0  0
  -25.2768   -9.5691   22.4772 H   0  0  0  0  0  0
  -24.0006   -7.4641   22.7473 H   0  0  0  0  0  0
  -21.0858   -8.8792   19.8949 H   0  0  0  0  0  0
  -22.3712  -10.9692   19.6176 H   0  0  0  0  0  0
  -21.2012   -7.6152   23.9721 H   0  0  0  0  0  0
  -21.1477   -6.0524   25.9079 H   0  0  0  0  0  0
  -22.0598   -2.7616   23.2844 H   0  0  0  0  0  0
  -22.4069  -11.9870   22.4820 H   0  0  0  0  0  0
  -21.1069  -13.1238   22.2643 H   0  0  0  0  0  0
  -24.6433  -15.8449   20.5228 H   0  0  0  0  0  0
  -26.2725  -15.6471   20.1305 H   0  0  0  0  0  0
  -26.7291  -32.5285   23.0977 H   0  0  0  0  0  0
  -25.0077  -33.9585   25.0302 H   0  0  0  0  0  0
  -22.7545  -31.2889   21.3751 H   0  0  0  0  0  0
  -23.3769  -35.9557   23.3283 H   0  0  0  0  0  0
  -24.3560  -36.8930   22.2062 H   0  0  0  0  0  0
  -23.7253  -37.6433   23.6701 H   0  0  0  0  0  0
  -26.1659  -31.4582   20.6167 H   0  0  0  0  0  0
  -26.8778  -30.7536   22.0348 H   0  0  0  0  0  0
  -28.1370  -28.7764   21.2355 H   0  0  0  0  0  0
  -25.9093  -25.8498   18.9713 H   0  0  0  0  0  0
  -23.9797  -27.3034   18.9752 H   0  0  0  0  0  0
  -23.8252  -30.5635   19.3997 H   0  0  0  0  0  0
  -22.7936  -29.2342   19.8363 H   0  0  0  0  0  0
  -25.1306  -36.1824   25.0798 H   0  0  0  0  0  0
  -20.9993  -28.3320   24.1320 H   0  0  0  0  0  0
  -20.5648  -26.2342   23.3622 H   0  0  0  0  0  0
  -21.6657  -26.7400   22.1197 H   0  0  0  0  0  0
  -19.6923  -25.6266   21.1242 H   0  0  0  0  0  0
  -19.6693  -27.3157   20.6699 H   0  0  0  0  0  0
  -17.4215  -26.6645   21.4020 H   0  0  0  0  0  0
  -18.0357  -26.0047   22.8998 H   0  0  0  0  0  0
  -19.7965  -30.7250   24.2244 H   0  0  0  0  0  0
  -17.5052  -31.6263   24.5141 H   0  0  0  0  0  0
  -15.5372  -30.2966   23.7670 H   0  0  0  0  0  0
  -15.8698  -28.0794   22.7092 H   0  0  0  0  0  0
  -24.5912  -30.7088   25.7734 H   0  0  0  0  0  0
  -24.8905  -32.2913   26.4796 H   0  0  0  0  0  0
  -25.8010  -30.8951   27.0235 H   0  0  0  0  0  0
  -26.3041  -29.6664   24.1362 H   0  0  0  0  0  0
  -27.4028  -29.7272   25.4929 H   0  0  0  0  0  0
  -27.8960  -30.4185   23.9676 H   0  0  0  0  0  0
  -27.2673  -33.3681   26.1991 H   0  0  0  0  0  0
  -28.3929  -32.6861   25.0364 H   0  0  0  0  0  0
  -28.0700  -31.8547   26.5509 H   0  0  0  0  0  0
  -28.2563  -38.0094   24.7528 H   0  0  0  0  0  0
  -28.1095  -36.2621   24.6257 H   0  0  0  0  0  0
  -27.2284  -37.1389   25.8866 H   0  0  0  0  0  0
  -20.9499  -29.8790   21.6778 H   0  0  0  0  0  0
  -26.0142  -38.2796   24.1459 H   0  0  0  0  0  0
  -26.3696  -20.0569   23.5952 H   0  0  0  0  0  0
  -29.8670  -22.2094   23.2907 H   0  0  0  0  0  0
  -29.0692  -23.8492   23.0644 H   0  0  0  0  0  0
  -27.1821  -23.1678   24.5116 H   0  0  0  0  0  0
  -28.0050  -21.5469   24.8029 H   0  0  0  0  0  0
  -27.4474  -22.0687   19.1435 H   0  0  0  0  0  0
  -28.9572  -22.1820   18.1339 H   0  0  0  0  0  0
  -26.9688  -22.6224   22.0861 H   0  0  0  0  0  0
  -30.3003  -21.2727   19.9935 H   0  0  0  0  0  0
  -26.0579  -17.7168   24.2663 H   0  0  0  0  0  0
  -26.9484  -16.4313   23.4546 H   0  0  0  0  0  0
  -25.4838  -17.0867   22.7170 H   0  0  0  0  0  0
  -31.1439  -23.3072   19.4604 H   0  0  0  0  0  0
  -30.7191  -24.5447   20.6502 H   0  0  0  0  0  0
  -30.2262  -24.7255   18.9615 H   0  0  0  0  0  0
  -30.9446  -17.9632   20.6331 H   0  0  0  0  0  0
  -29.9265  -17.8632   19.2293 H   0  0  0  0  0  0
  -27.6489  -24.5056   21.3703 H   0  0  0  0  0  0
  -27.1174  -24.3392   19.7582 H   0  0  0  0  0  0
  -28.8031  -15.9526   20.8592 H   0  0  0  0  0  0
  1 25  1  0  0  0
  1 30  2  0  0  0
  1 87  1  0  0  0
  2  3  1  0  0  0
  2 25  1  0  0  0
  2 88  1  0  0  0
  2 89  1  0  0  0
  3  4  1  0  0  0
  3 90  1  0  0  0
  3 91  1  0  0  0
  4  5  1  0  0  0
  4 92  1  0  0  0
  4 93  1  0  0  0
  5  6  1  0  0  0
  5 26  1  0  0  0
  5 94  1  0  0  0
  6 25  1  0  0  0
  6 95  1  0  0  0
  6 96  1  0  0  0
  7  8  2  0  0  0
  7 26  1  0  0  0
  7 29  1  0  0  0
  8  9  1  0  0  0
  8 22  1  0  0  0
  9 10  1  0  0  0
  9 27  2  0  0  0
 10 11  2  0  0  0
 10 15  1  0  0  0
 11 12  1  0  0  0
 11 97  1  0  0  0
 12 13  2  0  0  0
 12 98  1  0  0  0
 13 14  1  0  0  0
 13 31  1  0  0  0
 14 15  2  0  0  0
 14 99  1  0  0  0
 15100  1  0  0  0
 16 17  2  0  0  0
 16 21  1  0  0  0
 16 31  1  0  0  0
 17 18  1  0  0  0
 17101  1  0  0  0
 18 19  2  0  0  0
 18102  1  0  0  0
 19 20  1  0  0  0
 19 24  1  0  0  0
 20 21  2  0  0  0
 20103  1  0  0  0
 21 23  1  0  0  0
 22 28  1  0  0  0
 22 32  2  0  0  0
 26 27  1  0  0  0
 28104  1  0  0  0
 28105  1  0  0  0
 29106  1  0  0  0
 29107  1  0  0  0
 33 34  1  0  0  0
 33 66  1  0  0  0
 33 70  2  0  0  0
 34 36  1  0  0  0
 34 59  1  0  0  0
 34108  1  0  0  0
 35 44  2  0  0  0
 35 45  1  0  0  0
 35 68  1  0  0  0
 36 56  1  0  0  0
 36109  1  0  0  0
 37 39  1  0  0  0
 37 47  1  0  0  0
 37 66  1  0  0  0
 37110  1  0  0  0
 38 43  2  0  0  0
 38 46  1  0  0  0
 38 47  1  0  0  0
 39 64  1  0  0  0
 39 67  2  0  0  0
 40 52  1  0  0  0
 40 53  2  0  0  0
 40 58  1  0  0  0
 41111  1  0  0  0
 41112  1  0  0  0
 41113  1  0  0  0
 41 48  1  0  0  0
 42 43  1  0  0  0
 42 66  1  0  0  0
 42114  1  0  0  0
 42115  1  0  0  0
 43 44  1  0  0  0
 44116  1  0  0  0
 45 46  2  0  0  0
 45117  1  0  0  0
 46118  1  0  0  0
 47119  1  0  0  0
 47120  1  0  0  0
 48 56  1  0  0  0
 48 65  1  0  0  0
 48121  1  0  0  0
 49 50  1  0  0  0
 49 53  1  0  0  0
 49 64  1  0  0  0
 49122  1  0  0  0
 50 51  1  0  0  0
 50123  1  0  0  0
 50124  1  0  0  0
 51 52  1  0  0  0
 51125  1  0  0  0
 51126  1  0  0  0
 52127  1  0  0  0
 52128  1  0  0  0
 53 54  1  0  0  0
 54 55  2  0  0  0
 54129  1  0  0  0
 55 57  1  0  0  0
 55130  1  0  0  0
 56 69  2  0  0  0
 57 58  2  0  0  0
 57131  1  0  0  0
 58132  1  0  0  0
 59 60  1  0  0  0
 59 61  1  0  0  0
 59 62  1  0  0  0
 60133  1  0  0  0
 60134  1  0  0  0
 60135  1  0  0  0
 61136  1  0  0  0
 61137  1  0  0  0
 61138  1  0  0  0
 62139  1  0  0  0
 62140  1  0  0  0
 62141  1  0  0  0
 63 65  1  0  0  0
 63142  1  0  0  0
 63143  1  0  0  0
 63144  1  0  0  0
 64145  1  0  0  0
 65146  1  0  0  0
 68 85  1  0  0  0
 71 72  2  0  0  0
 71 74  1  0  0  0
 71147  1  0  0  0
 72 73  1  0  0  0
 72 79  1  0  0  0
 73 75  2  0  0  0
 73 80  1  0  0  0
 74 82  1  0  0  0
 74 86  2  0  0  0
 75 84  1  0  0  0
 75 86  1  0  0  0
 76 77  1  0  0  0
 76 79  1  0  0  0
 76148  1  0  0  0
 76149  1  0  0  0
 77 79  1  0  0  0
 77150  1  0  0  0
 77151  1  0  0  0
 78 80  1  0  0  0
 78 81  1  0  0  0
 78152  1  0  0  0
 78153  1  0  0  0
 79154  1  0  0  0
 80 81  1  0  0  0
 80155  1  0  0  0
 81 83  1  0  0  0
 81 85  1  0  0  0
 82156  1  0  0  0
 82157  1  0  0  0
 82158  1  0  0  0
 83159  1  0  0  0
 83160  1  0  0  0
 83161  1  0  0  0
 84 87  1  0  0  0
 84162  1  0  0  0
 84163  1  0  0  0
 85164  1  0  0  0
 85165  1  0  0  0
 87166  1  0  0  0
M  ISO  4   1 100  68 101  85 101  87 100
M  END
> <chiral flag>
0

> <version>
0

> <s_m_source_file>
/data/baiqing/PycharmProjects/Reinvent-master-3.2/result/LINK_invent/BTK/process_docking_weight1_custom_sum_contain_oxygen_bond_distance_aromatic_linkinvent_7_9_3/rearranged_h_0171.sdf

> <i_m_source_file_index>
47

> <r_mmod_Potential_Energy-OPLS-2005>
470.241638183594

> <r_mmod_Stretch_Energy-OPLS-2005>
325.252655029297

> <r_mmod_Bend_Energy-OPLS-2005>
367.328643798828

> <r_mmod_Torsional_Energy-OPLS-2005>
296.173034667969

> <r_mmod_Improper_Torsional_Energy-OPLS-2005>
4.81167936325073

> <r_mmod_Van_der_Waal_Energy-OPLS-2005>
136.222717285156

> <r_mmod_Electrostatic_Energy-OPLS-2005>
-659.845520019531

> <r_mmod_Solvation_Energy-OPLS-2005>
-204.616882324219

> <b_mmod_Minimization_Converged-OPLS-2005>
0

> <r_mmod_RMS_Derivative-OPLS-2005>
1.88780415058136

$$$$
47
                    3D
 Structure written by MMmdl.
169178  0  0  1  0            999 V2000
  -30.5536  -14.9612   20.3433 C   0  0  0  0  0  0
  -30.4118  -12.5772   19.4848 C   0  0  0  0  0  0
  -29.5152  -12.5227   18.2283 C   0  0  0  0  0  0
  -28.0364  -12.3328   18.6208 C   0  0  0  0  0  0
  -27.6117  -13.2477   19.8029 C   0  0  2  0  0  0
  -28.6586  -13.2890   20.9330 C   0  0  0  0  0  0
  -25.2386  -13.8195   20.5599 C   0  0  0  0  0  0
  -24.1716  -13.0497   20.9102 C   0  0  0  0  0  0
  -24.6283  -11.6937   20.8591 C   0  0  0  0  0  0
  -23.8935  -10.4334   21.0300 C   0  0  0  0  0  0
  -24.3520   -9.4272   21.9093 C   0  0  0  0  0  0
  -23.6256   -8.2296   22.0726 C   0  0  0  0  0  0
  -22.4258   -8.0248   21.3508 C   0  0  0  0  0  0
  -21.9821   -9.0185   20.4609 C   0  0  0  0  0  0
  -22.7091  -10.2091   20.2976 C   0  0  0  0  0  0
  -21.6921   -6.0662   22.5190 C   0  0  0  0  0  0
  -21.4055   -6.5566   23.8104 C   0  0  0  0  0  0
  -21.3694   -5.6724   24.9070 C   0  0  0  0  0  0
  -21.6076   -4.2984   24.7125 C   0  0  0  0  0  0
  -21.8868   -3.8068   23.4247 C   0  0  0  0  0  0
  -21.9238   -4.6893   22.3301 C   0  0  0  0  0  0
  -22.7737  -13.5226   21.1808 C   0  0  0  0  0  0
  -22.1720   -4.2065   21.0898 F   0  0  0  0  0  0
  -21.5645   -3.4493   25.7654 F   0  0  0  0  0  0
  -29.9200  -13.7153   20.3126 N   0  0  0  0  0  0
  -26.2770  -12.9430   20.2998 N   0  0  0  0  0  0
  -25.9200  -11.6559   20.5490 N   0  0  0  0  0  0
  -22.0414  -12.8249   22.0366 N   0  0  0  0  0  0
  -25.4169  -15.1933   20.4150 N   0  0  0  0  0  0
  -31.7837  -14.9334   20.2032 O   0  0  0  0  0  0
  -21.6726   -6.8786   21.4147 O   0  0  0  0  0  0
  -22.3389  -14.5528   20.6618 O   0  0  0  0  0  0
  -24.6316  -31.8466   23.1930 C   0  0  0  0  0  0
  -25.9130  -32.4658   23.8242 C   0  0  1  0  0  0
  -27.2113  -27.2083   20.0733 C   0  0  0  0  0  0
  -25.5940  -33.8471   24.2170 N   0  0  0  0  0  0
  -23.4193  -30.4749   21.5382 C   0  0  2  0  0  0
  -24.8607  -28.9180   20.0956 C   0  0  0  0  0  0
  -22.7452  -29.4561   22.4849 C   0  0  0  0  0  0
  -18.0274  -28.1350   22.8465 C   0  0  0  0  0  0
  -24.1489  -36.7254   23.2640 C   0  0  0  0  0  0
  -25.9756  -30.7437   21.3723 C   0  0  0  0  0  0
  -26.0395  -29.3664   20.6987 C   0  0  0  0  0  0
  -27.2124  -28.5303   20.6648 C   0  0  0  0  0  0
  -25.9954  -26.8431   19.4628 C   0  0  0  0  0  0
  -24.8499  -27.6678   19.4602 C   0  0  0  0  0  0
  -23.6240  -29.8076   20.1524 C   0  0  0  0  0  0
  -25.4111  -36.2997   24.0328 C   0  0  1  0  0  0
  -20.5876  -28.3654   23.1270 C   0  0  2  0  0  0
  -20.6764  -26.9365   22.5421 C   0  0  0  0  0  0
  -19.5756  -26.6345   21.5188 C   0  0  0  0  0  0
  -18.1927  -26.7896   22.1576 C   0  0  0  0  0  0
  -19.1530  -28.8809   23.2859 C   0  0  0  0  0  0
  -18.9465  -30.1416   23.8862 C   0  0  0  0  0  0
  -17.6480  -30.6578   24.0530 C   0  0  0  0  0  0
  -25.9077  -34.9376   23.5070 C   0  0  0  0  0  0
  -16.5364  -29.9078   23.6332 C   0  0  0  0  0  0
  -16.7262  -28.6480   23.0368 C   0  0  0  0  0  0
  -26.4515  -31.6523   25.0660 C   0  0  0  0  0  0
  -25.3768  -31.3704   26.1401 C   0  0  0  0  0  0
  -27.0400  -30.2915   24.6252 C   0  0  0  0  0  0
  -27.6027  -32.4297   25.7465 C   0  0  0  0  0  0
  -27.5572  -37.1772   24.8461 C   0  0  0  0  0  0
  -21.4138  -29.3047   22.3677 N   0  0  0  0  0  0
  -26.4260  -37.3718   23.9433 N   0  0  0  0  0  0
  -24.6951  -31.0434   22.0887 N   0  0  0  0  0  0
  -23.4183  -28.8112   23.2910 O   0  0  0  0  0  0
  -28.3162  -26.2892   20.1508 O   0  0  0  0  0  0
  -26.5667  -34.8900   22.4656 O   0  0  0  0  0  0
  -23.5511  -32.1231   23.7378 O   0  0  0  0  0  0
  -26.4752  -21.4971   20.5062 C   0  0  0  0  0  0
  -27.8353  -23.5355   20.5839 C   0  0  0  0  0  0
  -27.7947  -22.0326   20.3217 C   0  0  0  0  0  0
  -25.5149  -22.2452   21.2178 C   0  0  0  0  0  0
  -26.9716  -23.9580   21.6285 C   0  0  0  0  0  0
  -28.6991  -18.3921   19.1573 C   0  0  0  0  0  0
  -30.2802  -18.9671   20.7683 C   0  0  0  0  0  0
  -28.7938  -16.7993   19.5321 C   0  0  0  0  0  0
  -30.4168  -17.4108   21.2316 C   0  0  0  0  0  0
  -28.9037  -19.5425   20.2548 C   0  0  0  0  0  0
  -25.9928  -20.2060   19.8468 C   0  0  0  0  0  0
  -24.0307  -21.9309   21.2239 C   0  0  0  0  0  0
  -27.1007  -25.2123   22.4698 C   0  0  0  0  0  0
  -28.0436  -24.7126   18.2375 C   0  0  0  0  0  0
  -28.4147  -24.7941   19.7283 C   0  0  1  0  0  0
  -25.8292  -23.3370   21.9092 N   0  0  0  0  0  0
  -29.8837  -16.2423   20.4227 N   0  0  0  0  0  0
  -28.8334  -21.0780   19.9011 O   0  0  0  0  0  0
  -31.4561  -12.6957   19.2066 H   0  0  0  0  0  0
  -30.3579  -11.6345   20.0322 H   0  0  0  0  0  0
  -29.8328  -11.7191   17.5572 H   0  0  0  0  0  0
  -29.6154  -13.4472   17.6606 H   0  0  0  0  0  0
  -27.8951  -11.2887   18.8898 H   0  0  0  0  0  0
  -27.3950  -12.5189   17.7561 H   0  0  0  0  0  0
  -27.5602  -14.2454   19.3735 H   0  0  0  0  0  0
  -28.7473  -12.3091   21.4106 H   0  0  0  0  0  0
  -28.3594  -13.9957   21.7058 H   0  0  0  0  0  0
  -25.2659   -9.5862   22.4625 H   0  0  0  0  0  0
  -24.0014   -7.4759   22.7494 H   0  0  0  0  0  0
  -21.0744   -8.8600   19.8942 H   0  0  0  0  0  0
  -22.3448  -10.9575   19.6058 H   0  0  0  0  0  0
  -21.2053   -7.6084   23.9521 H   0  0  0  0  0  0
  -21.1515   -6.0489   25.8952 H   0  0  0  0  0  0
  -22.0639   -2.7532   23.2748 H   0  0  0  0  0  0
  -22.4128  -11.9965   22.4821 H   0  0  0  0  0  0
  -21.0979  -13.1194   22.2508 H   0  0  0  0  0  0
  -24.6693  -15.8643   20.5266 H   0  0  0  0  0  0
  -26.2852  -15.6104   20.1193 H   0  0  0  0  0  0
  -26.7101  -32.5230   23.0883 H   0  0  0  0  0  0
  -25.0077  -33.9590   25.0312 H   0  0  0  0  0  0
  -22.7067  -31.2987   21.4061 H   0  0  0  0  0  0
  -23.3761  -35.9577   23.3255 H   0  0  0  0  0  0
  -24.3544  -36.8937   22.2056 H   0  0  0  0  0  0
  -23.7274  -37.6453   23.6709 H   0  0  0  0  0  0
  -26.1477  -31.5123   20.6196 H   0  0  0  0  0  0
  -26.8439  -30.7584   22.0153 H   0  0  0  0  0  0
  -28.1218  -28.8983   21.1101 H   0  0  0  0  0  0
  -25.8744  -25.8972   18.9811 H   0  0  0  0  0  0
  -23.9548  -27.3114   18.9679 H   0  0  0  0  0  0
  -23.7347  -30.6002   19.4102 H   0  0  0  0  0  0
  -22.7310  -29.2537   19.8438 H   0  0  0  0  0  0
  -25.1310  -36.1773   25.0820 H   0  0  0  0  0  0
  -20.9945  -28.3225   24.1388 H   0  0  0  0  0  0
  -20.5619  -26.2249   23.3613 H   0  0  0  0  0  0
  -21.6641  -26.7385   22.1236 H   0  0  0  0  0  0
  -19.6942  -25.6245   21.1236 H   0  0  0  0  0  0
  -19.6748  -27.3131   20.6693 H   0  0  0  0  0  0
  -17.4213  -26.6625   21.3973 H   0  0  0  0  0  0
  -18.0349  -26.0040   22.8965 H   0  0  0  0  0  0
  -19.7967  -30.7226   24.2205 H   0  0  0  0  0  0
  -17.5071  -31.6269   24.5128 H   0  0  0  0  0  0
  -15.5373  -30.3000   23.7701 H   0  0  0  0  0  0
  -15.8626  -28.0803   22.7141 H   0  0  0  0  0  0
  -24.5961  -30.6994   25.7782 H   0  0  0  0  0  0
  -24.8982  -32.2909   26.4741 H   0  0  0  0  0  0
  -25.8128  -30.8963   27.0204 H   0  0  0  0  0  0
  -26.3032  -29.6566   24.1303 H   0  0  0  0  0  0
  -27.4034  -29.7229   25.4825 H   0  0  0  0  0  0
  -27.8907  -30.4092   23.9528 H   0  0  0  0  0  0
  -27.2551  -33.3594   26.1963 H   0  0  0  0  0  0
  -28.3907  -32.6831   25.0364 H   0  0  0  0  0  0
  -28.0596  -31.8473   26.5466 H   0  0  0  0  0  0
  -28.2534  -38.0106   24.7524 H   0  0  0  0  0  0
  -28.1112  -36.2651   24.6242 H   0  0  0  0  0  0
  -27.2294  -37.1361   25.8852 H   0  0  0  0  0  0
  -20.9239  -29.8762   21.6937 H   0  0  0  0  0  0
  -26.0114  -38.2767   24.1481 H   0  0  0  0  0  0
  -27.7387  -18.5235   18.6624 H   0  0  0  0  0  0
  -29.4120  -18.5889   18.3555 H   0  0  0  0  0  0
  -31.0128  -19.1359   19.9752 H   0  0  0  0  0  0
  -30.6084  -19.5991   21.5957 H   0  0  0  0  0  0
  -28.8145  -16.2488   18.5840 H   0  0  0  0  0  0
  -27.8520  -16.5153   19.9956 H   0  0  0  0  0  0
  -29.9132  -17.3262   22.1956 H   0  0  0  0  0  0
  -31.4737  -17.2197   21.4361 H   0  0  0  0  0  0
  -28.2195  -19.3860   21.0813 H   0  0  0  0  0  0
  -24.9248  -20.2081   19.6572 H   0  0  0  0  0  0
  -26.1556  -19.3375   20.4809 H   0  0  0  0  0  0
  -26.4330  -20.0811   18.8616 H   0  0  0  0  0  0
  -23.8381  -20.9573   21.6707 H   0  0  0  0  0  0
  -23.6569  -21.9311   20.1957 H   0  0  0  0  0  0
  -23.4789  -22.6980   21.7703 H   0  0  0  0  0  0
  -26.2941  -25.9006   22.2253 H   0  0  0  0  0  0
  -28.0531  -25.7352   22.4142 H   0  0  0  0  0  0
  -26.9530  -24.9348   23.5084 H   0  0  0  0  0  0
  -28.3169  -25.6501   17.7459 H   0  0  0  0  0  0
  -26.9822  -24.5669   18.0509 H   0  0  0  0  0  0
  -28.5460  -23.8752   17.7503 H   0  0  0  0  0  0
  -29.4874  -24.6280   19.7738 H   0  0  0  0  0  0
  1 25  1  0  0  0
  1 30  2  0  0  0
  1 87  1  0  0  0
  2  3  1  0  0  0
  2 25  1  0  0  0
  2 89  1  0  0  0
  2 90  1  0  0  0
  3  4  1  0  0  0
  3 91  1  0  0  0
  3 92  1  0  0  0
  4  5  1  0  0  0
  4 93  1  0  0  0
  4 94  1  0  0  0
  5  6  1  0  0  0
  5 26  1  0  0  0
  5 95  1  0  0  0
  6 25  1  0  0  0
  6 96  1  0  0  0
  6 97  1  0  0  0
  7  8  2  0  0  0
  7 26  1  0  0  0
  7 29  1  0  0  0
  8  9  1  0  0  0
  8 22  1  0  0  0
  9 10  1  0  0  0
  9 27  2  0  0  0
 10 11  2  0  0  0
 10 15  1  0  0  0
 11 12  1  0  0  0
 11 98  1  0  0  0
 12 13  2  0  0  0
 12 99  1  0  0  0
 13 14  1  0  0  0
 13 31  1  0  0  0
 14 15  2  0  0  0
 14100  1  0  0  0
 15101  1  0  0  0
 16 17  2  0  0  0
 16 21  1  0  0  0
 16 31  1  0  0  0
 17 18  1  0  0  0
 17102  1  0  0  0
 18 19  2  0  0  0
 18103  1  0  0  0
 19 20  1  0  0  0
 19 24  1  0  0  0
 20 21  2  0  0  0
 20104  1  0  0  0
 21 23  1  0  0  0
 22 28  1  0  0  0
 22 32  2  0  0  0
 26 27  1  0  0  0
 28105  1  0  0  0
 28106  1  0  0  0
 29107  1  0  0  0
 29108  1  0  0  0
 33 34  1  0  0  0
 33 66  1  0  0  0
 33 70  2  0  0  0
 34 36  1  0  0  0
 34 59  1  0  0  0
 34109  1  0  0  0
 35 44  2  0  0  0
 35 45  1  0  0  0
 35 68  1  0  0  0
 36 56  1  0  0  0
 36110  1  0  0  0
 37 39  1  0  0  0
 37 47  1  0  0  0
 37 66  1  0  0  0
 37111  1  0  0  0
 38 43  2  0  0  0
 38 46  1  0  0  0
 38 47  1  0  0  0
 39 64  1  0  0  0
 39 67  2  0  0  0
 40 52  1  0  0  0
 40 53  2  0  0  0
 40 58  1  0  0  0
 41112  1  0  0  0
 41113  1  0  0  0
 41114  1  0  0  0
 41 48  1  0  0  0
 42 43  1  0  0  0
 42 66  1  0  0  0
 42115  1  0  0  0
 42116  1  0  0  0
 43 44  1  0  0  0
 44117  1  0  0  0
 45 46  2  0  0  0
 45118  1  0  0  0
 46119  1  0  0  0
 47120  1  0  0  0
 47121  1  0  0  0
 48 56  1  0  0  0
 48 65  1  0  0  0
 48122  1  0  0  0
 49 50  1  0  0  0
 49 53  1  0  0  0
 49 64  1  0  0  0
 49123  1  0  0  0
 50 51  1  0  0  0
 50124  1  0  0  0
 50125  1  0  0  0
 51 52  1  0  0  0
 51126  1  0  0  0
 51127  1  0  0  0
 52128  1  0  0  0
 52129  1  0  0  0
 53 54  1  0  0  0
 54 55  2  0  0  0
 54130  1  0  0  0
 55 57  1  0  0  0
 55131  1  0  0  0
 56 69  2  0  0  0
 57 58  2  0  0  0
 57132  1  0  0  0
 58133  1  0  0  0
 59 60  1  0  0  0
 59 61  1  0  0  0
 59 62  1  0  0  0
 60134  1  0  0  0
 60135  1  0  0  0
 60136  1  0  0  0
 61137  1  0  0  0
 61138  1  0  0  0
 61139  1  0  0  0
 62140  1  0  0  0
 62141  1  0  0  0
 62142  1  0  0  0
 63 65  1  0  0  0
 63143  1  0  0  0
 63144  1  0  0  0
 63145  1  0  0  0
 64146  1  0  0  0
 65147  1  0  0  0
 68 85  1  0  0  0
 71 73  2  0  0  0
 71 74  1  0  0  0
 71 81  1  0  0  0
 72 73  1  0  0  0
 72 75  2  0  0  0
 72 85  1  0  0  0
 73 88  1  0  0  0
 74 82  1  0  0  0
 74 86  2  0  0  0
 75 83  1  0  0  0
 75 86  1  0  0  0
 76 78  1  0  0  0
 76 80  1  0  0  0
 76148  1  0  0  0
 76149  1  0  0  0
 77 79  1  0  0  0
 77 80  1  0  0  0
 77150  1  0  0  0
 77151  1  0  0  0
 78 87  1  0  0  0
 78152  1  0  0  0
 78153  1  0  0  0
 79 87  1  0  0  0
 79154  1  0  0  0
 79155  1  0  0  0
 80 88  1  0  0  0
 80156  1  0  0  0
 81157  1  0  0  0
 81158  1  0  0  0
 81159  1  0  0  0
 82160  1  0  0  0
 82161  1  0  0  0
 82162  1  0  0  0
 83163  1  0  0  0
 83164  1  0  0  0
 83165  1  0  0  0
 84166  1  0  0  0
 84167  1  0  0  0
 84168  1  0  0  0
 84 85  1  0  0  0
 85169  1  0  0  0
M  ISO  4   1 100  68 101  85 101  87 100
M  END
> <chiral flag>
0

> <version>
0

> <s_m_source_file>
/data/baiqing/PycharmProjects/Reinvent-master-3.2/result/LINK_invent/BTK/process_docking_weight1_custom_sum_contain_oxygen_bond_distance_aromatic_linkinvent_7_9_3/rearranged_h_0171.sdf

> <i_m_source_file_index>
48

> <r_mmod_Potential_Energy-OPLS-2005>
778.879272460938

> <r_mmod_Stretch_Energy-OPLS-2005>
274.794799804688

> <r_mmod_Bend_Energy-OPLS-2005>
373.957641601562

> <r_mmod_Torsional_Energy-OPLS-2005>
450.859741210938

> <r_mmod_Improper_Torsional_Energy-OPLS-2005>
5.72615098953247

> <r_mmod_Van_der_Waal_Energy-OPLS-2005>
161.65966796875

> <r_mmod_Electrostatic_Energy-OPLS-2005>
-443.046417236328

> <r_mmod_Solvation_Energy-OPLS-2005>
-214.011047363281

> <b_mmod_Minimization_Converged-OPLS-2005>
0

> <r_mmod_RMS_Derivative-OPLS-2005>
12.2562694549561

$$$$
48
                    3D
 Structure written by MMmdl.
157166  0  0  1  0            999 V2000
  -30.6108  -14.6965   20.5009 C   0  0  0  0  0  0
  -30.4325  -12.4227   19.4742 C   0  0  0  0  0  0
  -29.5070  -12.4948   18.2398 C   0  0  0  0  0  0
  -28.0334  -12.3252   18.6555 C   0  0  0  0  0  0
  -27.6450  -13.2206   19.8628 C   0  0  2  0  0  0
  -28.6894  -13.1150   20.9955 C   0  0  0  0  0  0
  -25.2528  -13.8170   20.5708 C   0  0  0  0  0  0
  -24.1812  -13.0422   20.9204 C   0  0  0  0  0  0
  -24.6377  -11.6894   20.8750 C   0  0  0  0  0  0
  -23.9049  -10.4279   21.0405 C   0  0  0  0  0  0
  -24.3595   -9.4205   21.9188 C   0  0  0  0  0  0
  -23.6280   -8.2238   22.0759 C   0  0  0  0  0  0
  -22.4268   -8.0262   21.3532 C   0  0  0  0  0  0
  -21.9909   -9.0230   20.4645 C   0  0  0  0  0  0
  -22.7228  -10.2116   20.3058 C   0  0  0  0  0  0
  -21.6839   -6.0723   22.5271 C   0  0  0  0  0  0
  -21.4007   -6.5631   23.8199 C   0  0  0  0  0  0
  -21.3668   -5.6795   24.9167 C   0  0  0  0  0  0
  -21.6040   -4.3053   24.7231 C   0  0  0  0  0  0
  -21.8821   -3.8146   23.4350 C   0  0  0  0  0  0
  -21.9192   -4.6955   22.3390 C   0  0  0  0  0  0
  -22.7842  -13.5216   21.1866 C   0  0  0  0  0  0
  -22.1663   -4.2129   21.0969 F   0  0  0  0  0  0
  -21.5639   -3.4538   25.7752 F   0  0  0  0  0  0
  -29.9949  -13.4702   20.4241 N   0  0  0  0  0  0
  -26.2925  -12.9350   20.3337 N   0  0  0  0  0  0
  -25.9303  -11.6492   20.5797 N   0  0  0  0  0  0
  -22.0515  -12.8164   22.0427 N   0  0  0  0  0  0
  -25.4230  -15.1891   20.4116 N   0  0  0  0  0  0
  -31.7835  -14.8301   20.1397 O   0  0  0  0  0  0
  -21.6631   -6.8858   21.4235 O   0  0  0  0  0  0
  -22.3513  -14.5519   20.6743 O   0  0  0  0  0  0
  -24.6279  -31.8602   23.1993 C   0  0  0  0  0  0
  -25.9125  -32.4797   23.8333 C   0  0  1  0  0  0
  -27.2347  -27.3031   20.1489 C   0  0  0  0  0  0
  -25.5933  -33.8593   24.2234 N   0  0  0  0  0  0
  -23.4235  -30.4780   21.5441 C   0  0  2  0  0  0
  -24.8757  -28.9239   20.1246 C   0  0  0  0  0  0
  -22.7502  -29.4605   22.4958 C   0  0  0  0  0  0
  -18.0281  -28.1351   22.8509 C   0  0  0  0  0  0
  -24.1476  -36.7278   23.2643 C   0  0  0  0  0  0
  -25.9662  -30.7895   21.3727 C   0  0  0  0  0  0
  -26.0459  -29.4122   20.7200 C   0  0  0  0  0  0
  -27.2351  -28.6178   20.7159 C   0  0  0  0  0  0
  -26.0441  -26.8575   19.5457 C   0  0  0  0  0  0
  -24.8744  -27.6478   19.5332 C   0  0  0  0  0  0
  -23.6392  -29.8050   20.1630 C   0  0  0  0  0  0
  -25.4127  -36.3081   24.0296 C   0  0  1  0  0  0
  -20.5894  -28.3653   23.1285 C   0  0  2  0  0  0
  -20.6764  -26.9366   22.5432 C   0  0  0  0  0  0
  -19.5721  -26.6348   21.5252 C   0  0  0  0  0  0
  -18.1878  -26.7885   22.1631 C   0  0  0  0  0  0
  -19.1550  -28.8818   23.2853 C   0  0  0  0  0  0
  -18.9479  -30.1437   23.8830 C   0  0  0  0  0  0
  -17.6488  -30.6554   24.0566 C   0  0  0  0  0  0
  -25.9098  -34.9472   23.5083 C   0  0  0  0  0  0
  -16.5363  -29.9065   23.6367 C   0  0  0  0  0  0
  -16.7288  -28.6496   23.0370 C   0  0  0  0  0  0
  -26.4483  -31.6652   25.0743 C   0  0  0  0  0  0
  -25.3674  -31.3795   26.1435 C   0  0  0  0  0  0
  -27.0407  -30.3075   24.6278 C   0  0  0  0  0  0
  -27.5977  -32.4452   25.7543 C   0  0  0  0  0  0
  -27.5580  -37.1751   24.8441 C   0  0  0  0  0  0
  -21.4222  -29.2985   22.3678 N   0  0  0  0  0  0
  -26.4264  -37.3807   23.9425 N   0  0  0  0  0  0
  -24.6895  -31.0603   22.0940 N   0  0  0  0  0  0
  -23.4227  -28.8187   23.3088 O   0  0  0  0  0  0
  -28.3518  -26.4523   20.1191 O   0  0  0  0  0  0
  -26.5687  -34.8952   22.4672 O   0  0  0  0  0  0
  -23.5430  -32.1412   23.7308 O   0  0  0  0  0  0
  -29.3243  -19.8088   21.0193 C   0  0  0  0  0  0
  -27.6235  -20.4287   22.6036 C   0  0  0  0  0  0
  -28.5451  -20.8728   21.6286 C   0  0  0  0  0  0
  -29.2220  -18.3959   21.3900 C   0  0  0  0  0  0
  -28.3143  -18.0722   22.4499 C   0  0  0  0  0  0
  -27.4964  -19.0899   23.0039 C   0  0  0  0  0  0
  -27.2556  -23.0292   21.4106 C   0  0  0  0  0  0
  -28.6649  -22.4622   21.5465 C   0  0  2  0  0  0
  -28.2840  -23.7398   20.6150 C   0  0  2  0  0  0
  -28.2307  -16.6693   23.0592 C   0  0  0  0  0  0
  -30.1457  -17.2791   20.7150 C   0  0  0  0  0  0
  -28.4039  -25.2828   21.0355 C   0  0  0  0  0  0
  -29.8249  -15.7928   20.7917 N   0  0  0  0  0  0
  -26.3305  -18.7555   24.2419 Cl  0  0  0  0  0  0
  -31.4757  -12.5392   19.1796 H   0  0  0  0  0  0
  -30.3668  -11.4407   19.9445 H   0  0  0  0  0  0
  -29.7782  -11.7258   17.5157 H   0  0  0  0  0  0
  -29.6361  -13.4540   17.7348 H   0  0  0  0  0  0
  -27.8866  -11.2788   18.9185 H   0  0  0  0  0  0
  -27.3706  -12.5180   17.8105 H   0  0  0  0  0  0
  -27.6541  -14.2455   19.4949 H   0  0  0  0  0  0
  -28.7177  -12.1008   21.4005 H   0  0  0  0  0  0
  -28.4348  -13.7622   21.8343 H   0  0  0  0  0  0
  -25.2735   -9.5673   22.4780 H   0  0  0  0  0  0
  -23.9975   -7.4627   22.7492 H   0  0  0  0  0  0
  -21.0843   -8.8736   19.8952 H   0  0  0  0  0  0
  -22.3674  -10.9645   19.6172 H   0  0  0  0  0  0
  -21.1992   -7.6132   23.9691 H   0  0  0  0  0  0
  -21.1496   -6.0529   25.9066 H   0  0  0  0  0  0
  -22.0598   -2.7606   23.2854 H   0  0  0  0  0  0
  -22.4139  -11.9775   22.4709 H   0  0  0  0  0  0
  -21.1158  -13.1198   22.2747 H   0  0  0  0  0  0
  -24.6492  -15.8371   20.5144 H   0  0  0  0  0  0
  -26.2613  -15.6296   20.0571 H   0  0  0  0  0  0
  -26.7229  -32.5443   23.1120 H   0  0  0  0  0  0
  -24.9974  -33.9749   25.0285 H   0  0  0  0  0  0
  -22.7146  -31.2940   21.3967 H   0  0  0  0  0  0
  -23.3785  -35.9552   23.3266 H   0  0  0  0  0  0
  -24.3538  -36.8988   22.2053 H   0  0  0  0  0  0
  -23.7198  -37.6434   23.6757 H   0  0  0  0  0  0
  -26.0961  -31.5555   20.6072 H   0  0  0  0  0  0
  -26.8426  -30.8348   22.0078 H   0  0  0  0  0  0
  -28.1411  -28.9973   21.1678 H   0  0  0  0  0  0
  -26.0140  -25.8764   19.0913 H   0  0  0  0  0  0
  -23.9714  -27.2596   19.0848 H   0  0  0  0  0  0
  -23.7481  -30.5777   19.3987 H   0  0  0  0  0  0
  -22.7587  -29.2266   19.8781 H   0  0  0  0  0  0
  -25.1293  -36.1893   25.0771 H   0  0  0  0  0  0
  -20.9953  -28.3251   24.1431 H   0  0  0  0  0  0
  -20.5713  -26.2264   23.3646 H   0  0  0  0  0  0
  -21.6610  -26.7395   22.1176 H   0  0  0  0  0  0
  -19.6868  -25.6280   21.1241 H   0  0  0  0  0  0
  -19.6652  -27.3195   20.6798 H   0  0  0  0  0  0
  -17.4183  -26.6728   21.3994 H   0  0  0  0  0  0
  -18.0174  -25.9998   22.8981 H   0  0  0  0  0  0
  -19.7979  -30.7258   24.2137 H   0  0  0  0  0  0
  -17.5072  -31.6245   24.5172 H   0  0  0  0  0  0
  -15.5360  -30.2947   23.7762 H   0  0  0  0  0  0
  -15.8683  -28.0847   22.7060 H   0  0  0  0  0  0
  -24.5836  -30.7201   25.7723 H   0  0  0  0  0  0
  -24.8864  -32.2960   26.4847 H   0  0  0  0  0  0
  -25.7898  -30.8957   27.0243 H   0  0  0  0  0  0
  -26.3052  -29.6753   24.1306 H   0  0  0  0  0  0
  -27.4104  -29.7412   25.4832 H   0  0  0  0  0  0
  -27.8893  -30.4385   23.9558 H   0  0  0  0  0  0
  -27.2549  -33.3789   26.2041 H   0  0  0  0  0  0
  -28.3825  -32.6998   25.0410 H   0  0  0  0  0  0
  -28.0641  -31.8677   26.5543 H   0  0  0  0  0  0
  -28.2496  -38.0139   24.7636 H   0  0  0  0  0  0
  -28.1153  -36.2671   24.6090 H   0  0  0  0  0  0
  -27.2277  -37.1163   25.8823 H   0  0  0  0  0  0
  -20.9429  -29.8756   21.6896 H   0  0  0  0  0  0
  -26.0128  -38.2838   24.1579 H   0  0  0  0  0  0
  -30.0641  -20.0907   20.2820 H   0  0  0  0  0  0
  -27.0142  -21.1474   23.1349 H   0  0  0  0  0  0
  -26.8492  -23.4952   22.3081 H   0  0  0  0  0  0
  -26.5245  -22.4731   20.8270 H   0  0  0  0  0  0
  -29.2493  -22.7484   22.4219 H   0  0  0  0  0  0
  -28.3651  -23.5531   19.5447 H   0  0  0  0  0  0
  -29.2263  -16.2909   23.2886 H   0  0  0  0  0  0
  -27.7136  -15.9784   22.3939 H   0  0  0  0  0  0
  -27.7001  -16.6244   24.0086 H   0  0  0  0  0  0
  -31.1522  -17.4207   21.1082 H   0  0  0  0  0  0
  -30.2162  -17.5270   19.6527 H   0  0  0  0  0  0
  -29.3549  -25.3793   21.5635 H   0  0  0  0  0  0
  -27.6638  -25.4741   21.8118 H   0  0  0  0  0  0
  -28.8654  -15.5787   21.0052 H   0  0  0  0  0  0
  1 25  1  0  0  0
  1 30  2  0  0  0
  1 83  1  0  0  0
  2  3  1  0  0  0
  2 25  1  0  0  0
  2 85  1  0  0  0
  2 86  1  0  0  0
  3  4  1  0  0  0
  3 87  1  0  0  0
  3 88  1  0  0  0
  4  5  1  0  0  0
  4 89  1  0  0  0
  4 90  1  0  0  0
  5  6  1  0  0  0
  5 26  1  0  0  0
  5 91  1  0  0  0
  6 25  1  0  0  0
  6 92  1  0  0  0
  6 93  1  0  0  0
  7  8  2  0  0  0
  7 26  1  0  0  0
  7 29  1  0  0  0
  8  9  1  0  0  0
  8 22  1  0  0  0
  9 10  1  0  0  0
  9 27  2  0  0  0
 10 11  2  0  0  0
 10 15  1  0  0  0
 11 12  1  0  0  0
 11 94  1  0  0  0
 12 13  2  0  0  0
 12 95  1  0  0  0
 13 14  1  0  0  0
 13 31  1  0  0  0
 14 15  2  0  0  0
 14 96  1  0  0  0
 15 97  1  0  0  0
 16 17  2  0  0  0
 16 21  1  0  0  0
 16 31  1  0  0  0
 17 18  1  0  0  0
 17 98  1  0  0  0
 18 19  2  0  0  0
 18 99  1  0  0  0
 19 20  1  0  0  0
 19 24  1  0  0  0
 20 21  2  0  0  0
 20100  1  0  0  0
 21 23  1  0  0  0
 22 28  1  0  0  0
 22 32  2  0  0  0
 26 27  1  0  0  0
 28101  1  0  0  0
 28102  1  0  0  0
 29103  1  0  0  0
 29104  1  0  0  0
 33 34  1  0  0  0
 33 66  1  0  0  0
 33 70  2  0  0  0
 34 36  1  0  0  0
 34 59  1  0  0  0
 34105  1  0  0  0
 35 44  2  0  0  0
 35 45  1  0  0  0
 35 68  1  0  0  0
 36 56  1  0  0  0
 36106  1  0  0  0
 37 39  1  0  0  0
 37 47  1  0  0  0
 37 66  1  0  0  0
 37107  1  0  0  0
 38 43  2  0  0  0
 38 46  1  0  0  0
 38 47  1  0  0  0
 39 64  1  0  0  0
 39 67  2  0  0  0
 40 52  1  0  0  0
 40 53  2  0  0  0
 40 58  1  0  0  0
 41108  1  0  0  0
 41109  1  0  0  0
 41110  1  0  0  0
 41 48  1  0  0  0
 42 43  1  0  0  0
 42 66  1  0  0  0
 42111  1  0  0  0
 42112  1  0  0  0
 43 44  1  0  0  0
 44113  1  0  0  0
 45 46  2  0  0  0
 45114  1  0  0  0
 46115  1  0  0  0
 47116  1  0  0  0
 47117  1  0  0  0
 48 56  1  0  0  0
 48 65  1  0  0  0
 48118  1  0  0  0
 49 50  1  0  0  0
 49 53  1  0  0  0
 49 64  1  0  0  0
 49119  1  0  0  0
 50 51  1  0  0  0
 50120  1  0  0  0
 50121  1  0  0  0
 51 52  1  0  0  0
 51122  1  0  0  0
 51123  1  0  0  0
 52124  1  0  0  0
 52125  1  0  0  0
 53 54  1  0  0  0
 54 55  2  0  0  0
 54126  1  0  0  0
 55 57  1  0  0  0
 55127  1  0  0  0
 56 69  2  0  0  0
 57 58  2  0  0  0
 57128  1  0  0  0
 58129  1  0  0  0
 59 60  1  0  0  0
 59 61  1  0  0  0
 59 62  1  0  0  0
 60130  1  0  0  0
 60131  1  0  0  0
 60132  1  0  0  0
 61133  1  0  0  0
 61134  1  0  0  0
 61135  1  0  0  0
 62136  1  0  0  0
 62137  1  0  0  0
 62138  1  0  0  0
 63 65  1  0  0  0
 63139  1  0  0  0
 63140  1  0  0  0
 63141  1  0  0  0
 64142  1  0  0  0
 65143  1  0  0  0
 68 82  1  0  0  0
 71 73  2  0  0  0
 71 74  1  0  0  0
 71144  1  0  0  0
 72 73  1  0  0  0
 72 76  2  0  0  0
 72145  1  0  0  0
 73 78  1  0  0  0
 74 75  2  0  0  0
 74 81  1  0  0  0
 75 76  1  0  0  0
 75 80  1  0  0  0
 76 84  1  0  0  0
 77 78  1  0  0  0
 77 79  1  0  0  0
 77146  1  0  0  0
 77147  1  0  0  0
 78 79  1  0  0  0
 78148  1  0  0  0
 79 82  1  0  0  0
 79149  1  0  0  0
 80150  1  0  0  0
 80151  1  0  0  0
 80152  1  0  0  0
 81 83  1  0  0  0
 81153  1  0  0  0
 81154  1  0  0  0
 82155  1  0  0  0
 82156  1  0  0  0
 83157  1  0  0  0
M  ISO  4   1 100  68 101  82 101  83 100
M  END
> <chiral flag>
0

> <version>
0

> <s_m_source_file>
/data/baiqing/PycharmProjects/Reinvent-master-3.2/result/LINK_invent/BTK/process_docking_weight1_custom_sum_contain_oxygen_bond_distance_aromatic_linkinvent_7_9_3/rearranged_h_0171.sdf

> <i_m_source_file_index>
49

> <r_mmod_Potential_Energy-OPLS-2005>
209.509307861328

> <r_mmod_Stretch_Energy-OPLS-2005>
125.73087310791

> <r_mmod_Bend_Energy-OPLS-2005>
222.523666381836

> <r_mmod_Torsional_Energy-OPLS-2005>
263.017395019531

> <r_mmod_Improper_Torsional_Energy-OPLS-2005>
5.85562753677368

> <r_mmod_Van_der_Waal_Energy-OPLS-2005>
145.004165649414

> <r_mmod_Electrostatic_Energy-OPLS-2005>
-415.376525878906

> <r_mmod_Solvation_Energy-OPLS-2005>
-198.751937866211

> <b_mmod_Minimization_Converged-OPLS-2005>
0

> <r_mmod_RMS_Derivative-OPLS-2005>
4.74333715438843

$$$$
49
                    3D
 Structure written by MMmdl.
172181  0  0  1  0            999 V2000
  -30.6305  -14.7977   20.4224 C   0  0  0  0  0  0
  -30.4350  -12.4901   19.4617 C   0  0  0  0  0  0
  -29.5145  -12.5091   18.2221 C   0  0  0  0  0  0
  -28.0407  -12.3319   18.6361 C   0  0  0  0  0  0
  -27.6366  -13.2428   19.8253 C   0  0  2  0  0  0
  -28.6885  -13.2216   20.9562 C   0  0  0  0  0  0
  -25.2498  -13.8209   20.5692 C   0  0  0  0  0  0
  -24.1800  -13.0438   20.9226 C   0  0  0  0  0  0
  -24.6397  -11.6924   20.8726 C   0  0  0  0  0  0
  -23.9080  -10.4287   21.0379 C   0  0  0  0  0  0
  -24.3617   -9.4216   21.9164 C   0  0  0  0  0  0
  -23.6278   -8.2249   22.0737 C   0  0  0  0  0  0
  -22.4255   -8.0278   21.3542 C   0  0  0  0  0  0
  -21.9903   -9.0242   20.4645 C   0  0  0  0  0  0
  -22.7237  -10.2106   20.3044 C   0  0  0  0  0  0
  -21.6847   -6.0714   22.5256 C   0  0  0  0  0  0
  -21.4012   -6.5617   23.8203 C   0  0  0  0  0  0
  -21.3680   -5.6772   24.9162 C   0  0  0  0  0  0
  -21.6048   -4.3031   24.7229 C   0  0  0  0  0  0
  -21.8816   -3.8138   23.4349 C   0  0  0  0  0  0
  -21.9183   -4.6955   22.3397 C   0  0  0  0  0  0
  -22.7807  -13.5218   21.1871 C   0  0  0  0  0  0
  -22.1654   -4.2147   21.0980 F   0  0  0  0  0  0
  -21.5636   -3.4524   25.7751 F   0  0  0  0  0  0
  -29.9824  -13.5790   20.3593 N   0  0  0  0  0  0
  -26.2921  -12.9444   20.3136 N   0  0  0  0  0  0
  -25.9344  -11.6586   20.5670 N   0  0  0  0  0  0
  -22.0409  -12.8234   22.0410 N   0  0  0  0  0  0
  -25.4180  -15.1928   20.4123 N   0  0  0  0  0  0
  -31.8427  -14.8363   20.2257 O   0  0  0  0  0  0
  -21.6636   -6.8865   21.4217 O   0  0  0  0  0  0
  -22.3515  -14.5534   20.6694 O   0  0  0  0  0  0
  -24.6370  -31.8500   23.1937 C   0  0  0  0  0  0
  -25.9169  -32.4754   23.8284 C   0  0  1  0  0  0
  -27.2169  -27.2127   20.1650 C   0  0  0  0  0  0
  -25.5954  -33.8551   24.2230 N   0  0  0  0  0  0
  -23.4375  -30.4691   21.5394 C   0  0  2  0  0  0
  -24.8851  -28.9067   20.1152 C   0  0  0  0  0  0
  -22.7551  -29.4561   22.4925 C   0  0  0  0  0  0
  -18.0299  -28.1401   22.8479 C   0  0  0  0  0  0
  -24.1479  -36.7273   23.2634 C   0  0  0  0  0  0
  -25.9849  -30.7535   21.3734 C   0  0  0  0  0  0
  -26.0582  -29.3678   20.7254 C   0  0  0  0  0  0
  -27.2270  -28.5348   20.7337 C   0  0  0  0  0  0
  -26.0234  -26.8297   19.5146 C   0  0  0  0  0  0
  -24.8747  -27.6490   19.4945 C   0  0  0  0  0  0
  -23.6581  -29.7961   20.1583 C   0  0  0  0  0  0
  -25.4118  -36.3084   24.0319 C   0  0  1  0  0  0
  -20.5907  -28.3711   23.1280 C   0  0  2  0  0  0
  -20.6791  -26.9424   22.5424 C   0  0  0  0  0  0
  -19.5757  -26.6393   21.5232 C   0  0  0  0  0  0
  -18.1936  -26.7944   22.1626 C   0  0  0  0  0  0
  -19.1559  -28.8881   23.2866 C   0  0  0  0  0  0
  -18.9475  -30.1494   23.8871 C   0  0  0  0  0  0
  -17.6461  -30.6592   24.0582 C   0  0  0  0  0  0
  -25.9062  -34.9454   23.5090 C   0  0  0  0  0  0
  -16.5358  -29.9085   23.6334 C   0  0  0  0  0  0
  -16.7285  -28.6518   23.0332 C   0  0  0  0  0  0
  -26.4497  -31.6595   25.0696 C   0  0  0  0  0  0
  -25.3686  -31.3762   26.1403 C   0  0  0  0  0  0
  -27.0330  -30.3019   24.6168 C   0  0  0  0  0  0
  -27.6061  -32.4305   25.7475 C   0  0  0  0  0  0
  -27.5579  -37.1817   24.8456 C   0  0  0  0  0  0
  -21.4255  -29.3041   22.3667 N   0  0  0  0  0  0
  -26.4291  -37.3795   23.9399 N   0  0  0  0  0  0
  -24.7065  -31.0422   22.0921 N   0  0  0  0  0  0
  -23.4234  -28.8098   23.3036 O   0  0  0  0  0  0
  -28.2941  -26.2840   20.2673 O   0  0  0  0  0  0
  -26.5641  -34.8936   22.4657 O   0  0  0  0  0  0
  -23.5508  -32.1312   23.7218 O   0  0  0  0  0  0
  -31.8886  -18.7632   18.5875 C   0  0  0  0  0  0
  -32.1458  -17.3035   18.3454 C   0  0  0  0  0  0
  -28.2145  -21.0626   21.4857 C   0  0  0  0  0  0
  -28.4239  -22.5862   21.8630 C   0  0  0  0  0  0
  -29.7201  -21.2218   19.6453 C   0  0  0  0  0  0
  -30.7862  -17.7569   18.8534 C   0  0  0  0  0  0
  -29.4378  -20.2716   20.8757 C   0  0  2  0  0  0
  -29.0063  -23.6135   20.8132 C   0  0  1  0  0  0
  -30.0316  -22.7784   19.9105 C   0  0  0  0  0  0
  -31.4290  -22.8479   20.5812 C   0  0  0  0  0  0
  -30.1862  -23.4713   18.5470 C   0  0  0  0  0  0
  -28.0098  -24.7879   20.2186 C   0  0  0  0  0  0
  -30.2812  -17.4698   20.2722 C   0  0  1  0  0  0
  -29.1805  -18.6261   20.7057 C   0  0  1  0  0  0
  -29.8739  -15.9770   20.4599 N   0  0  0  0  0  0
  -28.5891  -18.1453   21.9660 N   0  3  0  0  0  0
  -31.4764  -12.6084   19.1587 H   0  0  0  0  0  0
  -30.3822  -11.5233   19.9666 H   0  0  0  0  0  0
  -29.8039  -11.7238   17.5233 H   0  0  0  0  0  0
  -29.6349  -13.4546   17.6875 H   0  0  0  0  0  0
  -27.8886  -11.2843   18.8995 H   0  0  0  0  0  0
  -27.3912  -12.5269   17.7830 H   0  0  0  0  0  0
  -27.6118  -14.2553   19.4202 H   0  0  0  0  0  0
  -28.7381  -12.2387   21.4265 H   0  0  0  0  0  0
  -28.4204  -13.9284   21.7420 H   0  0  0  0  0  0
  -25.2745   -9.5709   22.4749 H   0  0  0  0  0  0
  -23.9981   -7.4669   22.7482 H   0  0  0  0  0  0
  -21.0817   -8.8767   19.8970 H   0  0  0  0  0  0
  -22.3672  -10.9630   19.6163 H   0  0  0  0  0  0
  -21.1987   -7.6116   23.9706 H   0  0  0  0  0  0
  -21.1506   -6.0498   25.9075 H   0  0  0  0  0  0
  -22.0583   -2.7600   23.2838 H   0  0  0  0  0  0
  -22.3957  -11.9923   22.4910 H   0  0  0  0  0  0
  -21.1019  -13.1277   22.2563 H   0  0  0  0  0  0
  -24.6356  -15.8277   20.5273 H   0  0  0  0  0  0
  -26.2045  -15.6165   19.9383 H   0  0  0  0  0  0
  -26.7252  -32.5393   23.1032 H   0  0  0  0  0  0
  -25.0119  -33.9654   25.0397 H   0  0  0  0  0  0
  -22.7360  -31.2926   21.3893 H   0  0  0  0  0  0
  -23.3763  -35.9585   23.3290 H   0  0  0  0  0  0
  -24.3557  -36.8896   22.2047 H   0  0  0  0  0  0
  -23.7218  -37.6467   23.6655 H   0  0  0  0  0  0
  -26.1123  -31.4991   20.5875 H   0  0  0  0  0  0
  -26.8682  -30.8195   21.9980 H   0  0  0  0  0  0
  -28.1228  -28.8739   21.2321 H   0  0  0  0  0  0
  -25.9364  -25.8614   19.0467 H   0  0  0  0  0  0
  -23.9741  -27.2887   19.0184 H   0  0  0  0  0  0
  -23.7953  -30.5642   19.3955 H   0  0  0  0  0  0
  -22.7748  -29.2294   19.8552 H   0  0  0  0  0  0
  -25.1311  -36.1929   25.0815 H   0  0  0  0  0  0
  -21.0005  -28.3298   24.1401 H   0  0  0  0  0  0
  -20.5701  -26.2318   23.3631 H   0  0  0  0  0  0
  -21.6655  -26.7438   22.1225 H   0  0  0  0  0  0
  -19.6897  -25.6306   21.1261 H   0  0  0  0  0  0
  -19.6692  -27.3204   20.6764 H   0  0  0  0  0  0
  -17.4223  -26.6734   21.4005 H   0  0  0  0  0  0
  -18.0286  -26.0084   22.9008 H   0  0  0  0  0  0
  -19.7947  -30.7349   24.2194 H   0  0  0  0  0  0
  -17.5005  -31.6252   24.5213 H   0  0  0  0  0  0
  -15.5356  -30.2974   23.7667 H   0  0  0  0  0  0
  -15.8694  -28.0847   22.7015 H   0  0  0  0  0  0
  -24.5891  -30.7075   25.7730 H   0  0  0  0  0  0
  -24.8824  -32.2928   26.4752 H   0  0  0  0  0  0
  -25.7971  -30.9001   27.0231 H   0  0  0  0  0  0
  -26.2905  -29.6794   24.1166 H   0  0  0  0  0  0
  -27.4000  -29.7270   25.4678 H   0  0  0  0  0  0
  -27.8776  -30.4301   23.9397 H   0  0  0  0  0  0
  -27.2715  -33.3642   26.2000 H   0  0  0  0  0  0
  -28.3905  -32.6792   25.0316 H   0  0  0  0  0  0
  -28.0676  -31.8440   26.5431 H   0  0  0  0  0  0
  -28.2633  -38.0090   24.7535 H   0  0  0  0  0  0
  -28.1057  -36.2640   24.6259 H   0  0  0  0  0  0
  -27.2299  -37.1445   25.8862 H   0  0  0  0  0  0
  -20.9478  -29.8761   21.6850 H   0  0  0  0  0  0
  -26.0167  -38.2869   24.1409 H   0  0  0  0  0  0
  -31.7962  -19.4021   17.7116 H   0  0  0  0  0  0
  -32.3891  -19.2160   19.4414 H   0  0  0  0  0  0
  -32.8557  -16.8351   19.0248 H   0  0  0  0  0  0
  -32.2203  -16.9895   17.3067 H   0  0  0  0  0  0
  -27.3725  -20.9882   20.7953 H   0  0  0  0  0  0
  -27.8719  -20.5726   22.3971 H   0  0  0  0  0  0
  -29.1111  -22.5855   22.7105 H   0  0  0  0  0  0
  -27.4946  -22.9747   22.2794 H   0  0  0  0  0  0
  -28.8787  -21.1488   18.9560 H   0  0  0  0  0  0
  -30.5612  -20.8279   19.0894 H   0  0  0  0  0  0
  -29.9942  -17.7337   18.1050 H   0  0  0  0  0  0
  -30.2758  -20.3695   21.5652 H   0  0  0  0  0  0
  -29.6288  -24.2546   21.4389 H   0  0  0  0  0  0
  -31.4376  -22.4037   21.5772 H   0  0  0  0  0  0
  -31.7736  -23.8764   20.6898 H   0  0  0  0  0  0
  -32.1834  -22.3264   19.9917 H   0  0  0  0  0  0
  -29.2608  -23.4336   17.9743 H   0  0  0  0  0  0
  -30.9568  -22.9928   17.9414 H   0  0  0  0  0  0
  -30.4696  -24.5188   18.6658 H   0  0  0  0  0  0
  -27.0748  -24.6583   20.7637 H   0  0  0  0  0  0
  -27.7418  -24.5374   19.1936 H   0  0  0  0  0  0
  -31.1383  -17.6043   20.9350 H   0  0  0  0  0  0
  -28.3776  -18.5402   19.9715 H   0  0  0  0  0  0
  -28.8857  -15.7895   20.4178 H   0  0  0  0  0  0
  -29.2648  -18.1923   22.7096 H   0  0  0  0  0  0
  -28.2859  -17.1946   21.8826 H   0  0  0  0  0  0
  -27.7964  -18.7120   22.2118 H   0  0  0  0  0  0
  1 25  1  0  0  0
  1 30  2  0  0  0
  1 85  1  0  0  0
  2  3  1  0  0  0
  2 25  1  0  0  0
  2 87  1  0  0  0
  2 88  1  0  0  0
  3  4  1  0  0  0
  3 89  1  0  0  0
  3 90  1  0  0  0
  4  5  1  0  0  0
  4 91  1  0  0  0
  4 92  1  0  0  0
  5  6  1  0  0  0
  5 26  1  0  0  0
  5 93  1  0  0  0
  6 25  1  0  0  0
  6 94  1  0  0  0
  6 95  1  0  0  0
  7  8  2  0  0  0
  7 26  1  0  0  0
  7 29  1  0  0  0
  8  9  1  0  0  0
  8 22  1  0  0  0
  9 10  1  0  0  0
  9 27  2  0  0  0
 10 11  2  0  0  0
 10 15  1  0  0  0
 11 12  1  0  0  0
 11 96  1  0  0  0
 12 13  2  0  0  0
 12 97  1  0  0  0
 13 14  1  0  0  0
 13 31  1  0  0  0
 14 15  2  0  0  0
 14 98  1  0  0  0
 15 99  1  0  0  0
 16 17  2  0  0  0
 16 21  1  0  0  0
 16 31  1  0  0  0
 17 18  1  0  0  0
 17100  1  0  0  0
 18 19  2  0  0  0
 18101  1  0  0  0
 19 20  1  0  0  0
 19 24  1  0  0  0
 20 21  2  0  0  0
 20102  1  0  0  0
 21 23  1  0  0  0
 22 28  1  0  0  0
 22 32  2  0  0  0
 26 27  1  0  0  0
 28103  1  0  0  0
 28104  1  0  0  0
 29105  1  0  0  0
 29106  1  0  0  0
 33 34  1  0  0  0
 33 66  1  0  0  0
 33 70  2  0  0  0
 34 36  1  0  0  0
 34 59  1  0  0  0
 34107  1  0  0  0
 35 44  2  0  0  0
 35 45  1  0  0  0
 35 68  1  0  0  0
 36 56  1  0  0  0
 36108  1  0  0  0
 37 39  1  0  0  0
 37 47  1  0  0  0
 37 66  1  0  0  0
 37109  1  0  0  0
 38 43  2  0  0  0
 38 46  1  0  0  0
 38 47  1  0  0  0
 39 64  1  0  0  0
 39 67  2  0  0  0
 40 52  1  0  0  0
 40 53  2  0  0  0
 40 58  1  0  0  0
 41110  1  0  0  0
 41111  1  0  0  0
 41112  1  0  0  0
 41 48  1  0  0  0
 42 43  1  0  0  0
 42 66  1  0  0  0
 42113  1  0  0  0
 42114  1  0  0  0
 43 44  1  0  0  0
 44115  1  0  0  0
 45 46  2  0  0  0
 45116  1  0  0  0
 46117  1  0  0  0
 47118  1  0  0  0
 47119  1  0  0  0
 48 56  1  0  0  0
 48 65  1  0  0  0
 48120  1  0  0  0
 49 50  1  0  0  0
 49 53  1  0  0  0
 49 64  1  0  0  0
 49121  1  0  0  0
 50 51  1  0  0  0
 50122  1  0  0  0
 50123  1  0  0  0
 51 52  1  0  0  0
 51124  1  0  0  0
 51125  1  0  0  0
 52126  1  0  0  0
 52127  1  0  0  0
 53 54  1  0  0  0
 54 55  2  0  0  0
 54128  1  0  0  0
 55 57  1  0  0  0
 55129  1  0  0  0
 56 69  2  0  0  0
 57 58  2  0  0  0
 57130  1  0  0  0
 58131  1  0  0  0
 59 60  1  0  0  0
 59 61  1  0  0  0
 59 62  1  0  0  0
 60132  1  0  0  0
 60133  1  0  0  0
 60134  1  0  0  0
 61135  1  0  0  0
 61136  1  0  0  0
 61137  1  0  0  0
 62138  1  0  0  0
 62139  1  0  0  0
 62140  1  0  0  0
 63 65  1  0  0  0
 63141  1  0  0  0
 63142  1  0  0  0
 63143  1  0  0  0
 64144  1  0  0  0
 65145  1  0  0  0
 68 82  1  0  0  0
 71 72  1  0  0  0
 71146  1  0  0  0
 71147  1  0  0  0
 71 76  1  0  0  0
 72 76  1  0  0  0
 72148  1  0  0  0
 72149  1  0  0  0
 73 74  1  0  0  0
 73150  1  0  0  0
 73151  1  0  0  0
 73 77  1  0  0  0
 74 78  1  0  0  0
 74152  1  0  0  0
 74153  1  0  0  0
 75 77  1  0  0  0
 75 79  1  0  0  0
 75154  1  0  0  0
 75155  1  0  0  0
 76 83  1  0  0  0
 76156  1  0  0  0
 77 84  1  0  0  0
 77157  1  0  0  0
 78 79  1  0  0  0
 78 82  1  0  0  0
 78158  1  0  0  0
 79 80  1  0  0  0
 79 81  1  0  0  0
 80159  1  0  0  0
 80160  1  0  0  0
 80161  1  0  0  0
 81162  1  0  0  0
 81163  1  0  0  0
 81164  1  0  0  0
 82165  1  0  0  0
 82166  1  0  0  0
 83 84  1  0  0  0
 83 85  1  0  0  0
 83167  1  0  0  0
 84 86  1  0  0  0
 84168  1  0  0  0
 85169  1  0  0  0
 86170  1  0  0  0
 86171  1  0  0  0
 86172  1  0  0  0
M  CHG  1  86   1
M  ISO  4   1 100  68 101  82 101  85 100
M  END
> <chiral flag>
0

> <version>
0

> <s_m_source_file>
/data/baiqing/PycharmProjects/Reinvent-master-3.2/result/LINK_invent/BTK/process_docking_weight1_custom_sum_contain_oxygen_bond_distance_aromatic_linkinvent_7_9_3/rearranged_h_0171.sdf

> <i_m_source_file_index>
50

> <r_mmod_Potential_Energy-OPLS-2005>
188.516662597656

> <r_mmod_Stretch_Energy-OPLS-2005>
176.152481079102

> <r_mmod_Bend_Energy-OPLS-2005>
246.989501953125

> <r_mmod_Torsional_Energy-OPLS-2005>
363.671600341797

> <r_mmod_Improper_Torsional_Energy-OPLS-2005>
6.60024929046631

> <r_mmod_Van_der_Waal_Energy-OPLS-2005>
124.577934265137

> <r_mmod_Electrostatic_Energy-OPLS-2005>
-345.510711669922

> <r_mmod_Solvation_Energy-OPLS-2005>
-504.813598632812

> <b_mmod_Minimization_Converged-OPLS-2005>
0

> <r_mmod_RMS_Derivative-OPLS-2005>
4.61375331878662

$$$$
50
                    3D
 Structure written by MMmdl.
165174  0  0  1  0            999 V2000
  -30.6286  -14.7326   20.4752 C   0  0  0  0  0  0
  -30.4316  -12.4473   19.4779 C   0  0  0  0  0  0
  -29.5136  -12.5015   18.2386 C   0  0  0  0  0  0
  -28.0398  -12.3255   18.6528 C   0  0  0  0  0  0
  -27.6414  -13.2319   19.8502 C   0  0  2  0  0  0
  -28.6839  -13.1728   20.9884 C   0  0  0  0  0  0
  -25.2499  -13.8183   20.5682 C   0  0  0  0  0  0
  -24.1806  -13.0432   20.9215 C   0  0  0  0  0  0
  -24.6400  -11.6911   20.8756 C   0  0  0  0  0  0
  -23.9079  -10.4289   21.0423 C   0  0  0  0  0  0
  -24.3619   -9.4204   21.9202 C   0  0  0  0  0  0
  -23.6287   -8.2248   22.0763 C   0  0  0  0  0  0
  -22.4267   -8.0288   21.3553 C   0  0  0  0  0  0
  -21.9906   -9.0268   20.4659 C   0  0  0  0  0  0
  -22.7245  -10.2139   20.3079 C   0  0  0  0  0  0
  -21.6848   -6.0739   22.5294 C   0  0  0  0  0  0
  -21.4008   -6.5646   23.8224 C   0  0  0  0  0  0
  -21.3658   -5.6791   24.9182 C   0  0  0  0  0  0
  -21.6047   -4.3055   24.7231 C   0  0  0  0  0  0
  -21.8810   -3.8148   23.4354 C   0  0  0  0  0  0
  -21.9187   -4.6966   22.3407 C   0  0  0  0  0  0
  -22.7831  -13.5231   21.1866 C   0  0  0  0  0  0
  -22.1659   -4.2150   21.0984 F   0  0  0  0  0  0
  -21.5626   -3.4544   25.7745 F   0  0  0  0  0  0
  -29.9854  -13.5157   20.4025 N   0  0  0  0  0  0
  -26.2927  -12.9396   20.3259 N   0  0  0  0  0  0
  -25.9328  -11.6535   20.5744 N   0  0  0  0  0  0
  -22.0440  -12.8241   22.0411 N   0  0  0  0  0  0
  -25.4137  -15.1906   20.4077 N   0  0  0  0  0  0
  -31.8224  -14.7874   20.1618 O   0  0  0  0  0  0
  -21.6632   -6.8884   21.4255 O   0  0  0  0  0  0
  -22.3548  -14.5555   20.6726 O   0  0  0  0  0  0
  -24.6294  -31.8568   23.1979 C   0  0  0  0  0  0
  -25.9118  -32.4767   23.8330 C   0  0  1  0  0  0
  -27.2237  -27.2793   20.1432 C   0  0  0  0  0  0
  -25.5918  -33.8567   24.2252 N   0  0  0  0  0  0
  -23.4266  -30.4757   21.5418 C   0  0  2  0  0  0
  -24.8761  -28.9154   20.1193 C   0  0  0  0  0  0
  -22.7491  -29.4602   22.4935 C   0  0  0  0  0  0
  -18.0288  -28.1386   22.8488 C   0  0  0  0  0  0
  -24.1490  -36.7278   23.2641 C   0  0  0  0  0  0
  -25.9695  -30.7755   21.3737 C   0  0  0  0  0  0
  -26.0461  -29.3961   20.7221 C   0  0  0  0  0  0
  -27.2282  -28.5910   20.7185 C   0  0  0  0  0  0
  -26.0341  -26.8495   19.5254 C   0  0  0  0  0  0
  -24.8724  -27.6485   19.5113 C   0  0  0  0  0  0
  -23.6457  -29.8018   20.1606 C   0  0  0  0  0  0
  -25.4120  -36.3074   24.0323 C   0  0  1  0  0  0
  -20.5884  -28.3689   23.1282 C   0  0  2  0  0  0
  -20.6771  -26.9413   22.5410 C   0  0  0  0  0  0
  -19.5746  -26.6388   21.5207 C   0  0  0  0  0  0
  -18.1925  -26.7932   22.1622 C   0  0  0  0  0  0
  -19.1539  -28.8855   23.2882 C   0  0  0  0  0  0
  -18.9466  -30.1454   23.8904 C   0  0  0  0  0  0
  -17.6463  -30.6591   24.0559 C   0  0  0  0  0  0
  -25.9061  -34.9446   23.5096 C   0  0  0  0  0  0
  -16.5353  -29.9089   23.6319 C   0  0  0  0  0  0
  -16.7272  -28.6498   23.0356 C   0  0  0  0  0  0
  -26.4490  -31.6597   25.0717 C   0  0  0  0  0  0
  -25.3712  -31.3752   26.1437 C   0  0  0  0  0  0
  -27.0340  -30.3018   24.6191 C   0  0  0  0  0  0
  -27.6049  -32.4339   25.7487 C   0  0  0  0  0  0
  -27.5580  -37.1794   24.8468 C   0  0  0  0  0  0
  -21.4198  -29.3042   22.3679 N   0  0  0  0  0  0
  -26.4293  -37.3771   23.9405 N   0  0  0  0  0  0
  -24.6937  -31.0545   22.0942 N   0  0  0  0  0  0
  -23.4195  -28.8154   23.3040 O   0  0  0  0  0  0
  -28.3230  -26.4034   20.1257 O   0  0  0  0  0  0
  -26.5632  -34.8915   22.4666 O   0  0  0  0  0  0
  -23.5439  -32.1383   23.7273 O   0  0  0  0  0  0
  -31.0551  -19.9741   21.2520 C   0  0  0  0  0  0
  -29.3520  -18.4235   20.5871 C   0  0  0  0  0  0
  -29.7380  -19.8173   20.7784 C   0  0  0  0  0  0
  -31.8995  -18.8641   21.4216 C   0  0  0  0  0  0
  -30.2573  -17.3012   20.8017 C   0  0  0  0  0  0
  -28.0199  -21.4535   21.8543 C   0  0  0  0  0  0
  -27.3348  -22.8252   21.6385 C   0  0  0  0  0  0
  -28.7728  -21.0905   20.5734 C   0  0  1  0  0  0
  -28.0548  -23.6296   20.5200 C   0  0  2  0  0  0
  -29.2098  -22.5856   20.0805 C   0  0  0  0  0  0
  -33.3345  -19.0484   21.8708 C   0  0  0  0  0  0
  -30.5678  -23.0858   20.6102 C   0  0  0  0  0  0
  -29.3111  -22.5735   18.5443 C   0  0  0  0  0  0
  -28.2879  -25.1823   20.9828 C   0  0  0  0  0  0
  -31.5149  -17.5903   21.2034 N   0  0  0  0  0  0
  -29.8594  -15.8811   20.6525 N   0  0  0  0  0  0
  -31.4749  -12.5592   19.1785 H   0  0  0  0  0  0
  -30.3664  -11.4723   19.9637 H   0  0  0  0  0  0
  -29.7976  -11.7261   17.5256 H   0  0  0  0  0  0
  -29.6458  -13.4547   17.7220 H   0  0  0  0  0  0
  -27.8982  -11.2785   18.9215 H   0  0  0  0  0  0
  -27.3835  -12.5090   17.8019 H   0  0  0  0  0  0
  -27.6324  -14.2516   19.4656 H   0  0  0  0  0  0
  -28.7138  -12.1798   21.4383 H   0  0  0  0  0  0
  -28.4217  -13.8630   21.7916 H   0  0  0  0  0  0
  -25.2754   -9.5675   22.4786 H   0  0  0  0  0  0
  -23.9984   -7.4636   22.7482 H   0  0  0  0  0  0
  -21.0828   -8.8814   19.8966 H   0  0  0  0  0  0
  -22.3714  -10.9696   19.6202 H   0  0  0  0  0  0
  -21.2007   -7.6153   23.9730 H   0  0  0  0  0  0
  -21.1482   -6.0522   25.9083 H   0  0  0  0  0  0
  -22.0583   -2.7616   23.2855 H   0  0  0  0  0  0
  -22.4017  -11.9918   22.4843 H   0  0  0  0  0  0
  -21.1068  -13.1328   22.2588 H   0  0  0  0  0  0
  -24.6331  -15.8292   20.5178 H   0  0  0  0  0  0
  -26.2384  -15.6369   20.0298 H   0  0  0  0  0  0
  -26.7193  -32.5437   23.1082 H   0  0  0  0  0  0
  -25.0072  -33.9720   25.0401 H   0  0  0  0  0  0
  -22.7217  -31.2962   21.3920 H   0  0  0  0  0  0
  -23.3756  -35.9611   23.3312 H   0  0  0  0  0  0
  -24.3582  -36.8890   22.2057 H   0  0  0  0  0  0
  -23.7232  -37.6471   23.6666 H   0  0  0  0  0  0
  -26.1022  -31.5342   20.6012 H   0  0  0  0  0  0
  -26.8480  -30.8320   22.0044 H   0  0  0  0  0  0
  -28.1319  -28.9570   21.1847 H   0  0  0  0  0  0
  -26.0007  -25.8733   19.0628 H   0  0  0  0  0  0
  -23.9746  -27.2720   19.0404 H   0  0  0  0  0  0
  -23.7708  -30.5735   19.4006 H   0  0  0  0  0  0
  -22.7646  -29.2333   19.8569 H   0  0  0  0  0  0
  -25.1297  -36.1927   25.0812 H   0  0  0  0  0  0
  -20.9978  -28.3264   24.1401 H   0  0  0  0  0  0
  -20.5660  -26.2301   23.3612 H   0  0  0  0  0  0
  -21.6643  -26.7438   22.1210 H   0  0  0  0  0  0
  -19.6909  -25.6295   21.1239 H   0  0  0  0  0  0
  -19.6685  -27.3197   20.6735 H   0  0  0  0  0  0
  -17.4196  -26.6677   21.4024 H   0  0  0  0  0  0
  -18.0338  -26.0069   22.9017 H   0  0  0  0  0  0
  -19.7938  -30.7262   24.2291 H   0  0  0  0  0  0
  -17.5017  -31.6276   24.5159 H   0  0  0  0  0  0
  -15.5351  -30.2996   23.7647 H   0  0  0  0  0  0
  -15.8667  -28.0816   22.7081 H   0  0  0  0  0  0
  -24.5876  -30.7115   25.7752 H   0  0  0  0  0  0
  -24.8919  -32.2935   26.4850 H   0  0  0  0  0  0
  -25.8023  -30.8926   27.0219 H   0  0  0  0  0  0
  -26.2924  -29.6768   24.1196 H   0  0  0  0  0  0
  -27.4011  -29.7274   25.4705 H   0  0  0  0  0  0
  -27.8803  -30.4296   23.9437 H   0  0  0  0  0  0
  -27.2659  -33.3644   26.2051 H   0  0  0  0  0  0
  -28.3866  -32.6891   25.0320 H   0  0  0  0  0  0
  -28.0710  -31.8475   26.5415 H   0  0  0  0  0  0
  -28.2603  -38.0087   24.7502 H   0  0  0  0  0  0
  -28.1072  -36.2613   24.6313 H   0  0  0  0  0  0
  -27.2301  -37.1458   25.8873 H   0  0  0  0  0  0
  -20.9391  -29.8766   21.6876 H   0  0  0  0  0  0
  -26.0174  -38.2845   24.1407 H   0  0  0  0  0  0
  -31.4450  -20.9409   21.5122 H   0  0  0  0  0  0
  -28.3368  -18.2162   20.2772 H   0  0  0  0  0  0
  -27.3061  -20.6792   22.1417 H   0  0  0  0  0  0
  -28.7381  -21.5424   22.6712 H   0  0  0  0  0  0
  -27.3123  -23.3624   22.5881 H   0  0  0  0  0  0
  -26.2917  -22.6705   21.3566 H   0  0  0  0  0  0
  -28.0161  -20.7440   19.8688 H   0  0  0  0  0  0
  -27.3343  -23.6848   19.7018 H   0  0  0  0  0  0
  -34.0180  -18.8826   21.0379 H   0  0  0  0  0  0
  -33.5846  -18.3483   22.6675 H   0  0  0  0  0  0
  -33.5061  -20.0573   22.2450 H   0  0  0  0  0  0
  -30.7395  -24.1278   20.3416 H   0  0  0  0  0  0
  -31.4004  -22.5367   20.1684 H   0  0  0  0  0  0
  -30.6328  -23.0191   21.6966 H   0  0  0  0  0  0
  -28.3646  -22.2944   18.0779 H   0  0  0  0  0  0
  -30.0610  -21.8561   18.2079 H   0  0  0  0  0  0
  -29.5923  -23.5526   18.1558 H   0  0  0  0  0  0
  -29.1888  -25.2204   21.5946 H   0  0  0  0  0  0
  -27.5019  -25.3969   21.7091 H   0  0  0  0  0  0
  -28.8689  -15.7101   20.7043 H   0  0  0  0  0  0
  1 25  1  0  0  0
  1 30  2  0  0  0
  1 86  1  0  0  0
  2  3  1  0  0  0
  2 25  1  0  0  0
  2 87  1  0  0  0
  2 88  1  0  0  0
  3  4  1  0  0  0
  3 89  1  0  0  0
  3 90  1  0  0  0
  4  5  1  0  0  0
  4 91  1  0  0  0
  4 92  1  0  0  0
  5  6  1  0  0  0
  5 26  1  0  0  0
  5 93  1  0  0  0
  6 25  1  0  0  0
  6 94  1  0  0  0
  6 95  1  0  0  0
  7  8  2  0  0  0
  7 26  1  0  0  0
  7 29  1  0  0  0
  8  9  1  0  0  0
  8 22  1  0  0  0
  9 10  1  0  0  0
  9 27  2  0  0  0
 10 11  2  0  0  0
 10 15  1  0  0  0
 11 12  1  0  0  0
 11 96  1  0  0  0
 12 13  2  0  0  0
 12 97  1  0  0  0
 13 14  1  0  0  0
 13 31  1  0  0  0
 14 15  2  0  0  0
 14 98  1  0  0  0
 15 99  1  0  0  0
 16 17  2  0  0  0
 16 21  1  0  0  0
 16 31  1  0  0  0
 17 18  1  0  0  0
 17100  1  0  0  0
 18 19  2  0  0  0
 18101  1  0  0  0
 19 20  1  0  0  0
 19 24  1  0  0  0
 20 21  2  0  0  0
 20102  1  0  0  0
 21 23  1  0  0  0
 22 28  1  0  0  0
 22 32  2  0  0  0
 26 27  1  0  0  0
 28103  1  0  0  0
 28104  1  0  0  0
 29105  1  0  0  0
 29106  1  0  0  0
 33 34  1  0  0  0
 33 66  1  0  0  0
 33 70  2  0  0  0
 34 36  1  0  0  0
 34 59  1  0  0  0
 34107  1  0  0  0
 35 44  2  0  0  0
 35 45  1  0  0  0
 35 68  1  0  0  0
 36 56  1  0  0  0
 36108  1  0  0  0
 37 39  1  0  0  0
 37 47  1  0  0  0
 37 66  1  0  0  0
 37109  1  0  0  0
 38 43  2  0  0  0
 38 46  1  0  0  0
 38 47  1  0  0  0
 39 64  1  0  0  0
 39 67  2  0  0  0
 40 52  1  0  0  0
 40 53  2  0  0  0
 40 58  1  0  0  0
 41110  1  0  0  0
 41111  1  0  0  0
 41112  1  0  0  0
 41 48  1  0  0  0
 42 43  1  0  0  0
 42 66  1  0  0  0
 42113  1  0  0  0
 42114  1  0  0  0
 43 44  1  0  0  0
 44115  1  0  0  0
 45 46  2  0  0  0
 45116  1  0  0  0
 46117  1  0  0  0
 47118  1  0  0  0
 47119  1  0  0  0
 48 56  1  0  0  0
 48 65  1  0  0  0
 48120  1  0  0  0
 49 50  1  0  0  0
 49 53  1  0  0  0
 49 64  1  0  0  0
 49121  1  0  0  0
 50 51  1  0  0  0
 50122  1  0  0  0
 50123  1  0  0  0
 51 52  1  0  0  0
 51124  1  0  0  0
 51125  1  0  0  0
 52126  1  0  0  0
 52127  1  0  0  0
 53 54  1  0  0  0
 54 55  2  0  0  0
 54128  1  0  0  0
 55 57  1  0  0  0
 55129  1  0  0  0
 56 69  2  0  0  0
 57 58  2  0  0  0
 57130  1  0  0  0
 58131  1  0  0  0
 59 60  1  0  0  0
 59 61  1  0  0  0
 59 62  1  0  0  0
 60132  1  0  0  0
 60133  1  0  0  0
 60134  1  0  0  0
 61135  1  0  0  0
 61136  1  0  0  0
 61137  1  0  0  0
 62138  1  0  0  0
 62139  1  0  0  0
 62140  1  0  0  0
 63 65  1  0  0  0
 63141  1  0  0  0
 63142  1  0  0  0
 63143  1  0  0  0
 64144  1  0  0  0
 65145  1  0  0  0
 68 84  1  0  0  0
 71 73  2  0  0  0
 71 74  1  0  0  0
 71146  1  0  0  0
 72 73  1  0  0  0
 72 75  2  0  0  0
 72147  1  0  0  0
 73 78  1  0  0  0
 74 81  1  0  0  0
 74 85  2  0  0  0
 75 85  1  0  0  0
 75 86  1  0  0  0
 76 77  1  0  0  0
 76 78  1  0  0  0
 76148  1  0  0  0
 76149  1  0  0  0
 77 79  1  0  0  0
 77150  1  0  0  0
 77151  1  0  0  0
 78 80  1  0  0  0
 78152  1  0  0  0
 79 80  1  0  0  0
 79 84  1  0  0  0
 79153  1  0  0  0
 80 82  1  0  0  0
 80 83  1  0  0  0
 81154  1  0  0  0
 81155  1  0  0  0
 81156  1  0  0  0
 82157  1  0  0  0
 82158  1  0  0  0
 82159  1  0  0  0
 83160  1  0  0  0
 83161  1  0  0  0
 83162  1  0  0  0
 84163  1  0  0  0
 84164  1  0  0  0
 86165  1  0  0  0
M  ISO  4   1 100  68 101  84 101  86 100
M  END
> <chiral flag>
0

> <version>
0

> <s_m_source_file>
/data/baiqing/PycharmProjects/Reinvent-master-3.2/result/LINK_invent/BTK/process_docking_weight1_custom_sum_contain_oxygen_bond_distance_aromatic_linkinvent_7_9_3/rearranged_h_0171.sdf

> <i_m_source_file_index>
51

> <r_mmod_Potential_Energy-OPLS-2005>
180.15299987793

> <r_mmod_Stretch_Energy-OPLS-2005>
128.925872802734

> <r_mmod_Bend_Energy-OPLS-2005>
220.139572143555

> <r_mmod_Torsional_Energy-OPLS-2005>
299.226440429688

> <r_mmod_Improper_Torsional_Energy-OPLS-2005>
6.00148344039917

> <r_mmod_Van_der_Waal_Energy-OPLS-2005>
142.320495605469

> <r_mmod_Electrostatic_Energy-OPLS-2005>
-469.944915771484

> <r_mmod_Solvation_Energy-OPLS-2005>
-222.831527709961

> <b_mmod_Minimization_Converged-OPLS-2005>
0

> <r_mmod_RMS_Derivative-OPLS-2005>
2.24335145950317

$$$$
51
                    3D
 Structure written by MMmdl.
160169  0  0  1  0            999 V2000
  -30.5938  -14.7766   20.4433 C   0  0  0  0  0  0
  -30.4395  -12.4739   19.4715 C   0  0  0  0  0  0
  -29.5158  -12.5125   18.2337 C   0  0  0  0  0  0
  -28.0426  -12.3249   18.6485 C   0  0  0  0  0  0
  -27.6410  -13.2298   19.8431 C   0  0  2  0  0  0
  -28.6866  -13.1744   20.9782 C   0  0  0  0  0  0
  -25.2515  -13.8189   20.5686 C   0  0  0  0  0  0
  -24.1799  -13.0444   20.9212 C   0  0  0  0  0  0
  -24.6376  -11.6917   20.8735 C   0  0  0  0  0  0
  -23.9044  -10.4302   21.0410 C   0  0  0  0  0  0
  -24.3597   -9.4213   21.9185 C   0  0  0  0  0  0
  -23.6279   -8.2246   22.0757 C   0  0  0  0  0  0
  -22.4260   -8.0283   21.3556 C   0  0  0  0  0  0
  -21.9897   -9.0252   20.4653 C   0  0  0  0  0  0
  -22.7216  -10.2134   20.3057 C   0  0  0  0  0  0
  -21.6854   -6.0726   22.5280 C   0  0  0  0  0  0
  -21.4015   -6.5627   23.8212 C   0  0  0  0  0  0
  -21.3664   -5.6776   24.9172 C   0  0  0  0  0  0
  -21.6044   -4.3042   24.7224 C   0  0  0  0  0  0
  -21.8815   -3.8138   23.4341 C   0  0  0  0  0  0
  -21.9197   -4.6954   22.3403 C   0  0  0  0  0  0
  -22.7820  -13.5246   21.1861 C   0  0  0  0  0  0
  -22.1662   -4.2140   21.0974 F   0  0  0  0  0  0
  -21.5634   -3.4520   25.7735 F   0  0  0  0  0  0
  -29.9845  -13.5392   20.3949 N   0  0  0  0  0  0
  -26.2930  -12.9388   20.3228 N   0  0  0  0  0  0
  -25.9301  -11.6534   20.5702 N   0  0  0  0  0  0
  -22.0434  -12.8262   22.0408 N   0  0  0  0  0  0
  -25.4213  -15.1912   20.4108 N   0  0  0  0  0  0
  -31.7854  -14.8847   20.1450 O   0  0  0  0  0  0
  -21.6637   -6.8865   21.4241 O   0  0  0  0  0  0
  -22.3522  -14.5548   20.6684 O   0  0  0  0  0  0
  -24.6357  -31.8530   23.1970 C   0  0  0  0  0  0
  -25.9167  -32.4740   23.8324 C   0  0  1  0  0  0
  -27.2197  -27.2328   20.1147 C   0  0  0  0  0  0
  -25.5958  -33.8542   24.2249 N   0  0  0  0  0  0
  -23.4330  -30.4765   21.5426 C   0  0  2  0  0  0
  -24.8801  -28.9235   20.1096 C   0  0  0  0  0  0
  -22.7524  -29.4589   22.4912 C   0  0  0  0  0  0
  -18.0291  -28.1378   22.8483 C   0  0  0  0  0  0
  -24.1493  -36.7261   23.2632 C   0  0  0  0  0  0
  -25.9840  -30.7540   21.3850 C   0  0  0  0  0  0
  -26.0560  -29.3758   20.7226 C   0  0  0  0  0  0
  -27.2270  -28.5429   20.7156 C   0  0  0  0  0  0
  -26.0187  -26.8674   19.4620 C   0  0  0  0  0  0
  -24.8694  -27.6782   19.4680 C   0  0  0  0  0  0
  -23.6519  -29.8118   20.1597 C   0  0  0  0  0  0
  -25.4121  -36.3057   24.0321 C   0  0  1  0  0  0
  -20.5903  -28.3692   23.1261 C   0  0  2  0  0  0
  -20.6781  -26.9406   22.5400 C   0  0  0  0  0  0
  -19.5751  -26.6375   21.5204 C   0  0  0  0  0  0
  -18.1933  -26.7919   22.1619 C   0  0  0  0  0  0
  -19.1547  -28.8854   23.2862 C   0  0  0  0  0  0
  -18.9473  -30.1461   23.8864 C   0  0  0  0  0  0
  -17.6466  -30.6588   24.0544 C   0  0  0  0  0  0
  -25.9070  -34.9429   23.5087 C   0  0  0  0  0  0
  -16.5357  -29.9074   23.6336 C   0  0  0  0  0  0
  -16.7280  -28.6488   23.0358 C   0  0  0  0  0  0
  -26.4523  -31.6567   25.0723 C   0  0  0  0  0  0
  -25.3729  -31.3740   26.1437 C   0  0  0  0  0  0
  -27.0360  -30.2967   24.6239 C   0  0  0  0  0  0
  -27.6084  -32.4305   25.7492 C   0  0  0  0  0  0
  -27.5592  -37.1772   24.8452 C   0  0  0  0  0  0
  -21.4227  -29.3040   22.3651 N   0  0  0  0  0  0
  -26.4284  -37.3773   23.9427 N   0  0  0  0  0  0
  -24.7032  -31.0470   22.0965 N   0  0  0  0  0  0
  -23.4212  -28.8123   23.3016 O   0  0  0  0  0  0
  -28.2943  -26.2959   20.1741 O   0  0  0  0  0  0
  -26.5633  -34.8905   22.4650 O   0  0  0  0  0  0
  -23.5496  -32.1359   23.7251 O   0  0  0  0  0  0
  -28.6405  -21.3284   18.7589 C   0  0  0  0  0  0
  -29.1660  -18.4045   21.3485 C   0  0  0  0  0  0
  -29.6861  -18.3251   19.4086 C   0  0  0  0  0  0
  -28.1674  -22.1139   19.9630 C   0  0  1  0  0  0
  -30.1228  -17.4185   20.6045 C   0  0  2  0  0  0
  -28.2661  -20.4736   19.9520 C   0  0  1  0  0  0
  -26.8972  -19.7854   19.9754 C   0  0  0  0  0  0
  -29.3158  -23.5512   21.7624 C   0  0  0  0  0  0
  -27.9937  -24.8279   19.9260 C   0  0  0  0  0  0
  -28.9050  -23.5079   20.2881 C   0  0  2  0  0  0
  -29.7969  -15.9049   20.6224 N   0  0  0  0  0  0
  -29.4237  -19.4940   20.3337 N   0  3  1  0  0  0
  -31.4793  -12.6085   19.1706 H   0  0  0  0  0  0
  -30.3933  -11.4986   19.9599 H   0  0  0  0  0  0
  -29.8102  -11.7431   17.5182 H   0  0  0  0  0  0
  -29.6319  -13.4672   17.7180 H   0  0  0  0  0  0
  -27.9076  -11.2774   18.9206 H   0  0  0  0  0  0
  -27.3845  -12.5041   17.7982 H   0  0  0  0  0  0
  -27.6311  -14.2466   19.4509 H   0  0  0  0  0  0
  -28.7287  -12.1757   21.4169 H   0  0  0  0  0  0
  -28.4135  -13.8517   21.7885 H   0  0  0  0  0  0
  -25.2734   -9.5702   22.4754 H   0  0  0  0  0  0
  -23.9995   -7.4645   22.7470 H   0  0  0  0  0  0
  -21.0836   -8.8761   19.8963 H   0  0  0  0  0  0
  -22.3667  -10.9665   19.6163 H   0  0  0  0  0  0
  -21.2001   -7.6136   23.9711 H   0  0  0  0  0  0
  -21.1493   -6.0504   25.9070 H   0  0  0  0  0  0
  -22.0594   -2.7603   23.2838 H   0  0  0  0  0  0
  -22.4004  -11.9932   22.4840 H   0  0  0  0  0  0
  -21.1053  -13.1332   22.2573 H   0  0  0  0  0  0
  -24.6455  -15.8369   20.5083 H   0  0  0  0  0  0
  -26.2508  -15.6257   20.0308 H   0  0  0  0  0  0
  -26.7226  -32.5378   23.1055 H   0  0  0  0  0  0
  -25.0127  -33.9678   25.0410 H   0  0  0  0  0  0
  -22.7300  -31.2995   21.3975 H   0  0  0  0  0  0
  -23.3777  -35.9565   23.3242 H   0  0  0  0  0  0
  -24.3595  -36.8933   22.2057 H   0  0  0  0  0  0
  -23.7211  -37.6429   23.6689 H   0  0  0  0  0  0
  -26.1339  -31.5156   20.6184 H   0  0  0  0  0  0
  -26.8577  -30.7975   22.0241 H   0  0  0  0  0  0
  -28.1229  -28.8829   21.2163 H   0  0  0  0  0  0
  -25.9253  -25.9247   18.9458 H   0  0  0  0  0  0
  -23.9737  -27.3303   18.9733 H   0  0  0  0  0  0
  -23.7722  -30.5866   19.4014 H   0  0  0  0  0  0
  -22.7695  -29.2437   19.8594 H   0  0  0  0  0  0
  -25.1301  -36.1886   25.0810 H   0  0  0  0  0  0
  -20.9998  -28.3267   24.1381 H   0  0  0  0  0  0
  -20.5683  -26.2300   23.3609 H   0  0  0  0  0  0
  -21.6649  -26.7431   22.1195 H   0  0  0  0  0  0
  -19.6913  -25.6282   21.1245 H   0  0  0  0  0  0
  -19.6687  -27.3178   20.6726 H   0  0  0  0  0  0
  -17.4209  -26.6667   21.4011 H   0  0  0  0  0  0
  -18.0326  -26.0067   22.9022 H   0  0  0  0  0  0
  -19.7948  -30.7285   24.2216 H   0  0  0  0  0  0
  -17.5023  -31.6265   24.5145 H   0  0  0  0  0  0
  -15.5355  -30.2956   23.7684 H   0  0  0  0  0  0
  -15.8680  -28.0799   22.7086 H   0  0  0  0  0  0
  -24.5893  -30.7103   25.7762 H   0  0  0  0  0  0
  -24.8926  -32.2910   26.4853 H   0  0  0  0  0  0
  -25.8026  -30.8912   27.0222 H   0  0  0  0  0  0
  -26.2941  -29.6710   24.1258 H   0  0  0  0  0  0
  -27.4007  -29.7249   25.4785 H   0  0  0  0  0  0
  -27.8847  -30.4209   23.9509 H   0  0  0  0  0  0
  -27.2716  -33.3630   26.2035 H   0  0  0  0  0  0
  -28.3911  -32.6821   25.0320 H   0  0  0  0  0  0
  -28.0728  -31.8437   26.5429 H   0  0  0  0  0  0
  -28.2560  -38.0124   24.7596 H   0  0  0  0  0  0
  -28.1142  -36.2659   24.6159 H   0  0  0  0  0  0
  -27.2320  -37.1274   25.8854 H   0  0  0  0  0  0
  -20.9420  -29.8752   21.6845 H   0  0  0  0  0  0
  -26.0148  -38.2830   24.1475 H   0  0  0  0  0  0
  -29.6970  -21.4084   18.5065 H   0  0  0  0  0  0
  -27.9827  -21.3059   17.8921 H   0  0  0  0  0  0
  -29.4949  -18.6694   22.3534 H   0  0  0  0  0  0
  -28.1424  -18.0296   21.3718 H   0  0  0  0  0  0
  -28.8022  -17.9548   18.8883 H   0  0  0  0  0  0
  -30.4827  -18.5291   18.6929 H   0  0  0  0  0  0
  -27.1082  -22.3616   19.9802 H   0  0  0  0  0  0
  -31.1627  -17.6177   20.8749 H   0  0  0  0  0  0
  -26.1436  -20.4147   19.5013 H   0  0  0  0  0  0
  -26.5686  -19.6151   21.0010 H   0  0  0  0  0  0
  -26.8945  -18.8405   19.4351 H   0  0  0  0  0  0
  -29.9631  -22.7108   22.0156 H   0  0  0  0  0  0
  -28.4451  -23.5163   22.4185 H   0  0  0  0  0  0
  -29.8645  -24.4664   21.9871 H   0  0  0  0  0  0
  -27.0444  -24.6386   20.4280 H   0  0  0  0  0  0
  -27.7859  -24.7469   18.8590 H   0  0  0  0  0  0
  -29.8154  -23.5523   19.6890 H   0  0  0  0  0  0
  -28.8320  -15.6778   20.8106 H   0  0  0  0  0  0
  -30.2842  -19.9765   20.5461 H   0  0  0  0  0  0
  1 25  1  0  0  0
  1 30  2  0  0  0
  1 81  1  0  0  0
  2  3  1  0  0  0
  2 25  1  0  0  0
  2 83  1  0  0  0
  2 84  1  0  0  0
  3  4  1  0  0  0
  3 85  1  0  0  0
  3 86  1  0  0  0
  4  5  1  0  0  0
  4 87  1  0  0  0
  4 88  1  0  0  0
  5  6  1  0  0  0
  5 26  1  0  0  0
  5 89  1  0  0  0
  6 25  1  0  0  0
  6 90  1  0  0  0
  6 91  1  0  0  0
  7  8  2  0  0  0
  7 26  1  0  0  0
  7 29  1  0  0  0
  8  9  1  0  0  0
  8 22  1  0  0  0
  9 10  1  0  0  0
  9 27  2  0  0  0
 10 11  2  0  0  0
 10 15  1  0  0  0
 11 12  1  0  0  0
 11 92  1  0  0  0
 12 13  2  0  0  0
 12 93  1  0  0  0
 13 14  1  0  0  0
 13 31  1  0  0  0
 14 15  2  0  0  0
 14 94  1  0  0  0
 15 95  1  0  0  0
 16 17  2  0  0  0
 16 21  1  0  0  0
 16 31  1  0  0  0
 17 18  1  0  0  0
 17 96  1  0  0  0
 18 19  2  0  0  0
 18 97  1  0  0  0
 19 20  1  0  0  0
 19 24  1  0  0  0
 20 21  2  0  0  0
 20 98  1  0  0  0
 21 23  1  0  0  0
 22 28  1  0  0  0
 22 32  2  0  0  0
 26 27  1  0  0  0
 28 99  1  0  0  0
 28100  1  0  0  0
 29101  1  0  0  0
 29102  1  0  0  0
 33 34  1  0  0  0
 33 66  1  0  0  0
 33 70  2  0  0  0
 34 36  1  0  0  0
 34 59  1  0  0  0
 34103  1  0  0  0
 35 44  2  0  0  0
 35 45  1  0  0  0
 35 68  1  0  0  0
 36 56  1  0  0  0
 36104  1  0  0  0
 37 39  1  0  0  0
 37 47  1  0  0  0
 37 66  1  0  0  0
 37105  1  0  0  0
 38 43  2  0  0  0
 38 46  1  0  0  0
 38 47  1  0  0  0
 39 64  1  0  0  0
 39 67  2  0  0  0
 40 52  1  0  0  0
 40 53  2  0  0  0
 40 58  1  0  0  0
 41106  1  0  0  0
 41107  1  0  0  0
 41108  1  0  0  0
 41 48  1  0  0  0
 42 43  1  0  0  0
 42 66  1  0  0  0
 42109  1  0  0  0
 42110  1  0  0  0
 43 44  1  0  0  0
 44111  1  0  0  0
 45 46  2  0  0  0
 45112  1  0  0  0
 46113  1  0  0  0
 47114  1  0  0  0
 47115  1  0  0  0
 48 56  1  0  0  0
 48 65  1  0  0  0
 48116  1  0  0  0
 49 50  1  0  0  0
 49 53  1  0  0  0
 49 64  1  0  0  0
 49117  1  0  0  0
 50 51  1  0  0  0
 50118  1  0  0  0
 50119  1  0  0  0
 51 52  1  0  0  0
 51120  1  0  0  0
 51121  1  0  0  0
 52122  1  0  0  0
 52123  1  0  0  0
 53 54  1  0  0  0
 54 55  2  0  0  0
 54124  1  0  0  0
 55 57  1  0  0  0
 55125  1  0  0  0
 56 69  2  0  0  0
 57 58  2  0  0  0
 57126  1  0  0  0
 58127  1  0  0  0
 59 60  1  0  0  0
 59 61  1  0  0  0
 59 62  1  0  0  0
 60128  1  0  0  0
 60129  1  0  0  0
 60130  1  0  0  0
 61131  1  0  0  0
 61132  1  0  0  0
 61133  1  0  0  0
 62134  1  0  0  0
 62135  1  0  0  0
 62136  1  0  0  0
 63 65  1  0  0  0
 63137  1  0  0  0
 63138  1  0  0  0
 63139  1  0  0  0
 64140  1  0  0  0
 65141  1  0  0  0
 68 79  1  0  0  0
 71 76  1  0  0  0
 71142  1  0  0  0
 71143  1  0  0  0
 71 74  1  0  0  0
 72 75  1  0  0  0
 72144  1  0  0  0
 72145  1  0  0  0
 72 82  1  0  0  0
 73 75  1  0  0  0
 73 82  1  0  0  0
 73146  1  0  0  0
 73147  1  0  0  0
 74 76  1  0  0  0
 74 80  1  0  0  0
 74148  1  0  0  0
 75 81  1  0  0  0
 75149  1  0  0  0
 76 77  1  0  0  0
 76 82  1  0  0  0
 77150  1  0  0  0
 77151  1  0  0  0
 77152  1  0  0  0
 78153  1  0  0  0
 78154  1  0  0  0
 78155  1  0  0  0
 78 80  1  0  0  0
 79 80  1  0  0  0
 79156  1  0  0  0
 79157  1  0  0  0
 80158  1  0  0  0
 81159  1  0  0  0
 82160  1  0  0  0
M  CHG  1  82   1
M  ISO  4   1 100  68 101  79 101  81 100
M  END
> <chiral flag>
0

> <version>
0

> <s_m_source_file>
/data/baiqing/PycharmProjects/Reinvent-master-3.2/result/LINK_invent/BTK/process_docking_weight1_custom_sum_contain_oxygen_bond_distance_aromatic_linkinvent_7_9_3/rearranged_h_0171.sdf

> <i_m_source_file_index>
52

> <r_mmod_Potential_Energy-OPLS-2005>
301.602478027344

> <r_mmod_Stretch_Energy-OPLS-2005>
157.860824584961

> <r_mmod_Bend_Energy-OPLS-2005>
297.549591064453

> <r_mmod_Torsional_Energy-OPLS-2005>
323.820770263672

> <r_mmod_Improper_Torsional_Energy-OPLS-2005>
4.77074003219604

> <r_mmod_Van_der_Waal_Energy-OPLS-2005>
127.153038024902

> <r_mmod_Electrostatic_Energy-OPLS-2005>
-240.161087036133

> <r_mmod_Solvation_Energy-OPLS-2005>
-473.533874511719

> <b_mmod_Minimization_Converged-OPLS-2005>
0

> <r_mmod_RMS_Derivative-OPLS-2005>
1.89876985549927

$$$$
52
                    3D
 Structure written by MMmdl.
157167  0  0  1  0            999 V2000
  -30.6460  -14.7073   20.3671 C   0  0  0  0  0  0
  -30.4255  -12.3981   19.4754 C   0  0  0  0  0  0
  -29.5075  -12.3899   18.2342 C   0  0  0  0  0  0
  -28.0239  -12.2893   18.6478 C   0  0  0  0  0  0
  -27.6331  -13.2106   19.8376 C   0  0  2  0  0  0
  -28.6880  -13.1952   20.9639 C   0  0  0  0  0  0
  -25.2532  -13.8143   20.5741 C   0  0  0  0  0  0
  -24.1800  -13.0424   20.9232 C   0  0  0  0  0  0
  -24.6359  -11.6891   20.8786 C   0  0  0  0  0  0
  -23.9040  -10.4284   21.0435 C   0  0  0  0  0  0
  -24.3605   -9.4205   21.9205 C   0  0  0  0  0  0
  -23.6290   -8.2238   22.0759 C   0  0  0  0  0  0
  -22.4272   -8.0277   21.3547 C   0  0  0  0  0  0
  -21.9905   -9.0249   20.4650 C   0  0  0  0  0  0
  -22.7223  -10.2133   20.3072 C   0  0  0  0  0  0
  -21.6854   -6.0739   22.5284 C   0  0  0  0  0  0
  -21.4008   -6.5640   23.8216 C   0  0  0  0  0  0
  -21.3663   -5.6791   24.9180 C   0  0  0  0  0  0
  -21.6051   -4.3053   24.7229 C   0  0  0  0  0  0
  -21.8817   -3.8148   23.4348 C   0  0  0  0  0  0
  -21.9193   -4.6967   22.3406 C   0  0  0  0  0  0
  -22.7833  -13.5233   21.1886 C   0  0  0  0  0  0
  -22.1663   -4.2153   21.0984 F   0  0  0  0  0  0
  -21.5636   -3.4537   25.7743 F   0  0  0  0  0  0
  -29.9844  -13.5028   20.3517 N   0  0  0  0  0  0
  -26.2913  -12.9295   20.3305 N   0  0  0  0  0  0
  -25.9281  -11.6470   20.5818 N   0  0  0  0  0  0
  -22.0465  -12.8228   22.0427 N   0  0  0  0  0  0
  -25.4267  -15.1872   20.4200 N   0  0  0  0  0  0
  -31.8716  -14.7329   20.2381 O   0  0  0  0  0  0
  -21.6637   -6.8877   21.4243 O   0  0  0  0  0  0
  -22.3543  -14.5553   20.6739 O   0  0  0  0  0  0
  -24.6256  -31.8594   23.2026 C   0  0  0  0  0  0
  -25.9102  -32.4777   23.8353 C   0  0  1  0  0  0
  -27.2199  -27.3212   20.1237 C   0  0  0  0  0  0
  -25.5920  -33.8578   24.2277 N   0  0  0  0  0  0
  -23.4197  -30.4821   21.5454 C   0  0  2  0  0  0
  -24.8667  -28.9388   20.1090 C   0  0  0  0  0  0
  -22.7475  -29.4614   22.4944 C   0  0  0  0  0  0
  -18.0283  -28.1381   22.8490 C   0  0  0  0  0  0
  -24.1488  -36.7293   23.2637 C   0  0  0  0  0  0
  -25.9602  -30.7926   21.3719 C   0  0  0  0  0  0
  -26.0361  -29.4211   20.7114 C   0  0  0  0  0  0
  -27.2197  -28.6256   20.7041 C   0  0  0  0  0  0
  -26.0325  -26.8896   19.4943 C   0  0  0  0  0  0
  -24.8675  -27.6799   19.4875 C   0  0  0  0  0  0
  -23.6335  -29.8173   20.1602 C   0  0  0  0  0  0
  -25.4112  -36.3084   24.0326 C   0  0  1  0  0  0
  -20.5882  -28.3683   23.1292 C   0  0  2  0  0  0
  -20.6770  -26.9406   22.5417 C   0  0  0  0  0  0
  -19.5750  -26.6383   21.5218 C   0  0  0  0  0  0
  -18.1927  -26.7927   22.1627 C   0  0  0  0  0  0
  -19.1534  -28.8852   23.2883 C   0  0  0  0  0  0
  -18.9456  -30.1458   23.8892 C   0  0  0  0  0  0
  -17.6455  -30.6585   24.0566 C   0  0  0  0  0  0
  -25.9052  -34.9452   23.5104 C   0  0  0  0  0  0
  -16.5347  -29.9083   23.6333 C   0  0  0  0  0  0
  -16.7271  -28.6502   23.0352 C   0  0  0  0  0  0
  -26.4489  -31.6589   25.0725 C   0  0  0  0  0  0
  -25.3727  -31.3723   26.1459 C   0  0  0  0  0  0
  -27.0331  -30.3014   24.6177 C   0  0  0  0  0  0
  -27.6055  -32.4327   25.7488 C   0  0  0  0  0  0
  -27.5585  -37.1793   24.8456 C   0  0  0  0  0  0
  -21.4189  -29.3033   22.3687 N   0  0  0  0  0  0
  -26.4285  -37.3785   23.9418 N   0  0  0  0  0  0
  -24.6874  -31.0613   22.0970 N   0  0  0  0  0  0
  -23.4199  -28.8151   23.3020 O   0  0  0  0  0  0
  -28.3163  -26.4516   20.1855 O   0  0  0  0  0  0
  -26.5624  -34.8918   22.4672 O   0  0  0  0  0  0
  -23.5422  -32.1386   23.7359 O   0  0  0  0  0  0
  -30.2439  -21.0775   21.0563 C   0  0  0  0  0  0
  -28.6309  -19.1853   19.9311 C   0  0  0  0  0  0
  -29.8973  -18.7079   20.3734 C   0  0  0  0  0  0
  -30.6944  -19.7297   20.9746 C   0  0  0  0  0  0
  -28.9873  -21.4498   20.5395 C   0  0  0  0  0  0
  -30.3957  -17.0055   18.4920 C   0  0  0  0  0  0
  -29.1144  -24.1700   21.2406 C   0  0  0  0  0  0
  -27.9757  -23.8866   19.5388 C   0  0  0  0  0  0
  -29.2603  -16.0671   18.8713 C   0  0  0  0  0  0
  -30.5213  -17.2866   19.9836 C   0  0  2  0  0  0
  -28.3896  -22.9012   20.6824 C   0  0  1  0  0  0
  -28.0138  -25.0535   20.5763 C   0  0  2  0  0  0
  -28.1938  -20.4822   20.0112 N   0  0  0  0  0  0
  -29.9139  -15.8849   20.1823 N   0  0  0  0  0  0
  -32.2704  -19.3862   21.5971 Cl  0  0  0  0  0  0
  -31.4684  -12.4980   19.1697 H   0  0  0  0  0  0
  -30.3571  -11.4474   20.0074 H   0  0  0  0  0  0
  -29.7590  -11.5387   17.5992 H   0  0  0  0  0  0
  -29.6865  -13.2619   17.6107 H   0  0  0  0  0  0
  -27.8479  -11.2495   18.9254 H   0  0  0  0  0  0
  -27.3784  -12.4797   17.7896 H   0  0  0  0  0  0
  -27.5921  -14.2143   19.4316 H   0  0  0  0  0  0
  -28.7197  -12.2260   21.4638 H   0  0  0  0  0  0
  -28.4430  -13.9359   21.7272 H   0  0  0  0  0  0
  -25.2745   -9.5695   22.4781 H   0  0  0  0  0  0
  -24.0009   -7.4630   22.7476 H   0  0  0  0  0  0
  -21.0842   -8.8770   19.8954 H   0  0  0  0  0  0
  -22.3682  -10.9685   19.6188 H   0  0  0  0  0  0
  -21.1986   -7.6144   23.9719 H   0  0  0  0  0  0
  -21.1494   -6.0524   25.9085 H   0  0  0  0  0  0
  -22.0590   -2.7608   23.2848 H   0  0  0  0  0  0
  -22.4061  -11.9872   22.4802 H   0  0  0  0  0  0
  -21.1085  -13.1271   22.2625 H   0  0  0  0  0  0
  -24.6670  -15.8460   20.5540 H   0  0  0  0  0  0
  -26.2964  -15.6314   20.1553 H   0  0  0  0  0  0
  -26.7172  -32.5445   23.1105 H   0  0  0  0  0  0
  -25.0061  -33.9726   25.0416 H   0  0  0  0  0  0
  -22.7130  -31.3022   21.4032 H   0  0  0  0  0  0
  -23.3764  -35.9611   23.3273 H   0  0  0  0  0  0
  -24.3584  -36.8950   22.2060 H   0  0  0  0  0  0
  -23.7223  -37.6475   23.6682 H   0  0  0  0  0  0
  -26.0909  -31.5585   20.6060 H   0  0  0  0  0  0
  -26.8405  -30.8403   22.0011 H   0  0  0  0  0  0
  -28.1169  -28.9886   21.1854 H   0  0  0  0  0  0
  -25.9921  -25.9204   19.0177 H   0  0  0  0  0  0
  -23.9722  -27.3069   19.0091 H   0  0  0  0  0  0
  -23.7492  -30.5946   19.4040 H   0  0  0  0  0  0
  -22.7538  -29.2452   19.8597 H   0  0  0  0  0  0
  -25.1290  -36.1931   25.0818 H   0  0  0  0  0  0
  -20.9965  -28.3251   24.1418 H   0  0  0  0  0  0
  -20.5681  -26.2285   23.3610 H   0  0  0  0  0  0
  -21.6637  -26.7443   22.1206 H   0  0  0  0  0  0
  -19.6911  -25.6297   21.1242 H   0  0  0  0  0  0
  -19.6689  -27.3198   20.6750 H   0  0  0  0  0  0
  -17.4199  -26.6682   21.4022 H   0  0  0  0  0  0
  -18.0320  -26.0065   22.9015 H   0  0  0  0  0  0
  -19.7928  -30.7281   24.2252 H   0  0  0  0  0  0
  -17.5007  -31.6262   24.5173 H   0  0  0  0  0  0
  -15.5347  -30.2984   23.7662 H   0  0  0  0  0  0
  -15.8669  -28.0826   22.7063 H   0  0  0  0  0  0
  -24.5891  -30.7086   25.7784 H   0  0  0  0  0  0
  -24.8927  -32.2887   26.4903 H   0  0  0  0  0  0
  -25.8054  -30.8881   27.0223 H   0  0  0  0  0  0
  -26.2897  -29.6765   24.1212 H   0  0  0  0  0  0
  -27.4041  -29.7275   25.4677 H   0  0  0  0  0  0
  -27.8762  -30.4305   23.9387 H   0  0  0  0  0  0
  -27.2675  -33.3645   26.2035 H   0  0  0  0  0  0
  -28.3868  -32.6861   25.0310 H   0  0  0  0  0  0
  -28.0711  -31.8468   26.5422 H   0  0  0  0  0  0
  -28.2571  -38.0122   24.7559 H   0  0  0  0  0  0
  -28.1114  -36.2658   24.6212 H   0  0  0  0  0  0
  -27.2313  -37.1359   25.8859 H   0  0  0  0  0  0
  -20.9365  -29.8755   21.6898 H   0  0  0  0  0  0
  -26.0164  -38.2850   24.1459 H   0  0  0  0  0  0
  -30.8754  -21.8228   21.5179 H   0  0  0  0  0  0
  -27.9444  -18.5338   19.4168 H   0  0  0  0  0  0
  -30.1097  -17.8510   17.8647 H   0  0  0  0  0  0
  -31.2577  -16.4821   18.0729 H   0  0  0  0  0  0
  -30.1052  -24.3229   20.8081 H   0  0  0  0  0  0
  -29.1516  -24.2208   22.3285 H   0  0  0  0  0  0
  -26.9958  -23.6793   19.1085 H   0  0  0  0  0  0
  -28.7336  -23.9808   18.7586 H   0  0  0  0  0  0
  -29.2262  -15.2077   18.2109 H   0  0  0  0  0  0
  -28.2725  -16.5210   18.9231 H   0  0  0  0  0  0
  -31.5808  -17.2912   20.2355 H   0  0  0  0  0  0
  -27.5086  -22.7350   21.3070 H   0  0  0  0  0  0
  -27.1214  -25.0338   21.2092 H   0  0  0  0  0  0
  1 25  1  0  0  0
  1 30  2  0  0  0
  1 84  1  0  0  0
  2  3  1  0  0  0
  2 25  1  0  0  0
  2 86  1  0  0  0
  2 87  1  0  0  0
  3  4  1  0  0  0
  3 88  1  0  0  0
  3 89  1  0  0  0
  4  5  1  0  0  0
  4 90  1  0  0  0
  4 91  1  0  0  0
  5  6  1  0  0  0
  5 26  1  0  0  0
  5 92  1  0  0  0
  6 25  1  0  0  0
  6 93  1  0  0  0
  6 94  1  0  0  0
  7  8  2  0  0  0
  7 26  1  0  0  0
  7 29  1  0  0  0
  8  9  1  0  0  0
  8 22  1  0  0  0
  9 10  1  0  0  0
  9 27  2  0  0  0
 10 11  2  0  0  0
 10 15  1  0  0  0
 11 12  1  0  0  0
 11 95  1  0  0  0
 12 13  2  0  0  0
 12 96  1  0  0  0
 13 14  1  0  0  0
 13 31  1  0  0  0
 14 15  2  0  0  0
 14 97  1  0  0  0
 15 98  1  0  0  0
 16 17  2  0  0  0
 16 21  1  0  0  0
 16 31  1  0  0  0
 17 18  1  0  0  0
 17 99  1  0  0  0
 18 19  2  0  0  0
 18100  1  0  0  0
 19 20  1  0  0  0
 19 24  1  0  0  0
 20 21  2  0  0  0
 20101  1  0  0  0
 21 23  1  0  0  0
 22 28  1  0  0  0
 22 32  2  0  0  0
 26 27  1  0  0  0
 28102  1  0  0  0
 28103  1  0  0  0
 29104  1  0  0  0
 29105  1  0  0  0
 33 34  1  0  0  0
 33 66  1  0  0  0
 33 70  2  0  0  0
 34 36  1  0  0  0
 34 59  1  0  0  0
 34106  1  0  0  0
 35 44  2  0  0  0
 35 45  1  0  0  0
 35 68  1  0  0  0
 36 56  1  0  0  0
 36107  1  0  0  0
 37 39  1  0  0  0
 37 47  1  0  0  0
 37 66  1  0  0  0
 37108  1  0  0  0
 38 43  2  0  0  0
 38 46  1  0  0  0
 38 47  1  0  0  0
 39 64  1  0  0  0
 39 67  2  0  0  0
 40 52  1  0  0  0
 40 53  2  0  0  0
 40 58  1  0  0  0
 41109  1  0  0  0
 41110  1  0  0  0
 41111  1  0  0  0
 41 48  1  0  0  0
 42 43  1  0  0  0
 42 66  1  0  0  0
 42112  1  0  0  0
 42113  1  0  0  0
 43 44  1  0  0  0
 44114  1  0  0  0
 45 46  2  0  0  0
 45115  1  0  0  0
 46116  1  0  0  0
 47117  1  0  0  0
 47118  1  0  0  0
 48 56  1  0  0  0
 48 65  1  0  0  0
 48119  1  0  0  0
 49 50  1  0  0  0
 49 53  1  0  0  0
 49 64  1  0  0  0
 49120  1  0  0  0
 50 51  1  0  0  0
 50121  1  0  0  0
 50122  1  0  0  0
 51 52  1  0  0  0
 51123  1  0  0  0
 51124  1  0  0  0
 52125  1  0  0  0
 52126  1  0  0  0
 53 54  1  0  0  0
 54 55  2  0  0  0
 54127  1  0  0  0
 55 57  1  0  0  0
 55128  1  0  0  0
 56 69  2  0  0  0
 57 58  2  0  0  0
 57129  1  0  0  0
 58130  1  0  0  0
 59 60  1  0  0  0
 59 61  1  0  0  0
 59 62  1  0  0  0
 60131  1  0  0  0
 60132  1  0  0  0
 60133  1  0  0  0
 61134  1  0  0  0
 61135  1  0  0  0
 61136  1  0  0  0
 62137  1  0  0  0
 62138  1  0  0  0
 62139  1  0  0  0
 63 65  1  0  0  0
 63140  1  0  0  0
 63141  1  0  0  0
 63142  1  0  0  0
 64143  1  0  0  0
 65144  1  0  0  0
 68 82  1  0  0  0
 71 74  2  0  0  0
 71 75  1  0  0  0
 71145  1  0  0  0
 72 73  2  0  0  0
 72 83  1  0  0  0
 72146  1  0  0  0
 73 74  1  0  0  0
 73 80  1  0  0  0
 74 85  1  0  0  0
 75 83  2  0  0  0
 75 81  1  0  0  0
 76 79  1  0  0  0
 76 80  1  0  0  0
 76147  1  0  0  0
 76148  1  0  0  0
 77 81  1  0  0  0
 77 82  1  0  0  0
 77149  1  0  0  0
 77150  1  0  0  0
 78 81  1  0  0  0
 78 82  1  0  0  0
 78151  1  0  0  0
 78152  1  0  0  0
 79 84  1  0  0  0
 79153  1  0  0  0
 79154  1  0  0  0
 80 84  1  0  0  0
 80155  1  0  0  0
 81156  1  0  0  0
 82157  1  0  0  0
M  ISO  4   1 100  68 101  82 101  84 100
M  END
> <chiral flag>
0

> <version>
0

> <s_m_source_file>
/data/baiqing/PycharmProjects/Reinvent-master-3.2/result/LINK_invent/BTK/process_docking_weight1_custom_sum_contain_oxygen_bond_distance_aromatic_linkinvent_7_9_3/rearranged_h_0171.sdf

> <i_m_source_file_index>
53

> <r_mmod_Potential_Energy-OPLS-2005>
145.331359863281

> <r_mmod_Stretch_Energy-OPLS-2005>
93.8494644165039

> <r_mmod_Bend_Energy-OPLS-2005>
196.689849853516

> <r_mmod_Torsional_Energy-OPLS-2005>
301.218994140625

> <r_mmod_Improper_Torsional_Energy-OPLS-2005>
18.4118995666504

> <r_mmod_Van_der_Waal_Energy-OPLS-2005>
157.46614074707

> <r_mmod_Electrostatic_Energy-OPLS-2005>
-487.828552246094

> <r_mmod_Solvation_Energy-OPLS-2005>
-211.298934936523

> <b_mmod_Minimization_Converged-OPLS-2005>
0

> <r_mmod_RMS_Derivative-OPLS-2005>
1.0012024641037

$$$$
53
                    3D
 Structure written by MMmdl.
174183  0  0  1  0            999 V2000
  -30.6106  -14.6662   20.5067 C   0  0  0  0  0  0
  -30.4391  -12.4172   19.4446 C   0  0  0  0  0  0
  -29.5045  -12.5091   18.2182 C   0  0  0  0  0  0
  -28.0288  -12.3400   18.6344 C   0  0  0  0  0  0
  -27.6471  -13.2177   19.8560 C   0  0  2  0  0  0
  -28.6934  -13.0890   20.9835 C   0  0  0  0  0  0
  -25.2544  -13.8165   20.5702 C   0  0  0  0  0  0
  -24.1820  -13.0435   20.9224 C   0  0  0  0  0  0
  -24.6384  -11.6904   20.8749 C   0  0  0  0  0  0
  -23.9050  -10.4288   21.0407 C   0  0  0  0  0  0
  -24.3601   -9.4209   21.9186 C   0  0  0  0  0  0
  -23.6283   -8.2240   22.0753 C   0  0  0  0  0  0
  -22.4269   -8.0274   21.3541 C   0  0  0  0  0  0
  -21.9900   -9.0244   20.4644 C   0  0  0  0  0  0
  -22.7220  -10.2130   20.3055 C   0  0  0  0  0  0
  -21.6850   -6.0730   22.5275 C   0  0  0  0  0  0
  -21.4011   -6.5632   23.8209 C   0  0  0  0  0  0
  -21.3661   -5.6788   24.9172 C   0  0  0  0  0  0
  -21.6048   -4.3050   24.7227 C   0  0  0  0  0  0
  -21.8819   -3.8142   23.4345 C   0  0  0  0  0  0
  -21.9192   -4.6958   22.3403 C   0  0  0  0  0  0
  -22.7841  -13.5239   21.1876 C   0  0  0  0  0  0
  -22.1662   -4.2146   21.0980 F   0  0  0  0  0  0
  -21.5633   -3.4534   25.7738 F   0  0  0  0  0  0
  -29.9994  -13.4439   20.4086 N   0  0  0  0  0  0
  -26.2955  -12.9344   20.3292 N   0  0  0  0  0  0
  -25.9306  -11.6501   20.5741 N   0  0  0  0  0  0
  -22.0472  -12.8224   22.0417 N   0  0  0  0  0  0
  -25.4255  -15.1887   20.4090 N   0  0  0  0  0  0
  -31.7908  -14.8213   20.1813 O   0  0  0  0  0  0
  -21.6638   -6.8867   21.4236 O   0  0  0  0  0  0
  -22.3534  -14.5549   20.6722 O   0  0  0  0  0  0
  -24.6275  -31.8574   23.2019 C   0  0  0  0  0  0
  -25.9118  -32.4761   23.8353 C   0  0  1  0  0  0
  -27.2268  -27.3144   20.1258 C   0  0  0  0  0  0
  -25.5942  -33.8564   24.2286 N   0  0  0  0  0  0
  -23.4220  -30.4797   21.5439 C   0  0  2  0  0  0
  -24.8688  -28.9282   20.1142 C   0  0  0  0  0  0
  -22.7476  -29.4617   22.4942 C   0  0  0  0  0  0
  -18.0283  -28.1384   22.8484 C   0  0  0  0  0  0
  -24.1486  -36.7280   23.2645 C   0  0  0  0  0  0
  -25.9618  -30.7880   21.3713 C   0  0  0  0  0  0
  -26.0372  -29.4135   20.7164 C   0  0  0  0  0  0
  -27.2225  -28.6194   20.7073 C   0  0  0  0  0  0
  -26.0393  -26.8779   19.5033 C   0  0  0  0  0  0
  -24.8714  -27.6659   19.4981 C   0  0  0  0  0  0
  -23.6366  -29.8096   20.1606 C   0  0  0  0  0  0
  -25.4113  -36.3067   24.0334 C   0  0  1  0  0  0
  -20.5885  -28.3688   23.1276 C   0  0  2  0  0  0
  -20.6769  -26.9409   22.5405 C   0  0  0  0  0  0
  -19.5747  -26.6383   21.5205 C   0  0  0  0  0  0
  -18.1927  -26.7930   22.1615 C   0  0  0  0  0  0
  -19.1537  -28.8852   23.2878 C   0  0  0  0  0  0
  -18.9462  -30.1454   23.8894 C   0  0  0  0  0  0
  -17.6463  -30.6584   24.0559 C   0  0  0  0  0  0
  -25.9051  -34.9436   23.5105 C   0  0  0  0  0  0
  -16.5355  -29.9078   23.6333 C   0  0  0  0  0  0
  -16.7271  -28.6497   23.0355 C   0  0  0  0  0  0
  -26.4516  -31.6572   25.0719 C   0  0  0  0  0  0
  -25.3765  -31.3681   26.1453 C   0  0  0  0  0  0
  -27.0375  -30.3004   24.6167 C   0  0  0  0  0  0
  -27.6070  -32.4319   25.7490 C   0  0  0  0  0  0
  -27.5577  -37.1795   24.8471 C   0  0  0  0  0  0
  -21.4193  -29.3040   22.3672 N   0  0  0  0  0  0
  -26.4286  -37.3769   23.9413 N   0  0  0  0  0  0
  -24.6894  -31.0579   22.0967 N   0  0  0  0  0  0
  -23.4190  -28.8164   23.3037 O   0  0  0  0  0  0
  -28.3438  -26.4682   20.1275 O   0  0  0  0  0  0
  -26.5601  -34.8911   22.4660 O   0  0  0  0  0  0
  -23.5433  -32.1372   23.7344 O   0  0  0  0  0  0
  -29.3239  -16.5436   24.9810 C   0  0  0  0  0  0
  -29.7007  -16.6087   23.6936 C   0  0  0  0  0  0
  -29.3926  -17.4184   22.6411 C   0  0  0  0  0  0
  -28.5293  -18.4738   22.7747 C   0  0  0  0  0  0
  -30.2612  -15.3912   25.2951 C   0  0  0  0  0  0
  -30.6618  -15.4350   23.8085 C   0  0  0  0  0  0
  -29.9100  -18.3303   20.2429 C   0  0  0  0  0  0
  -30.1154  -17.1385   21.2940 C   0  0  2  0  0  0
  -29.4641  -19.7322   20.8687 C   0  0  1  0  0  0
  -27.7533  -18.9345   24.0045 C   0  0  0  0  0  0
  -30.6653  -21.3357   19.2455 C   0  0  0  0  0  0
  -27.0328  -19.1441   20.9009 C   0  0  0  0  0  0
  -28.8469  -23.8404   19.9356 C   0  0  0  0  0  0
  -28.8474  -22.4237   20.6977 C   0  0  0  0  0  0
  -28.1778  -25.0956   20.6674 C   0  0  0  0  0  0
  -29.3300  -21.0700   19.9641 C   0  0  2  0  0  0
  -29.8014  -15.7265   20.8380 N   0  0  0  0  0  0
  -28.2574  -19.4541   21.6810 N   0  3  1  0  0  0
  -31.4777  -12.5590   19.1394 H   0  0  0  0  0  0
  -30.3907  -11.4255   19.8973 H   0  0  0  0  0  0
  -29.7753  -11.7518   17.4812 H   0  0  0  0  0  0
  -29.6367  -13.4740   17.7258 H   0  0  0  0  0  0
  -27.8742  -11.2873   18.8737 H   0  0  0  0  0  0
  -27.3705  -12.5585   17.7927 H   0  0  0  0  0  0
  -27.6582  -14.2497   19.5052 H   0  0  0  0  0  0
  -28.7177  -12.0703   21.3730 H   0  0  0  0  0  0
  -28.4358  -13.7265   21.8307 H   0  0  0  0  0  0
  -25.2739   -9.5697   22.4768 H   0  0  0  0  0  0
  -24.0000   -7.4628   22.7459 H   0  0  0  0  0  0
  -21.0843   -8.8750   19.8936 H   0  0  0  0  0  0
  -22.3671  -10.9669   19.6168 H   0  0  0  0  0  0
  -21.1997   -7.6136   23.9717 H   0  0  0  0  0  0
  -21.1488   -6.0514   25.9078 H   0  0  0  0  0  0
  -22.0600   -2.7602   23.2849 H   0  0  0  0  0  0
  -22.4076  -11.9879   22.4799 H   0  0  0  0  0  0
  -21.1083  -13.1241   22.2599 H   0  0  0  0  0  0
  -24.6444  -15.8297   20.4930 H   0  0  0  0  0  0
  -26.2453  -15.6122   19.9967 H   0  0  0  0  0  0
  -26.7188  -32.5425   23.1106 H   0  0  0  0  0  0
  -25.0133  -33.9712   25.0461 H   0  0  0  0  0  0
  -22.7176  -31.3011   21.3976 H   0  0  0  0  0  0
  -23.3751  -35.9607   23.3295 H   0  0  0  0  0  0
  -24.3582  -36.8910   22.2062 H   0  0  0  0  0  0
  -23.7235  -37.6479   23.6671 H   0  0  0  0  0  0
  -26.0913  -31.5509   20.6021 H   0  0  0  0  0  0
  -26.8428  -30.8388   21.9995 H   0  0  0  0  0  0
  -28.1233  -28.9893   21.1764 H   0  0  0  0  0  0
  -26.0086  -25.9093   19.0254 H   0  0  0  0  0  0
  -23.9755  -27.2886   19.0239 H   0  0  0  0  0  0
  -23.7587  -30.5834   19.4018 H   0  0  0  0  0  0
  -22.7563  -29.2394   19.8580 H   0  0  0  0  0  0
  -25.1293  -36.1918   25.0827 H   0  0  0  0  0  0
  -20.9981  -28.3256   24.1395 H   0  0  0  0  0  0
  -20.5663  -26.2301   23.3608 H   0  0  0  0  0  0
  -21.6640  -26.7433   22.1200 H   0  0  0  0  0  0
  -19.6909  -25.6294   21.1234 H   0  0  0  0  0  0
  -19.6680  -27.3194   20.6734 H   0  0  0  0  0  0
  -17.4201  -26.6687   21.4013 H   0  0  0  0  0  0
  -18.0318  -26.0063   22.9002 H   0  0  0  0  0  0
  -19.7940  -30.7272   24.2260 H   0  0  0  0  0  0
  -17.5015  -31.6265   24.5157 H   0  0  0  0  0  0
  -15.5356  -30.2977   23.7663 H   0  0  0  0  0  0
  -15.8671  -28.0810   22.7082 H   0  0  0  0  0  0
  -24.5968  -30.6997   25.7794 H   0  0  0  0  0  0
  -24.8929  -32.2824   26.4899 H   0  0  0  0  0  0
  -25.8123  -30.8867   27.0218 H   0  0  0  0  0  0
  -26.2943  -29.6726   24.1242 H   0  0  0  0  0  0
  -27.4144  -29.7291   25.4663 H   0  0  0  0  0  0
  -27.8778  -30.4307   23.9343 H   0  0  0  0  0  0
  -27.2685  -33.3642   26.2029 H   0  0  0  0  0  0
  -28.3901  -32.6847   25.0328 H   0  0  0  0  0  0
  -28.0713  -31.8469   26.5440 H   0  0  0  0  0  0
  -28.2587  -38.0101   24.7522 H   0  0  0  0  0  0
  -28.1082  -36.2630   24.6290 H   0  0  0  0  0  0
  -27.2289  -37.1431   25.8874 H   0  0  0  0  0  0
  -20.9381  -29.8760   21.6872 H   0  0  0  0  0  0
  -26.0160  -38.2840   24.1426 H   0  0  0  0  0  0
  -28.6434  -17.0917   25.6250 H   0  0  0  0  0  0
  -29.8010  -14.4423   25.5749 H   0  0  0  0  0  0
  -31.0992  -15.6055   25.9604 H   0  0  0  0  0  0
  -31.7240  -15.6405   23.6671 H   0  0  0  0  0  0
  -30.3906  -14.5049   23.3101 H   0  0  0  0  0  0
  -29.1886  -18.0252   19.4857 H   0  0  0  0  0  0
  -30.8439  -18.4584   19.6963 H   0  0  0  0  0  0
  -31.1788  -17.1494   21.5436 H   0  0  0  0  0  0
  -30.2418  -19.9839   21.5928 H   0  0  0  0  0  0
  -27.1027  -18.1359   24.3615 H   0  0  0  0  0  0
  -27.1145  -19.7971   23.8098 H   0  0  0  0  0  0
  -28.4398  -19.2190   24.8028 H   0  0  0  0  0  0
  -30.9752  -20.4832   18.6420 H   0  0  0  0  0  0
  -31.4649  -21.5518   19.9550 H   0  0  0  0  0  0
  -30.5910  -22.1805   18.5615 H   0  0  0  0  0  0
  -26.1712  -19.0702   21.5641 H   0  0  0  0  0  0
  -27.1129  -18.1937   20.3747 H   0  0  0  0  0  0
  -26.8033  -19.9202   20.1723 H   0  0  0  0  0  0
  -28.3627  -23.7174   18.9667 H   0  0  0  0  0  0
  -29.8805  -24.1060   19.7133 H   0  0  0  0  0  0
  -27.8299  -22.2627   21.0552 H   0  0  0  0  0  0
  -29.4476  -22.5482   21.5998 H   0  0  0  0  0  0
  -28.5935  -25.1375   21.6745 H   0  0  0  0  0  0
  -27.1232  -24.8677   20.8234 H   0  0  0  0  0  0
  -28.6069  -20.8636   19.1740 H   0  0  0  0  0  0
  -28.8413  -15.4526   20.9781 H   0  0  0  0  0  0
  -28.0529  -20.3318   22.1337 H   0  0  0  0  0  0
  1 25  1  0  0  0
  1 30  2  0  0  0
  1 87  1  0  0  0
  2  3  1  0  0  0
  2 25  1  0  0  0
  2 89  1  0  0  0
  2 90  1  0  0  0
  3  4  1  0  0  0
  3 91  1  0  0  0
  3 92  1  0  0  0
  4  5  1  0  0  0
  4 93  1  0  0  0
  4 94  1  0  0  0
  5  6  1  0  0  0
  5 26  1  0  0  0
  5 95  1  0  0  0
  6 25  1  0  0  0
  6 96  1  0  0  0
  6 97  1  0  0  0
  7  8  2  0  0  0
  7 26  1  0  0  0
  7 29  1  0  0  0
  8  9  1  0  0  0
  8 22  1  0  0  0
  9 10  1  0  0  0
  9 27  2  0  0  0
 10 11  2  0  0  0
 10 15  1  0  0  0
 11 12  1  0  0  0
 11 98  1  0  0  0
 12 13  2  0  0  0
 12 99  1  0  0  0
 13 14  1  0  0  0
 13 31  1  0  0  0
 14 15  2  0  0  0
 14100  1  0  0  0
 15101  1  0  0  0
 16 17  2  0  0  0
 16 21  1  0  0  0
 16 31  1  0  0  0
 17 18  1  0  0  0
 17102  1  0  0  0
 18 19  2  0  0  0
 18103  1  0  0  0
 19 20  1  0  0  0
 19 24  1  0  0  0
 20 21  2  0  0  0
 20104  1  0  0  0
 21 23  1  0  0  0
 22 28  1  0  0  0
 22 32  2  0  0  0
 26 27  1  0  0  0
 28105  1  0  0  0
 28106  1  0  0  0
 29107  1  0  0  0
 29108  1  0  0  0
 33 34  1  0  0  0
 33 66  1  0  0  0
 33 70  2  0  0  0
 34 36  1  0  0  0
 34 59  1  0  0  0
 34109  1  0  0  0
 35 44  2  0  0  0
 35 45  1  0  0  0
 35 68  1  0  0  0
 36 56  1  0  0  0
 36110  1  0  0  0
 37 39  1  0  0  0
 37 47  1  0  0  0
 37 66  1  0  0  0
 37111  1  0  0  0
 38 43  2  0  0  0
 38 46  1  0  0  0
 38 47  1  0  0  0
 39 64  1  0  0  0
 39 67  2  0  0  0
 40 52  1  0  0  0
 40 53  2  0  0  0
 40 58  1  0  0  0
 41112  1  0  0  0
 41113  1  0  0  0
 41114  1  0  0  0
 41 48  1  0  0  0
 42 43  1  0  0  0
 42 66  1  0  0  0
 42115  1  0  0  0
 42116  1  0  0  0
 43 44  1  0  0  0
 44117  1  0  0  0
 45 46  2  0  0  0
 45118  1  0  0  0
 46119  1  0  0  0
 47120  1  0  0  0
 47121  1  0  0  0
 48 56  1  0  0  0
 48 65  1  0  0  0
 48122  1  0  0  0
 49 50  1  0  0  0
 49 53  1  0  0  0
 49 64  1  0  0  0
 49123  1  0  0  0
 50 51  1  0  0  0
 50124  1  0  0  0
 50125  1  0  0  0
 51 52  1  0  0  0
 51126  1  0  0  0
 51127  1  0  0  0
 52128  1  0  0  0
 52129  1  0  0  0
 53 54  1  0  0  0
 54 55  2  0  0  0
 54130  1  0  0  0
 55 57  1  0  0  0
 55131  1  0  0  0
 56 69  2  0  0  0
 57 58  2  0  0  0
 57132  1  0  0  0
 58133  1  0  0  0
 59 60  1  0  0  0
 59 61  1  0  0  0
 59 62  1  0  0  0
 60134  1  0  0  0
 60135  1  0  0  0
 60136  1  0  0  0
 61137  1  0  0  0
 61138  1  0  0  0
 61139  1  0  0  0
 62140  1  0  0  0
 62141  1  0  0  0
 62142  1  0  0  0
 63 65  1  0  0  0
 63143  1  0  0  0
 63144  1  0  0  0
 63145  1  0  0  0
 64146  1  0  0  0
 65147  1  0  0  0
 68 85  1  0  0  0
 71 72  2  0  0  0
 71 75  1  0  0  0
 71148  1  0  0  0
 72 73  1  0  0  0
 72 76  1  0  0  0
 73 74  2  0  0  0
 73 78  1  0  0  0
 74 80  1  0  0  0
 74 88  1  0  0  0
 75 76  1  0  0  0
 75149  1  0  0  0
 75150  1  0  0  0
 76151  1  0  0  0
 76152  1  0  0  0
 77 78  1  0  0  0
 77153  1  0  0  0
 77154  1  0  0  0
 77 79  1  0  0  0
 78 87  1  0  0  0
 78155  1  0  0  0
 79 86  1  0  0  0
 79 88  1  0  0  0
 79156  1  0  0  0
 80157  1  0  0  0
 80158  1  0  0  0
 80159  1  0  0  0
 81160  1  0  0  0
 81161  1  0  0  0
 81162  1  0  0  0
 81 86  1  0  0  0
 82163  1  0  0  0
 82164  1  0  0  0
 82165  1  0  0  0
 82 88  1  0  0  0
 83 84  1  0  0  0
 83 85  1  0  0  0
 83166  1  0  0  0
 83167  1  0  0  0
 84 86  1  0  0  0
 84168  1  0  0  0
 84169  1  0  0  0
 85170  1  0  0  0
 85171  1  0  0  0
 86172  1  0  0  0
 87173  1  0  0  0
 88174  1  0  0  0
M  CHG  1  88   1
M  ISO  4   1 100  68 101  85 101  87 100
M  END
> <chiral flag>
0

> <version>
0

> <s_m_source_file>
/data/baiqing/PycharmProjects/Reinvent-master-3.2/result/LINK_invent/BTK/process_docking_weight1_custom_sum_contain_oxygen_bond_distance_aromatic_linkinvent_7_9_3/rearranged_h_0171.sdf

> <i_m_source_file_index>
54

> <r_mmod_Potential_Energy-OPLS-2005>
74.0784683227539

> <r_mmod_Stretch_Energy-OPLS-2005>
102.736358642578

> <r_mmod_Bend_Energy-OPLS-2005>
177.801177978516

> <r_mmod_Torsional_Energy-OPLS-2005>
266.060424804688

> <r_mmod_Improper_Torsional_Energy-OPLS-2005>
4.15134143829346

> <r_mmod_Van_der_Waal_Energy-OPLS-2005>
129.96467590332

> <r_mmod_Electrostatic_Energy-OPLS-2005>
-225.573852539062

> <r_mmod_Solvation_Energy-OPLS-2005>
-435.469360351562

> <b_mmod_Minimization_Converged-OPLS-2005>
0

> <r_mmod_RMS_Derivative-OPLS-2005>
1.0974417924881

$$$$
54
                    3D
 Structure written by MMmdl.
166176  0  0  1  0            999 V2000
  -30.5930  -14.7860   20.4561 C   0  0  0  0  0  0
  -30.4351  -12.4832   19.4741 C   0  0  0  0  0  0
  -29.5111  -12.5109   18.2364 C   0  0  0  0  0  0
  -28.0387  -12.3262   18.6525 C   0  0  0  0  0  0
  -27.6382  -13.2336   19.8462 C   0  0  2  0  0  0
  -28.6833  -13.1851   20.9812 C   0  0  0  0  0  0
  -25.2496  -13.8197   20.5694 C   0  0  0  0  0  0
  -24.1796  -13.0439   20.9214 C   0  0  0  0  0  0
  -24.6392  -11.6917   20.8751 C   0  0  0  0  0  0
  -23.9071  -10.4292   21.0408 C   0  0  0  0  0  0
  -24.3621   -9.4206   21.9185 C   0  0  0  0  0  0
  -23.6294   -8.2242   22.0755 C   0  0  0  0  0  0
  -22.4277   -8.0281   21.3545 C   0  0  0  0  0  0
  -21.9914   -9.0255   20.4647 C   0  0  0  0  0  0
  -22.7244  -10.2133   20.3057 C   0  0  0  0  0  0
  -21.6853   -6.0735   22.5279 C   0  0  0  0  0  0
  -21.4015   -6.5639   23.8212 C   0  0  0  0  0  0
  -21.3660   -5.6793   24.9175 C   0  0  0  0  0  0
  -21.6044   -4.3055   24.7226 C   0  0  0  0  0  0
  -21.8818   -3.8147   23.4346 C   0  0  0  0  0  0
  -21.9193   -4.6963   22.3402 C   0  0  0  0  0  0
  -22.7816  -13.5216   21.1874 C   0  0  0  0  0  0
  -22.1661   -4.2149   21.0980 F   0  0  0  0  0  0
  -21.5629   -3.4538   25.7739 F   0  0  0  0  0  0
  -29.9770  -13.5525   20.3933 N   0  0  0  0  0  0
  -26.2919  -12.9407   20.3263 N   0  0  0  0  0  0
  -25.9320  -11.6548   20.5746 N   0  0  0  0  0  0
  -22.0465  -12.8203   22.0429 N   0  0  0  0  0  0
  -25.4170  -15.1924   20.4105 N   0  0  0  0  0  0
  -31.7892  -14.8789   20.1653 O   0  0  0  0  0  0
  -21.6640   -6.8878   21.4241 O   0  0  0  0  0  0
  -22.3499  -14.5522   20.6720 O   0  0  0  0  0  0
  -24.6337  -31.8524   23.1957 C   0  0  0  0  0  0
  -25.9150  -32.4739   23.8315 C   0  0  1  0  0  0
  -27.2194  -27.2364   20.1439 C   0  0  0  0  0  0
  -25.5933  -33.8542   24.2235 N   0  0  0  0  0  0
  -23.4328  -30.4733   21.5392 C   0  0  2  0  0  0
  -24.8822  -28.9124   20.1141 C   0  0  0  0  0  0
  -22.7517  -29.4589   22.4901 C   0  0  0  0  0  0
  -18.0295  -28.1393   22.8482 C   0  0  0  0  0  0
  -24.1488  -36.7276   23.2641 C   0  0  0  0  0  0
  -25.9803  -30.7583   21.3794 C   0  0  0  0  0  0
  -26.0551  -29.3770   20.7247 C   0  0  0  0  0  0
  -27.2308  -28.5536   20.7235 C   0  0  0  0  0  0
  -26.0272  -26.8445   19.5022 C   0  0  0  0  0  0
  -24.8742  -27.6549   19.4900 C   0  0  0  0  0  0
  -23.6542  -29.8032   20.1575 C   0  0  0  0  0  0
  -25.4117  -36.3059   24.0322 C   0  0  1  0  0  0
  -20.5901  -28.3709   23.1261 C   0  0  2  0  0  0
  -20.6782  -26.9423   22.5412 C   0  0  0  0  0  0
  -19.5760  -26.6387   21.5214 C   0  0  0  0  0  0
  -18.1938  -26.7936   22.1618 C   0  0  0  0  0  0
  -19.1549  -28.8867   23.2866 C   0  0  0  0  0  0
  -18.9470  -30.1466   23.8891 C   0  0  0  0  0  0
  -17.6468  -30.6591   24.0566 C   0  0  0  0  0  0
  -25.9060  -34.9432   23.5083 C   0  0  0  0  0  0
  -16.5360  -29.9089   23.6335 C   0  0  0  0  0  0
  -16.7282  -28.6506   23.0357 C   0  0  0  0  0  0
  -26.4508  -31.6576   25.0717 C   0  0  0  0  0  0
  -25.3719  -31.3736   26.1430 C   0  0  0  0  0  0
  -27.0364  -30.2985   24.6229 C   0  0  0  0  0  0
  -27.6052  -32.4329   25.7495 C   0  0  0  0  0  0
  -27.5580  -37.1792   24.8462 C   0  0  0  0  0  0
  -21.4221  -29.3047   22.3643 N   0  0  0  0  0  0
  -26.4288  -37.3764   23.9410 N   0  0  0  0  0  0
  -24.7015  -31.0466   22.0945 N   0  0  0  0  0  0
  -23.4201  -28.8136   23.3018 O   0  0  0  0  0  0
  -28.2935  -26.3098   20.1510 O   0  0  0  0  0  0
  -26.5640  -34.8913   22.4657 O   0  0  0  0  0  0
  -23.5480  -32.1357   23.7235 O   0  0  0  0  0  0
  -29.1351  -21.2729   18.6161 C   0  0  0  0  0  0
  -29.2846  -21.0803   20.0018 C   0  0  0  0  0  0
  -29.0383  -22.2864   20.8106 C   0  0  0  0  0  0
  -28.7995  -22.5290   18.0835 C   0  0  0  0  0  0
  -28.6526  -23.5737   20.1753 C   0  0  0  0  0  0
  -30.2275  -22.8753   23.1070 C   0  0  0  0  0  0
  -30.2349  -21.3809   23.0330 C   0  0  0  0  0  0
  -29.2491  -18.4810   21.3733 C   0  0  0  0  0  0
  -30.0139  -18.3612   19.4803 C   0  0  0  0  0  0
  -29.8310  -19.6161   20.4358 C   0  0  1  0  0  0
  -29.1452  -22.1652   22.3148 C   0  0  0  0  0  0
  -30.2240  -17.4163   20.7177 C   0  0  2  0  0  0
  -28.6644  -22.7143   16.5866 C   0  0  0  0  0  0
  -28.4756  -25.2470   22.2794 C   0  0  0  0  0  0
  -28.0911  -24.9625   20.8230 C   0  0  1  0  0  0
  -28.5687  -23.6265   18.8288 N   0  0  0  0  0  0
  -29.8149  -15.9295   20.6483 N   0  0  0  0  0  0
  -31.4738  -12.6193   19.1688 H   0  0  0  0  0  0
  -30.3930  -11.5113   19.9682 H   0  0  0  0  0  0
  -29.8008  -11.7322   17.5294 H   0  0  0  0  0  0
  -29.6276  -13.4604   17.7112 H   0  0  0  0  0  0
  -27.9048  -11.2789   18.9259 H   0  0  0  0  0  0
  -27.3791  -12.5046   17.8025 H   0  0  0  0  0  0
  -27.6261  -14.2512   19.4554 H   0  0  0  0  0  0
  -28.7310  -12.1903   21.4266 H   0  0  0  0  0  0
  -28.4120  -13.8692   21.7869 H   0  0  0  0  0  0
  -25.2765   -9.5682   22.4762 H   0  0  0  0  0  0
  -24.0003   -7.4634   22.7475 H   0  0  0  0  0  0
  -21.0845   -8.8775   19.8953 H   0  0  0  0  0  0
  -22.3702  -10.9673   19.6168 H   0  0  0  0  0  0
  -21.2007   -7.6148   23.9716 H   0  0  0  0  0  0
  -21.1482   -6.0522   25.9078 H   0  0  0  0  0  0
  -22.0597   -2.7609   23.2847 H   0  0  0  0  0  0
  -22.4088  -11.9865   22.4814 H   0  0  0  0  0  0
  -21.1082  -13.1221   22.2639 H   0  0  0  0  0  0
  -24.6448  -15.8412   20.5173 H   0  0  0  0  0  0
  -26.2555  -15.6337   20.0561 H   0  0  0  0  0  0
  -26.7217  -32.5385   23.1057 H   0  0  0  0  0  0
  -25.0068  -33.9673   25.0372 H   0  0  0  0  0  0
  -22.7303  -31.2959   21.3892 H   0  0  0  0  0  0
  -23.3754  -35.9606   23.3295 H   0  0  0  0  0  0
  -24.3574  -36.8914   22.2058 H   0  0  0  0  0  0
  -23.7239  -37.6469   23.6680 H   0  0  0  0  0  0
  -26.1209  -31.5162   20.6075 H   0  0  0  0  0  0
  -26.8568  -30.8097   22.0138 H   0  0  0  0  0  0
  -28.1307  -28.9049   21.2086 H   0  0  0  0  0  0
  -25.9802  -25.8787   19.0183 H   0  0  0  0  0  0
  -23.9778  -27.2946   19.0041 H   0  0  0  0  0  0
  -23.7821  -30.5772   19.3998 H   0  0  0  0  0  0
  -22.7719  -29.2377   19.8522 H   0  0  0  0  0  0
  -25.1301  -36.1901   25.0814 H   0  0  0  0  0  0
  -20.9994  -28.3298   24.1381 H   0  0  0  0  0  0
  -20.5678  -26.2323   23.3621 H   0  0  0  0  0  0
  -21.6651  -26.7442   22.1212 H   0  0  0  0  0  0
  -19.6923  -25.6295   21.1252 H   0  0  0  0  0  0
  -19.6701  -27.3190   20.6739 H   0  0  0  0  0  0
  -17.4212  -26.6692   21.4016 H   0  0  0  0  0  0
  -18.0329  -26.0078   22.9011 H   0  0  0  0  0  0
  -19.7946  -30.7285   24.2257 H   0  0  0  0  0  0
  -17.5023  -31.6269   24.5172 H   0  0  0  0  0  0
  -15.5362  -30.2990   23.7661 H   0  0  0  0  0  0
  -15.8681  -28.0825   22.7077 H   0  0  0  0  0  0
  -24.5916  -30.7057   25.7762 H   0  0  0  0  0  0
  -24.8881  -32.2905   26.4806 H   0  0  0  0  0  0
  -25.8029  -30.8957   27.0236 H   0  0  0  0  0  0
  -26.2959  -29.6721   24.1241 H   0  0  0  0  0  0
  -27.4017  -29.7263   25.4766 H   0  0  0  0  0  0
  -27.8847  -30.4245   23.9498 H   0  0  0  0  0  0
  -27.2656  -33.3644   26.2036 H   0  0  0  0  0  0
  -28.3881  -32.6867   25.0336 H   0  0  0  0  0  0
  -28.0700  -31.8479   26.5441 H   0  0  0  0  0  0
  -28.2590  -38.0097   24.7516 H   0  0  0  0  0  0
  -28.1083  -36.2626   24.6277 H   0  0  0  0  0  0
  -27.2299  -37.1430   25.8866 H   0  0  0  0  0  0
  -20.9414  -29.8759   21.6834 H   0  0  0  0  0  0
  -26.0162  -38.2833   24.1420 H   0  0  0  0  0  0
  -29.3140  -20.4497   17.9381 H   0  0  0  0  0  0
  -31.0092  -23.3969   22.5575 H   0  0  0  0  0  0
  -29.9638  -23.3094   24.0698 H   0  0  0  0  0  0
  -29.9594  -20.8474   23.9410 H   0  0  0  0  0  0
  -31.1026  -20.9873   22.5141 H   0  0  0  0  0  0
  -28.1928  -18.2790   21.1810 H   0  0  0  0  0  0
  -29.4136  -18.6539   22.4369 H   0  0  0  0  0  0
  -30.8747  -18.4335   18.8149 H   0  0  0  0  0  0
  -29.1120  -18.1297   18.9087 H   0  0  0  0  0  0
  -30.8424  -19.8409   20.7700 H   0  0  0  0  0  0
  -28.1490  -22.1163   22.7517 H   0  0  0  0  0  0
  -31.2344  -17.5336   21.1162 H   0  0  0  0  0  0
  -29.2052  -21.9385   16.0439 H   0  0  0  0  0  0
  -29.0628  -23.6798   16.2734 H   0  0  0  0  0  0
  -27.6157  -22.6659   16.2934 H   0  0  0  0  0  0
  -28.1026  -24.4801   22.9531 H   0  0  0  0  0  0
  -28.0335  -26.1814   22.6236 H   0  0  0  0  0  0
  -29.5544  -25.3455   22.3884 H   0  0  0  0  0  0
  -27.0159  -24.7831   20.8472 H   0  0  0  0  0  0
  -28.8382  -15.7397   20.8154 H   0  0  0  0  0  0
  1 25  1  0  0  0
  1 30  2  0  0  0
  1 87  1  0  0  0
  2  3  1  0  0  0
  2 25  1  0  0  0
  2 88  1  0  0  0
  2 89  1  0  0  0
  3  4  1  0  0  0
  3 90  1  0  0  0
  3 91  1  0  0  0
  4  5  1  0  0  0
  4 92  1  0  0  0
  4 93  1  0  0  0
  5  6  1  0  0  0
  5 26  1  0  0  0
  5 94  1  0  0  0
  6 25  1  0  0  0
  6 95  1  0  0  0
  6 96  1  0  0  0
  7  8  2  0  0  0
  7 26  1  0  0  0
  7 29  1  0  0  0
  8  9  1  0  0  0
  8 22  1  0  0  0
  9 10  1  0  0  0
  9 27  2  0  0  0
 10 11  2  0  0  0
 10 15  1  0  0  0
 11 12  1  0  0  0
 11 97  1  0  0  0
 12 13  2  0  0  0
 12 98  1  0  0  0
 13 14  1  0  0  0
 13 31  1  0  0  0
 14 15  2  0  0  0
 14 99  1  0  0  0
 15100  1  0  0  0
 16 17  2  0  0  0
 16 21  1  0  0  0
 16 31  1  0  0  0
 17 18  1  0  0  0
 17101  1  0  0  0
 18 19  2  0  0  0
 18102  1  0  0  0
 19 20  1  0  0  0
 19 24  1  0  0  0
 20 21  2  0  0  0
 20103  1  0  0  0
 21 23  1  0  0  0
 22 28  1  0  0  0
 22 32  2  0  0  0
 26 27  1  0  0  0
 28104  1  0  0  0
 28105  1  0  0  0
 29106  1  0  0  0
 29107  1  0  0  0
 33 34  1  0  0  0
 33 66  1  0  0  0
 33 70  2  0  0  0
 34 36  1  0  0  0
 34 59  1  0  0  0
 34108  1  0  0  0
 35 44  2  0  0  0
 35 45  1  0  0  0
 35 68  1  0  0  0
 36 56  1  0  0  0
 36109  1  0  0  0
 37 39  1  0  0  0
 37 47  1  0  0  0
 37 66  1  0  0  0
 37110  1  0  0  0
 38 43  2  0  0  0
 38 46  1  0  0  0
 38 47  1  0  0  0
 39 64  1  0  0  0
 39 67  2  0  0  0
 40 52  1  0  0  0
 40 53  2  0  0  0
 40 58  1  0  0  0
 41111  1  0  0  0
 41112  1  0  0  0
 41113  1  0  0  0
 41 48  1  0  0  0
 42 43  1  0  0  0
 42 66  1  0  0  0
 42114  1  0  0  0
 42115  1  0  0  0
 43 44  1  0  0  0
 44116  1  0  0  0
 45 46  2  0  0  0
 45117  1  0  0  0
 46118  1  0  0  0
 47119  1  0  0  0
 47120  1  0  0  0
 48 56  1  0  0  0
 48 65  1  0  0  0
 48121  1  0  0  0
 49 50  1  0  0  0
 49 53  1  0  0  0
 49 64  1  0  0  0
 49122  1  0  0  0
 50 51  1  0  0  0
 50123  1  0  0  0
 50124  1  0  0  0
 51 52  1  0  0  0
 51125  1  0  0  0
 51126  1  0  0  0
 52127  1  0  0  0
 52128  1  0  0  0
 53 54  1  0  0  0
 54 55  2  0  0  0
 54129  1  0  0  0
 55 57  1  0  0  0
 55130  1  0  0  0
 56 69  2  0  0  0
 57 58  2  0  0  0
 57131  1  0  0  0
 58132  1  0  0  0
 59 60  1  0  0  0
 59 61  1  0  0  0
 59 62  1  0  0  0
 60133  1  0  0  0
 60134  1  0  0  0
 60135  1  0  0  0
 61136  1  0  0  0
 61137  1  0  0  0
 61138  1  0  0  0
 62139  1  0  0  0
 62140  1  0  0  0
 62141  1  0  0  0
 63 65  1  0  0  0
 63142  1  0  0  0
 63143  1  0  0  0
 63144  1  0  0  0
 64145  1  0  0  0
 65146  1  0  0  0
 68 85  1  0  0  0
 71 72  2  0  0  0
 71 74  1  0  0  0
 71147  1  0  0  0
 72 73  1  0  0  0
 72 80  1  0  0  0
 73 75  2  0  0  0
 73 81  1  0  0  0
 74 83  1  0  0  0
 74 86  2  0  0  0
 75 85  1  0  0  0
 75 86  1  0  0  0
 76 77  1  0  0  0
 76 81  1  0  0  0
 76148  1  0  0  0
 76149  1  0  0  0
 77 81  1  0  0  0
 77150  1  0  0  0
 77151  1  0  0  0
 78 80  1  0  0  0
 78 82  1  0  0  0
 78152  1  0  0  0
 78153  1  0  0  0
 79 80  1  0  0  0
 79 82  1  0  0  0
 79154  1  0  0  0
 79155  1  0  0  0
 80156  1  0  0  0
 81157  1  0  0  0
 82 87  1  0  0  0
 82158  1  0  0  0
 83159  1  0  0  0
 83160  1  0  0  0
 83161  1  0  0  0
 84162  1  0  0  0
 84163  1  0  0  0
 84164  1  0  0  0
 84 85  1  0  0  0
 85165  1  0  0  0
 87166  1  0  0  0
M  ISO  4   1 100  68 101  85 101  87 100
M  END
> <chiral flag>
0

> <version>
0

> <s_m_source_file>
/data/baiqing/PycharmProjects/Reinvent-master-3.2/result/LINK_invent/BTK/process_docking_weight1_custom_sum_contain_oxygen_bond_distance_aromatic_linkinvent_7_9_3/rearranged_h_0171.sdf

> <i_m_source_file_index>
55

> <r_mmod_Potential_Energy-OPLS-2005>
181.769943237305

> <r_mmod_Stretch_Energy-OPLS-2005>
157.311233520508

> <r_mmod_Bend_Energy-OPLS-2005>
231.397903442383

> <r_mmod_Torsional_Energy-OPLS-2005>
267.822357177734

> <r_mmod_Improper_Torsional_Energy-OPLS-2005>
5.36553430557251

> <r_mmod_Van_der_Waal_Energy-OPLS-2005>
139.19873046875

> <r_mmod_Electrostatic_Energy-OPLS-2005>
-500.723449707031

> <r_mmod_Solvation_Energy-OPLS-2005>
-222.453140258789

> <b_mmod_Minimization_Converged-OPLS-2005>
0

> <r_mmod_RMS_Derivative-OPLS-2005>
0.340828657150269

$$$$
55
                    3D
 Structure written by MMmdl.
172182  0  0  1  0            999 V2000
  -30.7491  -14.4790   20.6319 C   0  0  0  0  0  0
  -30.4168  -12.3371   19.4279 C   0  0  0  0  0  0
  -29.4887  -12.5033   18.2083 C   0  0  0  0  0  0
  -28.0181  -12.3253   18.6281 C   0  0  0  0  0  0
  -27.6548  -13.1900   19.8598 C   0  0  2  0  0  0
  -28.6966  -13.0205   20.9933 C   0  0  0  0  0  0
  -25.2601  -13.8120   20.5645 C   0  0  0  0  0  0
  -24.1840  -13.0429   20.9175 C   0  0  0  0  0  0
  -24.6368  -11.6885   20.8741 C   0  0  0  0  0  0
  -23.9022  -10.4283   21.0409 C   0  0  0  0  0  0
  -24.3570   -9.4198   21.9185 C   0  0  0  0  0  0
  -23.6245   -8.2234   22.0749 C   0  0  0  0  0  0
  -22.4235   -8.0277   21.3536 C   0  0  0  0  0  0
  -21.9875   -9.0251   20.4638 C   0  0  0  0  0  0
  -22.7203  -10.2127   20.3044 C   0  0  0  0  0  0
  -21.6832   -6.0736   22.5279 C   0  0  0  0  0  0
  -21.4003   -6.5645   23.8216 C   0  0  0  0  0  0
  -21.3655   -5.6794   24.9179 C   0  0  0  0  0  0
  -21.6039   -4.3057   24.7231 C   0  0  0  0  0  0
  -21.8808   -3.8153   23.4348 C   0  0  0  0  0  0
  -21.9181   -4.6967   22.3402 C   0  0  0  0  0  0
  -22.7875  -13.5255   21.1850 C   0  0  0  0  0  0
  -22.1649   -4.2154   21.0981 F   0  0  0  0  0  0
  -21.5627   -3.4544   25.7745 F   0  0  0  0  0  0
  -30.0284  -13.3313   20.4483 N   0  0  0  0  0  0
  -26.2986  -12.9240   20.3288 N   0  0  0  0  0  0
  -25.9278  -11.6428   20.5743 N   0  0  0  0  0  0
  -22.0504  -12.8243   22.0399 N   0  0  0  0  0  0
  -25.4361  -15.1821   20.4023 N   0  0  0  0  0  0
  -31.8390  -14.6476   20.0745 O   0  0  0  0  0  0
  -21.6595   -6.8880   21.4242 O   0  0  0  0  0  0
  -22.3581  -14.5577   20.6714 O   0  0  0  0  0  0
  -24.6180  -31.8692   23.2141 C   0  0  0  0  0  0
  -25.9074  -32.4826   23.8424 C   0  0  1  0  0  0
  -27.2214  -27.4067   20.0809 C   0  0  0  0  0  0
  -25.5943  -33.8626   24.2357 N   0  0  0  0  0  0
  -23.4052  -30.4981   21.5571 C   0  0  2  0  0  0
  -24.8469  -28.9733   20.1158 C   0  0  0  0  0  0
  -22.7414  -29.4675   22.4996 C   0  0  0  0  0  0
  -18.0271  -28.1393   22.8493 C   0  0  0  0  0  0
  -24.1494  -36.7298   23.2631 C   0  0  0  0  0  0
  -25.9419  -30.8204   21.3799 C   0  0  0  0  0  0
  -26.0125  -29.4566   20.7218 C   0  0  0  0  0  0
  -27.1988  -28.6775   20.7123 C   0  0  0  0  0  0
  -26.0276  -26.9697   19.4465 C   0  0  0  0  0  0
  -24.8505  -27.7282   19.4789 C   0  0  0  0  0  0
  -23.6129  -29.8428   20.1692 C   0  0  0  0  0  0
  -25.4120  -36.3110   24.0335 C   0  0  1  0  0  0
  -20.5861  -28.3686   23.1305 C   0  0  2  0  0  0
  -20.6765  -26.9421   22.5408 C   0  0  0  0  0  0
  -19.5741  -26.6395   21.5210 C   0  0  0  0  0  0
  -18.1917  -26.7944   22.1617 C   0  0  0  0  0  0
  -19.1519  -28.8858   23.2894 C   0  0  0  0  0  0
  -18.9446  -30.1468   23.8900 C   0  0  0  0  0  0
  -17.6447  -30.6597   24.0570 C   0  0  0  0  0  0
  -25.9055  -34.9474   23.5135 C   0  0  0  0  0  0
  -16.5340  -29.9088   23.6342 C   0  0  0  0  0  0
  -16.7263  -28.6512   23.0355 C   0  0  0  0  0  0
  -26.4500  -31.6596   25.0746 C   0  0  0  0  0  0
  -25.3746  -31.3686   26.1466 C   0  0  0  0  0  0
  -27.0349  -30.3031   24.6154 C   0  0  0  0  0  0
  -27.6086  -32.4312   25.7497 C   0  0  0  0  0  0
  -27.5604  -37.1792   24.8458 C   0  0  0  0  0  0
  -21.4143  -29.3052   22.3715 N   0  0  0  0  0  0
  -26.4298  -37.3801   23.9423 N   0  0  0  0  0  0
  -24.6734  -31.0757   22.1080 N   0  0  0  0  0  0
  -23.4165  -28.8197   23.3040 O   0  0  0  0  0  0
  -28.3737  -26.6241   20.1077 O   0  0  0  0  0  0
  -26.5580  -34.8921   22.4671 O   0  0  0  0  0  0
  -23.5366  -32.1467   23.7510 O   0  0  0  0  0  0
  -29.9898  -20.9047   21.4289 C   0  0  0  0  0  0
  -31.8274  -19.9664   20.1861 C   0  0  0  0  0  0
  -30.7680  -19.7713   21.0914 C   0  0  0  0  0  0
  -30.2743  -22.1715   20.8450 C   0  0  0  0  0  0
  -31.3772  -22.2368   19.9576 C   0  0  0  0  0  0
  -31.7856  -23.5234   19.2393 C   0  0  0  0  0  0
  -30.7613  -24.6792   19.2744 C   0  0  0  0  0  0
  -29.4203  -17.6154   20.8025 C   0  0  0  0  0  0
  -31.6645  -17.4681   21.9257 C   0  0  0  0  0  0
  -29.0996  -16.2131   21.3772 C   0  0  0  0  0  0
  -31.2549  -16.0700   22.4558 C   0  0  0  0  0  0
  -30.4385  -18.3811   21.6700 C   0  0  0  0  0  0
  -29.3657  -24.2380   19.7408 C   0  0  1  0  0  0
  -29.4152  -23.4391   21.0933 C   0  0  0  0  0  0
  -30.0528  -24.2795   22.2188 C   0  0  0  0  0  0
  -27.9892  -23.0637   21.5677 C   0  0  0  0  0  0
  -28.2652  -25.3130   19.5093 C   0  0  0  0  0  0
  -32.1308  -21.1623   19.6447 N   0  0  0  0  0  0
  -30.3104  -15.3870   21.5513 N   0  0  0  0  0  0
  -31.4593  -12.4303   19.1192 H   0  0  0  0  0  0
  -30.3272  -11.3305   19.8393 H   0  0  0  0  0  0
  -29.7474  -11.7761   17.4377 H   0  0  0  0  0  0
  -29.6324  -13.4878   17.7615 H   0  0  0  0  0  0
  -27.8665  -11.2706   18.8596 H   0  0  0  0  0  0
  -27.3541  -12.5507   17.7926 H   0  0  0  0  0  0
  -27.6756  -14.2129   19.4947 H   0  0  0  0  0  0
  -28.6864  -11.9948   21.3652 H   0  0  0  0  0  0
  -28.4388  -13.6394   21.8523 H   0  0  0  0  0  0
  -25.2715   -9.5661   22.4757 H   0  0  0  0  0  0
  -23.9947   -7.4620   22.7472 H   0  0  0  0  0  0
  -21.0806   -8.8773   19.8942 H   0  0  0  0  0  0
  -22.3680  -10.9654   19.6133 H   0  0  0  0  0  0
  -21.1992   -7.6151   23.9723 H   0  0  0  0  0  0
  -21.1489   -6.0530   25.9083 H   0  0  0  0  0  0
  -22.0587   -2.7617   23.2845 H   0  0  0  0  0  0
  -22.4097  -11.9881   22.4752 H   0  0  0  0  0  0
  -21.1126  -13.1275   22.2608 H   0  0  0  0  0  0
  -24.6750  -15.8430   20.5116 H   0  0  0  0  0  0
  -26.2918  -15.6160   20.0794 H   0  0  0  0  0  0
  -26.7135  -32.5536   23.1176 H   0  0  0  0  0  0
  -25.0169  -33.9810   25.0552 H   0  0  0  0  0  0
  -22.6961  -31.3174   21.4232 H   0  0  0  0  0  0
  -23.3803  -35.9575   23.3225 H   0  0  0  0  0  0
  -24.3605  -36.8984   22.2058 H   0  0  0  0  0  0
  -23.7166  -37.6446   23.6693 H   0  0  0  0  0  0
  -26.0644  -31.5874   20.6142 H   0  0  0  0  0  0
  -26.8255  -30.8653   22.0046 H   0  0  0  0  0  0
  -28.0929  -29.0426   21.1975 H   0  0  0  0  0  0
  -25.9516  -26.0419   18.9022 H   0  0  0  0  0  0
  -23.9580  -27.3533   18.9968 H   0  0  0  0  0  0
  -23.7262  -30.6224   19.4155 H   0  0  0  0  0  0
  -22.7349  -29.2675   19.8699 H   0  0  0  0  0  0
  -25.1280  -36.1982   25.0823 H   0  0  0  0  0  0
  -20.9947  -28.3257   24.1428 H   0  0  0  0  0  0
  -20.5692  -26.2294   23.3594 H   0  0  0  0  0  0
  -21.6637  -26.7472   22.1198 H   0  0  0  0  0  0
  -19.6904  -25.6302   21.1246 H   0  0  0  0  0  0
  -19.6683  -27.3203   20.6738 H   0  0  0  0  0  0
  -17.4187  -26.6711   21.4013 H   0  0  0  0  0  0
  -18.0307  -26.0082   22.9010 H   0  0  0  0  0  0
  -19.7915  -30.7298   24.2264 H   0  0  0  0  0  0
  -17.4992  -31.6274   24.5177 H   0  0  0  0  0  0
  -15.5341  -30.2989   23.7667 H   0  0  0  0  0  0
  -15.8665  -28.0833   22.7065 H   0  0  0  0  0  0
  -24.5941  -30.7027   25.7765 H   0  0  0  0  0  0
  -24.8916  -32.2833   26.4908 H   0  0  0  0  0  0
  -25.8073  -30.8837   27.0223 H   0  0  0  0  0  0
  -26.2915  -29.6757   24.1220 H   0  0  0  0  0  0
  -27.4118  -29.7297   25.4637 H   0  0  0  0  0  0
  -27.8752  -30.4337   23.9328 H   0  0  0  0  0  0
  -27.2743  -33.3638   26.2050 H   0  0  0  0  0  0
  -28.3900  -32.6813   25.0309 H   0  0  0  0  0  0
  -28.0743  -31.8435   26.5415 H   0  0  0  0  0  0
  -28.2559  -38.0159   24.7613 H   0  0  0  0  0  0
  -28.1171  -36.2686   24.6166 H   0  0  0  0  0  0
  -27.2327  -37.1292   25.8861 H   0  0  0  0  0  0
  -20.9309  -29.8790   21.6946 H   0  0  0  0  0  0
  -26.0191  -38.2862   24.1496 H   0  0  0  0  0  0
  -29.1664  -20.7725   22.1135 H   0  0  0  0  0  0
  -32.4540  -19.1485   19.8658 H   0  0  0  0  0  0
  -31.9816  -23.2725   18.1957 H   0  0  0  0  0  0
  -32.7373  -23.8648   19.6487 H   0  0  0  0  0  0
  -30.7010  -25.1304   18.2833 H   0  0  0  0  0  0
  -31.1268  -25.4716   19.9273 H   0  0  0  0  0  0
  -28.4971  -18.1927   20.7273 H   0  0  0  0  0  0
  -29.7987  -17.5141   19.7842 H   0  0  0  0  0  0
  -32.2335  -17.3193   21.0089 H   0  0  0  0  0  0
  -32.3425  -17.9434   22.6365 H   0  0  0  0  0  0
  -28.3764  -15.7422   20.7242 H   0  0  0  0  0  0
  -28.6035  -16.3141   22.3440 H   0  0  0  0  0  0
  -30.7910  -16.1664   23.4386 H   0  0  0  0  0  0
  -32.1474  -15.4591   22.6110 H   0  0  0  0  0  0
  -29.9695  -18.5569   22.6399 H   0  0  0  0  0  0
  -29.0630  -23.4823   19.0122 H   0  0  0  0  0  0
  -31.0944  -24.5294   22.0176 H   0  0  0  0  0  0
  -30.0378  -23.7440   23.1685 H   0  0  0  0  0  0
  -29.5133  -25.2164   22.3648 H   0  0  0  0  0  0
  -27.4601  -22.4570   20.8322 H   0  0  0  0  0  0
  -27.3832  -23.9471   21.7693 H   0  0  0  0  0  0
  -27.9979  -22.5183   22.5103 H   0  0  0  0  0  0
  -27.3329  -24.8320   19.7932 H   0  0  0  0  0  0
  -28.1972  -25.4775   18.4319 H   0  0  0  0  0  0
  1 25  1  0  0  0
  1 30  2  0  0  0
  1 89  1  0  0  0
  2  3  1  0  0  0
  2 25  1  0  0  0
  2 90  1  0  0  0
  2 91  1  0  0  0
  3  4  1  0  0  0
  3 92  1  0  0  0
  3 93  1  0  0  0
  4  5  1  0  0  0
  4 94  1  0  0  0
  4 95  1  0  0  0
  5  6  1  0  0  0
  5 26  1  0  0  0
  5 96  1  0  0  0
  6 25  1  0  0  0
  6 97  1  0  0  0
  6 98  1  0  0  0
  7  8  2  0  0  0
  7 26  1  0  0  0
  7 29  1  0  0  0
  8  9  1  0  0  0
  8 22  1  0  0  0
  9 10  1  0  0  0
  9 27  2  0  0  0
 10 11  2  0  0  0
 10 15  1  0  0  0
 11 12  1  0  0  0
 11 99  1  0  0  0
 12 13  2  0  0  0
 12100  1  0  0  0
 13 14  1  0  0  0
 13 31  1  0  0  0
 14 15  2  0  0  0
 14101  1  0  0  0
 15102  1  0  0  0
 16 17  2  0  0  0
 16 21  1  0  0  0
 16 31  1  0  0  0
 17 18  1  0  0  0
 17103  1  0  0  0
 18 19  2  0  0  0
 18104  1  0  0  0
 19 20  1  0  0  0
 19 24  1  0  0  0
 20 21  2  0  0  0
 20105  1  0  0  0
 21 23  1  0  0  0
 22 28  1  0  0  0
 22 32  2  0  0  0
 26 27  1  0  0  0
 28106  1  0  0  0
 28107  1  0  0  0
 29108  1  0  0  0
 29109  1  0  0  0
 33 34  1  0  0  0
 33 66  1  0  0  0
 33 70  2  0  0  0
 34 36  1  0  0  0
 34 59  1  0  0  0
 34110  1  0  0  0
 35 44  2  0  0  0
 35 45  1  0  0  0
 35 68  1  0  0  0
 36 56  1  0  0  0
 36111  1  0  0  0
 37 39  1  0  0  0
 37 47  1  0  0  0
 37 66  1  0  0  0
 37112  1  0  0  0
 38 43  2  0  0  0
 38 46  1  0  0  0
 38 47  1  0  0  0
 39 64  1  0  0  0
 39 67  2  0  0  0
 40 52  1  0  0  0
 40 53  2  0  0  0
 40 58  1  0  0  0
 41113  1  0  0  0
 41114  1  0  0  0
 41115  1  0  0  0
 41 48  1  0  0  0
 42 43  1  0  0  0
 42 66  1  0  0  0
 42116  1  0  0  0
 42117  1  0  0  0
 43 44  1  0  0  0
 44118  1  0  0  0
 45 46  2  0  0  0
 45119  1  0  0  0
 46120  1  0  0  0
 47121  1  0  0  0
 47122  1  0  0  0
 48 56  1  0  0  0
 48 65  1  0  0  0
 48123  1  0  0  0
 49 50  1  0  0  0
 49 53  1  0  0  0
 49 64  1  0  0  0
 49124  1  0  0  0
 50 51  1  0  0  0
 50125  1  0  0  0
 50126  1  0  0  0
 51 52  1  0  0  0
 51127  1  0  0  0
 51128  1  0  0  0
 52129  1  0  0  0
 52130  1  0  0  0
 53 54  1  0  0  0
 54 55  2  0  0  0
 54131  1  0  0  0
 55 57  1  0  0  0
 55132  1  0  0  0
 56 69  2  0  0  0
 57 58  2  0  0  0
 57133  1  0  0  0
 58134  1  0  0  0
 59 60  1  0  0  0
 59 61  1  0  0  0
 59 62  1  0  0  0
 60135  1  0  0  0
 60136  1  0  0  0
 60137  1  0  0  0
 61138  1  0  0  0
 61139  1  0  0  0
 61140  1  0  0  0
 62141  1  0  0  0
 62142  1  0  0  0
 62143  1  0  0  0
 63 65  1  0  0  0
 63144  1  0  0  0
 63145  1  0  0  0
 63146  1  0  0  0
 64147  1  0  0  0
 65148  1  0  0  0
 68 87  1  0  0  0
 71 73  2  0  0  0
 71 74  1  0  0  0
 71149  1  0  0  0
 72 73  1  0  0  0
 72 88  2  0  0  0
 72150  1  0  0  0
 73 82  1  0  0  0
 74 75  2  0  0  0
 74 84  1  0  0  0
 75 76  1  0  0  0
 75 88  1  0  0  0
 76 77  1  0  0  0
 76151  1  0  0  0
 76152  1  0  0  0
 77 83  1  0  0  0
 77153  1  0  0  0
 77154  1  0  0  0
 78 80  1  0  0  0
 78 82  1  0  0  0
 78155  1  0  0  0
 78156  1  0  0  0
 79 81  1  0  0  0
 79 82  1  0  0  0
 79157  1  0  0  0
 79158  1  0  0  0
 80 89  1  0  0  0
 80159  1  0  0  0
 80160  1  0  0  0
 81 89  1  0  0  0
 81161  1  0  0  0
 81162  1  0  0  0
 82163  1  0  0  0
 83 84  1  0  0  0
 83 87  1  0  0  0
 83164  1  0  0  0
 84 85  1  0  0  0
 84 86  1  0  0  0
 85165  1  0  0  0
 85166  1  0  0  0
 85167  1  0  0  0
 86168  1  0  0  0
 86169  1  0  0  0
 86170  1  0  0  0
 87171  1  0  0  0
 87172  1  0  0  0
M  ISO  4   1 100  68 101  87 101  89 100
M  END
> <chiral flag>
0

> <version>
0

> <s_m_source_file>
/data/baiqing/PycharmProjects/Reinvent-master-3.2/result/LINK_invent/BTK/process_docking_weight1_custom_sum_contain_oxygen_bond_distance_aromatic_linkinvent_7_9_3/rearranged_h_0171.sdf

> <i_m_source_file_index>
56

> <r_mmod_Potential_Energy-OPLS-2005>
110.192192077637

> <r_mmod_Stretch_Energy-OPLS-2005>
50.1475563049316

> <r_mmod_Bend_Energy-OPLS-2005>
136.978164672852

> <r_mmod_Torsional_Energy-OPLS-2005>
322.906951904297

> <r_mmod_Improper_Torsional_Energy-OPLS-2005>
4.70539426803589

> <r_mmod_Van_der_Waal_Energy-OPLS-2005>
184.979537963867

> <r_mmod_Electrostatic_Energy-OPLS-2005>
-400.477996826172

> <r_mmod_Solvation_Energy-OPLS-2005>
-206.795257568359

> <b_mmod_Minimization_Converged-OPLS-2005>
0

> <r_mmod_RMS_Derivative-OPLS-2005>
1.58904016017914

$$$$
56
                    3D
 Structure written by MMmdl.
154163  0  0  1  0            999 V2000
  -30.3947  -15.2868   20.4348 C   0  0  0  0  0  0
  -30.4202  -12.8152   19.5831 C   0  0  0  0  0  0
  -29.5382  -12.6000   18.3265 C   0  0  0  0  0  0
  -28.0885  -12.3110   18.7426 C   0  0  0  0  0  0
  -27.6081  -13.2776   19.8524 C   0  0  2  0  0  0
  -28.6237  -13.4414   21.0017 C   0  0  0  0  0  0
  -25.2348  -13.8265   20.5863 C   0  0  0  0  0  0
  -24.1689  -13.0473   20.9283 C   0  0  0  0  0  0
  -24.6337  -11.6955   20.8802 C   0  0  0  0  0  0
  -23.9033  -10.4299   21.0438 C   0  0  0  0  0  0
  -24.3602   -9.4212   21.9205 C   0  0  0  0  0  0
  -23.6264   -8.2256   22.0755 C   0  0  0  0  0  0
  -22.4261   -8.0274   21.3525 C   0  0  0  0  0  0
  -21.9881   -9.0268   20.4646 C   0  0  0  0  0  0
  -22.7213  -10.2146   20.3061 C   0  0  0  0  0  0
  -21.6855   -6.0712   22.5243 C   0  0  0  0  0  0
  -21.4040   -6.5620   23.8190 C   0  0  0  0  0  0
  -21.3665   -5.6785   24.9174 C   0  0  0  0  0  0
  -21.6035   -4.3041   24.7211 C   0  0  0  0  0  0
  -21.8842   -3.8128   23.4332 C   0  0  0  0  0  0
  -21.9195   -4.6937   22.3383 C   0  0  0  0  0  0
  -22.7688  -13.5177   21.1916 C   0  0  0  0  0  0
  -22.1672   -4.2140   21.0946 F   0  0  0  0  0  0
  -21.5601   -3.4521   25.7721 F   0  0  0  0  0  0
  -29.8568  -13.9632   20.3950 N   0  0  0  0  0  0
  -26.2753  -12.9518   20.3353 N   0  0  0  0  0  0
  -25.9266  -11.6637   20.5817 N   0  0  0  0  0  0
  -22.0365  -12.8139   22.0461 N   0  0  0  0  0  0
  -25.4122  -15.2025   20.4410 N   0  0  0  0  0  0
  -31.6040  -15.2967   20.1539 O   0  0  0  0  0  0
  -21.6639   -6.8859   21.4202 O   0  0  0  0  0  0
  -22.3362  -14.5486   20.6722 O   0  0  0  0  0  0
  -24.6703  -31.8204   23.1655 C   0  0  0  0  0  0
  -25.9398  -32.4531   23.8125 C   0  0  1  0  0  0
  -27.1887  -26.8496   20.2507 C   0  0  0  0  0  0
  -25.6088  -33.8362   24.2026 N   0  0  0  0  0  0
  -23.4843  -30.4343   21.5123 C   0  0  2  0  0  0
  -24.9371  -28.8100   20.1226 C   0  0  0  0  0  0
  -22.7688  -29.4456   22.4698 C   0  0  0  0  0  0
  -18.0349  -28.1439   22.8471 C   0  0  0  0  0  0
  -24.1518  -36.7181   23.2638 C   0  0  0  0  0  0
  -26.0625  -30.6048   21.4118 C   0  0  0  0  0  0
  -26.1237  -29.1869   20.7676 C   0  0  0  0  0  0
  -27.2464  -28.2335   20.8008 C   0  0  0  0  0  0
  -25.9818  -26.6529   19.5386 C   0  0  0  0  0  0
  -24.8979  -27.5662   19.4806 C   0  0  0  0  0  0
  -23.7330  -29.7531   20.1414 C   0  0  0  0  0  0
  -25.4163  -36.2928   24.0264 C   0  0  1  0  0  0
  -20.5985  -28.3815   23.1152 C   0  0  2  0  0  0
  -20.6829  -26.9502   22.5386 C   0  0  0  0  0  0
  -19.5789  -26.6415   21.5208 C   0  0  0  0  0  0
  -18.1982  -26.7973   22.1628 C   0  0  0  0  0  0
  -19.1618  -28.8941   23.2796 C   0  0  0  0  0  0
  -18.9519  -30.1524   23.8831 C   0  0  0  0  0  0
  -17.6507  -30.6610   24.0577 C   0  0  0  0  0  0
  -25.9147  -34.9308   23.4943 C   0  0  0  0  0  0
  -16.5401  -29.9096   23.6350 C   0  0  0  0  0  0
  -16.7326  -28.6534   23.0340 C   0  0  0  0  0  0
  -26.4646  -31.6479   25.0666 C   0  0  0  0  0  0
  -25.3763  -31.3764   26.1307 C   0  0  0  0  0  0
  -27.0533  -30.2813   24.6452 C   0  0  0  0  0  0
  -27.6106  -32.4322   25.7488 C   0  0  0  0  0  0
  -27.5565  -37.1740   24.8459 C   0  0  0  0  0  0
  -21.4352  -29.3066   22.3448 N   0  0  0  0  0  0
  -26.4289  -37.3670   23.9393 N   0  0  0  0  0  0
  -24.7597  -30.9839   22.0809 N   0  0  0  0  0  0
  -23.4229  -28.8046   23.2959 O   0  0  0  0  0  0
  -28.1787  -25.7130   20.2604 O   0  0  0  0  0  0
  -26.5738  -34.8869   22.4545 O   0  0  0  0  0  0
  -23.5762  -32.1226   23.6713 O   0  0  0  0  0  0
  -27.9516  -20.9537   18.3000 C   0  0  0  0  0  0
  -28.9511  -21.1705   20.8201 C   0  0  0  0  0  0
  -28.5836  -19.8191   18.8707 C   0  0  0  0  0  0
  -29.0524  -19.7517   20.1854 C   0  0  0  0  0  0
  -27.8304  -22.2253   18.9431 C   0  0  0  0  0  0
  -28.3686  -22.5006   20.2297 C   0  0  0  0  0  0
  -29.0556  -18.6229   18.0763 C   0  0  0  0  0  0
  -30.3108  -18.1485   18.8541 C   0  0  0  0  0  0
  -29.9290  -18.2129   20.3485 C   0  0  2  0  0  0
  -27.0858  -23.3316   18.2212 C   0  0  0  0  0  0
  -28.0634  -24.1424   20.8558 C   0  0  0  0  0  0
  -29.6253  -16.5641   20.5869 N   0  0  0  0  0  0
  -31.4557  -12.9997   19.2920 H   0  0  0  0  0  0
  -30.4493  -11.8975   20.1728 H   0  0  0  0  0  0
  -29.9272  -11.7882   17.7113 H   0  0  0  0  0  0
  -29.5764  -13.5018   17.7173 H   0  0  0  0  0  0
  -28.0505  -11.2848   19.1156 H   0  0  0  0  0  0
  -27.4247  -12.3631   17.8799 H   0  0  0  0  0  0
  -27.5283  -14.2527   19.3741 H   0  0  0  0  0  0
  -28.7845  -12.5023   21.5352 H   0  0  0  0  0  0
  -28.2607  -14.1488   21.7485 H   0  0  0  0  0  0
  -25.2780   -9.5719   22.4772 H   0  0  0  0  0  0
  -24.0004   -7.4626   22.7441 H   0  0  0  0  0  0
  -21.0836   -8.8755   19.8919 H   0  0  0  0  0  0
  -22.3663  -10.9684   19.6151 H   0  0  0  0  0  0
  -21.2065   -7.6135   23.9712 H   0  0  0  0  0  0
  -21.1466   -6.0502   25.9068 H   0  0  0  0  0  0
  -22.0623   -2.7593   23.2833 H   0  0  0  0  0  0
  -22.4052  -11.9817   22.4850 H   0  0  0  0  0  0
  -21.0990  -13.1105   22.2792 H   0  0  0  0  0  0
  -24.6572  -15.8668   20.5867 H   0  0  0  0  0  0
  -26.2591  -15.6350   20.1009 H   0  0  0  0  0  0
  -26.7499  -32.5028   23.0842 H   0  0  0  0  0  0
  -25.0174  -33.9407   25.0133 H   0  0  0  0  0  0
  -22.7957  -31.2654   21.3398 H   0  0  0  0  0  0
  -23.3751  -35.9533   23.3256 H   0  0  0  0  0  0
  -24.3590  -36.8884   22.2067 H   0  0  0  0  0  0
  -23.7316  -37.6373   23.6728 H   0  0  0  0  0  0
  -26.2590  -31.3336   20.6260 H   0  0  0  0  0  0
  -26.9215  -30.6620   22.0685 H   0  0  0  0  0  0
  -28.1499  -28.5265   21.3157 H   0  0  0  0  0  0
  -25.8327  -25.7220   19.0237 H   0  0  0  0  0  0
  -24.0035  -27.2732   18.9435 H   0  0  0  0  0  0
  -23.9004  -30.5254   19.3888 H   0  0  0  0  0  0
  -22.8377  -29.2202   19.8105 H   0  0  0  0  0  0
  -25.1362  -36.1674   25.0749 H   0  0  0  0  0  0
  -21.0088  -28.3468   24.1255 H   0  0  0  0  0  0
  -20.5747  -26.2446   23.3644 H   0  0  0  0  0  0
  -21.6687  -26.7474   22.1176 H   0  0  0  0  0  0
  -19.6948  -25.6305   21.1271 H   0  0  0  0  0  0
  -19.6697  -27.3190   20.6721 H   0  0  0  0  0  0
  -17.4248  -26.6740   21.4030 H   0  0  0  0  0  0
  -18.0364  -26.0123   22.9049 H   0  0  0  0  0  0
  -19.7995  -30.7385   24.2147 H   0  0  0  0  0  0
  -17.5046  -31.6260   24.5231 H   0  0  0  0  0  0
  -15.5392  -30.2979   23.7652 H   0  0  0  0  0  0
  -15.8752  -28.0819   22.7037 H   0  0  0  0  0  0
  -24.5944  -30.7118   25.7593 H   0  0  0  0  0  0
  -24.8973  -32.2997   26.4583 H   0  0  0  0  0  0
  -25.7998  -30.9013   27.0168 H   0  0  0  0  0  0
  -26.3205  -29.6459   24.1456 H   0  0  0  0  0  0
  -27.4017  -29.7207   25.5135 H   0  0  0  0  0  0
  -27.9192  -30.3892   23.9910 H   0  0  0  0  0  0
  -27.2617  -33.3641   26.1949 H   0  0  0  0  0  0
  -28.3999  -32.6872   25.0396 H   0  0  0  0  0  0
  -28.0721  -31.8563   26.5517 H   0  0  0  0  0  0
  -28.2556  -38.0054   24.7496 H   0  0  0  0  0  0
  -28.1094  -36.2571   24.6301 H   0  0  0  0  0  0
  -27.2279  -37.1426   25.8864 H   0  0  0  0  0  0
  -20.9607  -29.8678   21.6526 H   0  0  0  0  0  0
  -26.0093  -38.2715   24.1385 H   0  0  0  0  0  0
  -27.5647  -20.8554   17.2938 H   0  0  0  0  0  0
  -29.3810  -21.2603   21.8111 H   0  0  0  0  0  0
  -29.2844  -18.8601   17.0345 H   0  0  0  0  0  0
  -28.2793  -17.8529   18.0939 H   0  0  0  0  0  0
  -31.1206  -18.8630   18.6988 H   0  0  0  0  0  0
  -30.7036  -17.1958   18.5039 H   0  0  0  0  0  0
  -30.8171  -18.4267   20.9414 H   0  0  0  0  0  0
  -27.7600  -24.1669   18.0237 H   0  0  0  0  0  0
  -26.2732  -23.6847   18.8566 H   0  0  0  0  0  0
  -26.6560  -23.0205   17.2661 H   0  0  0  0  0  0
  -27.0386  -24.0706   21.2313 H   0  0  0  0  0  0
  -28.6624  -24.1711   21.7699 H   0  0  0  0  0  0
  -28.6794  -16.3876   20.8959 H   0  0  0  0  0  0
  1 25  1  0  0  0
  1 30  2  0  0  0
  1 82  1  0  0  0
  2  3  1  0  0  0
  2 25  1  0  0  0
  2 83  1  0  0  0
  2 84  1  0  0  0
  3  4  1  0  0  0
  3 85  1  0  0  0
  3 86  1  0  0  0
  4  5  1  0  0  0
  4 87  1  0  0  0
  4 88  1  0  0  0
  5  6  1  0  0  0
  5 26  1  0  0  0
  5 89  1  0  0  0
  6 25  1  0  0  0
  6 90  1  0  0  0
  6 91  1  0  0  0
  7  8  2  0  0  0
  7 26  1  0  0  0
  7 29  1  0  0  0
  8  9  1  0  0  0
  8 22  1  0  0  0
  9 10  1  0  0  0
  9 27  2  0  0  0
 10 11  2  0  0  0
 10 15  1  0  0  0
 11 12  1  0  0  0
 11 92  1  0  0  0
 12 13  2  0  0  0
 12 93  1  0  0  0
 13 14  1  0  0  0
 13 31  1  0  0  0
 14 15  2  0  0  0
 14 94  1  0  0  0
 15 95  1  0  0  0
 16 17  2  0  0  0
 16 21  1  0  0  0
 16 31  1  0  0  0
 17 18  1  0  0  0
 17 96  1  0  0  0
 18 19  2  0  0  0
 18 97  1  0  0  0
 19 20  1  0  0  0
 19 24  1  0  0  0
 20 21  2  0  0  0
 20 98  1  0  0  0
 21 23  1  0  0  0
 22 28  1  0  0  0
 22 32  2  0  0  0
 26 27  1  0  0  0
 28 99  1  0  0  0
 28100  1  0  0  0
 29101  1  0  0  0
 29102  1  0  0  0
 33 34  1  0  0  0
 33 66  1  0  0  0
 33 70  2  0  0  0
 34 36  1  0  0  0
 34 59  1  0  0  0
 34103  1  0  0  0
 35 44  2  0  0  0
 35 45  1  0  0  0
 35 68  1  0  0  0
 36 56  1  0  0  0
 36104  1  0  0  0
 37 39  1  0  0  0
 37 47  1  0  0  0
 37 66  1  0  0  0
 37105  1  0  0  0
 38 43  2  0  0  0
 38 46  1  0  0  0
 38 47  1  0  0  0
 39 64  1  0  0  0
 39 67  2  0  0  0
 40 52  1  0  0  0
 40 53  2  0  0  0
 40 58  1  0  0  0
 41106  1  0  0  0
 41107  1  0  0  0
 41108  1  0  0  0
 41 48  1  0  0  0
 42 43  1  0  0  0
 42 66  1  0  0  0
 42109  1  0  0  0
 42110  1  0  0  0
 43 44  1  0  0  0
 44111  1  0  0  0
 45 46  2  0  0  0
 45112  1  0  0  0
 46113  1  0  0  0
 47114  1  0  0  0
 47115  1  0  0  0
 48 56  1  0  0  0
 48 65  1  0  0  0
 48116  1  0  0  0
 49 50  1  0  0  0
 49 53  1  0  0  0
 49 64  1  0  0  0
 49117  1  0  0  0
 50 51  1  0  0  0
 50118  1  0  0  0
 50119  1  0  0  0
 51 52  1  0  0  0
 51120  1  0  0  0
 51121  1  0  0  0
 52122  1  0  0  0
 52123  1  0  0  0
 53 54  1  0  0  0
 54 55  2  0  0  0
 54124  1  0  0  0
 55 57  1  0  0  0
 55125  1  0  0  0
 56 69  2  0  0  0
 57 58  2  0  0  0
 57126  1  0  0  0
 58127  1  0  0  0
 59 60  1  0  0  0
 59 61  1  0  0  0
 59 62  1  0  0  0
 60128  1  0  0  0
 60129  1  0  0  0
 60130  1  0  0  0
 61131  1  0  0  0
 61132  1  0  0  0
 61133  1  0  0  0
 62134  1  0  0  0
 62135  1  0  0  0
 62136  1  0  0  0
 63 65  1  0  0  0
 63137  1  0  0  0
 63138  1  0  0  0
 63139  1  0  0  0
 64140  1  0  0  0
 65141  1  0  0  0
 68 81  1  0  0  0
 71 73  2  0  0  0
 71 75  1  0  0  0
 71142  1  0  0  0
 72 74  2  0  0  0
 72 76  1  0  0  0
 72143  1  0  0  0
 73 74  1  0  0  0
 73 77  1  0  0  0
 74 79  1  0  0  0
 75 76  2  0  0  0
 75 80  1  0  0  0
 76 81  1  0  0  0
 77 78  1  0  0  0
 77144  1  0  0  0
 77145  1  0  0  0
 78 79  1  0  0  0
 78146  1  0  0  0
 78147  1  0  0  0
 79 82  1  0  0  0
 79148  1  0  0  0
 80149  1  0  0  0
 80150  1  0  0  0
 80151  1  0  0  0
 81152  1  0  0  0
 81153  1  0  0  0
 82154  1  0  0  0
M  ISO  4   1 100  68 101  81 101  82 100
M  END
> <chiral flag>
0

> <version>
0

> <s_m_source_file>
/data/baiqing/PycharmProjects/Reinvent-master-3.2/result/LINK_invent/BTK/process_docking_weight1_custom_sum_contain_oxygen_bond_distance_aromatic_linkinvent_7_9_3/rearranged_h_0171.sdf

> <i_m_source_file_index>
57

> <r_mmod_Potential_Energy-OPLS-2005>
1535.62817382812

> <r_mmod_Stretch_Energy-OPLS-2005>
669.903686523438

> <r_mmod_Bend_Energy-OPLS-2005>
551.817626953125

> <r_mmod_Torsional_Energy-OPLS-2005>
254.808074951172

> <r_mmod_Improper_Torsional_Energy-OPLS-2005>
10.8656330108643

> <r_mmod_Van_der_Waal_Energy-OPLS-2005>
127.985862731934

> <r_mmod_Electrostatic_Energy-OPLS-2005>
-391.305755615234

> <r_mmod_Solvation_Energy-OPLS-2005>
-209.067459106445

> <b_mmod_Minimization_Converged-OPLS-2005>
0

> <r_mmod_RMS_Derivative-OPLS-2005>
7.48604249954224

$$$$
57
                    3D
 Structure written by MMmdl.
161171  0  0  1  0            999 V2000
  -30.5244  -15.1613   20.4098 C   0  0  0  0  0  0
  -30.4321  -12.7511   19.5076 C   0  0  0  0  0  0
  -29.5240  -12.5558   18.2720 C   0  0  0  0  0  0
  -28.0702  -12.2969   18.7048 C   0  0  0  0  0  0
  -27.6100  -13.2697   19.8205 C   0  0  2  0  0  0
  -28.6516  -13.4205   20.9496 C   0  0  0  0  0  0
  -25.2344  -13.8219   20.5716 C   0  0  0  0  0  0
  -24.1714  -13.0411   20.9273 C   0  0  0  0  0  0
  -24.6379  -11.6917   20.8780 C   0  0  0  0  0  0
  -23.9070  -10.4283   21.0406 C   0  0  0  0  0  0
  -24.3613   -9.4200   21.9183 C   0  0  0  0  0  0
  -23.6287   -8.2237   22.0753 C   0  0  0  0  0  0
  -22.4273   -8.0274   21.3539 C   0  0  0  0  0  0
  -21.9908   -9.0246   20.4641 C   0  0  0  0  0  0
  -22.7239  -10.2124   20.3055 C   0  0  0  0  0  0
  -21.6853   -6.0725   22.5268 C   0  0  0  0  0  0
  -21.4012   -6.5629   23.8201 C   0  0  0  0  0  0
  -21.3658   -5.6783   24.9164 C   0  0  0  0  0  0
  -21.6050   -4.3048   24.7220 C   0  0  0  0  0  0
  -21.8815   -3.8135   23.4341 C   0  0  0  0  0  0
  -21.9187   -4.6950   22.3394 C   0  0  0  0  0  0
  -22.7725  -13.5165   21.1895 C   0  0  0  0  0  0
  -22.1657   -4.2133   21.0975 F   0  0  0  0  0  0
  -21.5639   -3.4535   25.7738 F   0  0  0  0  0  0
  -29.8870  -13.9009   20.3109 N   0  0  0  0  0  0
  -26.2800  -12.9509   20.3225 N   0  0  0  0  0  0
  -25.9321  -11.6616   20.5749 N   0  0  0  0  0  0
  -22.0367  -12.8183   22.0461 N   0  0  0  0  0  0
  -25.3842  -15.1941   20.4031 N   0  0  0  0  0  0
  -31.7538  -15.0924   20.2686 O   0  0  0  0  0  0
  -21.6641   -6.8869   21.4233 O   0  0  0  0  0  0
  -22.3405  -14.5444   20.6705 O   0  0  0  0  0  0
  -24.6552  -31.8341   23.1774 C   0  0  0  0  0  0
  -25.9280  -32.4640   23.8213 C   0  0  1  0  0  0
  -27.2152  -27.0109   20.1897 C   0  0  0  0  0  0
  -25.5981  -33.8448   24.2129 N   0  0  0  0  0  0
  -23.4642  -30.4478   21.5270 C   0  0  2  0  0  0
  -24.9149  -28.8436   20.1244 C   0  0  0  0  0  0
  -22.7624  -29.4503   22.4834 C   0  0  0  0  0  0
  -18.0318  -28.1384   22.8470 C   0  0  0  0  0  0
  -24.1489  -36.7228   23.2643 C   0  0  0  0  0  0
  -26.0281  -30.6682   21.3934 C   0  0  0  0  0  0
  -26.0983  -29.2620   20.7480 C   0  0  0  0  0  0
  -27.2511  -28.3677   20.7528 C   0  0  0  0  0  0
  -26.0026  -26.7178   19.5332 C   0  0  0  0  0  0
  -24.8856  -27.5873   19.4994 C   0  0  0  0  0  0
  -23.6997  -29.7652   20.1526 C   0  0  0  0  0  0
  -25.4127  -36.2995   24.0304 C   0  0  1  0  0  0
  -20.5938  -28.3738   23.1205 C   0  0  2  0  0  0
  -20.6811  -26.9430   22.5396 C   0  0  0  0  0  0
  -19.5784  -26.6366   21.5213 C   0  0  0  0  0  0
  -18.1965  -26.7914   22.1622 C   0  0  0  0  0  0
  -19.1572  -28.8883   23.2826 C   0  0  0  0  0  0
  -18.9476  -30.1474   23.8858 C   0  0  0  0  0  0
  -17.6474  -30.6584   24.0557 C   0  0  0  0  0  0
  -25.9091  -34.9378   23.5029 C   0  0  0  0  0  0
  -16.5373  -29.9066   23.6335 C   0  0  0  0  0  0
  -16.7299  -28.6482   23.0358 C   0  0  0  0  0  0
  -26.4556  -31.6542   25.0696 C   0  0  0  0  0  0
  -25.3715  -31.3774   26.1372 C   0  0  0  0  0  0
  -27.0435  -30.2921   24.6357 C   0  0  0  0  0  0
  -27.6053  -32.4338   25.7503 C   0  0  0  0  0  0
  -27.5567  -37.1773   24.8467 C   0  0  0  0  0  0
  -21.4304  -29.3056   22.3578 N   0  0  0  0  0  0
  -26.4279  -37.3724   23.9405 N   0  0  0  0  0  0
  -24.7369  -31.0087   22.0866 N   0  0  0  0  0  0
  -23.4215  -28.8073   23.3044 O   0  0  0  0  0  0
  -28.2526  -25.9756   20.1050 O   0  0  0  0  0  0
  -26.5686  -34.8898   22.4614 O   0  0  0  0  0  0
  -23.5647  -32.1285   23.6924 O   0  0  0  0  0  0
  -29.4557  -21.9236   20.3394 C   0  0  0  0  0  0
  -27.1420  -22.1734   20.7126 C   0  0  0  0  0  0
  -29.3589  -20.4197   20.4333 C   0  0  0  0  0  0
  -28.1366  -19.8160   20.8194 C   0  0  0  0  0  0
  -28.3475  -22.9104   20.5197 C   0  0  0  0  0  0
  -27.0180  -20.7370   20.8561 C   0  0  0  0  0  0
  -30.4875  -19.2855   20.1699 C   0  0  0  0  0  0
  -29.5129  -18.1574   22.1544 C   0  0  0  0  0  0
  -28.4774  -17.0065   20.3803 C   0  0  0  0  0  0
  -30.4727  -17.8470   21.0170 C   0  0  2  0  0  0
  -28.2039  -18.2747   21.3609 C   0  0  1  0  0  0
  -25.5960  -20.2455   21.0677 C   0  0  0  0  0  0
  -27.0618  -17.9169   22.3343 C   0  0  0  0  0  0
  -28.3221  -24.5883   20.8997 C   0  0  0  0  0  0
  -29.8959  -16.4955   20.4954 N   0  0  0  0  0  0
  -31.4540  -12.9358   19.1733 H   0  0  0  0  0  0
  -30.4804  -11.8405   20.1073 H   0  0  0  0  0  0
  -29.8899  -11.7306   17.6603 H   0  0  0  0  0  0
  -29.5658  -13.4479   17.6451 H   0  0  0  0  0  0
  -28.0172  -11.2710   19.0718 H   0  0  0  0  0  0
  -27.3986  -12.3491   17.8471 H   0  0  0  0  0  0
  -27.5300  -14.2389   19.3284 H   0  0  0  0  0  0
  -28.3123  -14.1420   21.6938 H   0  0  0  0  0  0
  -28.8056  -12.4785   21.4777 H   0  0  0  0  0  0
  -25.2745   -9.5681   22.4772 H   0  0  0  0  0  0
  -23.9974   -7.4638   22.7497 H   0  0  0  0  0  0
  -21.0822   -8.8771   19.8969 H   0  0  0  0  0  0
  -22.3679  -10.9661   19.6175 H   0  0  0  0  0  0
  -21.2012   -7.6137   23.9699 H   0  0  0  0  0  0
  -21.1480   -6.0515   25.9066 H   0  0  0  0  0  0
  -22.0597   -2.7597   23.2841 H   0  0  0  0  0  0
  -22.3967  -11.9867   22.4906 H   0  0  0  0  0  0
  -21.0981  -13.1215   22.2631 H   0  0  0  0  0  0
  -24.5995  -15.8277   20.5036 H   0  0  0  0  0  0
  -26.2065  -15.6377   20.0189 H   0  0  0  0  0  0
  -26.7344  -32.5211   23.0934 H   0  0  0  0  0  0
  -25.0096  -33.9547   25.0254 H   0  0  0  0  0  0
  -22.7726  -31.2765   21.3615 H   0  0  0  0  0  0
  -23.3761  -35.9551   23.3290 H   0  0  0  0  0  0
  -24.3566  -36.8885   22.2061 H   0  0  0  0  0  0
  -23.7245  -37.6414   23.6703 H   0  0  0  0  0  0
  -26.1943  -31.4116   20.6126 H   0  0  0  0  0  0
  -26.8937  -30.7285   22.0406 H   0  0  0  0  0  0
  -28.1622  -28.6999   21.2303 H   0  0  0  0  0  0
  -25.9068  -25.7583   19.0450 H   0  0  0  0  0  0
  -23.9854  -27.2609   18.9973 H   0  0  0  0  0  0
  -23.8514  -30.5340   19.3936 H   0  0  0  0  0  0
  -22.8108  -29.2161   19.8366 H   0  0  0  0  0  0
  -25.1324  -36.1801   25.0797 H   0  0  0  0  0  0
  -21.0012  -28.3324   24.1335 H   0  0  0  0  0  0
  -20.5709  -26.2355   23.3628 H   0  0  0  0  0  0
  -21.6674  -26.7435   22.1198 H   0  0  0  0  0  0
  -19.6953  -25.6267   21.1268 H   0  0  0  0  0  0
  -19.6711  -27.3151   20.6723 H   0  0  0  0  0  0
  -17.4238  -26.6650   21.4027 H   0  0  0  0  0  0
  -18.0368  -26.0062   22.9023 H   0  0  0  0  0  0
  -19.7955  -30.7300   24.2205 H   0  0  0  0  0  0
  -17.5027  -31.6253   24.5170 H   0  0  0  0  0  0
  -15.5370  -30.2956   23.7674 H   0  0  0  0  0  0
  -15.8701  -28.0786   22.7097 H   0  0  0  0  0  0
  -24.5902  -30.7109   25.7696 H   0  0  0  0  0  0
  -24.8896  -32.2969   26.4698 H   0  0  0  0  0  0
  -25.7971  -30.9015   27.0213 H   0  0  0  0  0  0
  -26.3078  -29.6622   24.1342 H   0  0  0  0  0  0
  -27.3982  -29.7248   25.4971 H   0  0  0  0  0  0
  -27.9010  -30.4122   23.9736 H   0  0  0  0  0  0
  -27.2616  -33.3671   26.1976 H   0  0  0  0  0  0
  -28.3921  -32.6851   25.0380 H   0  0  0  0  0  0
  -28.0653  -31.8538   26.5514 H   0  0  0  0  0  0
  -28.2581  -38.0072   24.7500 H   0  0  0  0  0  0
  -28.1067  -36.2600   24.6311 H   0  0  0  0  0  0
  -27.2280  -37.1432   25.8870 H   0  0  0  0  0  0
  -20.9545  -29.8748   21.6717 H   0  0  0  0  0  0
  -26.0134  -38.2785   24.1410 H   0  0  0  0  0  0
  -30.4420  -22.3356   20.1736 H   0  0  0  0  0  0
  -26.2478  -22.7657   20.8523 H   0  0  0  0  0  0
  -30.5009  -19.0649   19.1022 H   0  0  0  0  0  0
  -31.4443  -19.7702   20.3674 H   0  0  0  0  0  0
  -29.7680  -19.0568   22.7178 H   0  0  0  0  0  0
  -29.5055  -17.3307   22.8682 H   0  0  0  0  0  0
  -28.2369  -17.2536   19.3459 H   0  0  0  0  0  0
  -27.8294  -16.1816   20.6588 H   0  0  0  0  0  0
  -31.4740  -17.6539   21.4048 H   0  0  0  0  0  0
  -25.4032  -19.3466   20.4830 H   0  0  0  0  0  0
  -24.8662  -20.9852   20.7353 H   0  0  0  0  0  0
  -25.3954  -20.0562   22.1219 H   0  0  0  0  0  0
  -27.2488  -16.9664   22.8353 H   0  0  0  0  0  0
  -26.1081  -17.7865   21.8281 H   0  0  0  0  0  0
  -26.9539  -18.6687   23.1170 H   0  0  0  0  0  0
  -29.2353  -24.7065   21.4829 H   0  0  0  0  0  0
  -27.5356  -24.6797   21.6501 H   0  0  0  0  0  0
  1 25  1  0  0  0
  1 30  2  0  0  0
  1 85  1  0  0  0
  2  3  1  0  0  0
  2 25  1  0  0  0
  2 86  1  0  0  0
  2 87  1  0  0  0
  3  4  1  0  0  0
  3 88  1  0  0  0
  3 89  1  0  0  0
  4  5  1  0  0  0
  4 90  1  0  0  0
  4 91  1  0  0  0
  5  6  1  0  0  0
  5 26  1  0  0  0
  5 92  1  0  0  0
  6 25  1  0  0  0
  6 93  1  0  0  0
  6 94  1  0  0  0
  7  8  2  0  0  0
  7 26  1  0  0  0
  7 29  1  0  0  0
  8  9  1  0  0  0
  8 22  1  0  0  0
  9 10  1  0  0  0
  9 27  2  0  0  0
 10 11  2  0  0  0
 10 15  1  0  0  0
 11 12  1  0  0  0
 11 95  1  0  0  0
 12 13  2  0  0  0
 12 96  1  0  0  0
 13 14  1  0  0  0
 13 31  1  0  0  0
 14 15  2  0  0  0
 14 97  1  0  0  0
 15 98  1  0  0  0
 16 17  2  0  0  0
 16 21  1  0  0  0
 16 31  1  0  0  0
 17 18  1  0  0  0
 17 99  1  0  0  0
 18 19  2  0  0  0
 18100  1  0  0  0
 19 20  1  0  0  0
 19 24  1  0  0  0
 20 21  2  0  0  0
 20101  1  0  0  0
 21 23  1  0  0  0
 22 28  1  0  0  0
 22 32  2  0  0  0
 26 27  1  0  0  0
 28102  1  0  0  0
 28103  1  0  0  0
 29104  1  0  0  0
 29105  1  0  0  0
 33 34  1  0  0  0
 33 66  1  0  0  0
 33 70  2  0  0  0
 34 36  1  0  0  0
 34 59  1  0  0  0
 34106  1  0  0  0
 35 44  2  0  0  0
 35 45  1  0  0  0
 35 68  1  0  0  0
 36 56  1  0  0  0
 36107  1  0  0  0
 37 39  1  0  0  0
 37 47  1  0  0  0
 37 66  1  0  0  0
 37108  1  0  0  0
 38 43  2  0  0  0
 38 46  1  0  0  0
 38 47  1  0  0  0
 39 64  1  0  0  0
 39 67  2  0  0  0
 40 52  1  0  0  0
 40 53  2  0  0  0
 40 58  1  0  0  0
 41109  1  0  0  0
 41110  1  0  0  0
 41111  1  0  0  0
 41 48  1  0  0  0
 42 43  1  0  0  0
 42 66  1  0  0  0
 42112  1  0  0  0
 42113  1  0  0  0
 43 44  1  0  0  0
 44114  1  0  0  0
 45 46  2  0  0  0
 45115  1  0  0  0
 46116  1  0  0  0
 47117  1  0  0  0
 47118  1  0  0  0
 48 56  1  0  0  0
 48 65  1  0  0  0
 48119  1  0  0  0
 49 50  1  0  0  0
 49 53  1  0  0  0
 49 64  1  0  0  0
 49120  1  0  0  0
 50 51  1  0  0  0
 50121  1  0  0  0
 50122  1  0  0  0
 51 52  1  0  0  0
 51123  1  0  0  0
 51124  1  0  0  0
 52125  1  0  0  0
 52126  1  0  0  0
 53 54  1  0  0  0
 54 55  2  0  0  0
 54127  1  0  0  0
 55 57  1  0  0  0
 55128  1  0  0  0
 56 69  2  0  0  0
 57 58  2  0  0  0
 57129  1  0  0  0
 58130  1  0  0  0
 59 60  1  0  0  0
 59 61  1  0  0  0
 59 62  1  0  0  0
 60131  1  0  0  0
 60132  1  0  0  0
 60133  1  0  0  0
 61134  1  0  0  0
 61135  1  0  0  0
 61136  1  0  0  0
 62137  1  0  0  0
 62138  1  0  0  0
 62139  1  0  0  0
 63 65  1  0  0  0
 63140  1  0  0  0
 63141  1  0  0  0
 63142  1  0  0  0
 64143  1  0  0  0
 65144  1  0  0  0
 68 84  1  0  0  0
 71 73  2  0  0  0
 71 75  1  0  0  0
 71145  1  0  0  0
 72 75  2  0  0  0
 72 76  1  0  0  0
 72146  1  0  0  0
 73 74  1  0  0  0
 73 77  1  0  0  0
 74 76  2  0  0  0
 74 81  1  0  0  0
 75 84  1  0  0  0
 76 82  1  0  0  0
 77147  1  0  0  0
 77148  1  0  0  0
 77 80  1  0  0  0
 78 80  1  0  0  0
 78 81  1  0  0  0
 78149  1  0  0  0
 78150  1  0  0  0
 79 81  1  0  0  0
 79 85  1  0  0  0
 79151  1  0  0  0
 79152  1  0  0  0
 80 85  1  0  0  0
 80153  1  0  0  0
 81 83  1  0  0  0
 82154  1  0  0  0
 82155  1  0  0  0
 82156  1  0  0  0
 83157  1  0  0  0
 83158  1  0  0  0
 83159  1  0  0  0
 84160  1  0  0  0
 84161  1  0  0  0
M  ISO  4   1 100  68 101  84 101  85 100
M  END
> <chiral flag>
0

> <version>
0

> <s_m_source_file>
/data/baiqing/PycharmProjects/Reinvent-master-3.2/result/LINK_invent/BTK/process_docking_weight1_custom_sum_contain_oxygen_bond_distance_aromatic_linkinvent_7_9_3/rearranged_h_0171.sdf

> <i_m_source_file_index>
58

> <r_mmod_Potential_Energy-OPLS-2005>
1259.17883300781

> <r_mmod_Stretch_Energy-OPLS-2005>
382.664642333984

> <r_mmod_Bend_Energy-OPLS-2005>
474.025177001953

> <r_mmod_Torsional_Energy-OPLS-2005>
428.820709228516

> <r_mmod_Improper_Torsional_Energy-OPLS-2005>
8.52127552032471

> <r_mmod_Van_der_Waal_Energy-OPLS-2005>
138.390930175781

> <r_mmod_Electrostatic_Energy-OPLS-2005>
-320.368743896484

> <r_mmod_Solvation_Energy-OPLS-2005>
-194.751998901367

> <b_mmod_Minimization_Converged-OPLS-2005>
0

> <r_mmod_RMS_Derivative-OPLS-2005>
1.3433792591095

$$$$
58
                    3D
 Structure written by MMmdl.
162170  0  0  1  0            999 V2000
  -30.5783  -14.8797   20.4026 C   0  0  0  0  0  0
  -30.4321  -12.5373   19.4983 C   0  0  0  0  0  0
  -29.5159  -12.5054   18.2550 C   0  0  0  0  0  0
  -28.0469  -12.3086   18.6738 C   0  0  0  0  0  0
  -27.6296  -13.2451   19.8391 C   0  0  2  0  0  0
  -28.6723  -13.2618   20.9769 C   0  0  0  0  0  0
  -25.2452  -13.8223   20.5720 C   0  0  0  0  0  0
  -24.1763  -13.0443   20.9228 C   0  0  0  0  0  0
  -24.6378  -11.6927   20.8761 C   0  0  0  0  0  0
  -23.9065  -10.4296   21.0415 C   0  0  0  0  0  0
  -24.3614   -9.4207   21.9193 C   0  0  0  0  0  0
  -23.6292   -8.2239   22.0753 C   0  0  0  0  0  0
  -22.4278   -8.0278   21.3538 C   0  0  0  0  0  0
  -21.9907   -9.0254   20.4649 C   0  0  0  0  0  0
  -22.7230  -10.2136   20.3064 C   0  0  0  0  0  0
  -21.6855   -6.0737   22.5278 C   0  0  0  0  0  0
  -21.4025   -6.5643   23.8210 C   0  0  0  0  0  0
  -21.3659   -5.6790   24.9167 C   0  0  0  0  0  0
  -21.6047   -4.3056   24.7217 C   0  0  0  0  0  0
  -21.8819   -3.8146   23.4338 C   0  0  0  0  0  0
  -21.9190   -4.6964   22.3395 C   0  0  0  0  0  0
  -22.7783  -13.5217   21.1864 C   0  0  0  0  0  0
  -22.1651   -4.2151   21.0971 F   0  0  0  0  0  0
  -21.5613   -3.4538   25.7730 F   0  0  0  0  0  0
  -29.9569  -13.6388   20.3783 N   0  0  0  0  0  0
  -26.2880  -12.9455   20.3253 N   0  0  0  0  0  0
  -25.9310  -11.6588   20.5756 N   0  0  0  0  0  0
  -22.0414  -12.8225   22.0423 N   0  0  0  0  0  0
  -25.4113  -15.1960   20.4156 N   0  0  0  0  0  0
  -31.7832  -14.9193   20.1406 O   0  0  0  0  0  0
  -21.6634   -6.8880   21.4241 O   0  0  0  0  0  0
  -22.3476  -14.5513   20.6685 O   0  0  0  0  0  0
  -24.6393  -31.8448   23.1887 C   0  0  0  0  0  0
  -25.9175  -32.4686   23.8280 C   0  0  1  0  0  0
  -27.2179  -27.1600   20.1441 C   0  0  0  0  0  0
  -25.5954  -33.8495   24.2194 N   0  0  0  0  0  0
  -23.4408  -30.4634   21.5306 C   0  0  2  0  0  0
  -24.8899  -28.8889   20.1101 C   0  0  0  0  0  0
  -22.7555  -29.4543   22.4852 C   0  0  0  0  0  0
  -18.0297  -28.1377   22.8458 C   0  0  0  0  0  0
  -24.1501  -36.7254   23.2645 C   0  0  0  0  0  0
  -25.9937  -30.7255   21.3836 C   0  0  0  0  0  0
  -26.0630  -29.3381   20.7257 C   0  0  0  0  0  0
  -27.2255  -28.4864   20.7260 C   0  0  0  0  0  0
  -26.0171  -26.7983   19.4964 C   0  0  0  0  0  0
  -24.8771  -27.6321   19.4845 C   0  0  0  0  0  0
  -23.6666  -29.7890   20.1507 C   0  0  0  0  0  0
  -25.4126  -36.3018   24.0323 C   0  0  1  0  0  0
  -20.5901  -28.3714   23.1233 C   0  0  2  0  0  0
  -20.6765  -26.9421   22.5393 C   0  0  0  0  0  0
  -19.5762  -26.6367   21.5176 C   0  0  0  0  0  0
  -18.1942  -26.7915   22.1589 C   0  0  0  0  0  0
  -19.1549  -28.8861   23.2840 C   0  0  0  0  0  0
  -18.9482  -30.1452   23.8879 C   0  0  0  0  0  0
  -17.6481  -30.6583   24.0544 C   0  0  0  0  0  0
  -25.9074  -34.9396   23.5058 C   0  0  0  0  0  0
  -16.5367  -29.9073   23.6329 C   0  0  0  0  0  0
  -16.7282  -28.6483   23.0357 C   0  0  0  0  0  0
  -26.4525  -31.6551   25.0713 C   0  0  0  0  0  0
  -25.3731  -31.3722   26.1433 C   0  0  0  0  0  0
  -27.0385  -30.2952   24.6273 C   0  0  0  0  0  0
  -27.6056  -32.4323   25.7489 C   0  0  0  0  0  0
  -27.5573  -37.1786   24.8464 C   0  0  0  0  0  0
  -21.4248  -29.3042   22.3609 N   0  0  0  0  0  0
  -26.4276  -37.3739   23.9423 N   0  0  0  0  0  0
  -24.7104  -31.0344   22.0885 N   0  0  0  0  0  0
  -23.4209  -28.8107   23.3001 O   0  0  0  0  0  0
  -28.3077  -26.2323   20.2409 O   0  0  0  0  0  0
  -26.5657  -34.8875   22.4636 O   0  0  0  0  0  0
  -23.5522  -32.1311   23.7133 O   0  0  0  0  0  0
  -30.1620  -21.3801   21.0013 C   0  0  0  0  0  0
  -28.9143  -21.8828   20.5005 C   0  0  0  0  0  0
  -30.5278  -19.9783   20.9370 C   0  0  0  0  0  0
  -28.1246  -20.8059   19.9532 C   0  0  0  0  0  0
  -29.6878  -18.9808   20.3376 C   0  0  0  0  0  0
  -31.1312  -22.3401   21.6796 C   0  0  0  0  0  0
  -26.7252  -21.0937   19.4540 C   0  0  0  0  0  0
  -30.3326  -17.4177   18.3930 C   0  0  0  0  0  0
  -31.6362  -18.9890   22.7315 C   0  0  0  0  0  0
  -28.3903  -23.4260   20.8014 C   0  0  0  0  0  0
  -28.3399  -24.7494   19.7931 C   0  0  0  0  0  0
  -30.2540  -17.4872   19.9324 C   0  0  2  0  0  0
  -28.4925  -19.4617   19.8615 N   0  0  0  0  0  0
  -29.8295  -16.0756   20.4531 N   0  0  0  0  0  0
  -31.7409  -19.6054   21.4544 O   0  0  0  0  0  0
  -31.4688  -12.6734   19.1888 H   0  0  0  0  0  0
  -30.4031  -11.5852   20.0305 H   0  0  0  0  0  0
  -29.8219  -11.7024   17.5840 H   0  0  0  0  0  0
  -29.6195  -13.4343   17.6916 H   0  0  0  0  0  0
  -27.9357  -11.2685   18.9831 H   0  0  0  0  0  0
  -27.3837  -12.4424   17.8193 H   0  0  0  0  0  0
  -27.5996  -14.2477   19.4118 H   0  0  0  0  0  0
  -28.7381  -12.2889   21.4670 H   0  0  0  0  0  0
  -28.3885  -13.9797   21.7479 H   0  0  0  0  0  0
  -25.2759   -9.5679   22.4765 H   0  0  0  0  0  0
  -23.9998   -7.4641   22.7485 H   0  0  0  0  0  0
  -21.0826   -8.8776   19.8973 H   0  0  0  0  0  0
  -22.3687  -10.9670   19.6172 H   0  0  0  0  0  0
  -21.2033   -7.6155   23.9715 H   0  0  0  0  0  0
  -21.1475   -6.0516   25.9066 H   0  0  0  0  0  0
  -22.0600   -2.7609   23.2829 H   0  0  0  0  0  0
  -22.4030  -11.9919   22.4871 H   0  0  0  0  0  0
  -21.1030  -13.1259   22.2599 H   0  0  0  0  0  0
  -24.6440  -15.8462   20.5421 H   0  0  0  0  0  0
  -26.2509  -15.6417   20.0689 H   0  0  0  0  0  0
  -26.7230  -32.5306   23.1007 H   0  0  0  0  0  0
  -25.0092  -33.9622   25.0329 H   0  0  0  0  0  0
  -22.7394  -31.2862   21.3753 H   0  0  0  0  0  0
  -23.3758  -35.9588   23.3272 H   0  0  0  0  0  0
  -24.3578  -36.8920   22.2061 H   0  0  0  0  0  0
  -23.7254  -37.6440   23.6705 H   0  0  0  0  0  0
  -26.1459  -31.4829   20.6126 H   0  0  0  0  0  0
  -26.8642  -30.7760   22.0263 H   0  0  0  0  0  0
  -28.1232  -28.8250   21.2236 H   0  0  0  0  0  0
  -25.9175  -25.8363   19.0196 H   0  0  0  0  0  0
  -23.9763  -27.2857   18.9988 H   0  0  0  0  0  0
  -23.8049  -30.5588   19.3908 H   0  0  0  0  0  0
  -22.7830  -29.2292   19.8395 H   0  0  0  0  0  0
  -25.1301  -36.1821   25.0812 H   0  0  0  0  0  0
  -20.9998  -28.3290   24.1351 H   0  0  0  0  0  0
  -20.5584  -26.2352   23.3619 H   0  0  0  0  0  0
  -21.6646  -26.7374   22.1248 H   0  0  0  0  0  0
  -19.6921  -25.6257   21.1250 H   0  0  0  0  0  0
  -19.6688  -27.3133   20.6668 H   0  0  0  0  0  0
  -17.4204  -26.6656   21.3995 H   0  0  0  0  0  0
  -18.0365  -26.0036   22.8975 H   0  0  0  0  0  0
  -19.7957  -30.7266   24.2244 H   0  0  0  0  0  0
  -17.5032  -31.6255   24.5167 H   0  0  0  0  0  0
  -15.5368  -30.2977   23.7645 H   0  0  0  0  0  0
  -15.8683  -28.0785   22.7106 H   0  0  0  0  0  0
  -24.5906  -30.7059   25.7775 H   0  0  0  0  0  0
  -24.8930  -32.2908   26.4835 H   0  0  0  0  0  0
  -25.8053  -30.8919   27.0230 H   0  0  0  0  0  0
  -26.2982  -29.6685   24.1297 H   0  0  0  0  0  0
  -27.4016  -29.7238   25.4828 H   0  0  0  0  0  0
  -27.8882  -30.4183   23.9556 H   0  0  0  0  0  0
  -27.2632  -33.3636   26.2010 H   0  0  0  0  0  0
  -28.3889  -32.6873   25.0338 H   0  0  0  0  0  0
  -28.0706  -31.8505   26.5458 H   0  0  0  0  0  0
  -28.2570  -38.0100   24.7521 H   0  0  0  0  0  0
  -28.1085  -36.2637   24.6261 H   0  0  0  0  0  0
  -27.2310  -37.1387   25.8869 H   0  0  0  0  0  0
  -20.9459  -29.8797   21.6822 H   0  0  0  0  0  0
  -26.0133  -38.2799   24.1432 H   0  0  0  0  0  0
  -31.1251  -23.3225   21.2089 H   0  0  0  0  0  0
  -32.1592  -21.9838   21.6306 H   0  0  0  0  0  0
  -30.8636  -22.4517   22.7309 H   0  0  0  0  0  0
  -26.0482  -21.2030   20.3007 H   0  0  0  0  0  0
  -26.3470  -20.2864   18.8257 H   0  0  0  0  0  0
  -26.7012  -22.0135   18.8702 H   0  0  0  0  0  0
  -30.8379  -18.2970   17.9927 H   0  0  0  0  0  0
  -29.3385  -17.3751   17.9462 H   0  0  0  0  0  0
  -30.8937  -16.5482   18.0487 H   0  0  0  0  0  0
  -32.6295  -18.7323   23.0971 H   0  0  0  0  0  0
  -31.0479  -18.0713   22.6956 H   0  0  0  0  0  0
  -31.1795  -19.6641   23.4569 H   0  0  0  0  0  0
  -28.9582  -23.7645   21.6664 H   0  0  0  0  0  0
  -27.3872  -23.3131   21.2131 H   0  0  0  0  0  0
  -27.5882  -24.5639   19.0289 H   0  0  0  0  0  0
  -29.2753  -24.6973   19.2354 H   0  0  0  0  0  0
  -31.2959  -17.5317   20.2471 H   0  0  0  0  0  0
  -28.8502  -15.9802   20.6703 H   0  0  0  0  0  0
  1 25  1  0  0  0
  1 30  2  0  0  0
  1 84  1  0  0  0
  2  3  1  0  0  0
  2 25  1  0  0  0
  2 86  1  0  0  0
  2 87  1  0  0  0
  3  4  1  0  0  0
  3 88  1  0  0  0
  3 89  1  0  0  0
  4  5  1  0  0  0
  4 90  1  0  0  0
  4 91  1  0  0  0
  5  6  1  0  0  0
  5 26  1  0  0  0
  5 92  1  0  0  0
  6 25  1  0  0  0
  6 93  1  0  0  0
  6 94  1  0  0  0
  7  8  2  0  0  0
  7 26  1  0  0  0
  7 29  1  0  0  0
  8  9  1  0  0  0
  8 22  1  0  0  0
  9 10  1  0  0  0
  9 27  2  0  0  0
 10 11  2  0  0  0
 10 15  1  0  0  0
 11 12  1  0  0  0
 11 95  1  0  0  0
 12 13  2  0  0  0
 12 96  1  0  0  0
 13 14  1  0  0  0
 13 31  1  0  0  0
 14 15  2  0  0  0
 14 97  1  0  0  0
 15 98  1  0  0  0
 16 17  2  0  0  0
 16 21  1  0  0  0
 16 31  1  0  0  0
 17 18  1  0  0  0
 17 99  1  0  0  0
 18 19  2  0  0  0
 18100  1  0  0  0
 19 20  1  0  0  0
 19 24  1  0  0  0
 20 21  2  0  0  0
 20101  1  0  0  0
 21 23  1  0  0  0
 22 28  1  0  0  0
 22 32  2  0  0  0
 26 27  1  0  0  0
 28102  1  0  0  0
 28103  1  0  0  0
 29104  1  0  0  0
 29105  1  0  0  0
 33 34  1  0  0  0
 33 66  1  0  0  0
 33 70  2  0  0  0
 34 36  1  0  0  0
 34 59  1  0  0  0
 34106  1  0  0  0
 35 44  2  0  0  0
 35 45  1  0  0  0
 35 68  1  0  0  0
 36 56  1  0  0  0
 36107  1  0  0  0
 37 39  1  0  0  0
 37 47  1  0  0  0
 37 66  1  0  0  0
 37108  1  0  0  0
 38 43  2  0  0  0
 38 46  1  0  0  0
 38 47  1  0  0  0
 39 64  1  0  0  0
 39 67  2  0  0  0
 40 52  1  0  0  0
 40 53  2  0  0  0
 40 58  1  0  0  0
 41109  1  0  0  0
 41110  1  0  0  0
 41111  1  0  0  0
 41 48  1  0  0  0
 42 43  1  0  0  0
 42 66  1  0  0  0
 42112  1  0  0  0
 42113  1  0  0  0
 43 44  1  0  0  0
 44114  1  0  0  0
 45 46  2  0  0  0
 45115  1  0  0  0
 46116  1  0  0  0
 47117  1  0  0  0
 47118  1  0  0  0
 48 56  1  0  0  0
 48 65  1  0  0  0
 48119  1  0  0  0
 49 50  1  0  0  0
 49 53  1  0  0  0
 49 64  1  0  0  0
 49120  1  0  0  0
 50 51  1  0  0  0
 50121  1  0  0  0
 50122  1  0  0  0
 51 52  1  0  0  0
 51123  1  0  0  0
 51124  1  0  0  0
 52125  1  0  0  0
 52126  1  0  0  0
 53 54  1  0  0  0
 54 55  2  0  0  0
 54127  1  0  0  0
 55 57  1  0  0  0
 55128  1  0  0  0
 56 69  2  0  0  0
 57 58  2  0  0  0
 57129  1  0  0  0
 58130  1  0  0  0
 59 60  1  0  0  0
 59 61  1  0  0  0
 59 62  1  0  0  0
 60131  1  0  0  0
 60132  1  0  0  0
 60133  1  0  0  0
 61134  1  0  0  0
 61135  1  0  0  0
 61136  1  0  0  0
 62137  1  0  0  0
 62138  1  0  0  0
 62139  1  0  0  0
 63 65  1  0  0  0
 63140  1  0  0  0
 63141  1  0  0  0
 63142  1  0  0  0
 64143  1  0  0  0
 65144  1  0  0  0
 68 81  1  0  0  0
 71 72  2  0  0  0
 71 73  1  0  0  0
 71 76  1  0  0  0
 72 74  1  0  0  0
 72 80  1  0  0  0
 73 75  2  0  0  0
 73 85  1  0  0  0
 74 77  1  0  0  0
 74 83  2  0  0  0
 75 82  1  0  0  0
 75 83  1  0  0  0
 76145  1  0  0  0
 76146  1  0  0  0
 76147  1  0  0  0
 77148  1  0  0  0
 77149  1  0  0  0
 77150  1  0  0  0
 78151  1  0  0  0
 78152  1  0  0  0
 78153  1  0  0  0
 78 82  1  0  0  0
 79 85  1  0  0  0
 79154  1  0  0  0
 79155  1  0  0  0
 79156  1  0  0  0
 80 81  1  0  0  0
 80157  1  0  0  0
 80158  1  0  0  0
 81159  1  0  0  0
 81160  1  0  0  0
 82 84  1  0  0  0
 82161  1  0  0  0
 84162  1  0  0  0
M  ISO  4   1 100  68 101  81 101  84 100
M  END
> <chiral flag>
0

> <version>
0

> <s_m_source_file>
/data/baiqing/PycharmProjects/Reinvent-master-3.2/result/LINK_invent/BTK/process_docking_weight1_custom_sum_contain_oxygen_bond_distance_aromatic_linkinvent_7_9_3/rearranged_h_0171.sdf

> <i_m_source_file_index>
59

> <r_mmod_Potential_Energy-OPLS-2005>
215.24609375

> <r_mmod_Stretch_Energy-OPLS-2005>
209.690795898438

> <r_mmod_Bend_Energy-OPLS-2005>
259.576232910156

> <r_mmod_Torsional_Energy-OPLS-2005>
240.279022216797

> <r_mmod_Improper_Torsional_Energy-OPLS-2005>
10.148907661438

> <r_mmod_Van_der_Waal_Energy-OPLS-2005>
136.221588134766

> <r_mmod_Electrostatic_Energy-OPLS-2005>
-578.780517578125

> <r_mmod_Solvation_Energy-OPLS-2005>
-218.676452636719

> <b_mmod_Minimization_Converged-OPLS-2005>
0

> <r_mmod_RMS_Derivative-OPLS-2005>
2.45366287231445

$$$$
59
                    3D
 Structure written by MMmdl.
174183  0  0  1  0            999 V2000
  -30.6833  -14.5770   20.5443 C   0  0  0  0  0  0
  -30.4257  -12.3778   19.4196 C   0  0  0  0  0  0
  -29.4883  -12.5052   18.2016 C   0  0  0  0  0  0
  -28.0068  -12.3744   18.6165 C   0  0  0  0  0  0
  -27.6526  -13.2159   19.8748 C   0  0  2  0  0  0
  -28.7067  -12.9898   20.9758 C   0  0  0  0  0  0
  -25.2533  -13.8166   20.5690 C   0  0  0  0  0  0
  -24.1808  -13.0422   20.9213 C   0  0  0  0  0  0
  -24.6393  -11.6905   20.8785 C   0  0  0  0  0  0
  -23.9063  -10.4278   21.0432 C   0  0  0  0  0  0
  -24.3601   -9.4185   21.9214 C   0  0  0  0  0  0
  -23.6264   -8.2219   22.0761 C   0  0  0  0  0  0
  -22.4246   -8.0281   21.3535 C   0  0  0  0  0  0
  -21.9885   -9.0270   20.4648 C   0  0  0  0  0  0
  -22.7243  -10.2138   20.3060 C   0  0  0  0  0  0
  -21.6840   -6.0735   22.5300 C   0  0  0  0  0  0
  -21.4010   -6.5631   23.8237 C   0  0  0  0  0  0
  -21.3639   -5.6788   24.9196 C   0  0  0  0  0  0
  -21.6025   -4.3057   24.7239 C   0  0  0  0  0  0
  -21.8816   -3.8146   23.4362 C   0  0  0  0  0  0
  -21.9183   -4.6962   22.3421 C   0  0  0  0  0  0
  -22.7836  -13.5252   21.1864 C   0  0  0  0  0  0
  -22.1637   -4.2153   21.0991 F   0  0  0  0  0  0
  -21.5616   -3.4533   25.7742 F   0  0  0  0  0  0
  -30.0001  -13.3932   20.4078 N   0  0  0  0  0  0
  -26.2993  -12.9354   20.3438 N   0  0  0  0  0  0
  -25.9328  -11.6502   20.5843 N   0  0  0  0  0  0
  -22.0459  -12.8278   22.0427 N   0  0  0  0  0  0
  -25.4203  -15.1858   20.3964 N   0  0  0  0  0  0
  -31.8720  -14.6224   20.2027 O   0  0  0  0  0  0
  -21.6612   -6.8883   21.4246 O   0  0  0  0  0  0
  -22.3535  -14.5553   20.6714 O   0  0  0  0  0  0
  -24.6211  -31.8628   23.2043 C   0  0  0  0  0  0
  -25.9086  -32.4786   23.8371 C   0  0  1  0  0  0
  -27.2278  -27.3555   20.0968 C   0  0  0  0  0  0
  -25.5892  -33.8597   24.2275 N   0  0  0  0  0  0
  -23.4112  -30.4852   21.5490 C   0  0  2  0  0  0
  -24.8551  -28.9410   20.1125 C   0  0  0  0  0  0
  -22.7438  -29.4658   22.5010 C   0  0  0  0  0  0
  -18.0275  -28.1381   22.8516 C   0  0  0  0  0  0
  -24.1471  -36.7287   23.2624 C   0  0  0  0  0  0
  -25.9497  -30.7996   21.3739 C   0  0  0  0  0  0
  -26.0220  -29.4320   20.7113 C   0  0  0  0  0  0
  -27.2070  -28.6463   20.6992 C   0  0  0  0  0  0
  -26.0297  -26.8923   19.5112 C   0  0  0  0  0  0
  -24.8581  -27.6729   19.5089 C   0  0  0  0  0  0
  -23.6162  -29.8099   20.1671 C   0  0  0  0  0  0
  -25.4092  -36.3095   24.0333 C   0  0  1  0  0  0
  -20.5869  -28.3674   23.1306 C   0  0  2  0  0  0
  -20.6766  -26.9402   22.5422 C   0  0  0  0  0  0
  -19.5738  -26.6383   21.5227 C   0  0  0  0  0  0
  -18.1918  -26.7938   22.1635 C   0  0  0  0  0  0
  -19.1528  -28.8850   23.2904 C   0  0  0  0  0  0
  -18.9447  -30.1458   23.8909 C   0  0  0  0  0  0
  -17.6444  -30.6582   24.0572 C   0  0  0  0  0  0
  -25.9040  -34.9464   23.5110 C   0  0  0  0  0  0
  -16.5339  -29.9071   23.6342 C   0  0  0  0  0  0
  -16.7261  -28.6485   23.0377 C   0  0  0  0  0  0
  -26.4459  -31.6622   25.0762 C   0  0  0  0  0  0
  -25.3664  -31.3786   26.1463 C   0  0  0  0  0  0
  -27.0274  -30.3023   24.6275 C   0  0  0  0  0  0
  -27.6026  -32.4354   25.7516 C   0  0  0  0  0  0
  -27.5600  -37.1760   24.8432 C   0  0  0  0  0  0
  -21.4164  -29.3041   22.3732 N   0  0  0  0  0  0
  -26.4255  -37.3808   23.9459 N   0  0  0  0  0  0
  -24.6788  -31.0669   22.0978 N   0  0  0  0  0  0
  -23.4170  -28.8219   23.3095 O   0  0  0  0  0  0
  -28.3821  -26.5712   20.1423 O   0  0  0  0  0  0
  -26.5640  -34.8930   22.4700 O   0  0  0  0  0  0
  -23.5384  -32.1438   23.7367 O   0  0  0  0  0  0
  -29.2117  -23.4365   20.7963 C   0  0  0  0  0  0
  -27.5627  -23.0264   19.0419 C   0  0  0  0  0  0
  -28.4091  -23.9600   19.7289 C   0  0  0  0  0  0
  -29.1121  -22.0649   21.2118 C   0  0  0  0  0  0
  -27.5164  -21.6464   19.4242 C   0  0  0  0  0  0
  -28.2827  -21.1467   20.5117 C   0  0  0  0  0  0
  -29.7133  -18.2279   19.7933 C   0  0  0  0  0  0
  -28.3237  -17.4419   21.6377 C   0  0  0  0  0  0
  -30.6174  -16.9708   19.9958 C   0  0  0  0  0  0
  -29.2531  -16.2092   21.8504 C   0  0  0  0  0  0
  -29.0411  -18.6977   21.0958 C   0  0  0  0  0  0
  -30.2159  -24.3382   21.5113 C   0  0  0  0  0  0
  -26.6987  -23.4403   17.8435 C   0  0  0  0  0  0
  -29.8368  -21.5829   22.4681 C   0  0  0  0  0  0
  -25.2180  -20.5303   19.3260 C   0  0  0  0  0  0
  -26.6034  -20.6616   18.6725 C   0  0  0  0  0  0
  -28.5805  -25.4469   19.2264 C   0  0  0  0  0  0
  -29.9859  -15.7739   20.6368 N   0  0  0  0  0  0
  -28.0617  -19.7962   20.9177 N   0  0  0  0  0  0
  -31.4643  -12.4970   19.1026 H   0  0  0  0  0  0
  -30.3716  -11.3750   19.8407 H   0  0  0  0  0  0
  -29.7289  -11.7414   17.4610 H   0  0  0  0  0  0
  -29.6521  -13.4673   17.7142 H   0  0  0  0  0  0
  -27.8167  -11.3191   18.8227 H   0  0  0  0  0  0
  -27.3520  -12.6467   17.7876 H   0  0  0  0  0  0
  -27.6921  -14.2659   19.5851 H   0  0  0  0  0  0
  -28.7329  -11.9292   21.2302 H   0  0  0  0  0  0
  -28.4670  -13.4693   21.9164 H   0  0  0  0  0  0
  -25.2740   -9.5664   22.4814 H   0  0  0  0  0  0
  -23.9966   -7.4601   22.7492 H   0  0  0  0  0  0
  -21.0800   -8.8801   19.8971 H   0  0  0  0  0  0
  -22.3717  -10.9662   19.6153 H   0  0  0  0  0  0
  -21.2011   -7.6142   23.9727 H   0  0  0  0  0  0
  -21.1461   -6.0535   25.9094 H   0  0  0  0  0  0
  -22.0621   -2.7608   23.2888 H   0  0  0  0  0  0
  -22.4035  -11.9894   22.4770 H   0  0  0  0  0  0
  -21.1105  -13.1368   22.2653 H   0  0  0  0  0  0
  -24.6495  -15.8394   20.4753 H   0  0  0  0  0  0
  -26.2760  -15.6113   20.0632 H   0  0  0  0  0  0
  -26.7171  -32.5444   23.1129 H   0  0  0  0  0  0
  -25.0023  -33.9766   25.0403 H   0  0  0  0  0  0
  -22.7035  -31.3045   21.4065 H   0  0  0  0  0  0
  -23.3779  -35.9564   23.3196 H   0  0  0  0  0  0
  -24.3596  -36.8998   22.2061 H   0  0  0  0  0  0
  -23.7135  -37.6425   23.6697 H   0  0  0  0  0  0
  -26.0939  -31.5684   20.6127 H   0  0  0  0  0  0
  -26.8255  -30.8340   22.0106 H   0  0  0  0  0  0
  -28.1062  -29.0224   21.1685 H   0  0  0  0  0  0
  -25.9678  -25.9052   19.0881 H   0  0  0  0  0  0
  -23.9560  -27.2779   19.0607 H   0  0  0  0  0  0
  -23.7078  -30.5761   19.3967 H   0  0  0  0  0  0
  -22.7393  -29.2216   19.8865 H   0  0  0  0  0  0
  -25.1258  -36.1946   25.0818 H   0  0  0  0  0  0
  -20.9966  -28.3249   24.1421 H   0  0  0  0  0  0
  -20.5674  -26.2293   23.3630 H   0  0  0  0  0  0
  -21.6637  -26.7454   22.1208 H   0  0  0  0  0  0
  -19.6894  -25.6288   21.1274 H   0  0  0  0  0  0
  -19.6661  -27.3192   20.6757 H   0  0  0  0  0  0
  -17.4195  -26.6699   21.4030 H   0  0  0  0  0  0
  -18.0292  -26.0060   22.9003 H   0  0  0  0  0  0
  -19.7910  -30.7291   24.2272 H   0  0  0  0  0  0
  -17.4976  -31.6264   24.5177 H   0  0  0  0  0  0
  -15.5337  -30.2965   23.7661 H   0  0  0  0  0  0
  -15.8656  -28.0788   22.7110 H   0  0  0  0  0  0
  -24.5817  -30.7176   25.7784 H   0  0  0  0  0  0
  -24.8857  -32.2947   26.4907 H   0  0  0  0  0  0
  -25.7918  -30.8935   27.0252 H   0  0  0  0  0  0
  -26.2871  -29.6816   24.1208 H   0  0  0  0  0  0
  -27.3816  -29.7274   25.4852 H   0  0  0  0  0  0
  -27.8821  -30.4280   23.9614 H   0  0  0  0  0  0
  -27.2675  -33.3683   26.2065 H   0  0  0  0  0  0
  -28.3826  -32.6876   25.0320 H   0  0  0  0  0  0
  -28.0697  -31.8494   26.5438 H   0  0  0  0  0  0
  -28.2500  -38.0178   24.7693 H   0  0  0  0  0  0
  -28.1212  -36.2738   24.5967 H   0  0  0  0  0  0
  -27.2368  -37.1051   25.8830 H   0  0  0  0  0  0
  -20.9352  -29.8705   21.6889 H   0  0  0  0  0  0
  -26.0138  -38.2865   24.1553 H   0  0  0  0  0  0
  -28.9601  -18.0073   19.0364 H   0  0  0  0  0  0
  -30.3179  -19.0431   19.3928 H   0  0  0  0  0  0
  -27.8279  -17.6774   22.5795 H   0  0  0  0  0  0
  -27.5282  -17.1571   20.9460 H   0  0  0  0  0  0
  -31.4740  -17.2642   20.6051 H   0  0  0  0  0  0
  -31.0209  -16.6971   19.0186 H   0  0  0  0  0  0
  -28.6287  -15.4262   22.2568 H   0  0  0  0  0  0
  -29.9734  -16.4354   22.6341 H   0  0  0  0  0  0
  -29.8113  -18.9996   21.8050 H   0  0  0  0  0  0
  -30.5129  -25.2094   20.9330 H   0  0  0  0  0  0
  -31.1409  -23.7942   21.7154 H   0  0  0  0  0  0
  -29.8118  -24.6867   22.4610 H   0  0  0  0  0  0
  -26.5981  -24.4952   17.6377 H   0  0  0  0  0  0
  -25.6764  -23.0868   17.9723 H   0  0  0  0  0  0
  -27.0962  -22.9916   16.9332 H   0  0  0  0  0  0
  -29.9969  -22.3750   23.1965 H   0  0  0  0  0  0
  -30.8033  -21.1375   22.2260 H   0  0  0  0  0  0
  -29.2434  -20.8339   22.9933 H   0  0  0  0  0  0
  -24.6138  -19.7941   18.7966 H   0  0  0  0  0  0
  -24.6799  -21.4760   19.3191 H   0  0  0  0  0  0
  -25.2891  -20.2064   20.3642 H   0  0  0  0  0  0
  -27.0727  -19.6804   18.6195 H   0  0  0  0  0  0
  -26.4984  -20.9237   17.6213 H   0  0  0  0  0  0
  -28.0909  -25.6624   18.2825 H   0  0  0  0  0  0
  -29.6245  -25.5108   18.9202 H   0  0  0  0  0  0
  -27.1546  -19.4525   20.6280 H   0  0  0  0  0  0
  1 25  1  0  0  0
  1 30  2  0  0  0
  1 88  1  0  0  0
  2  3  1  0  0  0
  2 25  1  0  0  0
  2 90  1  0  0  0
  2 91  1  0  0  0
  3  4  1  0  0  0
  3 92  1  0  0  0
  3 93  1  0  0  0
  4  5  1  0  0  0
  4 94  1  0  0  0
  4 95  1  0  0  0
  5  6  1  0  0  0
  5 26  1  0  0  0
  5 96  1  0  0  0
  6 25  1  0  0  0
  6 97  1  0  0  0
  6 98  1  0  0  0
  7  8  2  0  0  0
  7 26  1  0  0  0
  7 29  1  0  0  0
  8  9  1  0  0  0
  8 22  1  0  0  0
  9 10  1  0  0  0
  9 27  2  0  0  0
 10 11  2  0  0  0
 10 15  1  0  0  0
 11 12  1  0  0  0
 11 99  1  0  0  0
 12 13  2  0  0  0
 12100  1  0  0  0
 13 14  1  0  0  0
 13 31  1  0  0  0
 14 15  2  0  0  0
 14101  1  0  0  0
 15102  1  0  0  0
 16 17  2  0  0  0
 16 21  1  0  0  0
 16 31  1  0  0  0
 17 18  1  0  0  0
 17103  1  0  0  0
 18 19  2  0  0  0
 18104  1  0  0  0
 19 20  1  0  0  0
 19 24  1  0  0  0
 20 21  2  0  0  0
 20105  1  0  0  0
 21 23  1  0  0  0
 22 28  1  0  0  0
 22 32  2  0  0  0
 26 27  1  0  0  0
 28106  1  0  0  0
 28107  1  0  0  0
 29108  1  0  0  0
 29109  1  0  0  0
 33 34  1  0  0  0
 33 66  1  0  0  0
 33 70  2  0  0  0
 34 36  1  0  0  0
 34 59  1  0  0  0
 34110  1  0  0  0
 35 44  2  0  0  0
 35 45  1  0  0  0
 35 68  1  0  0  0
 36 56  1  0  0  0
 36111  1  0  0  0
 37 39  1  0  0  0
 37 47  1  0  0  0
 37 66  1  0  0  0
 37112  1  0  0  0
 38 43  2  0  0  0
 38 46  1  0  0  0
 38 47  1  0  0  0
 39 64  1  0  0  0
 39 67  2  0  0  0
 40 52  1  0  0  0
 40 53  2  0  0  0
 40 58  1  0  0  0
 41113  1  0  0  0
 41114  1  0  0  0
 41115  1  0  0  0
 41 48  1  0  0  0
 42 43  1  0  0  0
 42 66  1  0  0  0
 42116  1  0  0  0
 42117  1  0  0  0
 43 44  1  0  0  0
 44118  1  0  0  0
 45 46  2  0  0  0
 45119  1  0  0  0
 46120  1  0  0  0
 47121  1  0  0  0
 47122  1  0  0  0
 48 56  1  0  0  0
 48 65  1  0  0  0
 48123  1  0  0  0
 49 50  1  0  0  0
 49 53  1  0  0  0
 49 64  1  0  0  0
 49124  1  0  0  0
 50 51  1  0  0  0
 50125  1  0  0  0
 50126  1  0  0  0
 51 52  1  0  0  0
 51127  1  0  0  0
 51128  1  0  0  0
 52129  1  0  0  0
 52130  1  0  0  0
 53 54  1  0  0  0
 54 55  2  0  0  0
 54131  1  0  0  0
 55 57  1  0  0  0
 55132  1  0  0  0
 56 69  2  0  0  0
 57 58  2  0  0  0
 57133  1  0  0  0
 58134  1  0  0  0
 59 60  1  0  0  0
 59 61  1  0  0  0
 59 62  1  0  0  0
 60135  1  0  0  0
 60136  1  0  0  0
 60137  1  0  0  0
 61138  1  0  0  0
 61139  1  0  0  0
 61140  1  0  0  0
 62141  1  0  0  0
 62142  1  0  0  0
 62143  1  0  0  0
 63 65  1  0  0  0
 63144  1  0  0  0
 63145  1  0  0  0
 63146  1  0  0  0
 64147  1  0  0  0
 65148  1  0  0  0
 68 87  1  0  0  0
 71 73  2  0  0  0
 71 74  1  0  0  0
 71 82  1  0  0  0
 72 73  1  0  0  0
 72 75  2  0  0  0
 72 83  1  0  0  0
 73 87  1  0  0  0
 74 76  2  0  0  0
 74 84  1  0  0  0
 75 76  1  0  0  0
 75 86  1  0  0  0
 76 89  1  0  0  0
 77 79  1  0  0  0
 77 81  1  0  0  0
 77149  1  0  0  0
 77150  1  0  0  0
 78 80  1  0  0  0
 78 81  1  0  0  0
 78151  1  0  0  0
 78152  1  0  0  0
 79 88  1  0  0  0
 79153  1  0  0  0
 79154  1  0  0  0
 80 88  1  0  0  0
 80155  1  0  0  0
 80156  1  0  0  0
 81 89  1  0  0  0
 81157  1  0  0  0
 82158  1  0  0  0
 82159  1  0  0  0
 82160  1  0  0  0
 83161  1  0  0  0
 83162  1  0  0  0
 83163  1  0  0  0
 84164  1  0  0  0
 84165  1  0  0  0
 84166  1  0  0  0
 85 86  1  0  0  0
 85167  1  0  0  0
 85168  1  0  0  0
 85169  1  0  0  0
 86170  1  0  0  0
 86171  1  0  0  0
 87172  1  0  0  0
 87173  1  0  0  0
 89174  1  0  0  0
M  ISO  4   1 100  68 101  87 101  88 100
M  END
> <chiral flag>
0

> <version>
0

> <s_m_source_file>
/data/baiqing/PycharmProjects/Reinvent-master-3.2/result/LINK_invent/BTK/process_docking_weight1_custom_sum_contain_oxygen_bond_distance_aromatic_linkinvent_7_9_3/rearranged_h_0171.sdf

> <i_m_source_file_index>
60

> <r_mmod_Potential_Energy-OPLS-2005>
275.680877685547

> <r_mmod_Stretch_Energy-OPLS-2005>
77.7527465820312

> <r_mmod_Bend_Energy-OPLS-2005>
180.668212890625

> <r_mmod_Torsional_Energy-OPLS-2005>
320.382019042969

> <r_mmod_Improper_Torsional_Energy-OPLS-2005>
19.3166694641113

> <r_mmod_Van_der_Waal_Energy-OPLS-2005>
178.520645141602

> <r_mmod_Electrostatic_Energy-OPLS-2005>
-342.899505615234

> <r_mmod_Solvation_Energy-OPLS-2005>
-191.248275756836

> <b_mmod_Minimization_Converged-OPLS-2005>
0

> <r_mmod_RMS_Derivative-OPLS-2005>
4.55079936981201

$$$$
60
                    3D
 Structure written by MMmdl.
158167  0  0  1  0            999 V2000
  -30.4151  -15.3993   20.3298 C   0  0  0  0  0  0
  -30.4284  -12.9032   19.5098 C   0  0  0  0  0  0
  -29.5314  -12.5736   18.2888 C   0  0  0  0  0  0
  -28.0970  -12.2517   18.7424 C   0  0  0  0  0  0
  -27.5950  -13.2568   19.8046 C   0  0  2  0  0  0
  -28.6289  -13.5468   20.9152 C   0  0  0  0  0  0
  -25.2374  -13.8149   20.5784 C   0  0  0  0  0  0
  -24.1713  -13.0397   20.9284 C   0  0  0  0  0  0
  -24.6338  -11.6883   20.8783 C   0  0  0  0  0  0
  -23.9035  -10.4275   21.0440 C   0  0  0  0  0  0
  -24.3610   -9.4201   21.9205 C   0  0  0  0  0  0
  -23.6288   -8.2237   22.0761 C   0  0  0  0  0  0
  -22.4270   -8.0274   21.3547 C   0  0  0  0  0  0
  -21.9908   -9.0244   20.4642 C   0  0  0  0  0  0
  -22.7228  -10.2123   20.3074 C   0  0  0  0  0  0
  -21.6855   -6.0751   22.5298 C   0  0  0  0  0  0
  -21.4013   -6.5652   23.8228 C   0  0  0  0  0  0
  -21.3661   -5.6798   24.9180 C   0  0  0  0  0  0
  -21.6041   -4.3065   24.7221 C   0  0  0  0  0  0
  -21.8813   -3.8165   23.4342 C   0  0  0  0  0  0
  -21.9184   -4.6980   22.3405 C   0  0  0  0  0  0
  -22.7754  -13.5203   21.1933 C   0  0  0  0  0  0
  -22.1673   -4.2178   21.0982 F   0  0  0  0  0  0
  -21.5610   -3.4549   25.7731 F   0  0  0  0  0  0
  -29.8333  -14.0844   20.2508 N   0  0  0  0  0  0
  -26.2755  -12.9387   20.3222 N   0  0  0  0  0  0
  -25.9266  -11.6515   20.5728 N   0  0  0  0  0  0
  -22.0402  -12.8186   22.0455 N   0  0  0  0  0  0
  -25.4020  -15.1874   20.4199 N   0  0  0  0  0  0
  -31.6553  -15.3266   20.2870 O   0  0  0  0  0  0
  -21.6624   -6.8888   21.4262 O   0  0  0  0  0  0
  -22.3464  -14.5524   20.6778 O   0  0  0  0  0  0
  -24.6690  -31.8176   23.1646 C   0  0  0  0  0  0
  -25.9353  -32.4559   23.8129 C   0  0  1  0  0  0
  -27.2224  -26.8569   20.2137 C   0  0  0  0  0  0
  -25.5993  -33.8376   24.2016 N   0  0  0  0  0  0
  -23.4867  -30.4248   21.5172 C   0  0  2  0  0  0
  -24.9415  -28.7895   20.1305 C   0  0  0  0  0  0
  -22.7709  -29.4413   22.4806 C   0  0  0  0  0  0
  -18.0370  -28.1426   22.8433 C   0  0  0  0  0  0
  -24.1501  -36.7187   23.2644 C   0  0  0  0  0  0
  -26.0607  -30.6034   21.4052 C   0  0  0  0  0  0
  -26.1307  -29.1810   20.7599 C   0  0  0  0  0  0
  -27.2680  -28.2407   20.7681 C   0  0  0  0  0  0
  -25.9983  -26.6313   19.5469 C   0  0  0  0  0  0
  -24.9023  -27.5337   19.5051 C   0  0  0  0  0  0
  -23.7321  -29.7287   20.1502 C   0  0  0  0  0  0
  -25.4141  -36.2934   24.0281 C   0  0  1  0  0  0
  -20.5974  -28.3808   23.1251 C   0  0  2  0  0  0
  -20.6852  -26.9484   22.5471 C   0  0  0  0  0  0
  -19.5910  -26.6505   21.5185 C   0  0  0  0  0  0
  -18.2061  -26.7997   22.1529 C   0  0  0  0  0  0
  -19.1600  -28.8944   23.2827 C   0  0  0  0  0  0
  -18.9457  -30.1526   23.8862 C   0  0  0  0  0  0
  -17.6425  -30.6596   24.0535 C   0  0  0  0  0  0
  -25.9121  -34.9331   23.4965 C   0  0  0  0  0  0
  -16.5347  -29.9042   23.6307 C   0  0  0  0  0  0
  -16.7334  -28.6479   23.0319 C   0  0  0  0  0  0
  -26.4563  -31.6551   25.0701 C   0  0  0  0  0  0
  -25.3659  -31.3872   26.1340 C   0  0  0  0  0  0
  -27.0461  -30.2892   24.6532 C   0  0  0  0  0  0
  -27.6039  -32.4376   25.7523 C   0  0  0  0  0  0
  -27.5558  -37.1750   24.8456 C   0  0  0  0  0  0
  -21.4367  -29.3076   22.3588 N   0  0  0  0  0  0
  -26.4268  -37.3676   23.9390 N   0  0  0  0  0  0
  -24.7603  -30.9766   22.0820 N   0  0  0  0  0  0
  -23.4247  -28.7996   23.3069 O   0  0  0  0  0  0
  -28.2314  -25.7360   20.1459 O   0  0  0  0  0  0
  -26.5728  -34.8873   22.4558 O   0  0  0  0  0  0
  -23.5740  -32.1191   23.6678 O   0  0  0  0  0  0
  -29.2459  -21.2819   20.6943 C   0  0  0  0  0  0
  -27.6295  -22.0444   19.1168 C   0  0  0  0  0  0
  -29.2217  -19.7950   20.2396 C   0  0  0  0  0  0
  -28.3211  -19.5876   19.1878 C   0  0  0  0  0  0
  -28.4687  -22.5148   20.1611 C   0  0  0  0  0  0
  -27.5367  -20.6742   18.6633 C   0  0  0  0  0  0
  -28.2491  -18.1527   18.6009 C   0  0  0  0  0  0
  -30.0421  -18.3256   20.6920 C   0  0  0  0  0  0
  -28.4198  -16.9010   19.5614 C   0  0  0  0  0  0
  -28.9946  -24.3316   22.0488 C   0  0  0  0  0  0
  -25.3977  -21.0290   17.6502 C   0  0  0  0  0  0
  -28.1861  -24.1750   20.7559 C   0  0  1  0  0  0
  -29.7029  -16.7462   20.2880 N   0  0  0  0  0  0
  -26.6444  -20.3364   17.6683 O   0  0  0  0  0  0
  -31.4389  -13.1202   19.1611 H   0  0  0  0  0  0
  -30.5283  -12.0364   20.1656 H   0  0  0  0  0  0
  -29.9451  -11.7357   17.7241 H   0  0  0  0  0  0
  -29.5176  -13.4259   17.6067 H   0  0  0  0  0  0
  -28.1026  -11.2474   19.1690 H   0  0  0  0  0  0
  -27.4199  -12.2185   17.8879 H   0  0  0  0  0  0
  -27.4554  -14.1693   19.2370 H   0  0  0  0  0  0
  -28.8402  -12.6594   21.5142 H   0  0  0  0  0  0
  -28.2352  -14.2982   21.5993 H   0  0  0  0  0  0
  -25.2758   -9.5673   22.4774 H   0  0  0  0  0  0
  -23.9996   -7.4627   22.7482 H   0  0  0  0  0  0
  -21.0852   -8.8766   19.8937 H   0  0  0  0  0  0
  -22.3707  -10.9667   19.6182 H   0  0  0  0  0  0
  -21.2035   -7.6164   23.9749 H   0  0  0  0  0  0
  -21.1483   -6.0521   25.9078 H   0  0  0  0  0  0
  -22.0583   -2.7628   23.2826 H   0  0  0  0  0  0
  -22.4035  -11.9831   22.4811 H   0  0  0  0  0  0
  -21.1026  -13.1211   22.2690 H   0  0  0  0  0  0
  -24.6346  -15.8391   20.5330 H   0  0  0  0  0  0
  -26.2539  -15.6264   20.1039 H   0  0  0  0  0  0
  -26.7442  -32.5078   23.0857 H   0  0  0  0  0  0
  -25.0095  -33.9453   25.0138 H   0  0  0  0  0  0
  -22.8055  -31.2579   21.3366 H   0  0  0  0  0  0
  -23.3755  -35.9522   23.3275 H   0  0  0  0  0  0
  -24.3593  -36.8864   22.2068 H   0  0  0  0  0  0
  -23.7288  -37.6373   23.6733 H   0  0  0  0  0  0
  -26.2491  -31.3370   20.6196 H   0  0  0  0  0  0
  -26.9159  -30.6667   22.0662 H   0  0  0  0  0  0
  -28.1774  -28.5533   21.2621 H   0  0  0  0  0  0
  -25.8681  -25.6756   19.0603 H   0  0  0  0  0  0
  -23.9991  -27.2222   18.9980 H   0  0  0  0  0  0
  -23.8990  -30.4905   19.3884 H   0  0  0  0  0  0
  -22.8396  -29.1883   19.8298 H   0  0  0  0  0  0
  -25.1353  -36.1692   25.0771 H   0  0  0  0  0  0
  -21.0063  -28.3448   24.1377 H   0  0  0  0  0  0
  -20.5642  -26.2395   23.3677 H   0  0  0  0  0  0
  -21.6747  -26.7462   22.1349 H   0  0  0  0  0  0
  -19.7145  -25.6466   21.1116 H   0  0  0  0  0  0
  -19.6889  -27.3423   20.6808 H   0  0  0  0  0  0
  -17.4429  -26.6815   21.3832 H   0  0  0  0  0  0
  -18.0394  -26.0088   22.8839 H   0  0  0  0  0  0
  -19.7904  -30.7382   24.2222 H   0  0  0  0  0  0
  -17.4935  -31.6263   24.5140 H   0  0  0  0  0  0
  -15.5329  -30.2902   23.7624 H   0  0  0  0  0  0
  -15.8767  -28.0759   22.7014 H   0  0  0  0  0  0
  -24.5831  -30.7233   25.7655 H   0  0  0  0  0  0
  -24.8855  -32.3102   26.4597 H   0  0  0  0  0  0
  -25.7841  -30.9149   27.0232 H   0  0  0  0  0  0
  -26.3144  -29.6541   24.1523 H   0  0  0  0  0  0
  -27.3914  -29.7318   25.5246 H   0  0  0  0  0  0
  -27.9118  -30.4020   24.0008 H   0  0  0  0  0  0
  -27.2588  -33.3697   26.2001 H   0  0  0  0  0  0
  -28.3910  -32.6903   25.0417 H   0  0  0  0  0  0
  -28.0646  -31.8583   26.5530 H   0  0  0  0  0  0
  -28.2549  -38.0067   24.7461 H   0  0  0  0  0  0
  -28.1070  -36.2575   24.6308 H   0  0  0  0  0  0
  -27.2269  -37.1432   25.8862 H   0  0  0  0  0  0
  -20.9624  -29.8796   21.6738 H   0  0  0  0  0  0
  -26.0088  -38.2717   24.1396 H   0  0  0  0  0  0
  -29.8951  -21.4887   21.5342 H   0  0  0  0  0  0
  -26.9899  -22.7901   18.6676 H   0  0  0  0  0  0
  -29.0069  -18.0983   17.8183 H   0  0  0  0  0  0
  -27.2972  -18.0352   18.0845 H   0  0  0  0  0  0
  -30.0582  -18.3358   21.7815 H   0  0  0  0  0  0
  -31.0830  -18.4726   20.4004 H   0  0  0  0  0  0
  -28.2834  -16.0330   18.9237 H   0  0  0  0  0  0
  -27.6180  -16.8963   20.3003 H   0  0  0  0  0  0
  -28.8113  -23.5041   22.7336 H   0  0  0  0  0  0
  -30.0647  -24.3614   21.8392 H   0  0  0  0  0  0
  -28.7343  -25.2505   22.5733 H   0  0  0  0  0  0
  -24.6857  -20.4781   17.0346 H   0  0  0  0  0  0
  -25.4931  -22.0262   17.2186 H   0  0  0  0  0  0
  -24.9690  -21.1147   18.6514 H   0  0  0  0  0  0
  -27.1431  -24.1023   21.0667 H   0  0  0  0  0  0
  1 25  1  0  0  0
  1 30  2  0  0  0
  1 83  1  0  0  0
  2  3  1  0  0  0
  2 25  1  0  0  0
  2 85  1  0  0  0
  2 86  1  0  0  0
  3  4  1  0  0  0
  3 87  1  0  0  0
  3 88  1  0  0  0
  4  5  1  0  0  0
  4 89  1  0  0  0
  4 90  1  0  0  0
  5  6  1  0  0  0
  5 26  1  0  0  0
  5 91  1  0  0  0
  6 25  1  0  0  0
  6 92  1  0  0  0
  6 93  1  0  0  0
  7  8  2  0  0  0
  7 26  1  0  0  0
  7 29  1  0  0  0
  8  9  1  0  0  0
  8 22  1  0  0  0
  9 10  1  0  0  0
  9 27  2  0  0  0
 10 11  2  0  0  0
 10 15  1  0  0  0
 11 12  1  0  0  0
 11 94  1  0  0  0
 12 13  2  0  0  0
 12 95  1  0  0  0
 13 14  1  0  0  0
 13 31  1  0  0  0
 14 15  2  0  0  0
 14 96  1  0  0  0
 15 97  1  0  0  0
 16 17  2  0  0  0
 16 21  1  0  0  0
 16 31  1  0  0  0
 17 18  1  0  0  0
 17 98  1  0  0  0
 18 19  2  0  0  0
 18 99  1  0  0  0
 19 20  1  0  0  0
 19 24  1  0  0  0
 20 21  2  0  0  0
 20100  1  0  0  0
 21 23  1  0  0  0
 22 28  1  0  0  0
 22 32  2  0  0  0
 26 27  1  0  0  0
 28101  1  0  0  0
 28102  1  0  0  0
 29103  1  0  0  0
 29104  1  0  0  0
 33 34  1  0  0  0
 33 66  1  0  0  0
 33 70  2  0  0  0
 34 36  1  0  0  0
 34 59  1  0  0  0
 34105  1  0  0  0
 35 44  2  0  0  0
 35 45  1  0  0  0
 35 68  1  0  0  0
 36 56  1  0  0  0
 36106  1  0  0  0
 37 39  1  0  0  0
 37 47  1  0  0  0
 37 66  1  0  0  0
 37107  1  0  0  0
 38 43  2  0  0  0
 38 46  1  0  0  0
 38 47  1  0  0  0
 39 64  1  0  0  0
 39 67  2  0  0  0
 40 52  1  0  0  0
 40 53  2  0  0  0
 40 58  1  0  0  0
 41108  1  0  0  0
 41109  1  0  0  0
 41110  1  0  0  0
 41 48  1  0  0  0
 42 43  1  0  0  0
 42 66  1  0  0  0
 42111  1  0  0  0
 42112  1  0  0  0
 43 44  1  0  0  0
 44113  1  0  0  0
 45 46  2  0  0  0
 45114  1  0  0  0
 46115  1  0  0  0
 47116  1  0  0  0
 47117  1  0  0  0
 48 56  1  0  0  0
 48 65  1  0  0  0
 48118  1  0  0  0
 49 50  1  0  0  0
 49 53  1  0  0  0
 49 64  1  0  0  0
 49119  1  0  0  0
 50 51  1  0  0  0
 50120  1  0  0  0
 50121  1  0  0  0
 51 52  1  0  0  0
 51122  1  0  0  0
 51123  1  0  0  0
 52124  1  0  0  0
 52125  1  0  0  0
 53 54  1  0  0  0
 54 55  2  0  0  0
 54126  1  0  0  0
 55 57  1  0  0  0
 55127  1  0  0  0
 56 69  2  0  0  0
 57 58  2  0  0  0
 57128  1  0  0  0
 58129  1  0  0  0
 59 60  1  0  0  0
 59 61  1  0  0  0
 59 62  1  0  0  0
 60130  1  0  0  0
 60131  1  0  0  0
 60132  1  0  0  0
 61133  1  0  0  0
 61134  1  0  0  0
 61135  1  0  0  0
 62136  1  0  0  0
 62137  1  0  0  0
 62138  1  0  0  0
 63 65  1  0  0  0
 63139  1  0  0  0
 63140  1  0  0  0
 63141  1  0  0  0
 64142  1  0  0  0
 65143  1  0  0  0
 68 82  1  0  0  0
 71 73  2  0  0  0
 71 75  1  0  0  0
 71144  1  0  0  0
 72 75  2  0  0  0
 72 76  1  0  0  0
 72145  1  0  0  0
 73 74  1  0  0  0
 73 78  1  0  0  0
 74 76  2  0  0  0
 74 77  1  0  0  0
 75 82  1  0  0  0
 76 84  1  0  0  0
 77 79  1  0  0  0
 77146  1  0  0  0
 77147  1  0  0  0
 78 83  1  0  0  0
 78148  1  0  0  0
 78149  1  0  0  0
 79 83  1  0  0  0
 79150  1  0  0  0
 79151  1  0  0  0
 80152  1  0  0  0
 80153  1  0  0  0
 80154  1  0  0  0
 80 82  1  0  0  0
 81 84  1  0  0  0
 81155  1  0  0  0
 81156  1  0  0  0
 81157  1  0  0  0
 82158  1  0  0  0
M  ISO  4   1 100  68 101  82 101  83 100
M  END
> <chiral flag>
0

> <version>
0

> <s_m_source_file>
/data/baiqing/PycharmProjects/Reinvent-master-3.2/result/LINK_invent/BTK/process_docking_weight1_custom_sum_contain_oxygen_bond_distance_aromatic_linkinvent_7_9_3/rearranged_h_0171.sdf

> <i_m_source_file_index>
61

> <r_mmod_Potential_Energy-OPLS-2005>
1637.53210449219

> <r_mmod_Stretch_Energy-OPLS-2005>
651.168029785156

> <r_mmod_Bend_Energy-OPLS-2005>
473.592651367188

> <r_mmod_Torsional_Energy-OPLS-2005>
330.073455810547

> <r_mmod_Improper_Torsional_Energy-OPLS-2005>
6.25193119049072

> <r_mmod_Van_der_Waal_Energy-OPLS-2005>
130.440353393555

> <r_mmod_Electrostatic_Energy-OPLS-2005>
-332.562103271484

> <r_mmod_Solvation_Energy-OPLS-2005>
-210.842346191406

> <b_mmod_Minimization_Converged-OPLS-2005>
0

> <r_mmod_RMS_Derivative-OPLS-2005>
2.68902206420898

$$$$
61
                    3D
 Structure written by MMmdl.
191203  0  0  1  0            999 V2000
  -30.6671  -14.7581   20.4515 C   0  0  0  0  0  0
  -30.4119  -12.4775   19.4593 C   0  0  0  0  0  0
  -29.4922  -12.5049   18.2238 C   0  0  0  0  0  0
  -28.0226  -12.3328   18.6498 C   0  0  0  0  0  0
  -27.6321  -13.2426   19.8467 C   0  0  2  0  0  0
  -28.6861  -13.2002   20.9723 C   0  0  0  0  0  0
  -25.2467  -13.8226   20.5734 C   0  0  0  0  0  0
  -24.1777  -13.0450   20.9234 C   0  0  0  0  0  0
  -24.6391  -11.6934   20.8780 C   0  0  0  0  0  0
  -23.9082  -10.4298   21.0422 C   0  0  0  0  0  0
  -24.3631   -9.4206   21.9189 C   0  0  0  0  0  0
  -23.6300   -8.2244   22.0755 C   0  0  0  0  0  0
  -22.4282   -8.0286   21.3547 C   0  0  0  0  0  0
  -21.9924   -9.0261   20.4643 C   0  0  0  0  0  0
  -22.7257  -10.2138   20.3058 C   0  0  0  0  0  0
  -21.6854   -6.0739   22.5279 C   0  0  0  0  0  0
  -21.4018   -6.5642   23.8214 C   0  0  0  0  0  0
  -21.3661   -5.6793   24.9174 C   0  0  0  0  0  0
  -21.6046   -4.3057   24.7226 C   0  0  0  0  0  0
  -21.8821   -3.8149   23.4346 C   0  0  0  0  0  0
  -21.9194   -4.6967   22.3401 C   0  0  0  0  0  0
  -22.7792  -13.5212   21.1876 C   0  0  0  0  0  0
  -22.1658   -4.2154   21.0979 F   0  0  0  0  0  0
  -21.5628   -3.4538   25.7739 F   0  0  0  0  0  0
  -29.9621  -13.5736   20.3544 N   0  0  0  0  0  0
  -26.2902  -12.9456   20.3326 N   0  0  0  0  0  0
  -25.9327  -11.6587   20.5803 N   0  0  0  0  0  0
  -22.0443  -12.8191   22.0427 N   0  0  0  0  0  0
  -25.4138  -15.1945   20.4151 N   0  0  0  0  0  0
  -31.8817  -14.6993   20.2295 O   0  0  0  0  0  0
  -21.6641   -6.8884   21.4242 O   0  0  0  0  0  0
  -22.3470  -14.5513   20.6714 O   0  0  0  0  0  0
  -24.6321  -31.8544   23.1976 C   0  0  0  0  0  0
  -25.9151  -32.4742   23.8319 C   0  0  1  0  0  0
  -27.2178  -27.2567   20.1127 C   0  0  0  0  0  0
  -25.5955  -33.8546   24.2250 N   0  0  0  0  0  0
  -23.4275  -30.4766   21.5416 C   0  0  2  0  0  0
  -24.8718  -28.9223   20.1061 C   0  0  0  0  0  0
  -22.7502  -29.4600   22.4922 C   0  0  0  0  0  0
  -18.0293  -28.1382   22.8489 C   0  0  0  0  0  0
  -24.1492  -36.7264   23.2639 C   0  0  0  0  0  0
  -25.9736  -30.7634   21.3780 C   0  0  0  0  0  0
  -26.0432  -29.3865   20.7162 C   0  0  0  0  0  0
  -27.2143  -28.5633   20.7131 C   0  0  0  0  0  0
  -26.0158  -26.8529   19.4901 C   0  0  0  0  0  0
  -24.8632  -27.6636   19.4853 C   0  0  0  0  0  0
  -23.6435  -29.8096   20.1575 C   0  0  0  0  0  0
  -25.4119  -36.3058   24.0327 C   0  0  1  0  0  0
  -20.5896  -28.3698   23.1267 C   0  0  2  0  0  0
  -20.6779  -26.9418   22.5406 C   0  0  0  0  0  0
  -19.5752  -26.6380   21.5211 C   0  0  0  0  0  0
  -18.1932  -26.7927   22.1619 C   0  0  0  0  0  0
  -19.1547  -28.8861   23.2868 C   0  0  0  0  0  0
  -18.9468  -30.1463   23.8884 C   0  0  0  0  0  0
  -17.6466  -30.6589   24.0561 C   0  0  0  0  0  0
  -25.9069  -34.9433   23.5091 C   0  0  0  0  0  0
  -16.5360  -29.9084   23.6334 C   0  0  0  0  0  0
  -16.7280  -28.6497   23.0360 C   0  0  0  0  0  0
  -26.4515  -31.6568   25.0713 C   0  0  0  0  0  0
  -25.3734  -31.3719   26.1429 C   0  0  0  0  0  0
  -27.0375  -30.2985   24.6211 C   0  0  0  0  0  0
  -27.6067  -32.4317   25.7486 C   0  0  0  0  0  0
  -27.5582  -37.1787   24.8465 C   0  0  0  0  0  0
  -21.4215  -29.3040   22.3658 N   0  0  0  0  0  0
  -26.4286  -37.3766   23.9420 N   0  0  0  0  0  0
  -24.6970  -31.0502   22.0954 N   0  0  0  0  0  0
  -23.4202  -28.8155   23.3031 O   0  0  0  0  0  0
  -28.3205  -26.3749   20.2045 O   0  0  0  0  0  0
  -26.5634  -34.8914   22.4656 O   0  0  0  0  0  0
  -23.5475  -32.1378   23.7271 O   0  0  0  0  0  0
  -29.0660  -20.7596   20.3504 C   0  0  0  0  0  0
  -29.3223  -21.7452   21.3704 C   0  0  0  0  0  0
  -29.1350  -23.1625   21.1326 C   0  0  0  0  0  0
  -28.5729  -23.6218   19.9079 C   0  0  0  0  0  0
  -28.4806  -21.3247   19.1760 C   0  0  0  0  0  0
  -28.4659  -18.1096   20.9489 C   0  0  0  0  0  0
  -30.2154  -18.4902   19.3409 C   0  0  0  0  0  0
  -28.3433  -20.6313   13.8167 C   0  0  0  0  0  0
  -27.0905  -22.6945   14.5505 C   0  0  0  0  0  0
  -25.9041  -20.4800   14.4269 C   0  0  0  0  0  0
  -28.8483  -21.6804   16.0529 C   0  0  0  0  0  0
  -27.6490  -19.4844   15.9514 C   0  0  0  0  0  0
  -26.3839  -21.5251   16.6684 C   0  0  0  0  0  0
  -29.0264  -16.6324   21.2474 C   0  0  0  0  0  0
  -30.8840  -17.1173   19.7187 C   0  0  0  0  0  0
  -29.5050  -19.2000   20.5214 C   0  0  0  0  0  0
  -28.4488  -21.9603   14.5883 C   0  0  1  0  0  0
  -27.2641  -19.7559   14.4815 C   0  0  2  0  0  0
  -25.9892  -21.8188   15.1982 C   0  0  1  0  0  0
  -27.7625  -20.8114   16.7499 C   0  0  2  0  0  0
  -29.8216  -21.2824   22.7356 C   0  0  0  0  0  0
  -29.5682  -24.1981   22.1656 C   0  0  0  0  0  0
  -24.6340  -22.5454   15.1484 C   0  0  0  0  0  0
  -28.4695  -25.1368   19.3685 C   0  0  0  0  0  0
  -28.2449  -22.6623   18.9980 N   0  0  0  0  0  0
  -30.0510  -16.0258   20.3326 N   0  0  0  0  0  0
  -28.1206  -20.4632   18.1310 N   0  0  0  0  0  0
  -31.4502  -12.5817   19.1407 H   0  0  0  0  0  0
  -30.3561  -11.5136   19.9675 H   0  0  0  0  0  0
  -29.7737  -11.7186   17.5219 H   0  0  0  0  0  0
  -29.6150  -13.4502   17.6925 H   0  0  0  0  0  0
  -27.8851  -11.2861   18.9236 H   0  0  0  0  0  0
  -27.3590  -12.5154   17.8039 H   0  0  0  0  0  0
  -27.6169  -14.2611   19.4576 H   0  0  0  0  0  0
  -28.7431  -12.2022   21.4101 H   0  0  0  0  0  0
  -28.4297  -13.8679   21.7931 H   0  0  0  0  0  0
  -25.2775   -9.5677   22.4766 H   0  0  0  0  0  0
  -24.0005   -7.4636   22.7478 H   0  0  0  0  0  0
  -21.0856   -8.8787   19.8946 H   0  0  0  0  0  0
  -22.3720  -10.9683   19.6170 H   0  0  0  0  0  0
  -21.2010   -7.6152   23.9717 H   0  0  0  0  0  0
  -21.1476   -6.0525   25.9078 H   0  0  0  0  0  0
  -22.0597   -2.7611   23.2847 H   0  0  0  0  0  0
  -22.4069  -11.9864   22.4822 H   0  0  0  0  0  0
  -21.1053  -13.1200   22.2623 H   0  0  0  0  0  0
  -24.6474  -15.8483   20.5318 H   0  0  0  0  0  0
  -26.2665  -15.6352   20.0970 H   0  0  0  0  0  0
  -26.7213  -32.5381   23.1053 H   0  0  0  0  0  0
  -25.0117  -33.9683   25.0407 H   0  0  0  0  0  0
  -22.7228  -31.2984   21.3957 H   0  0  0  0  0  0
  -23.3770  -35.9579   23.3285 H   0  0  0  0  0  0
  -24.3576  -36.8904   22.2055 H   0  0  0  0  0  0
  -23.7229  -37.6450   23.6680 H   0  0  0  0  0  0
  -26.1166  -31.5253   20.6106 H   0  0  0  0  0  0
  -26.8504  -30.8081   22.0132 H   0  0  0  0  0  0
  -28.1105  -28.9125   21.2070 H   0  0  0  0  0  0
  -25.9147  -25.8769   19.0416 H   0  0  0  0  0  0
  -23.9606  -27.2957   19.0166 H   0  0  0  0  0  0
  -23.7652  -30.5851   19.4003 H   0  0  0  0  0  0
  -22.7614  -29.2420   19.8556 H   0  0  0  0  0  0
  -25.1298  -36.1895   25.0817 H   0  0  0  0  0  0
  -20.9980  -28.3283   24.1391 H   0  0  0  0  0  0
  -20.5677  -26.2318   23.3615 H   0  0  0  0  0  0
  -21.6649  -26.7441   22.1207 H   0  0  0  0  0  0
  -19.6920  -25.6288   21.1245 H   0  0  0  0  0  0
  -19.6683  -27.3184   20.6732 H   0  0  0  0  0  0
  -17.4206  -26.6690   21.4016 H   0  0  0  0  0  0
  -18.0324  -26.0064   22.9005 H   0  0  0  0  0  0
  -19.7944  -30.7284   24.2245 H   0  0  0  0  0  0
  -17.5021  -31.6265   24.5170 H   0  0  0  0  0  0
  -15.5361  -30.2982   23.7661 H   0  0  0  0  0  0
  -15.8682  -28.0811   22.7085 H   0  0  0  0  0  0
  -24.5931  -30.7041   25.7756 H   0  0  0  0  0  0
  -24.8900  -32.2885   26.4819 H   0  0  0  0  0  0
  -25.8049  -30.8925   27.0224 H   0  0  0  0  0  0
  -26.2964  -29.6713   24.1243 H   0  0  0  0  0  0
  -27.4063  -29.7266   25.4735 H   0  0  0  0  0  0
  -27.8837  -30.4256   23.9456 H   0  0  0  0  0  0
  -27.2680  -33.3640   26.2015 H   0  0  0  0  0  0
  -28.3899  -32.6834   25.0325 H   0  0  0  0  0  0
  -28.0710  -31.8470   26.5436 H   0  0  0  0  0  0
  -28.2583  -38.0100   24.7538 H   0  0  0  0  0  0
  -28.1096  -36.2634   24.6259 H   0  0  0  0  0  0
  -27.2304  -37.1392   25.8867 H   0  0  0  0  0  0
  -20.9416  -29.8743   21.6837 H   0  0  0  0  0  0
  -26.0159  -38.2835   24.1430 H   0  0  0  0  0  0
  -27.9388  -18.4580   21.8378 H   0  0  0  0  0  0
  -27.6991  -18.0384   20.1759 H   0  0  0  0  0  0
  -29.5258  -18.3095   18.5179 H   0  0  0  0  0  0
  -30.9887  -19.1501   18.9458 H   0  0  0  0  0  0
  -29.3052  -20.1159   13.8128 H   0  0  0  0  0  0
  -28.0921  -20.8164   12.7710 H   0  0  0  0  0  0
  -26.8274  -22.9340   13.5188 H   0  0  0  0  0  0
  -27.1705  -23.6498   15.0717 H   0  0  0  0  0  0
  -25.1264  -19.8436   14.8516 H   0  0  0  0  0  0
  -25.6175  -20.6552   13.3885 H   0  0  0  0  0  0
  -28.9848  -22.6351   16.5589 H   0  0  0  0  0  0
  -29.8176  -21.1803   16.0845 H   0  0  0  0  0  0
  -28.5940  -18.9384   15.9811 H   0  0  0  0  0  0
  -26.9052  -18.8264   16.4044 H   0  0  0  0  0  0
  -25.6184  -20.9078   17.1409 H   0  0  0  0  0  0
  -26.3962  -22.4628   17.2230 H   0  0  0  0  0  0
  -28.1678  -15.9680   21.3077 H   0  0  0  0  0  0
  -29.4673  -16.6346   22.2453 H   0  0  0  0  0  0
  -31.7097  -17.3245   20.4023 H   0  0  0  0  0  0
  -31.3473  -16.7317   18.8083 H   0  0  0  0  0  0
  -30.2650  -19.2090   21.2999 H   0  0  0  0  0  0
  -29.2102  -22.5864   14.1214 H   0  0  0  0  0  0
  -27.1905  -18.8081   13.9468 H   0  0  0  0  0  0
  -29.4113  -20.3095   23.0046 H   0  0  0  0  0  0
  -29.5084  -21.9515   23.5364 H   0  0  0  0  0  0
  -30.9098  -21.2163   22.7446 H   0  0  0  0  0  0
  -30.4029  -23.8524   22.7748 H   0  0  0  0  0  0
  -28.7370  -24.4531   22.8238 H   0  0  0  0  0  0
  -29.9158  -25.1132   21.6885 H   0  0  0  0  0  0
  -24.3279  -22.7490   14.1218 H   0  0  0  0  0  0
  -24.6745  -23.5000   15.6739 H   0  0  0  0  0  0
  -23.8466  -21.9505   15.6126 H   0  0  0  0  0  0
  -27.7891  -25.1514   18.5196 H   0  0  0  0  0  0
  -29.4362  -25.2910   18.8886 H   0  0  0  0  0  0
  -28.2610  -19.4793   18.3148 H   0  0  0  0  0  0
  1 25  1  0  0  0
  1 30  2  0  0  0
  1 96  1  0  0  0
  2  3  1  0  0  0
  2 25  1  0  0  0
  2 98  1  0  0  0
  2 99  1  0  0  0
  3  4  1  0  0  0
  3100  1  0  0  0
  3101  1  0  0  0
  4  5  1  0  0  0
  4102  1  0  0  0
  4103  1  0  0  0
  5  6  1  0  0  0
  5 26  1  0  0  0
  5104  1  0  0  0
  6 25  1  0  0  0
  6105  1  0  0  0
  6106  1  0  0  0
  7  8  2  0  0  0
  7 26  1  0  0  0
  7 29  1  0  0  0
  8  9  1  0  0  0
  8 22  1  0  0  0
  9 10  1  0  0  0
  9 27  2  0  0  0
 10 11  2  0  0  0
 10 15  1  0  0  0
 11 12  1  0  0  0
 11107  1  0  0  0
 12 13  2  0  0  0
 12108  1  0  0  0
 13 14  1  0  0  0
 13 31  1  0  0  0
 14 15  2  0  0  0
 14109  1  0  0  0
 15110  1  0  0  0
 16 17  2  0  0  0
 16 21  1  0  0  0
 16 31  1  0  0  0
 17 18  1  0  0  0
 17111  1  0  0  0
 18 19  2  0  0  0
 18112  1  0  0  0
 19 20  1  0  0  0
 19 24  1  0  0  0
 20 21  2  0  0  0
 20113  1  0  0  0
 21 23  1  0  0  0
 22 28  1  0  0  0
 22 32  2  0  0  0
 26 27  1  0  0  0
 28114  1  0  0  0
 28115  1  0  0  0
 29116  1  0  0  0
 29117  1  0  0  0
 33 34  1  0  0  0
 33 66  1  0  0  0
 33 70  2  0  0  0
 34 36  1  0  0  0
 34 59  1  0  0  0
 34118  1  0  0  0
 35 44  2  0  0  0
 35 45  1  0  0  0
 35 68  1  0  0  0
 36 56  1  0  0  0
 36119  1  0  0  0
 37 39  1  0  0  0
 37 47  1  0  0  0
 37 66  1  0  0  0
 37120  1  0  0  0
 38 43  2  0  0  0
 38 46  1  0  0  0
 38 47  1  0  0  0
 39 64  1  0  0  0
 39 67  2  0  0  0
 40 52  1  0  0  0
 40 53  2  0  0  0
 40 58  1  0  0  0
 41121  1  0  0  0
 41122  1  0  0  0
 41123  1  0  0  0
 41 48  1  0  0  0
 42 43  1  0  0  0
 42 66  1  0  0  0
 42124  1  0  0  0
 42125  1  0  0  0
 43 44  1  0  0  0
 44126  1  0  0  0
 45 46  2  0  0  0
 45127  1  0  0  0
 46128  1  0  0  0
 47129  1  0  0  0
 47130  1  0  0  0
 48 56  1  0  0  0
 48 65  1  0  0  0
 48131  1  0  0  0
 49 50  1  0  0  0
 49 53  1  0  0  0
 49 64  1  0  0  0
 49132  1  0  0  0
 50 51  1  0  0  0
 50133  1  0  0  0
 50134  1  0  0  0
 51 52  1  0  0  0
 51135  1  0  0  0
 51136  1  0  0  0
 52137  1  0  0  0
 52138  1  0  0  0
 53 54  1  0  0  0
 54 55  2  0  0  0
 54139  1  0  0  0
 55 57  1  0  0  0
 55140  1  0  0  0
 56 69  2  0  0  0
 57 58  2  0  0  0
 57141  1  0  0  0
 58142  1  0  0  0
 59 60  1  0  0  0
 59 61  1  0  0  0
 59 62  1  0  0  0
 60143  1  0  0  0
 60144  1  0  0  0
 60145  1  0  0  0
 61146  1  0  0  0
 61147  1  0  0  0
 61148  1  0  0  0
 62149  1  0  0  0
 62150  1  0  0  0
 62151  1  0  0  0
 63 65  1  0  0  0
 63152  1  0  0  0
 63153  1  0  0  0
 63154  1  0  0  0
 64155  1  0  0  0
 65156  1  0  0  0
 68 94  1  0  0  0
 71 72  2  0  0  0
 71 75  1  0  0  0
 71 86  1  0  0  0
 72 73  1  0  0  0
 72 91  1  0  0  0
 73 74  2  0  0  0
 73 92  1  0  0  0
 74 94  1  0  0  0
 74 95  1  0  0  0
 75 95  2  0  0  0
 75 97  1  0  0  0
 76 84  1  0  0  0
 76 86  1  0  0  0
 76157  1  0  0  0
 76158  1  0  0  0
 77 85  1  0  0  0
 77 86  1  0  0  0
 77159  1  0  0  0
 77160  1  0  0  0
 78161  1  0  0  0
 78162  1  0  0  0
 78 87  1  0  0  0
 78 88  1  0  0  0
 79 87  1  0  0  0
 79 89  1  0  0  0
 79163  1  0  0  0
 79164  1  0  0  0
 80 88  1  0  0  0
 80 89  1  0  0  0
 80165  1  0  0  0
 80166  1  0  0  0
 81 87  1  0  0  0
 81 90  1  0  0  0
 81167  1  0  0  0
 81168  1  0  0  0
 82 88  1  0  0  0
 82 90  1  0  0  0
 82169  1  0  0  0
 82170  1  0  0  0
 83 89  1  0  0  0
 83 90  1  0  0  0
 83171  1  0  0  0
 83172  1  0  0  0
 84 96  1  0  0  0
 84173  1  0  0  0
 84174  1  0  0  0
 85 96  1  0  0  0
 85175  1  0  0  0
 85176  1  0  0  0
 86177  1  0  0  0
 87178  1  0  0  0
 88179  1  0  0  0
 89 93  1  0  0  0
 90 97  1  0  0  0
 91180  1  0  0  0
 91181  1  0  0  0
 91182  1  0  0  0
 92183  1  0  0  0
 92184  1  0  0  0
 92185  1  0  0  0
 93186  1  0  0  0
 93187  1  0  0  0
 93188  1  0  0  0
 94189  1  0  0  0
 94190  1  0  0  0
 97191  1  0  0  0
M  ISO  4   1 100  68 101  94 101  96 100
M  END
> <chiral flag>
0

> <version>
0

> <s_m_source_file>
/data/baiqing/PycharmProjects/Reinvent-master-3.2/result/LINK_invent/BTK/process_docking_weight1_custom_sum_contain_oxygen_bond_distance_aromatic_linkinvent_7_9_3/rearranged_h_0171.sdf

> <i_m_source_file_index>
62

> <r_mmod_Potential_Energy-OPLS-2005>
412.380706787109

> <r_mmod_Stretch_Energy-OPLS-2005>
140.055374145508

> <r_mmod_Bend_Energy-OPLS-2005>
274.295745849609

> <r_mmod_Torsional_Energy-OPLS-2005>
382.519073486328

> <r_mmod_Improper_Torsional_Energy-OPLS-2005>
17.5262832641602

> <r_mmod_Van_der_Waal_Energy-OPLS-2005>
175.94514465332

> <r_mmod_Electrostatic_Energy-OPLS-2005>
-465.195526123047

> <r_mmod_Solvation_Energy-OPLS-2005>
-207.128387451172

> <b_mmod_Minimization_Converged-OPLS-2005>
0

> <r_mmod_RMS_Derivative-OPLS-2005>
0.921230733394623

$$$$
62
                    3D
 Structure written by MMmdl.
161170  0  0  1  0            999 V2000
  -30.5154  -15.0323   20.3960 C   0  0  0  0  0  0
  -30.4349  -12.6419   19.5135 C   0  0  0  0  0  0
  -29.5248  -12.5398   18.2677 C   0  0  0  0  0  0
  -28.0633  -12.3027   18.6885 C   0  0  0  0  0  0
  -27.6211  -13.2538   19.8307 C   0  0  2  0  0  0
  -28.6581  -13.3336   20.9707 C   0  0  0  0  0  0
  -25.2415  -13.8196   20.5716 C   0  0  0  0  0  0
  -24.1748  -13.0414   20.9249 C   0  0  0  0  0  0
  -24.6377  -11.6911   20.8760 C   0  0  0  0  0  0
  -23.9072  -10.4281   21.0409 C   0  0  0  0  0  0
  -24.3623   -9.4200   21.9188 C   0  0  0  0  0  0
  -23.6293   -8.2236   22.0752 C   0  0  0  0  0  0
  -22.4275   -8.0276   21.3545 C   0  0  0  0  0  0
  -21.9913   -9.0248   20.4644 C   0  0  0  0  0  0
  -22.7246  -10.2126   20.3055 C   0  0  0  0  0  0
  -21.6848   -6.0731   22.5284 C   0  0  0  0  0  0
  -21.4014   -6.5635   23.8217 C   0  0  0  0  0  0
  -21.3662   -5.6789   24.9176 C   0  0  0  0  0  0
  -21.6045   -4.3052   24.7227 C   0  0  0  0  0  0
  -21.8817   -3.8145   23.4345 C   0  0  0  0  0  0
  -21.9191   -4.6960   22.3402 C   0  0  0  0  0  0
  -22.7771  -13.5191   21.1903 C   0  0  0  0  0  0
  -22.1658   -4.2142   21.0979 F   0  0  0  0  0  0
  -21.5628   -3.4537   25.7741 F   0  0  0  0  0  0
  -29.9239  -13.7622   20.3631 N   0  0  0  0  0  0
  -26.2833  -12.9446   20.3206 N   0  0  0  0  0  0
  -25.9307  -11.6572   20.5716 N   0  0  0  0  0  0
  -22.0415  -12.8181   22.0452 N   0  0  0  0  0  0
  -25.4051  -15.1911   20.4136 N   0  0  0  0  0  0
  -31.7267  -15.0669   20.1487 O   0  0  0  0  0  0
  -21.6637   -6.8875   21.4244 O   0  0  0  0  0  0
  -22.3458  -14.5493   20.6739 O   0  0  0  0  0  0
  -24.6490  -31.8370   23.1817 C   0  0  0  0  0  0
  -25.9232  -32.4657   23.8228 C   0  0  1  0  0  0
  -27.2209  -27.0781   20.1504 C   0  0  0  0  0  0
  -25.5960  -33.8465   24.2151 N   0  0  0  0  0  0
  -23.4557  -30.4534   21.5278 C   0  0  2  0  0  0
  -24.9057  -28.8661   20.1063 C   0  0  0  0  0  0
  -22.7594  -29.4511   22.4832 C   0  0  0  0  0  0
  -18.0312  -28.1396   22.8472 C   0  0  0  0  0  0
  -24.1496  -36.7237   23.2643 C   0  0  0  0  0  0
  -26.0145  -30.6912   21.3889 C   0  0  0  0  0  0
  -26.0830  -29.2968   20.7284 C   0  0  0  0  0  0
  -27.2365  -28.4185   20.7318 C   0  0  0  0  0  0
  -26.0144  -26.7571   19.4912 C   0  0  0  0  0  0
  -24.8871  -27.6128   19.4726 C   0  0  0  0  0  0
  -23.6853  -29.7763   20.1491 C   0  0  0  0  0  0
  -25.4129  -36.3007   24.0313 C   0  0  1  0  0  0
  -20.5927  -28.3729   23.1231 C   0  0  2  0  0  0
  -20.6807  -26.9433   22.5402 C   0  0  0  0  0  0
  -19.5785  -26.6385   21.5211 C   0  0  0  0  0  0
  -18.1964  -26.7937   22.1619 C   0  0  0  0  0  0
  -19.1566  -28.8880   23.2845 C   0  0  0  0  0  0
  -18.9475  -30.1477   23.8870 C   0  0  0  0  0  0
  -17.6467  -30.6592   24.0547 C   0  0  0  0  0  0
  -25.9078  -34.9384   23.5042 C   0  0  0  0  0  0
  -16.5363  -29.9078   23.6322 C   0  0  0  0  0  0
  -16.7293  -28.6495   23.0352 C   0  0  0  0  0  0
  -26.4539  -31.6550   25.0696 C   0  0  0  0  0  0
  -25.3707  -31.3758   26.1381 C   0  0  0  0  0  0
  -27.0413  -30.2934   24.6328 C   0  0  0  0  0  0
  -27.6058  -32.4331   25.7485 C   0  0  0  0  0  0
  -27.5579  -37.1777   24.8464 C   0  0  0  0  0  0
  -21.4275  -29.3051   22.3593 N   0  0  0  0  0  0
  -26.4291  -37.3727   23.9401 N   0  0  0  0  0  0
  -24.7265  -31.0167   22.0879 N   0  0  0  0  0  0
  -23.4211  -28.8060   23.3005 O   0  0  0  0  0  0
  -28.2853  -26.0923   20.2534 O   0  0  0  0  0  0
  -26.5669  -34.8895   22.4627 O   0  0  0  0  0  0
  -23.5595  -32.1269   23.6999 O   0  0  0  0  0  0
  -29.7177  -20.6162   20.3443 C   0  0  0  0  0  0
  -29.2891  -19.2412   20.3560 C   0  0  0  0  0  0
  -27.8572  -19.4393   20.4020 C   0  0  0  0  0  0
  -27.5508  -20.7992   20.5137 C   0  0  0  0  0  0
  -26.9563  -22.9854   21.3357 C   0  0  0  0  0  0
  -28.3921  -23.1609   20.7743 C   0  0  2  0  0  0
  -26.3529  -21.6624   20.7637 C   0  0  0  0  0  0
  -26.8459  -18.3244   20.3883 C   0  0  0  0  0  0
  -25.3625  -21.0454   21.7676 C   0  0  0  0  0  0
  -25.6179  -21.9403   19.4394 C   0  0  0  0  0  0
  -30.1749  -17.7919   20.3295 C   0  0  0  0  0  0
  -28.3147  -24.5691   19.8018 C   0  0  0  0  0  0
  -28.6562  -21.6075   20.4427 N   0  0  0  0  0  0
  -29.7560  -16.2521   20.4920 N   0  0  0  0  0  0
  -31.4690  -12.8028   19.2052 H   0  0  0  0  0  0
  -30.4378  -11.7027   20.0701 H   0  0  0  0  0  0
  -29.8646  -11.7369   17.6122 H   0  0  0  0  0  0
  -29.5947  -13.4616   17.6884 H   0  0  0  0  0  0
  -27.9860  -11.2682   19.0266 H   0  0  0  0  0  0
  -27.3968  -12.3956   17.8299 H   0  0  0  0  0  0
  -27.5693  -14.2439   19.3763 H   0  0  0  0  0  0
  -28.7623  -12.3749   21.4818 H   0  0  0  0  0  0
  -28.3396  -14.0562   21.7246 H   0  0  0  0  0  0
  -25.2762   -9.5672   22.4772 H   0  0  0  0  0  0
  -24.0000   -7.4620   22.7469 H   0  0  0  0  0  0
  -21.0845   -8.8766   19.8944 H   0  0  0  0  0  0
  -22.3705  -10.9665   19.6168 H   0  0  0  0  0  0
  -21.2007   -7.6143   23.9720 H   0  0  0  0  0  0
  -21.1491   -6.0518   25.9082 H   0  0  0  0  0  0
  -22.0594   -2.7606   23.2849 H   0  0  0  0  0  0
  -22.4034  -11.9858   22.4866 H   0  0  0  0  0  0
  -21.1022  -13.1203   22.2629 H   0  0  0  0  0  0
  -24.6334  -15.8389   20.5273 H   0  0  0  0  0  0
  -26.2366  -15.6259   20.0399 H   0  0  0  0  0  0
  -26.7299  -32.5244   23.0952 H   0  0  0  0  0  0
  -25.0089  -33.9572   25.0289 H   0  0  0  0  0  0
  -22.7613  -31.2809   21.3679 H   0  0  0  0  0  0
  -23.3767  -35.9560   23.3281 H   0  0  0  0  0  0
  -24.3578  -36.8890   22.2061 H   0  0  0  0  0  0
  -23.7249  -37.6426   23.6697 H   0  0  0  0  0  0
  -26.1789  -31.4441   20.6165 H   0  0  0  0  0  0
  -26.8815  -30.7404   22.0360 H   0  0  0  0  0  0
  -28.1325  -28.7443   21.2407 H   0  0  0  0  0  0
  -25.9009  -25.7969   19.0138 H   0  0  0  0  0  0
  -23.9856  -27.2788   18.9768 H   0  0  0  0  0  0
  -23.8266  -30.5488   19.3924 H   0  0  0  0  0  0
  -22.7986  -29.2215   19.8378 H   0  0  0  0  0  0
  -25.1326  -36.1822   25.0810 H   0  0  0  0  0  0
  -21.0027  -28.3322   24.1350 H   0  0  0  0  0  0
  -20.5699  -26.2346   23.3619 H   0  0  0  0  0  0
  -21.6671  -26.7441   22.1200 H   0  0  0  0  0  0
  -19.6942  -25.6286   21.1266 H   0  0  0  0  0  0
  -19.6726  -27.3183   20.6727 H   0  0  0  0  0  0
  -17.4238  -26.6683   21.4016 H   0  0  0  0  0  0
  -18.0357  -26.0079   22.9015 H   0  0  0  0  0  0
  -19.7945  -30.7303   24.2239 H   0  0  0  0  0  0
  -17.5010  -31.6269   24.5149 H   0  0  0  0  0  0
  -15.5359  -30.2964   23.7650 H   0  0  0  0  0  0
  -15.8701  -28.0795   22.7084 H   0  0  0  0  0  0
  -24.5904  -30.7086   25.7702 H   0  0  0  0  0  0
  -24.8880  -32.2947   26.4720 H   0  0  0  0  0  0
  -25.7983  -30.8991   27.0210 H   0  0  0  0  0  0
  -26.3045  -29.6637   24.1331 H   0  0  0  0  0  0
  -27.3993  -29.7261   25.4930 H   0  0  0  0  0  0
  -27.8967  -30.4147   23.9676 H   0  0  0  0  0  0
  -27.2647  -33.3661   26.1985 H   0  0  0  0  0  0
  -28.3915  -32.6846   25.0347 H   0  0  0  0  0  0
  -28.0677  -31.8505   26.5466 H   0  0  0  0  0  0
  -28.2588  -38.0083   24.7509 H   0  0  0  0  0  0
  -28.1091  -36.2610   24.6300 H   0  0  0  0  0  0
  -27.2290  -37.1429   25.8867 H   0  0  0  0  0  0
  -20.9484  -29.8757   21.6764 H   0  0  0  0  0  0
  -26.0147  -38.2794   24.1405 H   0  0  0  0  0  0
  -30.7349  -20.9860   20.3419 H   0  0  0  0  0  0
  -26.3107  -23.8496   21.1724 H   0  0  0  0  0  0
  -27.0529  -22.8903   22.4179 H   0  0  0  0  0  0
  -29.0741  -23.4052   21.5889 H   0  0  0  0  0  0
  -26.5946  -18.0254   21.4062 H   0  0  0  0  0  0
  -27.2372  -17.4574   19.8577 H   0  0  0  0  0  0
  -25.9337  -18.6337   19.8779 H   0  0  0  0  0  0
  -25.8518  -20.7980   22.7099 H   0  0  0  0  0  0
  -24.9101  -20.1323   21.3827 H   0  0  0  0  0  0
  -24.5494  -21.7372   21.9902 H   0  0  0  0  0  0
  -26.2804  -22.3864   18.6970 H   0  0  0  0  0  0
  -24.7777  -22.6211   19.5819 H   0  0  0  0  0  0
  -25.2250  -21.0198   19.0063 H   0  0  0  0  0  0
  -30.9575  -17.9367   21.0759 H   0  0  0  0  0  0
  -30.7103  -17.8243   19.3805 H   0  0  0  0  0  0
  -27.5287  -24.4160   19.0659 H   0  0  0  0  0  0
  -29.2213  -24.5242   19.1988 H   0  0  0  0  0  0
  -28.7734  -16.1062   20.6620 H   0  0  0  0  0  0
  1 25  1  0  0  0
  1 30  2  0  0  0
  1 84  1  0  0  0
  2  3  1  0  0  0
  2 25  1  0  0  0
  2 85  1  0  0  0
  2 86  1  0  0  0
  3  4  1  0  0  0
  3 87  1  0  0  0
  3 88  1  0  0  0
  4  5  1  0  0  0
  4 89  1  0  0  0
  4 90  1  0  0  0
  5  6  1  0  0  0
  5 26  1  0  0  0
  5 91  1  0  0  0
  6 25  1  0  0  0
  6 92  1  0  0  0
  6 93  1  0  0  0
  7  8  2  0  0  0
  7 26  1  0  0  0
  7 29  1  0  0  0
  8  9  1  0  0  0
  8 22  1  0  0  0
  9 10  1  0  0  0
  9 27  2  0  0  0
 10 11  2  0  0  0
 10 15  1  0  0  0
 11 12  1  0  0  0
 11 94  1  0  0  0
 12 13  2  0  0  0
 12 95  1  0  0  0
 13 14  1  0  0  0
 13 31  1  0  0  0
 14 15  2  0  0  0
 14 96  1  0  0  0
 15 97  1  0  0  0
 16 17  2  0  0  0
 16 21  1  0  0  0
 16 31  1  0  0  0
 17 18  1  0  0  0
 17 98  1  0  0  0
 18 19  2  0  0  0
 18 99  1  0  0  0
 19 20  1  0  0  0
 19 24  1  0  0  0
 20 21  2  0  0  0
 20100  1  0  0  0
 21 23  1  0  0  0
 22 28  1  0  0  0
 22 32  2  0  0  0
 26 27  1  0  0  0
 28101  1  0  0  0
 28102  1  0  0  0
 29103  1  0  0  0
 29104  1  0  0  0
 33 34  1  0  0  0
 33 66  1  0  0  0
 33 70  2  0  0  0
 34 36  1  0  0  0
 34 59  1  0  0  0
 34105  1  0  0  0
 35 44  2  0  0  0
 35 45  1  0  0  0
 35 68  1  0  0  0
 36 56  1  0  0  0
 36106  1  0  0  0
 37 39  1  0  0  0
 37 47  1  0  0  0
 37 66  1  0  0  0
 37107  1  0  0  0
 38 43  2  0  0  0
 38 46  1  0  0  0
 38 47  1  0  0  0
 39 64  1  0  0  0
 39 67  2  0  0  0
 40 52  1  0  0  0
 40 53  2  0  0  0
 40 58  1  0  0  0
 41108  1  0  0  0
 41109  1  0  0  0
 41110  1  0  0  0
 41 48  1  0  0  0
 42 43  1  0  0  0
 42 66  1  0  0  0
 42111  1  0  0  0
 42112  1  0  0  0
 43 44  1  0  0  0
 44113  1  0  0  0
 45 46  2  0  0  0
 45114  1  0  0  0
 46115  1  0  0  0
 47116  1  0  0  0
 47117  1  0  0  0
 48 56  1  0  0  0
 48 65  1  0  0  0
 48118  1  0  0  0
 49 50  1  0  0  0
 49 53  1  0  0  0
 49 64  1  0  0  0
 49119  1  0  0  0
 50 51  1  0  0  0
 50120  1  0  0  0
 50121  1  0  0  0
 51 52  1  0  0  0
 51122  1  0  0  0
 51123  1  0  0  0
 52124  1  0  0  0
 52125  1  0  0  0
 53 54  1  0  0  0
 54 55  2  0  0  0
 54126  1  0  0  0
 55 57  1  0  0  0
 55127  1  0  0  0
 56 69  2  0  0  0
 57 58  2  0  0  0
 57128  1  0  0  0
 58129  1  0  0  0
 59 60  1  0  0  0
 59 61  1  0  0  0
 59 62  1  0  0  0
 60130  1  0  0  0
 60131  1  0  0  0
 60132  1  0  0  0
 61133  1  0  0  0
 61134  1  0  0  0
 61135  1  0  0  0
 62136  1  0  0  0
 62137  1  0  0  0
 62138  1  0  0  0
 63 65  1  0  0  0
 63139  1  0  0  0
 63140  1  0  0  0
 63141  1  0  0  0
 64142  1  0  0  0
 65143  1  0  0  0
 68 82  1  0  0  0
 71 72  2  0  0  0
 71 83  1  0  0  0
 71144  1  0  0  0
 72 73  1  0  0  0
 72 81  1  0  0  0
 73 74  2  0  0  0
 73 78  1  0  0  0
 74 77  1  0  0  0
 74 83  1  0  0  0
 75 76  1  0  0  0
 75 77  1  0  0  0
 75145  1  0  0  0
 75146  1  0  0  0
 76 82  1  0  0  0
 76 83  1  0  0  0
 76147  1  0  0  0
 77 79  1  0  0  0
 77 80  1  0  0  0
 78148  1  0  0  0
 78149  1  0  0  0
 78150  1  0  0  0
 79151  1  0  0  0
 79152  1  0  0  0
 79153  1  0  0  0
 80154  1  0  0  0
 80155  1  0  0  0
 80156  1  0  0  0
 81 84  1  0  0  0
 81157  1  0  0  0
 81158  1  0  0  0
 82159  1  0  0  0
 82160  1  0  0  0
 84161  1  0  0  0
M  ISO  4   1 100  68 101  82 101  84 100
M  END
> <chiral flag>
0

> <version>
0

> <s_m_source_file>
/data/baiqing/PycharmProjects/Reinvent-master-3.2/result/LINK_invent/BTK/process_docking_weight1_custom_sum_contain_oxygen_bond_distance_aromatic_linkinvent_7_9_3/rearranged_h_0171.sdf

> <i_m_source_file_index>
63

> <r_mmod_Potential_Energy-OPLS-2005>
676.861633300781

> <r_mmod_Stretch_Energy-OPLS-2005>
320.617218017578

> <r_mmod_Bend_Energy-OPLS-2005>
397.428863525391

> <r_mmod_Torsional_Energy-OPLS-2005>
255.309158325195

> <r_mmod_Improper_Torsional_Energy-OPLS-2005>
7.98483991622925

> <r_mmod_Van_der_Waal_Energy-OPLS-2005>
97.0720443725586

> <r_mmod_Electrostatic_Energy-OPLS-2005>
-440.815765380859

> <r_mmod_Solvation_Energy-OPLS-2005>
-211.036437988281

> <b_mmod_Minimization_Converged-OPLS-2005>
0

> <r_mmod_RMS_Derivative-OPLS-2005>
1.3618129491806

$$$$
63
                    3D
 Structure written by MMmdl.
170179  0  0  1  0            999 V2000
  -30.7047  -14.7925   20.4501 C   0  0  0  0  0  0
  -30.4023  -12.5072   19.4669 C   0  0  0  0  0  0
  -29.4895  -12.4999   18.2272 C   0  0  0  0  0  0
  -28.0246  -12.3167   18.6576 C   0  0  0  0  0  0
  -27.6244  -13.2489   19.8329 C   0  0  2  0  0  0
  -28.6791  -13.2716   20.9610 C   0  0  0  0  0  0
  -25.2439  -13.8235   20.5729 C   0  0  0  0  0  0
  -24.1761  -13.0446   20.9244 C   0  0  0  0  0  0
  -24.6386  -11.6938   20.8779 C   0  0  0  0  0  0
  -23.9077  -10.4299   21.0420 C   0  0  0  0  0  0
  -24.3626   -9.4208   21.9191 C   0  0  0  0  0  0
  -23.6299   -8.2242   22.0755 C   0  0  0  0  0  0
  -22.4282   -8.0282   21.3543 C   0  0  0  0  0  0
  -21.9924   -9.0258   20.4644 C   0  0  0  0  0  0
  -22.7255  -10.2138   20.3060 C   0  0  0  0  0  0
  -21.6854   -6.0737   22.5280 C   0  0  0  0  0  0
  -21.4015   -6.5640   23.8213 C   0  0  0  0  0  0
  -21.3661   -5.6793   24.9174 C   0  0  0  0  0  0
  -21.6042   -4.3055   24.7226 C   0  0  0  0  0  0
  -21.8819   -3.8148   23.4347 C   0  0  0  0  0  0
  -21.9193   -4.6964   22.3403 C   0  0  0  0  0  0
  -22.7779  -13.5211   21.1889 C   0  0  0  0  0  0
  -22.1661   -4.2150   21.0980 F   0  0  0  0  0  0
  -21.5629   -3.4539   25.7737 F   0  0  0  0  0  0
  -29.9538  -13.6338   20.3319 N   0  0  0  0  0  0
  -26.2871  -12.9477   20.3286 N   0  0  0  0  0  0
  -25.9322  -11.6602   20.5790 N   0  0  0  0  0  0
  -22.0431  -12.8193   22.0443 N   0  0  0  0  0  0
  -25.4072  -15.1957   20.4118 N   0  0  0  0  0  0
  -31.9166  -14.6653   20.2533 O   0  0  0  0  0  0
  -21.6643   -6.8881   21.4242 O   0  0  0  0  0  0
  -22.3461  -14.5510   20.6730 O   0  0  0  0  0  0
  -24.6359  -31.8532   23.1969 C   0  0  0  0  0  0
  -25.9171  -32.4738   23.8319 C   0  0  1  0  0  0
  -27.2032  -27.2213   20.1286 C   0  0  0  0  0  0
  -25.5957  -33.8543   24.2237 N   0  0  0  0  0  0
  -23.4330  -30.4786   21.5418 C   0  0  2  0  0  0
  -24.8770  -28.9259   20.1069 C   0  0  0  0  0  0
  -22.7525  -29.4600   22.4891 C   0  0  0  0  0  0
  -18.0300  -28.1393   22.8480 C   0  0  0  0  0  0
  -24.1493  -36.7274   23.2640 C   0  0  0  0  0  0
  -25.9838  -30.7539   21.3830 C   0  0  0  0  0  0
  -26.0536  -29.3755   20.7203 C   0  0  0  0  0  0
  -27.2214  -28.5374   20.7173 C   0  0  0  0  0  0
  -26.0016  -26.8587   19.4772 C   0  0  0  0  0  0
  -24.8589  -27.6778   19.4727 C   0  0  0  0  0  0
  -23.6520  -29.8184   20.1567 C   0  0  0  0  0  0
  -25.4123  -36.3060   24.0322 C   0  0  1  0  0  0
  -20.5908  -28.3712   23.1255 C   0  0  2  0  0  0
  -20.6787  -26.9426   22.5403 C   0  0  0  0  0  0
  -19.5759  -26.6384   21.5212 C   0  0  0  0  0  0
  -18.1938  -26.7933   22.1623 C   0  0  0  0  0  0
  -19.1556  -28.8868   23.2857 C   0  0  0  0  0  0
  -18.9476  -30.1465   23.8883 C   0  0  0  0  0  0
  -17.6474  -30.6590   24.0561 C   0  0  0  0  0  0
  -25.9071  -34.9433   23.5083 C   0  0  0  0  0  0
  -16.5363  -29.9087   23.6334 C   0  0  0  0  0  0
  -16.7285  -28.6505   23.0351 C   0  0  0  0  0  0
  -26.4519  -31.6575   25.0724 C   0  0  0  0  0  0
  -25.3723  -31.3742   26.1430 C   0  0  0  0  0  0
  -27.0377  -30.2986   24.6246 C   0  0  0  0  0  0
  -27.6060  -32.4328   25.7504 C   0  0  0  0  0  0
  -27.5579  -37.1793   24.8466 C   0  0  0  0  0  0
  -21.4230  -29.3050   22.3632 N   0  0  0  0  0  0
  -26.4293  -37.3764   23.9409 N   0  0  0  0  0  0
  -24.7039  -31.0467   22.0964 N   0  0  0  0  0  0
  -23.4208  -28.8142   23.3005 O   0  0  0  0  0  0
  -28.2638  -26.2720   20.1970 O   0  0  0  0  0  0
  -26.5639  -34.8913   22.4648 O   0  0  0  0  0  0
  -23.5502  -32.1379   23.7245 O   0  0  0  0  0  0
  -25.8937  -21.9108   21.0196 C   0  0  0  0  0  0
  -30.6815  -18.6204   19.6605 C   0  0  0  0  0  0
  -28.5243  -18.2346   20.5759 C   0  0  0  0  0  0
  -29.9835  -23.2226   19.3877 C   0  0  0  0  0  0
  -31.1787  -17.2273   20.1915 C   0  0  0  0  0  0
  -28.9500  -16.7295   20.9997 C   0  0  0  0  0  0
  -29.6267  -19.3661   20.5283 C   0  0  0  0  0  0
  -29.2961  -20.8967   19.9767 C   0  0  2  0  0  0
  -30.5319  -21.7944   19.6812 C   0  0  2  0  0  0
  -28.9009  -23.5212   20.4368 C   0  0  1  0  0  0
  -28.3645  -22.0027   20.6952 C   0  0  1  0  0  0
  -24.5501  -21.6662   20.3471 C   0  0  0  0  0  0
  -31.5523  -21.8387   20.8389 C   0  0  0  0  0  0
  -27.9192  -24.7915   20.0958 C   0  0  0  0  0  0
  -30.1881  -16.1176   20.4073 N   0  0  0  0  0  0
  -26.9828  -21.8404   20.2453 N   0  0  0  0  0  0
  -25.9391  -22.1591   22.2248 O   0  0  0  0  0  0
  -31.4419  -12.5921   19.1466 H   0  0  0  0  0  0
  -30.3390  -11.5584   20.0020 H   0  0  0  0  0  0
  -29.7820  -11.7017   17.5434 H   0  0  0  0  0  0
  -29.6017  -13.4354   17.6768 H   0  0  0  0  0  0
  -27.9028  -11.2747   18.9558 H   0  0  0  0  0  0
  -27.3574  -12.4684   17.8083 H   0  0  0  0  0  0
  -27.5893  -14.2507   19.4047 H   0  0  0  0  0  0
  -28.7480  -12.3009   21.4542 H   0  0  0  0  0  0
  -28.4117  -13.9911   21.7351 H   0  0  0  0  0  0
  -25.2767   -9.5682   22.4773 H   0  0  0  0  0  0
  -24.0005   -7.4632   22.7476 H   0  0  0  0  0  0
  -21.0856   -8.8777   19.8948 H   0  0  0  0  0  0
  -22.3713  -10.9676   19.6172 H   0  0  0  0  0  0
  -21.2008   -7.6148   23.9717 H   0  0  0  0  0  0
  -21.1482   -6.0522   25.9077 H   0  0  0  0  0  0
  -22.0597   -2.7610   23.2846 H   0  0  0  0  0  0
  -22.4064  -11.9865   22.4836 H   0  0  0  0  0  0
  -21.1041  -13.1200   22.2637 H   0  0  0  0  0  0
  -24.6368  -15.8455   20.5240 H   0  0  0  0  0  0
  -26.2532  -15.6388   20.0784 H   0  0  0  0  0  0
  -26.7230  -32.5373   23.1050 H   0  0  0  0  0  0
  -25.0101  -33.9671   25.0382 H   0  0  0  0  0  0
  -22.7314  -31.3029   21.3969 H   0  0  0  0  0  0
  -23.3759  -35.9601   23.3302 H   0  0  0  0  0  0
  -24.3580  -36.8903   22.2054 H   0  0  0  0  0  0
  -23.7240  -37.6471   23.6671 H   0  0  0  0  0  0
  -26.1322  -31.5161   20.6172 H   0  0  0  0  0  0
  -26.8574  -30.7976   22.0213 H   0  0  0  0  0  0
  -28.1193  -28.8742   21.2164 H   0  0  0  0  0  0
  -25.8989  -25.9097   18.9751 H   0  0  0  0  0  0
  -23.9599  -27.3289   18.9836 H   0  0  0  0  0  0
  -23.7822  -30.5978   19.4052 H   0  0  0  0  0  0
  -22.7671  -29.2597   19.8462 H   0  0  0  0  0  0
  -25.1304  -36.1903   25.0815 H   0  0  0  0  0  0
  -20.9994  -28.3293   24.1379 H   0  0  0  0  0  0
  -20.5698  -26.2320   23.3612 H   0  0  0  0  0  0
  -21.6653  -26.7450   22.1193 H   0  0  0  0  0  0
  -19.6929  -25.6294   21.1248 H   0  0  0  0  0  0
  -19.6699  -27.3185   20.6735 H   0  0  0  0  0  0
  -17.4209  -26.6678   21.4022 H   0  0  0  0  0  0
  -18.0341  -26.0080   22.9026 H   0  0  0  0  0  0
  -19.7952  -30.7279   24.2247 H   0  0  0  0  0  0
  -17.5031  -31.6273   24.5163 H   0  0  0  0  0  0
  -15.5363  -30.2980   23.7672 H   0  0  0  0  0  0
  -15.8683  -28.0818   22.7071 H   0  0  0  0  0  0
  -24.5910  -30.7080   25.7755 H   0  0  0  0  0  0
  -24.8901  -32.2915   26.4819 H   0  0  0  0  0  0
  -25.8025  -30.8948   27.0230 H   0  0  0  0  0  0
  -26.2978  -29.6717   24.1258 H   0  0  0  0  0  0
  -27.4023  -29.7271   25.4790 H   0  0  0  0  0  0
  -27.8872  -30.4246   23.9531 H   0  0  0  0  0  0
  -27.2663  -33.3643   26.2048 H   0  0  0  0  0  0
  -28.3893  -32.6865   25.0348 H   0  0  0  0  0  0
  -28.0703  -31.8474   26.5451 H   0  0  0  0  0  0
  -28.2591  -38.0095   24.7512 H   0  0  0  0  0  0
  -28.1079  -36.2622   24.6296 H   0  0  0  0  0  0
  -27.2293  -37.1446   25.8867 H   0  0  0  0  0  0
  -20.9420  -29.8782   21.6844 H   0  0  0  0  0  0
  -26.0169  -38.2838   24.1408 H   0  0  0  0  0  0
  -30.2893  -18.4929   18.6502 H   0  0  0  0  0  0
  -31.5636  -19.2462   19.5363 H   0  0  0  0  0  0
  -27.7209  -18.5638   21.2360 H   0  0  0  0  0  0
  -28.0632  -18.1796   19.5886 H   0  0  0  0  0  0
  -29.5328  -23.2350   18.3940 H   0  0  0  0  0  0
  -30.7683  -23.9802   19.3860 H   0  0  0  0  0  0
  -31.7062  -17.3816   21.1345 H   0  0  0  0  0  0
  -31.9426  -16.9139   19.4775 H   0  0  0  0  0  0
  -28.1074  -16.0732   20.7963 H   0  0  0  0  0  0
  -29.0824  -16.7047   22.0821 H   0  0  0  0  0  0
  -30.0300  -19.4710   21.5365 H   0  0  0  0  0  0
  -28.8501  -20.7282   18.9949 H   0  0  0  0  0  0
  -31.0491  -21.4282   18.7934 H   0  0  0  0  0  0
  -29.4162  -23.8033   21.3557 H   0  0  0  0  0  0
  -28.4197  -21.8161   21.7697 H   0  0  0  0  0  0
  -24.6031  -21.8307   19.2708 H   0  0  0  0  0  0
  -23.7940  -22.3384   20.7533 H   0  0  0  0  0  0
  -24.2246  -20.6404   20.5224 H   0  0  0  0  0  0
  -31.0976  -22.1739   21.7708 H   0  0  0  0  0  0
  -32.3706  -22.5218   20.6089 H   0  0  0  0  0  0
  -32.0010  -20.8655   21.0332 H   0  0  0  0  0  0
  -27.0492  -24.6611   20.7401 H   0  0  0  0  0  0
  -27.5663  -24.6109   19.0806 H   0  0  0  0  0  0
  -26.8436  -21.6249   19.2671 H   0  0  0  0  0  0
  1 25  1  0  0  0
  1 30  2  0  0  0
  1 85  1  0  0  0
  2  3  1  0  0  0
  2 25  1  0  0  0
  2 88  1  0  0  0
  2 89  1  0  0  0
  3  4  1  0  0  0
  3 90  1  0  0  0
  3 91  1  0  0  0
  4  5  1  0  0  0
  4 92  1  0  0  0
  4 93  1  0  0  0
  5  6  1  0  0  0
  5 26  1  0  0  0
  5 94  1  0  0  0
  6 25  1  0  0  0
  6 95  1  0  0  0
  6 96  1  0  0  0
  7  8  2  0  0  0
  7 26  1  0  0  0
  7 29  1  0  0  0
  8  9  1  0  0  0
  8 22  1  0  0  0
  9 10  1  0  0  0
  9 27  2  0  0  0
 10 11  2  0  0  0
 10 15  1  0  0  0
 11 12  1  0  0  0
 11 97  1  0  0  0
 12 13  2  0  0  0
 12 98  1  0  0  0
 13 14  1  0  0  0
 13 31  1  0  0  0
 14 15  2  0  0  0
 14 99  1  0  0  0
 15100  1  0  0  0
 16 17  2  0  0  0
 16 21  1  0  0  0
 16 31  1  0  0  0
 17 18  1  0  0  0
 17101  1  0  0  0
 18 19  2  0  0  0
 18102  1  0  0  0
 19 20  1  0  0  0
 19 24  1  0  0  0
 20 21  2  0  0  0
 20103  1  0  0  0
 21 23  1  0  0  0
 22 28  1  0  0  0
 22 32  2  0  0  0
 26 27  1  0  0  0
 28104  1  0  0  0
 28105  1  0  0  0
 29106  1  0  0  0
 29107  1  0  0  0
 33 34  1  0  0  0
 33 66  1  0  0  0
 33 70  2  0  0  0
 34 36  1  0  0  0
 34 59  1  0  0  0
 34108  1  0  0  0
 35 44  2  0  0  0
 35 45  1  0  0  0
 35 68  1  0  0  0
 36 56  1  0  0  0
 36109  1  0  0  0
 37 39  1  0  0  0
 37 47  1  0  0  0
 37 66  1  0  0  0
 37110  1  0  0  0
 38 43  2  0  0  0
 38 46  1  0  0  0
 38 47  1  0  0  0
 39 64  1  0  0  0
 39 67  2  0  0  0
 40 52  1  0  0  0
 40 53  2  0  0  0
 40 58  1  0  0  0
 41111  1  0  0  0
 41112  1  0  0  0
 41113  1  0  0  0
 41 48  1  0  0  0
 42 43  1  0  0  0
 42 66  1  0  0  0
 42114  1  0  0  0
 42115  1  0  0  0
 43 44  1  0  0  0
 44116  1  0  0  0
 45 46  2  0  0  0
 45117  1  0  0  0
 46118  1  0  0  0
 47119  1  0  0  0
 47120  1  0  0  0
 48 56  1  0  0  0
 48 65  1  0  0  0
 48121  1  0  0  0
 49 50  1  0  0  0
 49 53  1  0  0  0
 49 64  1  0  0  0
 49122  1  0  0  0
 50 51  1  0  0  0
 50123  1  0  0  0
 50124  1  0  0  0
 51 52  1  0  0  0
 51125  1  0  0  0
 51126  1  0  0  0
 52127  1  0  0  0
 52128  1  0  0  0
 53 54  1  0  0  0
 54 55  2  0  0  0
 54129  1  0  0  0
 55 57  1  0  0  0
 55130  1  0  0  0
 56 69  2  0  0  0
 57 58  2  0  0  0
 57131  1  0  0  0
 58132  1  0  0  0
 59 60  1  0  0  0
 59 61  1  0  0  0
 59 62  1  0  0  0
 60133  1  0  0  0
 60134  1  0  0  0
 60135  1  0  0  0
 61136  1  0  0  0
 61137  1  0  0  0
 61138  1  0  0  0
 62139  1  0  0  0
 62140  1  0  0  0
 62141  1  0  0  0
 63 65  1  0  0  0
 63142  1  0  0  0
 63143  1  0  0  0
 63144  1  0  0  0
 64145  1  0  0  0
 65146  1  0  0  0
 68 84  1  0  0  0
 71 82  1  0  0  0
 71 86  1  0  0  0
 71 87  2  0  0  0
 72 75  1  0  0  0
 72147  1  0  0  0
 72148  1  0  0  0
 72 77  1  0  0  0
 73 76  1  0  0  0
 73 77  1  0  0  0
 73149  1  0  0  0
 73150  1  0  0  0
 74 79  1  0  0  0
 74 80  1  0  0  0
 74151  1  0  0  0
 74152  1  0  0  0
 75 85  1  0  0  0
 75153  1  0  0  0
 75154  1  0  0  0
 76 85  1  0  0  0
 76155  1  0  0  0
 76156  1  0  0  0
 77157  1  0  0  0
 77 78  1  0  0  0
 78 79  1  0  0  0
 78 81  1  0  0  0
 78158  1  0  0  0
 79 83  1  0  0  0
 79159  1  0  0  0
 80 81  1  0  0  0
 80 84  1  0  0  0
 80160  1  0  0  0
 81 86  1  0  0  0
 81161  1  0  0  0
 82162  1  0  0  0
 82163  1  0  0  0
 82164  1  0  0  0
 83165  1  0  0  0
 83166  1  0  0  0
 83167  1  0  0  0
 84168  1  0  0  0
 84169  1  0  0  0
 86170  1  0  0  0
M  ISO  4   1 100  68 101  84 101  85 100
M  END
> <chiral flag>
0

> <version>
0

> <s_m_source_file>
/data/baiqing/PycharmProjects/Reinvent-master-3.2/result/LINK_invent/BTK/process_docking_weight1_custom_sum_contain_oxygen_bond_distance_aromatic_linkinvent_7_9_3/rearranged_h_0171.sdf

> <i_m_source_file_index>
64

> <r_mmod_Potential_Energy-OPLS-2005>
514.8271484375

> <r_mmod_Stretch_Energy-OPLS-2005>
161.026870727539

> <r_mmod_Bend_Energy-OPLS-2005>
285.147094726562

> <r_mmod_Torsional_Energy-OPLS-2005>
360.515777587891

> <r_mmod_Improper_Torsional_Energy-OPLS-2005>
11.6425485610962

> <r_mmod_Van_der_Waal_Energy-OPLS-2005>
129.72265625

> <r_mmod_Electrostatic_Energy-OPLS-2005>
-336.504730224609

> <r_mmod_Solvation_Energy-OPLS-2005>
-220.917602539062

> <b_mmod_Minimization_Converged-OPLS-2005>
0

> <r_mmod_RMS_Derivative-OPLS-2005>
0.773292779922485

$$$$
64
                    3D
 Structure written by MMmdl.
159168  0  0  1  0            999 V2000
  -30.6841  -14.7498   20.4506 C   0  0  0  0  0  0
  -30.4115  -12.4711   19.4612 C   0  0  0  0  0  0
  -29.4937  -12.5114   18.2244 C   0  0  0  0  0  0
  -28.0215  -12.3434   18.6458 C   0  0  0  0  0  0
  -27.6340  -13.2457   19.8493 C   0  0  2  0  0  0
  -28.6896  -13.2036   20.9750 C   0  0  0  0  0  0
  -25.2466  -13.8218   20.5740 C   0  0  0  0  0  0
  -24.1779  -13.0430   20.9233 C   0  0  0  0  0  0
  -24.6404  -11.6920   20.8775 C   0  0  0  0  0  0
  -23.9094  -10.4281   21.0412 C   0  0  0  0  0  0
  -24.3630   -9.4183   21.9188 C   0  0  0  0  0  0
  -23.6291   -8.2227   22.0748 C   0  0  0  0  0  0
  -22.4271   -8.0281   21.3540 C   0  0  0  0  0  0
  -21.9926   -9.0261   20.4636 C   0  0  0  0  0  0
  -22.7269  -10.2132   20.3052 C   0  0  0  0  0  0
  -21.6844   -6.0742   22.5281 C   0  0  0  0  0  0
  -21.4003   -6.5640   23.8223 C   0  0  0  0  0  0
  -21.3659   -5.6783   24.9181 C   0  0  0  0  0  0
  -21.6048   -4.3050   24.7223 C   0  0  0  0  0  0
  -21.8808   -3.8150   23.4337 C   0  0  0  0  0  0
  -21.9176   -4.6969   22.3397 C   0  0  0  0  0  0
  -22.7793  -13.5196   21.1869 C   0  0  0  0  0  0
  -22.1645   -4.2156   21.0973 F   0  0  0  0  0  0
  -21.5636   -3.4533   25.7736 F   0  0  0  0  0  0
  -29.9698  -13.5699   20.3582 N   0  0  0  0  0  0
  -26.2912  -12.9466   20.3341 N   0  0  0  0  0  0
  -25.9341  -11.6585   20.5804 N   0  0  0  0  0  0
  -22.0435  -12.8205   22.0426 N   0  0  0  0  0  0
  -25.4097  -15.1947   20.4153 N   0  0  0  0  0  0
  -31.8952  -14.6869   20.2128 O   0  0  0  0  0  0
  -21.6619   -6.8890   21.4247 O   0  0  0  0  0  0
  -22.3477  -14.5491   20.6694 O   0  0  0  0  0  0
  -24.6332  -31.8534   23.2007 C   0  0  0  0  0  0
  -25.9163  -32.4742   23.8355 C   0  0  1  0  0  0
  -27.2129  -27.2599   20.1332 C   0  0  0  0  0  0
  -25.5960  -33.8548   24.2271 N   0  0  0  0  0  0
  -23.4301  -30.4793   21.5420 C   0  0  2  0  0  0
  -24.8784  -28.9302   20.1083 C   0  0  0  0  0  0
  -22.7506  -29.4612   22.4908 C   0  0  0  0  0  0
  -18.0288  -28.1396   22.8481 C   0  0  0  0  0  0
  -24.1481  -36.7265   23.2638 C   0  0  0  0  0  0
  -25.9772  -30.7683   21.3806 C   0  0  0  0  0  0
  -26.0514  -29.3917   20.7219 C   0  0  0  0  0  0
  -27.2262  -28.5697   20.7233 C   0  0  0  0  0  0
  -26.0236  -26.8776   19.4751 C   0  0  0  0  0  0
  -24.8690  -27.6804   19.4736 C   0  0  0  0  0  0
  -23.6480  -29.8156   20.1580 C   0  0  0  0  0  0
  -25.4107  -36.3056   24.0329 C   0  0  1  0  0  0
  -20.5893  -28.3712   23.1248 C   0  0  2  0  0  0
  -20.6777  -26.9423   22.5403 C   0  0  0  0  0  0
  -19.5755  -26.6388   21.5208 C   0  0  0  0  0  0
  -18.1935  -26.7936   22.1615 C   0  0  0  0  0  0
  -19.1543  -28.8869   23.2859 C   0  0  0  0  0  0
  -18.9467  -30.1468   23.8883 C   0  0  0  0  0  0
  -17.6466  -30.6597   24.0560 C   0  0  0  0  0  0
  -25.9060  -34.9431   23.5095 C   0  0  0  0  0  0
  -16.5351  -29.9094   23.6342 C   0  0  0  0  0  0
  -16.7274  -28.6510   23.0359 C   0  0  0  0  0  0
  -26.4534  -31.6569   25.0738 C   0  0  0  0  0  0
  -25.3758  -31.3711   26.1454 C   0  0  0  0  0  0
  -27.0388  -30.2983   24.6241 C   0  0  0  0  0  0
  -27.6083  -32.4323   25.7510 C   0  0  0  0  0  0
  -27.5586  -37.1769   24.8454 C   0  0  0  0  0  0
  -21.4214  -29.3057   22.3635 N   0  0  0  0  0  0
  -26.4270  -37.3774   23.9437 N   0  0  0  0  0  0
  -24.6993  -31.0516   22.0975 N   0  0  0  0  0  0
  -23.4194  -28.8144   23.3009 O   0  0  0  0  0  0
  -28.2607  -26.3109   20.1863 O   0  0  0  0  0  0
  -26.5623  -34.8906   22.4660 O   0  0  0  0  0  0
  -23.5483  -32.1356   23.7296 O   0  0  0  0  0  0
  -29.4117  -23.0226   21.6235 C   0  0  0  0  0  0
  -28.5860  -23.5798   20.6096 C   0  0  0  0  0  0
  -29.7751  -21.6406   21.6379 C   0  0  0  0  0  0
  -29.3174  -20.7484   20.6278 C   0  0  0  0  0  0
  -28.2143  -22.6228   19.6107 C   0  0  0  0  0  0
  -28.6050  -18.1318   21.0961 C   0  0  0  0  0  0
  -30.2840  -18.5305   19.4162 C   0  0  0  0  0  0
  -29.1010  -16.6237   21.3081 C   0  0  0  0  0  0
  -30.8832  -17.0904   19.6522 C   0  0  0  0  0  0
  -29.6816  -19.1801   20.6787 C   0  0  0  0  0  0
  -27.3385  -23.0383   18.4462 C   0  0  0  0  0  0
  -27.8840  -25.0045   20.8301 C   0  0  0  0  0  0
  -28.5525  -21.2796   19.6233 N   0  0  0  0  0  0
  -30.0758  -16.0199   20.3412 N   0  0  0  0  0  0
  -30.5373  -21.1749   22.6579 F   0  0  0  0  0  0
  -31.4532  -12.5637   19.1493 H   0  0  0  0  0  0
  -30.3434  -11.5055   19.9642 H   0  0  0  0  0  0
  -29.7756  -11.7319   17.5157 H   0  0  0  0  0  0
  -29.6202  -13.4612   17.7024 H   0  0  0  0  0  0
  -27.8727  -11.2954   18.9079 H   0  0  0  0  0  0
  -27.3617  -12.5414   17.8004 H   0  0  0  0  0  0
  -27.6180  -14.2659   19.4649 H   0  0  0  0  0  0
  -28.7454  -12.2080   21.4172 H   0  0  0  0  0  0
  -28.4352  -13.8768   21.7912 H   0  0  0  0  0  0
  -25.2768   -9.5652   22.4778 H   0  0  0  0  0  0
  -23.9989   -7.4604   22.7461 H   0  0  0  0  0  0
  -21.0858   -8.8788   19.8932 H   0  0  0  0  0  0
  -22.3734  -10.9676   19.6161 H   0  0  0  0  0  0
  -21.1995   -7.6145   23.9738 H   0  0  0  0  0  0
  -21.1495   -6.0508   25.9091 H   0  0  0  0  0  0
  -22.0589   -2.7611   23.2824 H   0  0  0  0  0  0
  -22.4056  -11.9886   22.4851 H   0  0  0  0  0  0
  -21.1040  -13.1223   22.2587 H   0  0  0  0  0  0
  -24.6393  -15.8438   20.5323 H   0  0  0  0  0  0
  -26.2597  -15.6410   20.0955 H   0  0  0  0  0  0
  -26.7230  -32.5385   23.1096 H   0  0  0  0  0  0
  -25.0138  -33.9687   25.0442 H   0  0  0  0  0  0
  -22.7284  -31.3029   21.3960 H   0  0  0  0  0  0
  -23.3763  -35.9570   23.3240 H   0  0  0  0  0  0
  -24.3591  -36.8943   22.2066 H   0  0  0  0  0  0
  -23.7199  -37.6433   23.6697 H   0  0  0  0  0  0
  -26.1156  -31.5296   20.6116 H   0  0  0  0  0  0
  -26.8549  -30.8153   22.0140 H   0  0  0  0  0  0
  -28.1223  -28.9140   21.2209 H   0  0  0  0  0  0
  -25.9658  -25.9208   18.9769 H   0  0  0  0  0  0
  -23.9736  -27.3234   18.9845 H   0  0  0  0  0  0
  -23.7705  -30.5914   19.4016 H   0  0  0  0  0  0
  -22.7664  -29.2483   19.8542 H   0  0  0  0  0  0
  -25.1285  -36.1883   25.0819 H   0  0  0  0  0  0
  -20.9991  -28.3287   24.1362 H   0  0  0  0  0  0
  -20.5664  -26.2326   23.3615 H   0  0  0  0  0  0
  -21.6639  -26.7439   22.1187 H   0  0  0  0  0  0
  -19.6908  -25.6293   21.1256 H   0  0  0  0  0  0
  -19.6698  -27.3182   20.6724 H   0  0  0  0  0  0
  -17.4204  -26.6679   21.4018 H   0  0  0  0  0  0
  -18.0335  -26.0081   22.9016 H   0  0  0  0  0  0
  -19.7948  -30.7286   24.2241 H   0  0  0  0  0  0
  -17.5026  -31.6277   24.5162 H   0  0  0  0  0  0
  -15.5354  -30.2994   23.7688 H   0  0  0  0  0  0
  -15.8666  -28.0832   22.7090 H   0  0  0  0  0  0
  -24.5941  -30.7053   25.7782 H   0  0  0  0  0  0
  -24.8946  -32.2868   26.4896 H   0  0  0  0  0  0
  -25.8084  -30.8882   27.0222 H   0  0  0  0  0  0
  -26.2981  -29.6710   24.1267 H   0  0  0  0  0  0
  -27.4056  -29.7275   25.4785 H   0  0  0  0  0  0
  -27.8865  -30.4246   23.9499 H   0  0  0  0  0  0
  -27.2696  -33.3641   26.2051 H   0  0  0  0  0  0
  -28.3914  -32.6851   25.0349 H   0  0  0  0  0  0
  -28.0720  -31.8464   26.5455 H   0  0  0  0  0  0
  -28.2528  -38.0141   24.7603 H   0  0  0  0  0  0
  -28.1153  -36.2679   24.6138 H   0  0  0  0  0  0
  -27.2318  -37.1231   25.8853 H   0  0  0  0  0  0
  -20.9410  -29.8775   21.6827 H   0  0  0  0  0  0
  -26.0128  -38.2813   24.1522 H   0  0  0  0  0  0
  -29.7219  -23.6412   22.4528 H   0  0  0  0  0  0
  -28.1296  -18.4677   22.0179 H   0  0  0  0  0  0
  -27.8129  -18.1434   20.3463 H   0  0  0  0  0  0
  -29.5292  -18.4949   18.6292 H   0  0  0  0  0  0
  -31.0770  -19.1734   19.0334 H   0  0  0  0  0  0
  -28.2130  -15.9972   21.3528 H   0  0  0  0  0  0
  -29.5612  -16.5546   22.2948 H   0  0  0  0  0  0
  -31.7995  -17.2255   20.2299 H   0  0  0  0  0  0
  -31.2036  -16.7064   18.6814 H   0  0  0  0  0  0
  -30.4620  -19.1168   21.4371 H   0  0  0  0  0  0
  -26.2987  -22.7764   18.6380 H   0  0  0  0  0  0
  -27.6533  -22.5406   17.5290 H   0  0  0  0  0  0
  -27.3978  -24.1125   18.2692 H   0  0  0  0  0  0
  -27.9642  -25.2064   21.8991 H   0  0  0  0  0  0
  -26.8219  -24.8012   20.7027 H   0  0  0  0  0  0
  1 25  1  0  0  0
  1 30  2  0  0  0
  1 84  1  0  0  0
  2  3  1  0  0  0
  2 25  1  0  0  0
  2 86  1  0  0  0
  2 87  1  0  0  0
  3  4  1  0  0  0
  3 88  1  0  0  0
  3 89  1  0  0  0
  4  5  1  0  0  0
  4 90  1  0  0  0
  4 91  1  0  0  0
  5  6  1  0  0  0
  5 26  1  0  0  0
  5 92  1  0  0  0
  6 25  1  0  0  0
  6 93  1  0  0  0
  6 94  1  0  0  0
  7  8  2  0  0  0
  7 26  1  0  0  0
  7 29  1  0  0  0
  8  9  1  0  0  0
  8 22  1  0  0  0
  9 10  1  0  0  0
  9 27  2  0  0  0
 10 11  2  0  0  0
 10 15  1  0  0  0
 11 12  1  0  0  0
 11 95  1  0  0  0
 12 13  2  0  0  0
 12 96  1  0  0  0
 13 14  1  0  0  0
 13 31  1  0  0  0
 14 15  2  0  0  0
 14 97  1  0  0  0
 15 98  1  0  0  0
 16 17  2  0  0  0
 16 21  1  0  0  0
 16 31  1  0  0  0
 17 18  1  0  0  0
 17 99  1  0  0  0
 18 19  2  0  0  0
 18100  1  0  0  0
 19 20  1  0  0  0
 19 24  1  0  0  0
 20 21  2  0  0  0
 20101  1  0  0  0
 21 23  1  0  0  0
 22 28  1  0  0  0
 22 32  2  0  0  0
 26 27  1  0  0  0
 28102  1  0  0  0
 28103  1  0  0  0
 29104  1  0  0  0
 29105  1  0  0  0
 33 34  1  0  0  0
 33 66  1  0  0  0
 33 70  2  0  0  0
 34 36  1  0  0  0
 34 59  1  0  0  0
 34106  1  0  0  0
 35 44  2  0  0  0
 35 45  1  0  0  0
 35 68  1  0  0  0
 36 56  1  0  0  0
 36107  1  0  0  0
 37 39  1  0  0  0
 37 47  1  0  0  0
 37 66  1  0  0  0
 37108  1  0  0  0
 38 43  2  0  0  0
 38 46  1  0  0  0
 38 47  1  0  0  0
 39 64  1  0  0  0
 39 67  2  0  0  0
 40 52  1  0  0  0
 40 53  2  0  0  0
 40 58  1  0  0  0
 41109  1  0  0  0
 41110  1  0  0  0
 41111  1  0  0  0
 41 48  1  0  0  0
 42 43  1  0  0  0
 42 66  1  0  0  0
 42112  1  0  0  0
 42113  1  0  0  0
 43 44  1  0  0  0
 44114  1  0  0  0
 45 46  2  0  0  0
 45115  1  0  0  0
 46116  1  0  0  0
 47117  1  0  0  0
 47118  1  0  0  0
 48 56  1  0  0  0
 48 65  1  0  0  0
 48119  1  0  0  0
 49 50  1  0  0  0
 49 53  1  0  0  0
 49 64  1  0  0  0
 49120  1  0  0  0
 50 51  1  0  0  0
 50121  1  0  0  0
 50122  1  0  0  0
 51 52  1  0  0  0
 51123  1  0  0  0
 51124  1  0  0  0
 52125  1  0  0  0
 52126  1  0  0  0
 53 54  1  0  0  0
 54 55  2  0  0  0
 54127  1  0  0  0
 55 57  1  0  0  0
 55128  1  0  0  0
 56 69  2  0  0  0
 57 58  2  0  0  0
 57129  1  0  0  0
 58130  1  0  0  0
 59 60  1  0  0  0
 59 61  1  0  0  0
 59 62  1  0  0  0
 60131  1  0  0  0
 60132  1  0  0  0
 60133  1  0  0  0
 61134  1  0  0  0
 61135  1  0  0  0
 61136  1  0  0  0
 62137  1  0  0  0
 62138  1  0  0  0
 62139  1  0  0  0
 63 65  1  0  0  0
 63140  1  0  0  0
 63141  1  0  0  0
 63142  1  0  0  0
 64143  1  0  0  0
 65144  1  0  0  0
 68 82  1  0  0  0
 71 72  2  0  0  0
 71 73  1  0  0  0
 71145  1  0  0  0
 72 75  1  0  0  0
 72 82  1  0  0  0
 73 74  2  0  0  0
 73 85  1  0  0  0
 74 83  1  0  0  0
 74 80  1  0  0  0
 75 81  1  0  0  0
 75 83  2  0  0  0
 76 78  1  0  0  0
 76 80  1  0  0  0
 76146  1  0  0  0
 76147  1  0  0  0
 77 79  1  0  0  0
 77 80  1  0  0  0
 77148  1  0  0  0
 77149  1  0  0  0
 78 84  1  0  0  0
 78150  1  0  0  0
 78151  1  0  0  0
 79 84  1  0  0  0
 79152  1  0  0  0
 79153  1  0  0  0
 80154  1  0  0  0
 81155  1  0  0  0
 81156  1  0  0  0
 81157  1  0  0  0
 82158  1  0  0  0
 82159  1  0  0  0
M  ISO  4   1 100  68 101  82 101  84 100
M  END
> <chiral flag>
0

> <version>
0

> <s_m_source_file>
/data/baiqing/PycharmProjects/Reinvent-master-3.2/result/LINK_invent/BTK/process_docking_weight1_custom_sum_contain_oxygen_bond_distance_aromatic_linkinvent_7_9_3/rearranged_h_0171.sdf

> <i_m_source_file_index>
65

> <r_mmod_Potential_Energy-OPLS-2005>
360.085540771484

> <r_mmod_Stretch_Energy-OPLS-2005>
123.696365356445

> <r_mmod_Bend_Energy-OPLS-2005>
208.090911865234

> <r_mmod_Torsional_Energy-OPLS-2005>
332.839508056641

> <r_mmod_Improper_Torsional_Energy-OPLS-2005>
19.0245113372803

> <r_mmod_Van_der_Waal_Energy-OPLS-2005>
147.96223449707

> <r_mmod_Electrostatic_Energy-OPLS-2005>
-367.972503662109

> <r_mmod_Solvation_Energy-OPLS-2005>
-200.608932495117

> <b_mmod_Minimization_Converged-OPLS-2005>
0

> <r_mmod_RMS_Derivative-OPLS-2005>
1.56776595115662

$$$$
65
                    3D
 Structure written by MMmdl.
172182  0  0  1  0            999 V2000
  -30.6993  -14.5324   20.5113 C   0  0  0  0  0  0
  -30.4163  -12.3295   19.4376 C   0  0  0  0  0  0
  -29.4935  -12.4899   18.2125 C   0  0  0  0  0  0
  -28.0158  -12.3509   18.6279 C   0  0  0  0  0  0
  -27.6513  -13.2169   19.8644 C   0  0  2  0  0  0
  -28.6980  -13.0675   20.9910 C   0  0  0  0  0  0
  -25.2543  -13.8169   20.5702 C   0  0  0  0  0  0
  -24.1813  -13.0436   20.9199 C   0  0  0  0  0  0
  -24.6386  -11.6910   20.8754 C   0  0  0  0  0  0
  -23.9059  -10.4292   21.0412 C   0  0  0  0  0  0
  -24.3613   -9.4206   21.9186 C   0  0  0  0  0  0
  -23.6289   -8.2242   22.0754 C   0  0  0  0  0  0
  -22.4272   -8.0280   21.3544 C   0  0  0  0  0  0
  -21.9906   -9.0254   20.4648 C   0  0  0  0  0  0
  -22.7233  -10.2135   20.3059 C   0  0  0  0  0  0
  -21.6852   -6.0734   22.5278 C   0  0  0  0  0  0
  -21.4013   -6.5639   23.8211 C   0  0  0  0  0  0
  -21.3658   -5.6792   24.9174 C   0  0  0  0  0  0
  -21.6044   -4.3055   24.7225 C   0  0  0  0  0  0
  -21.8820   -3.8146   23.4347 C   0  0  0  0  0  0
  -21.9193   -4.6963   22.3403 C   0  0  0  0  0  0
  -22.7839  -13.5238   21.1859 C   0  0  0  0  0  0
  -22.1662   -4.2148   21.0981 F   0  0  0  0  0  0
  -21.5629   -3.4539   25.7738 F   0  0  0  0  0  0
  -30.0188  -13.3548   20.4163 N   0  0  0  0  0  0
  -26.2982  -12.9362   20.3359 N   0  0  0  0  0  0
  -25.9318  -11.6513   20.5786 N   0  0  0  0  0  0
  -22.0479  -12.8227   22.0412 N   0  0  0  0  0  0
  -25.4233  -15.1877   20.4096 N   0  0  0  0  0  0
  -31.8775  -14.6388   20.1565 O   0  0  0  0  0  0
  -21.6638   -6.8876   21.4239 O   0  0  0  0  0  0
  -22.3531  -14.5550   20.6715 O   0  0  0  0  0  0
  -24.6194  -31.8654   23.2085 C   0  0  0  0  0  0
  -25.9073  -32.4806   23.8385 C   0  0  1  0  0  0
  -27.2248  -27.3818   20.0887 C   0  0  0  0  0  0
  -25.5917  -33.8607   24.2314 N   0  0  0  0  0  0
  -23.4083  -30.4920   21.5504 C   0  0  2  0  0  0
  -24.8507  -28.9574   20.1107 C   0  0  0  0  0  0
  -22.7435  -29.4652   22.4966 C   0  0  0  0  0  0
  -18.0279  -28.1379   22.8490 C   0  0  0  0  0  0
  -24.1490  -36.7308   23.2638 C   0  0  0  0  0  0
  -25.9441  -30.8130   21.3713 C   0  0  0  0  0  0
  -26.0152  -29.4456   20.7135 C   0  0  0  0  0  0
  -27.1992  -28.6638   20.7037 C   0  0  0  0  0  0
  -26.0306  -26.9273   19.4766 C   0  0  0  0  0  0
  -24.8564  -27.6998   19.4913 C   0  0  0  0  0  0
  -23.6175  -29.8312   20.1630 C   0  0  0  0  0  0
  -25.4112  -36.3102   24.0334 C   0  0  1  0  0  0
  -20.5874  -28.3673   23.1304 C   0  0  2  0  0  0
  -20.6770  -26.9404   22.5415 C   0  0  0  0  0  0
  -19.5749  -26.6383   21.5213 C   0  0  0  0  0  0
  -18.1927  -26.7925   22.1622 C   0  0  0  0  0  0
  -19.1529  -28.8842   23.2895 C   0  0  0  0  0  0
  -18.9454  -30.1447   23.8907 C   0  0  0  0  0  0
  -17.6456  -30.6584   24.0565 C   0  0  0  0  0  0
  -25.9043  -34.9468   23.5120 C   0  0  0  0  0  0
  -16.5347  -29.9085   23.6326 C   0  0  0  0  0  0
  -16.7267  -28.6502   23.0346 C   0  0  0  0  0  0
  -26.4483  -31.6595   25.0729 C   0  0  0  0  0  0
  -25.3738  -31.3714   26.1471 C   0  0  0  0  0  0
  -27.0314  -30.3028   24.6136 C   0  0  0  0  0  0
  -27.6056  -32.4318   25.7490 C   0  0  0  0  0  0
  -27.5582  -37.1811   24.8466 C   0  0  0  0  0  0
  -21.4158  -29.3038   22.3707 N   0  0  0  0  0  0
  -26.4296  -37.3789   23.9407 N   0  0  0  0  0  0
  -24.6759  -31.0720   22.1009 N   0  0  0  0  0  0
  -23.4195  -28.8181   23.3008 O   0  0  0  0  0  0
  -28.3898  -26.6200   20.1520 O   0  0  0  0  0  0
  -26.5603  -34.8923   22.4681 O   0  0  0  0  0  0
  -23.5377  -32.1429   23.7454 O   0  0  0  0  0  0
  -26.5090  -18.5793   21.9400 C   0  0  0  0  0  0
  -27.6017  -19.3219   21.4356 C   0  0  0  0  0  0
  -27.4391  -20.7510   21.3385 C   0  0  0  0  0  0
  -26.1950  -21.2831   21.7724 C   0  0  0  0  0  0
  -25.3300  -19.2172   22.3368 C   0  0  0  0  0  0
  -28.5031  -21.7313   20.7612 C   0  0  0  0  0  0
  -25.9157  -22.7688   21.7433 C   0  0  0  0  0  0
  -29.3975  -17.6443   22.2138 C   0  0  0  0  0  0
  -28.5151  -17.5170   19.8653 C   0  0  0  0  0  0
  -30.4516  -16.5759   21.8123 C   0  0  0  0  0  0
  -29.6276  -16.4772   19.5798 C   0  0  0  0  0  0
  -26.7447  -23.4871   20.6863 C   0  0  0  0  0  0
  -28.8441  -18.4897   21.0279 C   0  0  0  0  0  0
  -24.1545  -18.4314   22.8780 C   0  0  0  0  0  0
  -29.1289  -24.1384   20.1573 C   0  0  0  0  0  0
  -28.5590  -25.3918   19.3895 C   0  0  0  0  0  0
  -25.1770  -20.5468   22.2615 N   0  0  0  0  0  0
  -29.9669  -15.6579   20.7626 N   0  0  0  0  0  0
  -28.1838  -23.2079   20.8833 N   0  3  2  0  0  0
  -31.4620  -12.4167   19.1369 H   0  0  0  0  0  0
  -30.3121  -11.3342   19.8723 H   0  0  0  0  0  0
  -29.7391  -11.7439   17.4554 H   0  0  0  0  0  0
  -29.6570  -13.4630   17.7470 H   0  0  0  0  0  0
  -27.8357  -11.2983   18.8488 H   0  0  0  0  0  0
  -27.3635  -12.5990   17.7899 H   0  0  0  0  0  0
  -27.6699  -14.2538   19.5317 H   0  0  0  0  0  0
  -28.6827  -12.0574   21.4027 H   0  0  0  0  0  0
  -28.4694  -13.7391   21.8204 H   0  0  0  0  0  0
  -25.2759   -9.5682   22.4760 H   0  0  0  0  0  0
  -24.0000   -7.4632   22.7472 H   0  0  0  0  0  0
  -21.0838   -8.8772   19.8954 H   0  0  0  0  0  0
  -22.3691  -10.9675   19.6169 H   0  0  0  0  0  0
  -21.2004   -7.6147   23.9714 H   0  0  0  0  0  0
  -21.1480   -6.0523   25.9076 H   0  0  0  0  0  0
  -22.0600   -2.7608   23.2847 H   0  0  0  0  0  0
  -22.4088  -11.9880   22.4789 H   0  0  0  0  0  0
  -21.1099  -13.1255   22.2619 H   0  0  0  0  0  0
  -24.6532  -15.8403   20.4979 H   0  0  0  0  0  0
  -26.2790  -15.6198   20.0887 H   0  0  0  0  0  0
  -26.7138  -32.5492   23.1137 H   0  0  0  0  0  0
  -25.0081  -33.9766   25.0468 H   0  0  0  0  0  0
  -22.6990  -31.3109   21.4134 H   0  0  0  0  0  0
  -23.3748  -35.9645   23.3312 H   0  0  0  0  0  0
  -24.3583  -36.8910   22.2050 H   0  0  0  0  0  0
  -23.7247  -37.6518   23.6645 H   0  0  0  0  0  0
  -26.0684  -31.5790   20.6045 H   0  0  0  0  0  0
  -26.8281  -30.8600   21.9955 H   0  0  0  0  0  0
  -28.0942  -29.0361   21.1825 H   0  0  0  0  0  0
  -25.9406  -25.9694   18.9933 H   0  0  0  0  0  0
  -23.9589  -27.3177   19.0241 H   0  0  0  0  0  0
  -23.7321  -30.6098   19.4080 H   0  0  0  0  0  0
  -22.7384  -29.2583   19.8622 H   0  0  0  0  0  0
  -25.1291  -36.1965   25.0827 H   0  0  0  0  0  0
  -20.9968  -28.3241   24.1423 H   0  0  0  0  0  0
  -20.5673  -26.2281   23.3607 H   0  0  0  0  0  0
  -21.6640  -26.7444   22.1207 H   0  0  0  0  0  0
  -19.6913  -25.6297   21.1235 H   0  0  0  0  0  0
  -19.6690  -27.3200   20.6749 H   0  0  0  0  0  0
  -17.4200  -26.6677   21.4021 H   0  0  0  0  0  0
  -18.0325  -26.0063   22.9014 H   0  0  0  0  0  0
  -19.7930  -30.7260   24.2282 H   0  0  0  0  0  0
  -17.5011  -31.6265   24.5165 H   0  0  0  0  0  0
  -15.5348  -30.2991   23.7645 H   0  0  0  0  0  0
  -15.8667  -28.0827   22.7054 H   0  0  0  0  0  0
  -24.5916  -30.7053   25.7810 H   0  0  0  0  0  0
  -24.8923  -32.2872   26.4909 H   0  0  0  0  0  0
  -25.8082  -30.8892   27.0236 H   0  0  0  0  0  0
  -26.2867  -29.6790   24.1178 H   0  0  0  0  0  0
  -27.4053  -29.7268   25.4610 H   0  0  0  0  0  0
  -27.8720  -30.4333   23.9317 H   0  0  0  0  0  0
  -27.2676  -33.3613   26.2085 H   0  0  0  0  0  0
  -28.3854  -32.6886   25.0308 H   0  0  0  0  0  0
  -28.0737  -31.8432   26.5390 H   0  0  0  0  0  0
  -28.2607  -38.0101   24.7505 H   0  0  0  0  0  0
  -28.1069  -36.2632   24.6300 H   0  0  0  0  0  0
  -27.2299  -37.1471   25.8869 H   0  0  0  0  0  0
  -20.9319  -29.8775   21.6942 H   0  0  0  0  0  0
  -26.0183  -38.2868   24.1401 H   0  0  0  0  0  0
  -26.5619  -17.5027   22.0217 H   0  0  0  0  0  0
  -28.6229  -21.4814   19.7061 H   0  0  0  0  0  0
  -29.4650  -21.5395   21.2385 H   0  0  0  0  0  0
  -26.1223  -23.1797   22.7321 H   0  0  0  0  0  0
  -24.8566  -22.9453   21.5500 H   0  0  0  0  0  0
  -29.8141  -18.3117   22.9689 H   0  0  0  0  0  0
  -28.5897  -17.1113   22.7131 H   0  0  0  0  0  0
  -27.6041  -16.9648   20.0860 H   0  0  0  0  0  0
  -28.2997  -18.0900   18.9628 H   0  0  0  0  0  0
  -30.7272  -16.0004   22.6985 H   0  0  0  0  0  0
  -31.3665  -17.0682   21.4762 H   0  0  0  0  0  0
  -30.5231  -16.9872   19.2184 H   0  0  0  0  0  0
  -29.3034  -15.8334   18.7596 H   0  0  0  0  0  0
  -26.5369  -24.5485   20.7976 H   0  0  0  0  0  0
  -26.4357  -23.1850   19.6845 H   0  0  0  0  0  0
  -29.6333  -19.1634   20.6943 H   0  0  0  0  0  0
  -24.3320  -17.3575   22.8154 H   0  0  0  0  0  0
  -23.2501  -18.6556   22.3123 H   0  0  0  0  0  0
  -23.9780  -18.6841   23.9235 H   0  0  0  0  0  0
  -29.9054  -24.4591   20.8518 H   0  0  0  0  0  0
  -29.6520  -23.5420   19.4090 H   0  0  0  0  0  0
  -27.7339  -25.1003   18.7485 H   0  0  0  0  0  0
  -29.3258  -25.6663   18.6645 H   0  0  0  0  0  0
  -28.3431  -23.4273   21.8567 H   0  0  0  0  0  0
  1 25  1  0  0  0
  1 30  2  0  0  0
  1 88  1  0  0  0
  2  3  1  0  0  0
  2 25  1  0  0  0
  2 90  1  0  0  0
  2 91  1  0  0  0
  3  4  1  0  0  0
  3 92  1  0  0  0
  3 93  1  0  0  0
  4  5  1  0  0  0
  4 94  1  0  0  0
  4 95  1  0  0  0
  5  6  1  0  0  0
  5 26  1  0  0  0
  5 96  1  0  0  0
  6 25  1  0  0  0
  6 97  1  0  0  0
  6 98  1  0  0  0
  7  8  2  0  0  0
  7 26  1  0  0  0
  7 29  1  0  0  0
  8  9  1  0  0  0
  8 22  1  0  0  0
  9 10  1  0  0  0
  9 27  2  0  0  0
 10 11  2  0  0  0
 10 15  1  0  0  0
 11 12  1  0  0  0
 11 99  1  0  0  0
 12 13  2  0  0  0
 12100  1  0  0  0
 13 14  1  0  0  0
 13 31  1  0  0  0
 14 15  2  0  0  0
 14101  1  0  0  0
 15102  1  0  0  0
 16 17  2  0  0  0
 16 21  1  0  0  0
 16 31  1  0  0  0
 17 18  1  0  0  0
 17103  1  0  0  0
 18 19  2  0  0  0
 18104  1  0  0  0
 19 20  1  0  0  0
 19 24  1  0  0  0
 20 21  2  0  0  0
 20105  1  0  0  0
 21 23  1  0  0  0
 22 28  1  0  0  0
 22 32  2  0  0  0
 26 27  1  0  0  0
 28106  1  0  0  0
 28107  1  0  0  0
 29108  1  0  0  0
 29109  1  0  0  0
 33 34  1  0  0  0
 33 66  1  0  0  0
 33 70  2  0  0  0
 34 36  1  0  0  0
 34 59  1  0  0  0
 34110  1  0  0  0
 35 44  2  0  0  0
 35 45  1  0  0  0
 35 68  1  0  0  0
 36 56  1  0  0  0
 36111  1  0  0  0
 37 39  1  0  0  0
 37 47  1  0  0  0
 37 66  1  0  0  0
 37112  1  0  0  0
 38 43  2  0  0  0
 38 46  1  0  0  0
 38 47  1  0  0  0
 39 64  1  0  0  0
 39 67  2  0  0  0
 40 52  1  0  0  0
 40 53  2  0  0  0
 40 58  1  0  0  0
 41113  1  0  0  0
 41114  1  0  0  0
 41115  1  0  0  0
 41 48  1  0  0  0
 42 43  1  0  0  0
 42 66  1  0  0  0
 42116  1  0  0  0
 42117  1  0  0  0
 43 44  1  0  0  0
 44118  1  0  0  0
 45 46  2  0  0  0
 45119  1  0  0  0
 46120  1  0  0  0
 47121  1  0  0  0
 47122  1  0  0  0
 48 56  1  0  0  0
 48 65  1  0  0  0
 48123  1  0  0  0
 49 50  1  0  0  0
 49 53  1  0  0  0
 49 64  1  0  0  0
 49124  1  0  0  0
 50 51  1  0  0  0
 50125  1  0  0  0
 50126  1  0  0  0
 51 52  1  0  0  0
 51127  1  0  0  0
 51128  1  0  0  0
 52129  1  0  0  0
 52130  1  0  0  0
 53 54  1  0  0  0
 54 55  2  0  0  0
 54131  1  0  0  0
 55 57  1  0  0  0
 55132  1  0  0  0
 56 69  2  0  0  0
 57 58  2  0  0  0
 57133  1  0  0  0
 58134  1  0  0  0
 59 60  1  0  0  0
 59 61  1  0  0  0
 59 62  1  0  0  0
 60135  1  0  0  0
 60136  1  0  0  0
 60137  1  0  0  0
 61138  1  0  0  0
 61139  1  0  0  0
 61140  1  0  0  0
 62141  1  0  0  0
 62142  1  0  0  0
 62143  1  0  0  0
 63 65  1  0  0  0
 63144  1  0  0  0
 63145  1  0  0  0
 63146  1  0  0  0
 64147  1  0  0  0
 65148  1  0  0  0
 68 86  1  0  0  0
 71 72  2  0  0  0
 71 75  1  0  0  0
 71149  1  0  0  0
 72 73  1  0  0  0
 72 83  1  0  0  0
 73 74  2  0  0  0
 73 76  1  0  0  0
 74 77  1  0  0  0
 74 87  1  0  0  0
 75 84  1  0  0  0
 75 87  2  0  0  0
 76 89  1  0  0  0
 76150  1  0  0  0
 76151  1  0  0  0
 77 82  1  0  0  0
 77152  1  0  0  0
 77153  1  0  0  0
 78 80  1  0  0  0
 78 83  1  0  0  0
 78154  1  0  0  0
 78155  1  0  0  0
 79 81  1  0  0  0
 79 83  1  0  0  0
 79156  1  0  0  0
 79157  1  0  0  0
 80 88  1  0  0  0
 80158  1  0  0  0
 80159  1  0  0  0
 81 88  1  0  0  0
 81160  1  0  0  0
 81161  1  0  0  0
 82 89  1  0  0  0
 82162  1  0  0  0
 82163  1  0  0  0
 83164  1  0  0  0
 84165  1  0  0  0
 84166  1  0  0  0
 84167  1  0  0  0
 85 86  1  0  0  0
 85168  1  0  0  0
 85169  1  0  0  0
 85 89  1  0  0  0
 86170  1  0  0  0
 86171  1  0  0  0
 89172  1  0  0  0
M  CHG  1  89   1
M  ISO  4   1 100  68 101  86 101  88 100
M  END
> <chiral flag>
0

> <version>
0

> <s_m_source_file>
/data/baiqing/PycharmProjects/Reinvent-master-3.2/result/LINK_invent/BTK/process_docking_weight1_custom_sum_contain_oxygen_bond_distance_aromatic_linkinvent_7_9_3/rearranged_h_0171.sdf

> <i_m_source_file_index>
66

> <r_mmod_Potential_Energy-OPLS-2005>
-25.4515991210938

> <r_mmod_Stretch_Energy-OPLS-2005>
60.2016143798828

> <r_mmod_Bend_Energy-OPLS-2005>
152.66960144043

> <r_mmod_Torsional_Energy-OPLS-2005>
347.095611572266

> <r_mmod_Improper_Torsional_Energy-OPLS-2005>
10.9655923843384

> <r_mmod_Van_der_Waal_Energy-OPLS-2005>
157.967208862305

> <r_mmod_Electrostatic_Energy-OPLS-2005>
-362.359466552734

> <r_mmod_Solvation_Energy-OPLS-2005>
-418.498840332031

> <b_mmod_Minimization_Converged-OPLS-2005>
0

> <r_mmod_RMS_Derivative-OPLS-2005>
0.225085899233818

$$$$
66
                    3D
 Structure written by MMmdl.
164173  0  0  1  0            999 V2000
  -30.6275  -14.8871   20.4344 C   0  0  0  0  0  0
  -30.4188  -12.5583   19.4826 C   0  0  0  0  0  0
  -29.5038  -12.5164   18.2413 C   0  0  0  0  0  0
  -28.0378  -12.3205   18.6665 C   0  0  0  0  0  0
  -27.6254  -13.2533   19.8371 C   0  0  2  0  0  0
  -28.6748  -13.2780   20.9681 C   0  0  0  0  0  0
  -25.2449  -13.8241   20.5733 C   0  0  0  0  0  0
  -24.1766  -13.0457   20.9228 C   0  0  0  0  0  0
  -24.6393  -11.6945   20.8765 C   0  0  0  0  0  0
  -23.9081  -10.4304   21.0413 C   0  0  0  0  0  0
  -24.3629   -9.4217   21.9189 C   0  0  0  0  0  0
  -23.6303   -8.2250   22.0757 C   0  0  0  0  0  0
  -22.4284   -8.0286   21.3545 C   0  0  0  0  0  0
  -21.9928   -9.0261   20.4643 C   0  0  0  0  0  0
  -22.7259  -10.2139   20.3057 C   0  0  0  0  0  0
  -21.6857   -6.0742   22.5281 C   0  0  0  0  0  0
  -21.4017   -6.5643   23.8216 C   0  0  0  0  0  0
  -21.3657   -5.6793   24.9173 C   0  0  0  0  0  0
  -21.6036   -4.3054   24.7223 C   0  0  0  0  0  0
  -21.8825   -3.8150   23.4346 C   0  0  0  0  0  0
  -21.9199   -4.6969   22.3401 C   0  0  0  0  0  0
  -22.7787  -13.5218   21.1880 C   0  0  0  0  0  0
  -22.1666   -4.2155   21.0980 F   0  0  0  0  0  0
  -21.5627   -3.4538   25.7735 F   0  0  0  0  0  0
  -29.9449  -13.6762   20.3503 N   0  0  0  0  0  0
  -26.2872  -12.9485   20.3283 N   0  0  0  0  0  0
  -25.9328  -11.6606   20.5774 N   0  0  0  0  0  0
  -22.0436  -12.8192   22.0426 N   0  0  0  0  0  0
  -25.4134  -15.1968   20.4158 N   0  0  0  0  0  0
  -31.8376  -14.8338   20.1837 O   0  0  0  0  0  0
  -21.6646   -6.8886   21.4243 O   0  0  0  0  0  0
  -22.3468  -14.5521   20.6728 O   0  0  0  0  0  0
  -24.6407  -31.8484   23.1915 C   0  0  0  0  0  0
  -25.9194  -32.4727   23.8290 C   0  0  1  0  0  0
  -27.2032  -27.1543   20.1395 C   0  0  0  0  0  0
  -25.5950  -33.8532   24.2208 N   0  0  0  0  0  0
  -23.4418  -30.4713   21.5389 C   0  0  2  0  0  0
  -24.8884  -28.9105   20.1048 C   0  0  0  0  0  0
  -22.7551  -29.4567   22.4886 C   0  0  0  0  0  0
  -18.0293  -28.1393   22.8488 C   0  0  0  0  0  0
  -24.1479  -36.7258   23.2645 C   0  0  0  0  0  0
  -25.9986  -30.7246   21.3916 C   0  0  0  0  0  0
  -26.0654  -29.3399   20.7304 C   0  0  0  0  0  0
  -27.2206  -28.4746   20.7414 C   0  0  0  0  0  0
  -26.0112  -26.8454   19.4427 C   0  0  0  0  0  0
  -24.8734  -27.6749   19.4466 C   0  0  0  0  0  0
  -23.6652  -29.8094   20.1544 C   0  0  0  0  0  0
  -25.4118  -36.3062   24.0325 C   0  0  1  0  0  0
  -20.5911  -28.3704   23.1253 C   0  0  2  0  0  0
  -20.6785  -26.9422   22.5401 C   0  0  0  0  0  0
  -19.5752  -26.6378   21.5218 C   0  0  0  0  0  0
  -18.1932  -26.7944   22.1621 C   0  0  0  0  0  0
  -19.1558  -28.8873   23.2863 C   0  0  0  0  0  0
  -18.9484  -30.1479   23.8875 C   0  0  0  0  0  0
  -17.6478  -30.6598   24.0559 C   0  0  0  0  0  0
  -25.9065  -34.9427   23.5074 C   0  0  0  0  0  0
  -16.5367  -29.9081   23.6346 C   0  0  0  0  0  0
  -16.7279  -28.6500   23.0375 C   0  0  0  0  0  0
  -26.4504  -31.6595   25.0727 C   0  0  0  0  0  0
  -25.3673  -31.3777   26.1414 C   0  0  0  0  0  0
  -27.0374  -30.2999   24.6297 C   0  0  0  0  0  0
  -27.6047  -32.4356   25.7510 C   0  0  0  0  0  0
  -27.5568  -37.1793   24.8475 C   0  0  0  0  0  0
  -21.4248  -29.3038   22.3638 N   0  0  0  0  0  0
  -26.4274  -37.3785   23.9418 N   0  0  0  0  0  0
  -24.7140  -31.0357   22.0953 N   0  0  0  0  0  0
  -23.4212  -28.8111   23.3023 O   0  0  0  0  0  0
  -28.2314  -26.1507   20.2581 O   0  0  0  0  0  0
  -26.5667  -34.8919   22.4656 O   0  0  0  0  0  0
  -23.5534  -32.1345   23.7147 O   0  0  0  0  0  0
  -28.8787  -23.0335   21.8330 C   0  0  0  0  0  0
  -28.5870  -23.2928   20.4562 C   0  0  0  0  0  0
  -29.2178  -21.7016   22.0137 C   0  0  0  0  0  0
  -28.7895  -22.0080   19.8716 C   0  0  0  0  0  0
  -30.0988  -18.7563   19.4366 C   0  0  0  0  0  0
  -28.5562  -18.3218   21.2039 C   0  0  0  0  0  0
  -30.7332  -17.2911   19.6395 C   0  0  0  0  0  0
  -29.0986  -16.8049   21.3886 C   0  0  0  0  0  0
  -29.5678  -19.4373   20.7324 C   0  0  0  0  0  0
  -28.7942  -24.0475   22.9487 C   0  0  0  0  0  0
  -29.6010  -21.0333   23.3036 C   0  0  0  0  0  0
  -28.6278  -21.6297   18.4350 C   0  0  0  0  0  0
  -27.9830  -24.6871   19.8155 C   0  0  0  0  0  0
  -29.1834  -20.9818   20.8118 N   0  0  0  0  0  0
  -29.9961  -16.1725   20.3561 N   0  0  0  0  0  0
  -31.4550  -12.6769   19.1637 H   0  0  0  0  0  0
  -30.3871  -11.6098   20.0208 H   0  0  0  0  0  0
  -29.8106  -11.7144   17.5676 H   0  0  0  0  0  0
  -29.6026  -13.4465   17.6800 H   0  0  0  0  0  0
  -27.9235  -11.2790   18.9698 H   0  0  0  0  0  0
  -27.3725  -12.4616   17.8139 H   0  0  0  0  0  0
  -27.5911  -14.2570   19.4123 H   0  0  0  0  0  0
  -28.7586  -12.3018   21.4481 H   0  0  0  0  0  0
  -28.3890  -13.9764   21.7532 H   0  0  0  0  0  0
  -25.2775   -9.5693   22.4766 H   0  0  0  0  0  0
  -24.0013   -7.4644   22.7478 H   0  0  0  0  0  0
  -21.0863   -8.8774   19.8945 H   0  0  0  0  0  0
  -22.3719  -10.9673   19.6158 H   0  0  0  0  0  0
  -21.2006   -7.6153   23.9720 H   0  0  0  0  0  0
  -21.1469   -6.0520   25.9075 H   0  0  0  0  0  0
  -22.0605   -2.7616   23.2842 H   0  0  0  0  0  0
  -22.4070  -11.9856   22.4802 H   0  0  0  0  0  0
  -21.1045  -13.1200   22.2633 H   0  0  0  0  0  0
  -24.6467  -15.8509   20.5281 H   0  0  0  0  0  0
  -26.2667  -15.6363   20.0968 H   0  0  0  0  0  0
  -26.7254  -32.5332   23.1009 H   0  0  0  0  0  0
  -25.0103  -33.9654   25.0367 H   0  0  0  0  0  0
  -22.7439  -31.2985   21.3890 H   0  0  0  0  0  0
  -23.3765  -35.9565   23.3320 H   0  0  0  0  0  0
  -24.3562  -36.8874   22.2055 H   0  0  0  0  0  0
  -23.7193  -37.6438   23.6673 H   0  0  0  0  0  0
  -26.1596  -31.4806   20.6209 H   0  0  0  0  0  0
  -26.8713  -30.7710   22.0329 H   0  0  0  0  0  0
  -28.1092  -28.7906   21.2692 H   0  0  0  0  0  0
  -25.9041  -25.9241   18.8926 H   0  0  0  0  0  0
  -23.9790  -27.3479   18.9323 H   0  0  0  0  0  0
  -23.7946  -30.5878   19.4015 H   0  0  0  0  0  0
  -22.7800  -29.2499   19.8463 H   0  0  0  0  0  0
  -25.1307  -36.1901   25.0821 H   0  0  0  0  0  0
  -21.0006  -28.3292   24.1372 H   0  0  0  0  0  0
  -20.5712  -26.2318   23.3616 H   0  0  0  0  0  0
  -21.6654  -26.7444   22.1187 H   0  0  0  0  0  0
  -19.6910  -25.6286   21.1252 H   0  0  0  0  0  0
  -19.6694  -27.3196   20.6761 H   0  0  0  0  0  0
  -17.4214  -26.6712   21.4012 H   0  0  0  0  0  0
  -18.0298  -26.0090   22.9024 H   0  0  0  0  0  0
  -19.7967  -30.7290   24.2246 H   0  0  0  0  0  0
  -17.5041  -31.6284   24.5147 H   0  0  0  0  0  0
  -15.5378  -30.2980   23.7683 H   0  0  0  0  0  0
  -15.8682  -28.0794   22.7131 H   0  0  0  0  0  0
  -24.5883  -30.7097   25.7724 H   0  0  0  0  0  0
  -24.8823  -32.2954   26.4751 H   0  0  0  0  0  0
  -25.7946  -30.9006   27.0249 H   0  0  0  0  0  0
  -26.2988  -29.6733   24.1279 H   0  0  0  0  0  0
  -27.3992  -29.7281   25.4857 H   0  0  0  0  0  0
  -27.8898  -30.4271   23.9619 H   0  0  0  0  0  0
  -27.2662  -33.3701   26.2001 H   0  0  0  0  0  0
  -28.3898  -32.6844   25.0358 H   0  0  0  0  0  0
  -28.0664  -31.8528   26.5491 H   0  0  0  0  0  0
  -28.2610  -38.0073   24.7551 H   0  0  0  0  0  0
  -28.1045  -36.2610   24.6288 H   0  0  0  0  0  0
  -27.2295  -37.1435   25.8882 H   0  0  0  0  0  0
  -20.9458  -29.8743   21.6807 H   0  0  0  0  0  0
  -26.0148  -38.2860   24.1431 H   0  0  0  0  0  0
  -29.2959  -18.6989   18.7003 H   0  0  0  0  0  0
  -30.8580  -19.3992   18.9899 H   0  0  0  0  0  0
  -28.0906  -18.6265   22.1401 H   0  0  0  0  0  0
  -27.7301  -18.2998   20.4913 H   0  0  0  0  0  0
  -31.6764  -17.4351   20.1703 H   0  0  0  0  0  0
  -31.0192  -16.9165   18.6552 H   0  0  0  0  0  0
  -28.2294  -16.1641   21.5255 H   0  0  0  0  0  0
  -29.6415  -16.7588   22.3340 H   0  0  0  0  0  0
  -30.4149  -19.3556   21.4140 H   0  0  0  0  0  0
  -28.6060  -25.0525   22.5751 H   0  0  0  0  0  0
  -29.7253  -24.0689   23.5165 H   0  0  0  0  0  0
  -27.9866  -23.7835   23.6331 H   0  0  0  0  0  0
  -29.4097  -21.6757   24.1623 H   0  0  0  0  0  0
  -30.6619  -20.7834   23.3155 H   0  0  0  0  0  0
  -29.0383  -20.1175   23.4732 H   0  0  0  0  0  0
  -28.2248  -22.4533   17.8470 H   0  0  0  0  0  0
  -27.9493  -20.7836   18.3248 H   0  0  0  0  0  0
  -29.5879  -21.3573   17.9973 H   0  0  0  0  0  0
  -26.9211  -24.4841   19.9275 H   0  0  0  0  0  0
  -28.1836  -24.6587   18.7448 H   0  0  0  0  0  0
  1 25  1  0  0  0
  1 30  2  0  0  0
  1 85  1  0  0  0
  2  3  1  0  0  0
  2 25  1  0  0  0
  2 86  1  0  0  0
  2 87  1  0  0  0
  3  4  1  0  0  0
  3 88  1  0  0  0
  3 89  1  0  0  0
  4  5  1  0  0  0
  4 90  1  0  0  0
  4 91  1  0  0  0
  5  6  1  0  0  0
  5 26  1  0  0  0
  5 92  1  0  0  0
  6 25  1  0  0  0
  6 93  1  0  0  0
  6 94  1  0  0  0
  7  8  2  0  0  0
  7 26  1  0  0  0
  7 29  1  0  0  0
  8  9  1  0  0  0
  8 22  1  0  0  0
  9 10  1  0  0  0
  9 27  2  0  0  0
 10 11  2  0  0  0
 10 15  1  0  0  0
 11 12  1  0  0  0
 11 95  1  0  0  0
 12 13  2  0  0  0
 12 96  1  0  0  0
 13 14  1  0  0  0
 13 31  1  0  0  0
 14 15  2  0  0  0
 14 97  1  0  0  0
 15 98  1  0  0  0
 16 17  2  0  0  0
 16 21  1  0  0  0
 16 31  1  0  0  0
 17 18  1  0  0  0
 17 99  1  0  0  0
 18 19  2  0  0  0
 18100  1  0  0  0
 19 20  1  0  0  0
 19 24  1  0  0  0
 20 21  2  0  0  0
 20101  1  0  0  0
 21 23  1  0  0  0
 22 28  1  0  0  0
 22 32  2  0  0  0
 26 27  1  0  0  0
 28102  1  0  0  0
 28103  1  0  0  0
 29104  1  0  0  0
 29105  1  0  0  0
 33 34  1  0  0  0
 33 66  1  0  0  0
 33 70  2  0  0  0
 34 36  1  0  0  0
 34 59  1  0  0  0
 34106  1  0  0  0
 35 44  2  0  0  0
 35 45  1  0  0  0
 35 68  1  0  0  0
 36 56  1  0  0  0
 36107  1  0  0  0
 37 39  1  0  0  0
 37 47  1  0  0  0
 37 66  1  0  0  0
 37108  1  0  0  0
 38 43  2  0  0  0
 38 46  1  0  0  0
 38 47  1  0  0  0
 39 64  1  0  0  0
 39 67  2  0  0  0
 40 52  1  0  0  0
 40 53  2  0  0  0
 40 58  1  0  0  0
 41109  1  0  0  0
 41110  1  0  0  0
 41111  1  0  0  0
 41 48  1  0  0  0
 42 43  1  0  0  0
 42 66  1  0  0  0
 42112  1  0  0  0
 42113  1  0  0  0
 43 44  1  0  0  0
 44114  1  0  0  0
 45 46  2  0  0  0
 45115  1  0  0  0
 46116  1  0  0  0
 47117  1  0  0  0
 47118  1  0  0  0
 48 56  1  0  0  0
 48 65  1  0  0  0
 48119  1  0  0  0
 49 50  1  0  0  0
 49 53  1  0  0  0
 49 64  1  0  0  0
 49120  1  0  0  0
 50 51  1  0  0  0
 50121  1  0  0  0
 50122  1  0  0  0
 51 52  1  0  0  0
 51123  1  0  0  0
 51124  1  0  0  0
 52125  1  0  0  0
 52126  1  0  0  0
 53 54  1  0  0  0
 54 55  2  0  0  0
 54127  1  0  0  0
 55 57  1  0  0  0
 55128  1  0  0  0
 56 69  2  0  0  0
 57 58  2  0  0  0
 57129  1  0  0  0
 58130  1  0  0  0
 59 60  1  0  0  0
 59 61  1  0  0  0
 59 62  1  0  0  0
 60131  1  0  0  0
 60132  1  0  0  0
 60133  1  0  0  0
 61134  1  0  0  0
 61135  1  0  0  0
 61136  1  0  0  0
 62137  1  0  0  0
 62138  1  0  0  0
 62139  1  0  0  0
 63 65  1  0  0  0
 63140  1  0  0  0
 63141  1  0  0  0
 63142  1  0  0  0
 64143  1  0  0  0
 65144  1  0  0  0
 68 83  1  0  0  0
 71 72  1  0  0  0
 71 73  2  0  0  0
 71 80  1  0  0  0
 72 74  2  0  0  0
 72 83  1  0  0  0
 73 81  1  0  0  0
 73 84  1  0  0  0
 74 82  1  0  0  0
 74 84  1  0  0  0
 75 77  1  0  0  0
 75 79  1  0  0  0
 75145  1  0  0  0
 75146  1  0  0  0
 76 78  1  0  0  0
 76 79  1  0  0  0
 76147  1  0  0  0
 76148  1  0  0  0
 77 85  1  0  0  0
 77149  1  0  0  0
 77150  1  0  0  0
 78 85  1  0  0  0
 78151  1  0  0  0
 78152  1  0  0  0
 79 84  1  0  0  0
 79153  1  0  0  0
 80154  1  0  0  0
 80155  1  0  0  0
 80156  1  0  0  0
 81157  1  0  0  0
 81158  1  0  0  0
 81159  1  0  0  0
 82160  1  0  0  0
 82161  1  0  0  0
 82162  1  0  0  0
 83163  1  0  0  0
 83164  1  0  0  0
M  ISO  4   1 100  68 101  83 101  85 100
M  END
> <chiral flag>
0

> <version>
0

> <s_m_source_file>
/data/baiqing/PycharmProjects/Reinvent-master-3.2/result/LINK_invent/BTK/process_docking_weight1_custom_sum_contain_oxygen_bond_distance_aromatic_linkinvent_7_9_3/rearranged_h_0171.sdf

> <i_m_source_file_index>
67

> <r_mmod_Potential_Energy-OPLS-2005>
647.111938476562

> <r_mmod_Stretch_Energy-OPLS-2005>
211.496994018555

> <r_mmod_Bend_Energy-OPLS-2005>
285.943939208984

> <r_mmod_Torsional_Energy-OPLS-2005>
340.594024658203

> <r_mmod_Improper_Torsional_Energy-OPLS-2005>
16.4128189086914

> <r_mmod_Van_der_Waal_Energy-OPLS-2005>
122.040428161621

> <r_mmod_Electrostatic_Energy-OPLS-2005>
-292.825622558594

> <r_mmod_Solvation_Energy-OPLS-2005>
-206.168899536133

> <b_mmod_Minimization_Converged-OPLS-2005>
0

> <r_mmod_RMS_Derivative-OPLS-2005>
2.05293893814087

$$$$
67
                    3D
 Structure written by MMmdl.
183193  0  0  1  0            999 V2000
  -30.6835  -14.5505   20.5258 C   0  0  0  0  0  0
  -30.4394  -12.3444   19.4428 C   0  0  0  0  0  0
  -29.5010  -12.4948   18.2256 C   0  0  0  0  0  0
  -28.0286  -12.3333   18.6473 C   0  0  0  0  0  0
  -27.6643  -13.2067   19.8767 C   0  0  2  0  0  0
  -28.7122  -13.0372   21.0033 C   0  0  0  0  0  0
  -25.2621  -13.8161   20.5718 C   0  0  0  0  0  0
  -24.1866  -13.0466   20.9192 C   0  0  0  0  0  0
  -24.6399  -11.6910   20.8763 C   0  0  0  0  0  0
  -23.9053  -10.4303   21.0428 C   0  0  0  0  0  0
  -24.3606   -9.4210   21.9198 C   0  0  0  0  0  0
  -23.6290   -8.2241   22.0756 C   0  0  0  0  0  0
  -22.4272   -8.0277   21.3545 C   0  0  0  0  0  0
  -21.9913   -9.0255   20.4648 C   0  0  0  0  0  0
  -22.7235  -10.2136   20.3067 C   0  0  0  0  0  0
  -21.6843   -6.0733   22.5285 C   0  0  0  0  0  0
  -21.4002   -6.5636   23.8219 C   0  0  0  0  0  0
  -21.3650   -5.6793   24.9187 C   0  0  0  0  0  0
  -21.6054   -4.3060   24.7242 C   0  0  0  0  0  0
  -21.8816   -3.8144   23.4368 C   0  0  0  0  0  0
  -21.9195   -4.6957   22.3416 C   0  0  0  0  0  0
  -22.7882  -13.5255   21.1856 C   0  0  0  0  0  0
  -22.1661   -4.2143   21.0993 F   0  0  0  0  0  0
  -21.5631   -3.4539   25.7758 F   0  0  0  0  0  0
  -30.0399  -13.3497   20.4443 N   0  0  0  0  0  0
  -26.3058  -12.9330   20.3417 N   0  0  0  0  0  0
  -25.9334  -11.6490   20.5840 N   0  0  0  0  0  0
  -22.0502  -12.8254   22.0389 N   0  0  0  0  0  0
  -25.4429  -15.1886   20.4088 N   0  0  0  0  0  0
  -31.8216  -14.7248   20.0816 O   0  0  0  0  0  0
  -21.6633   -6.8881   21.4248 O   0  0  0  0  0  0
  -22.3576  -14.5580   20.6714 O   0  0  0  0  0  0
  -24.6292  -31.8646   23.2065 C   0  0  0  0  0  0
  -25.9139  -32.4810   23.8383 C   0  0  1  0  0  0
  -27.2253  -27.3475   20.1065 C   0  0  0  0  0  0
  -25.5968  -33.8595   24.2328 N   0  0  0  0  0  0
  -23.4199  -30.4884   21.5562 C   0  0  2  0  0  0
  -24.8690  -28.9760   20.1033 C   0  0  0  0  0  0
  -22.7495  -29.4629   22.4991 C   0  0  0  0  0  0
  -18.0298  -28.1354   22.8517 C   0  0  0  0  0  0
  -24.1465  -36.7332   23.2627 C   0  0  0  0  0  0
  -25.9585  -30.8093   21.3707 C   0  0  0  0  0  0
  -26.0364  -29.4378   20.7235 C   0  0  0  0  0  0
  -27.2162  -28.6318   20.7290 C   0  0  0  0  0  0
  -26.0266  -26.9637   19.4394 C   0  0  0  0  0  0
  -24.8678  -27.7473   19.4453 C   0  0  0  0  0  0
  -23.6272  -29.8372   20.1664 C   0  0  0  0  0  0
  -25.4079  -36.3082   24.0306 C   0  0  1  0  0  0
  -20.5909  -28.3679   23.1294 C   0  0  2  0  0  0
  -20.6810  -26.9392   22.5420 C   0  0  0  0  0  0
  -19.5756  -26.6359   21.5251 C   0  0  0  0  0  0
  -18.1929  -26.7921   22.1640 C   0  0  0  0  0  0
  -19.1534  -28.8835   23.2902 C   0  0  0  0  0  0
  -18.9465  -30.1456   23.8877 C   0  0  0  0  0  0
  -17.6449  -30.6570   24.0558 C   0  0  0  0  0  0
  -25.9009  -34.9449   23.5092 C   0  0  0  0  0  0
  -16.5350  -29.9053   23.6324 C   0  0  0  0  0  0
  -16.7284  -28.6470   23.0368 C   0  0  0  0  0  0
  -26.4448  -31.6586   25.0736 C   0  0  0  0  0  0
  -25.3621  -31.3773   26.1432 C   0  0  0  0  0  0
  -27.0288  -30.3024   24.6105 C   0  0  0  0  0  0
  -27.5974  -32.4328   25.7523 C   0  0  0  0  0  0
  -27.5530  -37.1800   24.8435 C   0  0  0  0  0  0
  -21.4200  -29.3047   22.3728 N   0  0  0  0  0  0
  -26.4254  -37.3769   23.9377 N   0  0  0  0  0  0
  -24.6890  -31.0682   22.1030 N   0  0  0  0  0  0
  -23.4230  -28.8140   23.3036 O   0  0  0  0  0  0
  -28.3329  -26.4713   20.1718 O   0  0  0  0  0  0
  -26.5499  -34.8891   22.4609 O   0  0  0  0  0  0
  -23.5459  -32.1451   23.7395 O   0  0  0  0  0  0
  -29.8388  -20.4748   21.3172 C   0  0  0  0  0  0
  -29.8436  -21.8080   20.8332 C   0  0  0  0  0  0
  -30.7832  -22.2453   19.8886 C   0  0  0  0  0  0
  -31.8220  -21.3536   19.4687 C   0  0  0  0  0  0
  -30.7884  -19.5301   20.8483 C   0  0  0  0  0  0
  -31.7984  -19.9953   19.9485 C   0  0  0  0  0  0
  -34.3668  -21.5876   18.6057 C   0  0  0  0  0  0
  -33.7922  -22.9568   18.8076 C   0  0  0  0  0  0
  -32.8666  -21.8094   18.4695 C   0  0  0  0  0  0
  -30.3703  -23.6511   19.3441 C   0  0  0  0  0  0
  -28.7485  -22.8493   21.0580 C   0  0  2  0  0  0
  -28.8233  -23.7045   19.7198 C   0  0  2  0  0  0
  -32.8554  -18.9982   19.4854 C   0  0  0  0  0  0
  -30.6117  -23.8928   17.8288 C   0  0  0  0  0  0
  -31.1772  -24.7711   20.0539 C   0  0  0  0  0  0
  -28.9496  -23.6087   22.3843 C   0  0  0  0  0  0
  -28.2385  -21.4405   18.2331 C   0  0  0  0  0  0
  -30.7228  -18.0501   21.3511 C   0  0  0  0  0  0
  -27.9653  -22.9197   18.6079 C   0  0  0  0  0  0
  -28.0494  -25.1103   19.6931 C   0  0  0  0  0  0
  -30.0248  -17.0067   20.4079 C   0  0  0  0  0  0
  -29.9197  -15.6030   20.9025 N   0  0  0  0  0  0
  -27.4739  -22.2699   21.2479 O   0  0  0  0  0  0
  -31.4787  -12.4599   19.1291 H   0  0  0  0  0  0
  -30.3682  -11.3429   19.8702 H   0  0  0  0  0  0
  -29.7545  -11.7548   17.4660 H   0  0  0  0  0  0
  -29.6451  -13.4721   17.7633 H   0  0  0  0  0  0
  -27.8706  -11.2809   18.8862 H   0  0  0  0  0  0
  -27.3659  -12.5567   17.8105 H   0  0  0  0  0  0
  -27.6974  -14.2447   19.5437 H   0  0  0  0  0  0
  -28.7035  -12.0114   21.3751 H   0  0  0  0  0  0
  -28.4723  -13.6668   21.8622 H   0  0  0  0  0  0
  -25.2736   -9.5689   22.4797 H   0  0  0  0  0  0
  -24.0002   -7.4623   22.7462 H   0  0  0  0  0  0
  -21.0851   -8.8768   19.8943 H   0  0  0  0  0  0
  -22.3689  -10.9686   19.6183 H   0  0  0  0  0  0
  -21.1968   -7.6136   23.9729 H   0  0  0  0  0  0
  -21.1482   -6.0518   25.9095 H   0  0  0  0  0  0
  -22.0606   -2.7608   23.2875 H   0  0  0  0  0  0
  -22.4084  -11.9873   22.4735 H   0  0  0  0  0  0
  -21.1149  -13.1325   22.2650 H   0  0  0  0  0  0
  -24.6875  -15.8600   20.4971 H   0  0  0  0  0  0
  -26.3092  -15.6092   20.0978 H   0  0  0  0  0  0
  -26.7265  -32.5510   23.1191 H   0  0  0  0  0  0
  -25.0289  -33.9756   25.0597 H   0  0  0  0  0  0
  -22.7117  -31.3079   21.4221 H   0  0  0  0  0  0
  -23.3680  -35.9710   23.3314 H   0  0  0  0  0  0
  -24.3578  -36.8957   22.2038 H   0  0  0  0  0  0
  -23.7281  -37.6559   23.6654 H   0  0  0  0  0  0
  -26.0592  -31.5635   20.5898 H   0  0  0  0  0  0
  -26.8532  -30.8867   21.9765 H   0  0  0  0  0  0
  -28.1056  -28.9713   21.2432 H   0  0  0  0  0  0
  -25.9161  -26.0384   18.8968 H   0  0  0  0  0  0
  -23.9830  -27.4062   18.9259 H   0  0  0  0  0  0
  -23.7118  -30.6148   19.4056 H   0  0  0  0  0  0
  -22.7563  -29.2429   19.8854 H   0  0  0  0  0  0
  -25.1271  -36.1918   25.0796 H   0  0  0  0  0  0
  -20.9993  -28.3251   24.1422 H   0  0  0  0  0  0
  -20.5789  -26.2254   23.3618 H   0  0  0  0  0  0
  -21.6656  -26.7478   22.1134 H   0  0  0  0  0  0
  -19.6898  -25.6275   21.1256 H   0  0  0  0  0  0
  -19.6689  -27.3189   20.6796 H   0  0  0  0  0  0
  -17.4229  -26.6741   21.4002 H   0  0  0  0  0  0
  -18.0251  -26.0035   22.8977 H   0  0  0  0  0  0
  -19.7938  -30.7287   24.2215 H   0  0  0  0  0  0
  -17.5005  -31.6243   24.5169 H   0  0  0  0  0  0
  -15.5353  -30.2931   23.7650 H   0  0  0  0  0  0
  -15.8705  -28.0775   22.7084 H   0  0  0  0  0  0
  -24.5781  -30.7128   25.7784 H   0  0  0  0  0  0
  -24.8790  -32.2980   26.4711 H   0  0  0  0  0  0
  -25.7861  -30.9047   27.0299 H   0  0  0  0  0  0
  -26.2868  -29.6816   24.1071 H   0  0  0  0  0  0
  -27.4018  -29.7197   25.4538 H   0  0  0  0  0  0
  -27.8689  -30.4390   23.9297 H   0  0  0  0  0  0
  -27.2546  -33.3651   26.2011 H   0  0  0  0  0  0
  -28.3799  -32.6867   25.0368 H   0  0  0  0  0  0
  -28.0582  -31.8520   26.5519 H   0  0  0  0  0  0
  -28.2526  -38.0113   24.7502 H   0  0  0  0  0  0
  -28.1048  -36.2636   24.6262 H   0  0  0  0  0  0
  -27.2244  -37.1472   25.8837 H   0  0  0  0  0  0
  -20.9361  -29.8853   21.7025 H   0  0  0  0  0  0
  -26.0125  -38.2823   24.1420 H   0  0  0  0  0  0
  -29.0620  -20.1652   22.0000 H   0  0  0  0  0  0
  -34.7548  -21.0900   19.4923 H   0  0  0  0  0  0
  -34.9473  -21.4464   17.6945 H   0  0  0  0  0  0
  -33.9671  -23.7027   18.0346 H   0  0  0  0  0  0
  -33.7956  -23.3191   19.8314 H   0  0  0  0  0  0
  -32.4775  -21.7421   17.4568 H   0  0  0  0  0  0
  -33.2806  -19.2542   18.5184 H   0  0  0  0  0  0
  -32.4439  -18.0001   19.3613 H   0  0  0  0  0  0
  -33.6593  -18.9345   20.2206 H   0  0  0  0  0  0
  -30.2276  -23.1071   17.1823 H   0  0  0  0  0  0
  -31.6664  -24.0016   17.5907 H   0  0  0  0  0  0
  -30.1544  -24.8298   17.5095 H   0  0  0  0  0  0
  -31.2969  -24.6290   21.1193 H   0  0  0  0  0  0
  -30.7326  -25.7521   19.8963 H   0  0  0  0  0  0
  -32.1878  -24.8539   19.6676 H   0  0  0  0  0  0
  -29.9237  -24.0672   22.4814 H   0  0  0  0  0  0
  -28.8584  -22.9352   23.2404 H   0  0  0  0  0  0
  -28.2094  -24.3993   22.5096 H   0  0  0  0  0  0
  -28.0910  -20.7564   19.0679 H   0  0  0  0  0  0
  -29.2413  -21.2721   17.8478 H   0  0  0  0  0  0
  -27.5545  -21.1207   17.4459 H   0  0  0  0  0  0
  -30.2098  -18.0428   22.3144 H   0  0  0  0  0  0
  -31.7336  -17.7035   21.5695 H   0  0  0  0  0  0
  -27.9825  -23.4593   17.6596 H   0  0  0  0  0  0
  -26.9097  -22.9566   18.8821 H   0  0  0  0  0  0
  -27.1032  -24.8360   20.1631 H   0  0  0  0  0  0
  -27.8750  -25.3090   18.6361 H   0  0  0  0  0  0
  -30.5025  -16.9924   19.4287 H   0  0  0  0  0  0
  -29.0045  -17.3472   20.2175 H   0  0  0  0  0  0
  -29.0283  -15.3435   21.2998 H   0  0  0  0  0  0
  -27.2208  -21.9348   20.3999 H   0  0  0  0  0  0
  1 25  1  0  0  0
  1 30  2  0  0  0
  1 92  1  0  0  0
  2  3  1  0  0  0
  2 25  1  0  0  0
  2 94  1  0  0  0
  2 95  1  0  0  0
  3  4  1  0  0  0
  3 96  1  0  0  0
  3 97  1  0  0  0
  4  5  1  0  0  0
  4 98  1  0  0  0
  4 99  1  0  0  0
  5  6  1  0  0  0
  5 26  1  0  0  0
  5100  1  0  0  0
  6 25  1  0  0  0
  6101  1  0  0  0
  6102  1  0  0  0
  7  8  2  0  0  0
  7 26  1  0  0  0
  7 29  1  0  0  0
  8  9  1  0  0  0
  8 22  1  0  0  0
  9 10  1  0  0  0
  9 27  2  0  0  0
 10 11  2  0  0  0
 10 15  1  0  0  0
 11 12  1  0  0  0
 11103  1  0  0  0
 12 13  2  0  0  0
 12104  1  0  0  0
 13 14  1  0  0  0
 13 31  1  0  0  0
 14 15  2  0  0  0
 14105  1  0  0  0
 15106  1  0  0  0
 16 17  2  0  0  0
 16 21  1  0  0  0
 16 31  1  0  0  0
 17 18  1  0  0  0
 17107  1  0  0  0
 18 19  2  0  0  0
 18108  1  0  0  0
 19 20  1  0  0  0
 19 24  1  0  0  0
 20 21  2  0  0  0
 20109  1  0  0  0
 21 23  1  0  0  0
 22 28  1  0  0  0
 22 32  2  0  0  0
 26 27  1  0  0  0
 28110  1  0  0  0
 28111  1  0  0  0
 29112  1  0  0  0
 29113  1  0  0  0
 33 34  1  0  0  0
 33 66  1  0  0  0
 33 70  2  0  0  0
 34 36  1  0  0  0
 34 59  1  0  0  0
 34114  1  0  0  0
 35 44  2  0  0  0
 35 45  1  0  0  0
 35 68  1  0  0  0
 36 56  1  0  0  0
 36115  1  0  0  0
 37 39  1  0  0  0
 37 47  1  0  0  0
 37 66  1  0  0  0
 37116  1  0  0  0
 38 43  2  0  0  0
 38 46  1  0  0  0
 38 47  1  0  0  0
 39 64  1  0  0  0
 39 67  2  0  0  0
 40 52  1  0  0  0
 40 53  2  0  0  0
 40 58  1  0  0  0
 41117  1  0  0  0
 41118  1  0  0  0
 41119  1  0  0  0
 41 48  1  0  0  0
 42 43  1  0  0  0
 42 66  1  0  0  0
 42120  1  0  0  0
 42121  1  0  0  0
 43 44  1  0  0  0
 44122  1  0  0  0
 45 46  2  0  0  0
 45123  1  0  0  0
 46124  1  0  0  0
 47125  1  0  0  0
 47126  1  0  0  0
 48 56  1  0  0  0
 48 65  1  0  0  0
 48127  1  0  0  0
 49 50  1  0  0  0
 49 53  1  0  0  0
 49 64  1  0  0  0
 49128  1  0  0  0
 50 51  1  0  0  0
 50129  1  0  0  0
 50130  1  0  0  0
 51 52  1  0  0  0
 51131  1  0  0  0
 51132  1  0  0  0
 52133  1  0  0  0
 52134  1  0  0  0
 53 54  1  0  0  0
 54 55  2  0  0  0
 54135  1  0  0  0
 55 57  1  0  0  0
 55136  1  0  0  0
 56 69  2  0  0  0
 57 58  2  0  0  0
 57137  1  0  0  0
 58138  1  0  0  0
 59 60  1  0  0  0
 59 61  1  0  0  0
 59 62  1  0  0  0
 60139  1  0  0  0
 60140  1  0  0  0
 60141  1  0  0  0
 61142  1  0  0  0
 61143  1  0  0  0
 61144  1  0  0  0
 62145  1  0  0  0
 62146  1  0  0  0
 62147  1  0  0  0
 63 65  1  0  0  0
 63148  1  0  0  0
 63149  1  0  0  0
 63150  1  0  0  0
 64151  1  0  0  0
 65152  1  0  0  0
 68 90  1  0  0  0
 71 72  2  0  0  0
 71 75  1  0  0  0
 71153  1  0  0  0
 72 73  1  0  0  0
 72 81  1  0  0  0
 73 74  2  0  0  0
 73 80  1  0  0  0
 74 76  1  0  0  0
 74 79  1  0  0  0
 75 76  2  0  0  0
 75 88  1  0  0  0
 76 83  1  0  0  0
 77 78  1  0  0  0
 77 79  1  0  0  0
 77154  1  0  0  0
 77155  1  0  0  0
 78 79  1  0  0  0
 78156  1  0  0  0
 78157  1  0  0  0
 79158  1  0  0  0
 80 82  1  0  0  0
 80 84  1  0  0  0
 80 85  1  0  0  0
 81 82  1  0  0  0
 81 86  1  0  0  0
 81 93  1  0  0  0
 82 89  1  0  0  0
 82 90  1  0  0  0
 83159  1  0  0  0
 83160  1  0  0  0
 83161  1  0  0  0
 84162  1  0  0  0
 84163  1  0  0  0
 84164  1  0  0  0
 85165  1  0  0  0
 85166  1  0  0  0
 85167  1  0  0  0
 86168  1  0  0  0
 86169  1  0  0  0
 86170  1  0  0  0
 87 89  1  0  0  0
 87171  1  0  0  0
 87172  1  0  0  0
 87173  1  0  0  0
 88 91  1  0  0  0
 88174  1  0  0  0
 88175  1  0  0  0
 89176  1  0  0  0
 89177  1  0  0  0
 90178  1  0  0  0
 90179  1  0  0  0
 91 92  1  0  0  0
 91180  1  0  0  0
 91181  1  0  0  0
 92182  1  0  0  0
 93183  1  0  0  0
M  ISO  4   1 100  68 101  90 101  92 100
M  END
> <chiral flag>
0

> <version>
0

> <s_m_source_file>
/data/baiqing/PycharmProjects/Reinvent-master-3.2/result/LINK_invent/BTK/process_docking_weight1_custom_sum_contain_oxygen_bond_distance_aromatic_linkinvent_7_9_3/rearranged_h_0171.sdf

> <i_m_source_file_index>
68

> <r_mmod_Potential_Energy-OPLS-2005>
265.247039794922

> <r_mmod_Stretch_Energy-OPLS-2005>
90.5913009643555

> <r_mmod_Bend_Energy-OPLS-2005>
259.343627929688

> <r_mmod_Torsional_Energy-OPLS-2005>
288.800689697266

> <r_mmod_Improper_Torsional_Energy-OPLS-2005>
8.38370227813721

> <r_mmod_Van_der_Waal_Energy-OPLS-2005>
192.305755615234

> <r_mmod_Electrostatic_Energy-OPLS-2005>
-404.781066894531

> <r_mmod_Solvation_Energy-OPLS-2005>
-204.959716796875

> <b_mmod_Minimization_Converged-OPLS-2005>
0

> <r_mmod_RMS_Derivative-OPLS-2005>
4.87162256240845

$$$$
68
                    3D
 Structure written by MMmdl.
155163  0  0  1  0            999 V2000
  -30.5763  -14.8503   20.4333 C   0  0  0  0  0  0
  -30.4392  -12.5242   19.4856 C   0  0  0  0  0  0
  -29.5146  -12.5066   18.2489 C   0  0  0  0  0  0
  -28.0469  -12.3053   18.6699 C   0  0  0  0  0  0
  -27.6347  -13.2364   19.8400 C   0  0  2  0  0  0
  -28.6777  -13.2308   20.9771 C   0  0  0  0  0  0
  -25.2491  -13.8191   20.5690 C   0  0  0  0  0  0
  -24.1790  -13.0429   20.9209 C   0  0  0  0  0  0
  -24.6400  -11.6912   20.8764 C   0  0  0  0  0  0
  -23.9079  -10.4285   21.0419 C   0  0  0  0  0  0
  -24.3628   -9.4198   21.9194 C   0  0  0  0  0  0
  -23.6295   -8.2237   22.0763 C   0  0  0  0  0  0
  -22.4278   -8.0281   21.3550 C   0  0  0  0  0  0
  -21.9916   -9.0255   20.4652 C   0  0  0  0  0  0
  -22.7254  -10.2130   20.3063 C   0  0  0  0  0  0
  -21.6852   -6.0739   22.5288 C   0  0  0  0  0  0
  -21.4016   -6.5650   23.8223 C   0  0  0  0  0  0
  -21.3652   -5.6796   24.9181 C   0  0  0  0  0  0
  -21.6030   -4.3058   24.7229 C   0  0  0  0  0  0
  -21.8812   -3.8160   23.4348 C   0  0  0  0  0  0
  -21.9189   -4.6970   22.3405 C   0  0  0  0  0  0
  -22.7812  -13.5214   21.1861 C   0  0  0  0  0  0
  -22.1652   -4.2157   21.0982 F   0  0  0  0  0  0
  -21.5627   -3.4540   25.7739 F   0  0  0  0  0  0
  -29.9679  -13.6068   20.3861 N   0  0  0  0  0  0
  -26.2907  -12.9406   20.3247 N   0  0  0  0  0  0
  -25.9328  -11.6548   20.5765 N   0  0  0  0  0  0
  -22.0463  -12.8221   22.0430 N   0  0  0  0  0  0
  -25.4173  -15.1911   20.4111 N   0  0  0  0  0  0
  -31.7725  -14.9363   20.1445 O   0  0  0  0  0  0
  -21.6633   -6.8884   21.4250 O   0  0  0  0  0  0
  -22.3494  -14.5507   20.6691 O   0  0  0  0  0  0
  -24.6398  -31.8506   23.1977 C   0  0  0  0  0  0
  -25.9196  -32.4722   23.8331 C   0  0  1  0  0  0
  -27.1888  -27.1652   20.1372 C   0  0  0  0  0  0
  -25.5975  -33.8536   24.2245 N   0  0  0  0  0  0
  -23.4382  -30.4793   21.5436 C   0  0  2  0  0  0
  -24.8810  -28.9249   20.1093 C   0  0  0  0  0  0
  -22.7529  -29.4612   22.4867 C   0  0  0  0  0  0
  -18.0303  -28.1395   22.8472 C   0  0  0  0  0  0
  -24.1495  -36.7269   23.2639 C   0  0  0  0  0  0
  -25.9961  -30.7313   21.3971 C   0  0  0  0  0  0
  -26.0615  -29.3501   20.7323 C   0  0  0  0  0  0
  -27.2168  -28.4840   20.7395 C   0  0  0  0  0  0
  -25.9829  -26.8574   19.4565 C   0  0  0  0  0  0
  -24.8520  -27.6885   19.4609 C   0  0  0  0  0  0
  -23.6608  -29.8256   20.1580 C   0  0  0  0  0  0
  -25.4124  -36.3049   24.0321 C   0  0  1  0  0  0
  -20.5906  -28.3738   23.1224 C   0  0  2  0  0  0
  -20.6791  -26.9444   22.5389 C   0  0  0  0  0  0
  -19.5769  -26.6387   21.5199 C   0  0  0  0  0  0
  -18.1949  -26.7930   22.1619 C   0  0  0  0  0  0
  -19.1551  -28.8880   23.2841 C   0  0  0  0  0  0
  -18.9479  -30.1472   23.8875 C   0  0  0  0  0  0
  -17.6480  -30.6591   24.0562 C   0  0  0  0  0  0
  -25.9071  -34.9420   23.5093 C   0  0  0  0  0  0
  -16.5371  -29.9088   23.6337 C   0  0  0  0  0  0
  -16.7288  -28.6503   23.0356 C   0  0  0  0  0  0
  -26.4528  -31.6562   25.0749 C   0  0  0  0  0  0
  -25.3728  -31.3746   26.1457 C   0  0  0  0  0  0
  -27.0392  -30.2958   24.6313 C   0  0  0  0  0  0
  -27.6062  -32.4320   25.7529 C   0  0  0  0  0  0
  -27.5575  -37.1797   24.8468 C   0  0  0  0  0  0
  -21.4229  -29.3085   22.3609 N   0  0  0  0  0  0
  -26.4295  -37.3751   23.9401 N   0  0  0  0  0  0
  -24.7111  -31.0388   22.1011 N   0  0  0  0  0  0
  -23.4205  -28.8146   23.2984 O   0  0  0  0  0  0
  -28.2059  -26.1480   20.2255 O   0  0  0  0  0  0
  -26.5638  -34.8900   22.4651 O   0  0  0  0  0  0
  -23.5524  -32.1396   23.7203 O   0  0  0  0  0  0
  -29.2220  -21.0677   19.1555 C   0  0  0  0  0  0
  -28.9604  -22.4871   19.0803 C   0  0  0  0  0  0
  -28.5142  -23.2526   20.2127 C   0  0  0  0  0  0
  -29.0745  -20.3086   20.3525 C   0  0  0  0  0  0
  -28.4607  -22.4264   21.3926 C   0  0  0  0  0  0
  -29.0575  -23.1505   17.7174 C   0  0  0  0  0  0
  -27.9725  -22.9839   22.7183 C   0  0  0  0  0  0
  -27.7405  -24.6915   20.0401 C   0  0  0  0  0  0
  -30.1416  -17.5307   20.5041 C   0  0  0  0  0  0
  -28.9485  -18.6702   20.3942 C   0  0  1  0  0  0
  -28.7402  -21.0642   21.4517 N   0  0  0  0  0  0
  -29.7946  -16.0063   20.5931 N   0  0  0  0  0  0
  -28.0853  -18.3586   21.3657 F   0  0  0  0  0  0
  -31.4740  -12.6729   19.1748 H   0  0  0  0  0  0
  -30.4163  -11.5652   20.0043 H   0  0  0  0  0  0
  -29.8201  -11.7188   17.5590 H   0  0  0  0  0  0
  -29.6109  -13.4475   17.7068 H   0  0  0  0  0  0
  -27.9344  -11.2644   18.9745 H   0  0  0  0  0  0
  -27.3802  -12.4402   17.8170 H   0  0  0  0  0  0
  -27.6120  -14.2440   19.4241 H   0  0  0  0  0  0
  -28.7387  -12.2513   21.4507 H   0  0  0  0  0  0
  -28.3966  -13.9336   21.7629 H   0  0  0  0  0  0
  -25.2777   -9.5661   22.4760 H   0  0  0  0  0  0
  -23.9993   -7.4626   22.7481 H   0  0  0  0  0  0
  -21.0845   -8.8785   19.8965 H   0  0  0  0  0  0
  -22.3723  -10.9669   19.6170 H   0  0  0  0  0  0
  -21.2023   -7.6159   23.9729 H   0  0  0  0  0  0
  -21.1475   -6.0532   25.9084 H   0  0  0  0  0  0
  -22.0597   -2.7620   23.2853 H   0  0  0  0  0  0
  -22.4093  -11.9890   22.4826 H   0  0  0  0  0  0
  -21.1083  -13.1247   22.2632 H   0  0  0  0  0  0
  -24.6506  -15.8438   20.5330 H   0  0  0  0  0  0
  -26.2601  -15.6353   20.0723 H   0  0  0  0  0  0
  -26.7254  -32.5320   23.1047 H   0  0  0  0  0  0
  -25.0115  -33.9673   25.0390 H   0  0  0  0  0  0
  -22.7397  -31.3064   21.4008 H   0  0  0  0  0  0
  -23.3756  -35.9601   23.3290 H   0  0  0  0  0  0
  -24.3588  -36.8908   22.2056 H   0  0  0  0  0  0
  -23.7254  -37.6469   23.6673 H   0  0  0  0  0  0
  -26.1516  -31.4894   20.6279 H   0  0  0  0  0  0
  -26.8672  -30.7730   22.0401 H   0  0  0  0  0  0
  -28.1068  -28.7951   21.2683 H   0  0  0  0  0  0
  -25.8381  -25.9326   18.9227 H   0  0  0  0  0  0
  -23.9505  -27.3573   18.9636 H   0  0  0  0  0  0
  -23.8031  -30.6103   19.4138 H   0  0  0  0  0  0
  -22.7713  -29.2777   19.8385 H   0  0  0  0  0  0
  -25.1303  -36.1888   25.0813 H   0  0  0  0  0  0
  -21.0000  -28.3321   24.1344 H   0  0  0  0  0  0
  -20.5685  -26.2355   23.3607 H   0  0  0  0  0  0
  -21.6658  -26.7458   22.1191 H   0  0  0  0  0  0
  -19.6939  -25.6289   21.1246 H   0  0  0  0  0  0
  -19.6688  -27.3173   20.6705 H   0  0  0  0  0  0
  -17.4209  -26.6651   21.4032 H   0  0  0  0  0  0
  -18.0378  -26.0077   22.9027 H   0  0  0  0  0  0
  -19.7960  -30.7281   24.2232 H   0  0  0  0  0  0
  -17.5044  -31.6269   24.5172 H   0  0  0  0  0  0
  -15.5372  -30.2995   23.7668 H   0  0  0  0  0  0
  -15.8685  -28.0818   22.7091 H   0  0  0  0  0  0
  -24.5904  -30.7092   25.7781 H   0  0  0  0  0  0
  -24.8931  -32.2936   26.4835 H   0  0  0  0  0  0
  -25.8034  -30.8950   27.0260 H   0  0  0  0  0  0
  -26.3017  -29.6682   24.1299 H   0  0  0  0  0  0
  -27.3985  -29.7238   25.4875 H   0  0  0  0  0  0
  -27.8925  -30.4186   23.9642 H   0  0  0  0  0  0
  -27.2651  -33.3625   26.2073 H   0  0  0  0  0  0
  -28.3891  -32.6876   25.0377 H   0  0  0  0  0  0
  -28.0711  -31.8476   26.5479 H   0  0  0  0  0  0
  -28.2592  -38.0092   24.7493 H   0  0  0  0  0  0
  -28.1072  -36.2620   24.6316 H   0  0  0  0  0  0
  -27.2292  -37.1468   25.8874 H   0  0  0  0  0  0
  -20.9413  -29.8828   21.6824 H   0  0  0  0  0  0
  -26.0161  -38.2821   24.1392 H   0  0  0  0  0  0
  -29.4473  -20.5319   18.2437 H   0  0  0  0  0  0
  -28.0720  -23.1935   17.2490 H   0  0  0  0  0  0
  -29.7274  -22.6038   17.0523 H   0  0  0  0  0  0
  -29.4446  -24.1666   17.8103 H   0  0  0  0  0  0
  -27.5464  -23.9807   22.6325 H   0  0  0  0  0  0
  -28.8020  -23.0418   23.4214 H   0  0  0  0  0  0
  -27.2108  -22.3304   23.1479 H   0  0  0  0  0  0
  -26.8239  -24.5867   20.6232 H   0  0  0  0  0  0
  -27.4071  -24.6428   19.0087 H   0  0  0  0  0  0
  -30.7498  -17.7697   21.3770 H   0  0  0  0  0  0
  -30.8068  -17.6615   19.6493 H   0  0  0  0  0  0
  -28.4004  -18.4331   19.4831 H   0  0  0  0  0  0
  -28.8219  -15.8161   20.7882 H   0  0  0  0  0  0
  1 25  1  0  0  0
  1 30  2  0  0  0
  1 82  1  0  0  0
  2  3  1  0  0  0
  2 25  1  0  0  0
  2 84  1  0  0  0
  2 85  1  0  0  0
  3  4  1  0  0  0
  3 86  1  0  0  0
  3 87  1  0  0  0
  4  5  1  0  0  0
  4 88  1  0  0  0
  4 89  1  0  0  0
  5  6  1  0  0  0
  5 26  1  0  0  0
  5 90  1  0  0  0
  6 25  1  0  0  0
  6 91  1  0  0  0
  6 92  1  0  0  0
  7  8  2  0  0  0
  7 26  1  0  0  0
  7 29  1  0  0  0
  8  9  1  0  0  0
  8 22  1  0  0  0
  9 10  1  0  0  0
  9 27  2  0  0  0
 10 11  2  0  0  0
 10 15  1  0  0  0
 11 12  1  0  0  0
 11 93  1  0  0  0
 12 13  2  0  0  0
 12 94  1  0  0  0
 13 14  1  0  0  0
 13 31  1  0  0  0
 14 15  2  0  0  0
 14 95  1  0  0  0
 15 96  1  0  0  0
 16 17  2  0  0  0
 16 21  1  0  0  0
 16 31  1  0  0  0
 17 18  1  0  0  0
 17 97  1  0  0  0
 18 19  2  0  0  0
 18 98  1  0  0  0
 19 20  1  0  0  0
 19 24  1  0  0  0
 20 21  2  0  0  0
 20 99  1  0  0  0
 21 23  1  0  0  0
 22 28  1  0  0  0
 22 32  2  0  0  0
 26 27  1  0  0  0
 28100  1  0  0  0
 28101  1  0  0  0
 29102  1  0  0  0
 29103  1  0  0  0
 33 34  1  0  0  0
 33 66  1  0  0  0
 33 70  2  0  0  0
 34 36  1  0  0  0
 34 59  1  0  0  0
 34104  1  0  0  0
 35 44  2  0  0  0
 35 45  1  0  0  0
 35 68  1  0  0  0
 36 56  1  0  0  0
 36105  1  0  0  0
 37 39  1  0  0  0
 37 47  1  0  0  0
 37 66  1  0  0  0
 37106  1  0  0  0
 38 43  2  0  0  0
 38 46  1  0  0  0
 38 47  1  0  0  0
 39 64  1  0  0  0
 39 67  2  0  0  0
 40 52  1  0  0  0
 40 53  2  0  0  0
 40 58  1  0  0  0
 41107  1  0  0  0
 41108  1  0  0  0
 41109  1  0  0  0
 41 48  1  0  0  0
 42 43  1  0  0  0
 42 66  1  0  0  0
 42110  1  0  0  0
 42111  1  0  0  0
 43 44  1  0  0  0
 44112  1  0  0  0
 45 46  2  0  0  0
 45113  1  0  0  0
 46114  1  0  0  0
 47115  1  0  0  0
 47116  1  0  0  0
 48 56  1  0  0  0
 48 65  1  0  0  0
 48117  1  0  0  0
 49 50  1  0  0  0
 49 53  1  0  0  0
 49 64  1  0  0  0
 49118  1  0  0  0
 50 51  1  0  0  0
 50119  1  0  0  0
 50120  1  0  0  0
 51 52  1  0  0  0
 51121  1  0  0  0
 51122  1  0  0  0
 52123  1  0  0  0
 52124  1  0  0  0
 53 54  1  0  0  0
 54 55  2  0  0  0
 54125  1  0  0  0
 55 57  1  0  0  0
 55126  1  0  0  0
 56 69  2  0  0  0
 57 58  2  0  0  0
 57127  1  0  0  0
 58128  1  0  0  0
 59 60  1  0  0  0
 59 61  1  0  0  0
 59 62  1  0  0  0
 60129  1  0  0  0
 60130  1  0  0  0
 60131  1  0  0  0
 61132  1  0  0  0
 61133  1  0  0  0
 61134  1  0  0  0
 62135  1  0  0  0
 62136  1  0  0  0
 62137  1  0  0  0
 63 65  1  0  0  0
 63138  1  0  0  0
 63139  1  0  0  0
 63140  1  0  0  0
 64141  1  0  0  0
 65142  1  0  0  0
 68 78  1  0  0  0
 71 72  2  0  0  0
 71 74  1  0  0  0
 71143  1  0  0  0
 72 73  1  0  0  0
 72 76  1  0  0  0
 73 75  2  0  0  0
 73 78  1  0  0  0
 74 80  1  0  0  0
 74 81  2  0  0  0
 75 77  1  0  0  0
 75 81  1  0  0  0
 76144  1  0  0  0
 76145  1  0  0  0
 76146  1  0  0  0
 77147  1  0  0  0
 77148  1  0  0  0
 77149  1  0  0  0
 78150  1  0  0  0
 78151  1  0  0  0
 79 80  1  0  0  0
 79 82  1  0  0  0
 79152  1  0  0  0
 79153  1  0  0  0
 80 83  1  0  0  0
 80154  1  0  0  0
 82155  1  0  0  0
M  ISO  4   1 100  68 101  78 101  82 100
M  END
> <chiral flag>
0

> <version>
0

> <s_m_source_file>
/data/baiqing/PycharmProjects/Reinvent-master-3.2/result/LINK_invent/BTK/process_docking_weight1_custom_sum_contain_oxygen_bond_distance_aromatic_linkinvent_7_9_3/rearranged_h_0171.sdf

> <i_m_source_file_index>
69

> <r_mmod_Potential_Energy-OPLS-2005>
279.637329101562

> <r_mmod_Stretch_Energy-OPLS-2005>
192.209106445312

> <r_mmod_Bend_Energy-OPLS-2005>
235.043182373047

> <r_mmod_Torsional_Energy-OPLS-2005>
232.443252563477

> <r_mmod_Improper_Torsional_Energy-OPLS-2005>
11.0530891418457

> <r_mmod_Van_der_Waal_Energy-OPLS-2005>
148.808074951172

> <r_mmod_Electrostatic_Energy-OPLS-2005>
-467.283172607422

> <r_mmod_Solvation_Energy-OPLS-2005>
-229.225799560547

> <b_mmod_Minimization_Converged-OPLS-2005>
0

> <r_mmod_RMS_Derivative-OPLS-2005>
2.56260418891907

$$$$
69
                    3D
 Structure written by MMmdl.
170180  0  0  1  0            999 V2000
  -30.7196  -14.5736   20.5720 C   0  0  0  0  0  0
  -30.4154  -12.3760   19.4494 C   0  0  0  0  0  0
  -29.4929  -12.4926   18.2194 C   0  0  0  0  0  0
  -28.0232  -12.2994   18.6353 C   0  0  0  0  0  0
  -27.6440  -13.1844   19.8461 C   0  0  2  0  0  0
  -28.6891  -13.0632   20.9868 C   0  0  0  0  0  0
  -25.2549  -13.8092   20.5637 C   0  0  0  0  0  0
  -24.1805  -13.0403   20.9200 C   0  0  0  0  0  0
  -24.6342  -11.6867   20.8762 C   0  0  0  0  0  0
  -23.9014  -10.4270   21.0431 C   0  0  0  0  0  0
  -24.3583   -9.4187   21.9199 C   0  0  0  0  0  0
  -23.6272   -8.2218   22.0755 C   0  0  0  0  0  0
  -22.4254   -8.0261   21.3544 C   0  0  0  0  0  0
  -21.9882   -9.0232   20.4649 C   0  0  0  0  0  0
  -22.7199  -10.2118   20.3068 C   0  0  0  0  0  0
  -21.6841   -6.0727   22.5281 C   0  0  0  0  0  0
  -21.4003   -6.5634   23.8213 C   0  0  0  0  0  0
  -21.3658   -5.6789   24.9177 C   0  0  0  0  0  0
  -21.6044   -4.3051   24.7227 C   0  0  0  0  0  0
  -21.8819   -3.8141   23.4349 C   0  0  0  0  0  0
  -21.9188   -4.6956   22.3405 C   0  0  0  0  0  0
  -22.7841  -13.5230   21.1869 C   0  0  0  0  0  0
  -22.1660   -4.2144   21.0981 F   0  0  0  0  0  0
  -21.5633   -3.4536   25.7741 F   0  0  0  0  0  0
  -30.0062  -13.4067   20.4323 N   0  0  0  0  0  0
  -26.2922  -12.9206   20.3229 N   0  0  0  0  0  0
  -25.9245  -11.6403   20.5748 N   0  0  0  0  0  0
  -22.0473  -12.8237   22.0429 N   0  0  0  0  0  0
  -25.4261  -15.1806   20.4003 N   0  0  0  0  0  0
  -31.8514  -14.6557   20.0831 O   0  0  0  0  0  0
  -21.6622   -6.8861   21.4239 O   0  0  0  0  0  0
  -22.3541  -14.5541   20.6717 O   0  0  0  0  0  0
  -24.6184  -31.8651   23.2070 C   0  0  0  0  0  0
  -25.9061  -32.4808   23.8379 C   0  0  1  0  0  0
  -27.2310  -27.3915   20.1121 C   0  0  0  0  0  0
  -25.5904  -33.8607   24.2310 N   0  0  0  0  0  0
  -23.4084  -30.4879   21.5484 C   0  0  2  0  0  0
  -24.8549  -28.9470   20.1162 C   0  0  0  0  0  0
  -22.7432  -29.4646   22.4975 C   0  0  0  0  0  0
  -18.0277  -28.1379   22.8492 C   0  0  0  0  0  0
  -24.1487  -36.7308   23.2639 C   0  0  0  0  0  0
  -25.9411  -30.8186   21.3656 C   0  0  0  0  0  0
  -26.0179  -29.4497   20.7131 C   0  0  0  0  0  0
  -27.2103  -28.6824   20.7011 C   0  0  0  0  0  0
  -26.0506  -26.9179   19.4977 C   0  0  0  0  0  0
  -24.8688  -27.6832   19.5022 C   0  0  0  0  0  0
  -23.6191  -29.8190   20.1639 C   0  0  0  0  0  0
  -25.4109  -36.3103   24.0337 C   0  0  1  0  0  0
  -20.5870  -28.3668   23.1312 C   0  0  2  0  0  0
  -20.6764  -26.9399   22.5424 C   0  0  0  0  0  0
  -19.5748  -26.6383   21.5216 C   0  0  0  0  0  0
  -18.1923  -26.7927   22.1618 C   0  0  0  0  0  0
  -19.1526  -28.8840   23.2898 C   0  0  0  0  0  0
  -18.9452  -30.1445   23.8909 C   0  0  0  0  0  0
  -17.6454  -30.6584   24.0565 C   0  0  0  0  0  0
  -25.9040  -34.9470   23.5123 C   0  0  0  0  0  0
  -16.5344  -29.9085   23.6327 C   0  0  0  0  0  0
  -16.7266  -28.6503   23.0348 C   0  0  0  0  0  0
  -26.4475  -31.6599   25.0722 C   0  0  0  0  0  0
  -25.3735  -31.3723   26.1470 C   0  0  0  0  0  0
  -27.0297  -30.3031   24.6121 C   0  0  0  0  0  0
  -27.6057  -32.4317   25.7477 C   0  0  0  0  0  0
  -27.5584  -37.1803   24.8460 C   0  0  0  0  0  0
  -21.4154  -29.3031   22.3713 N   0  0  0  0  0  0
  -26.4291  -37.3792   23.9413 N   0  0  0  0  0  0
  -24.6744  -31.0724   22.0984 N   0  0  0  0  0  0
  -23.4189  -28.8193   23.3032 O   0  0  0  0  0  0
  -28.3878  -26.6280   20.1121 O   0  0  0  0  0  0
  -26.5605  -34.8928   22.4687 O   0  0  0  0  0  0
  -23.5367  -32.1415   23.7446 O   0  0  0  0  0  0
  -30.2862  -20.5548   19.7618 C   0  0  0  0  0  0
  -29.5843  -20.1161   20.9022 C   0  0  0  0  0  0
  -30.1970  -21.8985   19.3266 C   0  0  0  0  0  0
  -29.3840  -22.8255   20.0520 C   0  0  0  0  0  0
  -28.7766  -21.0898   21.5454 C   0  0  0  0  0  0
  -29.2628  -24.3126   19.6879 C   0  0  0  0  0  0
  -25.9185  -22.2027   23.0354 C   0  0  0  0  0  0
  -26.1242  -21.3798   24.2872 C   0  0  0  0  0  0
  -28.7773  -17.6479   20.6933 C   0  0  0  0  0  0
  -31.1309  -18.0270   21.3511 C   0  0  0  0  0  0
  -28.8680  -16.2178   21.3021 C   0  0  0  0  0  0
  -31.1605  -16.5941   21.9632 C   0  0  0  0  0  0
  -29.7128  -18.6438   21.4034 C   0  0  0  0  0  0
  -27.3091  -21.7687   23.4360 C   0  0  0  0  0  0
  -30.9916  -22.2825   18.0836 C   0  0  0  0  0  0
  -28.2641  -25.2150   20.4664 C   0  0  0  0  0  0
  -28.6942  -22.3794   21.1313 N   0  0  0  0  0  0
  -30.2345  -15.6430   21.2973 N   0  0  0  0  0  0
  -28.0001  -20.7478   22.6595 N   0  0  0  0  0  0
  -29.9263  -24.8486   18.7905 O   0  0  0  0  0  0
  -31.4576  -12.4679   19.1399 H   0  0  0  0  0  0
  -30.3359  -11.3820   19.8928 H   0  0  0  0  0  0
  -29.7684  -11.7504   17.4690 H   0  0  0  0  0  0
  -29.6214  -13.4685   17.7484 H   0  0  0  0  0  0
  -27.8817  -11.2472   18.8862 H   0  0  0  0  0  0
  -27.3605  -12.5025   17.7930 H   0  0  0  0  0  0
  -27.6441  -14.1871   19.4295 H   0  0  0  0  0  0
  -28.7068  -12.0420   21.3705 H   0  0  0  0  0  0
  -28.4274  -13.6784   21.8468 H   0  0  0  0  0  0
  -25.2729   -9.5667   22.4772 H   0  0  0  0  0  0
  -23.9987   -7.4603   22.7466 H   0  0  0  0  0  0
  -21.0815   -8.8745   19.8953 H   0  0  0  0  0  0
  -22.3658  -10.9658   19.6179 H   0  0  0  0  0  0
  -21.1987   -7.6141   23.9715 H   0  0  0  0  0  0
  -21.1485   -6.0519   25.9081 H   0  0  0  0  0  0
  -22.0601   -2.7604   23.2848 H   0  0  0  0  0  0
  -22.4071  -11.9893   22.4820 H   0  0  0  0  0  0
  -21.1097  -13.1281   22.2639 H   0  0  0  0  0  0
  -24.6583  -15.8335   20.5129 H   0  0  0  0  0  0
  -26.2712  -15.6187   20.0595 H   0  0  0  0  0  0
  -26.7131  -32.5507   23.1138 H   0  0  0  0  0  0
  -25.0054  -33.9763   25.0455 H   0  0  0  0  0  0
  -22.6990  -31.3059   21.4074 H   0  0  0  0  0  0
  -23.3753  -35.9636   23.3298 H   0  0  0  0  0  0
  -24.3582  -36.8929   22.2054 H   0  0  0  0  0  0
  -23.7234  -37.6509   23.6657 H   0  0  0  0  0  0
  -26.0593  -31.5832   20.5964 H   0  0  0  0  0  0
  -26.8267  -30.8708   21.9873 H   0  0  0  0  0  0
  -28.1088  -29.0685   21.1620 H   0  0  0  0  0  0
  -26.0340  -25.9594   18.9996 H   0  0  0  0  0  0
  -23.9774  -27.2948   19.0287 H   0  0  0  0  0  0
  -23.7312  -30.5933   19.4038 H   0  0  0  0  0  0
  -22.7417  -29.2414   19.8672 H   0  0  0  0  0  0
  -25.1286  -36.1961   25.0830 H   0  0  0  0  0  0
  -20.9964  -28.3235   24.1433 H   0  0  0  0  0  0
  -20.5660  -26.2277   23.3613 H   0  0  0  0  0  0
  -21.6636  -26.7434   22.1222 H   0  0  0  0  0  0
  -19.6908  -25.6296   21.1239 H   0  0  0  0  0  0
  -19.6697  -27.3199   20.6752 H   0  0  0  0  0  0
  -17.4202  -26.6691   21.4009 H   0  0  0  0  0  0
  -18.0309  -26.0060   22.9003 H   0  0  0  0  0  0
  -19.7929  -30.7255   24.2284 H   0  0  0  0  0  0
  -17.5011  -31.6266   24.5164 H   0  0  0  0  0  0
  -15.5345  -30.2990   23.7646 H   0  0  0  0  0  0
  -15.8666  -28.0826   22.7054 H   0  0  0  0  0  0
  -24.5909  -30.7065   25.7815 H   0  0  0  0  0  0
  -24.8924  -32.2883   26.4909 H   0  0  0  0  0  0
  -25.8084  -30.8903   27.0235 H   0  0  0  0  0  0
  -26.2839  -29.6798   24.1173 H   0  0  0  0  0  0
  -27.4044  -29.7269   25.4591 H   0  0  0  0  0  0
  -27.8690  -30.4333   23.9286 H   0  0  0  0  0  0
  -27.2685  -33.3613   26.2075 H   0  0  0  0  0  0
  -28.3851  -32.6883   25.0289 H   0  0  0  0  0  0
  -28.0742  -31.8428   26.5371 H   0  0  0  0  0  0
  -28.2601  -38.0102   24.7515 H   0  0  0  0  0  0
  -28.1079  -36.2635   24.6266 H   0  0  0  0  0  0
  -27.2309  -37.1433   25.8865 H   0  0  0  0  0  0
  -20.9318  -29.8752   21.6932 H   0  0  0  0  0  0
  -26.0180  -38.2868   24.1422 H   0  0  0  0  0  0
  -30.9034  -19.8573   19.2147 H   0  0  0  0  0  0
  -25.6650  -23.2539   23.1612 H   0  0  0  0  0  0
  -25.4560  -21.7117   22.1809 H   0  0  0  0  0  0
  -25.7870  -20.3449   24.2647 H   0  0  0  0  0  0
  -26.0012  -21.8883   25.2421 H   0  0  0  0  0  0
  -27.7472  -18.0009   20.7641 H   0  0  0  0  0  0
  -29.0133  -17.6104   19.6286 H   0  0  0  0  0  0
  -31.4945  -17.9793   20.3243 H   0  0  0  0  0  0
  -31.8282  -18.6652   21.8957 H   0  0  0  0  0  0
  -28.1613  -15.6140   20.7635 H   0  0  0  0  0  0
  -28.5084  -16.2341   22.3319 H   0  0  0  0  0  0
  -30.8838  -16.6475   23.0172 H   0  0  0  0  0  0
  -32.1880  -16.2256   21.9651 H   0  0  0  0  0  0
  -29.4405  -18.6442   22.4586 H   0  0  0  0  0  0
  -27.9934  -22.5204   23.8277 H   0  0  0  0  0  0
  -31.4925  -21.4198   17.6424 H   0  0  0  0  0  0
  -31.7622  -23.0156   18.3250 H   0  0  0  0  0  0
  -30.3377  -22.7001   17.3171 H   0  0  0  0  0  0
  -28.4664  -25.1119   21.5323 H   0  0  0  0  0  0
  -27.2607  -24.8250   20.3054 H   0  0  0  0  0  0
  -28.0773  -19.8141   23.0444 H   0  0  0  0  0  0
  1 25  1  0  0  0
  1 30  2  0  0  0
  1 88  1  0  0  0
  2  3  1  0  0  0
  2 25  1  0  0  0
  2 91  1  0  0  0
  2 92  1  0  0  0
  3  4  1  0  0  0
  3 93  1  0  0  0
  3 94  1  0  0  0
  4  5  1  0  0  0
  4 95  1  0  0  0
  4 96  1  0  0  0
  5  6  1  0  0  0
  5 26  1  0  0  0
  5 97  1  0  0  0
  6 25  1  0  0  0
  6 98  1  0  0  0
  6 99  1  0  0  0
  7  8  2  0  0  0
  7 26  1  0  0  0
  7 29  1  0  0  0
  8  9  1  0  0  0
  8 22  1  0  0  0
  9 10  1  0  0  0
  9 27  2  0  0  0
 10 11  2  0  0  0
 10 15  1  0  0  0
 11 12  1  0  0  0
 11100  1  0  0  0
 12 13  2  0  0  0
 12101  1  0  0  0
 13 14  1  0  0  0
 13 31  1  0  0  0
 14 15  2  0  0  0
 14102  1  0  0  0
 15103  1  0  0  0
 16 17  2  0  0  0
 16 21  1  0  0  0
 16 31  1  0  0  0
 17 18  1  0  0  0
 17104  1  0  0  0
 18 19  2  0  0  0
 18105  1  0  0  0
 19 20  1  0  0  0
 19 24  1  0  0  0
 20 21  2  0  0  0
 20106  1  0  0  0
 21 23  1  0  0  0
 22 28  1  0  0  0
 22 32  2  0  0  0
 26 27  1  0  0  0
 28107  1  0  0  0
 28108  1  0  0  0
 29109  1  0  0  0
 29110  1  0  0  0
 33 34  1  0  0  0
 33 66  1  0  0  0
 33 70  2  0  0  0
 34 36  1  0  0  0
 34 59  1  0  0  0
 34111  1  0  0  0
 35 44  2  0  0  0
 35 45  1  0  0  0
 35 68  1  0  0  0
 36 56  1  0  0  0
 36112  1  0  0  0
 37 39  1  0  0  0
 37 47  1  0  0  0
 37 66  1  0  0  0
 37113  1  0  0  0
 38 43  2  0  0  0
 38 46  1  0  0  0
 38 47  1  0  0  0
 39 64  1  0  0  0
 39 67  2  0  0  0
 40 52  1  0  0  0
 40 53  2  0  0  0
 40 58  1  0  0  0
 41114  1  0  0  0
 41115  1  0  0  0
 41116  1  0  0  0
 41 48  1  0  0  0
 42 43  1  0  0  0
 42 66  1  0  0  0
 42117  1  0  0  0
 42118  1  0  0  0
 43 44  1  0  0  0
 44119  1  0  0  0
 45 46  2  0  0  0
 45120  1  0  0  0
 46121  1  0  0  0
 47122  1  0  0  0
 47123  1  0  0  0
 48 56  1  0  0  0
 48 65  1  0  0  0
 48124  1  0  0  0
 49 50  1  0  0  0
 49 53  1  0  0  0
 49 64  1  0  0  0
 49125  1  0  0  0
 50 51  1  0  0  0
 50126  1  0  0  0
 50127  1  0  0  0
 51 52  1  0  0  0
 51128  1  0  0  0
 51129  1  0  0  0
 52130  1  0  0  0
 52131  1  0  0  0
 53 54  1  0  0  0
 54 55  2  0  0  0
 54132  1  0  0  0
 55 57  1  0  0  0
 55133  1  0  0  0
 56 69  2  0  0  0
 57 58  2  0  0  0
 57134  1  0  0  0
 58135  1  0  0  0
 59 60  1  0  0  0
 59 61  1  0  0  0
 59 62  1  0  0  0
 60136  1  0  0  0
 60137  1  0  0  0
 60138  1  0  0  0
 61139  1  0  0  0
 61140  1  0  0  0
 61141  1  0  0  0
 62142  1  0  0  0
 62143  1  0  0  0
 62144  1  0  0  0
 63 65  1  0  0  0
 63145  1  0  0  0
 63146  1  0  0  0
 63147  1  0  0  0
 64148  1  0  0  0
 65149  1  0  0  0
 68 86  1  0  0  0
 71 72  2  0  0  0
 71 73  1  0  0  0
 71150  1  0  0  0
 72 75  1  0  0  0
 72 83  1  0  0  0
 73 74  2  0  0  0
 73 85  1  0  0  0
 74 76  1  0  0  0
 74 87  1  0  0  0
 75 87  2  0  0  0
 75 89  1  0  0  0
 76 86  1  0  0  0
 76 90  2  0  0  0
 77 78  1  0  0  0
 77 84  1  0  0  0
 77151  1  0  0  0
 77152  1  0  0  0
 78 84  1  0  0  0
 78153  1  0  0  0
 78154  1  0  0  0
 79 81  1  0  0  0
 79 83  1  0  0  0
 79155  1  0  0  0
 79156  1  0  0  0
 80 82  1  0  0  0
 80 83  1  0  0  0
 80157  1  0  0  0
 80158  1  0  0  0
 81 88  1  0  0  0
 81159  1  0  0  0
 81160  1  0  0  0
 82 88  1  0  0  0
 82161  1  0  0  0
 82162  1  0  0  0
 83163  1  0  0  0
 84 89  1  0  0  0
 84164  1  0  0  0
 85165  1  0  0  0
 85166  1  0  0  0
 85167  1  0  0  0
 86168  1  0  0  0
 86169  1  0  0  0
 89170  1  0  0  0
M  ISO  4   1 100  68 101  86 101  88 100
M  END
> <chiral flag>
0

> <version>
0

> <s_m_source_file>
/data/baiqing/PycharmProjects/Reinvent-master-3.2/result/LINK_invent/BTK/process_docking_weight1_custom_sum_contain_oxygen_bond_distance_aromatic_linkinvent_7_9_3/rearranged_h_0171.sdf

> <i_m_source_file_index>
70

> <r_mmod_Potential_Energy-OPLS-2005>
142.237670898438

> <r_mmod_Stretch_Energy-OPLS-2005>
62.7839164733887

> <r_mmod_Bend_Energy-OPLS-2005>
146.750366210938

> <r_mmod_Torsional_Energy-OPLS-2005>
332.227355957031

> <r_mmod_Improper_Torsional_Energy-OPLS-2005>
2.84256386756897

> <r_mmod_Van_der_Waal_Energy-OPLS-2005>
169.81803894043

> <r_mmod_Electrostatic_Energy-OPLS-2005>
-370.956268310547

> <r_mmod_Solvation_Energy-OPLS-2005>
-227.91975402832

> <b_mmod_Minimization_Converged-OPLS-2005>
0

> <r_mmod_RMS_Derivative-OPLS-2005>
0.40837898850441

$$$$
70
                    3D
 Structure written by MMmdl.
170179  0  0  1  0            999 V2000
  -30.2473  -15.0372   20.3594 C   0  0  0  0  0  0
  -30.4466  -12.6351   19.4681 C   0  0  0  0  0  0
  -29.5206  -12.4342   18.2442 C   0  0  0  0  0  0
  -28.0794  -12.1579   18.7144 C   0  0  0  0  0  0
  -27.6188  -13.1593   19.8067 C   0  0  2  0  0  0
  -28.6370  -13.2084   20.9506 C   0  0  0  0  0  0
  -25.2608  -13.7941   20.5537 C   0  0  0  0  0  0
  -24.1899  -13.0432   20.9272 C   0  0  0  0  0  0
  -24.6312  -11.6810   20.8678 C   0  0  0  0  0  0
  -23.8946  -10.4286   21.0411 C   0  0  0  0  0  0
  -24.3559   -9.4246   21.9199 C   0  0  0  0  0  0
  -23.6291   -8.2270   22.0750 C   0  0  0  0  0  0
  -22.4232   -8.0300   21.3577 C   0  0  0  0  0  0
  -21.9874   -9.0247   20.4657 C   0  0  0  0  0  0
  -22.7124  -10.2138   20.3082 C   0  0  0  0  0  0
  -21.6856   -6.0713   22.5287 C   0  0  0  0  0  0
  -21.4001   -6.5642   23.8210 C   0  0  0  0  0  0
  -21.3621   -5.6790   24.9178 C   0  0  0  0  0  0
  -21.6063   -4.3058   24.7233 C   0  0  0  0  0  0
  -21.8816   -3.8145   23.4355 C   0  0  0  0  0  0
  -21.9216   -4.6955   22.3413 C   0  0  0  0  0  0
  -22.7906  -13.5309   21.1825 C   0  0  0  0  0  0
  -22.1671   -4.2175   21.0988 F   0  0  0  0  0  0
  -21.5626   -3.4536   25.7728 F   0  0  0  0  0  0
  -29.8481  -13.6963   20.3294 N   0  0  0  0  0  0
  -26.2841  -12.9000   20.3056 N   0  0  0  0  0  0
  -25.9174  -11.6226   20.5633 N   0  0  0  0  0  0
  -22.0547  -12.8396   22.0338 N   0  0  0  0  0  0
  -25.4741  -15.1691   20.4094 N   0  0  0  0  0  0
  -31.4412  -15.2181   20.1591 O   0  0  0  0  0  0
  -21.6622   -6.8874   21.4219 O   0  0  0  0  0  0
  -22.3715  -14.5697   20.6685 O   0  0  0  0  0  0
  -24.6575  -31.8337   23.1943 C   0  0  0  0  0  0
  -25.9178  -32.4675   23.8228 C   0  0  1  0  0  0
  -27.1139  -27.1185   20.0283 C   0  0  0  0  0  0
  -25.5973  -33.8530   24.2205 N   0  0  0  0  0  0
  -23.4286  -30.4865   21.5598 C   0  0  2  0  0  0
  -24.8708  -28.9242   20.0764 C   0  0  0  0  0  0
  -22.7226  -29.4439   22.4794 C   0  0  0  0  0  0
  -17.9784  -28.2230   22.7913 C   0  0  0  0  0  0
  -24.1534  -36.7309   23.2626 C   0  0  0  0  0  0
  -26.0052  -30.7000   21.3852 C   0  0  0  0  0  0
  -26.0611  -29.3213   20.7016 C   0  0  0  0  0  0
  -27.2058  -28.4371   20.6489 C   0  0  0  0  0  0
  -25.8994  -26.8277   19.3809 C   0  0  0  0  0  0
  -24.7977  -27.6873   19.4198 C   0  0  0  0  0  0
  -23.6456  -29.8301   20.1689 C   0  0  0  0  0  0
  -25.4168  -36.3092   24.0319 C   0  0  1  0  0  0
  -20.5341  -28.3798   23.0869 C   0  0  2  0  0  0
  -20.5199  -26.9594   22.4648 C   0  0  0  0  0  0
  -19.4685  -26.8831   21.2897 C   0  0  0  0  0  0
  -18.0529  -27.0044   21.8691 C   0  0  0  0  0  0
  -19.1252  -28.9051   23.2344 C   0  0  0  0  0  0
  -18.9481  -30.1632   23.8467 C   0  0  0  0  0  0
  -17.6660  -30.7245   24.0363 C   0  0  0  0  0  0
  -25.9087  -34.9399   23.5078 C   0  0  0  0  0  0
  -16.5397  -29.9922   23.6252 C   0  0  0  0  0  0
  -16.7103  -28.7669   22.9789 C   0  0  0  0  0  0
  -26.4447  -31.6589   25.0673 C   0  0  0  0  0  0
  -25.3663  -31.3786   26.1416 C   0  0  0  0  0  0
  -27.0268  -30.3014   24.6228 C   0  0  0  0  0  0
  -27.5991  -32.4325   25.7558 C   0  0  0  0  0  0
  -27.5592  -37.1854   24.8456 C   0  0  0  0  0  0
  -21.3897  -29.3318   22.3475 N   0  0  0  0  0  0
  -26.4300  -37.3806   23.9406 N   0  0  0  0  0  0
  -24.7261  -31.0200   22.1026 N   0  0  0  0  0  0
  -23.3786  -28.7362   23.2507 O   0  0  0  0  0  0
  -28.0935  -26.0779   19.9712 O   0  0  0  0  0  0
  -26.5567  -34.8915   22.4651 O   0  0  0  0  0  0
  -23.5625  -32.1141   23.7065 O   0  0  0  0  0  0
  -25.9696  -19.9803   22.1014 C   0  0  0  0  0  0
  -27.0405  -19.5641   19.6246 C   0  0  0  0  0  0
  -25.2864  -20.4330   20.9920 C   0  0  0  0  0  0
  -26.9939  -19.0394   22.0079 C   0  0  0  0  0  0
  -25.6305  -19.7139   19.8237 C   0  0  0  0  0  0
  -27.5649  -18.6339   20.7097 C   0  0  0  0  0  0
  -25.5534  -22.5938   18.0867 C   0  0  0  0  0  0
  -28.6204  -22.0231   18.9061 C   0  0  0  0  0  0
  -27.4621  -21.1583   19.4668 C   0  0  1  0  0  0
  -27.7610  -23.3523   18.9274 C   0  0  2  0  0  0
  -24.2343  -21.5398   21.2236 C   0  0  0  0  0  0
  -27.4382  -18.5492   23.4166 C   0  0  0  0  0  0
  -24.6710  -18.6243   19.3942 C   0  0  0  0  0  0
  -25.1344  -21.9299   16.7519 C   0  0  0  0  0  0
  -28.7552  -17.4353   20.8907 C   0  0  0  0  0  0
  -27.6535  -24.5787   20.0575 C   0  0  0  0  0  0
  -26.6594  -22.3530   18.9604 N   0  0  0  0  0  0
  -29.2444  -16.0741   20.1481 N   0  0  0  0  0  0
  -24.8593  -23.5814   18.3859 O   0  0  0  0  0  0
  -31.4403  -12.8998   19.1077 H   0  0  0  0  0  0
  -30.5672  -11.6809   19.9858 H   0  0  0  0  0  0
  -29.8571  -11.5863   17.6375 H   0  0  0  0  0  0
  -29.5477  -13.3033   17.6046 H   0  0  0  0  0  0
  -28.0635  -11.1390   19.1430 H   0  0  0  0  0  0
  -27.3846  -12.1135   17.8783 H   0  0  0  0  0  0
  -27.5932  -14.1221   19.3055 H   0  0  0  0  0  0
  -28.7904  -12.2285   21.4081 H   0  0  0  0  0  0
  -28.3145  -13.8818   21.7521 H   0  0  0  0  0  0
  -25.2729   -9.5741   22.4750 H   0  0  0  0  0  0
  -24.0001   -7.4661   22.7525 H   0  0  0  0  0  0
  -21.0783   -8.8792   19.9006 H   0  0  0  0  0  0
  -22.3629  -10.9686   19.6222 H   0  0  0  0  0  0
  -21.1949   -7.6152   23.9729 H   0  0  0  0  0  0
  -21.1432   -6.0508   25.9083 H   0  0  0  0  0  0
  -22.0625   -2.7627   23.2848 H   0  0  0  0  0  0
  -22.4020  -11.9968   22.4714 H   0  0  0  0  0  0
  -21.1222  -13.1487   22.2500 H   0  0  0  0  0  0
  -24.7516  -15.8497   20.6204 H   0  0  0  0  0  0
  -26.3485  -15.5913   20.1119 H   0  0  0  0  0  0
  -26.7303  -32.5263   23.0996 H   0  0  0  0  0  0
  -25.0365  -33.9712   25.0518 H   0  0  0  0  0  0
  -22.7363  -31.3173   21.3947 H   0  0  0  0  0  0
  -23.3753  -35.9652   23.3304 H   0  0  0  0  0  0
  -24.3581  -36.8935   22.2002 H   0  0  0  0  0  0
  -23.7244  -37.6563   23.6617 H   0  0  0  0  0  0
  -26.1306  -31.4539   20.6000 H   0  0  0  0  0  0
  -26.9058  -30.7798   21.9905 H   0  0  0  0  0  0
  -28.1372  -28.7069   21.1242 H   0  0  0  0  0  0
  -25.7435  -25.9136   18.8334 H   0  0  0  0  0  0
  -23.8810  -27.4025   18.9191 H   0  0  0  0  0  0
  -23.7740  -30.6096   19.4203 H   0  0  0  0  0  0
  -22.7724  -29.2395   19.8609 H   0  0  0  0  0  0
  -25.1318  -36.1955   25.0769 H   0  0  0  0  0  0
  -20.8710  -28.3671   24.1140 H   0  0  0  0  0  0
  -20.2595  -26.2127   23.2372 H   0  0  0  0  0  0
  -21.4926  -26.5728   22.3298 H   0  0  0  0  0  0
  -19.4401  -26.0737   20.5555 H   0  0  0  0  0  0
  -19.5685  -27.8019   20.6993 H   0  0  0  0  0  0
  -17.4454  -27.2955   21.0336 H   0  0  0  0  0  0
  -17.4831  -26.1198   22.1335 H   0  0  0  0  0  0
  -19.7950  -30.7262   24.1290 H   0  0  0  0  0  0
  -17.5645  -31.6702   24.5690 H   0  0  0  0  0  0
  -15.5473  -30.3807   23.8537 H   0  0  0  0  0  0
  -15.8531  -28.2804   22.5868 H   0  0  0  0  0  0
  -24.5823  -30.7162   25.7719 H   0  0  0  0  0  0
  -24.8814  -32.2985   26.4777 H   0  0  0  0  0  0
  -25.7902  -30.8969   27.0275 H   0  0  0  0  0  0
  -26.2820  -29.6846   24.1224 H   0  0  0  0  0  0
  -27.3910  -29.7178   25.4690 H   0  0  0  0  0  0
  -27.8714  -30.4260   23.9453 H   0  0  0  0  0  0
  -27.2587  -33.3657   26.2151 H   0  0  0  0  0  0
  -28.3883  -32.6951   25.0454 H   0  0  0  0  0  0
  -28.0663  -31.8468   26.5559 H   0  0  0  0  0  0
  -28.2628  -38.0152   24.7528 H   0  0  0  0  0  0
  -28.1091  -36.2679   24.6268 H   0  0  0  0  0  0
  -27.2317  -37.1506   25.8870 H   0  0  0  0  0  0
  -20.9128  -30.0449   21.8098 H   0  0  0  0  0  0
  -26.0190  -38.2909   24.1399 H   0  0  0  0  0  0
  -25.7253  -20.3354   23.0745 H   0  0  0  0  0  0
  -28.8981  -21.7575   17.8703 H   0  0  0  0  0  0
  -29.4834  -21.9776   19.5548 H   0  0  0  0  0  0
  -27.6582  -21.3700   20.5106 H   0  0  0  0  0  0
  -27.8065  -23.7810   17.9165 H   0  0  0  0  0  0
  -24.5186  -22.5193   20.7937 H   0  0  0  0  0  0
  -24.4844  -21.8802   22.2078 H   0  0  0  0  0  0
  -23.1967  -21.2405   21.2242 H   0  0  0  0  0  0
  -26.5959  -18.4451   24.1327 H   0  0  0  0  0  0
  -28.2357  -19.1683   23.8283 H   0  0  0  0  0  0
  -27.8498  -17.5528   23.4552 H   0  0  0  0  0  0
  -24.8932  -17.7542   20.0114 H   0  0  0  0  0  0
  -24.7802  -18.4848   18.3066 H   0  0  0  0  0  0
  -23.6305  -18.7663   19.6437 H   0  0  0  0  0  0
  -24.3767  -21.1635   16.8040 H   0  0  0  0  0  0
  -25.9171  -21.6545   16.0249 H   0  0  0  0  0  0
  -24.5835  -22.7178   16.2256 H   0  0  0  0  0  0
  -28.2886  -16.8435   21.6842 H   0  0  0  0  0  0
  -29.5770  -17.9960   21.3833 H   0  0  0  0  0  0
  -28.0896  -24.1736   20.9728 H   0  0  0  0  0  0
  -26.6032  -24.5810   20.3661 H   0  0  0  0  0  0
  -29.3160  -16.3708   19.1759 H   0  0  0  0  0  0
  1 25  1  0  0  0
  1 30  2  0  0  0
  1 88  1  0  0  0
  2  3  1  0  0  0
  2 25  1  0  0  0
  2 90  1  0  0  0
  2 91  1  0  0  0
  3  4  1  0  0  0
  3 92  1  0  0  0
  3 93  1  0  0  0
  4  5  1  0  0  0
  4 94  1  0  0  0
  4 95  1  0  0  0
  5  6  1  0  0  0
  5 26  1  0  0  0
  5 96  1  0  0  0
  6 25  1  0  0  0
  6 97  1  0  0  0
  6 98  1  0  0  0
  7  8  2  0  0  0
  7 26  1  0  0  0
  7 29  1  0  0  0
  8  9  1  0  0  0
  8 22  1  0  0  0
  9 10  1  0  0  0
  9 27  2  0  0  0
 10 11  2  0  0  0
 10 15  1  0  0  0
 11 12  1  0  0  0
 11 99  1  0  0  0
 12 13  2  0  0  0
 12100  1  0  0  0
 13 14  1  0  0  0
 13 31  1  0  0  0
 14 15  2  0  0  0
 14101  1  0  0  0
 15102  1  0  0  0
 16 17  2  0  0  0
 16 21  1  0  0  0
 16 31  1  0  0  0
 17 18  1  0  0  0
 17103  1  0  0  0
 18 19  2  0  0  0
 18104  1  0  0  0
 19 20  1  0  0  0
 19 24  1  0  0  0
 20 21  2  0  0  0
 20105  1  0  0  0
 21 23  1  0  0  0
 22 28  1  0  0  0
 22 32  2  0  0  0
 26 27  1  0  0  0
 28106  1  0  0  0
 28107  1  0  0  0
 29108  1  0  0  0
 29109  1  0  0  0
 33 34  1  0  0  0
 33 66  1  0  0  0
 33 70  2  0  0  0
 34 36  1  0  0  0
 34 59  1  0  0  0
 34110  1  0  0  0
 35 44  2  0  0  0
 35 45  1  0  0  0
 35 68  1  0  0  0
 36 56  1  0  0  0
 36111  1  0  0  0
 37 39  1  0  0  0
 37 47  1  0  0  0
 37 66  1  0  0  0
 37112  1  0  0  0
 38 43  2  0  0  0
 38 46  1  0  0  0
 38 47  1  0  0  0
 39 64  1  0  0  0
 39 67  2  0  0  0
 40 52  1  0  0  0
 40 53  2  0  0  0
 40 58  1  0  0  0
 41113  1  0  0  0
 41114  1  0  0  0
 41115  1  0  0  0
 41 48  1  0  0  0
 42 43  1  0  0  0
 42 66  1  0  0  0
 42116  1  0  0  0
 42117  1  0  0  0
 43 44  1  0  0  0
 44118  1  0  0  0
 45 46  2  0  0  0
 45119  1  0  0  0
 46120  1  0  0  0
 47121  1  0  0  0
 47122  1  0  0  0
 48 56  1  0  0  0
 48 65  1  0  0  0
 48123  1  0  0  0
 49 50  1  0  0  0
 49 53  1  0  0  0
 49 64  1  0  0  0
 49124  1  0  0  0
 50 51  1  0  0  0
 50125  1  0  0  0
 50126  1  0  0  0
 51 52  1  0  0  0
 51127  1  0  0  0
 51128  1  0  0  0
 52129  1  0  0  0
 52130  1  0  0  0
 53 54  1  0  0  0
 54 55  2  0  0  0
 54131  1  0  0  0
 55 57  1  0  0  0
 55132  1  0  0  0
 56 69  2  0  0  0
 57 58  2  0  0  0
 57133  1  0  0  0
 58134  1  0  0  0
 59 60  1  0  0  0
 59 61  1  0  0  0
 59 62  1  0  0  0
 60135  1  0  0  0
 60136  1  0  0  0
 60137  1  0  0  0
 61138  1  0  0  0
 61139  1  0  0  0
 61140  1  0  0  0
 62141  1  0  0  0
 62142  1  0  0  0
 62143  1  0  0  0
 63 65  1  0  0  0
 63144  1  0  0  0
 63145  1  0  0  0
 63146  1  0  0  0
 64147  1  0  0  0
 65148  1  0  0  0
 68 86  1  0  0  0
 71 73  2  0  0  0
 71 74  1  0  0  0
 71149  1  0  0  0
 72 75  2  0  0  0
 72 76  1  0  0  0
 72 79  1  0  0  0
 73 75  1  0  0  0
 73 81  1  0  0  0
 74 76  2  0  0  0
 74 82  1  0  0  0
 75 83  1  0  0  0
 76 85  1  0  0  0
 77 84  1  0  0  0
 77 87  1  0  0  0
 77 89  2  0  0  0
 78 79  1  0  0  0
 78 80  1  0  0  0
 78150  1  0  0  0
 78151  1  0  0  0
 79 87  1  0  0  0
 79152  1  0  0  0
 80 86  1  0  0  0
 80 87  1  0  0  0
 80153  1  0  0  0
 81154  1  0  0  0
 81155  1  0  0  0
 81156  1  0  0  0
 82157  1  0  0  0
 82158  1  0  0  0
 82159  1  0  0  0
 83160  1  0  0  0
 83161  1  0  0  0
 83162  1  0  0  0
 84163  1  0  0  0
 84164  1  0  0  0
 84165  1  0  0  0
 85 88  1  0  0  0
 85166  1  0  0  0
 85167  1  0  0  0
 86168  1  0  0  0
 86169  1  0  0  0
 88170  1  0  0  0
M  ISO  4   1 100  68 101  86 101  88 100
M  END
> <chiral flag>
0

> <version>
0

> <s_m_source_file>
/data/baiqing/PycharmProjects/Reinvent-master-3.2/result/LINK_invent/BTK/process_docking_weight1_custom_sum_contain_oxygen_bond_distance_aromatic_linkinvent_7_9_3/rearranged_h_0171.sdf

> <i_m_source_file_index>
71

> <r_mmod_Potential_Energy-OPLS-2005>
1501.2412109375

> <r_mmod_Stretch_Energy-OPLS-2005>
351.566070556641

> <r_mmod_Bend_Energy-OPLS-2005>
711.995971679688

> <r_mmod_Torsional_Energy-OPLS-2005>
608.05810546875

> <r_mmod_Improper_Torsional_Energy-OPLS-2005>
63.8700828552246

> <r_mmod_Van_der_Waal_Energy-OPLS-2005>
171.393676757812

> <r_mmod_Electrostatic_Energy-OPLS-2005>
-529.45947265625

> <r_mmod_Solvation_Energy-OPLS-2005>
-208.773147583008

> <b_mmod_Minimization_Converged-OPLS-2005>
0

> <r_mmod_RMS_Derivative-OPLS-2005>
50.9996376037598

$$$$
71
                    3D
 Structure written by MMmdl.
160168  0  0  1  0            999 V2000
  -30.6349  -14.6286   20.5184 C   0  0  0  0  0  0
  -30.4297  -12.3901   19.4508 C   0  0  0  0  0  0
  -29.5045  -12.5145   18.2205 C   0  0  0  0  0  0
  -28.0274  -12.3520   18.6285 C   0  0  0  0  0  0
  -27.6515  -13.2180   19.8623 C   0  0  2  0  0  0
  -28.6968  -13.0738   20.9931 C   0  0  0  0  0  0
  -25.2549  -13.8175   20.5633 C   0  0  0  0  0  0
  -24.1830  -13.0437   20.9159 C   0  0  0  0  0  0
  -24.6402  -11.6908   20.8708 C   0  0  0  0  0  0
  -23.9060  -10.4293   21.0386 C   0  0  0  0  0  0
  -24.3623   -9.4211   21.9167 C   0  0  0  0  0  0
  -23.6292   -8.2253   22.0764 C   0  0  0  0  0  0
  -22.4271   -8.0278   21.3563 C   0  0  0  0  0  0
  -21.9891   -9.0242   20.4652 C   0  0  0  0  0  0
  -22.7224  -10.2120   20.3050 C   0  0  0  0  0  0
  -21.6858   -6.0720   22.5281 C   0  0  0  0  0  0
  -21.4006   -6.5633   23.8204 C   0  0  0  0  0  0
  -21.3661   -5.6795   24.9173 C   0  0  0  0  0  0
  -21.6062   -4.3060   24.7230 C   0  0  0  0  0  0
  -21.8814   -3.8138   23.4353 C   0  0  0  0  0  0
  -21.9183   -4.6947   22.3403 C   0  0  0  0  0  0
  -22.7850  -13.5216   21.1832 C   0  0  0  0  0  0
  -22.1650   -4.2129   21.0978 F   0  0  0  0  0  0
  -21.5645   -3.4546   25.7747 F   0  0  0  0  0  0
  -30.0086  -13.4142   20.4268 N   0  0  0  0  0  0
  -26.2980  -12.9361   20.3289 N   0  0  0  0  0  0
  -25.9330  -11.6515   20.5733 N   0  0  0  0  0  0
  -22.0504  -12.8207   22.0399 N   0  0  0  0  0  0
  -25.4222  -15.1895   20.4024 N   0  0  0  0  0  0
  -31.7987  -14.7863   20.1437 O   0  0  0  0  0  0
  -21.6658   -6.8865   21.4246 O   0  0  0  0  0  0
  -22.3522  -14.5508   20.6667 O   0  0  0  0  0  0
  -24.6238  -31.8596   23.2042 C   0  0  0  0  0  0
  -25.9088  -32.4784   23.8356 C   0  0  1  0  0  0
  -27.2165  -27.3222   20.1149 C   0  0  0  0  0  0
  -25.5902  -33.8586   24.2280 N   0  0  0  0  0  0
  -23.4161  -30.4839   21.5478 C   0  0  2  0  0  0
  -24.8605  -28.9410   20.1106 C   0  0  0  0  0  0
  -22.7458  -29.4610   22.4950 C   0  0  0  0  0  0
  -18.0275  -28.1388   22.8476 C   0  0  0  0  0  0
  -24.1485  -36.7297   23.2636 C   0  0  0  0  0  0
  -25.9566  -30.7896   21.3763 C   0  0  0  0  0  0
  -26.0286  -29.4178   20.7191 C   0  0  0  0  0  0
  -27.2078  -28.6181   20.7151 C   0  0  0  0  0  0
  -26.0303  -26.9014   19.4698 C   0  0  0  0  0  0
  -24.8635  -27.6887   19.4772 C   0  0  0  0  0  0
  -23.6290  -29.8205   20.1619 C   0  0  0  0  0  0
  -25.4116  -36.3094   24.0320 C   0  0  1  0  0  0
  -20.5871  -28.3678   23.1286 C   0  0  2  0  0  0
  -20.6775  -26.9404   22.5414 C   0  0  0  0  0  0
  -19.5760  -26.6384   21.5210 C   0  0  0  0  0  0
  -18.1933  -26.7931   22.1611 C   0  0  0  0  0  0
  -19.1532  -28.8853   23.2878 C   0  0  0  0  0  0
  -18.9454  -30.1457   23.8891 C   0  0  0  0  0  0
  -17.6460  -30.6592   24.0567 C   0  0  0  0  0  0
  -25.9042  -34.9455   23.5105 C   0  0  0  0  0  0
  -16.5345  -29.9091   23.6339 C   0  0  0  0  0  0
  -16.7267  -28.6512   23.0348 C   0  0  0  0  0  0
  -26.4486  -31.6596   25.0728 C   0  0  0  0  0  0
  -25.3706  -31.3744   26.1446 C   0  0  0  0  0  0
  -27.0336  -30.3020   24.6184 C   0  0  0  0  0  0
  -27.6046  -32.4333   25.7500 C   0  0  0  0  0  0
  -27.5586  -37.1804   24.8459 C   0  0  0  0  0  0
  -21.4177  -29.3028   22.3683 N   0  0  0  0  0  0
  -26.4296  -37.3781   23.9403 N   0  0  0  0  0  0
  -24.6843  -31.0609   22.0997 N   0  0  0  0  0  0
  -23.4194  -28.8143   23.3025 O   0  0  0  0  0  0
  -28.3389  -26.4850   20.1810 O   0  0  0  0  0  0
  -26.5622  -34.8915   22.4678 O   0  0  0  0  0  0
  -23.5404  -32.1384   23.7377 O   0  0  0  0  0  0
  -30.4436  -21.7607   20.5267 C   0  0  0  0  0  0
  -29.2338  -22.5262   20.4887 C   0  0  0  0  0  0
  -28.0855  -20.4792   20.3084 C   0  0  0  0  0  0
  -29.2984  -19.7105   20.3440 C   0  0  0  0  0  0
  -31.7952  -22.4263   20.7199 C   0  0  0  0  0  0
  -26.4442  -19.5982   18.5818 C   0  0  0  0  0  0
  -26.7224  -19.8405   20.0742 C   0  0  0  0  0  0
  -29.3516  -18.1523   20.0699 C   0  0  0  0  0  0
  -29.1955  -24.0852   20.7410 C   0  0  0  0  0  0
  -30.1702  -17.1633   21.0057 C   0  0  0  0  0  0
  -28.1814  -25.0256   19.9702 C   0  0  0  0  0  0
  -30.4749  -20.3914   20.4378 N   0  0  0  0  0  0
  -28.0592  -21.8486   20.3947 N   0  0  0  0  0  0
  -29.8500  -15.6933   20.8714 N   0  0  0  0  0  0
  -31.4724  -12.5109   19.1537 H   0  0  0  0  0  0
  -30.3536  -11.3943   19.8911 H   0  0  0  0  0  0
  -29.7708  -11.7709   17.4688 H   0  0  0  0  0  0
  -29.6459  -13.4876   17.7486 H   0  0  0  0  0  0
  -27.8612  -11.2955   18.8465 H   0  0  0  0  0  0
  -27.3761  -12.5979   17.7882 H   0  0  0  0  0  0
  -27.6660  -14.2541   19.5246 H   0  0  0  0  0  0
  -28.7109  -12.0542   21.3804 H   0  0  0  0  0  0
  -28.4478  -13.7151   21.8398 H   0  0  0  0  0  0
  -25.2779   -9.5690   22.4723 H   0  0  0  0  0  0
  -23.9994   -7.4653   22.7503 H   0  0  0  0  0  0
  -21.0812   -8.8746   19.8968 H   0  0  0  0  0  0
  -22.3669  -10.9644   19.6148 H   0  0  0  0  0  0
  -21.2000   -7.6146   23.9682 H   0  0  0  0  0  0
  -21.1490   -6.0552   25.9070 H   0  0  0  0  0  0
  -22.0588   -2.7599   23.2869 H   0  0  0  0  0  0
  -22.4147  -11.9872   22.4776 H   0  0  0  0  0  0
  -21.1128  -13.1232   22.2624 H   0  0  0  0  0  0
  -24.6486  -15.8376   20.5002 H   0  0  0  0  0  0
  -26.2641  -15.6272   20.0523 H   0  0  0  0  0  0
  -26.7146  -32.5453   23.1096 H   0  0  0  0  0  0
  -25.0056  -33.9751   25.0428 H   0  0  0  0  0  0
  -22.7082  -31.3037   21.4083 H   0  0  0  0  0  0
  -23.3752  -35.9628   23.3297 H   0  0  0  0  0  0
  -24.3572  -36.8924   22.2050 H   0  0  0  0  0  0
  -23.7233  -37.6493   23.6663 H   0  0  0  0  0  0
  -26.0858  -31.5497   20.6048 H   0  0  0  0  0  0
  -26.8383  -30.8386   22.0040 H   0  0  0  0  0  0
  -28.1028  -28.9750   21.2063 H   0  0  0  0  0  0
  -25.9791  -25.9524   18.9558 H   0  0  0  0  0  0
  -23.9705  -27.3236   18.9884 H   0  0  0  0  0  0
  -23.7456  -30.5974   19.4054 H   0  0  0  0  0  0
  -22.7486  -29.2492   19.8627 H   0  0  0  0  0  0
  -25.1302  -36.1950   25.0814 H   0  0  0  0  0  0
  -20.9959  -28.3261   24.1409 H   0  0  0  0  0  0
  -20.5683  -26.2287   23.3611 H   0  0  0  0  0  0
  -21.6645  -26.7456   22.1201 H   0  0  0  0  0  0
  -19.6926  -25.6298   21.1241 H   0  0  0  0  0  0
  -19.6711  -27.3196   20.6741 H   0  0  0  0  0  0
  -17.4206  -26.6664   21.4013 H   0  0  0  0  0  0
  -18.0335  -26.0083   22.9016 H   0  0  0  0  0  0
  -19.7933  -30.7275   24.2252 H   0  0  0  0  0  0
  -17.5015  -31.6271   24.5169 H   0  0  0  0  0  0
  -15.5349  -30.2996   23.7674 H   0  0  0  0  0  0
  -15.8658  -28.0842   22.7062 H   0  0  0  0  0  0
  -24.5875  -30.7108   25.7761 H   0  0  0  0  0  0
  -24.8905  -32.2920   26.4858 H   0  0  0  0  0  0
  -25.8003  -30.8917   27.0231 H   0  0  0  0  0  0
  -26.2918  -29.6773   24.1188 H   0  0  0  0  0  0
  -27.4016  -29.7281   25.4702 H   0  0  0  0  0  0
  -27.8797  -30.4324   23.9429 H   0  0  0  0  0  0
  -27.2653  -33.3623   26.2098 H   0  0  0  0  0  0
  -28.3845  -32.6902   25.0318 H   0  0  0  0  0  0
  -28.0723  -31.8438   26.5400 H   0  0  0  0  0  0
  -28.2593  -38.0110   24.7519 H   0  0  0  0  0  0
  -28.1088  -36.2637   24.6272 H   0  0  0  0  0  0
  -27.2295  -37.1441   25.8858 H   0  0  0  0  0  0
  -20.9346  -29.8746   21.6888 H   0  0  0  0  0  0
  -26.0176  -38.2854   24.1426 H   0  0  0  0  0  0
  -31.8140  -22.9898   21.6538 H   0  0  0  0  0  0
  -32.0022  -23.1153   19.9018 H   0  0  0  0  0  0
  -32.6045  -21.6957   20.7506 H   0  0  0  0  0  0
  -25.4541  -19.1668   18.4297 H   0  0  0  0  0  0
  -27.1727  -18.9129   18.1467 H   0  0  0  0  0  0
  -26.4927  -20.5299   18.0167 H   0  0  0  0  0  0
  -25.9466  -20.4908   20.4803 H   0  0  0  0  0  0
  -26.6307  -18.9169   20.6439 H   0  0  0  0  0  0
  -29.7050  -18.0262   19.0468 H   0  0  0  0  0  0
  -28.3353  -17.7694   20.0432 H   0  0  0  0  0  0
  -30.1859  -24.4853   20.5381 H   0  0  0  0  0  0
  -29.0460  -24.2320   21.8109 H   0  0  0  0  0  0
  -29.9613  -17.4194   22.0449 H   0  0  0  0  0  0
  -31.2402  -17.3318   20.8728 H   0  0  0  0  0  0
  -27.1881  -24.7029   20.2826 H   0  0  0  0  0  0
  -28.2535  -24.8330   18.8992 H   0  0  0  0  0  0
  -28.9043  -15.4405   21.1153 H   0  0  0  0  0  0
  1 25  1  0  0  0
  1 30  2  0  0  0
  1 84  1  0  0  0
  2  3  1  0  0  0
  2 25  1  0  0  0
  2 85  1  0  0  0
  2 86  1  0  0  0
  3  4  1  0  0  0
  3 87  1  0  0  0
  3 88  1  0  0  0
  4  5  1  0  0  0
  4 89  1  0  0  0
  4 90  1  0  0  0
  5  6  1  0  0  0
  5 26  1  0  0  0
  5 91  1  0  0  0
  6 25  1  0  0  0
  6 92  1  0  0  0
  6 93  1  0  0  0
  7  8  2  0  0  0
  7 26  1  0  0  0
  7 29  1  0  0  0
  8  9  1  0  0  0
  8 22  1  0  0  0
  9 10  1  0  0  0
  9 27  2  0  0  0
 10 11  2  0  0  0
 10 15  1  0  0  0
 11 12  1  0  0  0
 11 94  1  0  0  0
 12 13  2  0  0  0
 12 95  1  0  0  0
 13 14  1  0  0  0
 13 31  1  0  0  0
 14 15  2  0  0  0
 14 96  1  0  0  0
 15 97  1  0  0  0
 16 17  2  0  0  0
 16 21  1  0  0  0
 16 31  1  0  0  0
 17 18  1  0  0  0
 17 98  1  0  0  0
 18 19  2  0  0  0
 18 99  1  0  0  0
 19 20  1  0  0  0
 19 24  1  0  0  0
 20 21  2  0  0  0
 20100  1  0  0  0
 21 23  1  0  0  0
 22 28  1  0  0  0
 22 32  2  0  0  0
 26 27  1  0  0  0
 28101  1  0  0  0
 28102  1  0  0  0
 29103  1  0  0  0
 29104  1  0  0  0
 33 34  1  0  0  0
 33 66  1  0  0  0
 33 70  2  0  0  0
 34 36  1  0  0  0
 34 59  1  0  0  0
 34105  1  0  0  0
 35 44  2  0  0  0
 35 45  1  0  0  0
 35 68  1  0  0  0
 36 56  1  0  0  0
 36106  1  0  0  0
 37 39  1  0  0  0
 37 47  1  0  0  0
 37 66  1  0  0  0
 37107  1  0  0  0
 38 43  2  0  0  0
 38 46  1  0  0  0
 38 47  1  0  0  0
 39 64  1  0  0  0
 39 67  2  0  0  0
 40 52  1  0  0  0
 40 53  2  0  0  0
 40 58  1  0  0  0
 41108  1  0  0  0
 41109  1  0  0  0
 41110  1  0  0  0
 41 48  1  0  0  0
 42 43  1  0  0  0
 42 66  1  0  0  0
 42111  1  0  0  0
 42112  1  0  0  0
 43 44  1  0  0  0
 44113  1  0  0  0
 45 46  2  0  0  0
 45114  1  0  0  0
 46115  1  0  0  0
 47116  1  0  0  0
 47117  1  0  0  0
 48 56  1  0  0  0
 48 65  1  0  0  0
 48118  1  0  0  0
 49 50  1  0  0  0
 49 53  1  0  0  0
 49 64  1  0  0  0
 49119  1  0  0  0
 50 51  1  0  0  0
 50120  1  0  0  0
 50121  1  0  0  0
 51 52  1  0  0  0
 51122  1  0  0  0
 51123  1  0  0  0
 52124  1  0  0  0
 52125  1  0  0  0
 53 54  1  0  0  0
 54 55  2  0  0  0
 54126  1  0  0  0
 55 57  1  0  0  0
 55127  1  0  0  0
 56 69  2  0  0  0
 57 58  2  0  0  0
 57128  1  0  0  0
 58129  1  0  0  0
 59 60  1  0  0  0
 59 61  1  0  0  0
 59 62  1  0  0  0
 60130  1  0  0  0
 60131  1  0  0  0
 60132  1  0  0  0
 61133  1  0  0  0
 61134  1  0  0  0
 61135  1  0  0  0
 62136  1  0  0  0
 62137  1  0  0  0
 62138  1  0  0  0
 63 65  1  0  0  0
 63139  1  0  0  0
 63140  1  0  0  0
 63141  1  0  0  0
 64142  1  0  0  0
 65143  1  0  0  0
 68 81  1  0  0  0
 71 72  2  0  0  0
 71 75  1  0  0  0
 71 82  1  0  0  0
 72 79  1  0  0  0
 72 83  1  0  0  0
 73 74  1  0  0  0
 73 77  1  0  0  0
 73 83  2  0  0  0
 74 78  1  0  0  0
 74 82  2  0  0  0
 75144  1  0  0  0
 75145  1  0  0  0
 75146  1  0  0  0
 76 77  1  0  0  0
 76147  1  0  0  0
 76148  1  0  0  0
 76149  1  0  0  0
 77150  1  0  0  0
 77151  1  0  0  0
 78 80  1  0  0  0
 78152  1  0  0  0
 78153  1  0  0  0
 79 81  1  0  0  0
 79154  1  0  0  0
 79155  1  0  0  0
 80 84  1  0  0  0
 80156  1  0  0  0
 80157  1  0  0  0
 81158  1  0  0  0
 81159  1  0  0  0
 84160  1  0  0  0
M  ISO  4   1 100  68 101  81 101  84 100
M  END
> <chiral flag>
0

> <version>
0

> <s_m_source_file>
/data/baiqing/PycharmProjects/Reinvent-master-3.2/result/LINK_invent/BTK/process_docking_weight1_custom_sum_contain_oxygen_bond_distance_aromatic_linkinvent_7_9_3/rearranged_h_0171.sdf

> <i_m_source_file_index>
72

> <r_mmod_Potential_Energy-OPLS-2005>
26.6987018585205

> <r_mmod_Stretch_Energy-OPLS-2005>
83.3347320556641

> <r_mmod_Bend_Energy-OPLS-2005>
136.648056030273

> <r_mmod_Torsional_Energy-OPLS-2005>
187.310806274414

> <r_mmod_Improper_Torsional_Energy-OPLS-2005>
5.59945726394653

> <r_mmod_Van_der_Waal_Energy-OPLS-2005>
146.661178588867

> <r_mmod_Electrostatic_Energy-OPLS-2005>
-352.082885742188

> <r_mmod_Solvation_Energy-OPLS-2005>
-227.379058837891

> <b_mmod_Minimization_Converged-OPLS-2005>
0

> <r_mmod_RMS_Derivative-OPLS-2005>
2.1763608455658

$$$$
72
                    3D
 Structure written by MMmdl.
164174  0  0  1  0            999 V2000
  -30.7140  -14.5129   20.5488 C   0  0  0  0  0  0
  -30.4074  -12.3056   19.4714 C   0  0  0  0  0  0
  -29.5060  -12.4696   18.2321 C   0  0  0  0  0  0
  -28.0225  -12.3519   18.6312 C   0  0  0  0  0  0
  -27.6559  -13.2174   19.8647 C   0  0  2  0  0  0
  -28.6888  -13.0773   21.0044 C   0  0  0  0  0  0
  -25.2592  -13.8192   20.5742 C   0  0  0  0  0  0
  -24.1836  -13.0456   20.9203 C   0  0  0  0  0  0
  -24.6366  -11.6910   20.8707 C   0  0  0  0  0  0
  -23.9032  -10.4296   21.0399 C   0  0  0  0  0  0
  -24.3573   -9.4226   21.9202 C   0  0  0  0  0  0
  -23.6238   -8.2259   22.0790 C   0  0  0  0  0  0
  -22.4231   -8.0266   21.3545 C   0  0  0  0  0  0
  -21.9831   -9.0273   20.4686 C   0  0  0  0  0  0
  -22.7178  -10.2146   20.3079 C   0  0  0  0  0  0
  -21.6860   -6.0675   22.5240 C   0  0  0  0  0  0
  -21.4050   -6.5590   23.8176 C   0  0  0  0  0  0
  -21.3684   -5.6742   24.9145 C   0  0  0  0  0  0
  -21.6069   -4.3004   24.7210 C   0  0  0  0  0  0
  -21.8817   -3.8102   23.4329 C   0  0  0  0  0  0
  -21.9215   -4.6906   22.3380 C   0  0  0  0  0  0
  -22.7865  -13.5314   21.1847 C   0  0  0  0  0  0
  -22.1680   -4.2109   21.0956 F   0  0  0  0  0  0
  -21.5634   -3.4480   25.7721 F   0  0  0  0  0  0
  -30.0253  -13.3410   20.4439 N   0  0  0  0  0  0
  -26.2992  -12.9382   20.3314 N   0  0  0  0  0  0
  -25.9290  -11.6533   20.5725 N   0  0  0  0  0  0
  -22.0460  -12.8343   22.0379 N   0  0  0  0  0  0
  -25.4383  -15.1913   20.4296 N   0  0  0  0  0  0
  -31.8615  -14.6501   20.1098 O   0  0  0  0  0  0
  -21.6631   -6.8829   21.4204 O   0  0  0  0  0  0
  -22.3563  -14.5643   20.6718 O   0  0  0  0  0  0
  -24.6171  -31.8629   23.2077 C   0  0  0  0  0  0
  -25.9032  -32.4797   23.8390 C   0  0  1  0  0  0
  -27.2467  -27.4161   20.0812 C   0  0  0  0  0  0
  -25.5860  -33.8604   24.2276 N   0  0  0  0  0  0
  -23.4073  -30.4877   21.5458 C   0  0  2  0  0  0
  -24.8552  -28.9485   20.1087 C   0  0  0  0  0  0
  -22.7412  -29.4631   22.4920 C   0  0  0  0  0  0
  -18.0278  -28.1384   22.8463 C   0  0  0  0  0  0
  -24.1492  -36.7376   23.2645 C   0  0  0  0  0  0
  -25.9439  -30.8105   21.3788 C   0  0  0  0  0  0
  -26.0146  -29.4491   20.7152 C   0  0  0  0  0  0
  -27.2015  -28.6845   20.7130 C   0  0  0  0  0  0
  -26.0695  -26.9333   19.4703 C   0  0  0  0  0  0
  -24.8790  -27.6875   19.4877 C   0  0  0  0  0  0
  -23.6189  -29.8163   20.1599 C   0  0  0  0  0  0
  -25.4101  -36.3096   24.0305 C   0  0  1  0  0  0
  -20.5877  -28.3693   23.1270 C   0  0  2  0  0  0
  -20.6771  -26.9411   22.5395 C   0  0  0  0  0  0
  -19.5756  -26.6369   21.5186 C   0  0  0  0  0  0
  -18.1926  -26.7927   22.1581 C   0  0  0  0  0  0
  -19.1531  -28.8854   23.2874 C   0  0  0  0  0  0
  -18.9437  -30.1455   23.8906 C   0  0  0  0  0  0
  -17.6442  -30.6571   24.0560 C   0  0  0  0  0  0
  -25.9037  -34.9467   23.5073 C   0  0  0  0  0  0
  -16.5337  -29.9064   23.6332 C   0  0  0  0  0  0
  -16.7271  -28.6494   23.0332 C   0  0  0  0  0  0
  -26.4418  -31.6663   25.0797 C   0  0  0  0  0  0
  -25.3649  -31.3834   26.1539 C   0  0  0  0  0  0
  -27.0303  -30.3085   24.6331 C   0  0  0  0  0  0
  -27.6007  -32.4441   25.7513 C   0  0  0  0  0  0
  -27.5569  -37.1834   24.8410 C   0  0  0  0  0  0
  -21.4166  -29.3034   22.3655 N   0  0  0  0  0  0
  -26.4265  -37.3788   23.9375 N   0  0  0  0  0  0
  -24.6727  -31.0703   22.0986 N   0  0  0  0  0  0
  -23.4184  -28.8150   23.2973 O   0  0  0  0  0  0
  -28.4276  -26.6946   20.1226 O   0  0  0  0  0  0
  -26.5634  -34.8911   22.4675 O   0  0  0  0  0  0
  -23.5350  -32.1402   23.7437 O   0  0  0  0  0  0
  -29.0098  -23.3948   20.1865 C   0  0  0  0  0  0
  -28.3262  -24.2738   19.3047 C   0  0  0  0  0  0
  -28.6107  -22.0368   20.1615 C   0  0  0  0  0  0
  -27.0567  -22.5119   18.5400 C   0  0  0  0  0  0
  -29.6212  -17.6208   22.4931 C   0  0  0  0  0  0
  -29.6794  -19.1650   19.3594 C   0  0  0  0  0  0
  -30.2228  -16.1927   22.2776 C   0  0  0  0  0  0
  -29.5680  -16.5618   19.8883 C   0  0  0  0  0  0
  -30.0650  -18.6134   21.4041 C   0  0  1  0  0  0
  -30.2566  -17.9244   20.0467 C   0  0  2  0  0  0
  -29.0854  -19.6175   20.7020 C   0  0  1  0  0  0
  -26.0397  -21.9994   17.5300 C   0  0  0  0  0  0
  -28.7484  -25.7427   19.0903 C   0  0  0  0  0  0
  -27.3595  -23.8078   18.4825 N   0  0  0  0  0  0
  -27.6209  -21.6183   19.3434 N   0  0  0  0  0  0
  -29.9958  -15.6049   20.9324 N   0  0  0  0  0  0
  -29.2667  -21.0632   20.9471 N   0  0  0  0  0  0
  -30.0271  -23.8227   20.9750 F   0  0  0  0  0  0
  -31.4639  -12.3457   19.2038 H   0  0  0  0  0  0
  -30.2559  -11.3226   19.9198 H   0  0  0  0  0  0
  -29.7460  -11.7005   17.4956 H   0  0  0  0  0  0
  -29.6957  -13.4309   17.7539 H   0  0  0  0  0  0
  -27.8160  -11.3034   18.8505 H   0  0  0  0  0  0
  -27.3839  -12.6210   17.7895 H   0  0  0  0  0  0
  -27.6873  -14.2535   19.5281 H   0  0  0  0  0  0
  -28.6631  -12.0841   21.4574 H   0  0  0  0  0  0
  -28.4383  -13.7728   21.8066 H   0  0  0  0  0  0
  -25.2723   -9.5693   22.4754 H   0  0  0  0  0  0
  -23.9942   -7.4662   22.7520 H   0  0  0  0  0  0
  -21.0746   -8.8842   19.8999 H   0  0  0  0  0  0
  -22.3671  -10.9694   19.6171 H   0  0  0  0  0  0
  -21.2058   -7.6101   23.9667 H   0  0  0  0  0  0
  -21.1516   -6.0482   25.9046 H   0  0  0  0  0  0
  -22.0587   -2.7569   23.2859 H   0  0  0  0  0  0
  -22.3935  -11.9923   22.4690 H   0  0  0  0  0  0
  -21.1174  -13.1548   22.2758 H   0  0  0  0  0  0
  -24.6803  -15.8544   20.5626 H   0  0  0  0  0  0
  -26.3081  -15.6303   20.1563 H   0  0  0  0  0  0
  -26.7114  -32.5456   23.1171 H   0  0  0  0  0  0
  -24.9871  -33.9750   25.0311 H   0  0  0  0  0  0
  -22.7034  -31.3077   21.4019 H   0  0  0  0  0  0
  -23.3682  -35.9779   23.3283 H   0  0  0  0  0  0
  -24.3587  -36.9053   22.2066 H   0  0  0  0  0  0
  -23.7332  -37.6600   23.6720 H   0  0  0  0  0  0
  -26.0885  -31.5825   20.6235 H   0  0  0  0  0  0
  -26.8208  -30.8396   22.0170 H   0  0  0  0  0  0
  -28.0943  -29.0592   21.1942 H   0  0  0  0  0  0
  -26.0465  -25.9634   18.9969 H   0  0  0  0  0  0
  -23.9885  -27.2877   19.0206 H   0  0  0  0  0  0
  -23.7235  -30.5901   19.3990 H   0  0  0  0  0  0
  -22.7440  -29.2333   19.8636 H   0  0  0  0  0  0
  -25.1277  -36.1934   25.0796 H   0  0  0  0  0  0
  -20.9984  -28.3271   24.1380 H   0  0  0  0  0  0
  -20.5652  -26.2290   23.3595 H   0  0  0  0  0  0
  -21.6639  -26.7417   22.1193 H   0  0  0  0  0  0
  -19.6913  -25.6261   21.1254 H   0  0  0  0  0  0
  -19.6692  -27.3148   20.6702 H   0  0  0  0  0  0
  -17.4186  -26.6690   21.3987 H   0  0  0  0  0  0
  -18.0300  -26.0064   22.8978 H   0  0  0  0  0  0
  -19.7914  -30.7273   24.2272 H   0  0  0  0  0  0
  -17.4984  -31.6258   24.5148 H   0  0  0  0  0  0
  -15.5327  -30.2956   23.7669 H   0  0  0  0  0  0
  -15.8673  -28.0824   22.7036 H   0  0  0  0  0  0
  -24.5668  -30.7384   25.7797 H   0  0  0  0  0  0
  -24.9002  -32.3034   26.5095 H   0  0  0  0  0  0
  -25.7888  -30.8811   27.0233 H   0  0  0  0  0  0
  -26.2919  -29.6839   24.1264 H   0  0  0  0  0  0
  -27.3865  -29.7354   25.4896 H   0  0  0  0  0  0
  -27.8840  -30.4366   23.9677 H   0  0  0  0  0  0
  -27.2598  -33.3688   26.2177 H   0  0  0  0  0  0
  -28.3704  -32.7109   25.0263 H   0  0  0  0  0  0
  -28.0819  -31.8556   26.5339 H   0  0  0  0  0  0
  -28.2528  -38.0180   24.7459 H   0  0  0  0  0  0
  -28.1106  -36.2705   24.6169 H   0  0  0  0  0  0
  -27.2315  -37.1424   25.8819 H   0  0  0  0  0  0
  -20.9331  -29.8747   21.6854 H   0  0  0  0  0  0
  -26.0132  -38.2855   24.1347 H   0  0  0  0  0  0
  -29.9111  -17.9808   23.4808 H   0  0  0  0  0  0
  -28.5327  -17.5460   22.5236 H   0  0  0  0  0  0
  -28.9359  -18.9620   18.5856 H   0  0  0  0  0  0
  -30.4710  -19.8208   18.9812 H   0  0  0  0  0  0
  -29.8319  -15.4962   23.0235 H   0  0  0  0  0  0
  -31.2963  -16.2423   22.4669 H   0  0  0  0  0  0
  -29.7644  -16.1670   18.8890 H   0  0  0  0  0  0
  -28.4836  -16.6729   19.9573 H   0  0  0  0  0  0
  -31.0032  -19.1052   21.6779 H   0  0  0  0  0  0
  -31.3246  -17.8460   19.8317 H   0  0  0  0  0  0
  -28.0437  -19.3163   20.8142 H   0  0  0  0  0  0
  -25.5903  -22.8077   16.9501 H   0  0  0  0  0  0
  -25.2302  -21.4537   18.0148 H   0  0  0  0  0  0
  -26.5215  -21.3203   16.8252 H   0  0  0  0  0  0
  -28.3951  -26.1086   18.1236 H   0  0  0  0  0  0
  -29.8362  -25.7491   18.9994 H   0  0  0  0  0  0
  -30.0461  -21.3919   21.5073 H   0  0  0  0  0  0
  1 25  1  0  0  0
  1 30  2  0  0  0
  1 86  1  0  0  0
  2  3  1  0  0  0
  2 25  1  0  0  0
  2 89  1  0  0  0
  2 90  1  0  0  0
  3  4  1  0  0  0
  3 91  1  0  0  0
  3 92  1  0  0  0
  4  5  1  0  0  0
  4 93  1  0  0  0
  4 94  1  0  0  0
  5  6  1  0  0  0
  5 26  1  0  0  0
  5 95  1  0  0  0
  6 25  1  0  0  0
  6 96  1  0  0  0
  6 97  1  0  0  0
  7  8  2  0  0  0
  7 26  1  0  0  0
  7 29  1  0  0  0
  8  9  1  0  0  0
  8 22  1  0  0  0
  9 10  1  0  0  0
  9 27  2  0  0  0
 10 11  2  0  0  0
 10 15  1  0  0  0
 11 12  1  0  0  0
 11 98  1  0  0  0
 12 13  2  0  0  0
 12 99  1  0  0  0
 13 14  1  0  0  0
 13 31  1  0  0  0
 14 15  2  0  0  0
 14100  1  0  0  0
 15101  1  0  0  0
 16 17  2  0  0  0
 16 21  1  0  0  0
 16 31  1  0  0  0
 17 18  1  0  0  0
 17102  1  0  0  0
 18 19  2  0  0  0
 18103  1  0  0  0
 19 20  1  0  0  0
 19 24  1  0  0  0
 20 21  2  0  0  0
 20104  1  0  0  0
 21 23  1  0  0  0
 22 28  1  0  0  0
 22 32  2  0  0  0
 26 27  1  0  0  0
 28105  1  0  0  0
 28106  1  0  0  0
 29107  1  0  0  0
 29108  1  0  0  0
 33 34  1  0  0  0
 33 66  1  0  0  0
 33 70  2  0  0  0
 34 36  1  0  0  0
 34 59  1  0  0  0
 34109  1  0  0  0
 35 44  2  0  0  0
 35 45  1  0  0  0
 35 68  1  0  0  0
 36 56  1  0  0  0
 36110  1  0  0  0
 37 39  1  0  0  0
 37 47  1  0  0  0
 37 66  1  0  0  0
 37111  1  0  0  0
 38 43  2  0  0  0
 38 46  1  0  0  0
 38 47  1  0  0  0
 39 64  1  0  0  0
 39 67  2  0  0  0
 40 52  1  0  0  0
 40 53  2  0  0  0
 40 58  1  0  0  0
 41112  1  0  0  0
 41113  1  0  0  0
 41114  1  0  0  0
 41 48  1  0  0  0
 42 43  1  0  0  0
 42 66  1  0  0  0
 42115  1  0  0  0
 42116  1  0  0  0
 43 44  1  0  0  0
 44117  1  0  0  0
 45 46  2  0  0  0
 45118  1  0  0  0
 46119  1  0  0  0
 47120  1  0  0  0
 47121  1  0  0  0
 48 56  1  0  0  0
 48 65  1  0  0  0
 48122  1  0  0  0
 49 50  1  0  0  0
 49 53  1  0  0  0
 49 64  1  0  0  0
 49123  1  0  0  0
 50 51  1  0  0  0
 50124  1  0  0  0
 50125  1  0  0  0
 51 52  1  0  0  0
 51126  1  0  0  0
 51127  1  0  0  0
 52128  1  0  0  0
 52129  1  0  0  0
 53 54  1  0  0  0
 54 55  2  0  0  0
 54130  1  0  0  0
 55 57  1  0  0  0
 55131  1  0  0  0
 56 69  2  0  0  0
 57 58  2  0  0  0
 57132  1  0  0  0
 58133  1  0  0  0
 59 60  1  0  0  0
 59 61  1  0  0  0
 59 62  1  0  0  0
 60134  1  0  0  0
 60135  1  0  0  0
 60136  1  0  0  0
 61137  1  0  0  0
 61138  1  0  0  0
 61139  1  0  0  0
 62140  1  0  0  0
 62141  1  0  0  0
 62142  1  0  0  0
 63 65  1  0  0  0
 63143  1  0  0  0
 63144  1  0  0  0
 63145  1  0  0  0
 64146  1  0  0  0
 65147  1  0  0  0
 68 83  1  0  0  0
 71 72  2  0  0  0
 71 73  1  0  0  0
 71 88  1  0  0  0
 72 83  1  0  0  0
 72 84  1  0  0  0
 73 85  2  0  0  0
 73 87  1  0  0  0
 74 82  1  0  0  0
 74 84  2  0  0  0
 74 85  1  0  0  0
 75 77  1  0  0  0
 75148  1  0  0  0
 75149  1  0  0  0
 75 79  1  0  0  0
 76 81  1  0  0  0
 76150  1  0  0  0
 76151  1  0  0  0
 76 80  1  0  0  0
 77 86  1  0  0  0
 77152  1  0  0  0
 77153  1  0  0  0
 78 80  1  0  0  0
 78 86  1  0  0  0
 78154  1  0  0  0
 78155  1  0  0  0
 79 80  1  0  0  0
 79 81  1  0  0  0
 79156  1  0  0  0
 80157  1  0  0  0
 81 87  1  0  0  0
 81158  1  0  0  0
 82159  1  0  0  0
 82160  1  0  0  0
 82161  1  0  0  0
 83162  1  0  0  0
 83163  1  0  0  0
 87164  1  0  0  0
M  ISO  4   1 100  68 101  83 101  86 100
M  END
> <chiral flag>
0

> <version>
0

> <s_m_source_file>
/data/baiqing/PycharmProjects/Reinvent-master-3.2/result/LINK_invent/BTK/process_docking_weight1_custom_sum_contain_oxygen_bond_distance_aromatic_linkinvent_7_9_3/rearranged_h_0171.sdf

> <i_m_source_file_index>
73

> <r_mmod_Potential_Energy-OPLS-2005>
-147.41975402832

> <r_mmod_Stretch_Energy-OPLS-2005>
46.93505859375

> <r_mmod_Bend_Energy-OPLS-2005>
136.921630859375

> <r_mmod_Torsional_Energy-OPLS-2005>
371.466033935547

> <r_mmod_Improper_Torsional_Energy-OPLS-2005>
9.08192539215088

> <r_mmod_Van_der_Waal_Energy-OPLS-2005>
155.629333496094

> <r_mmod_Electrostatic_Energy-OPLS-2005>
-679.921203613281

> <r_mmod_Solvation_Energy-OPLS-2005>
-208.549209594727

> <b_mmod_Minimization_Converged-OPLS-2005>
0

> <r_mmod_RMS_Derivative-OPLS-2005>
7.53605461120605

$$$$
73
                    3D
 Structure written by MMmdl.
166175  0  0  1  0            999 V2000
  -30.4493  -15.2024   20.3796 C   0  0  0  0  0  0
  -30.4452  -12.7608   19.5240 C   0  0  0  0  0  0
  -29.5387  -12.5713   18.2826 C   0  0  0  0  0  0
  -28.0817  -12.3065   18.7025 C   0  0  0  0  0  0
  -27.6172  -13.2674   19.8262 C   0  0  2  0  0  0
  -28.6528  -13.4065   20.9627 C   0  0  0  0  0  0
  -25.2385  -13.8171   20.5694 C   0  0  0  0  0  0
  -24.1746  -13.0393   20.9272 C   0  0  0  0  0  0
  -24.6412  -11.6896   20.8776 C   0  0  0  0  0  0
  -23.9097  -10.4276   21.0412 C   0  0  0  0  0  0
  -24.3642   -9.4193   21.9188 C   0  0  0  0  0  0
  -23.6302   -8.2236   22.0754 C   0  0  0  0  0  0
  -22.4281   -8.0283   21.3550 C   0  0  0  0  0  0
  -21.9926   -9.0256   20.4647 C   0  0  0  0  0  0
  -22.7267  -10.2126   20.3059 C   0  0  0  0  0  0
  -21.6861   -6.0733   22.5279 C   0  0  0  0  0  0
  -21.4015   -6.5632   23.8214 C   0  0  0  0  0  0
  -21.3662   -5.6785   24.9175 C   0  0  0  0  0  0
  -21.6048   -4.3050   24.7222 C   0  0  0  0  0  0
  -21.8820   -3.8145   23.4341 C   0  0  0  0  0  0
  -21.9201   -4.6961   22.3397 C   0  0  0  0  0  0
  -22.7766  -13.5164   21.1905 C   0  0  0  0  0  0
  -22.1666   -4.2151   21.0972 F   0  0  0  0  0  0
  -21.5637   -3.4530   25.7733 F   0  0  0  0  0  0
  -29.8995  -13.8950   20.3499 N   0  0  0  0  0  0
  -26.2839  -12.9464   20.3195 N   0  0  0  0  0  0
  -25.9349  -11.6578   20.5724 N   0  0  0  0  0  0
  -22.0414  -12.8164   22.0465 N   0  0  0  0  0  0
  -25.3924  -15.1866   20.3989 N   0  0  0  0  0  0
  -31.6633  -15.2268   20.1317 O   0  0  0  0  0  0
  -21.6649   -6.8878   21.4245 O   0  0  0  0  0  0
  -22.3451  -14.5467   20.6730 O   0  0  0  0  0  0
  -24.6567  -31.8293   23.1750 C   0  0  0  0  0  0
  -25.9271  -32.4622   23.8202 C   0  0  1  0  0  0
  -27.2269  -26.9906   20.1841 C   0  0  0  0  0  0
  -25.5961  -33.8434   24.2112 N   0  0  0  0  0  0
  -23.4695  -30.4411   21.5234 C   0  0  2  0  0  0
  -24.9226  -28.8339   20.1190 C   0  0  0  0  0  0
  -22.7636  -29.4469   22.4814 C   0  0  0  0  0  0
  -18.0316  -28.1401   22.8470 C   0  0  0  0  0  0
  -24.1494  -36.7221   23.2647 C   0  0  0  0  0  0
  -26.0340  -30.6575   21.3950 C   0  0  0  0  0  0
  -26.1051  -29.2514   20.7427 C   0  0  0  0  0  0
  -27.2558  -28.3521   20.7456 C   0  0  0  0  0  0
  -26.0136  -26.7046   19.5216 C   0  0  0  0  0  0
  -24.8984  -27.5789   19.4887 C   0  0  0  0  0  0
  -23.7059  -29.7549   20.1502 C   0  0  0  0  0  0
  -25.4135  -36.2989   24.0306 C   0  0  1  0  0  0
  -20.5938  -28.3739   23.1201 C   0  0  2  0  0  0
  -20.6794  -26.9426   22.5402 C   0  0  0  0  0  0
  -19.5769  -26.6375   21.5210 C   0  0  0  0  0  0
  -18.1950  -26.7937   22.1617 C   0  0  0  0  0  0
  -19.1577  -28.8891   23.2822 C   0  0  0  0  0  0
  -18.9487  -30.1481   23.8857 C   0  0  0  0  0  0
  -17.6479  -30.6591   24.0554 C   0  0  0  0  0  0
  -25.9092  -34.9368   23.5026 C   0  0  0  0  0  0
  -16.5369  -29.9079   23.6340 C   0  0  0  0  0  0
  -16.7297  -28.6499   23.0360 C   0  0  0  0  0  0
  -26.4548  -31.6544   25.0699 C   0  0  0  0  0  0
  -25.3691  -31.3767   26.1363 C   0  0  0  0  0  0
  -27.0441  -30.2924   24.6384 C   0  0  0  0  0  0
  -27.6055  -32.4343   25.7494 C   0  0  0  0  0  0
  -27.5578  -37.1766   24.8464 C   0  0  0  0  0  0
  -21.4313  -29.3040   22.3563 N   0  0  0  0  0  0
  -26.4286  -37.3718   23.9406 N   0  0  0  0  0  0
  -24.7410  -31.0023   22.0850 N   0  0  0  0  0  0
  -23.4209  -28.8035   23.3033 O   0  0  0  0  0  0
  -28.2708  -25.9459   20.2013 O   0  0  0  0  0  0
  -26.5698  -34.8894   22.4617 O   0  0  0  0  0  0
  -23.5650  -32.1232   23.6876 O   0  0  0  0  0  0
  -28.1867  -20.2483   20.0914 C   0  0  0  0  0  0
  -30.4680  -20.5421   20.4049 C   0  0  0  0  0  0
  -29.2003  -21.2727   20.1950 C   0  0  0  0  0  0
  -28.3633  -18.7809   20.1716 C   0  0  0  0  0  0
  -30.6353  -19.0522   20.5814 C   0  0  0  0  0  0
  -29.5992  -18.0334   20.3930 C   0  0  0  0  0  0
  -32.1414  -22.3086   19.2919 C   0  0  0  0  0  0
  -32.9722  -21.1178   19.6378 C   0  0  0  0  0  0
  -31.7158  -21.4119   20.4474 C   0  0  0  0  0  0
  -27.0986  -17.9622   20.0206 C   0  0  0  0  0  0
  -32.3083  -18.9341   22.5271 C   0  0  0  0  0  0
  -28.7975  -23.0391   18.3173 C   0  0  0  0  0  0
  -31.9783  -18.5136   21.0859 C   0  0  0  0  0  0
  -28.0854  -24.3442   20.4335 C   0  0  0  0  0  0
  -29.0255  -22.9743   19.8357 C   0  0  1  0  0  0
  -29.6192  -16.4163   20.4939 N   0  0  0  0  0  0
  -31.4686  -12.9563   19.1989 H   0  0  0  0  0  0
  -30.4948  -11.8424   20.1105 H   0  0  0  0  0  0
  -29.9066  -11.7521   17.6639 H   0  0  0  0  0  0
  -29.5816  -13.4671   17.6614 H   0  0  0  0  0  0
  -28.0230  -11.2759   19.0545 H   0  0  0  0  0  0
  -27.4194  -12.3733   17.8388 H   0  0  0  0  0  0
  -27.5439  -14.2446   19.3486 H   0  0  0  0  0  0
  -28.8016  -12.4603   21.4846 H   0  0  0  0  0  0
  -28.3002  -14.1203   21.7094 H   0  0  0  0  0  0
  -25.2784   -9.5666   22.4765 H   0  0  0  0  0  0
  -24.0013   -7.4622   22.7456 H   0  0  0  0  0  0
  -21.0864   -8.8767   19.8941 H   0  0  0  0  0  0
  -22.3724  -10.9664   19.6170 H   0  0  0  0  0  0
  -21.2001   -7.6138   23.9713 H   0  0  0  0  0  0
  -21.1485   -6.0516   25.9077 H   0  0  0  0  0  0
  -22.0599   -2.7607   23.2839 H   0  0  0  0  0  0
  -22.4022  -11.9838   22.4892 H   0  0  0  0  0  0
  -21.1022  -13.1177   22.2643 H   0  0  0  0  0  0
  -24.6012  -15.8170   20.4703 H   0  0  0  0  0  0
  -26.1913  -15.6024   19.9433 H   0  0  0  0  0  0
  -26.7337  -32.5191   23.0922 H   0  0  0  0  0  0
  -25.0065  -33.9527   25.0233 H   0  0  0  0  0  0
  -22.7797  -31.2703   21.3543 H   0  0  0  0  0  0
  -23.3771  -35.9533   23.3273 H   0  0  0  0  0  0
  -24.3577  -36.8896   22.2067 H   0  0  0  0  0  0
  -23.7231  -37.6395   23.6720 H   0  0  0  0  0  0
  -26.2068  -31.4003   20.6157 H   0  0  0  0  0  0
  -26.8976  -30.7149   22.0456 H   0  0  0  0  0  0
  -28.1591  -28.6770   21.2425 H   0  0  0  0  0  0
  -25.9086  -25.7480   19.0307 H   0  0  0  0  0  0
  -24.0000  -27.2535   18.9826 H   0  0  0  0  0  0
  -23.8556  -30.5217   19.3892 H   0  0  0  0  0  0
  -22.8182  -29.2023   19.8371 H   0  0  0  0  0  0
  -25.1333  -36.1799   25.0800 H   0  0  0  0  0  0
  -21.0025  -28.3337   24.1323 H   0  0  0  0  0  0
  -20.5668  -26.2356   23.3639 H   0  0  0  0  0  0
  -21.6660  -26.7407   22.1210 H   0  0  0  0  0  0
  -19.6926  -25.6274   21.1270 H   0  0  0  0  0  0
  -19.6709  -27.3162   20.6720 H   0  0  0  0  0  0
  -17.4221  -26.6681   21.4016 H   0  0  0  0  0  0
  -18.0340  -26.0088   22.9022 H   0  0  0  0  0  0
  -19.7962  -30.7308   24.2212 H   0  0  0  0  0  0
  -17.5028  -31.6270   24.5152 H   0  0  0  0  0  0
  -15.5367  -30.2959   23.7692 H   0  0  0  0  0  0
  -15.8700  -28.0797   22.7100 H   0  0  0  0  0  0
  -24.5866  -30.7135   25.7657 H   0  0  0  0  0  0
  -24.8887  -32.2956   26.4728 H   0  0  0  0  0  0
  -25.7926  -30.8956   27.0186 H   0  0  0  0  0  0
  -26.3092  -29.6607   24.1380 H   0  0  0  0  0  0
  -27.3988  -29.7279   25.5017 H   0  0  0  0  0  0
  -27.9028  -30.4126   23.9777 H   0  0  0  0  0  0
  -27.2630  -33.3667   26.1995 H   0  0  0  0  0  0
  -28.3902  -32.6868   25.0350 H   0  0  0  0  0  0
  -28.0686  -31.8523   26.5469 H   0  0  0  0  0  0
  -28.2579  -38.0080   24.7525 H   0  0  0  0  0  0
  -28.1095  -36.2608   24.6282 H   0  0  0  0  0  0
  -27.2294  -37.1399   25.8867 H   0  0  0  0  0  0
  -20.9558  -29.8727   21.6698 H   0  0  0  0  0  0
  -26.0142  -38.2780   24.1412 H   0  0  0  0  0  0
  -27.1891  -20.6136   19.8888 H   0  0  0  0  0  0
  -31.6164  -22.2487   18.3432 H   0  0  0  0  0  0
  -32.5614  -23.2840   19.5311 H   0  0  0  0  0  0
  -33.9370  -21.3088   20.1038 H   0  0  0  0  0  0
  -32.9590  -20.3206   18.8968 H   0  0  0  0  0  0
  -31.8402  -21.8354   21.4421 H   0  0  0  0  0  0
  -26.2198  -18.5857   19.8525 H   0  0  0  0  0  0
  -26.9254  -17.3908   20.9323 H   0  0  0  0  0  0
  -27.1865  -17.2752   19.1788 H   0  0  0  0  0  0
  -33.2318  -18.4607   22.8606 H   0  0  0  0  0  0
  -31.5172  -18.6342   23.2148 H   0  0  0  0  0  0
  -32.4473  -20.0080   22.6316 H   0  0  0  0  0  0
  -29.4963  -22.4130   17.7664 H   0  0  0  0  0  0
  -28.9018  -24.0578   17.9427 H   0  0  0  0  0  0
  -27.7941  -22.6960   18.0659 H   0  0  0  0  0  0
  -32.7921  -18.7451   20.4074 H   0  0  0  0  0  0
  -31.9641  -17.4330   21.0927 H   0  0  0  0  0  0
  -28.1351  -24.2585   21.5188 H   0  0  0  0  0  0
  -27.0443  -24.1195   20.2051 H   0  0  0  0  0  0
  -30.0186  -23.3633   20.0299 H   0  0  0  0  0  0
  -28.6756  -16.0851   20.6189 H   0  0  0  0  0  0
  1 25  1  0  0  0
  1 30  2  0  0  0
  1 86  1  0  0  0
  2  3  1  0  0  0
  2 25  1  0  0  0
  2 87  1  0  0  0
  2 88  1  0  0  0
  3  4  1  0  0  0
  3 89  1  0  0  0
  3 90  1  0  0  0
  4  5  1  0  0  0
  4 91  1  0  0  0
  4 92  1  0  0  0
  5  6  1  0  0  0
  5 26  1  0  0  0
  5 93  1  0  0  0
  6 25  1  0  0  0
  6 94  1  0  0  0
  6 95  1  0  0  0
  7  8  2  0  0  0
  7 26  1  0  0  0
  7 29  1  0  0  0
  8  9  1  0  0  0
  8 22  1  0  0  0
  9 10  1  0  0  0
  9 27  2  0  0  0
 10 11  2  0  0  0
 10 15  1  0  0  0
 11 12  1  0  0  0
 11 96  1  0  0  0
 12 13  2  0  0  0
 12 97  1  0  0  0
 13 14  1  0  0  0
 13 31  1  0  0  0
 14 15  2  0  0  0
 14 98  1  0  0  0
 15 99  1  0  0  0
 16 17  2  0  0  0
 16 21  1  0  0  0
 16 31  1  0  0  0
 17 18  1  0  0  0
 17100  1  0  0  0
 18 19  2  0  0  0
 18101  1  0  0  0
 19 20  1  0  0  0
 19 24  1  0  0  0
 20 21  2  0  0  0
 20102  1  0  0  0
 21 23  1  0  0  0
 22 28  1  0  0  0
 22 32  2  0  0  0
 26 27  1  0  0  0
 28103  1  0  0  0
 28104  1  0  0  0
 29105  1  0  0  0
 29106  1  0  0  0
 33 34  1  0  0  0
 33 66  1  0  0  0
 33 70  2  0  0  0
 34 36  1  0  0  0
 34 59  1  0  0  0
 34107  1  0  0  0
 35 44  2  0  0  0
 35 45  1  0  0  0
 35 68  1  0  0  0
 36 56  1  0  0  0
 36108  1  0  0  0
 37 39  1  0  0  0
 37 47  1  0  0  0
 37 66  1  0  0  0
 37109  1  0  0  0
 38 43  2  0  0  0
 38 46  1  0  0  0
 38 47  1  0  0  0
 39 64  1  0  0  0
 39 67  2  0  0  0
 40 52  1  0  0  0
 40 53  2  0  0  0
 40 58  1  0  0  0
 41110  1  0  0  0
 41111  1  0  0  0
 41112  1  0  0  0
 41 48  1  0  0  0
 42 43  1  0  0  0
 42 66  1  0  0  0
 42113  1  0  0  0
 42114  1  0  0  0
 43 44  1  0  0  0
 44115  1  0  0  0
 45 46  2  0  0  0
 45116  1  0  0  0
 46117  1  0  0  0
 47118  1  0  0  0
 47119  1  0  0  0
 48 56  1  0  0  0
 48 65  1  0  0  0
 48120  1  0  0  0
 49 50  1  0  0  0
 49 53  1  0  0  0
 49 64  1  0  0  0
 49121  1  0  0  0
 50 51  1  0  0  0
 50122  1  0  0  0
 50123  1  0  0  0
 51 52  1  0  0  0
 51124  1  0  0  0
 51125  1  0  0  0
 52126  1  0  0  0
 52127  1  0  0  0
 53 54  1  0  0  0
 54 55  2  0  0  0
 54128  1  0  0  0
 55 57  1  0  0  0
 55129  1  0  0  0
 56 69  2  0  0  0
 57 58  2  0  0  0
 57130  1  0  0  0
 58131  1  0  0  0
 59 60  1  0  0  0
 59 61  1  0  0  0
 59 62  1  0  0  0
 60132  1  0  0  0
 60133  1  0  0  0
 60134  1  0  0  0
 61135  1  0  0  0
 61136  1  0  0  0
 61137  1  0  0  0
 62138  1  0  0  0
 62139  1  0  0  0
 62140  1  0  0  0
 63 65  1  0  0  0
 63141  1  0  0  0
 63142  1  0  0  0
 63143  1  0  0  0
 64144  1  0  0  0
 65145  1  0  0  0
 68 84  1  0  0  0
 71 73  2  0  0  0
 71 74  1  0  0  0
 71146  1  0  0  0
 72 73  1  0  0  0
 72 75  2  0  0  0
 72 79  1  0  0  0
 73 85  1  0  0  0
 74 76  2  0  0  0
 74 80  1  0  0  0
 75 76  1  0  0  0
 75 83  1  0  0  0
 76 86  1  0  0  0
 77 78  1  0  0  0
 77 79  1  0  0  0
 77147  1  0  0  0
 77148  1  0  0  0
 78 79  1  0  0  0
 78149  1  0  0  0
 78150  1  0  0  0
 79151  1  0  0  0
 80152  1  0  0  0
 80153  1  0  0  0
 80154  1  0  0  0
 81 83  1  0  0  0
 81155  1  0  0  0
 81156  1  0  0  0
 81157  1  0  0  0
 82158  1  0  0  0
 82159  1  0  0  0
 82160  1  0  0  0
 82 85  1  0  0  0
 83161  1  0  0  0
 83162  1  0  0  0
 84 85  1  0  0  0
 84163  1  0  0  0
 84164  1  0  0  0
 85165  1  0  0  0
 86166  1  0  0  0
M  ISO  4   1 100  68 101  84 101  86 100
M  END
> <chiral flag>
0

> <version>
0

> <s_m_source_file>
/data/baiqing/PycharmProjects/Reinvent-master-3.2/result/LINK_invent/BTK/process_docking_weight1_custom_sum_contain_oxygen_bond_distance_aromatic_linkinvent_7_9_3/rearranged_h_0171.sdf

> <i_m_source_file_index>
74

> <r_mmod_Potential_Energy-OPLS-2005>
1088.55395507812

> <r_mmod_Stretch_Energy-OPLS-2005>
478.539031982422

> <r_mmod_Bend_Energy-OPLS-2005>
425.563629150391

> <r_mmod_Torsional_Energy-OPLS-2005>
268.820465087891

> <r_mmod_Improper_Torsional_Energy-OPLS-2005>
6.91368532180786

> <r_mmod_Van_der_Waal_Energy-OPLS-2005>
136.801788330078

> <r_mmod_Electrostatic_Energy-OPLS-2005>
-405.333740234375

> <r_mmod_Solvation_Energy-OPLS-2005>
-198.827911376953

> <b_mmod_Minimization_Converged-OPLS-2005>
0

> <r_mmod_RMS_Derivative-OPLS-2005>
1.25656068325043

$$$$
74
                    3D
 Structure written by MMmdl.
168177  0  0  1  0            999 V2000
  -30.6363  -14.8542   20.4339 C   0  0  0  0  0  0
  -30.4183  -12.5351   19.4783 C   0  0  0  0  0  0
  -29.5001  -12.5053   18.2395 C   0  0  0  0  0  0
  -28.0366  -12.2981   18.6679 C   0  0  0  0  0  0
  -27.6223  -13.2331   19.8331 C   0  0  2  0  0  0
  -28.6727  -13.2797   20.9639 C   0  0  0  0  0  0
  -25.2447  -13.8177   20.5731 C   0  0  0  0  0  0
  -24.1756  -13.0418   20.9243 C   0  0  0  0  0  0
  -24.6358  -11.6902   20.8786 C   0  0  0  0  0  0
  -23.9046  -10.4277   21.0429 C   0  0  0  0  0  0
  -24.3605   -9.4194   21.9199 C   0  0  0  0  0  0
  -23.6283   -8.2228   22.0759 C   0  0  0  0  0  0
  -22.4267   -8.0268   21.3545 C   0  0  0  0  0  0
  -21.9901   -9.0243   20.4648 C   0  0  0  0  0  0
  -22.7225  -10.2125   20.3066 C   0  0  0  0  0  0
  -21.6849   -6.0727   22.5278 C   0  0  0  0  0  0
  -21.4011   -6.5634   23.8209 C   0  0  0  0  0  0
  -21.3660   -5.6791   24.9174 C   0  0  0  0  0  0
  -21.6045   -4.3052   24.7228 C   0  0  0  0  0  0
  -21.8821   -3.8141   23.4347 C   0  0  0  0  0  0
  -21.9190   -4.6955   22.3402 C   0  0  0  0  0  0
  -22.7781  -13.5205   21.1885 C   0  0  0  0  0  0
  -22.1660   -4.2140   21.0981 F   0  0  0  0  0  0
  -21.5631   -3.4539   25.7742 F   0  0  0  0  0  0
  -29.9530  -13.6486   20.3493 N   0  0  0  0  0  0
  -26.2853  -12.9376   20.3281 N   0  0  0  0  0  0
  -25.9285  -11.6524   20.5789 N   0  0  0  0  0  0
  -22.0429  -12.8201   22.0442 N   0  0  0  0  0  0
  -25.4114  -15.1900   20.4138 N   0  0  0  0  0  0
  -31.8496  -14.8283   20.2040 O   0  0  0  0  0  0
  -21.6633   -6.8868   21.4236 O   0  0  0  0  0  0
  -22.3472  -14.5509   20.6722 O   0  0  0  0  0  0
  -24.6378  -31.8493   23.1941 C   0  0  0  0  0  0
  -25.9176  -32.4717   23.8305 C   0  0  1  0  0  0
  -27.2104  -27.1935   20.1473 C   0  0  0  0  0  0
  -25.5945  -33.8523   24.2218 N   0  0  0  0  0  0
  -23.4376  -30.4711   21.5389 C   0  0  2  0  0  0
  -24.8849  -28.9068   20.1130 C   0  0  0  0  0  0
  -22.7537  -29.4571   22.4886 C   0  0  0  0  0  0
  -18.0297  -28.1387   22.8479 C   0  0  0  0  0  0
  -24.1490  -36.7268   23.2641 C   0  0  0  0  0  0
  -25.9895  -30.7409   21.3848 C   0  0  0  0  0  0
  -26.0606  -29.3570   20.7280 C   0  0  0  0  0  0
  -27.2284  -28.5157   20.7286 C   0  0  0  0  0  0
  -26.0157  -26.8338   19.4882 C   0  0  0  0  0  0
  -24.8714  -27.6561   19.4786 C   0  0  0  0  0  0
  -23.6606  -29.8041   20.1566 C   0  0  0  0  0  0
  -25.4121  -36.3043   24.0316 C   0  0  1  0  0  0
  -20.5907  -28.3706   23.1246 C   0  0  2  0  0  0
  -20.6781  -26.9416   22.5400 C   0  0  0  0  0  0
  -19.5757  -26.6378   21.5205 C   0  0  0  0  0  0
  -18.1939  -26.7928   22.1621 C   0  0  0  0  0  0
  -19.1554  -28.8865   23.2855 C   0  0  0  0  0  0
  -18.9475  -30.1463   23.8879 C   0  0  0  0  0  0
  -17.6473  -30.6585   24.0558 C   0  0  0  0  0  0
  -25.9068  -34.9416   23.5072 C   0  0  0  0  0  0
  -16.5362  -29.9083   23.6331 C   0  0  0  0  0  0
  -16.7283  -28.6499   23.0355 C   0  0  0  0  0  0
  -26.4516  -31.6575   25.0730 C   0  0  0  0  0  0
  -25.3718  -31.3749   26.1439 C   0  0  0  0  0  0
  -27.0382  -30.2980   24.6279 C   0  0  0  0  0  0
  -27.6045  -32.4348   25.7515 C   0  0  0  0  0  0
  -27.5574  -37.1786   24.8465 C   0  0  0  0  0  0
  -21.4237  -29.3044   22.3632 N   0  0  0  0  0  0
  -26.4284  -37.3754   23.9410 N   0  0  0  0  0  0
  -24.7077  -31.0403   22.0947 N   0  0  0  0  0  0
  -23.4207  -28.8113   23.3009 O   0  0  0  0  0  0
  -28.2742  -26.2421   20.1704 O   0  0  0  0  0  0
  -26.5653  -34.8903   22.4650 O   0  0  0  0  0  0
  -23.5511  -32.1345   23.7196 O   0  0  0  0  0  0
  -29.4629  -20.9344   20.0286 C   0  0  0  0  0  0
  -28.7125  -22.0940   20.5700 C   0  0  0  0  0  0
  -28.8290  -23.4775   20.0473 C   0  0  0  0  0  0
  -30.3254  -21.3080   18.9565 C   0  0  0  0  0  0
  -29.7221  -23.5966   18.9646 C   0  0  0  0  0  0
  -28.7604  -18.2508   19.6341 C   0  0  0  0  0  0
  -30.7512  -18.6624   20.9594 C   0  0  0  0  0  0
  -28.7820  -16.7028   20.0935 C   0  0  0  0  0  0
  -30.6742  -17.1756   21.5252 C   0  0  0  0  0  0
  -29.4052  -19.3672   20.5526 C   0  0  0  0  0  0
  -31.2735  -20.3635   18.2353 C   0  0  0  0  0  0
  -29.9581  -24.9084   18.2396 C   0  0  0  0  0  0
  -26.4034  -21.2892   21.2498 C   0  0  0  0  0  0
  -27.7496  -21.8473   21.7254 C   0  0  0  0  0  0
  -27.9847  -24.7826   20.5494 C   0  0  0  0  0  0
  -30.4313  -22.5636   18.4691 N   0  0  0  0  0  0
  -30.0192  -16.1059   20.7002 N   0  0  0  0  0  0
  -31.4561  -12.6533   19.1627 H   0  0  0  0  0  0
  -30.3782  -11.5858   20.0150 H   0  0  0  0  0  0
  -29.8065  -11.7105   17.5581 H   0  0  0  0  0  0
  -29.5947  -13.4405   17.6852 H   0  0  0  0  0  0
  -27.9301  -11.2575   18.9766 H   0  0  0  0  0  0
  -27.3681  -12.4320   17.8167 H   0  0  0  0  0  0
  -27.5680  -14.2211   19.3874 H   0  0  0  0  0  0
  -28.7470  -12.3184   21.4739 H   0  0  0  0  0  0
  -28.3879  -14.0138   21.7196 H   0  0  0  0  0  0
  -25.2745   -9.5674   22.4782 H   0  0  0  0  0  0
  -23.9989   -7.4618   22.7482 H   0  0  0  0  0  0
  -21.0833   -8.8760   19.8954 H   0  0  0  0  0  0
  -22.3679  -10.9669   19.6183 H   0  0  0  0  0  0
  -21.2002   -7.6144   23.9708 H   0  0  0  0  0  0
  -21.1483   -6.0524   25.9076 H   0  0  0  0  0  0
  -22.0601   -2.7603   23.2853 H   0  0  0  0  0  0
  -22.4049  -11.9865   22.4836 H   0  0  0  0  0  0
  -21.1044  -13.1224   22.2646 H   0  0  0  0  0  0
  -24.6442  -15.8427   20.5316 H   0  0  0  0  0  0
  -26.2610  -15.6321   20.0900 H   0  0  0  0  0  0
  -26.7246  -32.5341   23.1040 H   0  0  0  0  0  0
  -25.0062  -33.9652   25.0343 H   0  0  0  0  0  0
  -22.7365  -31.2950   21.3891 H   0  0  0  0  0  0
  -23.3751  -35.9601   23.3295 H   0  0  0  0  0  0
  -24.3567  -36.8914   22.2056 H   0  0  0  0  0  0
  -23.7248  -37.6462   23.6687 H   0  0  0  0  0  0
  -26.1381  -31.4978   20.6136 H   0  0  0  0  0  0
  -26.8627  -30.7896   22.0234 H   0  0  0  0  0  0
  -28.1278  -28.8552   21.2228 H   0  0  0  0  0  0
  -25.9480  -25.8845   18.9773 H   0  0  0  0  0  0
  -23.9761  -27.3097   18.9807 H   0  0  0  0  0  0
  -23.7940  -30.5800   19.4020 H   0  0  0  0  0  0
  -22.7764  -29.2445   19.8463 H   0  0  0  0  0  0
  -25.1303  -36.1871   25.0808 H   0  0  0  0  0  0
  -20.9994  -28.3289   24.1368 H   0  0  0  0  0  0
  -20.5666  -26.2319   23.3614 H   0  0  0  0  0  0
  -21.6649  -26.7420   22.1203 H   0  0  0  0  0  0
  -19.6915  -25.6283   21.1247 H   0  0  0  0  0  0
  -19.6692  -27.3174   20.6725 H   0  0  0  0  0  0
  -17.4203  -26.6665   21.4031 H   0  0  0  0  0  0
  -18.0345  -26.0072   22.9021 H   0  0  0  0  0  0
  -19.7953  -30.7282   24.2239 H   0  0  0  0  0  0
  -17.5029  -31.6262   24.5165 H   0  0  0  0  0  0
  -15.5363  -30.2981   23.7663 H   0  0  0  0  0  0
  -15.8682  -28.0809   22.7086 H   0  0  0  0  0  0
  -24.5896  -30.7095   25.7767 H   0  0  0  0  0  0
  -24.8907  -32.2928   26.4829 H   0  0  0  0  0  0
  -25.8018  -30.8949   27.0240 H   0  0  0  0  0  0
  -26.2993  -29.6711   24.1277 H   0  0  0  0  0  0
  -27.4004  -29.7265   25.4835 H   0  0  0  0  0  0
  -27.8895  -30.4231   23.9585 H   0  0  0  0  0  0
  -27.2625  -33.3662   26.2043 H   0  0  0  0  0  0
  -28.3880  -32.6897   25.0365 H   0  0  0  0  0  0
  -28.0690  -31.8516   26.5477 H   0  0  0  0  0  0
  -28.2578  -38.0096   24.7511 H   0  0  0  0  0  0
  -28.1083  -36.2620   24.6290 H   0  0  0  0  0  0
  -27.2286  -37.1433   25.8867 H   0  0  0  0  0  0
  -20.9434  -29.8775   21.6834 H   0  0  0  0  0  0
  -26.0150  -38.2818   24.1427 H   0  0  0  0  0  0
  -27.7227  -18.5293   19.4478 H   0  0  0  0  0  0
  -29.2170  -18.2788   18.6499 H   0  0  0  0  0  0
  -31.4328  -18.6201   20.1158 H   0  0  0  0  0  0
  -31.2505  -19.2844   21.7033 H   0  0  0  0  0  0
  -28.5208  -16.1169   19.2143 H   0  0  0  0  0  0
  -27.9810  -16.5476   20.8162 H   0  0  0  0  0  0
  -30.1420  -17.2025   22.4766 H   0  0  0  0  0  0
  -31.6875  -16.8627   21.7832 H   0  0  0  0  0  0
  -28.8038  -19.3687   21.4583 H   0  0  0  0  0  0
  -30.8527  -19.3843   18.0423 H   0  0  0  0  0  0
  -32.1969  -20.2489   18.8030 H   0  0  0  0  0  0
  -31.5525  -20.7625   17.2589 H   0  0  0  0  0  0
  -30.4133  -25.6384   18.9085 H   0  0  0  0  0  0
  -29.0203  -25.3131   17.8587 H   0  0  0  0  0  0
  -30.6276  -24.7828   17.3879 H   0  0  0  0  0  0
  -25.7385  -21.1062   22.0941 H   0  0  0  0  0  0
  -26.5289  -20.3469   20.7170 H   0  0  0  0  0  0
  -25.9064  -21.9896   20.5785 H   0  0  0  0  0  0
  -27.5766  -22.7616   22.2881 H   0  0  0  0  0  0
  -28.2049  -21.1761   22.4521 H   0  0  0  0  0  0
  -28.0619  -24.7888   21.6358 H   0  0  0  0  0  0
  -26.9412  -24.5414   20.3543 H   0  0  0  0  0  0
  1 25  1  0  0  0
  1 30  2  0  0  0
  1 87  1  0  0  0
  2  3  1  0  0  0
  2 25  1  0  0  0
  2 88  1  0  0  0
  2 89  1  0  0  0
  3  4  1  0  0  0
  3 90  1  0  0  0
  3 91  1  0  0  0
  4  5  1  0  0  0
  4 92  1  0  0  0
  4 93  1  0  0  0
  5  6  1  0  0  0
  5 26  1  0  0  0
  5 94  1  0  0  0
  6 25  1  0  0  0
  6 95  1  0  0  0
  6 96  1  0  0  0
  7  8  2  0  0  0
  7 26  1  0  0  0
  7 29  1  0  0  0
  8  9  1  0  0  0
  8 22  1  0  0  0
  9 10  1  0  0  0
  9 27  2  0  0  0
 10 11  2  0  0  0
 10 15  1  0  0  0
 11 12  1  0  0  0
 11 97  1  0  0  0
 12 13  2  0  0  0
 12 98  1  0  0  0
 13 14  1  0  0  0
 13 31  1  0  0  0
 14 15  2  0  0  0
 14 99  1  0  0  0
 15100  1  0  0  0
 16 17  2  0  0  0
 16 21  1  0  0  0
 16 31  1  0  0  0
 17 18  1  0  0  0
 17101  1  0  0  0
 18 19  2  0  0  0
 18102  1  0  0  0
 19 20  1  0  0  0
 19 24  1  0  0  0
 20 21  2  0  0  0
 20103  1  0  0  0
 21 23  1  0  0  0
 22 28  1  0  0  0
 22 32  2  0  0  0
 26 27  1  0  0  0
 28104  1  0  0  0
 28105  1  0  0  0
 29106  1  0  0  0
 29107  1  0  0  0
 33 34  1  0  0  0
 33 66  1  0  0  0
 33 70  2  0  0  0
 34 36  1  0  0  0
 34 59  1  0  0  0
 34108  1  0  0  0
 35 44  2  0  0  0
 35 45  1  0  0  0
 35 68  1  0  0  0
 36 56  1  0  0  0
 36109  1  0  0  0
 37 39  1  0  0  0
 37 47  1  0  0  0
 37 66  1  0  0  0
 37110  1  0  0  0
 38 43  2  0  0  0
 38 46  1  0  0  0
 38 47  1  0  0  0
 39 64  1  0  0  0
 39 67  2  0  0  0
 40 52  1  0  0  0
 40 53  2  0  0  0
 40 58  1  0  0  0
 41111  1  0  0  0
 41112  1  0  0  0
 41113  1  0  0  0
 41 48  1  0  0  0
 42 43  1  0  0  0
 42 66  1  0  0  0
 42114  1  0  0  0
 42115  1  0  0  0
 43 44  1  0  0  0
 44116  1  0  0  0
 45 46  2  0  0  0
 45117  1  0  0  0
 46118  1  0  0  0
 47119  1  0  0  0
 47120  1  0  0  0
 48 56  1  0  0  0
 48 65  1  0  0  0
 48121  1  0  0  0
 49 50  1  0  0  0
 49 53  1  0  0  0
 49 64  1  0  0  0
 49122  1  0  0  0
 50 51  1  0  0  0
 50123  1  0  0  0
 50124  1  0  0  0
 51 52  1  0  0  0
 51125  1  0  0  0
 51126  1  0  0  0
 52127  1  0  0  0
 52128  1  0  0  0
 53 54  1  0  0  0
 54 55  2  0  0  0
 54129  1  0  0  0
 55 57  1  0  0  0
 55130  1  0  0  0
 56 69  2  0  0  0
 57 58  2  0  0  0
 57131  1  0  0  0
 58132  1  0  0  0
 59 60  1  0  0  0
 59 61  1  0  0  0
 59 62  1  0  0  0
 60133  1  0  0  0
 60134  1  0  0  0
 60135  1  0  0  0
 61136  1  0  0  0
 61137  1  0  0  0
 61138  1  0  0  0
 62139  1  0  0  0
 62140  1  0  0  0
 62141  1  0  0  0
 63 65  1  0  0  0
 63142  1  0  0  0
 63143  1  0  0  0
 63144  1  0  0  0
 64145  1  0  0  0
 65146  1  0  0  0
 68 85  1  0  0  0
 71 72  2  0  0  0
 71 74  1  0  0  0
 71 80  1  0  0  0
 72 73  1  0  0  0
 72 84  1  0  0  0
 73 75  2  0  0  0
 73 85  1  0  0  0
 74 81  1  0  0  0
 74 86  2  0  0  0
 75 82  1  0  0  0
 75 86  1  0  0  0
 76 78  1  0  0  0
 76 80  1  0  0  0
 76147  1  0  0  0
 76148  1  0  0  0
 77 79  1  0  0  0
 77 80  1  0  0  0
 77149  1  0  0  0
 77150  1  0  0  0
 78 87  1  0  0  0
 78151  1  0  0  0
 78152  1  0  0  0
 79 87  1  0  0  0
 79153  1  0  0  0
 79154  1  0  0  0
 80155  1  0  0  0
 81156  1  0  0  0
 81157  1  0  0  0
 81158  1  0  0  0
 82159  1  0  0  0
 82160  1  0  0  0
 82161  1  0  0  0
 83 84  1  0  0  0
 83162  1  0  0  0
 83163  1  0  0  0
 83164  1  0  0  0
 84165  1  0  0  0
 84166  1  0  0  0
 85167  1  0  0  0
 85168  1  0  0  0
M  ISO  4   1 100  68 101  85 101  87 100
M  END
> <chiral flag>
0

> <version>
0

> <s_m_source_file>
/data/baiqing/PycharmProjects/Reinvent-master-3.2/result/LINK_invent/BTK/process_docking_weight1_custom_sum_contain_oxygen_bond_distance_aromatic_linkinvent_7_9_3/rearranged_h_0171.sdf

> <i_m_source_file_index>
75

> <r_mmod_Potential_Energy-OPLS-2005>
413.294342041016

> <r_mmod_Stretch_Energy-OPLS-2005>
190.589462280273

> <r_mmod_Bend_Energy-OPLS-2005>
236.186569213867

> <r_mmod_Torsional_Energy-OPLS-2005>
341.445831298828

> <r_mmod_Improper_Torsional_Energy-OPLS-2005>
2.0627167224884

> <r_mmod_Van_der_Waal_Energy-OPLS-2005>
143.8564453125

> <r_mmod_Electrostatic_Energy-OPLS-2005>
-432.761535644531

> <r_mmod_Solvation_Energy-OPLS-2005>
-209.351638793945

> <b_mmod_Minimization_Converged-OPLS-2005>
0

> <r_mmod_RMS_Derivative-OPLS-2005>
0.635041236877441

$$$$
75
                    3D
 Structure written by MMmdl.
152161  0  0  1  0            999 V2000
  -30.4591  -15.2282   20.3757 C   0  0  0  0  0  0
  -30.4390  -12.7862   19.5138 C   0  0  0  0  0  0
  -29.5313  -12.5658   18.2785 C   0  0  0  0  0  0
  -28.0794  -12.2964   18.7110 C   0  0  0  0  0  0
  -27.6122  -13.2715   19.8204 C   0  0  2  0  0  0
  -28.6494  -13.4369   20.9514 C   0  0  0  0  0  0
  -25.2396  -13.8239   20.5741 C   0  0  0  0  0  0
  -24.1746  -13.0435   20.9257 C   0  0  0  0  0  0
  -24.6401  -11.6932   20.8770 C   0  0  0  0  0  0
  -23.9096  -10.4292   21.0410 C   0  0  0  0  0  0
  -24.3640   -9.4204   21.9187 C   0  0  0  0  0  0
  -23.6304   -8.2244   22.0756 C   0  0  0  0  0  0
  -22.4286   -8.0286   21.3542 C   0  0  0  0  0  0
  -21.9929   -9.0263   20.4646 C   0  0  0  0  0  0
  -22.7268  -10.2135   20.3057 C   0  0  0  0  0  0
  -21.6856   -6.0741   22.5277 C   0  0  0  0  0  0
  -21.4015   -6.5644   23.8210 C   0  0  0  0  0  0
  -21.3659   -5.6793   24.9171 C   0  0  0  0  0  0
  -21.6041   -4.3056   24.7217 C   0  0  0  0  0  0
  -21.8821   -3.8151   23.4339 C   0  0  0  0  0  0
  -21.9193   -4.6968   22.3398 C   0  0  0  0  0  0
  -22.7765  -13.5189   21.1903 C   0  0  0  0  0  0
  -22.1662   -4.2157   21.0974 F   0  0  0  0  0  0
  -21.5627   -3.4537   25.7730 F   0  0  0  0  0  0
  -29.8834  -13.9310   20.3206 N   0  0  0  0  0  0
  -26.2823  -12.9510   20.3217 N   0  0  0  0  0  0
  -25.9334  -11.6620   20.5729 N   0  0  0  0  0  0
  -22.0424  -12.8172   22.0457 N   0  0  0  0  0  0
  -25.4029  -15.1971   20.4165 N   0  0  0  0  0  0
  -31.6841  -15.2234   20.1904 O   0  0  0  0  0  0
  -21.6642   -6.8886   21.4240 O   0  0  0  0  0  0
  -22.3449  -14.5492   20.6741 O   0  0  0  0  0  0
  -24.6616  -31.8269   23.1732 C   0  0  0  0  0  0
  -25.9304  -32.4611   23.8184 C   0  0  1  0  0  0
  -27.2114  -26.9455   20.1825 C   0  0  0  0  0  0
  -25.5986  -33.8425   24.2097 N   0  0  0  0  0  0
  -23.4753  -30.4409   21.5228 C   0  0  2  0  0  0
  -24.9270  -28.8340   20.1153 C   0  0  0  0  0  0
  -22.7658  -29.4466   22.4790 C   0  0  0  0  0  0
  -18.0322  -28.1417   22.8484 C   0  0  0  0  0  0
  -24.1485  -36.7203   23.2651 C   0  0  0  0  0  0
  -26.0448  -30.6391   21.4021 C   0  0  0  0  0  0
  -26.1122  -29.2304   20.7477 C   0  0  0  0  0  0
  -27.2521  -28.3080   20.7568 C   0  0  0  0  0  0
  -25.9996  -26.7056   19.4942 C   0  0  0  0  0  0
  -24.8955  -27.5912   19.4677 C   0  0  0  0  0  0
  -23.7142  -29.7606   20.1480 C   0  0  0  0  0  0
  -25.4131  -36.2980   24.0306 C   0  0  1  0  0  0
  -20.5951  -28.3759   23.1196 C   0  0  2  0  0  0
  -20.6806  -26.9445   22.5403 C   0  0  0  0  0  0
  -19.5771  -26.6387   21.5225 C   0  0  0  0  0  0
  -18.1952  -26.7955   22.1631 C   0  0  0  0  0  0
  -19.1588  -28.8907   23.2829 C   0  0  0  0  0  0
  -18.9496  -30.1494   23.8865 C   0  0  0  0  0  0
  -17.6492  -30.6607   24.0557 C   0  0  0  0  0  0
  -25.9096  -34.9365   23.5015 C   0  0  0  0  0  0
  -16.5381  -29.9099   23.6348 C   0  0  0  0  0  0
  -16.7306  -28.6513   23.0378 C   0  0  0  0  0  0
  -26.4559  -31.6549   25.0699 C   0  0  0  0  0  0
  -25.3690  -31.3800   26.1352 C   0  0  0  0  0  0
  -27.0462  -30.2925   24.6423 C   0  0  0  0  0  0
  -27.6056  -32.4355   25.7497 C   0  0  0  0  0  0
  -27.5558  -37.1772   24.8481 C   0  0  0  0  0  0
  -21.4330  -29.3055   22.3544 N   0  0  0  0  0  0
  -26.4277  -37.3711   23.9404 N   0  0  0  0  0  0
  -24.7485  -30.9955   22.0861 N   0  0  0  0  0  0
  -23.4215  -28.8027   23.3015 O   0  0  0  0  0  0
  -28.2042  -25.8346   20.2178 O   0  0  0  0  0  0
  -26.5691  -34.8893   22.4600 O   0  0  0  0  0  0
  -23.5689  -32.1226   23.6838 O   0  0  0  0  0  0
  -28.6536  -20.2983   19.1342 C   0  0  0  0  0  0
  -29.3008  -19.6119   20.2271 C   0  0  0  0  0  0
  -28.2932  -21.7391   19.1458 C   0  0  0  0  0  0
  -28.5626  -22.6837   20.2321 C   0  0  0  0  0  0
  -29.5429  -20.5896   21.2246 C   0  0  0  0  0  0
  -30.5632  -18.5159   21.9260 C   0  0  0  0  0  0
  -30.0726  -18.1146   20.4964 C   0  0  1  0  0  0
  -27.5474  -22.2593   17.9279 C   0  0  0  0  0  0
  -27.8064  -24.2559   20.4199 C   0  0  0  0  0  0
  -29.2042  -21.9726   21.2673 N   0  0  0  0  0  0
  -30.2703  -19.9486   22.2285 N   0  0  0  0  0  0
  -29.7043  -16.4980   20.4381 N   0  0  0  0  0  0
  -31.4579  -12.9875   19.1808 H   0  0  0  0  0  0
  -30.5014  -11.8793   20.1177 H   0  0  0  0  0  0
  -29.9038  -11.7359   17.6761 H   0  0  0  0  0  0
  -29.5637  -13.4493   17.6393 H   0  0  0  0  0  0
  -28.0338  -11.2724   19.0844 H   0  0  0  0  0  0
  -27.4079  -12.3396   17.8527 H   0  0  0  0  0  0
  -27.5299  -14.2395   19.3249 H   0  0  0  0  0  0
  -28.8112  -12.5010   21.4885 H   0  0  0  0  0  0
  -28.2967  -14.1626   21.6863 H   0  0  0  0  0  0
  -25.2784   -9.5676   22.4767 H   0  0  0  0  0  0
  -24.0006   -7.4633   22.7479 H   0  0  0  0  0  0
  -21.0862   -8.8790   19.8951 H   0  0  0  0  0  0
  -22.3733  -10.9678   19.6170 H   0  0  0  0  0  0
  -21.2011   -7.6153   23.9716 H   0  0  0  0  0  0
  -21.1476   -6.0523   25.9072 H   0  0  0  0  0  0
  -22.0600   -2.7615   23.2833 H   0  0  0  0  0  0
  -22.4052  -11.9834   22.4835 H   0  0  0  0  0  0
  -21.1043  -13.1184   22.2671 H   0  0  0  0  0  0
  -24.6302  -15.8454   20.5247 H   0  0  0  0  0  0
  -26.2401  -15.6381   20.0601 H   0  0  0  0  0  0
  -26.7368  -32.5152   23.0898 H   0  0  0  0  0  0
  -25.0127  -33.9514   25.0241 H   0  0  0  0  0  0
  -22.7891  -31.2730   21.3542 H   0  0  0  0  0  0
  -23.3754  -35.9530   23.3329 H   0  0  0  0  0  0
  -24.3557  -36.8824   22.2063 H   0  0  0  0  0  0
  -23.7236  -37.6399   23.6686 H   0  0  0  0  0  0
  -26.2250  -31.3810   20.6233 H   0  0  0  0  0  0
  -26.9054  -30.6947   22.0565 H   0  0  0  0  0  0
  -28.1504  -28.6124   21.2756 H   0  0  0  0  0  0
  -25.8685  -25.7714   18.9706 H   0  0  0  0  0  0
  -23.9987  -27.2858   18.9470 H   0  0  0  0  0  0
  -23.8720  -30.5303   19.3916 H   0  0  0  0  0  0
  -22.8237  -29.2166   19.8279 H   0  0  0  0  0  0
  -25.1332  -36.1782   25.0800 H   0  0  0  0  0  0
  -21.0050  -28.3360   24.1315 H   0  0  0  0  0  0
  -20.5703  -26.2379   23.3642 H   0  0  0  0  0  0
  -21.6664  -26.7435   22.1192 H   0  0  0  0  0  0
  -19.6929  -25.6285   21.1283 H   0  0  0  0  0  0
  -19.6706  -27.3175   20.6737 H   0  0  0  0  0  0
  -17.4227  -26.6714   21.4027 H   0  0  0  0  0  0
  -18.0330  -26.0104   22.9028 H   0  0  0  0  0  0
  -19.7970  -30.7320   24.2222 H   0  0  0  0  0  0
  -17.5044  -31.6285   24.5158 H   0  0  0  0  0  0
  -15.5378  -30.2991   23.7696 H   0  0  0  0  0  0
  -15.8703  -28.0810   22.7130 H   0  0  0  0  0  0
  -24.5884  -30.7139   25.7656 H   0  0  0  0  0  0
  -24.8860  -32.3002   26.4647 H   0  0  0  0  0  0
  -25.7918  -30.9046   27.0210 H   0  0  0  0  0  0
  -26.3129  -29.6607   24.1403 H   0  0  0  0  0  0
  -27.3983  -29.7276   25.5063 H   0  0  0  0  0  0
  -27.9072  -30.4124   23.9850 H   0  0  0  0  0  0
  -27.2631  -33.3704   26.1940 H   0  0  0  0  0  0
  -28.3938  -32.6840   25.0378 H   0  0  0  0  0  0
  -28.0646  -31.8566   26.5520 H   0  0  0  0  0  0
  -28.2603  -38.0039   24.7475 H   0  0  0  0  0  0
  -28.1018  -36.2567   24.6375 H   0  0  0  0  0  0
  -27.2267  -37.1500   25.8882 H   0  0  0  0  0  0
  -20.9577  -29.8743   21.6677 H   0  0  0  0  0  0
  -26.0128  -38.2774   24.1389 H   0  0  0  0  0  0
  -28.4354  -19.7195   18.2481 H   0  0  0  0  0  0
  -31.6294  -18.3132   22.0383 H   0  0  0  0  0  0
  -30.0486  -17.9117   22.6743 H   0  0  0  0  0  0
  -30.9364  -18.1835   19.8333 H   0  0  0  0  0  0
  -27.7408  -21.6398   17.0512 H   0  0  0  0  0  0
  -27.8524  -23.2771   17.6819 H   0  0  0  0  0  0
  -26.4724  -22.2571   18.1106 H   0  0  0  0  0  0
  -27.4790  -24.2341   21.4592 H   0  0  0  0  0  0
  -26.8778  -24.1282   19.8700 H   0  0  0  0  0  0
  -30.6862  -20.4364   23.0148 H   0  0  0  0  0  0
  -28.7118  -16.3304   20.5052 H   0  0  0  0  0  0
  1 25  1  0  0  0
  1 30  2  0  0  0
  1 82  1  0  0  0
  2  3  1  0  0  0
  2 25  1  0  0  0
  2 83  1  0  0  0
  2 84  1  0  0  0
  3  4  1  0  0  0
  3 85  1  0  0  0
  3 86  1  0  0  0
  4  5  1  0  0  0
  4 87  1  0  0  0
  4 88  1  0  0  0
  5  6  1  0  0  0
  5 26  1  0  0  0
  5 89  1  0  0  0
  6 25  1  0  0  0
  6 90  1  0  0  0
  6 91  1  0  0  0
  7  8  2  0  0  0
  7 26  1  0  0  0
  7 29  1  0  0  0
  8  9  1  0  0  0
  8 22  1  0  0  0
  9 10  1  0  0  0
  9 27  2  0  0  0
 10 11  2  0  0  0
 10 15  1  0  0  0
 11 12  1  0  0  0
 11 92  1  0  0  0
 12 13  2  0  0  0
 12 93  1  0  0  0
 13 14  1  0  0  0
 13 31  1  0  0  0
 14 15  2  0  0  0
 14 94  1  0  0  0
 15 95  1  0  0  0
 16 17  2  0  0  0
 16 21  1  0  0  0
 16 31  1  0  0  0
 17 18  1  0  0  0
 17 96  1  0  0  0
 18 19  2  0  0  0
 18 97  1  0  0  0
 19 20  1  0  0  0
 19 24  1  0  0  0
 20 21  2  0  0  0
 20 98  1  0  0  0
 21 23  1  0  0  0
 22 28  1  0  0  0
 22 32  2  0  0  0
 26 27  1  0  0  0
 28 99  1  0  0  0
 28100  1  0  0  0
 29101  1  0  0  0
 29102  1  0  0  0
 33 34  1  0  0  0
 33 66  1  0  0  0
 33 70  2  0  0  0
 34 36  1  0  0  0
 34 59  1  0  0  0
 34103  1  0  0  0
 35 44  2  0  0  0
 35 45  1  0  0  0
 35 68  1  0  0  0
 36 56  1  0  0  0
 36104  1  0  0  0
 37 39  1  0  0  0
 37 47  1  0  0  0
 37 66  1  0  0  0
 37105  1  0  0  0
 38 43  2  0  0  0
 38 46  1  0  0  0
 38 47  1  0  0  0
 39 64  1  0  0  0
 39 67  2  0  0  0
 40 52  1  0  0  0
 40 53  2  0  0  0
 40 58  1  0  0  0
 41106  1  0  0  0
 41107  1  0  0  0
 41108  1  0  0  0
 41 48  1  0  0  0
 42 43  1  0  0  0
 42 66  1  0  0  0
 42109  1  0  0  0
 42110  1  0  0  0
 43 44  1  0  0  0
 44111  1  0  0  0
 45 46  2  0  0  0
 45112  1  0  0  0
 46113  1  0  0  0
 47114  1  0  0  0
 47115  1  0  0  0
 48 56  1  0  0  0
 48 65  1  0  0  0
 48116  1  0  0  0
 49 50  1  0  0  0
 49 53  1  0  0  0
 49 64  1  0  0  0
 49117  1  0  0  0
 50 51  1  0  0  0
 50118  1  0  0  0
 50119  1  0  0  0
 51 52  1  0  0  0
 51120  1  0  0  0
 51121  1  0  0  0
 52122  1  0  0  0
 52123  1  0  0  0
 53 54  1  0  0  0
 54 55  2  0  0  0
 54124  1  0  0  0
 55 57  1  0  0  0
 55125  1  0  0  0
 56 69  2  0  0  0
 57 58  2  0  0  0
 57126  1  0  0  0
 58127  1  0  0  0
 59 60  1  0  0  0
 59 61  1  0  0  0
 59 62  1  0  0  0
 60128  1  0  0  0
 60129  1  0  0  0
 60130  1  0  0  0
 61131  1  0  0  0
 61132  1  0  0  0
 61133  1  0  0  0
 62134  1  0  0  0
 62135  1  0  0  0
 62136  1  0  0  0
 63 65  1  0  0  0
 63137  1  0  0  0
 63138  1  0  0  0
 63139  1  0  0  0
 64140  1  0  0  0
 65141  1  0  0  0
 68 79  1  0  0  0
 71 72  2  0  0  0
 71 73  1  0  0  0
 71142  1  0  0  0
 72 75  1  0  0  0
 72 77  1  0  0  0
 73 74  2  0  0  0
 73 78  1  0  0  0
 74 79  1  0  0  0
 74 80  1  0  0  0
 75 80  2  0  0  0
 75 81  1  0  0  0
 76 77  1  0  0  0
 76 81  1  0  0  0
 76143  1  0  0  0
 76144  1  0  0  0
 77 82  1  0  0  0
 77145  1  0  0  0
 78146  1  0  0  0
 78147  1  0  0  0
 78148  1  0  0  0
 79149  1  0  0  0
 79150  1  0  0  0
 81151  1  0  0  0
 82152  1  0  0  0
M  ISO  4   1 100  68 101  79 101  82 100
M  END
> <chiral flag>
0

> <version>
0

> <s_m_source_file>
/data/baiqing/PycharmProjects/Reinvent-master-3.2/result/LINK_invent/BTK/process_docking_weight1_custom_sum_contain_oxygen_bond_distance_aromatic_linkinvent_7_9_3/rearranged_h_0171.sdf

> <i_m_source_file_index>
76

> <r_mmod_Potential_Energy-OPLS-2005>
943.200317382812

> <r_mmod_Stretch_Energy-OPLS-2005>
468.354156494141

> <r_mmod_Bend_Energy-OPLS-2005>
492.651397705078

> <r_mmod_Torsional_Energy-OPLS-2005>
230.587783813477

> <r_mmod_Improper_Torsional_Energy-OPLS-2005>
9.28749752044678

> <r_mmod_Van_der_Waal_Energy-OPLS-2005>
129.150680541992

> <r_mmod_Electrostatic_Energy-OPLS-2005>
-557.40576171875

> <r_mmod_Solvation_Energy-OPLS-2005>
-255.812805175781

> <b_mmod_Minimization_Converged-OPLS-2005>
0

> <r_mmod_RMS_Derivative-OPLS-2005>
0.877708554267883

$$$$
76
                    3D
 Structure written by MMmdl.
168178  0  0  1  0            999 V2000
  -30.5456  -15.0245   20.4368 C   0  0  0  0  0  0
  -30.4344  -12.6427   19.5137 C   0  0  0  0  0  0
  -29.5216  -12.5517   18.2673 C   0  0  0  0  0  0
  -28.0553  -12.3294   18.6858 C   0  0  0  0  0  0
  -27.6262  -13.2643   19.8470 C   0  0  2  0  0  0
  -28.6700  -13.3056   20.9842 C   0  0  0  0  0  0
  -25.2416  -13.8264   20.5737 C   0  0  0  0  0  0
  -24.1761  -13.0459   20.9229 C   0  0  0  0  0  0
  -24.6418  -11.6966   20.8766 C   0  0  0  0  0  0
  -23.9131  -10.4313   21.0410 C   0  0  0  0  0  0
  -24.3670   -9.4222   21.9175 C   0  0  0  0  0  0
  -23.6323   -8.2268   22.0730 C   0  0  0  0  0  0
  -22.4285   -8.0323   21.3541 C   0  0  0  0  0  0
  -21.9948   -9.0291   20.4628 C   0  0  0  0  0  0
  -22.7306  -10.2154   20.3050 C   0  0  0  0  0  0
  -21.6859   -6.0785   22.5292 C   0  0  0  0  0  0
  -21.4027   -6.5672   23.8231 C   0  0  0  0  0  0
  -21.3647   -5.6803   24.9181 C   0  0  0  0  0  0
  -21.6029   -4.3069   24.7222 C   0  0  0  0  0  0
  -21.8810   -3.8184   23.4334 C   0  0  0  0  0  0
  -21.9176   -4.7013   22.3400 C   0  0  0  0  0  0
  -22.7780  -13.5204   21.1879 C   0  0  0  0  0  0
  -22.1631   -4.2210   21.0969 F   0  0  0  0  0  0
  -21.5627   -3.4533   25.7722 F   0  0  0  0  0  0
  -29.9329  -13.7588   20.3818 N   0  0  0  0  0  0
  -26.2874  -12.9543   20.3315 N   0  0  0  0  0  0
  -25.9356  -11.6652   20.5794 N   0  0  0  0  0  0
  -22.0465  -12.8138   22.0423 N   0  0  0  0  0  0
  -25.4028  -15.1995   20.4175 N   0  0  0  0  0  0
  -31.7354  -15.0404   20.0933 O   0  0  0  0  0  0
  -21.6645   -6.8928   21.4248 O   0  0  0  0  0  0
  -22.3446  -14.5505   20.6734 O   0  0  0  0  0  0
  -24.6515  -31.8381   23.1836 C   0  0  0  0  0  0
  -25.9252  -32.4666   23.8264 C   0  0  1  0  0  0
  -27.2121  -27.0644   20.1649 C   0  0  0  0  0  0
  -25.5965  -33.8480   24.2164 N   0  0  0  0  0  0
  -23.4581  -30.4549   21.5314 C   0  0  2  0  0  0
  -24.9074  -28.8680   20.1167 C   0  0  0  0  0  0
  -22.7606  -29.4512   22.4847 C   0  0  0  0  0  0
  -18.0318  -28.1397   22.8475 C   0  0  0  0  0  0
  -24.1487  -36.7220   23.2648 C   0  0  0  0  0  0
  -26.0203  -30.6864   21.3954 C   0  0  0  0  0  0
  -26.0898  -29.2901   20.7389 C   0  0  0  0  0  0
  -27.2459  -28.4081   20.7412 C   0  0  0  0  0  0
  -26.0056  -26.7654   19.4959 C   0  0  0  0  0  0
  -24.8812  -27.6195   19.4783 C   0  0  0  0  0  0
  -23.6887  -29.7809   20.1529 C   0  0  0  0  0  0
  -25.4131  -36.3006   24.0308 C   0  0  1  0  0  0
  -20.5932  -28.3728   23.1207 C   0  0  2  0  0  0
  -20.6782  -26.9412   22.5399 C   0  0  0  0  0  0
  -19.5748  -26.6376   21.5209 C   0  0  0  0  0  0
  -18.1941  -26.7934   22.1627 C   0  0  0  0  0  0
  -19.1574  -28.8886   23.2824 C   0  0  0  0  0  0
  -18.9485  -30.1480   23.8848 C   0  0  0  0  0  0
  -17.6482  -30.6585   24.0568 C   0  0  0  0  0  0
  -25.9086  -34.9389   23.5044 C   0  0  0  0  0  0
  -16.5375  -29.9074   23.6356 C   0  0  0  0  0  0
  -16.7305  -28.6499   23.0363 C   0  0  0  0  0  0
  -26.4551  -31.6569   25.0738 C   0  0  0  0  0  0
  -25.3719  -31.3759   26.1412 C   0  0  0  0  0  0
  -27.0440  -30.2962   24.6385 C   0  0  0  0  0  0
  -27.6074  -32.4360   25.7512 C   0  0  0  0  0  0
  -27.5574  -37.1761   24.8472 C   0  0  0  0  0  0
  -21.4290  -29.3048   22.3585 N   0  0  0  0  0  0
  -26.4283  -37.3731   23.9414 N   0  0  0  0  0  0
  -24.7303  -31.0166   22.0909 N   0  0  0  0  0  0
  -23.4206  -28.8076   23.3048 O   0  0  0  0  0  0
  -28.2289  -26.0187   20.1823 O   0  0  0  0  0  0
  -26.5684  -34.8897   22.4632 O   0  0  0  0  0  0
  -23.5616  -32.1309   23.6997 O   0  0  0  0  0  0
  -28.5743  -21.7145   20.9938 C   0  0  0  0  0  0
  -28.5523  -23.0185   20.2254 C   0  0  0  0  0  0
  -29.0333  -20.5518   20.2810 C   0  0  0  0  0  0
  -29.0705  -22.5449   19.0378 C   0  0  0  0  0  0
  -29.5993  -21.7683   16.8374 C   0  0  0  0  0  0
  -28.7934  -18.2145   21.8220 C   0  0  0  0  0  0
  -29.8398  -20.6258   17.8444 C   0  0  0  0  0  0
  -28.8988  -16.6420   21.6469 C   0  0  0  0  0  0
  -30.1201  -17.7123   19.9793 C   0  0  0  0  0  0
  -29.0409  -18.8737   20.4544 C   0  0  2  0  0  0
  -29.3233  -23.0593   17.6588 C   0  0  0  0  0  0
  -28.0474  -21.6153   22.4011 C   0  0  0  0  0  0
  -30.5574  -23.9729   17.6258 C   0  0  0  0  0  0
  -28.1068  -23.8167   17.1014 C   0  0  0  0  0  0
  -27.8653  -24.5321   20.5929 C   0  0  0  0  0  0
  -29.3527  -21.1768   19.0810 N   0  0  0  0  0  0
  -29.8271  -16.2801   20.5514 N   0  0  0  0  0  0
  -31.4682  -12.7943   19.2000 H   0  0  0  0  0  0
  -30.4357  -11.6991   20.0597 H   0  0  0  0  0  0
  -29.8467  -11.7410   17.6128 H   0  0  0  0  0  0
  -29.6070  -13.4718   17.6864 H   0  0  0  0  0  0
  -27.9578  -11.2892   18.9987 H   0  0  0  0  0  0
  -27.3915  -12.4532   17.8294 H   0  0  0  0  0  0
  -27.5809  -14.2666   19.4180 H   0  0  0  0  0  0
  -28.7779  -12.3241   21.4486 H   0  0  0  0  0  0
  -28.3562  -13.9783   21.7810 H   0  0  0  0  0  0
  -25.2821   -9.5702   22.4747 H   0  0  0  0  0  0
  -24.0051   -7.4654   22.7426 H   0  0  0  0  0  0
  -21.0886   -8.8833   19.8906 H   0  0  0  0  0  0
  -22.3797  -10.9699   19.6163 H   0  0  0  0  0  0
  -21.2046   -7.6182   23.9769 H   0  0  0  0  0  0
  -21.1455   -6.0524   25.9087 H   0  0  0  0  0  0
  -22.0594   -2.7649   23.2827 H   0  0  0  0  0  0
  -22.4156  -11.9838   22.4823 H   0  0  0  0  0  0
  -21.1067  -13.1120   22.2637 H   0  0  0  0  0  0
  -24.6371  -15.8518   20.5468 H   0  0  0  0  0  0
  -26.2554  -15.6451   20.1078 H   0  0  0  0  0  0
  -26.7321  -32.5233   23.0995 H   0  0  0  0  0  0
  -25.0121  -33.9608   25.0317 H   0  0  0  0  0  0
  -22.7655  -31.2835   21.3711 H   0  0  0  0  0  0
  -23.3776  -35.9515   23.3277 H   0  0  0  0  0  0
  -24.3594  -36.8903   22.2072 H   0  0  0  0  0  0
  -23.7207  -37.6387   23.6725 H   0  0  0  0  0  0
  -26.1906  -31.4366   20.6217 H   0  0  0  0  0  0
  -26.8860  -30.7385   22.0440 H   0  0  0  0  0  0
  -28.1473  -28.7302   21.2438 H   0  0  0  0  0  0
  -25.9098  -25.8193   18.9839 H   0  0  0  0  0  0
  -23.9829  -27.2899   18.9740 H   0  0  0  0  0  0
  -23.8322  -30.5552   19.3978 H   0  0  0  0  0  0
  -22.8026  -29.2275   19.8387 H   0  0  0  0  0  0
  -25.1321  -36.1831   25.0799 H   0  0  0  0  0  0
  -21.0033  -28.3319   24.1321 H   0  0  0  0  0  0
  -20.5659  -26.2346   23.3633 H   0  0  0  0  0  0
  -21.6648  -26.7382   22.1201 H   0  0  0  0  0  0
  -19.6895  -25.6278   21.1261 H   0  0  0  0  0  0
  -19.6684  -27.3174   20.6723 H   0  0  0  0  0  0
  -17.4198  -26.6700   21.4031 H   0  0  0  0  0  0
  -18.0328  -26.0081   22.9029 H   0  0  0  0  0  0
  -19.7953  -30.7325   24.2182 H   0  0  0  0  0  0
  -17.5022  -31.6262   24.5169 H   0  0  0  0  0  0
  -15.5370  -30.2956   23.7686 H   0  0  0  0  0  0
  -15.8713  -28.0808   22.7083 H   0  0  0  0  0  0
  -24.5909  -30.7106   25.7711 H   0  0  0  0  0  0
  -24.8893  -32.2928   26.4800 H   0  0  0  0  0  0
  -25.7981  -30.8949   27.0224 H   0  0  0  0  0  0
  -26.3083  -29.6669   24.1366 H   0  0  0  0  0  0
  -27.4000  -29.7299   25.5004 H   0  0  0  0  0  0
  -27.9015  -30.4201   23.9769 H   0  0  0  0  0  0
  -27.2681  -33.3713   26.1983 H   0  0  0  0  0  0
  -28.3925  -32.6843   25.0353 H   0  0  0  0  0  0
  -28.0701  -31.8559   26.5515 H   0  0  0  0  0  0
  -28.2556  -38.0090   24.7550 H   0  0  0  0  0  0
  -28.1101  -36.2620   24.6255 H   0  0  0  0  0  0
  -27.2300  -37.1353   25.8876 H   0  0  0  0  0  0
  -20.9517  -29.8764   21.6751 H   0  0  0  0  0  0
  -26.0138  -38.2781   24.1461 H   0  0  0  0  0  0
  -28.7163  -21.5070   16.2526 H   0  0  0  0  0  0
  -30.4188  -21.8742   16.1249 H   0  0  0  0  0  0
  -29.5596  -18.5553   22.5203 H   0  0  0  0  0  0
  -27.8287  -18.5008   22.2435 H   0  0  0  0  0  0
  -30.9000  -20.3943   17.9517 H   0  0  0  0  0  0
  -29.2970  -19.7156   17.5858 H   0  0  0  0  0  0
  -27.9164  -16.2421   21.3998 H   0  0  0  0  0  0
  -29.2088  -16.1727   22.5817 H   0  0  0  0  0  0
  -31.1208  -18.0017   20.3050 H   0  0  0  0  0  0
  -30.1591  -17.6639   18.8918 H   0  0  0  0  0  0
  -28.1536  -18.5937   19.8835 H   0  0  0  0  0  0
  -28.1204  -22.5725   22.9169 H   0  0  0  0  0  0
  -28.6200  -20.8862   22.9749 H   0  0  0  0  0  0
  -27.0010  -21.3068   22.3934 H   0  0  0  0  0  0
  -31.4470  -23.4523   17.9804 H   0  0  0  0  0  0
  -30.4185  -24.8512   18.2563 H   0  0  0  0  0  0
  -30.7628  -24.3216   16.6129 H   0  0  0  0  0  0
  -27.2011  -23.2111   17.1575 H   0  0  0  0  0  0
  -28.2559  -24.0845   16.0553 H   0  0  0  0  0  0
  -27.9186  -24.7369   17.6547 H   0  0  0  0  0  0
  -27.8690  -24.5688   21.6817 H   0  0  0  0  0  0
  -26.8155  -24.3837   20.3494 H   0  0  0  0  0  0
  1 25  1  0  0  0
  1 30  2  0  0  0
  1 87  1  0  0  0
  2  3  1  0  0  0
  2 25  1  0  0  0
  2 88  1  0  0  0
  2 89  1  0  0  0
  3  4  1  0  0  0
  3 90  1  0  0  0
  3 91  1  0  0  0
  4  5  1  0  0  0
  4 92  1  0  0  0
  4 93  1  0  0  0
  5  6  1  0  0  0
  5 26  1  0  0  0
  5 94  1  0  0  0
  6 25  1  0  0  0
  6 95  1  0  0  0
  6 96  1  0  0  0
  7  8  2  0  0  0
  7 26  1  0  0  0
  7 29  1  0  0  0
  8  9  1  0  0  0
  8 22  1  0  0  0
  9 10  1  0  0  0
  9 27  2  0  0  0
 10 11  2  0  0  0
 10 15  1  0  0  0
 11 12  1  0  0  0
 11 97  1  0  0  0
 12 13  2  0  0  0
 12 98  1  0  0  0
 13 14  1  0  0  0
 13 31  1  0  0  0
 14 15  2  0  0  0
 14 99  1  0  0  0
 15100  1  0  0  0
 16 17  2  0  0  0
 16 21  1  0  0  0
 16 31  1  0  0  0
 17 18  1  0  0  0
 17101  1  0  0  0
 18 19  2  0  0  0
 18102  1  0  0  0
 19 20  1  0  0  0
 19 24  1  0  0  0
 20 21  2  0  0  0
 20103  1  0  0  0
 21 23  1  0  0  0
 22 28  1  0  0  0
 22 32  2  0  0  0
 26 27  1  0  0  0
 28104  1  0  0  0
 28105  1  0  0  0
 29106  1  0  0  0
 29107  1  0  0  0
 33 34  1  0  0  0
 33 66  1  0  0  0
 33 70  2  0  0  0
 34 36  1  0  0  0
 34 59  1  0  0  0
 34108  1  0  0  0
 35 44  2  0  0  0
 35 45  1  0  0  0
 35 68  1  0  0  0
 36 56  1  0  0  0
 36109  1  0  0  0
 37 39  1  0  0  0
 37 47  1  0  0  0
 37 66  1  0  0  0
 37110  1  0  0  0
 38 43  2  0  0  0
 38 46  1  0  0  0
 38 47  1  0  0  0
 39 64  1  0  0  0
 39 67  2  0  0  0
 40 52  1  0  0  0
 40 53  2  0  0  0
 40 58  1  0  0  0
 41111  1  0  0  0
 41112  1  0  0  0
 41113  1  0  0  0
 41 48  1  0  0  0
 42 43  1  0  0  0
 42 66  1  0  0  0
 42114  1  0  0  0
 42115  1  0  0  0
 43 44  1  0  0  0
 44116  1  0  0  0
 45 46  2  0  0  0
 45117  1  0  0  0
 46118  1  0  0  0
 47119  1  0  0  0
 47120  1  0  0  0
 48 56  1  0  0  0
 48 65  1  0  0  0
 48121  1  0  0  0
 49 50  1  0  0  0
 49 53  1  0  0  0
 49 64  1  0  0  0
 49122  1  0  0  0
 50 51  1  0  0  0
 50123  1  0  0  0
 50124  1  0  0  0
 51 52  1  0  0  0
 51125  1  0  0  0
 51126  1  0  0  0
 52127  1  0  0  0
 52128  1  0  0  0
 53 54  1  0  0  0
 54 55  2  0  0  0
 54129  1  0  0  0
 55 57  1  0  0  0
 55130  1  0  0  0
 56 69  2  0  0  0
 57 58  2  0  0  0
 57131  1  0  0  0
 58132  1  0  0  0
 59 60  1  0  0  0
 59 61  1  0  0  0
 59 62  1  0  0  0
 60133  1  0  0  0
 60134  1  0  0  0
 60135  1  0  0  0
 61136  1  0  0  0
 61137  1  0  0  0
 61138  1  0  0  0
 62139  1  0  0  0
 62140  1  0  0  0
 62141  1  0  0  0
 63 65  1  0  0  0
 63142  1  0  0  0
 63143  1  0  0  0
 63144  1  0  0  0
 64145  1  0  0  0
 65146  1  0  0  0
 68 85  1  0  0  0
 71 72  1  0  0  0
 71 73  2  0  0  0
 71 82  1  0  0  0
 72 74  2  0  0  0
 72 85  1  0  0  0
 73 86  1  0  0  0
 73 80  1  0  0  0
 74 81  1  0  0  0
 74 86  1  0  0  0
 75 77  1  0  0  0
 75 81  1  0  0  0
 75147  1  0  0  0
 75148  1  0  0  0
 76 78  1  0  0  0
 76 80  1  0  0  0
 76149  1  0  0  0
 76150  1  0  0  0
 77 86  1  0  0  0
 77151  1  0  0  0
 77152  1  0  0  0
 78 87  1  0  0  0
 78153  1  0  0  0
 78154  1  0  0  0
 79 80  1  0  0  0
 79 87  1  0  0  0
 79155  1  0  0  0
 79156  1  0  0  0
 80157  1  0  0  0
 81 83  1  0  0  0
 81 84  1  0  0  0
 82158  1  0  0  0
 82159  1  0  0  0
 82160  1  0  0  0
 83161  1  0  0  0
 83162  1  0  0  0
 83163  1  0  0  0
 84164  1  0  0  0
 84165  1  0  0  0
 84166  1  0  0  0
 85167  1  0  0  0
 85168  1  0  0  0
M  ISO  4   1 100  68 101  85 101  87 100
M  END
> <chiral flag>
0

> <version>
0

> <s_m_source_file>
/data/baiqing/PycharmProjects/Reinvent-master-3.2/result/LINK_invent/BTK/process_docking_weight1_custom_sum_contain_oxygen_bond_distance_aromatic_linkinvent_7_9_3/rearranged_h_0171.sdf

> <i_m_source_file_index>
77

> <r_mmod_Potential_Energy-OPLS-2005>
891.700988769531

> <r_mmod_Stretch_Energy-OPLS-2005>
314.84619140625

> <r_mmod_Bend_Energy-OPLS-2005>
395.541442871094

> <r_mmod_Torsional_Energy-OPLS-2005>
376.541381835938

> <r_mmod_Improper_Torsional_Energy-OPLS-2005>
12.7992792129517

> <r_mmod_Van_der_Waal_Energy-OPLS-2005>
91.1020431518555

> <r_mmod_Electrostatic_Energy-OPLS-2005>
-344.284606933594

> <r_mmod_Solvation_Energy-OPLS-2005>
-205.40119934082

> <b_mmod_Minimization_Converged-OPLS-2005>
0

> <r_mmod_RMS_Derivative-OPLS-2005>
2.66688656806946

$$$$
77
                    3D
 Structure written by MMmdl.
162171  0  0  1  0            999 V2000
  -30.6249  -14.8535   20.4175 C   0  0  0  0  0  0
  -30.4189  -12.5254   19.4897 C   0  0  0  0  0  0
  -29.5048  -12.5023   18.2478 C   0  0  0  0  0  0
  -28.0375  -12.3105   18.6714 C   0  0  0  0  0  0
  -27.6268  -13.2468   19.8395 C   0  0  2  0  0  0
  -28.6734  -13.2765   20.9717 C   0  0  0  0  0  0
  -25.2450  -13.8218   20.5759 C   0  0  0  0  0  0
  -24.1759  -13.0441   20.9240 C   0  0  0  0  0  0
  -24.6375  -11.6929   20.8772 C   0  0  0  0  0  0
  -23.9068  -10.4294   21.0420 C   0  0  0  0  0  0
  -24.3621   -9.4198   21.9191 C   0  0  0  0  0  0
  -23.6294   -8.2232   22.0754 C   0  0  0  0  0  0
  -22.4267   -8.0273   21.3551 C   0  0  0  0  0  0
  -21.9916   -9.0246   20.4642 C   0  0  0  0  0  0
  -22.7245  -10.2127   20.3057 C   0  0  0  0  0  0
  -21.6850   -6.0727   22.5282 C   0  0  0  0  0  0
  -21.4013   -6.5644   23.8205 C   0  0  0  0  0  0
  -21.3665   -5.6798   24.9178 C   0  0  0  0  0  0
  -21.6040   -4.3061   24.7229 C   0  0  0  0  0  0
  -21.8814   -3.8141   23.4358 C   0  0  0  0  0  0
  -21.9196   -4.6963   22.3404 C   0  0  0  0  0  0
  -22.7776  -13.5201   21.1891 C   0  0  0  0  0  0
  -22.1658   -4.2143   21.0986 F   0  0  0  0  0  0
  -21.5627   -3.4542   25.7748 F   0  0  0  0  0  0
  -29.9571  -13.6382   20.3615 N   0  0  0  0  0  0
  -26.2876  -12.9456   20.3303 N   0  0  0  0  0  0
  -25.9312  -11.6585   20.5785 N   0  0  0  0  0  0
  -22.0442  -12.8166   22.0451 N   0  0  0  0  0  0
  -25.4144  -15.1946   20.4217 N   0  0  0  0  0  0
  -31.8338  -14.8444   20.1611 O   0  0  0  0  0  0
  -21.6635   -6.8871   21.4236 O   0  0  0  0  0  0
  -22.3454  -14.5508   20.6747 O   0  0  0  0  0  0
  -24.6327  -31.8511   23.1923 C   0  0  0  0  0  0
  -25.9112  -32.4735   23.8298 C   0  0  1  0  0  0
  -27.2093  -27.1867   20.1399 C   0  0  0  0  0  0
  -25.5872  -33.8549   24.2198 N   0  0  0  0  0  0
  -23.4344  -30.4705   21.5378 C   0  0  2  0  0  0
  -24.8803  -28.9077   20.1071 C   0  0  0  0  0  0
  -22.7513  -29.4574   22.4906 C   0  0  0  0  0  0
  -18.0279  -28.1410   22.8484 C   0  0  0  0  0  0
  -24.1493  -36.7313   23.2659 C   0  0  0  0  0  0
  -25.9847  -30.7379   21.3868 C   0  0  0  0  0  0
  -26.0535  -29.3537   20.7285 C   0  0  0  0  0  0
  -27.2125  -28.5027   20.7389 C   0  0  0  0  0  0
  -26.0126  -26.8302   19.4784 C   0  0  0  0  0  0
  -24.8706  -27.6580   19.4695 C   0  0  0  0  0  0
  -23.6551  -29.8029   20.1540 C   0  0  0  0  0  0
  -25.4120  -36.3075   24.0322 C   0  0  1  0  0  0
  -20.5883  -28.3718   23.1289 C   0  0  2  0  0  0
  -20.6783  -26.9443   22.5423 C   0  0  0  0  0  0
  -19.5749  -26.6402   21.5232 C   0  0  0  0  0  0
  -18.1923  -26.7952   22.1625 C   0  0  0  0  0  0
  -19.1535  -28.8877   23.2872 C   0  0  0  0  0  0
  -18.9461  -30.1478   23.8891 C   0  0  0  0  0  0
  -17.6463  -30.6614   24.0564 C   0  0  0  0  0  0
  -25.9053  -34.9438   23.5073 C   0  0  0  0  0  0
  -16.5346  -29.9120   23.6345 C   0  0  0  0  0  0
  -16.7266  -28.6532   23.0366 C   0  0  0  0  0  0
  -26.4437  -31.6586   25.0713 C   0  0  0  0  0  0
  -25.3611  -31.3757   26.1384 C   0  0  0  0  0  0
  -27.0340  -30.3015   24.6260 C   0  0  0  0  0  0
  -27.5999  -32.4349   25.7445 C   0  0  0  0  0  0
  -27.5592  -37.1802   24.8457 C   0  0  0  0  0  0
  -21.4216  -29.3053   22.3658 N   0  0  0  0  0  0
  -26.4306  -37.3771   23.9395 N   0  0  0  0  0  0
  -24.7034  -31.0402   22.0942 N   0  0  0  0  0  0
  -23.4179  -28.8135   23.3048 O   0  0  0  0  0  0
  -28.2875  -26.2558   20.2575 O   0  0  0  0  0  0
  -26.5673  -34.8911   22.4675 O   0  0  0  0  0  0
  -23.5462  -32.1380   23.7160 O   0  0  0  0  0  0
  -28.0745  -21.0039   21.9214 C   0  0  0  0  0  0
  -28.8362  -20.8865   20.7421 C   0  0  0  0  0  0
  -28.9350  -22.1629   20.0030 C   0  0  0  0  0  0
  -28.3393  -23.4316   20.4772 C   0  0  0  0  0  0
  -27.6208  -23.3051   21.6874 C   0  0  0  0  0  0
  -29.9677  -18.5588   21.6683 C   0  0  0  0  0  0
  -28.7033  -18.3105   19.6620 C   0  0  0  0  0  0
  -30.6917  -17.1646   21.3813 C   0  0  0  0  0  0
  -29.4047  -16.8700   19.4312 C   0  0  0  0  0  0
  -29.5164  -19.4229   20.4293 C   0  0  0  0  0  0
  -29.6573  -22.1900   18.6673 C   0  0  0  0  0  0
  -26.8738  -24.4747   22.3046 C   0  0  0  0  0  0
  -28.3334  -24.8444   19.6580 C   0  0  0  0  0  0
  -27.4984  -22.1419   22.3681 N   0  0  0  0  0  0
  -29.9674  -16.1009   20.6022 N   0  0  0  0  0  0
  -31.4590  -12.6377   19.1795 H   0  0  0  0  0  0
  -30.3725  -11.5780   20.0298 H   0  0  0  0  0  0
  -29.8070  -11.7034   17.5699 H   0  0  0  0  0  0
  -29.6114  -13.4352   17.6923 H   0  0  0  0  0  0
  -27.9204  -11.2707   18.9778 H   0  0  0  0  0  0
  -27.3713  -12.4511   17.8193 H   0  0  0  0  0  0
  -27.5877  -14.2476   19.4128 H   0  0  0  0  0  0
  -28.7366  -12.3107   21.4738 H   0  0  0  0  0  0
  -28.3956  -14.0095   21.7310 H   0  0  0  0  0  0
  -25.2758   -9.5676   22.4775 H   0  0  0  0  0  0
  -23.9998   -7.4618   22.7470 H   0  0  0  0  0  0
  -21.0848   -8.8769   19.8940 H   0  0  0  0  0  0
  -22.3700  -10.9675   19.6169 H   0  0  0  0  0  0
  -21.2011   -7.6149   23.9720 H   0  0  0  0  0  0
  -21.1484   -6.0526   25.9082 H   0  0  0  0  0  0
  -22.0595   -2.7606   23.2859 H   0  0  0  0  0  0
  -22.4085  -11.9831   22.4824 H   0  0  0  0  0  0
  -21.1057  -13.1166   22.2674 H   0  0  0  0  0  0
  -24.6545  -15.8529   20.5546 H   0  0  0  0  0  0
  -26.2793  -15.6393   20.1430 H   0  0  0  0  0  0
  -26.7174  -32.5346   23.1041 H   0  0  0  0  0  0
  -24.9911  -33.9669   25.0266 H   0  0  0  0  0  0
  -22.7325  -31.2948   21.3922 H   0  0  0  0  0  0
  -23.3752  -35.9656   23.3292 H   0  0  0  0  0  0
  -24.3585  -36.8966   22.2084 H   0  0  0  0  0  0
  -23.7230  -37.6498   23.6710 H   0  0  0  0  0  0
  -26.1337  -31.4956   20.6153 H   0  0  0  0  0  0
  -26.8573  -30.7874   22.0271 H   0  0  0  0  0  0
  -28.0996  -28.8330   21.2602 H   0  0  0  0  0  0
  -25.9067  -25.8750   18.9919 H   0  0  0  0  0  0
  -23.9720  -27.3110   18.9786 H   0  0  0  0  0  0
  -23.7877  -30.5786   19.3988 H   0  0  0  0  0  0
  -22.7704  -29.2429   19.8454 H   0  0  0  0  0  0
  -25.1311  -36.1960   25.0823 H   0  0  0  0  0  0
  -20.9942  -28.3320   24.1419 H   0  0  0  0  0  0
  -20.5734  -26.2331   23.3633 H   0  0  0  0  0  0
  -21.6660  -26.7520   22.1190 H   0  0  0  0  0  0
  -19.6921  -25.6316   21.1268 H   0  0  0  0  0  0
  -19.6680  -27.3211   20.6769 H   0  0  0  0  0  0
  -17.4202  -26.6702   21.4019 H   0  0  0  0  0  0
  -18.0297  -26.0110   22.9033 H   0  0  0  0  0  0
  -19.7937  -30.7286   24.2261 H   0  0  0  0  0  0
  -17.5023  -31.6281   24.5195 H   0  0  0  0  0  0
  -15.5341  -30.3017   23.7694 H   0  0  0  0  0  0
  -15.8656  -28.0844   22.7115 H   0  0  0  0  0  0
  -24.5786  -30.7124   25.7657 H   0  0  0  0  0  0
  -24.8784  -32.2936   26.4759 H   0  0  0  0  0  0
  -25.7851  -30.8929   27.0192 H   0  0  0  0  0  0
  -26.2975  -29.6684   24.1298 H   0  0  0  0  0  0
  -27.4032  -29.7346   25.4811 H   0  0  0  0  0  0
  -27.8820  -30.4300   23.9530 H   0  0  0  0  0  0
  -27.2648  -33.3708   26.1929 H   0  0  0  0  0  0
  -28.3823  -32.6798   25.0245 H   0  0  0  0  0  0
  -28.0636  -31.8519   26.5406 H   0  0  0  0  0  0
  -28.2598  -38.0118   24.7527 H   0  0  0  0  0  0
  -28.1097  -36.2633   24.6277 H   0  0  0  0  0  0
  -27.2290  -37.1441   25.8855 H   0  0  0  0  0  0
  -20.9427  -29.8761   21.6829 H   0  0  0  0  0  0
  -26.0194  -38.2860   24.1372 H   0  0  0  0  0  0
  -27.9109  -20.1468   22.5560 H   0  0  0  0  0  0
  -30.6330  -19.1620   22.2877 H   0  0  0  0  0  0
  -29.1049  -18.3392   22.2966 H   0  0  0  0  0  0
  -27.7631  -18.1460   20.1889 H   0  0  0  0  0  0
  -28.4192  -18.7125   18.6886 H   0  0  0  0  0  0
  -30.9784  -16.7311   22.3408 H   0  0  0  0  0  0
  -31.6321  -17.3843   20.8720 H   0  0  0  0  0  0
  -30.2199  -17.0051   18.7169 H   0  0  0  0  0  0
  -28.6922  -16.2258   18.9172 H   0  0  0  0  0  0
  -30.4194  -19.6247   19.8539 H   0  0  0  0  0  0
  -29.9215  -21.1953   18.3135 H   0  0  0  0  0  0
  -30.5696  -22.7821   18.7402 H   0  0  0  0  0  0
  -29.0225  -22.6478   17.9066 H   0  0  0  0  0  0
  -26.1248  -24.8570   21.6115 H   0  0  0  0  0  0
  -27.5587  -25.2839   22.5599 H   0  0  0  0  0  0
  -26.3536  -24.1828   23.2177 H   0  0  0  0  0  0
  -27.5970  -24.7293   18.8677 H   0  0  0  0  0  0
  -29.2776  -24.8516   19.1152 H   0  0  0  0  0  0
  1 25  1  0  0  0
  1 30  2  0  0  0
  1 85  1  0  0  0
  2  3  1  0  0  0
  2 25  1  0  0  0
  2 86  1  0  0  0
  2 87  1  0  0  0
  3  4  1  0  0  0
  3 88  1  0  0  0
  3 89  1  0  0  0
  4  5  1  0  0  0
  4 90  1  0  0  0
  4 91  1  0  0  0
  5  6  1  0  0  0
  5 26  1  0  0  0
  5 92  1  0  0  0
  6 25  1  0  0  0
  6 93  1  0  0  0
  6 94  1  0  0  0
  7  8  2  0  0  0
  7 26  1  0  0  0
  7 29  1  0  0  0
  8  9  1  0  0  0
  8 22  1  0  0  0
  9 10  1  0  0  0
  9 27  2  0  0  0
 10 11  2  0  0  0
 10 15  1  0  0  0
 11 12  1  0  0  0
 11 95  1  0  0  0
 12 13  2  0  0  0
 12 96  1  0  0  0
 13 14  1  0  0  0
 13 31  1  0  0  0
 14 15  2  0  0  0
 14 97  1  0  0  0
 15 98  1  0  0  0
 16 17  2  0  0  0
 16 21  1  0  0  0
 16 31  1  0  0  0
 17 18  1  0  0  0
 17 99  1  0  0  0
 18 19  2  0  0  0
 18100  1  0  0  0
 19 20  1  0  0  0
 19 24  1  0  0  0
 20 21  2  0  0  0
 20101  1  0  0  0
 21 23  1  0  0  0
 22 28  1  0  0  0
 22 32  2  0  0  0
 26 27  1  0  0  0
 28102  1  0  0  0
 28103  1  0  0  0
 29104  1  0  0  0
 29105  1  0  0  0
 33 34  1  0  0  0
 33 66  1  0  0  0
 33 70  2  0  0  0
 34 36  1  0  0  0
 34 59  1  0  0  0
 34106  1  0  0  0
 35 44  2  0  0  0
 35 45  1  0  0  0
 35 68  1  0  0  0
 36 56  1  0  0  0
 36107  1  0  0  0
 37 39  1  0  0  0
 37 47  1  0  0  0
 37 66  1  0  0  0
 37108  1  0  0  0
 38 43  2  0  0  0
 38 46  1  0  0  0
 38 47  1  0  0  0
 39 64  1  0  0  0
 39 67  2  0  0  0
 40 52  1  0  0  0
 40 53  2  0  0  0
 40 58  1  0  0  0
 41109  1  0  0  0
 41110  1  0  0  0
 41111  1  0  0  0
 41 48  1  0  0  0
 42 43  1  0  0  0
 42 66  1  0  0  0
 42112  1  0  0  0
 42113  1  0  0  0
 43 44  1  0  0  0
 44114  1  0  0  0
 45 46  2  0  0  0
 45115  1  0  0  0
 46116  1  0  0  0
 47117  1  0  0  0
 47118  1  0  0  0
 48 56  1  0  0  0
 48 65  1  0  0  0
 48119  1  0  0  0
 49 50  1  0  0  0
 49 53  1  0  0  0
 49 64  1  0  0  0
 49120  1  0  0  0
 50 51  1  0  0  0
 50121  1  0  0  0
 50122  1  0  0  0
 51 52  1  0  0  0
 51123  1  0  0  0
 51124  1  0  0  0
 52125  1  0  0  0
 52126  1  0  0  0
 53 54  1  0  0  0
 54 55  2  0  0  0
 54127  1  0  0  0
 55 57  1  0  0  0
 55128  1  0  0  0
 56 69  2  0  0  0
 57 58  2  0  0  0
 57129  1  0  0  0
 58130  1  0  0  0
 59 60  1  0  0  0
 59 61  1  0  0  0
 59 62  1  0  0  0
 60131  1  0  0  0
 60132  1  0  0  0
 60133  1  0  0  0
 61134  1  0  0  0
 61135  1  0  0  0
 61136  1  0  0  0
 62137  1  0  0  0
 62138  1  0  0  0
 62139  1  0  0  0
 63 65  1  0  0  0
 63140  1  0  0  0
 63141  1  0  0  0
 63142  1  0  0  0
 64143  1  0  0  0
 65144  1  0  0  0
 68 83  1  0  0  0
 71 72  2  0  0  0
 71 84  1  0  0  0
 71145  1  0  0  0
 72 73  1  0  0  0
 72 80  1  0  0  0
 73 74  2  0  0  0
 73 81  1  0  0  0
 74 75  1  0  0  0
 74 83  1  0  0  0
 75 82  1  0  0  0
 75 84  2  0  0  0
 76 78  1  0  0  0
 76 80  1  0  0  0
 76146  1  0  0  0
 76147  1  0  0  0
 77 79  1  0  0  0
 77 80  1  0  0  0
 77148  1  0  0  0
 77149  1  0  0  0
 78 85  1  0  0  0
 78150  1  0  0  0
 78151  1  0  0  0
 79 85  1  0  0  0
 79152  1  0  0  0
 79153  1  0  0  0
 80154  1  0  0  0
 81155  1  0  0  0
 81156  1  0  0  0
 81157  1  0  0  0
 82158  1  0  0  0
 82159  1  0  0  0
 82160  1  0  0  0
 83161  1  0  0  0
 83162  1  0  0  0
M  ISO  4   1 100  68 101  83 101  85 100
M  END
> <chiral flag>
0

> <version>
0

> <s_m_source_file>
/data/baiqing/PycharmProjects/Reinvent-master-3.2/result/LINK_invent/BTK/process_docking_weight1_custom_sum_contain_oxygen_bond_distance_aromatic_linkinvent_7_9_3/rearranged_h_0171.sdf

> <i_m_source_file_index>
78

> <r_mmod_Potential_Energy-OPLS-2005>
449.001495361328

> <r_mmod_Stretch_Energy-OPLS-2005>
186.333618164062

> <r_mmod_Bend_Energy-OPLS-2005>
249.155853271484

> <r_mmod_Torsional_Energy-OPLS-2005>
324.812042236328

> <r_mmod_Improper_Torsional_Energy-OPLS-2005>
8.81513404846191

> <r_mmod_Van_der_Waal_Energy-OPLS-2005>
139.279357910156

> <r_mmod_Electrostatic_Energy-OPLS-2005>
-394.070159912109

> <r_mmod_Solvation_Energy-OPLS-2005>
-207.985046386719

> <b_mmod_Minimization_Converged-OPLS-2005>
0

> <r_mmod_RMS_Derivative-OPLS-2005>
2.27377533912659

$$$$
78
                    3D
 Structure written by MMmdl.
165174  0  0  1  0            999 V2000
  -30.5085  -15.0281   20.4264 C   0  0  0  0  0  0
  -30.4529  -12.6455   19.5378 C   0  0  0  0  0  0
  -29.5415  -12.5307   18.2882 C   0  0  0  0  0  0
  -28.0764  -12.3020   18.6942 C   0  0  0  0  0  0
  -27.6312  -13.2498   19.8362 C   0  0  2  0  0  0
  -28.6611  -13.3152   20.9860 C   0  0  0  0  0  0
  -25.2493  -13.8230   20.5672 C   0  0  0  0  0  0
  -24.1812  -13.0477   20.9220 C   0  0  0  0  0  0
  -24.6402  -11.6956   20.8776 C   0  0  0  0  0  0
  -23.9116  -10.4343   21.0441 C   0  0  0  0  0  0
  -24.3677   -9.4248   21.9191 C   0  0  0  0  0  0
  -23.6335   -8.2307   22.0759 C   0  0  0  0  0  0
  -22.4318   -8.0322   21.3570 C   0  0  0  0  0  0
  -21.9954   -9.0303   20.4684 C   0  0  0  0  0  0
  -22.7301  -10.2186   20.3080 C   0  0  0  0  0  0
  -21.6867   -6.0785   22.5273 C   0  0  0  0  0  0
  -21.4011   -6.5666   23.8223 C   0  0  0  0  0  0
  -21.3662   -5.6800   24.9189 C   0  0  0  0  0  0
  -21.6042   -4.3067   24.7206 C   0  0  0  0  0  0
  -21.8821   -3.8179   23.4327 C   0  0  0  0  0  0
  -21.9194   -4.7012   22.3399 C   0  0  0  0  0  0
  -22.7821  -13.5269   21.1783 C   0  0  0  0  0  0
  -22.1652   -4.2214   21.0958 F   0  0  0  0  0  0
  -21.5647   -3.4522   25.7699 F   0  0  0  0  0  0
  -29.9377  -13.7473   20.4063 N   0  0  0  0  0  0
  -26.2886  -12.9443   20.3198 N   0  0  0  0  0  0
  -25.9333  -11.6584   20.5765 N   0  0  0  0  0  0
  -22.0387  -12.8375   22.0369 N   0  0  0  0  0  0
  -25.4198  -15.1956   20.4074 N   0  0  0  0  0  0
  -31.6934  -15.1021   20.0772 O   0  0  0  0  0  0
  -21.6645   -6.8933   21.4251 O   0  0  0  0  0  0
  -22.3540  -14.5563   20.6570 O   0  0  0  0  0  0
  -24.6439  -31.8396   23.1927 C   0  0  0  0  0  0
  -25.9192  -32.4656   23.8283 C   0  0  1  0  0  0
  -27.1943  -27.1228   20.1572 C   0  0  0  0  0  0
  -25.5974  -33.8475   24.2200 N   0  0  0  0  0  0
  -23.4433  -30.4567   21.5423 C   0  0  2  0  0  0
  -24.8864  -28.8812   20.1144 C   0  0  0  0  0  0
  -22.7545  -29.4486   22.4960 C   0  0  0  0  0  0
  -18.0283  -28.1360   22.8466 C   0  0  0  0  0  0
  -24.1499  -36.7256   23.2636 C   0  0  0  0  0  0
  -25.9983  -30.7050   21.3947 C   0  0  0  0  0  0
  -26.0633  -29.3165   20.7362 C   0  0  0  0  0  0
  -27.2214  -28.4533   20.7394 C   0  0  0  0  0  0
  -26.0011  -26.7940   19.4811 C   0  0  0  0  0  0
  -24.8687  -27.6331   19.4715 C   0  0  0  0  0  0
  -23.6631  -29.7837   20.1613 C   0  0  0  0  0  0
  -25.4142  -36.3032   24.0319 C   0  0  1  0  0  0
  -20.5881  -28.3650   23.1289 C   0  0  2  0  0  0
  -20.6769  -26.9371   22.5424 C   0  0  0  0  0  0
  -19.5763  -26.6341   21.5211 C   0  0  0  0  0  0
  -18.1930  -26.7907   22.1593 C   0  0  0  0  0  0
  -19.1528  -28.8841   23.2854 C   0  0  0  0  0  0
  -18.9449  -30.1461   23.8832 C   0  0  0  0  0  0
  -17.6446  -30.6559   24.0531 C   0  0  0  0  0  0
  -25.9081  -34.9401   23.5075 C   0  0  0  0  0  0
  -16.5339  -29.9028   23.6360 C   0  0  0  0  0  0
  -16.7273  -28.6463   23.0354 C   0  0  0  0  0  0
  -26.4520  -31.6529   25.0734 C   0  0  0  0  0  0
  -25.3722  -31.3694   26.1449 C   0  0  0  0  0  0
  -27.0394  -30.2933   24.6322 C   0  0  0  0  0  0
  -27.6092  -32.4268   25.7489 C   0  0  0  0  0  0
  -27.5602  -37.1783   24.8453 C   0  0  0  0  0  0
  -21.4226  -29.2984   22.3689 N   0  0  0  0  0  0
  -26.4303  -37.3762   23.9394 N   0  0  0  0  0  0
  -24.7150  -31.0238   22.0959 N   0  0  0  0  0  0
  -23.4208  -28.8037   23.3094 O   0  0  0  0  0  0
  -28.2448  -26.1406   20.1937 O   0  0  0  0  0  0
  -26.5668  -34.8881   22.4645 O   0  0  0  0  0  0
  -23.5565  -32.1271   23.7149 O   0  0  0  0  0  0
  -29.0117  -20.4538   19.9918 C   0  0  0  0  0  0
  -30.1914  -19.5300   21.8475 C   0  0  0  0  0  0
  -29.2286  -21.8569   20.4663 C   0  0  0  0  0  0
  -29.5777  -19.2168   20.6242 C   0  0  0  0  0  0
  -30.1611  -21.8850   21.5233 C   0  0  0  0  0  0
  -30.2061  -23.9645   19.3624 C   0  0  0  0  0  0
  -31.3566  -23.8357   20.3828 C   0  0  0  0  0  0
  -28.8554  -23.3209   19.7559 C   0  0  1  0  0  0
  -31.0711  -23.1221   21.7399 C   0  0  0  0  0  0
  -28.0762  -22.9988   18.4693 C   0  0  0  0  0  0
  -30.5093  -24.1115   22.7836 C   0  0  0  0  0  0
  -32.4648  -22.6903   22.2582 C   0  0  0  0  0  0
  -29.7538  -17.6772   19.9891 C   0  0  0  0  0  0
  -27.9982  -24.6149   20.4504 C   0  0  0  0  0  0
  -30.4712  -20.7876   22.2671 N   0  0  0  0  0  0
  -29.7249  -16.2109   20.6334 N   0  0  0  0  0  0
  -31.4777  -12.8349   19.2178 H   0  0  0  0  0  0
  -30.4816  -11.7060   20.0924 H   0  0  0  0  0  0
  -29.8875  -11.7227   17.6455 H   0  0  0  0  0  0
  -29.6151  -13.4466   17.6985 H   0  0  0  0  0  0
  -27.9890  -11.2672   19.0274 H   0  0  0  0  0  0
  -27.4223  -12.4019   17.8275 H   0  0  0  0  0  0
  -27.5882  -14.2421   19.3848 H   0  0  0  0  0  0
  -28.7619  -12.3524   21.4859 H   0  0  0  0  0  0
  -28.3327  -14.0299   21.7436 H   0  0  0  0  0  0
  -25.2804   -9.5731   22.4784 H   0  0  0  0  0  0
  -24.0062   -7.4690   22.7459 H   0  0  0  0  0  0
  -21.0898   -8.8853   19.8970 H   0  0  0  0  0  0
  -22.3754  -10.9749   19.6236 H   0  0  0  0  0  0
  -21.1973   -7.6165   23.9755 H   0  0  0  0  0  0
  -21.1474   -6.0509   25.9093 H   0  0  0  0  0  0
  -22.0588   -2.7641   23.2781 H   0  0  0  0  0  0
  -22.3938  -12.0112   22.4949 H   0  0  0  0  0  0
  -21.1001  -13.1495   22.2393 H   0  0  0  0  0  0
  -24.6516  -15.8500   20.5131 H   0  0  0  0  0  0
  -26.2582  -15.6263   20.0382 H   0  0  0  0  0  0
  -26.7257  -32.5221   23.0996 H   0  0  0  0  0  0
  -25.0105  -33.9558   25.0337 H   0  0  0  0  0  0
  -22.7469  -31.2848   21.3902 H   0  0  0  0  0  0
  -23.3792  -35.9549   23.3241 H   0  0  0  0  0  0
  -24.3592  -36.8944   22.2065 H   0  0  0  0  0  0
  -23.7192  -37.6410   23.6705 H   0  0  0  0  0  0
  -26.1659  -31.4548   20.6206 H   0  0  0  0  0  0
  -26.8648  -30.7426   22.0437 H   0  0  0  0  0  0
  -28.1166  -28.7773   21.2495 H   0  0  0  0  0  0
  -25.9215  -25.8499   18.9609 H   0  0  0  0  0  0
  -23.9712  -27.3019   18.9684 H   0  0  0  0  0  0
  -23.7967  -30.5499   19.3991 H   0  0  0  0  0  0
  -22.7755  -29.2219   19.8620 H   0  0  0  0  0  0
  -25.1330  -36.1884   25.0821 H   0  0  0  0  0  0
  -20.9944  -28.3199   24.1419 H   0  0  0  0  0  0
  -20.5654  -26.2248   23.3609 H   0  0  0  0  0  0
  -21.6643  -26.7380   22.1221 H   0  0  0  0  0  0
  -19.6918  -25.6239   21.1259 H   0  0  0  0  0  0
  -19.6740  -27.3127   20.6724 H   0  0  0  0  0  0
  -17.4230  -26.6679   21.3957 H   0  0  0  0  0  0
  -18.0303  -26.0014   22.8949 H   0  0  0  0  0  0
  -19.7931  -30.7298   24.2144 H   0  0  0  0  0  0
  -17.4990  -31.6243   24.5116 H   0  0  0  0  0  0
  -15.5326  -30.2899   23.7716 H   0  0  0  0  0  0
  -15.8672  -28.0751   22.7108 H   0  0  0  0  0  0
  -24.5914  -30.7035   25.7761 H   0  0  0  0  0  0
  -24.8896  -32.2852   26.4875 H   0  0  0  0  0  0
  -25.8023  -30.8862   27.0231 H   0  0  0  0  0  0
  -26.3013  -29.6643   24.1344 H   0  0  0  0  0  0
  -27.4010  -29.7251   25.4895 H   0  0  0  0  0  0
  -27.8920  -30.4167   23.9647 H   0  0  0  0  0  0
  -27.2734  -33.3565   26.2101 H   0  0  0  0  0  0
  -28.3888  -32.6826   25.0295 H   0  0  0  0  0  0
  -28.0797  -31.8368   26.5366 H   0  0  0  0  0  0
  -28.2618  -38.0091   24.7551 H   0  0  0  0  0  0
  -28.1110  -36.2630   24.6232 H   0  0  0  0  0  0
  -27.2323  -37.1378   25.8854 H   0  0  0  0  0  0
  -20.9460  -29.8710   21.6854 H   0  0  0  0  0  0
  -26.0186  -38.2834   24.1392 H   0  0  0  0  0  0
  -28.4722  -20.3252   19.0666 H   0  0  0  0  0  0
  -30.6022  -18.7428   22.4587 H   0  0  0  0  0  0
  -30.5507  -23.5200   18.4282 H   0  0  0  0  0  0
  -30.0712  -25.0174   19.1154 H   0  0  0  0  0  0
  -31.7985  -24.8152   20.5683 H   0  0  0  0  0  0
  -32.1317  -23.2767   19.8541 H   0  0  0  0  0  0
  -28.6198  -22.2935   17.8402 H   0  0  0  0  0  0
  -27.9101  -23.8925   17.8670 H   0  0  0  0  0  0
  -27.0974  -22.5673   18.6982 H   0  0  0  0  0  0
  -29.8945  -24.8915   22.3427 H   0  0  0  0  0  0
  -31.3125  -24.6489   23.2957 H   0  0  0  0  0  0
  -29.9377  -23.5861   23.5474 H   0  0  0  0  0  0
  -32.8951  -21.9023   21.6413 H   0  0  0  0  0  0
  -32.4024  -22.3195   23.2811 H   0  0  0  0  0  0
  -33.1725  -23.5202   22.2640 H   0  0  0  0  0  0
  -30.7337  -17.7209   19.5107 H   0  0  0  0  0  0
  -29.0535  -17.6222   19.1547 H   0  0  0  0  0  0
  -28.0354  -24.4990   21.5308 H   0  0  0  0  0  0
  -26.9406  -24.4160   20.2704 H   0  0  0  0  0  0
  -28.8237  -15.9877   21.0293 H   0  0  0  0  0  0
  1 25  1  0  0  0
  1 30  2  0  0  0
  1 86  1  0  0  0
  2  3  1  0  0  0
  2 25  1  0  0  0
  2 87  1  0  0  0
  2 88  1  0  0  0
  3  4  1  0  0  0
  3 89  1  0  0  0
  3 90  1  0  0  0
  4  5  1  0  0  0
  4 91  1  0  0  0
  4 92  1  0  0  0
  5  6  1  0  0  0
  5 26  1  0  0  0
  5 93  1  0  0  0
  6 25  1  0  0  0
  6 94  1  0  0  0
  6 95  1  0  0  0
  7  8  2  0  0  0
  7 26  1  0  0  0
  7 29  1  0  0  0
  8  9  1  0  0  0
  8 22  1  0  0  0
  9 10  1  0  0  0
  9 27  2  0  0  0
 10 11  2  0  0  0
 10 15  1  0  0  0
 11 12  1  0  0  0
 11 96  1  0  0  0
 12 13  2  0  0  0
 12 97  1  0  0  0
 13 14  1  0  0  0
 13 31  1  0  0  0
 14 15  2  0  0  0
 14 98  1  0  0  0
 15 99  1  0  0  0
 16 17  2  0  0  0
 16 21  1  0  0  0
 16 31  1  0  0  0
 17 18  1  0  0  0
 17100  1  0  0  0
 18 19  2  0  0  0
 18101  1  0  0  0
 19 20  1  0  0  0
 19 24  1  0  0  0
 20 21  2  0  0  0
 20102  1  0  0  0
 21 23  1  0  0  0
 22 28  1  0  0  0
 22 32  2  0  0  0
 26 27  1  0  0  0
 28103  1  0  0  0
 28104  1  0  0  0
 29105  1  0  0  0
 29106  1  0  0  0
 33 34  1  0  0  0
 33 66  1  0  0  0
 33 70  2  0  0  0
 34 36  1  0  0  0
 34 59  1  0  0  0
 34107  1  0  0  0
 35 44  2  0  0  0
 35 45  1  0  0  0
 35 68  1  0  0  0
 36 56  1  0  0  0
 36108  1  0  0  0
 37 39  1  0  0  0
 37 47  1  0  0  0
 37 66  1  0  0  0
 37109  1  0  0  0
 38 43  2  0  0  0
 38 46  1  0  0  0
 38 47  1  0  0  0
 39 64  1  0  0  0
 39 67  2  0  0  0
 40 52  1  0  0  0
 40 53  2  0  0  0
 40 58  1  0  0  0
 41110  1  0  0  0
 41111  1  0  0  0
 41112  1  0  0  0
 41 48  1  0  0  0
 42 43  1  0  0  0
 42 66  1  0  0  0
 42113  1  0  0  0
 42114  1  0  0  0
 43 44  1  0  0  0
 44115  1  0  0  0
 45 46  2  0  0  0
 45116  1  0  0  0
 46117  1  0  0  0
 47118  1  0  0  0
 47119  1  0  0  0
 48 56  1  0  0  0
 48 65  1  0  0  0
 48120  1  0  0  0
 49 50  1  0  0  0
 49 53  1  0  0  0
 49 64  1  0  0  0
 49121  1  0  0  0
 50 51  1  0  0  0
 50122  1  0  0  0
 50123  1  0  0  0
 51 52  1  0  0  0
 51124  1  0  0  0
 51125  1  0  0  0
 52126  1  0  0  0
 52127  1  0  0  0
 53 54  1  0  0  0
 54 55  2  0  0  0
 54128  1  0  0  0
 55 57  1  0  0  0
 55129  1  0  0  0
 56 69  2  0  0  0
 57 58  2  0  0  0
 57130  1  0  0  0
 58131  1  0  0  0
 59 60  1  0  0  0
 59 61  1  0  0  0
 59 62  1  0  0  0
 60132  1  0  0  0
 60133  1  0  0  0
 60134  1  0  0  0
 61135  1  0  0  0
 61136  1  0  0  0
 61137  1  0  0  0
 62138  1  0  0  0
 62139  1  0  0  0
 62140  1  0  0  0
 63 65  1  0  0  0
 63141  1  0  0  0
 63142  1  0  0  0
 63143  1  0  0  0
 64144  1  0  0  0
 65145  1  0  0  0
 68 84  1  0  0  0
 71 73  2  0  0  0
 71 74  1  0  0  0
 71146  1  0  0  0
 72 74  2  0  0  0
 72 85  1  0  0  0
 72147  1  0  0  0
 73 75  1  0  0  0
 73 78  1  0  0  0
 74 83  1  0  0  0
 75 79  1  0  0  0
 75 85  2  0  0  0
 76 77  1  0  0  0
 76 78  1  0  0  0
 76148  1  0  0  0
 76149  1  0  0  0
 77 79  1  0  0  0
 77150  1  0  0  0
 77151  1  0  0  0
 78 80  1  0  0  0
 78 84  1  0  0  0
 79 81  1  0  0  0
 79 82  1  0  0  0
 80152  1  0  0  0
 80153  1  0  0  0
 80154  1  0  0  0
 81155  1  0  0  0
 81156  1  0  0  0
 81157  1  0  0  0
 82158  1  0  0  0
 82159  1  0  0  0
 82160  1  0  0  0
 83 86  1  0  0  0
 83161  1  0  0  0
 83162  1  0  0  0
 84163  1  0  0  0
 84164  1  0  0  0
 86165  1  0  0  0
M  ISO  4   1 100  68 101  84 101  86 100
M  END
> <chiral flag>
0

> <version>
0

> <s_m_source_file>
/data/baiqing/PycharmProjects/Reinvent-master-3.2/result/LINK_invent/BTK/process_docking_weight1_custom_sum_contain_oxygen_bond_distance_aromatic_linkinvent_7_9_3/rearranged_h_0171.sdf

> <i_m_source_file_index>
79

> <r_mmod_Potential_Energy-OPLS-2005>
560.178344726562

> <r_mmod_Stretch_Energy-OPLS-2005>
295.222778320312

> <r_mmod_Bend_Energy-OPLS-2005>
306.628692626953

> <r_mmod_Torsional_Energy-OPLS-2005>
313.016998291016

> <r_mmod_Improper_Torsional_Energy-OPLS-2005>
10.9497566223145

> <r_mmod_Van_der_Waal_Energy-OPLS-2005>
151.393600463867

> <r_mmod_Electrostatic_Energy-OPLS-2005>
-529.75537109375

> <r_mmod_Solvation_Energy-OPLS-2005>
-217.555541992188

> <b_mmod_Minimization_Converged-OPLS-2005>
0

> <r_mmod_RMS_Derivative-OPLS-2005>
6.13503074645996

$$$$
79
                    3D
 Structure written by MMmdl.
179189  0  0  1  0            999 V2000
  -30.7627  -14.3446   20.6953 C   0  0  0  0  0  0
  -30.4214  -12.2821   19.3868 C   0  0  0  0  0  0
  -29.4838  -12.5316   18.1905 C   0  0  0  0  0  0
  -28.0080  -12.3876   18.6066 C   0  0  0  0  0  0
  -27.6705  -13.1994   19.8837 C   0  0  2  0  0  0
  -28.7067  -12.9157   20.9934 C   0  0  0  0  0  0
  -25.2627  -13.8156   20.5670 C   0  0  0  0  0  0
  -24.1862  -13.0449   20.9152 C   0  0  0  0  0  0
  -24.6398  -11.6907   20.8717 C   0  0  0  0  0  0
  -23.9053  -10.4295   21.0400 C   0  0  0  0  0  0
  -24.3610   -9.4214   21.9180 C   0  0  0  0  0  0
  -23.6287   -8.2250   22.0756 C   0  0  0  0  0  0
  -22.4270   -8.0282   21.3541 C   0  0  0  0  0  0
  -21.9901   -9.0255   20.4644 C   0  0  0  0  0  0
  -22.7228  -10.2138   20.3050 C   0  0  0  0  0  0
  -21.6856   -6.0738   22.5279 C   0  0  0  0  0  0
  -21.4014   -6.5646   23.8210 C   0  0  0  0  0  0
  -21.3659   -5.6795   24.9171 C   0  0  0  0  0  0
  -21.6045   -4.3056   24.7223 C   0  0  0  0  0  0
  -21.8820   -3.8145   23.4344 C   0  0  0  0  0  0
  -21.9191   -4.6963   22.3403 C   0  0  0  0  0  0
  -22.7881  -13.5250   21.1819 C   0  0  0  0  0  0
  -22.1660   -4.2153   21.0981 F   0  0  0  0  0  0
  -21.5629   -3.4537   25.7733 F   0  0  0  0  0  0
  -30.0554  -13.2101   20.4647 N   0  0  0  0  0  0
  -26.3062  -12.9318   20.3384 N   0  0  0  0  0  0
  -25.9322  -11.6476   20.5750 N   0  0  0  0  0  0
  -22.0525  -12.8245   22.0377 N   0  0  0  0  0  0
  -25.4371  -15.1876   20.4096 N   0  0  0  0  0  0
  -31.7655  -14.6732   20.0540 O   0  0  0  0  0  0
  -21.6640   -6.8883   21.4237 O   0  0  0  0  0  0
  -22.3562  -14.5564   20.6680 O   0  0  0  0  0  0
  -24.6125  -31.8703   23.2144 C   0  0  0  0  0  0
  -25.9026  -32.4831   23.8434 C   0  0  1  0  0  0
  -27.2356  -27.4632   20.0769 C   0  0  0  0  0  0
  -25.5884  -33.8633   24.2357 N   0  0  0  0  0  0
  -23.3979  -30.4956   21.5560 C   0  0  2  0  0  0
  -24.8419  -28.9680   20.1168 C   0  0  0  0  0  0
  -22.7402  -29.4666   22.5027 C   0  0  0  0  0  0
  -18.0275  -28.1363   22.8487 C   0  0  0  0  0  0
  -24.1495  -36.7328   23.2640 C   0  0  0  0  0  0
  -25.9255  -30.8432   21.3644 C   0  0  0  0  0  0
  -26.0021  -29.4816   20.7088 C   0  0  0  0  0  0
  -27.2004  -28.7358   20.6861 C   0  0  0  0  0  0
  -26.0523  -26.9638   19.4786 C   0  0  0  0  0  0
  -24.8596  -27.7062   19.5020 C   0  0  0  0  0  0
  -23.6030  -29.8301   20.1697 C   0  0  0  0  0  0
  -25.4109  -36.3120   24.0338 C   0  0  1  0  0  0
  -20.5855  -28.3646   23.1326 C   0  0  2  0  0  0
  -20.6761  -26.9379   22.5411 C   0  0  0  0  0  0
  -19.5743  -26.6365   21.5204 C   0  0  0  0  0  0
  -18.1927  -26.7911   22.1617 C   0  0  0  0  0  0
  -19.1518  -28.8821   23.2911 C   0  0  0  0  0  0
  -18.9445  -30.1434   23.8907 C   0  0  0  0  0  0
  -17.6446  -30.6573   24.0558 C   0  0  0  0  0  0
  -25.9023  -34.9480   23.5148 C   0  0  0  0  0  0
  -16.5340  -29.9070   23.6316 C   0  0  0  0  0  0
  -16.7262  -28.6483   23.0345 C   0  0  0  0  0  0
  -26.4458  -31.6605   25.0753 C   0  0  0  0  0  0
  -25.3725  -31.3684   26.1502 C   0  0  0  0  0  0
  -27.0291  -30.3069   24.6085 C   0  0  0  0  0  0
  -27.6043  -32.4322   25.7494 C   0  0  0  0  0  0
  -27.5589  -37.1809   24.8456 C   0  0  0  0  0  0
  -21.4130  -29.3040   22.3766 N   0  0  0  0  0  0
  -26.4301  -37.3795   23.9399 N   0  0  0  0  0  0
  -24.6642  -31.0824   22.1035 N   0  0  0  0  0  0
  -23.4199  -28.8201   23.3035 O   0  0  0  0  0  0
  -28.4233  -26.7594   20.0993 O   0  0  0  0  0  0
  -26.5592  -34.8909   22.4710 O   0  0  0  0  0  0
  -23.5321  -32.1453   23.7542 O   0  0  0  0  0  0
  -29.1017  -17.6205   19.7149 C   0  0  0  0  0  0
  -28.6394  -20.3673   19.9295 C   0  0  0  0  0  0
  -28.5951  -19.7389   18.6865 C   0  0  0  0  0  0
  -28.9917  -19.6528   21.1063 C   0  0  0  0  0  0
  -28.8327  -18.3625   18.5499 C   0  0  0  0  0  0
  -29.1911  -18.2444   20.9841 C   0  0  0  0  0  0
  -28.2794  -20.7029   17.5750 C   0  0  0  0  0  0
  -27.8462  -21.9852   18.3075 C   0  0  0  0  0  0
  -29.9200  -21.6213   22.6294 C   0  0  0  0  0  0
  -30.4243  -20.3292   23.2112 C   0  0  0  0  0  0
  -29.1190  -20.3466   22.4416 C   0  0  0  0  0  0
  -28.2573  -21.8343   19.8011 C   0  0  1  0  0  0
  -28.7883  -17.6805   17.1971 C   0  0  0  0  0  0
  -25.3771  -23.6556   21.5958 C   0  0  0  0  0  0
  -29.4522  -17.3528   22.1997 C   0  0  0  0  0  0
  -27.6726  -24.6329   21.1100 C   0  0  0  0  0  0
  -30.6913  -16.4411   22.0654 C   0  0  0  0  0  0
  -28.3777  -25.3399   19.9255 C   0  0  0  0  0  0
  -26.6249  -23.5641   20.6990 C   0  0  1  0  0  0
  -30.2891  -15.0874   21.6983 N   0  0  0  0  0  0
  -27.1566  -22.1766   20.7303 N   0  3  0  0  0  0
  -31.4632  -12.3931   19.0795 H   0  0  0  0  0  0
  -30.3266  -11.2538   19.7390 H   0  0  0  0  0  0
  -29.7126  -11.8377   17.3811 H   0  0  0  0  0  0
  -29.6554  -13.5331   17.7930 H   0  0  0  0  0  0
  -27.8087  -11.3282   18.7763 H   0  0  0  0  0  0
  -27.3553  -12.6905   17.7872 H   0  0  0  0  0  0
  -27.7359  -14.2570   19.6245 H   0  0  0  0  0  0
  -28.6625  -11.8664   21.2872 H   0  0  0  0  0  0
  -28.4477  -13.4706   21.8947 H   0  0  0  0  0  0
  -25.2759   -9.5696   22.4751 H   0  0  0  0  0  0
  -24.0000   -7.4646   22.7478 H   0  0  0  0  0  0
  -21.0835   -8.8770   19.8950 H   0  0  0  0  0  0
  -22.3684  -10.9674   19.6160 H   0  0  0  0  0  0
  -21.2012   -7.6159   23.9716 H   0  0  0  0  0  0
  -21.1481   -6.0526   25.9077 H   0  0  0  0  0  0
  -22.0601   -2.7604   23.2841 H   0  0  0  0  0  0
  -22.4132  -11.9886   22.4746 H   0  0  0  0  0  0
  -21.1143  -13.1275   22.2599 H   0  0  0  0  0  0
  -24.6766  -15.8476   20.5249 H   0  0  0  0  0  0
  -26.3000  -15.6255   20.1132 H   0  0  0  0  0  0
  -26.7096  -32.5539   23.1200 H   0  0  0  0  0  0
  -25.0014  -33.9794   25.0494 H   0  0  0  0  0  0
  -22.6849  -31.3112   21.4207 H   0  0  0  0  0  0
  -23.3739  -35.9682   23.3307 H   0  0  0  0  0  0
  -24.3585  -36.8945   22.2052 H   0  0  0  0  0  0
  -23.7273  -37.6539   23.6664 H   0  0  0  0  0  0
  -26.0341  -31.6117   20.5984 H   0  0  0  0  0  0
  -26.8155  -30.8976   21.9801 H   0  0  0  0  0  0
  -28.0975  -29.1271   21.1472 H   0  0  0  0  0  0
  -26.0233  -26.0103   18.9764 H   0  0  0  0  0  0
  -23.9675  -27.3071   19.0373 H   0  0  0  0  0  0
  -23.7066  -30.6057   19.4103 H   0  0  0  0  0  0
  -22.7293  -29.2461   19.8759 H   0  0  0  0  0  0
  -25.1294  -36.1998   25.0832 H   0  0  0  0  0  0
  -20.9946  -28.3203   24.1444 H   0  0  0  0  0  0
  -20.5654  -26.2243   23.3591 H   0  0  0  0  0  0
  -21.6637  -26.7421   22.1209 H   0  0  0  0  0  0
  -19.6893  -25.6276   21.1226 H   0  0  0  0  0  0
  -19.6688  -27.3188   20.6744 H   0  0  0  0  0  0
  -17.4193  -26.6654   21.4029 H   0  0  0  0  0  0
  -18.0318  -26.0052   22.9002 H   0  0  0  0  0  0
  -19.7928  -30.7235   24.2286 H   0  0  0  0  0  0
  -17.5009  -31.6257   24.5159 H   0  0  0  0  0  0
  -15.5343  -30.2978   23.7640 H   0  0  0  0  0  0
  -15.8655  -28.0815   22.7050 H   0  0  0  0  0  0
  -24.5913  -30.7017   25.7827 H   0  0  0  0  0  0
  -24.8875  -32.2812   26.4975 H   0  0  0  0  0  0
  -25.8081  -30.8839   27.0251 H   0  0  0  0  0  0
  -26.2834  -29.6821   24.1156 H   0  0  0  0  0  0
  -27.4112  -29.7321   25.4523 H   0  0  0  0  0  0
  -27.8638  -30.4414   23.9206 H   0  0  0  0  0  0
  -27.2695  -33.3632   26.2091 H   0  0  0  0  0  0
  -28.3831  -32.6865   25.0292 H   0  0  0  0  0  0
  -28.0736  -31.8433   26.5386 H   0  0  0  0  0  0
  -28.2597  -38.0121   24.7515 H   0  0  0  0  0  0
  -28.1109  -36.2640   24.6291 H   0  0  0  0  0  0
  -27.2287  -37.1463   25.8856 H   0  0  0  0  0  0
  -20.9294  -29.8785   21.7005 H   0  0  0  0  0  0
  -26.0198  -38.2878   24.1391 H   0  0  0  0  0  0
  -29.2472  -16.5544   19.6285 H   0  0  0  0  0  0
  -27.4975  -20.3252   16.9153 H   0  0  0  0  0  0
  -29.1776  -20.8754   16.9810 H   0  0  0  0  0  0
  -26.7621  -22.0534   18.2162 H   0  0  0  0  0  0
  -28.2548  -22.8840   17.8467 H   0  0  0  0  0  0
  -30.5045  -22.0187   21.8020 H   0  0  0  0  0  0
  -29.5559  -22.3591   23.3425 H   0  0  0  0  0  0
  -30.3725  -20.2151   24.2924 H   0  0  0  0  0  0
  -31.2880  -19.8688   22.7350 H   0  0  0  0  0  0
  -28.2105  -20.2140   23.0288 H   0  0  0  0  0  0
  -29.1399  -22.4414   20.0020 H   0  0  0  0  0  0
  -29.2207  -16.6804   17.2443 H   0  0  0  0  0  0
  -29.3519  -18.2511   16.4589 H   0  0  0  0  0  0
  -27.7586  -17.5905   16.8512 H   0  0  0  0  0  0
  -24.9354  -24.6518   21.5470 H   0  0  0  0  0  0
  -25.6119  -23.4526   22.6422 H   0  0  0  0  0  0
  -24.6047  -22.9531   21.2816 H   0  0  0  0  0  0
  -28.5542  -16.7556   22.3673 H   0  0  0  0  0  0
  -29.5560  -17.9300   23.1139 H   0  0  0  0  0  0
  -27.1680  -25.3919   21.7076 H   0  0  0  0  0  0
  -28.4152  -24.2221   21.7952 H   0  0  0  0  0  0
  -31.1906  -16.3705   23.0321 H   0  0  0  0  0  0
  -31.4233  -16.8690   21.3777 H   0  0  0  0  0  0
  -27.9491  -25.0872   18.9567 H   0  0  0  0  0  0
  -29.4060  -24.9817   19.8720 H   0  0  0  0  0  0
  -26.2736  -23.7738   19.6892 H   0  0  0  0  0  0
  -29.5174  -14.6876   22.2115 H   0  0  0  0  0  0
  -27.4739  -21.9652   21.6617 H   0  0  0  0  0  0
  -26.3995  -21.5424   20.5296 H   0  0  0  0  0  0
  1 25  1  0  0  0
  1 30  2  0  0  0
  1 90  1  0  0  0
  2  3  1  0  0  0
  2 25  1  0  0  0
  2 92  1  0  0  0
  2 93  1  0  0  0
  3  4  1  0  0  0
  3 94  1  0  0  0
  3 95  1  0  0  0
  4  5  1  0  0  0
  4 96  1  0  0  0
  4 97  1  0  0  0
  5  6  1  0  0  0
  5 26  1  0  0  0
  5 98  1  0  0  0
  6 25  1  0  0  0
  6 99  1  0  0  0
  6100  1  0  0  0
  7  8  2  0  0  0
  7 26  1  0  0  0
  7 29  1  0  0  0
  8  9  1  0  0  0
  8 22  1  0  0  0
  9 10  1  0  0  0
  9 27  2  0  0  0
 10 11  2  0  0  0
 10 15  1  0  0  0
 11 12  1  0  0  0
 11101  1  0  0  0
 12 13  2  0  0  0
 12102  1  0  0  0
 13 14  1  0  0  0
 13 31  1  0  0  0
 14 15  2  0  0  0
 14103  1  0  0  0
 15104  1  0  0  0
 16 17  2  0  0  0
 16 21  1  0  0  0
 16 31  1  0  0  0
 17 18  1  0  0  0
 17105  1  0  0  0
 18 19  2  0  0  0
 18106  1  0  0  0
 19 20  1  0  0  0
 19 24  1  0  0  0
 20 21  2  0  0  0
 20107  1  0  0  0
 21 23  1  0  0  0
 22 28  1  0  0  0
 22 32  2  0  0  0
 26 27  1  0  0  0
 28108  1  0  0  0
 28109  1  0  0  0
 29110  1  0  0  0
 29111  1  0  0  0
 33 34  1  0  0  0
 33 66  1  0  0  0
 33 70  2  0  0  0
 34 36  1  0  0  0
 34 59  1  0  0  0
 34112  1  0  0  0
 35 44  2  0  0  0
 35 45  1  0  0  0
 35 68  1  0  0  0
 36 56  1  0  0  0
 36113  1  0  0  0
 37 39  1  0  0  0
 37 47  1  0  0  0
 37 66  1  0  0  0
 37114  1  0  0  0
 38 43  2  0  0  0
 38 46  1  0  0  0
 38 47  1  0  0  0
 39 64  1  0  0  0
 39 67  2  0  0  0
 40 52  1  0  0  0
 40 53  2  0  0  0
 40 58  1  0  0  0
 41115  1  0  0  0
 41116  1  0  0  0
 41117  1  0  0  0
 41 48  1  0  0  0
 42 43  1  0  0  0
 42 66  1  0  0  0
 42118  1  0  0  0
 42119  1  0  0  0
 43 44  1  0  0  0
 44120  1  0  0  0
 45 46  2  0  0  0
 45121  1  0  0  0
 46122  1  0  0  0
 47123  1  0  0  0
 47124  1  0  0  0
 48 56  1  0  0  0
 48 65  1  0  0  0
 48125  1  0  0  0
 49 50  1  0  0  0
 49 53  1  0  0  0
 49 64  1  0  0  0
 49126  1  0  0  0
 50 51  1  0  0  0
 50127  1  0  0  0
 50128  1  0  0  0
 51 52  1  0  0  0
 51129  1  0  0  0
 51130  1  0  0  0
 52131  1  0  0  0
 52132  1  0  0  0
 53 54  1  0  0  0
 54 55  2  0  0  0
 54133  1  0  0  0
 55 57  1  0  0  0
 55134  1  0  0  0
 56 69  2  0  0  0
 57 58  2  0  0  0
 57135  1  0  0  0
 58136  1  0  0  0
 59 60  1  0  0  0
 59 61  1  0  0  0
 59 62  1  0  0  0
 60137  1  0  0  0
 60138  1  0  0  0
 60139  1  0  0  0
 61140  1  0  0  0
 61141  1  0  0  0
 61142  1  0  0  0
 62143  1  0  0  0
 62144  1  0  0  0
 62145  1  0  0  0
 63 65  1  0  0  0
 63146  1  0  0  0
 63147  1  0  0  0
 63148  1  0  0  0
 64149  1  0  0  0
 65150  1  0  0  0
 68 88  1  0  0  0
 71 75  2  0  0  0
 71 76  1  0  0  0
 71151  1  0  0  0
 72 73  2  0  0  0
 72 74  1  0  0  0
 72 82  1  0  0  0
 73 75  1  0  0  0
 73 77  1  0  0  0
 74 76  2  0  0  0
 74 81  1  0  0  0
 75 83  1  0  0  0
 76 85  1  0  0  0
 77 78  1  0  0  0
 77152  1  0  0  0
 77153  1  0  0  0
 78 82  1  0  0  0
 78154  1  0  0  0
 78155  1  0  0  0
 79 80  1  0  0  0
 79 81  1  0  0  0
 79156  1  0  0  0
 79157  1  0  0  0
 80 81  1  0  0  0
 80158  1  0  0  0
 80159  1  0  0  0
 81160  1  0  0  0
 82 91  1  0  0  0
 82161  1  0  0  0
 83162  1  0  0  0
 83163  1  0  0  0
 83164  1  0  0  0
 84165  1  0  0  0
 84166  1  0  0  0
 84167  1  0  0  0
 84 89  1  0  0  0
 85 87  1  0  0  0
 85168  1  0  0  0
 85169  1  0  0  0
 86 88  1  0  0  0
 86 89  1  0  0  0
 86170  1  0  0  0
 86171  1  0  0  0
 87 90  1  0  0  0
 87172  1  0  0  0
 87173  1  0  0  0
 88174  1  0  0  0
 88175  1  0  0  0
 89 91  1  0  0  0
 89176  1  0  0  0
 90177  1  0  0  0
 91178  1  0  0  0
 91179  1  0  0  0
M  CHG  1  91   1
M  ISO  4   1 100  68 101  88 101  90 100
M  END
> <chiral flag>
0

> <version>
0

> <s_m_source_file>
/data/baiqing/PycharmProjects/Reinvent-master-3.2/result/LINK_invent/BTK/process_docking_weight1_custom_sum_contain_oxygen_bond_distance_aromatic_linkinvent_7_9_3/rearranged_h_0171.sdf

> <i_m_source_file_index>
80

> <r_mmod_Potential_Energy-OPLS-2005>
-179.267227172852

> <r_mmod_Stretch_Energy-OPLS-2005>
37.1947593688965

> <r_mmod_Bend_Energy-OPLS-2005>
139.689102172852

> <r_mmod_Torsional_Energy-OPLS-2005>
278.188903808594

> <r_mmod_Improper_Torsional_Energy-OPLS-2005>
1.88258719444275

> <r_mmod_Van_der_Waal_Energy-OPLS-2005>
142.308807373047

> <r_mmod_Electrostatic_Energy-OPLS-2005>
-346.54736328125

> <r_mmod_Solvation_Energy-OPLS-2005>
-439.798065185547

> <b_mmod_Minimization_Converged-OPLS-2005>
0

> <r_mmod_RMS_Derivative-OPLS-2005>
1.86668384075165

$$$$
80
                    3D
 Structure written by MMmdl.
175184  0  0  1  0            999 V2000
  -30.5998  -14.7750   20.4481 C   0  0  0  0  0  0
  -30.4322  -12.4699   19.4860 C   0  0  0  0  0  0
  -29.5132  -12.5145   18.2445 C   0  0  0  0  0  0
  -28.0398  -12.3314   18.6557 C   0  0  0  0  0  0
  -27.6393  -13.2355   19.8511 C   0  0  2  0  0  0
  -28.6822  -13.1837   20.9903 C   0  0  0  0  0  0
  -25.2414  -13.8110   20.5570 C   0  0  0  0  0  0
  -24.1764  -13.0372   20.9215 C   0  0  0  0  0  0
  -24.6389  -11.6875   20.8775 C   0  0  0  0  0  0
  -23.9064  -10.4259   21.0423 C   0  0  0  0  0  0
  -24.3615   -9.4181   21.9201 C   0  0  0  0  0  0
  -23.6285   -8.2224   22.0767 C   0  0  0  0  0  0
  -22.4273   -8.0265   21.3543 C   0  0  0  0  0  0
  -21.9907   -9.0241   20.4650 C   0  0  0  0  0  0
  -22.7240  -10.2113   20.3063 C   0  0  0  0  0  0
  -21.6855   -6.0722   22.5274 C   0  0  0  0  0  0
  -21.4016   -6.5630   23.8203 C   0  0  0  0  0  0
  -21.3662   -5.6789   24.9169 C   0  0  0  0  0  0
  -21.6041   -4.3049   24.7223 C   0  0  0  0  0  0
  -21.8822   -3.8136   23.4346 C   0  0  0  0  0  0
  -21.9190   -4.6951   22.3400 C   0  0  0  0  0  0
  -22.7791  -13.5174   21.1864 C   0  0  0  0  0  0
  -22.1662   -4.2136   21.0978 F   0  0  0  0  0  0
  -21.5627   -3.4537   25.7736 F   0  0  0  0  0  0
  -29.9852  -13.5390   20.4112 N   0  0  0  0  0  0
  -26.2910  -12.9384   20.3260 N   0  0  0  0  0  0
  -25.9329  -11.6523   20.5798 N   0  0  0  0  0  0
  -22.0440  -12.8180   22.0433 N   0  0  0  0  0  0
  -25.3871  -15.1776   20.3678 N   0  0  0  0  0  0
  -31.7804  -14.8767   20.1057 O   0  0  0  0  0  0
  -21.6635   -6.8863   21.4234 O   0  0  0  0  0  0
  -22.3479  -14.5486   20.6712 O   0  0  0  0  0  0
  -24.6321  -31.8549   23.1949 C   0  0  0  0  0  0
  -25.9142  -32.4755   23.8300 C   0  0  1  0  0  0
  -27.2274  -27.2536   20.1409 C   0  0  0  0  0  0
  -25.5934  -33.8552   24.2241 N   0  0  0  0  0  0
  -23.4279  -30.4755   21.5384 C   0  0  2  0  0  0
  -24.8779  -28.9128   20.1157 C   0  0  0  0  0  0
  -22.7488  -29.4611   22.4906 C   0  0  0  0  0  0
  -18.0300  -28.1388   22.8493 C   0  0  0  0  0  0
  -24.1495  -36.7272   23.2640 C   0  0  0  0  0  0
  -25.9722  -30.7670   21.3732 C   0  0  0  0  0  0
  -26.0484  -29.3842   20.7239 C   0  0  0  0  0  0
  -27.2263  -28.5691   20.7209 C   0  0  0  0  0  0
  -26.0359  -26.8512   19.4990 C   0  0  0  0  0  0
  -24.8770  -27.6549   19.4917 C   0  0  0  0  0  0
  -23.6488  -29.8018   20.1571 C   0  0  0  0  0  0
  -25.4118  -36.3065   24.0334 C   0  0  1  0  0  0
  -20.5903  -28.3696   23.1281 C   0  0  2  0  0  0
  -20.6788  -26.9409   22.5421 C   0  0  0  0  0  0
  -19.5761  -26.6393   21.5221 C   0  0  0  0  0  0
  -18.1944  -26.7937   22.1626 C   0  0  0  0  0  0
  -19.1558  -28.8855   23.2892 C   0  0  0  0  0  0
  -18.9472  -30.1458   23.8904 C   0  0  0  0  0  0
  -17.6475  -30.6593   24.0566 C   0  0  0  0  0  0
  -25.9052  -34.9439   23.5086 C   0  0  0  0  0  0
  -16.5364  -29.9087   23.6337 C   0  0  0  0  0  0
  -16.7292  -28.6508   23.0359 C   0  0  0  0  0  0
  -26.4513  -31.6571   25.0682 C   0  0  0  0  0  0
  -25.3744  -31.3715   26.1404 C   0  0  0  0  0  0
  -27.0358  -30.2992   24.6148 C   0  0  0  0  0  0
  -27.6066  -32.4301   25.7471 C   0  0  0  0  0  0
  -27.5583  -37.1796   24.8470 C   0  0  0  0  0  0
  -21.4196  -29.3055   22.3660 N   0  0  0  0  0  0
  -26.4291  -37.3767   23.9418 N   0  0  0  0  0  0
  -24.6961  -31.0511   22.0922 N   0  0  0  0  0  0
  -23.4194  -28.8162   23.3011 O   0  0  0  0  0  0
  -28.3440  -26.3843   20.1566 O   0  0  0  0  0  0
  -26.5633  -34.8921   22.4652 O   0  0  0  0  0  0
  -23.5477  -32.1369   23.7264 O   0  0  0  0  0  0
  -28.5576  -18.8239   23.3510 C   0  0  0  0  0  0
  -29.5927  -19.7745   23.5512 C   0  0  0  0  0  0
  -28.4154  -18.2265   22.0750 C   0  0  0  0  0  0
  -30.2288  -20.3524   22.4206 C   0  0  0  0  0  0
  -29.3061  -18.6004   21.0413 C   0  0  0  0  0  0
  -29.7839  -19.9874   21.1216 C   0  0  0  0  0  0
  -30.2769  -22.7830   17.8355 C   0  0  0  0  0  0
  -29.1477  -23.7666   18.1887 C   0  0  0  0  0  0
  -30.8628  -22.2938   19.1782 C   0  0  0  0  0  0
  -29.2691  -23.9170   19.7049 C   0  0  2  0  0  0
  -27.6803  -18.3742   24.5173 C   0  0  0  0  0  0
  -29.9506  -20.2426   24.9614 C   0  0  0  0  0  0
  -27.3798  -17.1443   21.8378 C   0  0  0  0  0  0
  -31.2687  -21.4531   22.6072 C   0  0  0  0  0  0
  -30.0678  -17.3914   20.2980 C   0  0  0  0  0  0
  -29.0432  -21.2308   20.3975 C   0  0  0  0  0  0
  -28.1988  -24.8972   20.4153 C   0  0  0  0  0  0
  -29.8163  -15.9065   20.6452 N   0  0  0  0  0  0
  -29.8218  -22.5486   20.2046 N   0  3  1  0  0  0
  -31.4750  -12.5909   19.1867 H   0  0  0  0  0  0
  -30.3733  -11.4963   19.9749 H   0  0  0  0  0  0
  -29.8023  -11.7404   17.5319 H   0  0  0  0  0  0
  -29.6343  -13.4687   17.7276 H   0  0  0  0  0  0
  -27.9042  -11.2839   18.9265 H   0  0  0  0  0  0
  -27.3815  -12.5135   17.8055 H   0  0  0  0  0  0
  -27.6276  -14.2551   19.4649 H   0  0  0  0  0  0
  -28.7208  -12.1907   21.4404 H   0  0  0  0  0  0
  -28.4112  -13.8722   21.7923 H   0  0  0  0  0  0
  -25.2757   -9.5660   22.4781 H   0  0  0  0  0  0
  -23.9987   -7.4617   22.7496 H   0  0  0  0  0  0
  -21.0835   -8.8757   19.8960 H   0  0  0  0  0  0
  -22.3698  -10.9654   19.6176 H   0  0  0  0  0  0
  -21.2018   -7.6140   23.9699 H   0  0  0  0  0  0
  -21.1484   -6.0522   25.9068 H   0  0  0  0  0  0
  -22.0600   -2.7598   23.2847 H   0  0  0  0  0  0
  -22.4067  -11.9844   22.4808 H   0  0  0  0  0  0
  -21.1063  -13.1214   22.2655 H   0  0  0  0  0  0
  -24.5897  -15.8007   20.4353 H   0  0  0  0  0  0
  -26.1808  -15.5969   19.9044 H   0  0  0  0  0  0
  -26.7197  -32.5428   23.1039 H   0  0  0  0  0  0
  -25.0108  -33.9675   25.0409 H   0  0  0  0  0  0
  -22.7264  -31.2995   21.3887 H   0  0  0  0  0  0
  -23.3765  -35.9597   23.3297 H   0  0  0  0  0  0
  -24.3583  -36.8889   22.2053 H   0  0  0  0  0  0
  -23.7239  -37.6467   23.6661 H   0  0  0  0  0  0
  -26.1063  -31.5229   20.5980 H   0  0  0  0  0  0
  -26.8504  -30.8225   22.0042 H   0  0  0  0  0  0
  -28.1250  -28.9307   21.2015 H   0  0  0  0  0  0
  -25.9856  -25.8978   18.9940 H   0  0  0  0  0  0
  -23.9815  -27.2935   19.0047 H   0  0  0  0  0  0
  -23.7758  -30.5744   19.3981 H   0  0  0  0  0  0
  -22.7663  -29.2363   19.8510 H   0  0  0  0  0  0
  -25.1301  -36.1902   25.0830 H   0  0  0  0  0  0
  -21.0025  -28.3280   24.1392 H   0  0  0  0  0  0
  -20.5681  -26.2293   23.3620 H   0  0  0  0  0  0
  -21.6657  -26.7436   22.1207 H   0  0  0  0  0  0
  -19.6905  -25.6298   21.1251 H   0  0  0  0  0  0
  -19.6703  -27.3209   20.6753 H   0  0  0  0  0  0
  -17.4216  -26.6719   21.4026 H   0  0  0  0  0  0
  -18.0323  -26.0071   22.9008 H   0  0  0  0  0  0
  -19.7946  -30.7284   24.2281 H   0  0  0  0  0  0
  -17.5022  -31.6274   24.5159 H   0  0  0  0  0  0
  -15.5362  -30.2989   23.7649 H   0  0  0  0  0  0
  -15.8698  -28.0824   22.7068 H   0  0  0  0  0  0
  -24.5952  -30.7015   25.7749 H   0  0  0  0  0  0
  -24.8902  -32.2878   26.4787 H   0  0  0  0  0  0
  -25.8082  -30.8945   27.0204 H   0  0  0  0  0  0
  -26.2932  -29.6733   24.1185 H   0  0  0  0  0  0
  -27.4052  -29.7247   25.4653 H   0  0  0  0  0  0
  -27.8805  -30.4258   23.9373 H   0  0  0  0  0  0
  -27.2682  -33.3622   26.2009 H   0  0  0  0  0  0
  -28.3923  -32.6811   25.0333 H   0  0  0  0  0  0
  -28.0676  -31.8433   26.5424 H   0  0  0  0  0  0
  -28.2606  -38.0091   24.7523 H   0  0  0  0  0  0
  -28.1075  -36.2621   24.6297 H   0  0  0  0  0  0
  -27.2297  -37.1446   25.8871 H   0  0  0  0  0  0
  -20.9365  -29.8763   21.6862 H   0  0  0  0  0  0
  -26.0167  -38.2842   24.1404 H   0  0  0  0  0  0
  -31.0519  -23.2563   17.2318 H   0  0  0  0  0  0
  -29.8821  -21.9467   17.2564 H   0  0  0  0  0  0
  -28.1755  -23.3521   17.9186 H   0  0  0  0  0  0
  -29.2555  -24.7220   17.6707 H   0  0  0  0  0  0
  -31.7444  -22.8874   19.4250 H   0  0  0  0  0  0
  -31.1978  -21.2565   19.1305 H   0  0  0  0  0  0
  -30.1547  -24.5430   19.8391 H   0  0  0  0  0  0
  -27.4630  -19.2051   25.1881 H   0  0  0  0  0  0
  -28.1810  -17.5923   25.0898 H   0  0  0  0  0  0
  -26.7116  -17.9913   24.1995 H   0  0  0  0  0  0
  -29.6721  -19.5165   25.7239 H   0  0  0  0  0  0
  -29.4510  -21.1851   25.1878 H   0  0  0  0  0  0
  -31.0224  -20.3849   25.0858 H   0  0  0  0  0  0
  -26.3789  -17.5241   22.0432 H   0  0  0  0  0  0
  -27.5580  -16.2695   22.4646 H   0  0  0  0  0  0
  -27.3759  -16.8421   20.7925 H   0  0  0  0  0  0
  -30.8057  -22.3859   22.9311 H   0  0  0  0  0  0
  -31.8336  -21.6317   21.6940 H   0  0  0  0  0  0
  -32.0176  -21.1706   23.3461 H   0  0  0  0  0  0
  -29.8754  -17.5036   19.2304 H   0  0  0  0  0  0
  -31.1371  -17.5713   20.4158 H   0  0  0  0  0  0
  -28.1623  -21.4647   20.9963 H   0  0  0  0  0  0
  -28.6568  -20.8970   19.4341 H   0  0  0  0  0  0
  -28.2974  -24.7744   21.4941 H   0  0  0  0  0  0
  -27.1968  -24.5410   20.1831 H   0  0  0  0  0  0
  -28.8701  -15.7042   20.9263 H   0  0  0  0  0  0
  -30.2793  -22.7048   21.0915 H   0  0  0  0  0  0
  1 25  1  0  0  0
  1 30  2  0  0  0
  1 88  1  0  0  0
  2  3  1  0  0  0
  2 25  1  0  0  0
  2 90  1  0  0  0
  2 91  1  0  0  0
  3  4  1  0  0  0
  3 92  1  0  0  0
  3 93  1  0  0  0
  4  5  1  0  0  0
  4 94  1  0  0  0
  4 95  1  0  0  0
  5  6  1  0  0  0
  5 26  1  0  0  0
  5 96  1  0  0  0
  6 25  1  0  0  0
  6 97  1  0  0  0
  6 98  1  0  0  0
  7  8  2  0  0  0
  7 26  1  0  0  0
  7 29  1  0  0  0
  8  9  1  0  0  0
  8 22  1  0  0  0
  9 10  1  0  0  0
  9 27  2  0  0  0
 10 11  2  0  0  0
 10 15  1  0  0  0
 11 12  1  0  0  0
 11 99  1  0  0  0
 12 13  2  0  0  0
 12100  1  0  0  0
 13 14  1  0  0  0
 13 31  1  0  0  0
 14 15  2  0  0  0
 14101  1  0  0  0
 15102  1  0  0  0
 16 17  2  0  0  0
 16 21  1  0  0  0
 16 31  1  0  0  0
 17 18  1  0  0  0
 17103  1  0  0  0
 18 19  2  0  0  0
 18104  1  0  0  0
 19 20  1  0  0  0
 19 24  1  0  0  0
 20 21  2  0  0  0
 20105  1  0  0  0
 21 23  1  0  0  0
 22 28  1  0  0  0
 22 32  2  0  0  0
 26 27  1  0  0  0
 28106  1  0  0  0
 28107  1  0  0  0
 29108  1  0  0  0
 29109  1  0  0  0
 33 34  1  0  0  0
 33 66  1  0  0  0
 33 70  2  0  0  0
 34 36  1  0  0  0
 34 59  1  0  0  0
 34110  1  0  0  0
 35 44  2  0  0  0
 35 45  1  0  0  0
 35 68  1  0  0  0
 36 56  1  0  0  0
 36111  1  0  0  0
 37 39  1  0  0  0
 37 47  1  0  0  0
 37 66  1  0  0  0
 37112  1  0  0  0
 38 43  2  0  0  0
 38 46  1  0  0  0
 38 47  1  0  0  0
 39 64  1  0  0  0
 39 67  2  0  0  0
 40 52  1  0  0  0
 40 53  2  0  0  0
 40 58  1  0  0  0
 41113  1  0  0  0
 41114  1  0  0  0
 41115  1  0  0  0
 41 48  1  0  0  0
 42 43  1  0  0  0
 42 66  1  0  0  0
 42116  1  0  0  0
 42117  1  0  0  0
 43 44  1  0  0  0
 44118  1  0  0  0
 45 46  2  0  0  0
 45119  1  0  0  0
 46120  1  0  0  0
 47121  1  0  0  0
 47122  1  0  0  0
 48 56  1  0  0  0
 48 65  1  0  0  0
 48123  1  0  0  0
 49 50  1  0  0  0
 49 53  1  0  0  0
 49 64  1  0  0  0
 49124  1  0  0  0
 50 51  1  0  0  0
 50125  1  0  0  0
 50126  1  0  0  0
 51 52  1  0  0  0
 51127  1  0  0  0
 51128  1  0  0  0
 52129  1  0  0  0
 52130  1  0  0  0
 53 54  1  0  0  0
 54 55  2  0  0  0
 54131  1  0  0  0
 55 57  1  0  0  0
 55132  1  0  0  0
 56 69  2  0  0  0
 57 58  2  0  0  0
 57133  1  0  0  0
 58134  1  0  0  0
 59 60  1  0  0  0
 59 61  1  0  0  0
 59 62  1  0  0  0
 60135  1  0  0  0
 60136  1  0  0  0
 60137  1  0  0  0
 61138  1  0  0  0
 61139  1  0  0  0
 61140  1  0  0  0
 62141  1  0  0  0
 62142  1  0  0  0
 62143  1  0  0  0
 63 65  1  0  0  0
 63144  1  0  0  0
 63145  1  0  0  0
 63146  1  0  0  0
 64147  1  0  0  0
 65148  1  0  0  0
 68 87  1  0  0  0
 71 72  2  0  0  0
 71 73  1  0  0  0
 71 81  1  0  0  0
 72 74  1  0  0  0
 72 82  1  0  0  0
 73 75  2  0  0  0
 73 83  1  0  0  0
 74 76  2  0  0  0
 74 84  1  0  0  0
 75 76  1  0  0  0
 75 85  1  0  0  0
 76 86  1  0  0  0
 77 78  1  0  0  0
 77 79  1  0  0  0
 77149  1  0  0  0
 77150  1  0  0  0
 78 80  1  0  0  0
 78151  1  0  0  0
 78152  1  0  0  0
 79 89  1  0  0  0
 79153  1  0  0  0
 79154  1  0  0  0
 80 87  1  0  0  0
 80 89  1  0  0  0
 80155  1  0  0  0
 81156  1  0  0  0
 81157  1  0  0  0
 81158  1  0  0  0
 82159  1  0  0  0
 82160  1  0  0  0
 82161  1  0  0  0
 83162  1  0  0  0
 83163  1  0  0  0
 83164  1  0  0  0
 84165  1  0  0  0
 84166  1  0  0  0
 84167  1  0  0  0
 85 88  1  0  0  0
 85168  1  0  0  0
 85169  1  0  0  0
 86170  1  0  0  0
 86171  1  0  0  0
 86 89  1  0  0  0
 87172  1  0  0  0
 87173  1  0  0  0
 88174  1  0  0  0
 89175  1  0  0  0
M  CHG  1  89   1
M  ISO  4   1 100  68 101  87 101  88 100
M  END
> <chiral flag>
0

> <version>
0

> <s_m_source_file>
/data/baiqing/PycharmProjects/Reinvent-master-3.2/result/LINK_invent/BTK/process_docking_weight1_custom_sum_contain_oxygen_bond_distance_aromatic_linkinvent_7_9_3/rearranged_h_0171.sdf

> <i_m_source_file_index>
81

> <r_mmod_Potential_Energy-OPLS-2005>
433.379119873047

> <r_mmod_Stretch_Energy-OPLS-2005>
150.210540771484

> <r_mmod_Bend_Energy-OPLS-2005>
258.054962158203

> <r_mmod_Torsional_Energy-OPLS-2005>
500.623809814453

> <r_mmod_Improper_Torsional_Energy-OPLS-2005>
27.2293109893799

> <r_mmod_Van_der_Waal_Energy-OPLS-2005>
150.211029052734

> <r_mmod_Electrostatic_Energy-OPLS-2005>
-335.823272705078

> <r_mmod_Solvation_Energy-OPLS-2005>
-408.475524902344

> <b_mmod_Minimization_Converged-OPLS-2005>
0

> <r_mmod_RMS_Derivative-OPLS-2005>
1.68294942378998

$$$$
81
                    3D
 Structure written by MMmdl.
165174  0  0  1  0            999 V2000
  -30.6739  -14.5838   20.5002 C   0  0  0  0  0  0
  -30.4247  -12.3560   19.4523 C   0  0  0  0  0  0
  -29.5043  -12.4946   18.2215 C   0  0  0  0  0  0
  -28.0264  -12.3440   18.6334 C   0  0  0  0  0  0
  -27.6531  -13.2161   19.8625 C   0  0  2  0  0  0
  -28.6966  -13.0775   20.9930 C   0  0  0  0  0  0
  -25.2560  -13.8168   20.5679 C   0  0  0  0  0  0
  -24.1821  -13.0441   20.9177 C   0  0  0  0  0  0
  -24.6393  -11.6910   20.8738 C   0  0  0  0  0  0
  -23.9061  -10.4293   21.0403 C   0  0  0  0  0  0
  -24.3616   -9.4209   21.9182 C   0  0  0  0  0  0
  -23.6286   -8.2248   22.0755 C   0  0  0  0  0  0
  -22.4268   -8.0284   21.3549 C   0  0  0  0  0  0
  -21.9903   -9.0260   20.4654 C   0  0  0  0  0  0
  -22.7234  -10.2137   20.3056 C   0  0  0  0  0  0
  -21.6857   -6.0727   22.5275 C   0  0  0  0  0  0
  -21.4021   -6.5630   23.8207 C   0  0  0  0  0  0
  -21.3660   -5.6788   24.9173 C   0  0  0  0  0  0
  -21.6045   -4.3051   24.7223 C   0  0  0  0  0  0
  -21.8823   -3.8137   23.4347 C   0  0  0  0  0  0
  -21.9196   -4.6956   22.3404 C   0  0  0  0  0  0
  -22.7844  -13.5238   21.1834 C   0  0  0  0  0  0
  -22.1662   -4.2138   21.0982 F   0  0  0  0  0  0
  -21.5628   -3.4540   25.7741 F   0  0  0  0  0  0
  -30.0142  -13.3882   20.4221 N   0  0  0  0  0  0
  -26.2991  -12.9351   20.3330 N   0  0  0  0  0  0
  -25.9321  -11.6505   20.5761 N   0  0  0  0  0  0
  -22.0491  -12.8241   22.0404 N   0  0  0  0  0  0
  -25.4276  -15.1886   20.4081 N   0  0  0  0  0  0
  -31.8492  -14.6880   20.1345 O   0  0  0  0  0  0
  -21.6642   -6.8874   21.4240 O   0  0  0  0  0  0
  -22.3531  -14.5541   20.6681 O   0  0  0  0  0  0
  -24.6213  -31.8636   23.2069 C   0  0  0  0  0  0
  -25.9082  -32.4796   23.8381 C   0  0  1  0  0  0
  -27.2227  -27.3735   20.1135 C   0  0  0  0  0  0
  -25.5922  -33.8595   24.2316 N   0  0  0  0  0  0
  -23.4134  -30.4883   21.5464 C   0  0  2  0  0  0
  -24.8628  -28.9551   20.1058 C   0  0  0  0  0  0
  -22.7458  -29.4632   22.4931 C   0  0  0  0  0  0
  -18.0288  -28.1383   22.8475 C   0  0  0  0  0  0
  -24.1488  -36.7298   23.2634 C   0  0  0  0  0  0
  -25.9498  -30.8111   21.3723 C   0  0  0  0  0  0
  -26.0276  -29.4434   20.7142 C   0  0  0  0  0  0
  -27.2149  -28.6609   20.7156 C   0  0  0  0  0  0
  -26.0476  -26.9312   19.4696 C   0  0  0  0  0  0
  -24.8712  -27.7013   19.4750 C   0  0  0  0  0  0
  -23.6278  -29.8283   20.1588 C   0  0  0  0  0  0
  -25.4108  -36.3089   24.0334 C   0  0  1  0  0  0
  -20.5885  -28.3678   23.1284 C   0  0  2  0  0  0
  -20.6774  -26.9400   22.5412 C   0  0  0  0  0  0
  -19.5761  -26.6382   21.5199 C   0  0  0  0  0  0
  -18.1936  -26.7930   22.1603 C   0  0  0  0  0  0
  -19.1540  -28.8845   23.2879 C   0  0  0  0  0  0
  -18.9465  -30.1447   23.8899 C   0  0  0  0  0  0
  -17.6466  -30.6577   24.0568 C   0  0  0  0  0  0
  -25.9040  -34.9458   23.5122 C   0  0  0  0  0  0
  -16.5358  -29.9080   23.6327 C   0  0  0  0  0  0
  -16.7276  -28.6502   23.0336 C   0  0  0  0  0  0
  -26.4489  -31.6579   25.0724 C   0  0  0  0  0  0
  -25.3745  -31.3722   26.1474 C   0  0  0  0  0  0
  -27.0300  -30.2999   24.6139 C   0  0  0  0  0  0
  -27.6077  -32.4281   25.7474 C   0  0  0  0  0  0
  -27.5583  -37.1798   24.8460 C   0  0  0  0  0  0
  -21.4172  -29.3035   22.3674 N   0  0  0  0  0  0
  -26.4287  -37.3781   23.9414 N   0  0  0  0  0  0
  -24.6794  -31.0697   22.0993 N   0  0  0  0  0  0
  -23.4196  -28.8165   23.2988 O   0  0  0  0  0  0
  -28.3016  -26.4978   20.1800 O   0  0  0  0  0  0
  -26.5596  -34.8915   22.4677 O   0  0  0  0  0  0
  -23.5389  -32.1412   23.7428 O   0  0  0  0  0  0
  -29.8929  -23.7128   21.6458 C   0  0  0  0  0  0
  -28.7639  -23.9966   20.8488 C   0  0  0  0  0  0
  -30.4283  -22.3928   21.7019 C   0  0  0  0  0  0
  -28.2494  -22.9069   20.0913 C   0  0  0  0  0  0
  -29.8142  -21.3750   20.9345 C   0  0  0  0  0  0
  -29.8831  -17.7994   21.9749 C   0  0  0  0  0  0
  -30.3370  -18.0344   19.5584 C   0  0  0  0  0  0
  -29.3537  -16.3464   21.7408 C   0  0  0  0  0  0
  -29.7768  -16.5978   19.3425 C   0  0  0  0  0  0
  -29.7115  -18.7661   20.7686 C   0  0  0  0  0  0
  -27.0350  -23.0789   19.2002 C   0  0  0  0  0  0
  -32.0210  -22.9913   23.4007 C   0  0  0  0  0  0
  -28.0116  -25.3489   21.0350 C   0  0  0  0  0  0
  -28.7579  -21.6383   20.1329 N   0  0  0  0  0  0
  -29.8870  -15.7080   20.5215 N   0  0  0  0  0  0
  -30.3650  -20.0712   21.0239 N   0  0  0  0  0  0
  -31.5022  -22.0283   22.4908 O   0  0  0  0  0  0
  -31.4703  -12.4513   19.1550 H   0  0  0  0  0  0
  -30.3291  -11.3634   19.8955 H   0  0  0  0  0  0
  -29.7613  -11.7436   17.4732 H   0  0  0  0  0  0
  -29.6595  -13.4650   17.7460 H   0  0  0  0  0  0
  -27.8597  -11.2910   18.8651 H   0  0  0  0  0  0
  -27.3730  -12.5761   17.7914 H   0  0  0  0  0  0
  -27.6704  -14.2510   19.5205 H   0  0  0  0  0  0
  -28.6936  -12.0658   21.4001 H   0  0  0  0  0  0
  -28.4536  -13.7378   21.8249 H   0  0  0  0  0  0
  -25.2766   -9.5688   22.4749 H   0  0  0  0  0  0
  -24.0005   -7.4641   22.7472 H   0  0  0  0  0  0
  -21.0834   -8.8782   19.8957 H   0  0  0  0  0  0
  -22.3695  -10.9676   19.6162 H   0  0  0  0  0  0
  -21.2015   -7.6139   23.9702 H   0  0  0  0  0  0
  -21.1474   -6.0522   25.9073 H   0  0  0  0  0  0
  -22.0600   -2.7599   23.2854 H   0  0  0  0  0  0
  -22.4104  -11.9918   22.4814 H   0  0  0  0  0  0
  -21.1103  -13.1263   22.2589 H   0  0  0  0  0  0
  -24.6605  -15.8444   20.5073 H   0  0  0  0  0  0
  -26.2838  -15.6247   20.0913 H   0  0  0  0  0  0
  -26.7153  -32.5490   23.1136 H   0  0  0  0  0  0
  -25.0095  -33.9754   25.0478 H   0  0  0  0  0  0
  -22.7045  -31.3069   21.4062 H   0  0  0  0  0  0
  -23.3752  -35.9626   23.3290 H   0  0  0  0  0  0
  -24.3597  -36.8926   22.2053 H   0  0  0  0  0  0
  -23.7234  -37.6496   23.6658 H   0  0  0  0  0  0
  -26.0762  -31.5773   20.6063 H   0  0  0  0  0  0
  -26.8319  -30.8601   21.9985 H   0  0  0  0  0  0
  -28.1048  -29.0207   21.2130 H   0  0  0  0  0  0
  -26.0303  -25.9663   18.9855 H   0  0  0  0  0  0
  -23.9799  -27.3210   18.9948 H   0  0  0  0  0  0
  -23.7440  -30.6079   19.4045 H   0  0  0  0  0  0
  -22.7501  -29.2548   19.8546 H   0  0  0  0  0  0
  -25.1277  -36.1949   25.0825 H   0  0  0  0  0  0
  -20.9982  -28.3260   24.1402 H   0  0  0  0  0  0
  -20.5646  -26.2290   23.3609 H   0  0  0  0  0  0
  -21.6652  -26.7417   22.1228 H   0  0  0  0  0  0
  -19.6921  -25.6293   21.1226 H   0  0  0  0  0  0
  -19.6705  -27.3195   20.6732 H   0  0  0  0  0  0
  -17.4206  -26.6677   21.4005 H   0  0  0  0  0  0
  -18.0333  -26.0071   22.8995 H   0  0  0  0  0  0
  -19.7947  -30.7260   24.2266 H   0  0  0  0  0  0
  -17.5025  -31.6257   24.5177 H   0  0  0  0  0  0
  -15.5359  -30.2977   23.7653 H   0  0  0  0  0  0
  -15.8680  -28.0822   22.7036 H   0  0  0  0  0  0
  -24.5925  -30.7048   25.7835 H   0  0  0  0  0  0
  -24.8931  -32.2892   26.4885 H   0  0  0  0  0  0
  -25.8099  -30.8929   27.0252 H   0  0  0  0  0  0
  -26.2845  -29.6765   24.1189 H   0  0  0  0  0  0
  -27.4036  -29.7238   25.4615 H   0  0  0  0  0  0
  -27.8707  -30.4284   23.9316 H   0  0  0  0  0  0
  -27.2723  -33.3587   26.2063 H   0  0  0  0  0  0
  -28.3879  -32.6819   25.0283 H   0  0  0  0  0  0
  -28.0746  -31.8387   26.5376 H   0  0  0  0  0  0
  -28.2596  -38.0099   24.7515 H   0  0  0  0  0  0
  -28.1079  -36.2636   24.6252 H   0  0  0  0  0  0
  -27.2321  -37.1428   25.8869 H   0  0  0  0  0  0
  -20.9331  -29.8765   21.6906 H   0  0  0  0  0  0
  -26.0172  -38.2851   24.1431 H   0  0  0  0  0  0
  -30.3003  -24.5069   22.2531 H   0  0  0  0  0  0
  -30.9422  -17.7340   22.2314 H   0  0  0  0  0  0
  -29.3914  -18.2218   22.8520 H   0  0  0  0  0  0
  -30.1793  -18.6229   18.6532 H   0  0  0  0  0  0
  -31.4186  -17.9685   19.6886 H   0  0  0  0  0  0
  -28.2661  -16.3632   21.6633 H   0  0  0  0  0  0
  -29.5847  -15.7355   22.6156 H   0  0  0  0  0  0
  -30.2691  -16.1468   18.4789 H   0  0  0  0  0  0
  -28.7220  -16.6609   19.0730 H   0  0  0  0  0  0
  -28.6483  -18.9301   20.5853 H   0  0  0  0  0  0
  -27.1597  -23.9484   18.5558 H   0  0  0  0  0  0
  -26.1346  -23.2143   19.7991 H   0  0  0  0  0  0
  -26.8842  -22.2113   18.5568 H   0  0  0  0  0  0
  -32.8219  -22.5402   23.9872 H   0  0  0  0  0  0
  -31.2569  -23.3326   24.1008 H   0  0  0  0  0  0
  -32.4420  -23.8514   22.8789 H   0  0  0  0  0  0
  -28.2055  -25.6841   22.0554 H   0  0  0  0  0  0
  -26.9483  -25.1087   21.0448 H   0  0  0  0  0  0
  -31.1541  -20.0502   21.6620 H   0  0  0  0  0  0
  1 25  1  0  0  0
  1 30  2  0  0  0
  1 85  1  0  0  0
  2  3  1  0  0  0
  2 25  1  0  0  0
  2 88  1  0  0  0
  2 89  1  0  0  0
  3  4  1  0  0  0
  3 90  1  0  0  0
  3 91  1  0  0  0
  4  5  1  0  0  0
  4 92  1  0  0  0
  4 93  1  0  0  0
  5  6  1  0  0  0
  5 26  1  0  0  0
  5 94  1  0  0  0
  6 25  1  0  0  0
  6 95  1  0  0  0
  6 96  1  0  0  0
  7  8  2  0  0  0
  7 26  1  0  0  0
  7 29  1  0  0  0
  8  9  1  0  0  0
  8 22  1  0  0  0
  9 10  1  0  0  0
  9 27  2  0  0  0
 10 11  2  0  0  0
 10 15  1  0  0  0
 11 12  1  0  0  0
 11 97  1  0  0  0
 12 13  2  0  0  0
 12 98  1  0  0  0
 13 14  1  0  0  0
 13 31  1  0  0  0
 14 15  2  0  0  0
 14 99  1  0  0  0
 15100  1  0  0  0
 16 17  2  0  0  0
 16 21  1  0  0  0
 16 31  1  0  0  0
 17 18  1  0  0  0
 17101  1  0  0  0
 18 19  2  0  0  0
 18102  1  0  0  0
 19 20  1  0  0  0
 19 24  1  0  0  0
 20 21  2  0  0  0
 20103  1  0  0  0
 21 23  1  0  0  0
 22 28  1  0  0  0
 22 32  2  0  0  0
 26 27  1  0  0  0
 28104  1  0  0  0
 28105  1  0  0  0
 29106  1  0  0  0
 29107  1  0  0  0
 33 34  1  0  0  0
 33 66  1  0  0  0
 33 70  2  0  0  0
 34 36  1  0  0  0
 34 59  1  0  0  0
 34108  1  0  0  0
 35 44  2  0  0  0
 35 45  1  0  0  0
 35 68  1  0  0  0
 36 56  1  0  0  0
 36109  1  0  0  0
 37 39  1  0  0  0
 37 47  1  0  0  0
 37 66  1  0  0  0
 37110  1  0  0  0
 38 43  2  0  0  0
 38 46  1  0  0  0
 38 47  1  0  0  0
 39 64  1  0  0  0
 39 67  2  0  0  0
 40 52  1  0  0  0
 40 53  2  0  0  0
 40 58  1  0  0  0
 41111  1  0  0  0
 41112  1  0  0  0
 41113  1  0  0  0
 41 48  1  0  0  0
 42 43  1  0  0  0
 42 66  1  0  0  0
 42114  1  0  0  0
 42115  1  0  0  0
 43 44  1  0  0  0
 44116  1  0  0  0
 45 46  2  0  0  0
 45117  1  0  0  0
 46118  1  0  0  0
 47119  1  0  0  0
 47120  1  0  0  0
 48 56  1  0  0  0
 48 65  1  0  0  0
 48121  1  0  0  0
 49 50  1  0  0  0
 49 53  1  0  0  0
 49 64  1  0  0  0
 49122  1  0  0  0
 50 51  1  0  0  0
 50123  1  0  0  0
 50124  1  0  0  0
 51 52  1  0  0  0
 51125  1  0  0  0
 51126  1  0  0  0
 52127  1  0  0  0
 52128  1  0  0  0
 53 54  1  0  0  0
 54 55  2  0  0  0
 54129  1  0  0  0
 55 57  1  0  0  0
 55130  1  0  0  0
 56 69  2  0  0  0
 57 58  2  0  0  0
 57131  1  0  0  0
 58132  1  0  0  0
 59 60  1  0  0  0
 59 61  1  0  0  0
 59 62  1  0  0  0
 60133  1  0  0  0
 60134  1  0  0  0
 60135  1  0  0  0
 61136  1  0  0  0
 61137  1  0  0  0
 61138  1  0  0  0
 62139  1  0  0  0
 62140  1  0  0  0
 62141  1  0  0  0
 63 65  1  0  0  0
 63142  1  0  0  0
 63143  1  0  0  0
 63144  1  0  0  0
 64145  1  0  0  0
 65146  1  0  0  0
 68 83  1  0  0  0
 71 72  2  0  0  0
 71 73  1  0  0  0
 71147  1  0  0  0
 72 74  1  0  0  0
 72 83  1  0  0  0
 73 75  2  0  0  0
 73 87  1  0  0  0
 74 81  1  0  0  0
 74 84  2  0  0  0
 75 84  1  0  0  0
 75 86  1  0  0  0
 76 78  1  0  0  0
 76 80  1  0  0  0
 76148  1  0  0  0
 76149  1  0  0  0
 77 79  1  0  0  0
 77 80  1  0  0  0
 77150  1  0  0  0
 77151  1  0  0  0
 78 85  1  0  0  0
 78152  1  0  0  0
 78153  1  0  0  0
 79 85  1  0  0  0
 79154  1  0  0  0
 79155  1  0  0  0
 80 86  1  0  0  0
 80156  1  0  0  0
 81157  1  0  0  0
 81158  1  0  0  0
 81159  1  0  0  0
 82 87  1  0  0  0
 82160  1  0  0  0
 82161  1  0  0  0
 82162  1  0  0  0
 83163  1  0  0  0
 83164  1  0  0  0
 86165  1  0  0  0
M  ISO  4   1 100  68 101  83 101  85 100
M  END
> <chiral flag>
0

> <version>
0

> <s_m_source_file>
/data/baiqing/PycharmProjects/Reinvent-master-3.2/result/LINK_invent/BTK/process_docking_weight1_custom_sum_contain_oxygen_bond_distance_aromatic_linkinvent_7_9_3/rearranged_h_0171.sdf

> <i_m_source_file_index>
82

> <r_mmod_Potential_Energy-OPLS-2005>
85.0107955932617

> <r_mmod_Stretch_Energy-OPLS-2005>
57.2468757629395

> <r_mmod_Bend_Energy-OPLS-2005>
142.555969238281

> <r_mmod_Torsional_Energy-OPLS-2005>
360.437225341797

> <r_mmod_Improper_Torsional_Energy-OPLS-2005>
18.3941593170166

> <r_mmod_Van_der_Waal_Energy-OPLS-2005>
150.258026123047

> <r_mmod_Electrostatic_Energy-OPLS-2005>
-462.025268554688

> <r_mmod_Solvation_Energy-OPLS-2005>
-219.010864257812

> <b_mmod_Minimization_Converged-OPLS-2005>
0

> <r_mmod_RMS_Derivative-OPLS-2005>
1.26368820667267

$$$$
82
                    3D
 Structure written by MMmdl.
170180  0  0  1  0            999 V2000
  -30.6456  -14.3555   20.6331 C   0  0  0  0  0  0
  -30.4140  -12.2609   19.3711 C   0  0  0  0  0  0
  -29.4727  -12.5018   18.1702 C   0  0  0  0  0  0
  -27.9868  -12.3814   18.5728 C   0  0  0  0  0  0
  -27.6502  -13.1739   19.8629 C   0  0  2  0  0  0
  -28.6759  -12.8331   20.9617 C   0  0  0  0  0  0
  -25.2469  -13.8047   20.5604 C   0  0  0  0  0  0
  -24.1751  -13.0377   20.9168 C   0  0  0  0  0  0
  -24.6297  -11.6834   20.8706 C   0  0  0  0  0  0
  -23.8975  -10.4238   21.0379 C   0  0  0  0  0  0
  -24.3577   -9.4170   21.9164 C   0  0  0  0  0  0
  -23.6276   -8.2195   22.0732 C   0  0  0  0  0  0
  -22.4241   -8.0242   21.3544 C   0  0  0  0  0  0
  -21.9857   -9.0184   20.4625 C   0  0  0  0  0  0
  -22.7147  -10.2074   20.3035 C   0  0  0  0  0  0
  -21.6862   -6.0710   22.5276 C   0  0  0  0  0  0
  -21.4009   -6.5628   23.8208 C   0  0  0  0  0  0
  -21.3652   -5.6788   24.9186 C   0  0  0  0  0  0
  -21.6030   -4.3049   24.7242 C   0  0  0  0  0  0
  -21.8828   -3.8139   23.4369 C   0  0  0  0  0  0
  -21.9189   -4.6942   22.3414 C   0  0  0  0  0  0
  -22.7792  -13.5172   21.1954 C   0  0  0  0  0  0
  -22.1659   -4.2120   21.0995 F   0  0  0  0  0  0
  -21.5623   -3.4557   25.7772 F   0  0  0  0  0  0
  -30.0141  -13.1715   20.4499 N   0  0  0  0  0  0
  -26.2889  -12.9192   20.3215 N   0  0  0  0  0  0
  -25.9182  -11.6383   20.5656 N   0  0  0  0  0  0
  -22.0506  -12.8124   22.0521 N   0  0  0  0  0  0
  -25.4088  -15.1759   20.3960 N   0  0  0  0  0  0
  -31.7615  -14.6113   20.1553 O   0  0  0  0  0  0
  -21.6628   -6.8829   21.4228 O   0  0  0  0  0  0
  -22.3444  -14.5488   20.6822 O   0  0  0  0  0  0
  -24.6090  -31.8687   23.2111 C   0  0  0  0  0  0
  -25.9005  -32.4810   23.8403 C   0  0  1  0  0  0
  -27.2146  -27.4873   20.1056 C   0  0  0  0  0  0
  -25.5838  -33.8608   24.2336 N   0  0  0  0  0  0
  -23.3948  -30.4962   21.5513 C   0  0  2  0  0  0
  -24.8337  -28.9771   20.1042 C   0  0  0  0  0  0
  -22.7408  -29.4663   22.4997 C   0  0  0  0  0  0
  -18.0247  -28.1474   22.8448 C   0  0  0  0  0  0
  -24.1465  -36.7356   23.2648 C   0  0  0  0  0  0
  -25.9157  -30.8617   21.3467 C   0  0  0  0  0  0
  -25.9913  -29.5011   20.6985 C   0  0  0  0  0  0
  -27.1890  -28.7649   20.6895 C   0  0  0  0  0  0
  -26.0523  -26.9678   19.5014 C   0  0  0  0  0  0
  -24.8580  -27.7080   19.5002 C   0  0  0  0  0  0
  -23.5944  -29.8361   20.1621 C   0  0  0  0  0  0
  -25.4082  -36.3131   24.0334 C   0  0  1  0  0  0
  -20.5816  -28.3717   23.1388 C   0  0  2  0  0  0
  -20.6763  -26.9475   22.5484 C   0  0  0  0  0  0
  -19.5733  -26.6449   21.5298 C   0  0  0  0  0  0
  -18.1879  -26.8019   22.1613 C   0  0  0  0  0  0
  -19.1488  -28.8910   23.2887 C   0  0  0  0  0  0
  -18.9444  -30.1533   23.8894 C   0  0  0  0  0  0
  -17.6445  -30.6655   24.0613 C   0  0  0  0  0  0
  -25.8987  -34.9480   23.5157 C   0  0  0  0  0  0
  -16.5338  -29.9178   23.6331 C   0  0  0  0  0  0
  -16.7239  -28.6615   23.0294 C   0  0  0  0  0  0
  -26.4416  -31.6566   25.0725 C   0  0  0  0  0  0
  -25.3685  -31.3695   26.1500 C   0  0  0  0  0  0
  -27.0309  -30.3007   24.6127 C   0  0  0  0  0  0
  -27.6023  -32.4302   25.7436 C   0  0  0  0  0  0
  -27.5566  -37.1791   24.8447 C   0  0  0  0  0  0
  -21.4132  -29.3036   22.3769 N   0  0  0  0  0  0
  -26.4282  -37.3806   23.9401 N   0  0  0  0  0  0
  -24.6600  -31.0841   22.0994 N   0  0  0  0  0  0
  -23.4223  -28.8228   23.3029 O   0  0  0  0  0  0
  -28.3769  -26.7763   20.1818 O   0  0  0  0  0  0
  -26.5582  -34.8919   22.4745 O   0  0  0  0  0  0
  -23.5305  -32.1471   23.7493 O   0  0  0  0  0  0
  -26.1162  -20.3984   23.3061 C   0  0  0  0  0  0
  -26.6522  -19.1369   22.9429 C   0  0  0  0  0  0
  -26.7534  -21.5563   22.8235 C   0  0  0  0  0  0
  -27.8268  -19.0529   22.1434 C   0  0  0  0  0  0
  -27.8636  -21.4548   22.0049 C   0  0  0  0  0  0
  -28.4384  -20.2370   21.6513 C   0  0  0  0  0  0
  -26.4340  -23.0041   23.1167 C   0  0  0  0  0  0
  -28.3892  -22.7805   21.6018 C   0  0  0  0  0  0
  -28.3744  -16.5355   22.7583 C   0  0  0  0  0  0
  -28.4116  -17.2834   20.3923 C   0  0  0  0  0  0
  -29.5847  -15.6040   22.4717 C   0  0  0  0  0  0
  -29.6831  -16.4805   20.1086 C   0  0  0  0  0  0
  -28.5317  -17.7484   21.8427 C   0  0  0  0  0  0
  -27.6224  -23.7884   22.4764 C   0  0  1  0  0  0
  -29.7247  -20.2661   20.8185 C   0  0  0  0  0  0
  -27.2861  -25.1068   21.7506 C   0  0  0  0  0  0
  -28.2467  -25.4135   20.5606 C   0  0  0  0  0  0
  -29.8090  -15.3392   21.0276 N   0  0  0  0  0  0
  -31.4523  -12.4029   19.0648 H   0  0  0  0  0  0
  -30.3401  -11.2282   19.7119 H   0  0  0  0  0  0
  -29.6920  -11.7882   17.3737 H   0  0  0  0  0  0
  -29.6569  -13.4934   17.7506 H   0  0  0  0  0  0
  -27.7518  -11.3244   18.7158 H   0  0  0  0  0  0
  -27.3514  -12.7206   17.7536 H   0  0  0  0  0  0
  -27.7219  -14.2346   19.6230 H   0  0  0  0  0  0
  -28.6366  -11.7656   21.1843 H   0  0  0  0  0  0
  -28.4042  -13.3184   21.8937 H   0  0  0  0  0  0
  -25.2745   -9.5686   22.4711 H   0  0  0  0  0  0
  -24.0006   -7.4592   22.7459 H   0  0  0  0  0  0
  -21.0795   -8.8697   19.8925 H   0  0  0  0  0  0
  -22.3617  -10.9621   19.6144 H   0  0  0  0  0  0
  -21.1998   -7.6140   23.9721 H   0  0  0  0  0  0
  -21.1460   -6.0523   25.9084 H   0  0  0  0  0  0
  -22.0614   -2.7604   23.2908 H   0  0  0  0  0  0
  -22.4172  -11.9714   22.4760 H   0  0  0  0  0  0
  -21.1146  -13.1121   22.2845 H   0  0  0  0  0  0
  -24.6395  -15.8289   20.4985 H   0  0  0  0  0  0
  -26.2587  -15.6157   20.0730 H   0  0  0  0  0  0
  -26.7057  -32.5547   23.1170 H   0  0  0  0  0  0
  -24.9898  -33.9738   25.0408 H   0  0  0  0  0  0
  -22.6862  -31.3135   21.4151 H   0  0  0  0  0  0
  -23.3720  -35.9692   23.3288 H   0  0  0  0  0  0
  -24.3630  -36.9007   22.2085 H   0  0  0  0  0  0
  -23.7185  -37.6533   23.6687 H   0  0  0  0  0  0
  -26.0286  -31.6311   20.5792 H   0  0  0  0  0  0
  -26.8061  -30.9157   21.9615 H   0  0  0  0  0  0
  -28.0868  -29.1568   21.1481 H   0  0  0  0  0  0
  -26.0613  -25.9867   19.0499 H   0  0  0  0  0  0
  -23.9720  -27.2955   19.0403 H   0  0  0  0  0  0
  -23.6897  -30.6163   19.4073 H   0  0  0  0  0  0
  -22.7177  -29.2545   19.8660 H   0  0  0  0  0  0
  -25.1237  -36.2030   25.0823 H   0  0  0  0  0  0
  -20.9839  -28.3327   24.1538 H   0  0  0  0  0  0
  -20.5848  -26.2334   23.3667 H   0  0  0  0  0  0
  -21.6616  -26.7638   22.1194 H   0  0  0  0  0  0
  -19.6956  -25.6410   21.1256 H   0  0  0  0  0  0
  -19.6676  -27.3288   20.6880 H   0  0  0  0  0  0
  -17.4186  -26.6738   21.3975 H   0  0  0  0  0  0
  -18.0212  -26.0258   22.9094 H   0  0  0  0  0  0
  -19.7934  -30.7336   24.2227 H   0  0  0  0  0  0
  -17.5009  -31.6301   24.5303 H   0  0  0  0  0  0
  -15.5318  -30.3088   23.7722 H   0  0  0  0  0  0
  -15.8618  -28.0986   22.6974 H   0  0  0  0  0  0
  -24.5836  -30.7034   25.7868 H   0  0  0  0  0  0
  -24.8895  -32.2880   26.4922 H   0  0  0  0  0  0
  -25.8050  -30.8895   27.0279 H   0  0  0  0  0  0
  -26.2940  -29.6658   24.1178 H   0  0  0  0  0  0
  -27.4115  -29.7266   25.4599 H   0  0  0  0  0  0
  -27.8714  -30.4339   23.9308 H   0  0  0  0  0  0
  -27.2647  -33.3595   26.2025 H   0  0  0  0  0  0
  -28.3760  -32.6858   25.0184 H   0  0  0  0  0  0
  -28.0764  -31.8448   26.5305 H   0  0  0  0  0  0
  -28.2525  -38.0146   24.7624 H   0  0  0  0  0  0
  -28.1099  -36.2691   24.6106 H   0  0  0  0  0  0
  -27.2335  -37.1295   25.8861 H   0  0  0  0  0  0
  -20.9377  -29.8718   21.6901 H   0  0  0  0  0  0
  -26.0159  -38.2847   24.1536 H   0  0  0  0  0  0
  -25.2561  -20.4784   23.9557 H   0  0  0  0  0  0
  -26.1762  -18.2409   23.3137 H   0  0  0  0  0  0
  -26.3727  -23.1754   24.1924 H   0  0  0  0  0  0
  -25.4734  -23.2540   22.6678 H   0  0  0  0  0  0
  -28.1729  -22.8569   20.5361 H   0  0  0  0  0  0
  -29.4664  -22.8471   21.7605 H   0  0  0  0  0  0
  -28.3919  -16.8371   23.8039 H   0  0  0  0  0  0
  -27.4177  -16.0364   22.5913 H   0  0  0  0  0  0
  -27.5195  -16.6844   20.2351 H   0  0  0  0  0  0
  -28.3086  -18.1098   19.6907 H   0  0  0  0  0  0
  -29.4942  -14.6882   23.0534 H   0  0  0  0  0  0
  -30.4882  -16.0843   22.8442 H   0  0  0  0  0  0
  -30.5689  -17.1057   20.2297 H   0  0  0  0  0  0
  -29.6733  -16.1539   19.0665 H   0  0  0  0  0  0
  -29.5652  -18.0418   22.0223 H   0  0  0  0  0  0
  -28.3025  -24.0264   23.2928 H   0  0  0  0  0  0
  -29.8675  -19.4205   20.1573 H   0  0  0  0  0  0
  -30.5889  -20.3069   21.4794 H   0  0  0  0  0  0
  -29.7746  -21.1403   20.1695 H   0  0  0  0  0  0
  -27.3190  -25.9086   22.4886 H   0  0  0  0  0  0
  -26.2570  -25.0853   21.3917 H   0  0  0  0  0  0
  -27.9643  -24.8290   19.6853 H   0  0  0  0  0  0
  -29.2592  -25.1074   20.8295 H   0  0  0  0  0  0
  1 25  1  0  0  0
  1 30  2  0  0  0
  1 88  1  0  0  0
  2  3  1  0  0  0
  2 25  1  0  0  0
  2 89  1  0  0  0
  2 90  1  0  0  0
  3  4  1  0  0  0
  3 91  1  0  0  0
  3 92  1  0  0  0
  4  5  1  0  0  0
  4 93  1  0  0  0
  4 94  1  0  0  0
  5  6  1  0  0  0
  5 26  1  0  0  0
  5 95  1  0  0  0
  6 25  1  0  0  0
  6 96  1  0  0  0
  6 97  1  0  0  0
  7  8  2  0  0  0
  7 26  1  0  0  0
  7 29  1  0  0  0
  8  9  1  0  0  0
  8 22  1  0  0  0
  9 10  1  0  0  0
  9 27  2  0  0  0
 10 11  2  0  0  0
 10 15  1  0  0  0
 11 12  1  0  0  0
 11 98  1  0  0  0
 12 13  2  0  0  0
 12 99  1  0  0  0
 13 14  1  0  0  0
 13 31  1  0  0  0
 14 15  2  0  0  0
 14100  1  0  0  0
 15101  1  0  0  0
 16 17  2  0  0  0
 16 21  1  0  0  0
 16 31  1  0  0  0
 17 18  1  0  0  0
 17102  1  0  0  0
 18 19  2  0  0  0
 18103  1  0  0  0
 19 20  1  0  0  0
 19 24  1  0  0  0
 20 21  2  0  0  0
 20104  1  0  0  0
 21 23  1  0  0  0
 22 28  1  0  0  0
 22 32  2  0  0  0
 26 27  1  0  0  0
 28105  1  0  0  0
 28106  1  0  0  0
 29107  1  0  0  0
 29108  1  0  0  0
 33 34  1  0  0  0
 33 66  1  0  0  0
 33 70  2  0  0  0
 34 36  1  0  0  0
 34 59  1  0  0  0
 34109  1  0  0  0
 35 44  2  0  0  0
 35 45  1  0  0  0
 35 68  1  0  0  0
 36 56  1  0  0  0
 36110  1  0  0  0
 37 39  1  0  0  0
 37 47  1  0  0  0
 37 66  1  0  0  0
 37111  1  0  0  0
 38 43  2  0  0  0
 38 46  1  0  0  0
 38 47  1  0  0  0
 39 64  1  0  0  0
 39 67  2  0  0  0
 40 52  1  0  0  0
 40 53  2  0  0  0
 40 58  1  0  0  0
 41112  1  0  0  0
 41113  1  0  0  0
 41114  1  0  0  0
 41 48  1  0  0  0
 42 43  1  0  0  0
 42 66  1  0  0  0
 42115  1  0  0  0
 42116  1  0  0  0
 43 44  1  0  0  0
 44117  1  0  0  0
 45 46  2  0  0  0
 45118  1  0  0  0
 46119  1  0  0  0
 47120  1  0  0  0
 47121  1  0  0  0
 48 56  1  0  0  0
 48 65  1  0  0  0
 48122  1  0  0  0
 49 50  1  0  0  0
 49 53  1  0  0  0
 49 64  1  0  0  0
 49123  1  0  0  0
 50 51  1  0  0  0
 50124  1  0  0  0
 50125  1  0  0  0
 51 52  1  0  0  0
 51126  1  0  0  0
 51127  1  0  0  0
 52128  1  0  0  0
 52129  1  0  0  0
 53 54  1  0  0  0
 54 55  2  0  0  0
 54130  1  0  0  0
 55 57  1  0  0  0
 55131  1  0  0  0
 56 69  2  0  0  0
 57 58  2  0  0  0
 57132  1  0  0  0
 58133  1  0  0  0
 59 60  1  0  0  0
 59 61  1  0  0  0
 59 62  1  0  0  0
 60134  1  0  0  0
 60135  1  0  0  0
 60136  1  0  0  0
 61137  1  0  0  0
 61138  1  0  0  0
 61139  1  0  0  0
 62140  1  0  0  0
 62141  1  0  0  0
 62142  1  0  0  0
 63 65  1  0  0  0
 63143  1  0  0  0
 63144  1  0  0  0
 63145  1  0  0  0
 64146  1  0  0  0
 65147  1  0  0  0
 68 87  1  0  0  0
 71 72  2  0  0  0
 71 73  1  0  0  0
 71148  1  0  0  0
 72 74  1  0  0  0
 72149  1  0  0  0
 73 75  2  0  0  0
 73 77  1  0  0  0
 74 76  2  0  0  0
 74 83  1  0  0  0
 75 76  1  0  0  0
 75 78  1  0  0  0
 76 85  1  0  0  0
 77 84  1  0  0  0
 77150  1  0  0  0
 77151  1  0  0  0
 78 84  1  0  0  0
 78152  1  0  0  0
 78153  1  0  0  0
 79 81  1  0  0  0
 79 83  1  0  0  0
 79154  1  0  0  0
 79155  1  0  0  0
 80 82  1  0  0  0
 80 83  1  0  0  0
 80156  1  0  0  0
 80157  1  0  0  0
 81 88  1  0  0  0
 81158  1  0  0  0
 81159  1  0  0  0
 82 88  1  0  0  0
 82160  1  0  0  0
 82161  1  0  0  0
 83162  1  0  0  0
 84 86  1  0  0  0
 84163  1  0  0  0
 85164  1  0  0  0
 85165  1  0  0  0
 85166  1  0  0  0
 86 87  1  0  0  0
 86167  1  0  0  0
 86168  1  0  0  0
 87169  1  0  0  0
 87170  1  0  0  0
M  ISO  4   1 100  68 101  87 101  88 100
M  END
> <chiral flag>
0

> <version>
0

> <s_m_source_file>
/data/baiqing/PycharmProjects/Reinvent-master-3.2/result/LINK_invent/BTK/process_docking_weight1_custom_sum_contain_oxygen_bond_distance_aromatic_linkinvent_7_9_3/rearranged_h_0171.sdf

> <i_m_source_file_index>
83

> <r_mmod_Potential_Energy-OPLS-2005>
275.459655761719

> <r_mmod_Stretch_Energy-OPLS-2005>
38.6391639709473

> <r_mmod_Bend_Energy-OPLS-2005>
163.166076660156

> <r_mmod_Torsional_Energy-OPLS-2005>
350.526763916016

> <r_mmod_Improper_Torsional_Energy-OPLS-2005>
13.0113496780396

> <r_mmod_Van_der_Waal_Energy-OPLS-2005>
187.658142089844

> <r_mmod_Electrostatic_Energy-OPLS-2005>
-306.292572021484

> <r_mmod_Solvation_Energy-OPLS-2005>
-186.502899169922

> <b_mmod_Minimization_Converged-OPLS-2005>
0

> <r_mmod_RMS_Derivative-OPLS-2005>
6.02980279922485

$$$$
83
                    3D
 Structure written by MMmdl.
179191  0  0  1  0            999 V2000
  -30.6847  -14.6311   20.5052 C   0  0  0  0  0  0
  -30.4117  -12.3911   19.4643 C   0  0  0  0  0  0
  -29.4945  -12.5071   18.2314 C   0  0  0  0  0  0
  -28.0191  -12.3556   18.6444 C   0  0  0  0  0  0
  -27.6455  -13.2353   19.8663 C   0  0  2  0  0  0
  -28.6897  -13.1268   20.9966 C   0  0  0  0  0  0
  -25.2496  -13.8241   20.5757 C   0  0  0  0  0  0
  -24.1797  -13.0449   20.9239 C   0  0  0  0  0  0
  -24.6410  -11.6933   20.8783 C   0  0  0  0  0  0
  -23.9110  -10.4287   21.0422 C   0  0  0  0  0  0
  -24.3673   -9.4185   21.9182 C   0  0  0  0  0  0
  -23.6343   -8.2220   22.0746 C   0  0  0  0  0  0
  -22.4307   -8.0283   21.3546 C   0  0  0  0  0  0
  -21.9961   -9.0251   20.4635 C   0  0  0  0  0  0
  -22.7298  -10.2124   20.3053 C   0  0  0  0  0  0
  -21.6857   -6.0762   22.5291 C   0  0  0  0  0  0
  -21.4017   -6.5660   23.8228 C   0  0  0  0  0  0
  -21.3655   -5.6804   24.9179 C   0  0  0  0  0  0
  -21.6054   -4.3070   24.7227 C   0  0  0  0  0  0
  -21.8819   -3.8173   23.4340 C   0  0  0  0  0  0
  -21.9195   -4.6995   22.3401 C   0  0  0  0  0  0
  -22.7795  -13.5166   21.1886 C   0  0  0  0  0  0
  -22.1645   -4.2192   21.0968 F   0  0  0  0  0  0
  -21.5632   -3.4539   25.7723 F   0  0  0  0  0  0
  -30.0062  -13.4391   20.4284 N   0  0  0  0  0  0
  -26.2945  -12.9473   20.3404 N   0  0  0  0  0  0
  -25.9356  -11.6597   20.5854 N   0  0  0  0  0  0
  -22.0464  -12.8132   22.0459 N   0  0  0  0  0  0
  -25.4192  -15.1957   20.4104 N   0  0  0  0  0  0
  -31.8121  -14.7315   20.0152 O   0  0  0  0  0  0
  -21.6645   -6.8900   21.4247 O   0  0  0  0  0  0
  -22.3439  -14.5454   20.6733 O   0  0  0  0  0  0
  -24.6278  -31.8609   23.2057 C   0  0  0  0  0  0
  -25.9129  -32.4779   23.8371 C   0  0  1  0  0  0
  -27.2072  -27.3194   20.0902 C   0  0  0  0  0  0
  -25.5956  -33.8577   24.2300 N   0  0  0  0  0  0
  -23.4180  -30.4891   21.5510 C   0  0  2  0  0  0
  -24.8580  -28.9535   20.1096 C   0  0  0  0  0  0
  -22.7470  -29.4637   22.4960 C   0  0  0  0  0  0
  -18.0286  -28.1389   22.8482 C   0  0  0  0  0  0
  -24.1491  -36.7302   23.2633 C   0  0  0  0  0  0
  -25.9631  -30.7898   21.3776 C   0  0  0  0  0  0
  -26.0326  -29.4194   20.7149 C   0  0  0  0  0  0
  -27.2115  -28.6139   20.6994 C   0  0  0  0  0  0
  -26.0051  -26.9185   19.4590 C   0  0  0  0  0  0
  -24.8465  -27.7073   19.4751 C   0  0  0  0  0  0
  -23.6297  -29.8338   20.1631 C   0  0  0  0  0  0
  -25.4118  -36.3090   24.0326 C   0  0  1  0  0  0
  -20.5875  -28.3684   23.1293 C   0  0  2  0  0  0
  -20.6773  -26.9412   22.5411 C   0  0  0  0  0  0
  -19.5751  -26.6384   21.5214 C   0  0  0  0  0  0
  -18.1924  -26.7930   22.1621 C   0  0  0  0  0  0
  -19.1534  -28.8858   23.2876 C   0  0  0  0  0  0
  -18.9458  -30.1461   23.8894 C   0  0  0  0  0  0
  -17.6461  -30.6583   24.0573 C   0  0  0  0  0  0
  -25.9057  -34.9450   23.5113 C   0  0  0  0  0  0
  -16.5352  -29.9085   23.6327 C   0  0  0  0  0  0
  -16.7276  -28.6507   23.0342 C   0  0  0  0  0  0
  -26.4501  -31.6571   25.0730 C   0  0  0  0  0  0
  -25.3730  -31.3712   26.1452 C   0  0  0  0  0  0
  -27.0332  -30.2995   24.6173 C   0  0  0  0  0  0
  -27.6077  -32.4278   25.7503 C   0  0  0  0  0  0
  -27.5590  -37.1805   24.8459 C   0  0  0  0  0  0
  -21.4184  -29.3048   22.3699 N   0  0  0  0  0  0
  -26.4296  -37.3785   23.9402 N   0  0  0  0  0  0
  -24.6889  -31.0623   22.1015 N   0  0  0  0  0  0
  -23.4202  -28.8159   23.3018 O   0  0  0  0  0  0
  -28.3094  -26.4449   20.1224 O   0  0  0  0  0  0
  -26.5612  -34.8918   22.4673 O   0  0  0  0  0  0
  -23.5445  -32.1413   23.7394 O   0  0  0  0  0  0
  -30.3547  -21.4873   16.6310 C   0  0  0  0  0  0
  -29.5329  -22.1782   17.5373 C   0  0  0  0  0  0
  -29.3222  -21.6384   18.8473 C   0  0  0  0  0  0
  -30.8921  -20.2504   16.9849 C   0  0  0  0  0  0
  -29.7664  -20.2565   19.0342 C   0  0  0  0  0  0
  -27.3112  -23.3677   16.7991 C   0  0  0  0  0  0
  -28.2213  -23.3902   15.6022 C   0  0  0  0  0  0
  -31.2271  -19.2391   14.6038 C   0  0  0  0  0  0
  -31.2098  -18.0750   15.5599 C   0  0  0  0  0  0
  -30.1173  -19.0960   21.4136 C   0  0  0  0  0  0
  -29.2591  -17.6719   19.6334 C   0  0  0  0  0  0
  -31.0495  -16.6401   21.9014 C   0  0  0  0  0  0
  -28.8172  -23.3927   16.9988 C   0  0  0  0  0  0
  -31.7046  -19.4292   16.0291 C   0  0  0  0  0  0
  -29.3042  -19.2014   20.1037 C   0  0  2  0  0  0
  -29.9075  -17.6565   21.9475 C   0  0  2  0  0  0
  -29.1902  -16.8060   20.9180 C   0  0  2  0  0  0
  -29.7017  -23.9618   21.5132 C   0  0  0  0  0  0
  -28.0182  -25.0038   19.9197 C   0  0  0  0  0  0
  -29.1306  -23.8784   20.0956 C   0  0  2  0  0  0
  -30.6124  -19.6699   18.1579 N   0  0  0  0  0  0
  -30.1615  -15.6857   21.2187 N   0  0  0  0  0  0
  -28.6803  -22.4603   19.8318 N   0  0  0  0  0  0
  -31.4565  -12.4731   19.1620 H   0  0  0  0  0  0
  -30.3201  -11.4029   19.9192 H   0  0  0  0  0  0
  -29.7516  -11.7460   17.4929 H   0  0  0  0  0  0
  -29.6494  -13.4728   17.7467 H   0  0  0  0  0  0
  -27.8498  -11.3062   18.8801 H   0  0  0  0  0  0
  -27.3643  -12.5813   17.8042 H   0  0  0  0  0  0
  -27.6543  -14.2675   19.5150 H   0  0  0  0  0  0
  -28.6901  -12.1204   21.4174 H   0  0  0  0  0  0
  -28.4413  -13.7985   21.8200 H   0  0  0  0  0  0
  -25.2808   -9.5667   22.4783 H   0  0  0  0  0  0
  -24.0065   -7.4601   22.7449 H   0  0  0  0  0  0
  -21.0917   -8.8771   19.8919 H   0  0  0  0  0  0
  -22.3761  -10.9686   19.6185 H   0  0  0  0  0  0
  -21.1998   -7.6167   23.9755 H   0  0  0  0  0  0
  -21.1480   -6.0512   25.9083 H   0  0  0  0  0  0
  -22.0610   -2.7647   23.2815 H   0  0  0  0  0  0
  -22.4093  -11.9795   22.4852 H   0  0  0  0  0  0
  -21.1062  -13.1130   22.2659 H   0  0  0  0  0  0
  -24.6634  -15.8620   20.5334 H   0  0  0  0  0  0
  -26.2792  -15.6248   20.0928 H   0  0  0  0  0  0
  -26.7200  -32.5446   23.1117 H   0  0  0  0  0  0
  -25.0106  -33.9705   25.0452 H   0  0  0  0  0  0
  -22.7128  -31.3108   21.4127 H   0  0  0  0  0  0
  -23.3755  -35.9628   23.3275 H   0  0  0  0  0  0
  -24.3598  -36.8940   22.2051 H   0  0  0  0  0  0
  -23.7221  -37.6492   23.6668 H   0  0  0  0  0  0
  -26.0926  -31.5552   20.6105 H   0  0  0  0  0  0
  -26.8444  -30.8373   22.0040 H   0  0  0  0  0  0
  -28.1105  -28.9645   21.1856 H   0  0  0  0  0  0
  -25.9063  -25.9773   18.9432 H   0  0  0  0  0  0
  -23.9499  -27.3429   18.9926 H   0  0  0  0  0  0
  -23.7527  -30.6141   19.4120 H   0  0  0  0  0  0
  -22.7477  -29.2673   19.8559 H   0  0  0  0  0  0
  -25.1295  -36.1951   25.0817 H   0  0  0  0  0  0
  -20.9968  -28.3256   24.1415 H   0  0  0  0  0  0
  -20.5674  -26.2298   23.3605 H   0  0  0  0  0  0
  -21.6643  -26.7437   22.1210 H   0  0  0  0  0  0
  -19.6913  -25.6291   21.1243 H   0  0  0  0  0  0
  -19.6698  -27.3193   20.6743 H   0  0  0  0  0  0
  -17.4197  -26.6675   21.4022 H   0  0  0  0  0  0
  -18.0334  -26.0077   22.9025 H   0  0  0  0  0  0
  -19.7931  -30.7281   24.2263 H   0  0  0  0  0  0
  -17.5006  -31.6259   24.5176 H   0  0  0  0  0  0
  -15.5349  -30.2992   23.7648 H   0  0  0  0  0  0
  -15.8671  -28.0835   22.7052 H   0  0  0  0  0  0
  -24.5929  -30.7027   25.7789 H   0  0  0  0  0  0
  -24.8890  -32.2875   26.4844 H   0  0  0  0  0  0
  -25.8051  -30.8925   27.0247 H   0  0  0  0  0  0
  -26.2905  -29.6749   24.1199 H   0  0  0  0  0  0
  -27.4031  -29.7241   25.4668 H   0  0  0  0  0  0
  -27.8776  -30.4276   23.9396 H   0  0  0  0  0  0
  -27.2715  -33.3582   26.2087 H   0  0  0  0  0  0
  -28.3897  -32.6808   25.0334 H   0  0  0  0  0  0
  -28.0729  -31.8380   26.5409 H   0  0  0  0  0  0
  -28.2592  -38.0118   24.7528 H   0  0  0  0  0  0
  -28.1102  -36.2649   24.6265 H   0  0  0  0  0  0
  -27.2312  -37.1427   25.8862 H   0  0  0  0  0  0
  -20.9362  -29.8822   21.6948 H   0  0  0  0  0  0
  -26.0184  -38.2858   24.1419 H   0  0  0  0  0  0
  -30.5389  -21.8830   15.6415 H   0  0  0  0  0  0
  -26.7901  -22.4378   17.0199 H   0  0  0  0  0  0
  -26.7372  -24.2743   16.9795 H   0  0  0  0  0  0
  -28.2443  -24.3170   15.0306 H   0  0  0  0  0  0
  -28.2691  -22.4769   15.0123 H   0  0  0  0  0  0
  -30.2642  -19.6665   14.3290 H   0  0  0  0  0  0
  -31.9727  -19.2216   13.8139 H   0  0  0  0  0  0
  -31.9445  -17.2921   15.3904 H   0  0  0  0  0  0
  -30.2405  -17.7398   15.9267 H   0  0  0  0  0  0
  -29.8131  -19.8597   22.1284 H   0  0  0  0  0  0
  -31.1705  -19.2681   21.1960 H   0  0  0  0  0  0
  -30.1604  -17.4044   19.0845 H   0  0  0  0  0  0
  -28.4179  -17.4888   18.9633 H   0  0  0  0  0  0
  -31.3842  -16.3182   22.8889 H   0  0  0  0  0  0
  -31.8950  -16.9743   21.2972 H   0  0  0  0  0  0
  -29.3096  -24.3164   17.2906 H   0  0  0  0  0  0
  -32.7731  -19.5588   16.1944 H   0  0  0  0  0  0
  -28.2853  -19.4813   20.3725 H   0  0  0  0  0  0
  -29.3821  -17.6234   22.9039 H   0  0  0  0  0  0
  -28.1693  -16.5864   21.2377 H   0  0  0  0  0  0
  -30.1119  -24.9536   21.7074 H   0  0  0  0  0  0
  -30.5042  -23.2406   21.6650 H   0  0  0  0  0  0
  -28.9310  -23.7765   22.2605 H   0  0  0  0  0  0
  -27.1799  -24.7389   20.5661 H   0  0  0  0  0  0
  -27.6646  -24.9030   18.9021 H   0  0  0  0  0  0
  -29.9538  -24.1154   19.4193 H   0  0  0  0  0  0
  -28.3983  -21.9677   20.6741 H   0  0  0  0  0  0
  1 25  1  0  0  0
  1 30  2  0  0  0
  1 92  1  0  0  0
  2  3  1  0  0  0
  2 25  1  0  0  0
  2 94  1  0  0  0
  2 95  1  0  0  0
  3  4  1  0  0  0
  3 96  1  0  0  0
  3 97  1  0  0  0
  4  5  1  0  0  0
  4 98  1  0  0  0
  4 99  1  0  0  0
  5  6  1  0  0  0
  5 26  1  0  0  0
  5100  1  0  0  0
  6 25  1  0  0  0
  6101  1  0  0  0
  6102  1  0  0  0
  7  8  2  0  0  0
  7 26  1  0  0  0
  7 29  1  0  0  0
  8  9  1  0  0  0
  8 22  1  0  0  0
  9 10  1  0  0  0
  9 27  2  0  0  0
 10 11  2  0  0  0
 10 15  1  0  0  0
 11 12  1  0  0  0
 11103  1  0  0  0
 12 13  2  0  0  0
 12104  1  0  0  0
 13 14  1  0  0  0
 13 31  1  0  0  0
 14 15  2  0  0  0
 14105  1  0  0  0
 15106  1  0  0  0
 16 17  2  0  0  0
 16 21  1  0  0  0
 16 31  1  0  0  0
 17 18  1  0  0  0
 17107  1  0  0  0
 18 19  2  0  0  0
 18108  1  0  0  0
 19 20  1  0  0  0
 19 24  1  0  0  0
 20 21  2  0  0  0
 20109  1  0  0  0
 21 23  1  0  0  0
 22 28  1  0  0  0
 22 32  2  0  0  0
 26 27  1  0  0  0
 28110  1  0  0  0
 28111  1  0  0  0
 29112  1  0  0  0
 29113  1  0  0  0
 33 34  1  0  0  0
 33 66  1  0  0  0
 33 70  2  0  0  0
 34 36  1  0  0  0
 34 59  1  0  0  0
 34114  1  0  0  0
 35 44  2  0  0  0
 35 45  1  0  0  0
 35 68  1  0  0  0
 36 56  1  0  0  0
 36115  1  0  0  0
 37 39  1  0  0  0
 37 47  1  0  0  0
 37 66  1  0  0  0
 37116  1  0  0  0
 38 43  2  0  0  0
 38 46  1  0  0  0
 38 47  1  0  0  0
 39 64  1  0  0  0
 39 67  2  0  0  0
 40 52  1  0  0  0
 40 53  2  0  0  0
 40 58  1  0  0  0
 41117  1  0  0  0
 41118  1  0  0  0
 41119  1  0  0  0
 41 48  1  0  0  0
 42 43  1  0  0  0
 42 66  1  0  0  0
 42120  1  0  0  0
 42121  1  0  0  0
 43 44  1  0  0  0
 44122  1  0  0  0
 45 46  2  0  0  0
 45123  1  0  0  0
 46124  1  0  0  0
 47125  1  0  0  0
 47126  1  0  0  0
 48 56  1  0  0  0
 48 65  1  0  0  0
 48127  1  0  0  0
 49 50  1  0  0  0
 49 53  1  0  0  0
 49 64  1  0  0  0
 49128  1  0  0  0
 50 51  1  0  0  0
 50129  1  0  0  0
 50130  1  0  0  0
 51 52  1  0  0  0
 51131  1  0  0  0
 51132  1  0  0  0
 52133  1  0  0  0
 52134  1  0  0  0
 53 54  1  0  0  0
 54 55  2  0  0  0
 54135  1  0  0  0
 55 57  1  0  0  0
 55136  1  0  0  0
 56 69  2  0  0  0
 57 58  2  0  0  0
 57137  1  0  0  0
 58138  1  0  0  0
 59 60  1  0  0  0
 59 61  1  0  0  0
 59 62  1  0  0  0
 60139  1  0  0  0
 60140  1  0  0  0
 60141  1  0  0  0
 61142  1  0  0  0
 61143  1  0  0  0
 61144  1  0  0  0
 62145  1  0  0  0
 62146  1  0  0  0
 62147  1  0  0  0
 63 65  1  0  0  0
 63148  1  0  0  0
 63149  1  0  0  0
 63150  1  0  0  0
 64151  1  0  0  0
 65152  1  0  0  0
 68 89  1  0  0  0
 71 72  2  0  0  0
 71 74  1  0  0  0
 71153  1  0  0  0
 72 73  1  0  0  0
 72 83  1  0  0  0
 73 75  2  0  0  0
 73 93  1  0  0  0
 74 91  2  0  0  0
 74 84  1  0  0  0
 75 91  1  0  0  0
 75 85  1  0  0  0
 76 77  1  0  0  0
 76 83  1  0  0  0
 76154  1  0  0  0
 76155  1  0  0  0
 77 83  1  0  0  0
 77156  1  0  0  0
 77157  1  0  0  0
 78 79  1  0  0  0
 78 84  1  0  0  0
 78158  1  0  0  0
 78159  1  0  0  0
 79 84  1  0  0  0
 79160  1  0  0  0
 79161  1  0  0  0
 80 85  1  0  0  0
 80162  1  0  0  0
 80163  1  0  0  0
 80 86  1  0  0  0
 81 85  1  0  0  0
 81164  1  0  0  0
 81165  1  0  0  0
 81 87  1  0  0  0
 82 86  1  0  0  0
 82 92  1  0  0  0
 82166  1  0  0  0
 82167  1  0  0  0
 83168  1  0  0  0
 84169  1  0  0  0
 85170  1  0  0  0
 86 87  1  0  0  0
 86171  1  0  0  0
 87 92  1  0  0  0
 87172  1  0  0  0
 88173  1  0  0  0
 88174  1  0  0  0
 88175  1  0  0  0
 88 90  1  0  0  0
 89 90  1  0  0  0
 89176  1  0  0  0
 89177  1  0  0  0
 90 93  1  0  0  0
 90178  1  0  0  0
 93179  1  0  0  0
M  ISO  4   1 100  68 101  89 101  92 100
M  END
> <chiral flag>
0

> <version>
0

> <s_m_source_file>
/data/baiqing/PycharmProjects/Reinvent-master-3.2/result/LINK_invent/BTK/process_docking_weight1_custom_sum_contain_oxygen_bond_distance_aromatic_linkinvent_7_9_3/rearranged_h_0171.sdf

> <i_m_source_file_index>
84

> <r_mmod_Potential_Energy-OPLS-2005>
273.593292236328

> <r_mmod_Stretch_Energy-OPLS-2005>
94.8492660522461

> <r_mmod_Bend_Energy-OPLS-2005>
229.407592773438

> <r_mmod_Torsional_Energy-OPLS-2005>
398.405242919922

> <r_mmod_Improper_Torsional_Energy-OPLS-2005>
12.1512002944946

> <r_mmod_Van_der_Waal_Energy-OPLS-2005>
144.223098754883

> <r_mmod_Electrostatic_Energy-OPLS-2005>
-442.1728515625

> <r_mmod_Solvation_Energy-OPLS-2005>
-212.9736328125

> <b_mmod_Minimization_Converged-OPLS-2005>
0

> <r_mmod_RMS_Derivative-OPLS-2005>
3.15163493156433

$$$$
84
                    3D
 Structure written by MMmdl.
161169  0  0  1  0            999 V2000
  -30.4924  -14.9774   20.4574 C   0  0  0  0  0  0
  -30.4615  -12.6102   19.5096 C   0  0  0  0  0  0
  -29.5435  -12.5433   18.2607 C   0  0  0  0  0  0
  -28.0662  -12.3260   18.6525 C   0  0  0  0  0  0
  -27.6360  -13.2325   19.8368 C   0  0  2  0  0  0
  -28.6764  -13.1606   20.9671 C   0  0  0  0  0  0
  -25.2522  -13.8135   20.5656 C   0  0  0  0  0  0
  -24.1810  -13.0398   20.9170 C   0  0  0  0  0  0
  -24.6397  -11.6864   20.8703 C   0  0  0  0  0  0
  -23.9080  -10.4245   21.0404 C   0  0  0  0  0  0
  -24.3624   -9.4165   21.9195 C   0  0  0  0  0  0
  -23.6269   -8.2223   22.0760 C   0  0  0  0  0  0
  -22.4258   -8.0263   21.3545 C   0  0  0  0  0  0
  -21.9900   -9.0239   20.4651 C   0  0  0  0  0  0
  -22.7253  -10.2104   20.3054 C   0  0  0  0  0  0
  -21.6833   -6.0739   22.5282 C   0  0  0  0  0  0
  -21.4002   -6.5645   23.8218 C   0  0  0  0  0  0
  -21.3662   -5.6798   24.9180 C   0  0  0  0  0  0
  -21.6037   -4.3062   24.7240 C   0  0  0  0  0  0
  -21.8812   -3.8154   23.4358 C   0  0  0  0  0  0
  -21.9180   -4.6964   22.3410 C   0  0  0  0  0  0
  -22.7854  -13.5211   21.1890 C   0  0  0  0  0  0
  -22.1660   -4.2151   21.0989 F   0  0  0  0  0  0
  -21.5620   -3.4548   25.7755 F   0  0  0  0  0  0
  -29.9456  -13.6800   20.4218 N   0  0  0  0  0  0
  -26.2908  -12.9341   20.3142 N   0  0  0  0  0  0
  -25.9317  -11.6474   20.5627 N   0  0  0  0  0  0
  -22.0502  -12.8196   22.0429 N   0  0  0  0  0  0
  -25.4248  -15.1862   20.4184 N   0  0  0  0  0  0
  -31.6724  -15.0634   20.0852 O   0  0  0  0  0  0
  -21.6624   -6.8870   21.4233 O   0  0  0  0  0  0
  -22.3561  -14.5556   20.6778 O   0  0  0  0  0  0
  -24.6476  -31.8418   23.1876 C   0  0  0  0  0  0
  -25.9231  -32.4698   23.8283 C   0  0  1  0  0  0
  -27.2192  -27.1122   20.1425 C   0  0  0  0  0  0
  -25.5983  -33.8509   24.2219 N   0  0  0  0  0  0
  -23.4527  -30.4619   21.5324 C   0  0  2  0  0  0
  -24.9026  -28.8836   20.1130 C   0  0  0  0  0  0
  -22.7583  -29.4536   22.4829 C   0  0  0  0  0  0
  -18.0311  -28.1444   22.8465 C   0  0  0  0  0  0
  -24.1486  -36.7252   23.2642 C   0  0  0  0  0  0
  -26.0131  -30.7068   21.3901 C   0  0  0  0  0  0
  -26.0835  -29.3160   20.7295 C   0  0  0  0  0  0
  -27.2427  -28.4483   20.7245 C   0  0  0  0  0  0
  -26.0054  -26.7862   19.4955 C   0  0  0  0  0  0
  -24.8778  -27.6322   19.4819 C   0  0  0  0  0  0
  -23.6843  -29.7934   20.1520 C   0  0  0  0  0  0
  -25.4119  -36.3053   24.0325 C   0  0  1  0  0  0
  -20.5926  -28.3735   23.1241 C   0  0  2  0  0  0
  -20.6746  -26.9369   22.5582 C   0  0  0  0  0  0
  -19.5793  -26.6278   21.5314 C   0  0  0  0  0  0
  -18.1927  -26.7976   22.1619 C   0  0  0  0  0  0
  -19.1585  -28.8904   23.2861 C   0  0  0  0  0  0
  -18.9513  -30.1474   23.8933 C   0  0  0  0  0  0
  -17.6531  -30.6614   24.0648 C   0  0  0  0  0  0
  -25.9075  -34.9418   23.5070 C   0  0  0  0  0  0
  -16.5405  -29.9137   23.6407 C   0  0  0  0  0  0
  -16.7311  -28.6577   23.0373 C   0  0  0  0  0  0
  -26.4545  -31.6567   25.0731 C   0  0  0  0  0  0
  -25.3736  -31.3720   26.1429 C   0  0  0  0  0  0
  -27.0420  -30.2968   24.6315 C   0  0  0  0  0  0
  -27.6088  -32.4323   25.7516 C   0  0  0  0  0  0
  -27.5582  -37.1784   24.8472 C   0  0  0  0  0  0
  -21.4270  -29.3015   22.3551 N   0  0  0  0  0  0
  -26.4295  -37.3755   23.9411 N   0  0  0  0  0  0
  -24.7254  -31.0248   22.0926 N   0  0  0  0  0  0
  -23.4193  -28.8111   23.3020 O   0  0  0  0  0  0
  -28.2727  -26.1175   20.1858 O   0  0  0  0  0  0
  -26.5650  -34.8912   22.4645 O   0  0  0  0  0  0
  -23.5593  -32.1306   23.7081 O   0  0  0  0  0  0
  -28.7311  -16.3168   21.8257 C   0  0  0  0  0  0
  -29.6908  -16.3576   20.7953 C   0  0  0  0  0  0
  -29.1524  -18.8562   20.6842 C   0  0  0  0  0  0
  -28.1291  -18.5836   21.6509 C   0  0  0  0  0  0
  -26.0635  -20.1189   21.3386 C   0  0  0  0  0  0
  -27.8476  -20.6117   23.2125 C   0  0  0  0  0  0
  -30.0922  -23.5413   21.3394 C   0  0  0  0  0  0
  -29.5460  -20.4325   20.2616 C   0  0  0  0  0  0
  -27.9875  -24.5699   20.1589 C   0  0  0  0  0  0
  -27.1668  -19.5988   22.2784 C   0  0  0  0  0  0
  -29.0833  -23.2662   20.2079 C   0  0  2  0  0  0
  -27.9581  -17.3563   22.1980 N   0  0  0  0  0  0
  -29.9016  -17.6892   20.2713 N   0  0  0  0  0  0
  -28.6044  -21.7308   20.2472 N   0  3  0  0  0  0
  -31.4916  -12.7938   19.2043 H   0  0  0  0  0  0
  -30.4907  -11.6452   20.0190 H   0  0  0  0  0  0
  -29.8743  -11.7467   17.5918 H   0  0  0  0  0  0
  -29.6395  -13.4733   17.7001 H   0  0  0  0  0  0
  -27.9549  -11.2779   18.9362 H   0  0  0  0  0  0
  -27.4168  -12.4787   17.7913 H   0  0  0  0  0  0
  -27.6211  -14.2545   19.4590 H   0  0  0  0  0  0
  -28.7900  -12.1258   21.2917 H   0  0  0  0  0  0
  -28.3214  -13.6453   21.8636 H   0  0  0  0  0  0
  -25.2779   -9.5626   22.4770 H   0  0  0  0  0  0
  -23.9961   -7.4614   22.7488 H   0  0  0  0  0  0
  -21.0834   -8.8766   19.8960 H   0  0  0  0  0  0
  -22.3728  -10.9636   19.6152 H   0  0  0  0  0  0
  -21.1981   -7.6158   23.9737 H   0  0  0  0  0  0
  -21.1506   -6.0524   25.9089 H   0  0  0  0  0  0
  -22.0591   -2.7617   23.2861 H   0  0  0  0  0  0
  -22.4114  -11.9816   22.4749 H   0  0  0  0  0  0
  -21.1130  -13.1233   22.2731 H   0  0  0  0  0  0
  -24.6739  -15.8459   20.5843 H   0  0  0  0  0  0
  -26.2974  -15.6356   20.1722 H   0  0  0  0  0  0
  -26.7314  -32.5299   23.1030 H   0  0  0  0  0  0
  -25.0164  -33.9601   25.0398 H   0  0  0  0  0  0
  -22.7575  -31.2895   21.3762 H   0  0  0  0  0  0
  -23.3777  -35.9556   23.3304 H   0  0  0  0  0  0
  -24.3573  -36.8871   22.2058 H   0  0  0  0  0  0
  -23.7206  -37.6434   23.6664 H   0  0  0  0  0  0
  -26.1748  -31.4626   20.6197 H   0  0  0  0  0  0
  -26.8837  -30.7567   22.0349 H   0  0  0  0  0  0
  -28.1466  -28.7764   21.2210 H   0  0  0  0  0  0
  -25.8885  -25.8361   19.0001 H   0  0  0  0  0  0
  -23.9746  -27.2966   18.9892 H   0  0  0  0  0  0
  -23.8380  -30.5699   19.4031 H   0  0  0  0  0  0
  -22.7962  -29.2453   19.8315 H   0  0  0  0  0  0
  -25.1301  -36.1897   25.0817 H   0  0  0  0  0  0
  -21.0020  -28.3385   24.1371 H   0  0  0  0  0  0
  -20.5427  -26.2406   23.3904 H   0  0  0  0  0  0
  -21.6662  -26.7177   22.1597 H   0  0  0  0  0  0
  -19.6878  -25.6115   21.1511 H   0  0  0  0  0  0
  -19.6802  -27.2972   20.6769 H   0  0  0  0  0  0
  -17.4258  -26.6760   21.3953 H   0  0  0  0  0  0
  -18.0225  -26.0153   22.9016 H   0  0  0  0  0  0
  -19.8005  -30.7253   24.2309 H   0  0  0  0  0  0
  -17.5132  -31.6261   24.5347 H   0  0  0  0  0  0
  -15.5411  -30.3033   23.7804 H   0  0  0  0  0  0
  -15.8711  -28.0908   22.7071 H   0  0  0  0  0  0
  -24.5970  -30.7002   25.7761 H   0  0  0  0  0  0
  -24.8867  -32.2868   26.4797 H   0  0  0  0  0  0
  -25.8047  -30.8963   27.0249 H   0  0  0  0  0  0
  -26.3041  -29.6682   24.1324 H   0  0  0  0  0  0
  -27.4042  -29.7275   25.4887 H   0  0  0  0  0  0
  -27.8945  -30.4220   23.9643 H   0  0  0  0  0  0
  -27.2715  -33.3662   26.2018 H   0  0  0  0  0  0
  -28.3942  -32.6798   25.0369 H   0  0  0  0  0  0
  -28.0710  -31.8489   26.5486 H   0  0  0  0  0  0
  -28.2604  -38.0080   24.7531 H   0  0  0  0  0  0
  -28.1078  -36.2613   24.6299 H   0  0  0  0  0  0
  -27.2303  -37.1440   25.8875 H   0  0  0  0  0  0
  -20.9528  -29.8615   21.6604 H   0  0  0  0  0  0
  -26.0183  -38.2834   24.1399 H   0  0  0  0  0  0
  -28.5968  -15.4632   22.4563 H   0  0  0  0  0  0
  -25.3918  -19.3021   21.0734 H   0  0  0  0  0  0
  -26.4134  -20.5263   20.3962 H   0  0  0  0  0  0
  -25.4518  -20.8758   21.8315 H   0  0  0  0  0  0
  -28.5300  -21.2995   22.7257 H   0  0  0  0  0  0
  -28.4319  -20.0738   23.9615 H   0  0  0  0  0  0
  -27.1017  -21.2008   23.7498 H   0  0  0  0  0  0
  -30.9402  -22.8585   21.3097 H   0  0  0  0  0  0
  -29.6296  -23.4679   22.3256 H   0  0  0  0  0  0
  -30.5049  -24.5466   21.2494 H   0  0  0  0  0  0
  -30.3551  -20.6739   20.9474 H   0  0  0  0  0  0
  -30.0251  -20.3840   19.2827 H   0  0  0  0  0  0
  -27.2946  -24.4106   20.9861 H   0  0  0  0  0  0
  -27.3976  -24.3839   19.2654 H   0  0  0  0  0  0
  -26.5666  -19.0270   22.9916 H   0  0  0  0  0  0
  -29.6433  -23.3464   19.2738 H   0  0  0  0  0  0
  -27.9913  -21.6321   21.0410 H   0  0  0  0  0  0
  -28.0211  -21.6081   19.4321 H   0  0  0  0  0  0
  1 25  1  0  0  0
  1 30  2  0  0  0
  1 72  1  0  0  0
  2  3  1  0  0  0
  2 25  1  0  0  0
  2 85  1  0  0  0
  2 86  1  0  0  0
  3  4  1  0  0  0
  3 87  1  0  0  0
  3 88  1  0  0  0
  4  5  1  0  0  0
  4 89  1  0  0  0
  4 90  1  0  0  0
  5  6  1  0  0  0
  5 26  1  0  0  0
  5 91  1  0  0  0
  6 25  1  0  0  0
  6 92  1  0  0  0
  6 93  1  0  0  0
  7  8  2  0  0  0
  7 26  1  0  0  0
  7 29  1  0  0  0
  8  9  1  0  0  0
  8 22  1  0  0  0
  9 10  1  0  0  0
  9 27  2  0  0  0
 10 11  2  0  0  0
 10 15  1  0  0  0
 11 12  1  0  0  0
 11 94  1  0  0  0
 12 13  2  0  0  0
 12 95  1  0  0  0
 13 14  1  0  0  0
 13 31  1  0  0  0
 14 15  2  0  0  0
 14 96  1  0  0  0
 15 97  1  0  0  0
 16 17  2  0  0  0
 16 21  1  0  0  0
 16 31  1  0  0  0
 17 18  1  0  0  0
 17 98  1  0  0  0
 18 19  2  0  0  0
 18 99  1  0  0  0
 19 20  1  0  0  0
 19 24  1  0  0  0
 20 21  2  0  0  0
 20100  1  0  0  0
 21 23  1  0  0  0
 22 28  1  0  0  0
 22 32  2  0  0  0
 26 27  1  0  0  0
 28101  1  0  0  0
 28102  1  0  0  0
 29103  1  0  0  0
 29104  1  0  0  0
 33 34  1  0  0  0
 33 66  1  0  0  0
 33 70  2  0  0  0
 34 36  1  0  0  0
 34 59  1  0  0  0
 34105  1  0  0  0
 35 44  2  0  0  0
 35 45  1  0  0  0
 35 68  1  0  0  0
 36 56  1  0  0  0
 36106  1  0  0  0
 37 39  1  0  0  0
 37 47  1  0  0  0
 37 66  1  0  0  0
 37107  1  0  0  0
 38 43  2  0  0  0
 38 46  1  0  0  0
 38 47  1  0  0  0
 39 64  1  0  0  0
 39 67  2  0  0  0
 40 52  1  0  0  0
 40 53  2  0  0  0
 40 58  1  0  0  0
 41108  1  0  0  0
 41109  1  0  0  0
 41110  1  0  0  0
 41 48  1  0  0  0
 42 43  1  0  0  0
 42 66  1  0  0  0
 42111  1  0  0  0
 42112  1  0  0  0
 43 44  1  0  0  0
 44113  1  0  0  0
 45 46  2  0  0  0
 45114  1  0  0  0
 46115  1  0  0  0
 47116  1  0  0  0
 47117  1  0  0  0
 48 56  1  0  0  0
 48 65  1  0  0  0
 48118  1  0  0  0
 49 50  1  0  0  0
 49 53  1  0  0  0
 49 64  1  0  0  0
 49119  1  0  0  0
 50 51  1  0  0  0
 50120  1  0  0  0
 50121  1  0  0  0
 51 52  1  0  0  0
 51122  1  0  0  0
 51123  1  0  0  0
 52124  1  0  0  0
 52125  1  0  0  0
 53 54  1  0  0  0
 54 55  2  0  0  0
 54126  1  0  0  0
 55 57  1  0  0  0
 55127  1  0  0  0
 56 69  2  0  0  0
 57 58  2  0  0  0
 57128  1  0  0  0
 58129  1  0  0  0
 59 60  1  0  0  0
 59 61  1  0  0  0
 59 62  1  0  0  0
 60130  1  0  0  0
 60131  1  0  0  0
 60132  1  0  0  0
 61133  1  0  0  0
 61134  1  0  0  0
 61135  1  0  0  0
 62136  1  0  0  0
 62137  1  0  0  0
 62138  1  0  0  0
 63 65  1  0  0  0
 63139  1  0  0  0
 63140  1  0  0  0
 63141  1  0  0  0
 64142  1  0  0  0
 65143  1  0  0  0
 68 79  1  0  0  0
 71 72  2  0  0  0
 71 82  1  0  0  0
 71144  1  0  0  0
 72 83  1  0  0  0
 73 74  1  0  0  0
 73 78  1  0  0  0
 73 83  2  0  0  0
 74 80  1  0  0  0
 74 82  2  0  0  0
 75145  1  0  0  0
 75146  1  0  0  0
 75147  1  0  0  0
 75 80  1  0  0  0
 76 80  1  0  0  0
 76148  1  0  0  0
 76149  1  0  0  0
 76150  1  0  0  0
 77151  1  0  0  0
 77152  1  0  0  0
 77153  1  0  0  0
 77 81  1  0  0  0
 78 84  1  0  0  0
 78154  1  0  0  0
 78155  1  0  0  0
 79 81  1  0  0  0
 79156  1  0  0  0
 79157  1  0  0  0
 80158  1  0  0  0
 81 84  1  0  0  0
 81159  1  0  0  0
 84160  1  0  0  0
 84161  1  0  0  0
M  CHG  1  84   1
M  ISO  4   1 100  68 101  72 100  79 101
M  END
> <chiral flag>
0

> <version>
0

> <s_m_source_file>
/data/baiqing/PycharmProjects/Reinvent-master-3.2/result/LINK_invent/BTK/process_docking_weight1_custom_sum_contain_oxygen_bond_distance_aromatic_linkinvent_7_9_3/rearranged_h_0171.sdf

> <i_m_source_file_index>
85

> <r_mmod_Potential_Energy-OPLS-2005>
632.434387207031

> <r_mmod_Stretch_Energy-OPLS-2005>
320.748504638672

> <r_mmod_Bend_Energy-OPLS-2005>
311.930419921875

> <r_mmod_Torsional_Energy-OPLS-2005>
196.166061401367

> <r_mmod_Improper_Torsional_Energy-OPLS-2005>
3.9978392124176

> <r_mmod_Van_der_Waal_Energy-OPLS-2005>
138.820037841797

> <r_mmod_Electrostatic_Energy-OPLS-2005>
-90.0473327636719

> <r_mmod_Solvation_Energy-OPLS-2005>
-453.313903808594

> <b_mmod_Minimization_Converged-OPLS-2005>
0

> <r_mmod_RMS_Derivative-OPLS-2005>
3.79046821594238

$$$$
85
                    3D
 Structure written by MMmdl.
172182  0  0  1  0            999 V2000
  -30.7372  -14.7284   20.4732 C   0  0  0  0  0  0
  -30.3997  -12.4683   19.4649 C   0  0  0  0  0  0
  -29.4872  -12.4953   18.2256 C   0  0  0  0  0  0
  -28.0214  -12.3158   18.6533 C   0  0  0  0  0  0
  -27.6292  -13.2381   19.8380 C   0  0  2  0  0  0
  -28.6848  -13.2347   20.9685 C   0  0  0  0  0  0
  -25.2459  -13.8211   20.5719 C   0  0  0  0  0  0
  -24.1770  -13.0440   20.9237 C   0  0  0  0  0  0
  -24.6380  -11.6925   20.8780 C   0  0  0  0  0  0
  -23.9068  -10.4293   21.0421 C   0  0  0  0  0  0
  -24.3620   -9.4204   21.9193 C   0  0  0  0  0  0
  -23.6294   -8.2238   22.0756 C   0  0  0  0  0  0
  -22.4277   -8.0279   21.3544 C   0  0  0  0  0  0
  -21.9915   -9.0254   20.4648 C   0  0  0  0  0  0
  -22.7244  -10.2134   20.3063 C   0  0  0  0  0  0
  -21.6852   -6.0734   22.5278 C   0  0  0  0  0  0
  -21.4014   -6.5639   23.8212 C   0  0  0  0  0  0
  -21.3660   -5.6791   24.9174 C   0  0  0  0  0  0
  -21.6044   -4.3054   24.7225 C   0  0  0  0  0  0
  -21.8819   -3.8146   23.4346 C   0  0  0  0  0  0
  -21.9192   -4.6962   22.3402 C   0  0  0  0  0  0
  -22.7790  -13.5213   21.1880 C   0  0  0  0  0  0
  -22.1661   -4.2147   21.0980 F   0  0  0  0  0  0
  -21.5629   -3.4538   25.7738 F   0  0  0  0  0  0
  -29.9696  -13.5839   20.3509 N   0  0  0  0  0  0
  -26.2888  -12.9434   20.3299 N   0  0  0  0  0  0
  -25.9314  -11.6571   20.5799 N   0  0  0  0  0  0
  -22.0440  -12.8203   22.0436 N   0  0  0  0  0  0
  -25.4101  -15.1932   20.4102 N   0  0  0  0  0  0
  -31.9395  -14.6061   20.2263 O   0  0  0  0  0  0
  -21.6640   -6.8877   21.4240 O   0  0  0  0  0  0
  -22.3474  -14.5515   20.6720 O   0  0  0  0  0  0
  -24.6331  -31.8576   23.2040 C   0  0  0  0  0  0
  -25.9161  -32.4763   23.8369 C   0  0  1  0  0  0
  -27.1963  -27.2519   20.1118 C   0  0  0  0  0  0
  -25.5958  -33.8566   24.2281 N   0  0  0  0  0  0
  -23.4282  -30.4879   21.5488 C   0  0  2  0  0  0
  -24.8704  -28.9511   20.1061 C   0  0  0  0  0  0
  -22.7512  -29.4622   22.4911 C   0  0  0  0  0  0
  -18.0297  -28.1388   22.8482 C   0  0  0  0  0  0
  -24.1492  -36.7284   23.2638 C   0  0  0  0  0  0
  -25.9801  -30.7643   21.3921 C   0  0  0  0  0  0
  -26.0469  -29.3911   20.7263 C   0  0  0  0  0  0
  -27.2120  -28.5519   20.7280 C   0  0  0  0  0  0
  -25.9991  -26.9155   19.4286 C   0  0  0  0  0  0
  -24.8528  -27.7204   19.4473 C   0  0  0  0  0  0
  -23.6450  -29.8388   20.1603 C   0  0  0  0  0  0
  -25.4119  -36.3073   24.0326 C   0  0  1  0  0  0
  -20.5903  -28.3703   23.1258 C   0  0  2  0  0  0
  -20.6787  -26.9421   22.5399 C   0  0  0  0  0  0
  -19.5758  -26.6384   21.5208 C   0  0  0  0  0  0
  -18.1940  -26.7929   22.1624 C   0  0  0  0  0  0
  -19.1551  -28.8862   23.2866 C   0  0  0  0  0  0
  -18.9469  -30.1462   23.8886 C   0  0  0  0  0  0
  -17.6467  -30.6587   24.0560 C   0  0  0  0  0  0
  -25.9062  -34.9442   23.5100 C   0  0  0  0  0  0
  -16.5359  -29.9083   23.6333 C   0  0  0  0  0  0
  -16.7282  -28.6501   23.0354 C   0  0  0  0  0  0
  -26.4516  -31.6581   25.0757 C   0  0  0  0  0  0
  -25.3727  -31.3739   26.1467 C   0  0  0  0  0  0
  -27.0363  -30.2986   24.6269 C   0  0  0  0  0  0
  -27.6066  -32.4324   25.7531 C   0  0  0  0  0  0
  -27.5580  -37.1802   24.8465 C   0  0  0  0  0  0
  -21.4219  -29.3054   22.3649 N   0  0  0  0  0  0
  -26.4293  -37.3771   23.9407 N   0  0  0  0  0  0
  -24.6997  -31.0538   22.1034 N   0  0  0  0  0  0
  -23.4212  -28.8141   23.2992 O   0  0  0  0  0  0
  -28.2429  -26.2899   20.1999 O   0  0  0  0  0  0
  -26.5623  -34.8911   22.4663 O   0  0  0  0  0  0
  -23.5478  -32.1411   23.7323 O   0  0  0  0  0  0
  -29.5106  -21.7553   21.7124 C   0  0  0  0  0  0
  -29.0958  -23.1206   21.4422 C   0  0  0  0  0  0
  -28.6037  -23.4984   20.1573 C   0  0  0  0  0  0
  -29.3205  -20.7296   20.7211 C   0  0  0  0  0  0
  -28.5401  -22.4078   19.2293 C   0  0  0  0  0  0
  -31.3408  -22.0758   23.6119 C   0  0  0  0  0  0
  -31.4092  -20.6373   23.2021 C   0  0  0  0  0  0
  -28.5328  -18.0889   20.7253 C   0  0  0  0  0  0
  -30.8001  -18.6106   20.0880 C   0  0  0  0  0  0
  -28.9334  -16.5751   21.0646 C   0  0  0  0  0  0
  -31.2538  -17.1600   20.4768 C   0  0  0  0  0  0
  -30.0978  -21.3949   23.0622 C   0  0  0  0  0  0
  -29.6436  -19.1677   20.9337 C   0  0  0  0  0  0
  -28.0057  -22.5938   17.8192 C   0  0  0  0  0  0
  -27.7349  -24.1761   23.3069 C   0  0  0  0  0  0
  -29.0684  -24.1744   22.5494 C   0  0  0  0  0  0
  -27.8708  -24.8828   19.8083 C   0  0  0  0  0  0
  -28.8703  -21.1082   19.5015 N   0  0  0  0  0  0
  -30.2386  -16.0488   20.5541 N   0  0  0  0  0  0
  -31.4407  -12.5378   19.1457 H   0  0  0  0  0  0
  -30.3202  -11.5114   19.9835 H   0  0  0  0  0  0
  -29.7721  -11.7085   17.5259 H   0  0  0  0  0  0
  -29.6075  -13.4407   17.6940 H   0  0  0  0  0  0
  -27.8914  -11.2714   18.9394 H   0  0  0  0  0  0
  -27.3554  -12.4828   17.8059 H   0  0  0  0  0  0
  -27.6004  -14.2400   19.4127 H   0  0  0  0  0  0
  -28.7396  -12.2554   21.4460 H   0  0  0  0  0  0
  -28.4237  -13.9388   21.7584 H   0  0  0  0  0  0
  -25.2760   -9.5681   22.4774 H   0  0  0  0  0  0
  -24.0002   -7.4627   22.7473 H   0  0  0  0  0  0
  -21.0847   -8.8775   19.8952 H   0  0  0  0  0  0
  -22.3701  -10.9676   19.6177 H   0  0  0  0  0  0
  -21.2007   -7.6147   23.9715 H   0  0  0  0  0  0
  -21.1483   -6.0522   25.9078 H   0  0  0  0  0  0
  -22.0598   -2.7608   23.2847 H   0  0  0  0  0  0
  -22.4061  -11.9870   22.4828 H   0  0  0  0  0  0
  -21.1055  -13.1223   22.2640 H   0  0  0  0  0  0
  -24.6398  -15.8431   20.5227 H   0  0  0  0  0  0
  -26.2555  -15.6361   20.0759 H   0  0  0  0  0  0
  -26.7225  -32.5402   23.1106 H   0  0  0  0  0  0
  -25.0109  -33.9710   25.0429 H   0  0  0  0  0  0
  -22.7250  -31.3119   21.4111 H   0  0  0  0  0  0
  -23.3755  -35.9615   23.3299 H   0  0  0  0  0  0
  -24.3585  -36.8906   22.2052 H   0  0  0  0  0  0
  -23.7244  -37.6485   23.6661 H   0  0  0  0  0  0
  -26.1293  -31.5284   20.6281 H   0  0  0  0  0  0
  -26.8544  -30.8030   22.0300 H   0  0  0  0  0  0
  -28.1032  -28.8756   21.2471 H   0  0  0  0  0  0
  -25.8805  -25.9984   18.8739 H   0  0  0  0  0  0
  -23.9583  -27.3852   18.9402 H   0  0  0  0  0  0
  -23.7731  -30.6232   19.4135 H   0  0  0  0  0  0
  -22.7614  -29.2790   19.8485 H   0  0  0  0  0  0
  -25.1299  -36.1923   25.0818 H   0  0  0  0  0  0
  -20.9996  -28.3280   24.1378 H   0  0  0  0  0  0
  -20.5692  -26.2314   23.3605 H   0  0  0  0  0  0
  -21.6653  -26.7447   22.1188 H   0  0  0  0  0  0
  -19.6920  -25.6292   21.1245 H   0  0  0  0  0  0
  -19.6691  -27.3188   20.6733 H   0  0  0  0  0  0
  -17.4207  -26.6671   21.4029 H   0  0  0  0  0  0
  -18.0345  -26.0073   22.9024 H   0  0  0  0  0  0
  -19.7945  -30.7280   24.2250 H   0  0  0  0  0  0
  -17.5022  -31.6267   24.5163 H   0  0  0  0  0  0
  -15.5359  -30.2980   23.7664 H   0  0  0  0  0  0
  -15.8683  -28.0816   22.7075 H   0  0  0  0  0  0
  -24.5910  -30.7080   25.7793 H   0  0  0  0  0  0
  -24.8910  -32.2911   26.4868 H   0  0  0  0  0  0
  -25.8033  -30.8933   27.0260 H   0  0  0  0  0  0
  -26.2960  -29.6730   24.1267 H   0  0  0  0  0  0
  -27.3993  -29.7253   25.4810 H   0  0  0  0  0  0
  -27.8867  -30.4240   23.9563 H   0  0  0  0  0  0
  -27.2672  -33.3631   26.2091 H   0  0  0  0  0  0
  -28.3887  -32.6871   25.0367 H   0  0  0  0  0  0
  -28.0721  -31.8460   26.5463 H   0  0  0  0  0  0
  -28.2593  -38.0101   24.7511 H   0  0  0  0  0  0
  -28.1079  -36.2632   24.6293 H   0  0  0  0  0  0
  -27.2297  -37.1451   25.8867 H   0  0  0  0  0  0
  -20.9400  -29.8798   21.6875 H   0  0  0  0  0  0
  -26.0170  -38.2846   24.1401 H   0  0  0  0  0  0
  -31.8691  -22.7867   22.9790 H   0  0  0  0  0  0
  -31.3764  -22.2846   24.6796 H   0  0  0  0  0  0
  -31.4894  -19.9027   24.0013 H   0  0  0  0  0  0
  -31.9878  -20.4172   22.3074 H   0  0  0  0  0  0
  -27.6644  -18.3624   21.3255 H   0  0  0  0  0  0
  -28.1940  -18.1397   19.6897 H   0  0  0  0  0  0
  -30.5218  -18.6387   19.0336 H   0  0  0  0  0  0
  -31.6571  -19.2784   20.1804 H   0  0  0  0  0  0
  -28.1270  -15.9404   20.7134 H   0  0  0  0  0  0
  -28.9518  -16.4575   22.1489 H   0  0  0  0  0  0
  -31.7508  -17.2033   21.4475 H   0  0  0  0  0  0
  -32.0380  -16.9169   19.7577 H   0  0  0  0  0  0
  -29.3051  -21.1539   23.7687 H   0  0  0  0  0  0
  -29.9208  -19.0426   21.9754 H   0  0  0  0  0  0
  -26.9622  -22.9082   17.8402 H   0  0  0  0  0  0
  -28.0568  -21.6697   17.2421 H   0  0  0  0  0  0
  -28.5888  -23.3425   17.2828 H   0  0  0  0  0  0
  -27.7340  -24.9349   24.0893 H   0  0  0  0  0  0
  -27.5517  -23.2104   23.7783 H   0  0  0  0  0  0
  -26.8988  -24.3862   22.6402 H   0  0  0  0  0  0
  -29.2527  -25.1603   22.1275 H   0  0  0  0  0  0
  -29.8784  -24.0495   23.2592 H   0  0  0  0  0  0
  -26.8790  -24.6777   20.2120 H   0  0  0  0  0  0
  -27.7704  -24.9346   18.7266 H   0  0  0  0  0  0
  1 25  1  0  0  0
  1 30  2  0  0  0
  1 89  1  0  0  0
  2  3  1  0  0  0
  2 25  1  0  0  0
  2 90  1  0  0  0
  2 91  1  0  0  0
  3  4  1  0  0  0
  3 92  1  0  0  0
  3 93  1  0  0  0
  4  5  1  0  0  0
  4 94  1  0  0  0
  4 95  1  0  0  0
  5  6  1  0  0  0
  5 26  1  0  0  0
  5 96  1  0  0  0
  6 25  1  0  0  0
  6 97  1  0  0  0
  6 98  1  0  0  0
  7  8  2  0  0  0
  7 26  1  0  0  0
  7 29  1  0  0  0
  8  9  1  0  0  0
  8 22  1  0  0  0
  9 10  1  0  0  0
  9 27  2  0  0  0
 10 11  2  0  0  0
 10 15  1  0  0  0
 11 12  1  0  0  0
 11 99  1  0  0  0
 12 13  2  0  0  0
 12100  1  0  0  0
 13 14  1  0  0  0
 13 31  1  0  0  0
 14 15  2  0  0  0
 14101  1  0  0  0
 15102  1  0  0  0
 16 17  2  0  0  0
 16 21  1  0  0  0
 16 31  1  0  0  0
 17 18  1  0  0  0
 17103  1  0  0  0
 18 19  2  0  0  0
 18104  1  0  0  0
 19 20  1  0  0  0
 19 24  1  0  0  0
 20 21  2  0  0  0
 20105  1  0  0  0
 21 23  1  0  0  0
 22 28  1  0  0  0
 22 32  2  0  0  0
 26 27  1  0  0  0
 28106  1  0  0  0
 28107  1  0  0  0
 29108  1  0  0  0
 29109  1  0  0  0
 33 34  1  0  0  0
 33 66  1  0  0  0
 33 70  2  0  0  0
 34 36  1  0  0  0
 34 59  1  0  0  0
 34110  1  0  0  0
 35 44  2  0  0  0
 35 45  1  0  0  0
 35 68  1  0  0  0
 36 56  1  0  0  0
 36111  1  0  0  0
 37 39  1  0  0  0
 37 47  1  0  0  0
 37 66  1  0  0  0
 37112  1  0  0  0
 38 43  2  0  0  0
 38 46  1  0  0  0
 38 47  1  0  0  0
 39 64  1  0  0  0
 39 67  2  0  0  0
 40 52  1  0  0  0
 40 53  2  0  0  0
 40 58  1  0  0  0
 41113  1  0  0  0
 41114  1  0  0  0
 41115  1  0  0  0
 41 48  1  0  0  0
 42 43  1  0  0  0
 42 66  1  0  0  0
 42116  1  0  0  0
 42117  1  0  0  0
 43 44  1  0  0  0
 44118  1  0  0  0
 45 46  2  0  0  0
 45119  1  0  0  0
 46120  1  0  0  0
 47121  1  0  0  0
 47122  1  0  0  0
 48 56  1  0  0  0
 48 65  1  0  0  0
 48123  1  0  0  0
 49 50  1  0  0  0
 49 53  1  0  0  0
 49 64  1  0  0  0
 49124  1  0  0  0
 50 51  1  0  0  0
 50125  1  0  0  0
 50126  1  0  0  0
 51 52  1  0  0  0
 51127  1  0  0  0
 51128  1  0  0  0
 52129  1  0  0  0
 52130  1  0  0  0
 53 54  1  0  0  0
 54 55  2  0  0  0
 54131  1  0  0  0
 55 57  1  0  0  0
 55132  1  0  0  0
 56 69  2  0  0  0
 57 58  2  0  0  0
 57133  1  0  0  0
 58134  1  0  0  0
 59 60  1  0  0  0
 59 61  1  0  0  0
 59 62  1  0  0  0
 60135  1  0  0  0
 60136  1  0  0  0
 60137  1  0  0  0
 61138  1  0  0  0
 61139  1  0  0  0
 61140  1  0  0  0
 62141  1  0  0  0
 62142  1  0  0  0
 62143  1  0  0  0
 63 65  1  0  0  0
 63144  1  0  0  0
 63145  1  0  0  0
 63146  1  0  0  0
 64147  1  0  0  0
 65148  1  0  0  0
 68 87  1  0  0  0
 71 72  2  0  0  0
 71 74  1  0  0  0
 71 82  1  0  0  0
 72 73  1  0  0  0
 72 86  1  0  0  0
 73 75  2  0  0  0
 73 87  1  0  0  0
 74 88  2  0  0  0
 74 83  1  0  0  0
 75 84  1  0  0  0
 75 88  1  0  0  0
 76 77  1  0  0  0
 76 82  1  0  0  0
 76149  1  0  0  0
 76150  1  0  0  0
 77 82  1  0  0  0
 77151  1  0  0  0
 77152  1  0  0  0
 78 80  1  0  0  0
 78 83  1  0  0  0
 78153  1  0  0  0
 78154  1  0  0  0
 79 81  1  0  0  0
 79 83  1  0  0  0
 79155  1  0  0  0
 79156  1  0  0  0
 80 89  1  0  0  0
 80157  1  0  0  0
 80158  1  0  0  0
 81 89  1  0  0  0
 81159  1  0  0  0
 81160  1  0  0  0
 82161  1  0  0  0
 83162  1  0  0  0
 84163  1  0  0  0
 84164  1  0  0  0
 84165  1  0  0  0
 85 86  1  0  0  0
 85166  1  0  0  0
 85167  1  0  0  0
 85168  1  0  0  0
 86169  1  0  0  0
 86170  1  0  0  0
 87171  1  0  0  0
 87172  1  0  0  0
M  ISO  4   1 100  68 101  87 101  89 100
M  END
> <chiral flag>
0

> <version>
0

> <s_m_source_file>
/data/baiqing/PycharmProjects/Reinvent-master-3.2/result/LINK_invent/BTK/process_docking_weight1_custom_sum_contain_oxygen_bond_distance_aromatic_linkinvent_7_9_3/rearranged_h_0171.sdf

> <i_m_source_file_index>
86

> <r_mmod_Potential_Energy-OPLS-2005>
351.652374267578

> <r_mmod_Stretch_Energy-OPLS-2005>
130.322174072266

> <r_mmod_Bend_Energy-OPLS-2005>
231.95329284668

> <r_mmod_Torsional_Energy-OPLS-2005>
326.403503417969

> <r_mmod_Improper_Torsional_Energy-OPLS-2005>
10.7144613265991

> <r_mmod_Van_der_Waal_Energy-OPLS-2005>
171.944046020508

> <r_mmod_Electrostatic_Energy-OPLS-2005>
-415.660797119141

> <r_mmod_Solvation_Energy-OPLS-2005>
-208.575744628906

> <b_mmod_Minimization_Converged-OPLS-2005>
0

> <r_mmod_RMS_Derivative-OPLS-2005>
0.19831195473671

$$$$
86
                    3D
 Structure written by MMmdl.
157166  0  0  1  0            999 V2000
  -30.4151  -15.2962   20.4666 C   0  0  0  0  0  0
  -30.4338  -12.8374   19.5636 C   0  0  0  0  0  0
  -29.5437  -12.5949   18.3147 C   0  0  0  0  0  0
  -28.0840  -12.3226   18.7145 C   0  0  0  0  0  0
  -27.6147  -13.2751   19.8423 C   0  0  2  0  0  0
  -28.6371  -13.4267   20.9878 C   0  0  0  0  0  0
  -25.2349  -13.8257   20.5685 C   0  0  0  0  0  0
  -24.1711  -13.0489   20.9217 C   0  0  0  0  0  0
  -24.6346  -11.6970   20.8768 C   0  0  0  0  0  0
  -23.9045  -10.4348   21.0361 C   0  0  0  0  0  0
  -24.3610   -9.4261   21.9129 C   0  0  0  0  0  0
  -23.6261   -8.2302   22.0778 C   0  0  0  0  0  0
  -22.4255   -8.0311   21.3564 C   0  0  0  0  0  0
  -21.9889   -9.0286   20.4668 C   0  0  0  0  0  0
  -22.7223  -10.2148   20.2986 C   0  0  0  0  0  0
  -21.6898   -6.0721   22.5269 C   0  0  0  0  0  0
  -21.4055   -6.5636   23.8196 C   0  0  0  0  0  0
  -21.3647   -5.6783   24.9171 C   0  0  0  0  0  0
  -21.6022   -4.3049   24.7208 C   0  0  0  0  0  0
  -21.8818   -3.8136   23.4335 C   0  0  0  0  0  0
  -21.9215   -4.6955   22.3371 C   0  0  0  0  0  0
  -22.7736  -13.5192   21.1916 C   0  0  0  0  0  0
  -22.1668   -4.2123   21.0966 F   0  0  0  0  0  0
  -21.5616   -3.4511   25.7723 F   0  0  0  0  0  0
  -29.8583  -13.9776   20.3798 N   0  0  0  0  0  0
  -26.2808  -12.9534   20.3300 N   0  0  0  0  0  0
  -25.9284  -11.6626   20.5735 N   0  0  0  0  0  0
  -22.0385  -12.8210   22.0496 N   0  0  0  0  0  0
  -25.4024  -15.2009   20.4002 N   0  0  0  0  0  0
  -31.6328  -15.2866   20.2257 O   0  0  0  0  0  0
  -21.6671   -6.8861   21.4235 O   0  0  0  0  0  0
  -22.3382  -14.5486   20.6770 O   0  0  0  0  0  0
  -24.6636  -31.8204   23.1646 C   0  0  0  0  0  0
  -25.9290  -32.4587   23.8160 C   0  0  1  0  0  0
  -27.2290  -26.8634   20.2530 C   0  0  0  0  0  0
  -25.5968  -33.8407   24.2110 N   0  0  0  0  0  0
  -23.4865  -30.4235   21.5098 C   0  0  2  0  0  0
  -24.9537  -28.8033   20.1082 C   0  0  0  0  0  0
  -22.7699  -29.4378   22.4708 C   0  0  0  0  0  0
  -18.0330  -28.1393   22.8471 C   0  0  0  0  0  0
  -24.1477  -36.7195   23.2651 C   0  0  0  0  0  0
  -26.0583  -30.6082   21.4113 C   0  0  0  0  0  0
  -26.1260  -29.1875   20.7694 C   0  0  0  0  0  0
  -27.2484  -28.2377   20.8246 C   0  0  0  0  0  0
  -26.0432  -26.6581   19.5060 C   0  0  0  0  0  0
  -24.9452  -27.5605   19.4486 C   0  0  0  0  0  0
  -23.7394  -29.7363   20.1370 C   0  0  0  0  0  0
  -25.4121  -36.2979   24.0326 C   0  0  1  0  0  0
  -20.5960  -28.3733   23.1194 C   0  0  2  0  0  0
  -20.6804  -26.9417   22.5405 C   0  0  0  0  0  0
  -19.5793  -26.6369   21.5216 C   0  0  0  0  0  0
  -18.1966  -26.7922   22.1613 C   0  0  0  0  0  0
  -19.1592  -28.8886   23.2813 C   0  0  0  0  0  0
  -18.9496  -30.1472   23.8845 C   0  0  0  0  0  0
  -17.6488  -30.6590   24.0537 C   0  0  0  0  0  0
  -25.9071  -34.9362   23.5037 C   0  0  0  0  0  0
  -16.5382  -29.9073   23.6345 C   0  0  0  0  0  0
  -16.7303  -28.6489   23.0379 C   0  0  0  0  0  0
  -26.4556  -31.6490   25.0675 C   0  0  0  0  0  0
  -25.3676  -31.3727   26.1332 C   0  0  0  0  0  0
  -27.0435  -30.2854   24.6418 C   0  0  0  0  0  0
  -27.6049  -32.4257   25.7470 C   0  0  0  0  0  0
  -27.5558  -37.1760   24.8485 C   0  0  0  0  0  0
  -21.4349  -29.3032   22.3536 N   0  0  0  0  0  0
  -26.4266  -37.3730   23.9413 N   0  0  0  0  0  0
  -24.7561  -30.9827   22.0807 N   0  0  0  0  0  0
  -23.4227  -28.8000   23.2985 O   0  0  0  0  0  0
  -28.1952  -25.7183   20.4453 O   0  0  0  0  0  0
  -26.5680  -34.8911   22.4622 O   0  0  0  0  0  0
  -23.5698  -32.1231   23.6685 O   0  0  0  0  0  0
  -28.0529  -21.1123   22.7856 C   0  0  0  0  0  0
  -27.9691  -22.3396   22.0637 C   0  0  0  0  0  0
  -29.0751  -21.1633   20.2693 C   0  0  0  0  0  0
  -28.6275  -19.9029   22.2857 C   0  0  0  0  0  0
  -29.1664  -19.7734   20.9776 C   0  0  0  0  0  0
  -28.4802  -22.5264   20.7601 C   0  0  0  0  0  0
  -28.7482  -18.6926   23.2164 C   0  0  0  0  0  0
  -30.0494  -18.2422   20.7388 C   0  0  2  0  0  0
  -30.9534  -18.2451   22.0148 C   0  0  2  0  0  0
  -31.9174  -19.4521   22.1393 C   0  0  0  0  0  0
  -28.1114  -24.0971   20.0097 C   0  0  0  0  0  0
  -29.6746  -16.5892   20.6554 N   0  0  0  0  0  0
  -30.1189  -18.1110   23.2483 N   0  3  0  0  0  0
  -31.4546  -13.0485   19.2494 H   0  0  0  0  0  0
  -30.5042  -11.9255   20.1580 H   0  0  0  0  0  0
  -29.9244  -11.7665   17.7137 H   0  0  0  0  0  0
  -29.5762  -13.4796   17.6791 H   0  0  0  0  0  0
  -28.0134  -11.2841   19.0460 H   0  0  0  0  0  0
  -27.4306  -12.4136   17.8466 H   0  0  0  0  0  0
  -27.5452  -14.2573   19.3738 H   0  0  0  0  0  0
  -28.8229  -12.4751   21.4839 H   0  0  0  0  0  0
  -28.2589  -14.0985   21.7573 H   0  0  0  0  0  0
  -25.2758   -9.5773   22.4680 H   0  0  0  0  0  0
  -23.9990   -7.4743   22.7546 H   0  0  0  0  0  0
  -21.0783   -8.8742   19.9009 H   0  0  0  0  0  0
  -22.3634  -10.9639   19.6053 H   0  0  0  0  0  0
  -21.2075   -7.6169   23.9654 H   0  0  0  0  0  0
  -21.1448   -6.0563   25.9046 H   0  0  0  0  0  0
  -22.0601   -2.7596   23.2850 H   0  0  0  0  0  0
  -22.3973  -11.9883   22.4930 H   0  0  0  0  0  0
  -21.0964  -13.1213   22.2571 H   0  0  0  0  0  0
  -24.5965  -15.8164   20.3669 H   0  0  0  0  0  0
  -26.2282  -15.6193   19.9941 H   0  0  0  0  0  0
  -26.7381  -32.5134   23.0897 H   0  0  0  0  0  0
  -25.0150  -33.9479   25.0284 H   0  0  0  0  0  0
  -22.7976  -31.2495   21.3264 H   0  0  0  0  0  0
  -23.3757  -35.9496   23.3308 H   0  0  0  0  0  0
  -24.3591  -36.8824   22.2063 H   0  0  0  0  0  0
  -23.7188  -37.6376   23.6697 H   0  0  0  0  0  0
  -26.2506  -31.3413   20.6245 H   0  0  0  0  0  0
  -26.9127  -30.6747   22.0693 H   0  0  0  0  0  0
  -28.1135  -28.5246   21.4043 H   0  0  0  0  0  0
  -25.9226  -25.7129   19.0002 H   0  0  0  0  0  0
  -24.0699  -27.2673   18.8839 H   0  0  0  0  0  0
  -23.8989  -30.5031   19.3761 H   0  0  0  0  0  0
  -22.8528  -29.1892   19.8107 H   0  0  0  0  0  0
  -25.1307  -36.1787   25.0824 H   0  0  0  0  0  0
  -21.0060  -28.3337   24.1311 H   0  0  0  0  0  0
  -20.5693  -26.2351   23.3641 H   0  0  0  0  0  0
  -21.6665  -26.7396   22.1213 H   0  0  0  0  0  0
  -19.6961  -25.6277   21.1276 H   0  0  0  0  0  0
  -19.6721  -27.3158   20.6730 H   0  0  0  0  0  0
  -17.4241  -26.6666   21.4010 H   0  0  0  0  0  0
  -18.0332  -26.0051   22.8992 H   0  0  0  0  0  0
  -19.7963  -30.7312   24.2183 H   0  0  0  0  0  0
  -17.5034  -31.6262   24.5152 H   0  0  0  0  0  0
  -15.5388  -30.2962   23.7696 H   0  0  0  0  0  0
  -15.8689  -28.0795   22.7139 H   0  0  0  0  0  0
  -24.5952  -30.6980   25.7677 H   0  0  0  0  0  0
  -24.8728  -32.2879   26.4560 H   0  0  0  0  0  0
  -25.7942  -30.9052   27.0220 H   0  0  0  0  0  0
  -26.3105  -29.6489   24.1486 H   0  0  0  0  0  0
  -27.4028  -29.7284   25.5073 H   0  0  0  0  0  0
  -27.9040  -30.4014   23.9831 H   0  0  0  0  0  0
  -27.2700  -33.3665   26.1871 H   0  0  0  0  0  0
  -28.3994  -32.6616   25.0362 H   0  0  0  0  0  0
  -28.0607  -31.8435   26.5501 H   0  0  0  0  0  0
  -28.2606  -38.0039   24.7528 H   0  0  0  0  0  0
  -28.1026  -36.2559   24.6314 H   0  0  0  0  0  0
  -27.2287  -37.1438   25.8903 H   0  0  0  0  0  0
  -20.9605  -29.8677   21.6638 H   0  0  0  0  0  0
  -26.0125  -38.2807   24.1360 H   0  0  0  0  0  0
  -27.6555  -21.1190   23.7946 H   0  0  0  0  0  0
  -27.4662  -23.1672   22.5409 H   0  0  0  0  0  0
  -29.5119  -21.1781   19.2829 H   0  0  0  0  0  0
  -28.0461  -17.9340   22.8719 H   0  0  0  0  0  0
  -28.4452  -18.9426   24.2345 H   0  0  0  0  0  0
  -30.6896  -18.4161   19.8735 H   0  0  0  0  0  0
  -31.6103  -17.3724   21.9973 H   0  0  0  0  0  0
  -32.6173  -19.3076   22.9661 H   0  0  0  0  0  0
  -31.4017  -20.3940   22.3176 H   0  0  0  0  0  0
  -32.5171  -19.5746   21.2373 H   0  0  0  0  0  0
  -27.0605  -23.9627   19.7507 H   0  0  0  0  0  0
  -28.6306  -24.0577   19.0572 H   0  0  0  0  0  0
  -28.6881  -16.4222   20.7867 H   0  0  0  0  0  0
  -29.9882  -17.1290   23.4285 H   0  0  0  0  0  0
  -30.6234  -18.4746   24.0406 H   0  0  0  0  0  0
  1 25  1  0  0  0
  1 30  2  0  0  0
  1 82  1  0  0  0
  2  3  1  0  0  0
  2 25  1  0  0  0
  2 84  1  0  0  0
  2 85  1  0  0  0
  3  4  1  0  0  0
  3 86  1  0  0  0
  3 87  1  0  0  0
  4  5  1  0  0  0
  4 88  1  0  0  0
  4 89  1  0  0  0
  5  6  1  0  0  0
  5 26  1  0  0  0
  5 90  1  0  0  0
  6 25  1  0  0  0
  6 91  1  0  0  0
  6 92  1  0  0  0
  7  8  2  0  0  0
  7 26  1  0  0  0
  7 29  1  0  0  0
  8  9  1  0  0  0
  8 22  1  0  0  0
  9 10  1  0  0  0
  9 27  2  0  0  0
 10 11  2  0  0  0
 10 15  1  0  0  0
 11 12  1  0  0  0
 11 93  1  0  0  0
 12 13  2  0  0  0
 12 94  1  0  0  0
 13 14  1  0  0  0
 13 31  1  0  0  0
 14 15  2  0  0  0
 14 95  1  0  0  0
 15 96  1  0  0  0
 16 17  2  0  0  0
 16 21  1  0  0  0
 16 31  1  0  0  0
 17 18  1  0  0  0
 17 97  1  0  0  0
 18 19  2  0  0  0
 18 98  1  0  0  0
 19 20  1  0  0  0
 19 24  1  0  0  0
 20 21  2  0  0  0
 20 99  1  0  0  0
 21 23  1  0  0  0
 22 28  1  0  0  0
 22 32  2  0  0  0
 26 27  1  0  0  0
 28100  1  0  0  0
 28101  1  0  0  0
 29102  1  0  0  0
 29103  1  0  0  0
 33 34  1  0  0  0
 33 66  1  0  0  0
 33 70  2  0  0  0
 34 36  1  0  0  0
 34 59  1  0  0  0
 34104  1  0  0  0
 35 44  2  0  0  0
 35 45  1  0  0  0
 35 68  1  0  0  0
 36 56  1  0  0  0
 36105  1  0  0  0
 37 39  1  0  0  0
 37 47  1  0  0  0
 37 66  1  0  0  0
 37106  1  0  0  0
 38 43  2  0  0  0
 38 46  1  0  0  0
 38 47  1  0  0  0
 39 64  1  0  0  0
 39 67  2  0  0  0
 40 52  1  0  0  0
 40 53  2  0  0  0
 40 58  1  0  0  0
 41107  1  0  0  0
 41108  1  0  0  0
 41109  1  0  0  0
 41 48  1  0  0  0
 42 43  1  0  0  0
 42 66  1  0  0  0
 42110  1  0  0  0
 42111  1  0  0  0
 43 44  1  0  0  0
 44112  1  0  0  0
 45 46  2  0  0  0
 45113  1  0  0  0
 46114  1  0  0  0
 47115  1  0  0  0
 47116  1  0  0  0
 48 56  1  0  0  0
 48 65  1  0  0  0
 48117  1  0  0  0
 49 50  1  0  0  0
 49 53  1  0  0  0
 49 64  1  0  0  0
 49118  1  0  0  0
 50 51  1  0  0  0
 50119  1  0  0  0
 50120  1  0  0  0
 51 52  1  0  0  0
 51121  1  0  0  0
 51122  1  0  0  0
 52123  1  0  0  0
 52124  1  0  0  0
 53 54  1  0  0  0
 54 55  2  0  0  0
 54125  1  0  0  0
 55 57  1  0  0  0
 55126  1  0  0  0
 56 69  2  0  0  0
 57 58  2  0  0  0
 57127  1  0  0  0
 58128  1  0  0  0
 59 60  1  0  0  0
 59 61  1  0  0  0
 59 62  1  0  0  0
 60129  1  0  0  0
 60130  1  0  0  0
 60131  1  0  0  0
 61132  1  0  0  0
 61133  1  0  0  0
 61134  1  0  0  0
 62135  1  0  0  0
 62136  1  0  0  0
 62137  1  0  0  0
 63 65  1  0  0  0
 63138  1  0  0  0
 63139  1  0  0  0
 63140  1  0  0  0
 64141  1  0  0  0
 65142  1  0  0  0
 68 81  1  0  0  0
 71 72  2  0  0  0
 71 74  1  0  0  0
 71143  1  0  0  0
 72 76  1  0  0  0
 72144  1  0  0  0
 73 75  1  0  0  0
 73 76  2  0  0  0
 73145  1  0  0  0
 74 75  2  0  0  0
 74 77  1  0  0  0
 75 78  1  0  0  0
 76 81  1  0  0  0
 77 83  1  0  0  0
 77146  1  0  0  0
 77147  1  0  0  0
 78 79  1  0  0  0
 78 82  1  0  0  0
 78148  1  0  0  0
 79 80  1  0  0  0
 79 83  1  0  0  0
 79149  1  0  0  0
 80150  1  0  0  0
 80151  1  0  0  0
 80152  1  0  0  0
 81153  1  0  0  0
 81154  1  0  0  0
 82155  1  0  0  0
 83156  1  0  0  0
 83157  1  0  0  0
M  CHG  1  83   1
M  ISO  4   1 100  68 101  81 101  82 100
M  END
> <chiral flag>
0

> <version>
0

> <s_m_source_file>
/data/baiqing/PycharmProjects/Reinvent-master-3.2/result/LINK_invent/BTK/process_docking_weight1_custom_sum_contain_oxygen_bond_distance_aromatic_linkinvent_7_9_3/rearranged_h_0171.sdf

> <i_m_source_file_index>
87

> <r_mmod_Potential_Energy-OPLS-2005>
1272.71911621094

> <r_mmod_Stretch_Energy-OPLS-2005>
683.431030273438

> <r_mmod_Bend_Energy-OPLS-2005>
487.366058349609

> <r_mmod_Torsional_Energy-OPLS-2005>
284.8388671875

> <r_mmod_Improper_Torsional_Energy-OPLS-2005>
8.59011268615723

> <r_mmod_Van_der_Waal_Energy-OPLS-2005>
134.695053100586

> <r_mmod_Electrostatic_Energy-OPLS-2005>
-372.413146972656

> <r_mmod_Solvation_Energy-OPLS-2005>
-482.648162841797

> <b_mmod_Minimization_Converged-OPLS-2005>
0

> <r_mmod_RMS_Derivative-OPLS-2005>
7.15369129180908

$$$$
87
                    3D
 Structure written by MMmdl.
167177  0  0  1  0            999 V2000
  -29.3044  -15.7635   20.7183 C   0  0  0  0  0  0
  -30.2535  -13.3559   19.6989 C   0  0  0  0  0  0
  -29.5340  -12.7454   18.4429 C   0  0  0  0  0  0
  -28.1225  -12.2466   18.7930 C   0  0  0  0  0  0
  -27.4869  -13.2148   19.8070 C   0  0  2  0  0  0
  -28.3451  -13.4281   21.0394 C   0  0  0  0  0  0
  -25.1855  -13.8030   20.5587 C   0  0  0  0  0  0
  -24.1323  -13.0303   20.9359 C   0  0  0  0  0  0
  -24.5921  -11.6776   20.8804 C   0  0  0  0  0  0
  -23.8751  -10.4194   21.0483 C   0  0  0  0  0  0
  -24.3452   -9.4160   21.9218 C   0  0  0  0  0  0
  -23.6204   -8.2169   22.0770 C   0  0  0  0  0  0
  -22.4195   -8.0184   21.3551 C   0  0  0  0  0  0
  -21.9752   -9.0116   20.4651 C   0  0  0  0  0  0
  -22.6991  -10.2022   20.3070 C   0  0  0  0  0  0
  -21.6820   -6.0692   22.5296 C   0  0  0  0  0  0
  -21.3996   -6.5614   23.8225 C   0  0  0  0  0  0
  -21.3644   -5.6782   24.9181 C   0  0  0  0  0  0
  -21.6032   -4.3048   24.7249 C   0  0  0  0  0  0
  -21.8830   -3.8122   23.4377 C   0  0  0  0  0  0
  -21.9193   -4.6928   22.3417 C   0  0  0  0  0  0
  -22.7461  -13.5172   21.2059 C   0  0  0  0  0  0
  -22.1666   -4.2122   21.1004 F   0  0  0  0  0  0
  -21.5619   -3.4529   25.7763 F   0  0  0  0  0  0
  -29.3278  -14.3147   20.5100 N   0  0  0  0  0  0
  -26.1819  -12.8998   20.2549 N   0  0  0  0  0  0
  -25.8670  -11.6241   20.5419 N   0  0  0  0  0  0
  -22.0108  -12.8184   22.0598 N   0  0  0  0  0  0
  -25.3761  -15.1786   20.4125 N   0  0  0  0  0  0
  -30.5351  -16.0264   20.5382 O   0  0  0  0  0  0
  -21.6594   -6.8782   21.4239 O   0  0  0  0  0  0
  -22.3257  -14.5515   20.6879 O   0  0  0  0  0  0
  -24.6455  -31.9469   23.2338 C   0  0  0  0  0  0
  -25.9514  -32.5143   23.8651 C   0  0  1  0  0  0
  -26.9837  -27.4625   19.9181 C   0  0  0  0  0  0
  -25.6404  -33.8917   24.2610 N   0  0  0  0  0  0
  -23.4273  -30.5904   21.6111 C   0  0  2  0  0  0
  -24.8365  -29.1792   19.9979 C   0  0  0  0  0  0
  -22.9388  -29.5792   22.6626 C   0  0  0  0  0  0
  -18.2872  -27.6603   22.7045 C   0  0  0  0  0  0
  -24.1529  -36.7389   23.2592 C   0  0  0  0  0  0
  -25.9676  -30.8519   21.4370 C   0  0  0  0  0  0
  -25.9873  -29.5212   20.7191 C   0  0  0  0  0  0
  -27.0825  -28.6165   20.7542 C   0  0  0  0  0  0
  -26.0747  -27.4456   18.8723 C   0  0  0  0  0  0
  -24.8965  -28.1611   19.0527 C   0  0  0  0  0  0
  -23.5758  -29.9834   20.1894 C   0  0  0  0  0  0
  -25.4137  -36.3267   24.0323 C   0  0  1  0  0  0
  -21.1611  -28.1595   23.5113 C   0  0  2  0  0  0
  -22.1931  -26.7985   22.7069 C   0  0  0  0  0  0
  -19.8353  -25.3286   20.8087 C   0  0  0  0  0  0
  -18.3076  -26.2916   21.5663 C   0  0  0  0  0  0
  -19.4265  -28.4105   23.4484 C   0  0  0  0  0  0
  -19.0739  -29.6931   24.0390 C   0  0  0  0  0  0
  -17.7872  -30.2793   24.0470 C   0  0  0  0  0  0
  -25.9168  -34.9616   23.5148 C   0  0  0  0  0  0
  -16.7253  -29.5749   23.4635 C   0  0  0  0  0  0
  -16.9911  -28.3200   22.8214 C   0  0  0  0  0  0
  -26.4657  -31.6681   25.0891 C   0  0  0  0  0  0
  -25.3781  -31.3708   26.1461 C   0  0  0  0  0  0
  -27.0479  -30.3119   24.6219 C   0  0  0  0  0  0
  -27.6217  -32.4245   25.7815 C   0  0  0  0  0  0
  -27.5609  -37.1904   24.8451 C   0  0  0  0  0  0
  -21.6505  -29.3846   22.8355 N   0  0  0  0  0  0
  -26.4307  -37.3930   23.9435 N   0  0  0  0  0  0
  -24.6926  -31.1877   22.1161 N   0  0  0  0  0  0
  -23.7427  -28.9960   23.3908 O   0  0  0  0  0  0
  -26.9201  -26.2015   20.4054 O   0  0  0  0  0  0
  -26.5503  -34.9020   22.4598 O   0  0  0  0  0  0
  -23.5754  -32.2231   23.7918 O   0  0  0  0  0  0
  -20.3814  -25.6658   22.8643 C   0  0  0  0  0  0
  -20.5654  -27.2892   21.3259 C   0  0  0  0  0  0
  -21.5774  -24.4062   22.3759 C   0  0  0  0  0  0
  -22.4983  -25.7658   20.3992 C   0  0  0  0  0  0
  -23.7235  -20.9597   23.5608 C   0  0  0  0  0  0
  -24.1784  -20.6951   21.0800 C   0  0  0  0  0  0
  -25.0887  -20.9894   22.8918 C   0  0  1  0  0  0
  -25.7070  -19.9017   21.6613 C   0  0  1  0  0  0
  -23.7100  -21.7980   22.3102 C   0  0  2  0  0  0
  -19.8803  -28.5752   20.7042 C   0  0  0  0  0  0
  -23.8594  -25.2025   18.3500 C   0  0  0  0  0  0
  -27.1296  -18.3113   21.6831 C   0  0  0  0  0  0
  -25.4261  -25.8462   20.7791 C   0  0  0  0  0  0
  -23.9941  -25.5146   19.8579 C   0  0  1  0  0  0
  -21.6902  -26.9790   20.3271 N   0  0  0  0  0  0
  -22.3230  -24.6758   21.2227 N   0  0  0  0  0  0
  -22.3850  -22.9910   22.6867 N   0  0  0  0  0  0
  -27.9963  -16.7448   20.9949 N   0  0  0  0  0  0
  -31.1220  -13.9253   19.3651 H   0  0  0  0  0  0
  -30.6588  -12.5739   20.3475 H   0  0  0  0  0  0
  -30.1382  -11.9472   18.0145 H   0  0  0  0  0  0
  -29.4400  -13.5164   17.6769 H   0  0  0  0  0  0
  -28.2176  -11.2580   19.2443 H   0  0  0  0  0  0
  -27.5080  -12.1340   17.8991 H   0  0  0  0  0  0
  -27.3699  -14.1475   19.2500 H   0  0  0  0  0  0
  -28.7370  -12.5062   21.4726 H   0  0  0  0  0  0
  -27.7897  -13.9414   21.8284 H   0  0  0  0  0  0
  -25.2598   -9.5720   22.4772 H   0  0  0  0  0  0
  -23.9942   -7.4577   22.7501 H   0  0  0  0  0  0
  -21.0674   -8.8574   19.8980 H   0  0  0  0  0  0
  -22.3412  -10.9554   19.6184 H   0  0  0  0  0  0
  -21.1985   -7.6131   23.9702 H   0  0  0  0  0  0
  -21.1438   -6.0524   25.9088 H   0  0  0  0  0  0
  -22.0624   -2.7591   23.2875 H   0  0  0  0  0  0
  -22.3716  -11.9780   22.4885 H   0  0  0  0  0  0
  -21.0765  -13.1269   22.2864 H   0  0  0  0  0  0
  -24.5290  -15.7326   20.5149 H   0  0  0  0  0  0
  -25.8939  -15.4730   19.5962 H   0  0  0  0  0  0
  -26.7579  -32.5765   23.1422 H   0  0  0  0  0  0
  -25.0769  -34.0066   25.0885 H   0  0  0  0  0  0
  -22.6510  -31.3550   21.5601 H   0  0  0  0  0  0
  -23.3828  -35.9692   23.3249 H   0  0  0  0  0  0
  -24.3646  -36.9020   22.2014 H   0  0  0  0  0  0
  -23.7219  -37.6570   23.6593 H   0  0  0  0  0  0
  -26.1447  -31.6374   20.7020 H   0  0  0  0  0  0
  -26.8318  -30.8391   22.0912 H   0  0  0  0  0  0
  -27.8615  -28.7242   21.4959 H   0  0  0  0  0  0
  -26.0641  -26.6037   18.1948 H   0  0  0  0  0  0
  -24.0284  -27.9834   18.4220 H   0  0  0  0  0  0
  -23.5844  -30.8000   19.4618 H   0  0  0  0  0  0
  -22.7298  -29.3521   19.9210 H   0  0  0  0  0  0
  -25.1280  -36.2118   25.0797 H   0  0  0  0  0  0
  -21.4498  -28.1926   24.5664 H   0  0  0  0  0  0
  -23.1475  -27.0707   22.2684 H   0  0  0  0  0  0
  -22.5294  -26.2774   23.6138 H   0  0  0  0  0  0
  -19.6870  -24.2390   20.8442 H   0  0  0  0  0  0
  -19.8662  -25.5804   19.7740 H   0  0  0  0  0  0
  -17.7549  -26.6860   20.6850 H   0  0  0  0  0  0
  -17.6406  -25.5372   21.9827 H   0  0  0  0  0  0
  -19.8469  -30.2758   24.5332 H   0  0  0  0  0  0
  -17.5949  -31.2389   24.5123 H   0  0  0  0  0  0
  -15.7367  -30.0075   23.4485 H   0  0  0  0  0  0
  -16.1486  -27.8812   22.3044 H   0  0  0  0  0  0
  -24.5979  -30.7153   25.7577 H   0  0  0  0  0  0
  -24.8965  -32.2843   26.4952 H   0  0  0  0  0  0
  -25.7962  -30.8697   27.0192 H   0  0  0  0  0  0
  -26.3080  -29.6947   24.1114 H   0  0  0  0  0  0
  -27.4114  -29.7268   25.4674 H   0  0  0  0  0  0
  -27.8981  -30.4441   23.9517 H   0  0  0  0  0  0
  -27.2937  -33.3608   26.2329 H   0  0  0  0  0  0
  -28.4201  -32.6642   25.0788 H   0  0  0  0  0  0
  -28.0644  -31.8306   26.5810 H   0  0  0  0  0  0
  -28.2524  -38.0299   24.7637 H   0  0  0  0  0  0
  -28.1213  -36.2834   24.6117 H   0  0  0  0  0  0
  -27.2339  -37.1346   25.8847 H   0  0  0  0  0  0
  -20.9721  -30.0288   22.4408 H   0  0  0  0  0  0
  -26.0193  -38.2994   24.1530 H   0  0  0  0  0  0
  -19.6717  -25.6468   23.6984 H   0  0  0  0  0  0
  -23.6499  -21.4406   24.5467 H   0  0  0  0  0  0
  -23.1368  -20.0395   23.5149 H   0  0  0  0  0  0
  -23.3865  -19.9881   20.7939 H   0  0  0  0  0  0
  -24.4243  -21.2975   20.2016 H   0  0  0  0  0  0
  -25.8470  -21.6046   23.3863 H   0  0  0  0  0  0
  -26.3522  -20.5693   21.0912 H   0  0  0  0  0  0
  -18.9885  -28.3981   20.1094 H   0  0  0  0  0  0
  -20.5578  -29.0259   19.9875 H   0  0  0  0  0  0
  -19.6142  -29.4411   21.3130 H   0  0  0  0  0  0
  -22.8801  -24.7169   18.1435 H   0  0  0  0  0  0
  -24.6613  -24.5340   18.0619 H   0  0  0  0  0  0
  -23.8929  -26.0415   17.6632 H   0  0  0  0  0  0
  -26.8785  -17.8556   22.6406 H   0  0  0  0  0  0
  -28.0389  -18.8763   21.8942 H   0  0  0  0  0  0
  -25.4750  -25.0108   21.4768 H   0  0  0  0  0  0
  -25.1783  -26.6753   21.4443 H   0  0  0  0  0  0
  -24.0829  -24.4279   20.0010 H   0  0  0  0  0  0
  -22.2114  -22.9501   23.6924 H   0  0  0  0  0  0
  -27.2201  -16.0978   20.8979 H   0  0  0  0  0  0
  1 25  1  0  0  0
  1 30  2  0  0  0
  1 88  1  0  0  0
  2  3  1  0  0  0
  2 25  1  0  0  0
  2 89  1  0  0  0
  2 90  1  0  0  0
  3  4  1  0  0  0
  3 91  1  0  0  0
  3 92  1  0  0  0
  4  5  1  0  0  0
  4 93  1  0  0  0
  4 94  1  0  0  0
  5  6  1  0  0  0
  5 26  1  0  0  0
  5 95  1  0  0  0
  6 25  1  0  0  0
  6 96  1  0  0  0
  6 97  1  0  0  0
  7  8  2  0  0  0
  7 26  1  0  0  0
  7 29  1  0  0  0
  8  9  1  0  0  0
  8 22  1  0  0  0
  9 10  1  0  0  0
  9 27  2  0  0  0
 10 11  2  0  0  0
 10 15  1  0  0  0
 11 12  1  0  0  0
 11 98  1  0  0  0
 12 13  2  0  0  0
 12 99  1  0  0  0
 13 14  1  0  0  0
 13 31  1  0  0  0
 14 15  2  0  0  0
 14100  1  0  0  0
 15101  1  0  0  0
 16 17  2  0  0  0
 16 21  1  0  0  0
 16 31  1  0  0  0
 17 18  1  0  0  0
 17102  1  0  0  0
 18 19  2  0  0  0
 18103  1  0  0  0
 19 20  1  0  0  0
 19 24  1  0  0  0
 20 21  2  0  0  0
 20104  1  0  0  0
 21 23  1  0  0  0
 22 28  1  0  0  0
 22 32  2  0  0  0
 26 27  1  0  0  0
 28105  1  0  0  0
 28106  1  0  0  0
 29107  1  0  0  0
 29108  1  0  0  0
 33 34  1  0  0  0
 33 66  1  0  0  0
 33 70  2  0  0  0
 34 36  1  0  0  0
 34 59  1  0  0  0
 34109  1  0  0  0
 35 44  2  0  0  0
 35 45  1  0  0  0
 35 68  1  0  0  0
 36 56  1  0  0  0
 36110  1  0  0  0
 37 39  1  0  0  0
 37 47  1  0  0  0
 37 66  1  0  0  0
 37111  1  0  0  0
 38 43  2  0  0  0
 38 46  1  0  0  0
 38 47  1  0  0  0
 39 64  1  0  0  0
 39 67  2  0  0  0
 40 52  1  0  0  0
 40 53  2  0  0  0
 40 58  1  0  0  0
 41112  1  0  0  0
 41113  1  0  0  0
 41114  1  0  0  0
 41 48  1  0  0  0
 42 43  1  0  0  0
 42 66  1  0  0  0
 42115  1  0  0  0
 42116  1  0  0  0
 43 44  1  0  0  0
 44117  1  0  0  0
 45 46  2  0  0  0
 45118  1  0  0  0
 46119  1  0  0  0
 47120  1  0  0  0
 47121  1  0  0  0
 48 56  1  0  0  0
 48 65  1  0  0  0
 48122  1  0  0  0
 49 50  1  0  0  0
 49 53  1  0  0  0
 49 64  1  0  0  0
 49123  1  0  0  0
 50 51  1  0  0  0
 50124  1  0  0  0
 50125  1  0  0  0
 51 52  1  0  0  0
 51126  1  0  0  0
 51127  1  0  0  0
 52128  1  0  0  0
 52129  1  0  0  0
 53 54  1  0  0  0
 54 55  2  0  0  0
 54130  1  0  0  0
 55 57  1  0  0  0
 55131  1  0  0  0
 56 69  2  0  0  0
 57 58  2  0  0  0
 57132  1  0  0  0
 58133  1  0  0  0
 59 60  1  0  0  0
 59 61  1  0  0  0
 59 62  1  0  0  0
 60134  1  0  0  0
 60135  1  0  0  0
 60136  1  0  0  0
 61137  1  0  0  0
 61138  1  0  0  0
 61139  1  0  0  0
 62140  1  0  0  0
 62141  1  0  0  0
 62142  1  0  0  0
 63 65  1  0  0  0
 63143  1  0  0  0
 63144  1  0  0  0
 63145  1  0  0  0
 64146  1  0  0  0
 65147  1  0  0  0
 68 83  1  0  0  0
 71 72  2  0  0  0
 71 73  1  0  0  0
 71148  1  0  0  0
 72 80  1  0  0  0
 72 85  1  0  0  0
 73 86  2  0  0  0
 73 87  1  0  0  0
 74 84  1  0  0  0
 74 85  2  0  0  0
 74 86  1  0  0  0
 75 79  1  0  0  0
 75149  1  0  0  0
 75150  1  0  0  0
 75 77  1  0  0  0
 76 78  1  0  0  0
 76 79  1  0  0  0
 76151  1  0  0  0
 76152  1  0  0  0
 77 78  1  0  0  0
 77 79  1  0  0  0
 77153  1  0  0  0
 78 82  1  0  0  0
 78154  1  0  0  0
 79 87  1  0  0  0
 80155  1  0  0  0
 80156  1  0  0  0
 80157  1  0  0  0
 81158  1  0  0  0
 81159  1  0  0  0
 81160  1  0  0  0
 81 84  1  0  0  0
 82 88  1  0  0  0
 82161  1  0  0  0
 82162  1  0  0  0
 83 84  1  0  0  0
 83163  1  0  0  0
 83164  1  0  0  0
 84165  1  0  0  0
 87166  1  0  0  0
 88167  1  0  0  0
M  ISO  4   1 100  68 101  83 101  88 100
M  END
> <chiral flag>
0

> <version>
0

> <s_m_source_file>
/data/baiqing/PycharmProjects/Reinvent-master-3.2/result/LINK_invent/BTK/process_docking_weight1_custom_sum_contain_oxygen_bond_distance_aromatic_linkinvent_7_9_3/rearranged_h_0171.sdf

> <i_m_source_file_index>
88

> <r_mmod_Potential_Energy-OPLS-2005>
14370.0595703125

> <r_mmod_Stretch_Energy-OPLS-2005>
7964.6142578125

> <r_mmod_Bend_Energy-OPLS-2005>
2071.91455078125

> <r_mmod_Torsional_Energy-OPLS-2005>
489.051513671875

> <r_mmod_Improper_Torsional_Energy-OPLS-2005>
31.8792514801025

> <r_mmod_Van_der_Waal_Energy-OPLS-2005>
2548.82104492188

> <r_mmod_Electrostatic_Energy-OPLS-2005>
-842.697937011719

> <r_mmod_Solvation_Energy-OPLS-2005>
-225.894790649414

> <b_mmod_Minimization_Converged-OPLS-2005>
0

> <r_mmod_RMS_Derivative-OPLS-2005>
52.5906791687012

$$$$
88
                    3D
 Structure written by MMmdl.
164173  0  0  1  0            999 V2000
  -28.0997  -17.0608   20.4533 C   0  0  0  0  0  0
  -29.6674  -14.4859   19.5689 C   0  0  0  0  0  0
  -29.3836  -13.2426   18.5602 C   0  0  0  0  0  0
  -28.2119  -12.3781   19.0152 C   0  0  0  0  0  0
  -27.3645  -13.3403   19.8328 C   0  0  2  0  0  0
  -28.0442  -14.1514   20.9582 C   0  0  0  0  0  0
  -25.0989  -13.8029   20.5638 C   0  0  0  0  0  0
  -24.0768  -13.0115   20.9480 C   0  0  0  0  0  0
  -24.5705  -11.6694   20.8948 C   0  0  0  0  0  0
  -23.8673  -10.4086   21.0554 C   0  0  0  0  0  0
  -24.3394   -9.4068   21.9278 C   0  0  0  0  0  0
  -23.6164   -8.2068   22.0772 C   0  0  0  0  0  0
  -22.4161   -8.0102   21.3539 C   0  0  0  0  0  0
  -21.9720   -9.0030   20.4647 C   0  0  0  0  0  0
  -22.6942  -10.1937   20.3111 C   0  0  0  0  0  0
  -21.6797   -6.0638   22.5296 C   0  0  0  0  0  0
  -21.3966   -6.5584   23.8214 C   0  0  0  0  0  0
  -21.3640   -5.6759   24.9191 C   0  0  0  0  0  0
  -21.6043   -4.3022   24.7259 C   0  0  0  0  0  0
  -21.8824   -3.8090   23.4392 C   0  0  0  0  0  0
  -21.9179   -4.6882   22.3435 C   0  0  0  0  0  0
  -22.6920  -13.4915   21.2154 C   0  0  0  0  0  0
  -22.1659   -4.2075   21.1012 F   0  0  0  0  0  0
  -21.5642   -3.4521   25.7782 F   0  0  0  0  0  0
  -28.4355  -15.4240   20.2512 N   0  0  0  0  0  0
  -26.1212  -12.9244   20.3030 N   0  0  0  0  0  0
  -25.8526  -11.6361   20.5670 N   0  0  0  0  0  0
  -21.9659  -12.7970   22.0779 N   0  0  0  0  0  0
  -25.2336  -15.1810   20.3749 N   0  0  0  0  0  0
  -29.4307  -17.0786   20.3795 O   0  0  0  0  0  0
  -21.6549   -6.8717   21.4234 O   0  0  0  0  0  0
  -22.2733  -14.5269   20.6980 O   0  0  0  0  0  0
  -24.7515  -32.0718   23.0672 C   0  0  0  0  0  0
  -26.0004  -32.5704   23.8334 C   0  0  1  0  0  0
  -26.5126  -27.3573   20.9790 C   0  0  0  0  0  0
  -25.6703  -33.9226   24.2637 N   0  0  0  0  0  0
  -23.7592  -30.6232   21.3309 C   0  0  2  0  0  0
  -25.1534  -29.2714   19.7296 C   0  0  0  0  0  0
  -23.8344  -29.3945   22.2099 C   0  0  0  0  0  0
  -18.3873  -26.9518   22.7161 C   0  0  0  0  0  0
  -24.1491  -36.7559   23.2588 C   0  0  0  0  0  0
  -26.1823  -31.0393   21.2360 C   0  0  0  0  0  0
  -26.2164  -29.6591   20.5698 C   0  0  0  0  0  0
  -27.0214  -28.6567   21.1169 C   0  0  0  0  0  0
  -25.9052  -26.9778   19.7651 C   0  0  0  0  0  0
  -25.0656  -27.9548   19.2119 C   0  0  0  0  0  0
  -23.9454  -30.1734   19.8408 C   0  0  0  0  0  0
  -25.4108  -36.3488   24.0354 C   0  0  1  0  0  0
  -22.4892  -27.0883   21.8109 C   0  0  2  0  0  0
  -22.6534  -25.1623   22.9231 C   0  0  0  0  0  0
  -20.5837  -24.2545   23.2414 C   0  0  0  0  0  0
  -18.8257  -25.2493   22.8169 C   0  0  0  0  0  0
  -19.4327  -27.8674   22.2564 C   0  0  0  0  0  0
  -18.9361  -29.2900   22.8014 C   0  0  0  0  0  0
  -17.7760  -29.8187   23.4245 C   0  0  0  0  0  0
  -25.9186  -34.9984   23.5142 C   0  0  0  0  0  0
  -16.7478  -28.9134   23.4801 C   0  0  0  0  0  0
  -17.0757  -27.5463   23.1384 C   0  0  0  0  0  0
  -26.4599  -31.6898   25.0620 C   0  0  0  0  0  0
  -25.3497  -31.3901   26.0949 C   0  0  0  0  0  0
  -27.0529  -30.3498   24.5781 C   0  0  0  0  0  0
  -27.6053  -32.4234   25.7972 C   0  0  0  0  0  0
  -27.5616  -37.2033   24.8471 C   0  0  0  0  0  0
  -23.5109  -28.2120   21.6295 N   0  0  0  0  0  0
  -26.4285  -37.4162   23.9489 N   0  0  0  0  0  0
  -24.8959  -31.3649   21.8921 N   0  0  0  0  0  0
  -23.8930  -29.5537   23.3970 O   0  0  0  0  0  0
  -26.0126  -26.6583   22.1203 O   0  0  0  0  0  0
  -26.5395  -34.9398   22.4489 O   0  0  0  0  0  0
  -23.6368  -32.2869   23.5829 O   0  0  0  0  0  0
  -21.3479  -29.0586   22.2685 C   0  0  0  0  0  0
  -20.7285  -26.7547   20.2920 C   0  0  0  0  0  0
  -20.9882  -28.4364   20.6395 C   0  0  0  0  0  0
  -21.4674  -27.9133   23.6068 C   0  0  0  0  0  0
  -21.0634  -25.4208   21.2784 C   0  0  0  0  0  0
  -25.5439  -21.6787   20.3267 C   0  0  0  0  0  0
  -26.7859  -20.2624   20.5179 C   0  0  0  0  0  0
  -24.9257  -19.7738   20.7995 C   0  0  0  0  0  0
  -23.8757  -21.9760   20.8868 C   0  0  2  0  0  0
  -20.6207  -29.4293   19.5527 C   0  0  0  0  0  0
  -22.8644  -26.6364   25.6178 C   0  0  0  0  0  0
  -24.9277  -27.0195   23.4800 C   0  0  0  0  0  0
  -23.1209  -27.4134   24.2808 C   0  0  1  0  0  0
  -20.8827  -26.4568   23.1046 N   0  0  0  0  0  0
  -26.7322  -18.5856   20.5516 N   0  0  0  0  0  0
  -22.2588  -23.6968   20.8321 N   0  0  0  0  0  0
  -30.2512  -15.1876   18.9721 H   0  0  0  0  0  0
  -30.3993  -14.1918   20.3258 H   0  0  0  0  0  0
  -30.2830  -12.6429   18.4116 H   0  0  0  0  0  0
  -29.1351  -13.6563   17.5817 H   0  0  0  0  0  0
  -28.5550  -11.5580   19.6476 H   0  0  0  0  0  0
  -27.6673  -11.9488   18.1733 H   0  0  0  0  0  0
  -27.0624  -14.0305   19.0380 H   0  0  0  0  0  0
  -28.8023  -13.5927   21.5149 H   0  0  0  0  0  0
  -27.3544  -14.4578   21.7451 H   0  0  0  0  0  0
  -25.2511   -9.5626   22.4874 H   0  0  0  0  0  0
  -23.9899   -7.4454   22.7471 H   0  0  0  0  0  0
  -21.0662   -8.8490   19.8953 H   0  0  0  0  0  0
  -22.3372  -10.9489   19.6250 H   0  0  0  0  0  0
  -21.1930   -7.6090   23.9693 H   0  0  0  0  0  0
  -21.1466   -6.0500   25.9090 H   0  0  0  0  0  0
  -22.0625   -2.7553   23.2917 H   0  0  0  0  0  0
  -22.3285  -11.9631   22.5158 H   0  0  0  0  0  0
  -21.0302  -13.1035   22.3047 H   0  0  0  0  0  0
  -24.3841  -15.7361   20.3700 H   0  0  0  0  0  0
  -25.9047  -15.5002   19.6911 H   0  0  0  0  0  0
  -26.8601  -32.6522   23.1729 H   0  0  0  0  0  0
  -25.1237  -34.0225   25.1059 H   0  0  0  0  0  0
  -22.8445  -31.2051   21.4273 H   0  0  0  0  0  0
  -23.3816  -35.9828   23.3234 H   0  0  0  0  0  0
  -24.3626  -36.9171   22.2012 H   0  0  0  0  0  0
  -23.7145  -37.6736   23.6555 H   0  0  0  0  0  0
  -26.3745  -31.7943   20.4734 H   0  0  0  0  0  0
  -27.0389  -31.0784   21.8992 H   0  0  0  0  0  0
  -27.5878  -28.9007   22.0035 H   0  0  0  0  0  0
  -25.6330  -25.9477   19.5822 H   0  0  0  0  0  0
  -24.2581  -27.6604   18.5548 H   0  0  0  0  0  0
  -24.0926  -31.0441   19.2007 H   0  0  0  0  0  0
  -23.0917  -29.6514   19.4319 H   0  0  0  0  0  0
  -25.1230  -36.2341   25.0833 H   0  0  0  0  0  0
  -22.9147  -26.7577   20.8447 H   0  0  0  0  0  0
  -23.1278  -25.0984   23.8809 H   0  0  0  0  0  0
  -23.4659  -24.5612   22.5215 H   0  0  0  0  0  0
  -20.5490  -24.0701   24.3152 H   0  0  0  0  0  0
  -20.5368  -23.2464   22.8257 H   0  0  0  0  0  0
  -18.4970  -24.8604   21.8539 H   0  0  0  0  0  0
  -18.0971  -24.8212   23.5045 H   0  0  0  0  0  0
  -19.4967  -30.1996   22.6921 H   0  0  0  0  0  0
  -17.6577  -30.8583   23.6995 H   0  0  0  0  0  0
  -15.7693  -29.1895   23.8498 H   0  0  0  0  0  0
  -16.2910  -26.8321   23.3449 H   0  0  0  0  0  0
  -24.5538  -30.7787   25.6712 H   0  0  0  0  0  0
  -24.8947  -32.3069   26.4701 H   0  0  0  0  0  0
  -25.7382  -30.8505   26.9592 H   0  0  0  0  0  0
  -26.3460  -29.7881   23.9766 H   0  0  0  0  0  0
  -27.3472  -29.7141   25.4138 H   0  0  0  0  0  0
  -27.9439  -30.5084   23.9702 H   0  0  0  0  0  0
  -27.2670  -33.3428   26.2760 H   0  0  0  0  0  0
  -28.4113  -32.6912   25.1130 H   0  0  0  0  0  0
  -28.0385  -31.8040   26.5835 H   0  0  0  0  0  0
  -28.2596  -38.0378   24.7655 H   0  0  0  0  0  0
  -28.1159  -36.2939   24.6099 H   0  0  0  0  0  0
  -27.2380  -37.1470   25.8883 H   0  0  0  0  0  0
  -23.8409  -28.2210   20.6738 H   0  0  0  0  0  0
  -26.0191  -38.3212   24.1652 H   0  0  0  0  0  0
  -21.4537  -30.1133   22.4761 H   0  0  0  0  0  0
  -20.6058  -26.5411   19.2388 H   0  0  0  0  0  0
  -25.4646  -21.8030   19.2438 H   0  0  0  0  0  0
  -26.0971  -22.5686   20.6298 H   0  0  0  0  0  0
  -27.3116  -20.4890   21.4477 H   0  0  0  0  0  0
  -27.5426  -20.4622   19.7568 H   0  0  0  0  0  0
  -24.3168  -19.2921   20.0311 H   0  0  0  0  0  0
  -24.5356  -19.3182   21.7114 H   0  0  0  0  0  0
  -23.2252  -21.6040   20.0940 H   0  0  0  0  0  0
  -20.9785  -30.4296   19.7932 H   0  0  0  0  0  0
  -19.5367  -29.4929   19.4460 H   0  0  0  0  0  0
  -21.0324  -29.1247   18.5913 H   0  0  0  0  0  0
  -22.4133  -27.2676   26.3874 H   0  0  0  0  0  0
  -23.7914  -26.2435   26.0356 H   0  0  0  0  0  0
  -22.1532  -25.8158   25.5220 H   0  0  0  0  0  0
  -25.1684  -26.1252   24.0536 H   0  0  0  0  0  0
  -25.5498  -27.7499   23.9934 H   0  0  0  0  0  0
  -23.3365  -28.2400   24.9533 H   0  0  0  0  0  0
  -21.9363  -23.5441   19.8818 H   0  0  0  0  0  0
  1 25  1  0  0  0
  1 30  2  0  0  0
  1 85  1  0  0  0
  2  3  1  0  0  0
  2 25  1  0  0  0
  2 87  1  0  0  0
  2 88  1  0  0  0
  3  4  1  0  0  0
  3 89  1  0  0  0
  3 90  1  0  0  0
  4  5  1  0  0  0
  4 91  1  0  0  0
  4 92  1  0  0  0
  5  6  1  0  0  0
  5 26  1  0  0  0
  5 93  1  0  0  0
  6 25  1  0  0  0
  6 94  1  0  0  0
  6 95  1  0  0  0
  7  8  2  0  0  0
  7 26  1  0  0  0
  7 29  1  0  0  0
  8  9  1  0  0  0
  8 22  1  0  0  0
  9 10  1  0  0  0
  9 27  2  0  0  0
 10 11  2  0  0  0
 10 15  1  0  0  0
 11 12  1  0  0  0
 11 96  1  0  0  0
 12 13  2  0  0  0
 12 97  1  0  0  0
 13 14  1  0  0  0
 13 31  1  0  0  0
 14 15  2  0  0  0
 14 98  1  0  0  0
 15 99  1  0  0  0
 16 17  2  0  0  0
 16 21  1  0  0  0
 16 31  1  0  0  0
 17 18  1  0  0  0
 17100  1  0  0  0
 18 19  2  0  0  0
 18101  1  0  0  0
 19 20  1  0  0  0
 19 24  1  0  0  0
 20 21  2  0  0  0
 20102  1  0  0  0
 21 23  1  0  0  0
 22 28  1  0  0  0
 22 32  2  0  0  0
 26 27  1  0  0  0
 28103  1  0  0  0
 28104  1  0  0  0
 29105  1  0  0  0
 29106  1  0  0  0
 33 34  1  0  0  0
 33 66  1  0  0  0
 33 70  2  0  0  0
 34 36  1  0  0  0
 34 59  1  0  0  0
 34107  1  0  0  0
 35 44  2  0  0  0
 35 45  1  0  0  0
 35 68  1  0  0  0
 36 56  1  0  0  0
 36108  1  0  0  0
 37 39  1  0  0  0
 37 47  1  0  0  0
 37 66  1  0  0  0
 37109  1  0  0  0
 38 43  2  0  0  0
 38 46  1  0  0  0
 38 47  1  0  0  0
 39 64  1  0  0  0
 39 67  2  0  0  0
 40 52  1  0  0  0
 40 53  2  0  0  0
 40 58  1  0  0  0
 41110  1  0  0  0
 41111  1  0  0  0
 41112  1  0  0  0
 41 48  1  0  0  0
 42 43  1  0  0  0
 42 66  1  0  0  0
 42113  1  0  0  0
 42114  1  0  0  0
 43 44  1  0  0  0
 44115  1  0  0  0
 45 46  2  0  0  0
 45116  1  0  0  0
 46117  1  0  0  0
 47118  1  0  0  0
 47119  1  0  0  0
 48 56  1  0  0  0
 48 65  1  0  0  0
 48120  1  0  0  0
 49 50  1  0  0  0
 49 53  1  0  0  0
 49 64  1  0  0  0
 49121  1  0  0  0
 50 51  1  0  0  0
 50122  1  0  0  0
 50123  1  0  0  0
 51 52  1  0  0  0
 51124  1  0  0  0
 51125  1  0  0  0
 52126  1  0  0  0
 52127  1  0  0  0
 53 54  1  0  0  0
 54 55  2  0  0  0
 54128  1  0  0  0
 55 57  1  0  0  0
 55129  1  0  0  0
 56 69  2  0  0  0
 57 58  2  0  0  0
 57130  1  0  0  0
 58131  1  0  0  0
 59 60  1  0  0  0
 59 61  1  0  0  0
 59 62  1  0  0  0
 60132  1  0  0  0
 60133  1  0  0  0
 60134  1  0  0  0
 61135  1  0  0  0
 61136  1  0  0  0
 61137  1  0  0  0
 62138  1  0  0  0
 62139  1  0  0  0
 62140  1  0  0  0
 63 65  1  0  0  0
 63141  1  0  0  0
 63142  1  0  0  0
 63143  1  0  0  0
 64144  1  0  0  0
 65145  1  0  0  0
 68 82  1  0  0  0
 71 73  2  0  0  0
 71 74  1  0  0  0
 71146  1  0  0  0
 72 73  1  0  0  0
 72 75  2  0  0  0
 72147  1  0  0  0
 73 80  1  0  0  0
 74 83  1  0  0  0
 74 84  2  0  0  0
 75 84  1  0  0  0
 75 86  1  0  0  0
 76 77  1  0  0  0
 76 79  1  0  0  0
 76148  1  0  0  0
 76149  1  0  0  0
 77 85  1  0  0  0
 77150  1  0  0  0
 77151  1  0  0  0
 78 79  1  0  0  0
 78 85  1  0  0  0
 78152  1  0  0  0
 78153  1  0  0  0
 79 86  1  0  0  0
 79154  1  0  0  0
 80155  1  0  0  0
 80156  1  0  0  0
 80157  1  0  0  0
 81158  1  0  0  0
 81159  1  0  0  0
 81160  1  0  0  0
 81 83  1  0  0  0
 82 83  1  0  0  0
 82161  1  0  0  0
 82162  1  0  0  0
 83163  1  0  0  0
 86164  1  0  0  0
M  ISO  4   1 100  68 101  82 101  85 100
M  END
> <chiral flag>
0

> <version>
0

> <s_m_source_file>
/data/baiqing/PycharmProjects/Reinvent-master-3.2/result/LINK_invent/BTK/process_docking_weight1_custom_sum_contain_oxygen_bond_distance_aromatic_linkinvent_7_9_3/rearranged_h_0171.sdf

> <i_m_source_file_index>
89

> <r_mmod_Potential_Energy-OPLS-2005>
31417.7265625

> <r_mmod_Stretch_Energy-OPLS-2005>
14272.4208984375

> <r_mmod_Bend_Energy-OPLS-2005>
2862.85205078125

> <r_mmod_Torsional_Energy-OPLS-2005>
783.194580078125

> <r_mmod_Improper_Torsional_Energy-OPLS-2005>
84.9905090332031

> <r_mmod_Van_der_Waal_Energy-OPLS-2005>
4108.99365234375

> <r_mmod_Electrostatic_Energy-OPLS-2005>
-457.588684082031

> <r_mmod_Solvation_Energy-OPLS-2005>
-247.942413330078

> <b_mmod_Minimization_Converged-OPLS-2005>
0

> <r_mmod_RMS_Derivative-OPLS-2005>
2.99944543838501

$$$$
89
                    3D
 Structure written by MMmdl.
171181  0  0  1  0            999 V2000
  -30.7062  -14.5728   20.5615 C   0  0  0  0  0  0
  -30.4235  -12.3680   19.4496 C   0  0  0  0  0  0
  -29.5012  -12.4821   18.2220 C   0  0  0  0  0  0
  -28.0324  -12.2670   18.6343 C   0  0  0  0  0  0
  -27.6371  -13.1702   19.8227 C   0  0  2  0  0  0
  -28.6804  -13.0818   20.9705 C   0  0  0  0  0  0
  -25.2552  -13.8065   20.5604 C   0  0  0  0  0  0
  -24.1807  -13.0358   20.9201 C   0  0  0  0  0  0
  -24.6357  -11.6823   20.8740 C   0  0  0  0  0  0
  -23.9077  -10.4203   21.0383 C   0  0  0  0  0  0
  -24.3662   -9.4127   21.9161 C   0  0  0  0  0  0
  -23.6349   -8.2158   22.0725 C   0  0  0  0  0  0
  -22.4318   -8.0209   21.3523 C   0  0  0  0  0  0
  -21.9935   -9.0178   20.4630 C   0  0  0  0  0  0
  -22.7256  -10.2043   20.3031 C   0  0  0  0  0  0
  -21.6818   -6.0717   22.5287 C   0  0  0  0  0  0
  -21.3986   -6.5643   23.8229 C   0  0  0  0  0  0
  -21.3658   -5.6810   24.9193 C   0  0  0  0  0  0
  -21.6093   -4.3097   24.7260 C   0  0  0  0  0  0
  -21.8824   -3.8151   23.4377 C   0  0  0  0  0  0
  -21.9168   -4.6952   22.3432 C   0  0  0  0  0  0
  -22.7857  -13.5127   21.1959 C   0  0  0  0  0  0
  -22.1655   -4.2140   21.0999 F   0  0  0  0  0  0
  -21.5614   -3.4568   25.7763 F   0  0  0  0  0  0
  -30.0045  -13.4020   20.4189 N   0  0  0  0  0  0
  -26.2871  -12.9155   20.3074 N   0  0  0  0  0  0
  -25.9232  -11.6359   20.5650 N   0  0  0  0  0  0
  -22.0635  -12.7996   22.0525 N   0  0  0  0  0  0
  -25.4235  -15.1789   20.3929 N   0  0  0  0  0  0
  -31.8744  -14.6517   20.1607 O   0  0  0  0  0  0
  -21.6634   -6.8850   21.4247 O   0  0  0  0  0  0
  -22.3462  -14.5450   20.6896 O   0  0  0  0  0  0
  -24.6109  -31.8660   23.2197 C   0  0  0  0  0  0
  -25.8956  -32.4839   23.8505 C   0  0  1  0  0  0
  -27.2616  -27.4532   20.1149 C   0  0  0  0  0  0
  -25.5815  -33.8640   24.2424 N   0  0  0  0  0  0
  -23.4087  -30.4840   21.5531 C   0  0  2  0  0  0
  -24.8684  -28.9525   20.1206 C   0  0  0  0  0  0
  -22.7421  -29.4597   22.4954 C   0  0  0  0  0  0
  -18.0289  -28.1413   22.8625 C   0  0  0  0  0  0
  -24.1472  -36.7348   23.2654 C   0  0  0  0  0  0
  -25.9307  -30.8384   21.3695 C   0  0  0  0  0  0
  -26.0181  -29.4699   20.7299 C   0  0  0  0  0  0
  -27.2168  -28.7199   20.7353 C   0  0  0  0  0  0
  -26.1058  -26.9543   19.4827 C   0  0  0  0  0  0
  -24.9035  -27.6924   19.4969 C   0  0  0  0  0  0
  -23.6263  -29.8145   20.1674 C   0  0  0  0  0  0
  -25.4079  -36.3137   24.0378 C   0  0  1  0  0  0
  -20.5857  -28.3758   23.1472 C   0  0  2  0  0  0
  -20.6733  -26.9416   22.5731 C   0  0  0  0  0  0
  -19.5865  -26.6509   21.5393 C   0  0  0  0  0  0
  -18.2033  -26.7936   22.1790 C   0  0  0  0  0  0
  -19.1521  -28.8928   23.3011 C   0  0  0  0  0  0
  -18.9433  -30.1608   23.8839 C   0  0  0  0  0  0
  -17.6406  -30.6714   24.0457 C   0  0  0  0  0  0
  -25.8988  -34.9493   23.5224 C   0  0  0  0  0  0
  -16.5323  -29.9121   23.6359 C   0  0  0  0  0  0
  -16.7285  -28.6515   23.0485 C   0  0  0  0  0  0
  -26.4418  -31.6592   25.0805 C   0  0  0  0  0  0
  -25.3737  -31.3624   26.1605 C   0  0  0  0  0  0
  -27.0244  -30.3068   24.6102 C   0  0  0  0  0  0
  -27.6051  -32.4236   25.7513 C   0  0  0  0  0  0
  -27.5578  -37.1838   24.8466 C   0  0  0  0  0  0
  -21.4139  -29.3055   22.3764 N   0  0  0  0  0  0
  -26.4292  -37.3800   23.9406 N   0  0  0  0  0  0
  -24.6676  -31.0761   22.1093 N   0  0  0  0  0  0
  -23.4178  -28.8076   23.2971 O   0  0  0  0  0  0
  -28.4048  -26.6832   20.1104 O   0  0  0  0  0  0
  -26.5557  -34.8919   22.4789 O   0  0  0  0  0  0
  -23.5288  -32.1343   23.7607 O   0  0  0  0  0  0
  -29.2668  -23.1189   23.2430 C   0  0  0  0  0  0
  -29.3558  -21.7114   23.4502 C   0  0  0  0  0  0
  -28.7022  -23.3674   22.0207 C   0  0  0  0  0  0
  -28.8777  -21.1092   22.3087 C   0  0  0  0  0  0
  -27.6950  -25.7466   22.3806 C   0  0  0  0  0  0
  -28.9144  -16.2433   20.4138 C   0  0  0  0  0  0
  -30.9420  -16.7143   21.7368 C   0  0  0  0  0  0
  -28.3720  -17.6491   20.7819 C   0  0  0  0  0  0
  -30.1973  -17.9241   22.3792 C   0  0  0  0  0  0
  -28.1293  -24.6467   21.4292 C   0  0  1  0  0  0
  -28.7717  -26.0278   21.3449 C   0  0  2  0  0  0
  -26.6720  -21.9625   19.7671 C   0  0  0  0  0  0
  -29.7721  -21.0399   24.7454 C   0  0  0  0  0  0
  -28.4087  -19.6757   22.0935 C   0  0  0  0  0  0
  -28.1934  -21.9478   19.9887 C   0  0  0  0  0  0
  -28.6001  -22.1285   21.3825 N   0  0  0  0  0  0
  -30.0959  -15.6845   21.0972 N   0  0  0  0  0  0
  -29.2752  -18.6237   21.4480 N   0  3  0  0  0  0
  -30.2264  -21.9442   25.6191 F   0  0  0  0  0  0
  -31.4692  -12.4600   19.1467 H   0  0  0  0  0  0
  -30.3387  -11.3794   19.9015 H   0  0  0  0  0  0
  -29.7861  -11.7488   17.4705 H   0  0  0  0  0  0
  -29.6302  -13.4609   17.7627 H   0  0  0  0  0  0
  -27.9175  -11.2190   18.9165 H   0  0  0  0  0  0
  -27.3665  -12.4321   17.7843 H   0  0  0  0  0  0
  -27.6273  -14.1533   19.3629 H   0  0  0  0  0  0
  -28.6872  -12.0793   21.4010 H   0  0  0  0  0  0
  -28.4185  -13.7355   21.8022 H   0  0  0  0  0  0
  -25.2802   -9.5572   22.4747 H   0  0  0  0  0  0
  -24.0053   -7.4524   22.7430 H   0  0  0  0  0  0
  -21.0856   -8.8741   19.8919 H   0  0  0  0  0  0
  -22.3780  -10.9612   19.6164 H   0  0  0  0  0  0
  -21.1997   -7.6156   23.9736 H   0  0  0  0  0  0
  -21.1476   -6.0540   25.9111 H   0  0  0  0  0  0
  -22.0606   -2.7606   23.2909 H   0  0  0  0  0  0
  -22.4415  -11.9581   22.4642 H   0  0  0  0  0  0
  -21.1289  -13.0878   22.3015 H   0  0  0  0  0  0
  -24.6360  -15.8164   20.4512 H   0  0  0  0  0  0
  -26.2353  -15.5850   19.9484 H   0  0  0  0  0  0
  -26.7048  -32.5606   23.1290 H   0  0  0  0  0  0
  -24.9851  -33.9775   25.0485 H   0  0  0  0  0  0
  -22.6934  -31.2971   21.4168 H   0  0  0  0  0  0
  -23.3719  -35.9701   23.3302 H   0  0  0  0  0  0
  -24.3534  -36.8934   22.2064 H   0  0  0  0  0  0
  -23.7236  -37.6585   23.6618 H   0  0  0  0  0  0
  -26.0253  -31.5920   20.5882 H   0  0  0  0  0  0
  -26.8224  -30.9140   21.9787 H   0  0  0  0  0  0
  -28.1017  -29.1174   21.2113 H   0  0  0  0  0  0
  -26.1360  -25.9813   19.0062 H   0  0  0  0  0  0
  -24.0211  -27.2917   19.0208 H   0  0  0  0  0  0
  -23.7454  -30.5973   19.4204 H   0  0  0  0  0  0
  -22.7519  -29.2358   19.8584 H   0  0  0  0  0  0
  -25.1248  -36.2056   25.0876 H   0  0  0  0  0  0
  -20.9903  -28.3470   24.1630 H   0  0  0  0  0  0
  -20.5323  -26.2423   23.3986 H   0  0  0  0  0  0
  -21.6682  -26.7292   22.1777 H   0  0  0  0  0  0
  -19.7093  -25.6504   21.1239 H   0  0  0  0  0  0
  -19.6839  -27.3426   20.7004 H   0  0  0  0  0  0
  -17.4267  -26.6527   21.4283 H   0  0  0  0  0  0
  -18.0573  -26.0103   22.9258 H   0  0  0  0  0  0
  -19.7897  -30.7552   24.2068 H   0  0  0  0  0  0
  -17.4928  -31.6485   24.4896 H   0  0  0  0  0  0
  -15.5337  -30.3053   23.7614 H   0  0  0  0  0  0
  -15.8663  -28.0826   22.7271 H   0  0  0  0  0  0
  -24.5935  -30.6895   25.8021 H   0  0  0  0  0  0
  -24.8869  -32.2718   26.5169 H   0  0  0  0  0  0
  -25.8160  -30.8806   27.0346 H   0  0  0  0  0  0
  -26.2799  -29.6864   24.1128 H   0  0  0  0  0  0
  -27.4019  -29.7242   25.4531 H   0  0  0  0  0  0
  -27.8616  -30.4406   23.9236 H   0  0  0  0  0  0
  -27.2747  -33.3526   26.2168 H   0  0  0  0  0  0
  -28.3825  -32.6780   25.0285 H   0  0  0  0  0  0
  -28.0778  -31.8293   26.5355 H   0  0  0  0  0  0
  -28.2654  -38.0092   24.7497 H   0  0  0  0  0  0
  -28.1015  -36.2639   24.6295 H   0  0  0  0  0  0
  -27.2294  -37.1512   25.8873 H   0  0  0  0  0  0
  -20.9296  -29.8818   21.7000 H   0  0  0  0  0  0
  -26.0219  -38.2907   24.1350 H   0  0  0  0  0  0
  -29.4895  -23.8814   23.9796 H   0  0  0  0  0  0
  -28.0227  -25.6720   23.4145 H   0  0  0  0  0  0
  -26.6888  -26.1444   22.2566 H   0  0  0  0  0  0
  -29.0514  -16.1774   19.3333 H   0  0  0  0  0  0
  -28.0825  -15.6060   20.6722 H   0  0  0  0  0  0
  -31.5555  -16.2336   22.5015 H   0  0  0  0  0  0
  -31.6435  -17.0924   20.9898 H   0  0  0  0  0  0
  -27.5353  -17.4741   21.4605 H   0  0  0  0  0  0
  -27.9194  -18.1067   19.8988 H   0  0  0  0  0  0
  -30.9375  -18.6397   22.7382 H   0  0  0  0  0  0
  -29.6460  -17.5812   23.2582 H   0  0  0  0  0  0
  -27.4398  -24.4352   20.6212 H   0  0  0  0  0  0
  -29.8107  -26.1593   21.6447 H   0  0  0  0  0  0
  -26.1633  -22.7284   20.3451 H   0  0  0  0  0  0
  -26.2173  -21.0061   20.0254 H   0  0  0  0  0  0
  -26.4462  -22.1582   18.7173 H   0  0  0  0  0  0
  -30.5653  -20.3103   24.5856 H   0  0  0  0  0  0
  -28.9243  -20.5299   25.2085 H   0  0  0  0  0  0
  -27.5106  -19.7649   21.4888 H   0  0  0  0  0  0
  -28.0257  -19.2828   23.0367 H   0  0  0  0  0  0
  -28.6662  -22.7392   19.4028 H   0  0  0  0  0  0
  -28.6154  -21.0185   19.6026 H   0  0  0  0  0  0
  -29.8323  -19.0739   20.7352 H   0  0  0  0  0  0
  1 25  1  0  0  0
  1 30  2  0  0  0
  1 87  1  0  0  0
  2  3  1  0  0  0
  2 25  1  0  0  0
  2 90  1  0  0  0
  2 91  1  0  0  0
  3  4  1  0  0  0
  3 92  1  0  0  0
  3 93  1  0  0  0
  4  5  1  0  0  0
  4 94  1  0  0  0
  4 95  1  0  0  0
  5  6  1  0  0  0
  5 26  1  0  0  0
  5 96  1  0  0  0
  6 25  1  0  0  0
  6 97  1  0  0  0
  6 98  1  0  0  0
  7  8  2  0  0  0
  7 26  1  0  0  0
  7 29  1  0  0  0
  8  9  1  0  0  0
  8 22  1  0  0  0
  9 10  1  0  0  0
  9 27  2  0  0  0
 10 11  2  0  0  0
 10 15  1  0  0  0
 11 12  1  0  0  0
 11 99  1  0  0  0
 12 13  2  0  0  0
 12100  1  0  0  0
 13 14  1  0  0  0
 13 31  1  0  0  0
 14 15  2  0  0  0
 14101  1  0  0  0
 15102  1  0  0  0
 16 17  2  0  0  0
 16 21  1  0  0  0
 16 31  1  0  0  0
 17 18  1  0  0  0
 17103  1  0  0  0
 18 19  2  0  0  0
 18104  1  0  0  0
 19 20  1  0  0  0
 19 24  1  0  0  0
 20 21  2  0  0  0
 20105  1  0  0  0
 21 23  1  0  0  0
 22 28  1  0  0  0
 22 32  2  0  0  0
 26 27  1  0  0  0
 28106  1  0  0  0
 28107  1  0  0  0
 29108  1  0  0  0
 29109  1  0  0  0
 33 34  1  0  0  0
 33 66  1  0  0  0
 33 70  2  0  0  0
 34 36  1  0  0  0
 34 59  1  0  0  0
 34110  1  0  0  0
 35 44  2  0  0  0
 35 45  1  0  0  0
 35 68  1  0  0  0
 36 56  1  0  0  0
 36111  1  0  0  0
 37 39  1  0  0  0
 37 47  1  0  0  0
 37 66  1  0  0  0
 37112  1  0  0  0
 38 43  2  0  0  0
 38 46  1  0  0  0
 38 47  1  0  0  0
 39 64  1  0  0  0
 39 67  2  0  0  0
 40 52  1  0  0  0
 40 53  2  0  0  0
 40 58  1  0  0  0
 41113  1  0  0  0
 41114  1  0  0  0
 41115  1  0  0  0
 41 48  1  0  0  0
 42 43  1  0  0  0
 42 66  1  0  0  0
 42116  1  0  0  0
 42117  1  0  0  0
 43 44  1  0  0  0
 44118  1  0  0  0
 45 46  2  0  0  0
 45119  1  0  0  0
 46120  1  0  0  0
 47121  1  0  0  0
 47122  1  0  0  0
 48 56  1  0  0  0
 48 65  1  0  0  0
 48123  1  0  0  0
 49 50  1  0  0  0
 49 53  1  0  0  0
 49 64  1  0  0  0
 49124  1  0  0  0
 50 51  1  0  0  0
 50125  1  0  0  0
 50126  1  0  0  0
 51 52  1  0  0  0
 51127  1  0  0  0
 51128  1  0  0  0
 52129  1  0  0  0
 52130  1  0  0  0
 53 54  1  0  0  0
 54 55  2  0  0  0
 54131  1  0  0  0
 55 57  1  0  0  0
 55132  1  0  0  0
 56 69  2  0  0  0
 57 58  2  0  0  0
 57133  1  0  0  0
 58134  1  0  0  0
 59 60  1  0  0  0
 59 61  1  0  0  0
 59 62  1  0  0  0
 60135  1  0  0  0
 60136  1  0  0  0
 60137  1  0  0  0
 61138  1  0  0  0
 61139  1  0  0  0
 61140  1  0  0  0
 62141  1  0  0  0
 62142  1  0  0  0
 62143  1  0  0  0
 63 65  1  0  0  0
 63144  1  0  0  0
 63145  1  0  0  0
 63146  1  0  0  0
 64147  1  0  0  0
 65148  1  0  0  0
 68 81  1  0  0  0
 71 72  1  0  0  0
 71 73  2  0  0  0
 71149  1  0  0  0
 72 74  2  0  0  0
 72 83  1  0  0  0
 73 86  1  0  0  0
 73 80  1  0  0  0
 74 84  1  0  0  0
 74 86  1  0  0  0
 75 80  1  0  0  0
 75 81  1  0  0  0
 75150  1  0  0  0
 75151  1  0  0  0
 76 78  1  0  0  0
 76 87  1  0  0  0
 76152  1  0  0  0
 76153  1  0  0  0
 77 79  1  0  0  0
 77 87  1  0  0  0
 77154  1  0  0  0
 77155  1  0  0  0
 78 88  1  0  0  0
 78156  1  0  0  0
 78157  1  0  0  0
 79 88  1  0  0  0
 79158  1  0  0  0
 79159  1  0  0  0
 80 81  1  0  0  0
 80160  1  0  0  0
 81161  1  0  0  0
 82 85  1  0  0  0
 82162  1  0  0  0
 82163  1  0  0  0
 82164  1  0  0  0
 83 89  1  0  0  0
 83165  1  0  0  0
 83166  1  0  0  0
 84167  1  0  0  0
 84168  1  0  0  0
 84 88  1  0  0  0
 85 86  1  0  0  0
 85169  1  0  0  0
 85170  1  0  0  0
 88171  1  0  0  0
M  CHG  1  88   1
M  ISO  4   1 100  68 101  81 101  87 100
M  END
> <chiral flag>
0

> <version>
0

> <s_m_source_file>
/data/baiqing/PycharmProjects/Reinvent-master-3.2/result/LINK_invent/BTK/process_docking_weight1_custom_sum_contain_oxygen_bond_distance_aromatic_linkinvent_7_9_3/rearranged_h_0171.sdf

> <i_m_source_file_index>
90

> <r_mmod_Potential_Energy-OPLS-2005>
168.674346923828

> <r_mmod_Stretch_Energy-OPLS-2005>
48.5733642578125

> <r_mmod_Bend_Energy-OPLS-2005>
165.597763061523

> <r_mmod_Torsional_Energy-OPLS-2005>
451.143585205078

> <r_mmod_Improper_Torsional_Energy-OPLS-2005>
8.06311130523682

> <r_mmod_Van_der_Waal_Energy-OPLS-2005>
140.460266113281

> <r_mmod_Electrostatic_Energy-OPLS-2005>
-213.022384643555

> <r_mmod_Solvation_Energy-OPLS-2005>
-459.096405029297

> <b_mmod_Minimization_Converged-OPLS-2005>
0

> <r_mmod_RMS_Derivative-OPLS-2005>
7.0972466468811

$$$$
90
                    3D
 Structure written by MMmdl.
167178  0  0  1  0            999 V2000
  -30.6477  -14.7642   20.4685 C   0  0  0  0  0  0
  -30.4149  -12.4738   19.4859 C   0  0  0  0  0  0
  -29.5017  -12.5129   18.2429 C   0  0  0  0  0  0
  -28.0332  -12.3225   18.6596 C   0  0  0  0  0  0
  -27.6336  -13.2367   19.8477 C   0  0  2  0  0  0
  -28.6766  -13.2138   20.9873 C   0  0  0  0  0  0
  -25.2475  -13.8185   20.5686 C   0  0  0  0  0  0
  -24.1777  -13.0432   20.9209 C   0  0  0  0  0  0
  -24.6387  -11.6918   20.8758 C   0  0  0  0  0  0
  -23.9057  -10.4293   21.0414 C   0  0  0  0  0  0
  -24.3603   -9.4211   21.9198 C   0  0  0  0  0  0
  -23.6287   -8.2246   22.0762 C   0  0  0  0  0  0
  -22.4277   -8.0270   21.3541 C   0  0  0  0  0  0
  -21.9906   -9.0241   20.4636 C   0  0  0  0  0  0
  -22.7229  -10.2131   20.3057 C   0  0  0  0  0  0
  -21.6858   -6.0723   22.5262 C   0  0  0  0  0  0
  -21.4008   -6.5631   23.8189 C   0  0  0  0  0  0
  -21.3668   -5.6790   24.9153 C   0  0  0  0  0  0
  -21.6056   -4.3051   24.7212 C   0  0  0  0  0  0
  -21.8824   -3.8138   23.4334 C   0  0  0  0  0  0
  -21.9192   -4.6950   22.3390 C   0  0  0  0  0  0
  -22.7802  -13.5217   21.1868 C   0  0  0  0  0  0
  -22.1662   -4.2137   21.0970 F   0  0  0  0  0  0
  -21.5633   -3.4539   25.7729 F   0  0  0  0  0  0
  -29.9740  -13.5593   20.4018 N   0  0  0  0  0  0
  -26.2903  -12.9419   20.3292 N   0  0  0  0  0  0
  -25.9313  -11.6553   20.5762 N   0  0  0  0  0  0
  -22.0449  -12.8190   22.0408 N   0  0  0  0  0  0
  -25.4112  -15.1899   20.4031 N   0  0  0  0  0  0
  -31.8344  -14.7894   20.1326 O   0  0  0  0  0  0
  -21.6649   -6.8865   21.4225 O   0  0  0  0  0  0
  -22.3492  -14.5524   20.6711 O   0  0  0  0  0  0
  -24.6363  -31.8536   23.1941 C   0  0  0  0  0  0
  -25.9178  -32.4744   23.8305 C   0  0  1  0  0  0
  -27.1994  -27.2201   20.1388 C   0  0  0  0  0  0
  -25.5956  -33.8543   24.2229 N   0  0  0  0  0  0
  -23.4318  -30.4792   21.5387 C   0  0  2  0  0  0
  -24.8737  -28.9216   20.1067 C   0  0  0  0  0  0
  -22.7517  -29.4611   22.4874 C   0  0  0  0  0  0
  -18.0294  -28.1394   22.8487 C   0  0  0  0  0  0
  -24.1476  -36.7265   23.2637 C   0  0  0  0  0  0
  -25.9813  -30.7551   21.3750 C   0  0  0  0  0  0
  -26.0507  -29.3751   20.7161 C   0  0  0  0  0  0
  -27.2195  -28.5413   20.7137 C   0  0  0  0  0  0
  -25.9973  -26.8437   19.5018 C   0  0  0  0  0  0
  -24.8555  -27.6663   19.4840 C   0  0  0  0  0  0
  -23.6494  -29.8154   20.1545 C   0  0  0  0  0  0
  -25.4108  -36.3053   24.0320 C   0  0  1  0  0  0
  -20.5900  -28.3706   23.1240 C   0  0  2  0  0  0
  -20.6779  -26.9419   22.5380 C   0  0  0  0  0  0
  -19.5749  -26.6386   21.5192 C   0  0  0  0  0  0
  -18.1931  -26.7937   22.1617 C   0  0  0  0  0  0
  -19.1551  -28.8869   23.2860 C   0  0  0  0  0  0
  -18.9481  -30.1466   23.8889 C   0  0  0  0  0  0
  -17.6485  -30.6598   24.0565 C   0  0  0  0  0  0
  -25.9065  -34.9436   23.5078 C   0  0  0  0  0  0
  -16.5373  -29.9092   23.6344 C   0  0  0  0  0  0
  -16.7281  -28.6505   23.0375 C   0  0  0  0  0  0
  -26.4531  -31.6591   25.0718 C   0  0  0  0  0  0
  -25.3737  -31.3728   26.1424 C   0  0  0  0  0  0
  -27.0420  -30.3023   24.6226 C   0  0  0  0  0  0
  -27.6057  -32.4366   25.7513 C   0  0  0  0  0  0
  -27.5564  -37.1788   24.8476 C   0  0  0  0  0  0
  -21.4216  -29.3075   22.3647 N   0  0  0  0  0  0
  -26.4271  -37.3768   23.9428 N   0  0  0  0  0  0
  -24.7035  -31.0473   22.0924 N   0  0  0  0  0  0
  -23.4208  -28.8135   23.2969 O   0  0  0  0  0  0
  -28.2704  -26.2870   20.2039 O   0  0  0  0  0  0
  -26.5632  -34.8919   22.4645 O   0  0  0  0  0  0
  -23.5516  -32.1375   23.7236 O   0  0  0  0  0  0
  -28.7869  -21.9414   19.4084 C   0  0  0  0  0  0
  -28.5666  -21.4722   18.0644 C   0  0  0  0  0  0
  -29.0338  -20.8329   20.3496 C   0  0  0  0  0  0
  -28.9884  -19.4208   19.9448 C   0  0  0  0  0  0
  -28.3679  -20.0913   17.8106 C   0  0  0  0  0  0
  -29.4794  -22.0702   15.6526 C   0  0  0  0  0  0
  -29.7693  -23.2611   16.5178 C   0  0  0  0  0  0
  -28.0204  -24.4191   18.7742 C   0  0  0  0  0  0
  -28.7722  -16.6391   20.3920 C   0  0  0  0  0  0
  -30.7085  -17.3128   20.7220 C   0  0  0  0  0  0
  -28.9149  -23.5547   19.6564 C   0  0  1  0  0  0
  -28.5836  -22.3700   16.8428 C   0  0  0  0  0  0
  -29.3476  -18.0687   20.7457 C   0  0  0  0  0  0
  -27.9744  -24.7889   20.1987 C   0  0  1  0  0  0
  -29.4024  -21.1504   21.7877 C   0  0  0  0  0  0
  -27.8572  -19.5607   16.4774 C   0  0  0  0  0  0
  -28.6108  -19.1205   18.6977 N   0  0  0  0  0  0
  -30.0349  -15.9736   20.8250 N   0  0  0  0  0  0
  -31.4577  -12.5733   19.1830 H   0  0  0  0  0  0
  -30.3462  -11.5042   19.9813 H   0  0  0  0  0  0
  -29.7905  -11.7379   17.5334 H   0  0  0  0  0  0
  -29.6178  -13.4647   17.7235 H   0  0  0  0  0  0
  -27.9041  -11.2751   18.9360 H   0  0  0  0  0  0
  -27.3735  -12.4963   17.8090 H   0  0  0  0  0  0
  -27.6142  -14.2477   19.4435 H   0  0  0  0  0  0
  -28.7225  -12.2318   21.4592 H   0  0  0  0  0  0
  -28.4054  -13.9227   21.7716 H   0  0  0  0  0  0
  -25.2738   -9.5692   22.4784 H   0  0  0  0  0  0
  -23.9985   -7.4643   22.7495 H   0  0  0  0  0  0
  -21.0837   -8.8743   19.8942 H   0  0  0  0  0  0
  -22.3671  -10.9663   19.6162 H   0  0  0  0  0  0
  -21.1990   -7.6138   23.9679 H   0  0  0  0  0  0
  -21.1492   -6.0526   25.9057 H   0  0  0  0  0  0
  -22.0597   -2.7599   23.2834 H   0  0  0  0  0  0
  -22.4059  -11.9831   22.4748 H   0  0  0  0  0  0
  -21.1076  -13.1216   22.2633 H   0  0  0  0  0  0
  -24.6374  -15.8382   20.4970 H   0  0  0  0  0  0
  -26.2444  -15.6196   20.0259 H   0  0  0  0  0  0
  -26.7246  -32.5378   23.1045 H   0  0  0  0  0  0
  -25.0173  -33.9684   25.0425 H   0  0  0  0  0  0
  -22.7305  -31.3040   21.3922 H   0  0  0  0  0  0
  -23.3752  -35.9584   23.3296 H   0  0  0  0  0  0
  -24.3545  -36.8893   22.2046 H   0  0  0  0  0  0
  -23.7214  -37.6450   23.6684 H   0  0  0  0  0  0
  -26.1221  -31.5093   20.6003 H   0  0  0  0  0  0
  -26.8610  -30.8043   22.0059 H   0  0  0  0  0  0
  -28.1215  -28.8843   21.2030 H   0  0  0  0  0  0
  -25.9023  -25.8823   19.0220 H   0  0  0  0  0  0
  -23.9569  -27.3143   18.9959 H   0  0  0  0  0  0
  -23.7781  -30.5945   19.4013 H   0  0  0  0  0  0
  -22.7639  -29.2557   19.8450 H   0  0  0  0  0  0
  -25.1279  -36.1882   25.0812 H   0  0  0  0  0  0
  -21.0018  -28.3285   24.1344 H   0  0  0  0  0  0
  -20.5652  -26.2327   23.3594 H   0  0  0  0  0  0
  -21.6647  -26.7421   22.1172 H   0  0  0  0  0  0
  -19.6905  -25.6286   21.1231 H   0  0  0  0  0  0
  -19.6680  -27.3193   20.6718 H   0  0  0  0  0  0
  -17.4190  -26.6701   21.4022 H   0  0  0  0  0  0
  -18.0333  -26.0057   22.8997 H   0  0  0  0  0  0
  -19.7965  -30.7283   24.2243 H   0  0  0  0  0  0
  -17.5047  -31.6277   24.5176 H   0  0  0  0  0  0
  -15.5380  -30.3014   23.7664 H   0  0  0  0  0  0
  -15.8674  -28.0824   22.7116 H   0  0  0  0  0  0
  -24.5941  -30.7050   25.7736 H   0  0  0  0  0  0
  -24.8905  -32.2887   26.4841 H   0  0  0  0  0  0
  -25.8041  -30.8914   27.0213 H   0  0  0  0  0  0
  -26.3031  -29.6738   24.1256 H   0  0  0  0  0  0
  -27.4116  -29.7316   25.4747 H   0  0  0  0  0  0
  -27.8877  -30.4315   23.9476 H   0  0  0  0  0  0
  -27.2658  -33.3702   26.2017 H   0  0  0  0  0  0
  -28.3923  -32.6881   25.0384 H   0  0  0  0  0  0
  -28.0684  -31.8547   26.5499 H   0  0  0  0  0  0
  -28.2572  -38.0089   24.7535 H   0  0  0  0  0  0
  -28.1061  -36.2625   24.6295 H   0  0  0  0  0  0
  -27.2277  -37.1412   25.8872 H   0  0  0  0  0  0
  -20.9402  -29.8862   21.6900 H   0  0  0  0  0  0
  -26.0133  -38.2825   24.1463 H   0  0  0  0  0  0
  -30.1796  -21.2413   15.7187 H   0  0  0  0  0  0
  -29.0837  -22.2691   14.6585 H   0  0  0  0  0  0
  -29.5653  -24.2410   16.0888 H   0  0  0  0  0  0
  -30.6469  -23.2036   17.1590 H   0  0  0  0  0  0
  -27.0907  -23.9979   18.3999 H   0  0  0  0  0  0
  -28.5102  -25.1149   18.0956 H   0  0  0  0  0  0
  -28.5701  -16.5019   19.3287 H   0  0  0  0  0  0
  -27.8956  -16.3817   20.9859 H   0  0  0  0  0  0
  -31.3485  -17.5713   21.5675 H   0  0  0  0  0  0
  -31.2436  -17.4567   19.7820 H   0  0  0  0  0  0
  -29.9781  -23.7845   19.6703 H   0  0  0  0  0  0
  -27.5803  -22.7152   16.5978 H   0  0  0  0  0  0
  -29.0962  -18.2657   21.7889 H   0  0  0  0  0  0
  -27.1002  -24.5242   20.7910 H   0  0  0  0  0  0
  -29.2667  -22.2065   22.0201 H   0  0  0  0  0  0
  -30.4447  -20.8924   21.9780 H   0  0  0  0  0  0
  -28.7804  -20.5796   22.4785 H   0  0  0  0  0  0
  -27.1859  -20.2693   15.9933 H   0  0  0  0  0  0
  -27.2886  -18.6395   16.6186 H   0  0  0  0  0  0
  -28.6795  -19.3402   15.7980 H   0  0  0  0  0  0
  1 25  1  0  0  0
  1 30  2  0  0  0
  1 88  1  0  0  0
  2  3  1  0  0  0
  2 25  1  0  0  0
  2 89  1  0  0  0
  2 90  1  0  0  0
  3  4  1  0  0  0
  3 91  1  0  0  0
  3 92  1  0  0  0
  4  5  1  0  0  0
  4 93  1  0  0  0
  4 94  1  0  0  0
  5  6  1  0  0  0
  5 26  1  0  0  0
  5 95  1  0  0  0
  6 25  1  0  0  0
  6 96  1  0  0  0
  6 97  1  0  0  0
  7  8  2  0  0  0
  7 26  1  0  0  0
  7 29  1  0  0  0
  8  9  1  0  0  0
  8 22  1  0  0  0
  9 10  1  0  0  0
  9 27  2  0  0  0
 10 11  2  0  0  0
 10 15  1  0  0  0
 11 12  1  0  0  0
 11 98  1  0  0  0
 12 13  2  0  0  0
 12 99  1  0  0  0
 13 14  1  0  0  0
 13 31  1  0  0  0
 14 15  2  0  0  0
 14100  1  0  0  0
 15101  1  0  0  0
 16 17  2  0  0  0
 16 21  1  0  0  0
 16 31  1  0  0  0
 17 18  1  0  0  0
 17102  1  0  0  0
 18 19  2  0  0  0
 18103  1  0  0  0
 19 20  1  0  0  0
 19 24  1  0  0  0
 20 21  2  0  0  0
 20104  1  0  0  0
 21 23  1  0  0  0
 22 28  1  0  0  0
 22 32  2  0  0  0
 26 27  1  0  0  0
 28105  1  0  0  0
 28106  1  0  0  0
 29107  1  0  0  0
 29108  1  0  0  0
 33 34  1  0  0  0
 33 66  1  0  0  0
 33 70  2  0  0  0
 34 36  1  0  0  0
 34 59  1  0  0  0
 34109  1  0  0  0
 35 44  2  0  0  0
 35 45  1  0  0  0
 35 68  1  0  0  0
 36 56  1  0  0  0
 36110  1  0  0  0
 37 39  1  0  0  0
 37 47  1  0  0  0
 37 66  1  0  0  0
 37111  1  0  0  0
 38 43  2  0  0  0
 38 46  1  0  0  0
 38 47  1  0  0  0
 39 64  1  0  0  0
 39 67  2  0  0  0
 40 52  1  0  0  0
 40 53  2  0  0  0
 40 58  1  0  0  0
 41112  1  0  0  0
 41113  1  0  0  0
 41114  1  0  0  0
 41 48  1  0  0  0
 42 43  1  0  0  0
 42 66  1  0  0  0
 42115  1  0  0  0
 42116  1  0  0  0
 43 44  1  0  0  0
 44117  1  0  0  0
 45 46  2  0  0  0
 45118  1  0  0  0
 46119  1  0  0  0
 47120  1  0  0  0
 47121  1  0  0  0
 48 56  1  0  0  0
 48 65  1  0  0  0
 48122  1  0  0  0
 49 50  1  0  0  0
 49 53  1  0  0  0
 49 64  1  0  0  0
 49123  1  0  0  0
 50 51  1  0  0  0
 50124  1  0  0  0
 50125  1  0  0  0
 51 52  1  0  0  0
 51126  1  0  0  0
 51127  1  0  0  0
 52128  1  0  0  0
 52129  1  0  0  0
 53 54  1  0  0  0
 54 55  2  0  0  0
 54130  1  0  0  0
 55 57  1  0  0  0
 55131  1  0  0  0
 56 69  2  0  0  0
 57 58  2  0  0  0
 57132  1  0  0  0
 58133  1  0  0  0
 59 60  1  0  0  0
 59 61  1  0  0  0
 59 62  1  0  0  0
 60134  1  0  0  0
 60135  1  0  0  0
 60136  1  0  0  0
 61137  1  0  0  0
 61138  1  0  0  0
 61139  1  0  0  0
 62140  1  0  0  0
 62141  1  0  0  0
 62142  1  0  0  0
 63 65  1  0  0  0
 63143  1  0  0  0
 63144  1  0  0  0
 63145  1  0  0  0
 64146  1  0  0  0
 65147  1  0  0  0
 68 84  1  0  0  0
 71 72  1  0  0  0
 71 73  2  0  0  0
 71 81  1  0  0  0
 72 75  2  0  0  0
 72 82  1  0  0  0
 73 74  1  0  0  0
 73 85  1  0  0  0
 74 87  2  0  0  0
 74 83  1  0  0  0
 75 86  1  0  0  0
 75 87  1  0  0  0
 76 77  1  0  0  0
 76 82  1  0  0  0
 76148  1  0  0  0
 76149  1  0  0  0
 77 82  1  0  0  0
 77150  1  0  0  0
 77151  1  0  0  0
 78 81  1  0  0  0
 78 84  1  0  0  0
 78152  1  0  0  0
 78153  1  0  0  0
 79 83  1  0  0  0
 79 88  1  0  0  0
 79154  1  0  0  0
 79155  1  0  0  0
 80 83  1  0  0  0
 80 88  1  0  0  0
 80156  1  0  0  0
 80157  1  0  0  0
 81 84  1  0  0  0
 81158  1  0  0  0
 82159  1  0  0  0
 83160  1  0  0  0
 84161  1  0  0  0
 85162  1  0  0  0
 85163  1  0  0  0
 85164  1  0  0  0
 86165  1  0  0  0
 86166  1  0  0  0
 86167  1  0  0  0
M  ISO  4   1 100  68 101  84 101  88 100
M  END
> <chiral flag>
0

> <version>
0

> <s_m_source_file>
/data/baiqing/PycharmProjects/Reinvent-master-3.2/result/LINK_invent/BTK/process_docking_weight1_custom_sum_contain_oxygen_bond_distance_aromatic_linkinvent_7_9_3/rearranged_h_0171.sdf

> <i_m_source_file_index>
91

> <r_mmod_Potential_Energy-OPLS-2005>
308.847045898438

> <r_mmod_Stretch_Energy-OPLS-2005>
171.551635742188

> <r_mmod_Bend_Energy-OPLS-2005>
236.676528930664

> <r_mmod_Torsional_Energy-OPLS-2005>
332.030090332031

> <r_mmod_Improper_Torsional_Energy-OPLS-2005>
8.76641654968262

> <r_mmod_Van_der_Waal_Energy-OPLS-2005>
149.505111694336

> <r_mmod_Electrostatic_Energy-OPLS-2005>
-471.947326660156

> <r_mmod_Solvation_Energy-OPLS-2005>
-222.580627441406

> <b_mmod_Minimization_Converged-OPLS-2005>
0

> <r_mmod_RMS_Derivative-OPLS-2005>
2.38208627700806

$$$$
91
                    3D
 Structure written by MMmdl.
163172  0  0  1  0            999 V2000
  -30.5437  -14.8409   20.4250 C   0  0  0  0  0  0
  -30.4364  -12.5174   19.4676 C   0  0  0  0  0  0
  -29.5079  -12.5246   18.2288 C   0  0  0  0  0  0
  -28.0362  -12.3265   18.6445 C   0  0  0  0  0  0
  -27.6293  -13.2348   19.8361 C   0  0  2  0  0  0
  -28.6764  -13.1949   20.9683 C   0  0  0  0  0  0
  -25.2460  -13.8201   20.5765 C   0  0  0  0  0  0
  -24.1786  -13.0440   20.9259 C   0  0  0  0  0  0
  -24.6391  -11.6916   20.8788 C   0  0  0  0  0  0
  -23.9094  -10.4289   21.0466 C   0  0  0  0  0  0
  -24.3647   -9.4193   21.9249 C   0  0  0  0  0  0
  -23.6298   -8.2244   22.0819 C   0  0  0  0  0  0
  -22.4281   -8.0289   21.3580 C   0  0  0  0  0  0
  -21.9940   -9.0269   20.4671 C   0  0  0  0  0  0
  -22.7294  -10.2139   20.3082 C   0  0  0  0  0  0
  -21.6841   -6.0766   22.5313 C   0  0  0  0  0  0
  -21.4003   -6.5670   23.8248 C   0  0  0  0  0  0
  -21.3644   -5.6821   24.9208 C   0  0  0  0  0  0
  -21.6033   -4.3085   24.7254 C   0  0  0  0  0  0
  -21.8805   -3.8182   23.4375 C   0  0  0  0  0  0
  -21.9187   -4.7001   22.3430 C   0  0  0  0  0  0
  -22.7789  -13.5213   21.1895 C   0  0  0  0  0  0
  -22.1658   -4.2184   21.1004 F   0  0  0  0  0  0
  -21.5614   -3.4570   25.7768 F   0  0  0  0  0  0
  -29.9600  -13.5889   20.3773 N   0  0  0  0  0  0
  -26.2870  -12.9414   20.3227 N   0  0  0  0  0  0
  -25.9314  -11.6544   20.5752 N   0  0  0  0  0  0
  -22.0415  -12.8195   22.0411 N   0  0  0  0  0  0
  -25.4114  -15.1952   20.4274 N   0  0  0  0  0  0
  -31.7487  -14.9446   20.1689 O   0  0  0  0  0  0
  -21.6610   -6.8913   21.4282 O   0  0  0  0  0  0
  -22.3481  -14.5531   20.6749 O   0  0  0  0  0  0
  -24.6382  -31.8509   23.1978 C   0  0  0  0  0  0
  -25.9191  -32.4724   23.8330 C   0  0  1  0  0  0
  -27.1996  -27.2018   20.1162 C   0  0  0  0  0  0
  -25.5983  -33.8532   24.2239 N   0  0  0  0  0  0
  -23.4352  -30.4795   21.5428 C   0  0  2  0  0  0
  -24.8756  -28.9292   20.1061 C   0  0  0  0  0  0
  -22.7524  -29.4578   22.4870 C   0  0  0  0  0  0
  -18.0294  -28.1404   22.8517 C   0  0  0  0  0  0
  -24.1465  -36.7236   23.2648 C   0  0  0  0  0  0
  -25.9883  -30.7421   21.3905 C   0  0  0  0  0  0
  -26.0523  -29.3631   20.7261 C   0  0  0  0  0  0
  -27.2109  -28.5112   20.7262 C   0  0  0  0  0  0
  -25.9900  -26.8638   19.4585 C   0  0  0  0  0  0
  -24.8538  -27.6889   19.4622 C   0  0  0  0  0  0
  -23.6534  -29.8244   20.1565 C   0  0  0  0  0  0
  -25.4113  -36.3037   24.0315 C   0  0  1  0  0  0
  -20.5902  -28.3727   23.1246 C   0  0  2  0  0  0
  -20.6772  -26.9429   22.5413 C   0  0  0  0  0  0
  -19.5729  -26.6389   21.5230 C   0  0  0  0  0  0
  -18.1914  -26.7948   22.1641 C   0  0  0  0  0  0
  -19.1553  -28.8889   23.2881 C   0  0  0  0  0  0
  -18.9474  -30.1489   23.8895 C   0  0  0  0  0  0
  -17.6468  -30.6611   24.0575 C   0  0  0  0  0  0
  -25.9074  -34.9416   23.5072 C   0  0  0  0  0  0
  -16.5364  -29.9109   23.6344 C   0  0  0  0  0  0
  -16.7276  -28.6511   23.0393 C   0  0  0  0  0  0
  -26.4534  -31.6574   25.0760 C   0  0  0  0  0  0
  -25.3720  -31.3727   26.1455 C   0  0  0  0  0  0
  -27.0428  -30.2985   24.6299 C   0  0  0  0  0  0
  -27.6024  -32.4348   25.7605 C   0  0  0  0  0  0
  -27.5554  -37.1792   24.8469 C   0  0  0  0  0  0
  -21.4224  -29.3069   22.3617 N   0  0  0  0  0  0
  -26.4263  -37.3767   23.9418 N   0  0  0  0  0  0
  -24.7071  -31.0442   22.0976 N   0  0  0  0  0  0
  -23.4192  -28.8082   23.2961 O   0  0  0  0  0  0
  -28.2699  -26.2562   20.2200 O   0  0  0  0  0  0
  -26.5622  -34.8886   22.4635 O   0  0  0  0  0  0
  -23.5520  -32.1350   23.7241 O   0  0  0  0  0  0
  -28.9896  -20.4062   20.4330 C   0  0  0  0  0  0
  -30.0023  -21.2878   19.9042 C   0  0  0  0  0  0
  -27.8779  -21.1717   20.9645 C   0  0  0  0  0  0
  -29.8388  -22.7308   19.7547 C   0  0  0  0  0  0
  -27.6950  -22.6105   20.7914 C   0  0  0  0  0  0
  -28.6403  -23.4406   20.1087 C   0  0  0  0  0  0
  -29.3506  -18.0560   19.1142 C   0  0  0  0  0  0
  -28.9628  -18.7425   20.4035 C   0  0  1  0  0  0
  -30.0059  -17.4632   20.3427 C   0  0  1  0  0  0
  -31.3355  -20.6944   19.4730 C   0  0  0  0  0  0
  -26.8172  -20.4024   21.7472 C   0  0  0  0  0  0
  -30.9964  -23.5322   19.1609 C   0  0  0  0  0  0
  -26.4141  -23.2818   21.3012 C   0  0  0  0  0  0
  -28.2530  -24.9080   19.5061 C   0  0  0  0  0  0
  -29.7148  -15.9703   20.5131 N   0  0  0  0  0  0
  -31.4745  -12.6690   19.1657 H   0  0  0  0  0  0
  -30.4061  -11.5511   19.9707 H   0  0  0  0  0  0
  -29.8050  -11.7450   17.5246 H   0  0  0  0  0  0
  -29.6063  -13.4751   17.6992 H   0  0  0  0  0  0
  -27.9089  -11.2808   18.9210 H   0  0  0  0  0  0
  -27.3769  -12.4987   17.7936 H   0  0  0  0  0  0
  -27.6036  -14.2467   19.4379 H   0  0  0  0  0  0
  -28.7388  -12.1933   21.3959 H   0  0  0  0  0  0
  -28.3994  -13.8598   21.7879 H   0  0  0  0  0  0
  -25.2799   -9.5662   22.4825 H   0  0  0  0  0  0
  -23.9998   -7.4629   22.7548 H   0  0  0  0  0  0
  -21.0895   -8.8796   19.8937 H   0  0  0  0  0  0
  -22.3806  -10.9685   19.6172 H   0  0  0  0  0  0
  -21.1989   -7.6181   23.9762 H   0  0  0  0  0  0
  -21.1465   -6.0561   25.9113 H   0  0  0  0  0  0
  -22.0590   -2.7642   23.2875 H   0  0  0  0  0  0
  -22.4005  -11.9833   22.4781 H   0  0  0  0  0  0
  -21.1036  -13.1247   22.2625 H   0  0  0  0  0  0
  -24.6444  -15.8422   20.5659 H   0  0  0  0  0  0
  -26.2432  -15.6474   20.0749 H   0  0  0  0  0  0
  -26.7252  -32.5322   23.1055 H   0  0  0  0  0  0
  -25.0192  -33.9665   25.0422 H   0  0  0  0  0  0
  -22.7366  -31.3066   21.3989 H   0  0  0  0  0  0
  -23.3757  -35.9536   23.3278 H   0  0  0  0  0  0
  -24.3545  -36.8919   22.2072 H   0  0  0  0  0  0
  -23.7164  -37.6402   23.6703 H   0  0  0  0  0  0
  -26.1418  -31.5018   20.6239 H   0  0  0  0  0  0
  -26.8607  -30.7831   22.0305 H   0  0  0  0  0  0
  -28.1026  -28.8325   21.2445 H   0  0  0  0  0  0
  -25.8215  -25.9355   18.9446 H   0  0  0  0  0  0
  -23.9535  -27.3517   18.9675 H   0  0  0  0  0  0
  -23.7871  -30.6034   19.4055 H   0  0  0  0  0  0
  -22.7664  -29.2714   19.8439 H   0  0  0  0  0  0
  -25.1285  -36.1889   25.0805 H   0  0  0  0  0  0
  -21.0020  -28.3329   24.1359 H   0  0  0  0  0  0
  -20.5693  -26.2342   23.3639 H   0  0  0  0  0  0
  -21.6633  -26.7448   22.1209 H   0  0  0  0  0  0
  -19.6896  -25.6301   21.1265 H   0  0  0  0  0  0
  -19.6651  -27.3196   20.6745 H   0  0  0  0  0  0
  -17.4188  -26.6748   21.4020 H   0  0  0  0  0  0
  -18.0265  -26.0085   22.9018 H   0  0  0  0  0  0
  -19.7949  -30.7309   24.2249 H   0  0  0  0  0  0
  -17.5029  -31.6291   24.5183 H   0  0  0  0  0  0
  -15.5371  -30.3023   23.7653 H   0  0  0  0  0  0
  -15.8674  -28.0816   22.7141 H   0  0  0  0  0  0
  -24.5927  -30.7041   25.7777 H   0  0  0  0  0  0
  -24.8889  -32.2905   26.4809 H   0  0  0  0  0  0
  -25.8047  -30.8971   27.0266 H   0  0  0  0  0  0
  -26.3060  -29.6708   24.1282 H   0  0  0  0  0  0
  -27.4044  -29.7275   25.4859 H   0  0  0  0  0  0
  -27.8939  -30.4242   23.9609 H   0  0  0  0  0  0
  -27.2560  -33.3638   26.2132 H   0  0  0  0  0  0
  -28.3921  -32.6931   25.0539 H   0  0  0  0  0  0
  -28.0586  -31.8514   26.5614 H   0  0  0  0  0  0
  -28.2549  -38.0113   24.7589 H   0  0  0  0  0  0
  -28.1085  -36.2659   24.6237 H   0  0  0  0  0  0
  -27.2270  -37.1366   25.8867 H   0  0  0  0  0  0
  -20.9394  -29.8857   21.6886 H   0  0  0  0  0  0
  -26.0123  -38.2808   24.1516 H   0  0  0  0  0  0
  -30.0194  -18.5539   18.4176 H   0  0  0  0  0  0
  -28.5730  -17.4785   18.6174 H   0  0  0  0  0  0
  -27.9944  -18.4294   20.7767 H   0  0  0  0  0  0
  -31.0375  -17.7250   20.5670 H   0  0  0  0  0  0
  -31.4996  -20.8358   18.4044 H   0  0  0  0  0  0
  -31.4262  -19.6397   19.6842 H   0  0  0  0  0  0
  -32.1502  -21.1578   20.0264 H   0  0  0  0  0  0
  -27.2953  -19.7230   22.4538 H   0  0  0  0  0  0
  -26.1901  -19.8192   21.0722 H   0  0  0  0  0  0
  -26.1660  -21.0247   22.3576 H   0  0  0  0  0  0
  -31.8961  -23.3798   19.7564 H   0  0  0  0  0  0
  -30.8379  -24.6092   19.1541 H   0  0  0  0  0  0
  -31.1943  -23.2172   18.1362 H   0  0  0  0  0  0
  -26.3374  -23.2197   22.3872 H   0  0  0  0  0  0
  -25.5332  -22.8170   20.8589 H   0  0  0  0  0  0
  -26.3547  -24.3461   21.0849 H   0  0  0  0  0  0
  -27.2924  -24.6863   19.0671 H   0  0  0  0  0  0
  -28.8389  -25.0718   18.6054 H   0  0  0  0  0  0
  -28.7358  -15.7400   20.6078 H   0  0  0  0  0  0
  1 25  1  0  0  0
  1 30  2  0  0  0
  1 85  1  0  0  0
  2  3  1  0  0  0
  2 25  1  0  0  0
  2 86  1  0  0  0
  2 87  1  0  0  0
  3  4  1  0  0  0
  3 88  1  0  0  0
  3 89  1  0  0  0
  4  5  1  0  0  0
  4 90  1  0  0  0
  4 91  1  0  0  0
  5  6  1  0  0  0
  5 26  1  0  0  0
  5 92  1  0  0  0
  6 25  1  0  0  0
  6 93  1  0  0  0
  6 94  1  0  0  0
  7  8  2  0  0  0
  7 26  1  0  0  0
  7 29  1  0  0  0
  8  9  1  0  0  0
  8 22  1  0  0  0
  9 10  1  0  0  0
  9 27  2  0  0  0
 10 11  2  0  0  0
 10 15  1  0  0  0
 11 12  1  0  0  0
 11 95  1  0  0  0
 12 13  2  0  0  0
 12 96  1  0  0  0
 13 14  1  0  0  0
 13 31  1  0  0  0
 14 15  2  0  0  0
 14 97  1  0  0  0
 15 98  1  0  0  0
 16 17  2  0  0  0
 16 21  1  0  0  0
 16 31  1  0  0  0
 17 18  1  0  0  0
 17 99  1  0  0  0
 18 19  2  0  0  0
 18100  1  0  0  0
 19 20  1  0  0  0
 19 24  1  0  0  0
 20 21  2  0  0  0
 20101  1  0  0  0
 21 23  1  0  0  0
 22 28  1  0  0  0
 22 32  2  0  0  0
 26 27  1  0  0  0
 28102  1  0  0  0
 28103  1  0  0  0
 29104  1  0  0  0
 29105  1  0  0  0
 33 34  1  0  0  0
 33 66  1  0  0  0
 33 70  2  0  0  0
 34 36  1  0  0  0
 34 59  1  0  0  0
 34106  1  0  0  0
 35 44  2  0  0  0
 35 45  1  0  0  0
 35 68  1  0  0  0
 36 56  1  0  0  0
 36107  1  0  0  0
 37 39  1  0  0  0
 37 47  1  0  0  0
 37 66  1  0  0  0
 37108  1  0  0  0
 38 43  2  0  0  0
 38 46  1  0  0  0
 38 47  1  0  0  0
 39 64  1  0  0  0
 39 67  2  0  0  0
 40 52  1  0  0  0
 40 53  2  0  0  0
 40 58  1  0  0  0
 41109  1  0  0  0
 41110  1  0  0  0
 41111  1  0  0  0
 41 48  1  0  0  0
 42 43  1  0  0  0
 42 66  1  0  0  0
 42112  1  0  0  0
 42113  1  0  0  0
 43 44  1  0  0  0
 44114  1  0  0  0
 45 46  2  0  0  0
 45115  1  0  0  0
 46116  1  0  0  0
 47117  1  0  0  0
 47118  1  0  0  0
 48 56  1  0  0  0
 48 65  1  0  0  0
 48119  1  0  0  0
 49 50  1  0  0  0
 49 53  1  0  0  0
 49 64  1  0  0  0
 49120  1  0  0  0
 50 51  1  0  0  0
 50121  1  0  0  0
 50122  1  0  0  0
 51 52  1  0  0  0
 51123  1  0  0  0
 51124  1  0  0  0
 52125  1  0  0  0
 52126  1  0  0  0
 53 54  1  0  0  0
 54 55  2  0  0  0
 54127  1  0  0  0
 55 57  1  0  0  0
 55128  1  0  0  0
 56 69  2  0  0  0
 57 58  2  0  0  0
 57129  1  0  0  0
 58130  1  0  0  0
 59 60  1  0  0  0
 59 61  1  0  0  0
 59 62  1  0  0  0
 60131  1  0  0  0
 60132  1  0  0  0
 60133  1  0  0  0
 61134  1  0  0  0
 61135  1  0  0  0
 61136  1  0  0  0
 62137  1  0  0  0
 62138  1  0  0  0
 62139  1  0  0  0
 63 65  1  0  0  0
 63140  1  0  0  0
 63141  1  0  0  0
 63142  1  0  0  0
 64143  1  0  0  0
 65144  1  0  0  0
 68 84  1  0  0  0
 71 72  2  0  0  0
 71 73  1  0  0  0
 71 78  1  0  0  0
 72 74  1  0  0  0
 72 80  1  0  0  0
 73 75  2  0  0  0
 73 81  1  0  0  0
 74 76  2  0  0  0
 74 82  1  0  0  0
 75 76  1  0  0  0
 75 83  1  0  0  0
 76 84  1  0  0  0
 77 78  1  0  0  0
 77 79  1  0  0  0
 77145  1  0  0  0
 77146  1  0  0  0
 78 79  1  0  0  0
 78147  1  0  0  0
 79 85  1  0  0  0
 79148  1  0  0  0
 80149  1  0  0  0
 80150  1  0  0  0
 80151  1  0  0  0
 81152  1  0  0  0
 81153  1  0  0  0
 81154  1  0  0  0
 82155  1  0  0  0
 82156  1  0  0  0
 82157  1  0  0  0
 83158  1  0  0  0
 83159  1  0  0  0
 83160  1  0  0  0
 84161  1  0  0  0
 84162  1  0  0  0
 85163  1  0  0  0
M  ISO  4   1 100  68 101  84 101  85 100
M  END
> <chiral flag>
0

> <version>
0

> <s_m_source_file>
/data/baiqing/PycharmProjects/Reinvent-master-3.2/result/LINK_invent/BTK/process_docking_weight1_custom_sum_contain_oxygen_bond_distance_aromatic_linkinvent_7_9_3/rearranged_h_0171.sdf

> <i_m_source_file_index>
92

> <r_mmod_Potential_Energy-OPLS-2005>
445.286499023438

> <r_mmod_Stretch_Energy-OPLS-2005>
203.32405090332

> <r_mmod_Bend_Energy-OPLS-2005>
237.2216796875

> <r_mmod_Torsional_Energy-OPLS-2005>
290.073150634766

> <r_mmod_Improper_Torsional_Energy-OPLS-2005>
8.24205017089844

> <r_mmod_Van_der_Waal_Energy-OPLS-2005>
168.513458251953

> <r_mmod_Electrostatic_Energy-OPLS-2005>
-385.517791748047

> <r_mmod_Solvation_Energy-OPLS-2005>
-211.105682373047

> <b_mmod_Minimization_Converged-OPLS-2005>
0

> <r_mmod_RMS_Derivative-OPLS-2005>
4.74417734146118

$$$$
92
                    3D
 Structure written by MMmdl.
175184  0  0  1  0            999 V2000
  -30.7458  -14.4122   20.6062 C   0  0  0  0  0  0
  -30.4094  -12.2856   19.4059 C   0  0  0  0  0  0
  -29.4791  -12.5026   18.1962 C   0  0  0  0  0  0
  -28.0023  -12.3639   18.6122 C   0  0  0  0  0  0
  -27.6558  -13.1978   19.8735 C   0  0  2  0  0  0
  -28.7013  -12.9815   20.9920 C   0  0  0  0  0  0
  -25.2571  -13.8139   20.5709 C   0  0  0  0  0  0
  -24.1816  -13.0427   20.9193 C   0  0  0  0  0  0
  -24.6364  -11.6894   20.8766 C   0  0  0  0  0  0
  -23.9035  -10.4286   21.0424 C   0  0  0  0  0  0
  -24.3592   -9.4198   21.9199 C   0  0  0  0  0  0
  -23.6272   -8.2231   22.0763 C   0  0  0  0  0  0
  -22.4260   -8.0270   21.3545 C   0  0  0  0  0  0
  -21.9896   -9.0244   20.4646 C   0  0  0  0  0  0
  -22.7217  -10.2128   20.3059 C   0  0  0  0  0  0
  -21.6841   -6.0733   22.5284 C   0  0  0  0  0  0
  -21.4008   -6.5638   23.8220 C   0  0  0  0  0  0
  -21.3656   -5.6792   24.9182 C   0  0  0  0  0  0
  -21.6040   -4.3054   24.7228 C   0  0  0  0  0  0
  -21.8818   -3.8147   23.4351 C   0  0  0  0  0  0
  -21.9191   -4.6961   22.3406 C   0  0  0  0  0  0
  -22.7844  -13.5228   21.1851 C   0  0  0  0  0  0
  -22.1663   -4.2154   21.0982 F   0  0  0  0  0  0
  -21.5632   -3.4533   25.7736 F   0  0  0  0  0  0
  -30.0352  -13.2649   20.4363 N   0  0  0  0  0  0
  -26.2993  -12.9292   20.3389 N   0  0  0  0  0  0
  -25.9278  -11.6461   20.5787 N   0  0  0  0  0  0
  -22.0487  -12.8218   22.0410 N   0  0  0  0  0  0
  -25.4304  -15.1863   20.4138 N   0  0  0  0  0  0
  -31.8572  -14.5941   20.1007 O   0  0  0  0  0  0
  -21.6624   -6.8866   21.4241 O   0  0  0  0  0  0
  -22.3537  -14.5535   20.6696 O   0  0  0  0  0  0
  -24.6130  -31.8690   23.2108 C   0  0  0  0  0  0
  -25.9025  -32.4840   23.8406 C   0  0  1  0  0  0
  -27.2345  -27.4547   20.1053 C   0  0  0  0  0  0
  -25.5883  -33.8640   24.2337 N   0  0  0  0  0  0
  -23.4008  -30.4912   21.5507 C   0  0  2  0  0  0
  -24.8476  -28.9595   20.1147 C   0  0  0  0  0  0
  -22.7395  -29.4675   22.5004 C   0  0  0  0  0  0
  -18.0269  -28.1391   22.8511 C   0  0  0  0  0  0
  -24.1479  -36.7319   23.2644 C   0  0  0  0  0  0
  -25.9264  -30.8448   21.3564 C   0  0  0  0  0  0
  -26.0054  -29.4798   20.7074 C   0  0  0  0  0  0
  -27.2051  -28.7355   20.6961 C   0  0  0  0  0  0
  -26.0651  -26.9455   19.4999 C   0  0  0  0  0  0
  -24.8715  -27.6904   19.5075 C   0  0  0  0  0  0
  -23.6062  -29.8212   20.1656 C   0  0  0  0  0  0
  -25.4102  -36.3127   24.0349 C   0  0  1  0  0  0
  -20.5855  -28.3680   23.1342 C   0  0  2  0  0  0
  -20.6763  -26.9415   22.5434 C   0  0  0  0  0  0
  -19.5735  -26.6397   21.5231 C   0  0  0  0  0  0
  -18.1907  -26.7949   22.1635 C   0  0  0  0  0  0
  -19.1517  -28.8854   23.2920 C   0  0  0  0  0  0
  -18.9439  -30.1466   23.8917 C   0  0  0  0  0  0
  -17.6438  -30.6602   24.0583 C   0  0  0  0  0  0
  -25.9035  -34.9496   23.5138 C   0  0  0  0  0  0
  -16.5332  -29.9109   23.6327 C   0  0  0  0  0  0
  -16.7259  -28.6525   23.0353 C   0  0  0  0  0  0
  -26.4460  -31.6617   25.0726 C   0  0  0  0  0  0
  -25.3723  -31.3666   26.1461 C   0  0  0  0  0  0
  -27.0324  -30.3086   24.6074 C   0  0  0  0  0  0
  -27.6025  -32.4345   25.7499 C   0  0  0  0  0  0
  -27.5582  -37.1798   24.8451 C   0  0  0  0  0  0
  -21.4127  -29.3039   22.3730 N   0  0  0  0  0  0
  -26.4281  -37.3811   23.9429 N   0  0  0  0  0  0
  -24.6654  -31.0817   22.0988 N   0  0  0  0  0  0
  -23.4166  -28.8224   23.3056 O   0  0  0  0  0  0
  -28.4005  -26.7285   20.1050 O   0  0  0  0  0  0
  -26.5597  -34.8940   22.4696 O   0  0  0  0  0  0
  -23.5322  -32.1425   23.7509 O   0  0  0  0  0  0
  -30.1822  -20.3264   21.5559 C   0  0  0  0  0  0
  -29.3285  -21.2895   22.3666 C   0  0  0  0  0  0
  -30.7972  -20.9402   20.2903 C   0  0  0  0  0  0
  -30.4172  -17.5417   20.0626 C   0  0  0  0  0  0
  -31.7159  -17.0864   22.2079 C   0  0  0  0  0  0
  -29.4302  -16.4480   20.5158 C   0  0  0  0  0  0
  -30.6971  -15.9617   22.5124 C   0  0  0  0  0  0
  -29.4616  -22.7773   21.9607 C   0  0  2  0  0  0
  -29.1552  -22.9773   20.4506 C   0  0  2  0  0  0
  -31.1845  -18.1766   21.2471 C   0  0  0  0  0  0
  -29.8867  -21.9351   19.5122 C   0  0  0  0  0  0
  -30.7718  -23.4339   22.4496 C   0  0  0  0  0  0
  -30.7960  -22.6008   18.4494 C   0  0  0  0  0  0
  -28.8201  -21.1238   18.7388 C   0  0  0  0  0  0
  -29.2311  -24.4591   19.9773 C   0  0  0  0  0  0
  -28.3202  -25.4428   20.7301 C   0  0  0  0  0  0
  -30.3400  -19.1222   21.9689 N   0  0  0  0  0  0
  -30.1213  -15.4034   21.2812 N   0  0  0  0  0  0
  -31.4524  -12.3736   19.0969 H   0  0  0  0  0  0
  -30.3008  -11.2735   19.7985 H   0  0  0  0  0  0
  -29.7117  -11.7860   17.4076 H   0  0  0  0  0  0
  -29.6490  -13.4933   17.7711 H   0  0  0  0  0  0
  -27.8033  -11.3080   18.7988 H   0  0  0  0  0  0
  -27.3515  -12.6509   17.7844 H   0  0  0  0  0  0
  -27.6909  -14.2407   19.5695 H   0  0  0  0  0  0
  -28.6700  -11.9528   21.3508 H   0  0  0  0  0  0
  -28.4669  -13.6004   21.8596 H   0  0  0  0  0  0
  -25.2728   -9.5681   22.4794 H   0  0  0  0  0  0
  -23.9989   -7.4614   22.7478 H   0  0  0  0  0  0
  -21.0835   -8.8739   19.8941 H   0  0  0  0  0  0
  -22.3657  -10.9670   19.6179 H   0  0  0  0  0  0
  -21.1992   -7.6146   23.9722 H   0  0  0  0  0  0
  -21.1491   -6.0523   25.9085 H   0  0  0  0  0  0
  -22.0602   -2.7615   23.2843 H   0  0  0  0  0  0
  -22.4089  -11.9849   22.4763 H   0  0  0  0  0  0
  -21.1110  -13.1253   22.2635 H   0  0  0  0  0  0
  -24.6690  -15.8456   20.5333 H   0  0  0  0  0  0
  -26.2916  -15.6279   20.1200 H   0  0  0  0  0  0
  -26.7124  -32.5562   23.1201 H   0  0  0  0  0  0
  -25.0033  -33.9803   25.0478 H   0  0  0  0  0  0
  -22.6886  -31.3073   21.4124 H   0  0  0  0  0  0
  -23.3781  -35.9603   23.3246 H   0  0  0  0  0  0
  -24.3582  -36.8999   22.2074 H   0  0  0  0  0  0
  -23.7188  -37.6481   23.6707 H   0  0  0  0  0  0
  -26.0257  -31.6098   20.5852 H   0  0  0  0  0  0
  -26.8198  -30.9053   21.9673 H   0  0  0  0  0  0
  -28.1020  -29.1308   21.1515 H   0  0  0  0  0  0
  -26.0785  -25.9752   19.0243 H   0  0  0  0  0  0
  -23.9819  -27.2854   19.0456 H   0  0  0  0  0  0
  -23.7059  -30.5956   19.4044 H   0  0  0  0  0  0
  -22.7328  -29.2348   19.8757 H   0  0  0  0  0  0
  -25.1266  -36.1989   25.0837 H   0  0  0  0  0  0
  -20.9946  -28.3264   24.1469 H   0  0  0  0  0  0
  -20.5713  -26.2274   23.3613 H   0  0  0  0  0  0
  -21.6630  -26.7484   22.1209 H   0  0  0  0  0  0
  -19.6900  -25.6322   21.1236 H   0  0  0  0  0  0
  -19.6675  -27.3223   20.6775 H   0  0  0  0  0  0
  -17.4186  -26.6738   21.4022 H   0  0  0  0  0  0
  -18.0270  -26.0082   22.9015 H   0  0  0  0  0  0
  -19.7914  -30.7291   24.2285 H   0  0  0  0  0  0
  -17.4994  -31.6280   24.5196 H   0  0  0  0  0  0
  -15.5336  -30.3015   23.7642 H   0  0  0  0  0  0
  -15.8662  -28.0853   22.7039 H   0  0  0  0  0  0
  -24.5895  -30.7038   25.7758 H   0  0  0  0  0  0
  -24.8915  -32.2797   26.4977 H   0  0  0  0  0  0
  -25.8075  -30.8769   27.0180 H   0  0  0  0  0  0
  -26.2870  -29.6823   24.1164 H   0  0  0  0  0  0
  -27.4178  -29.7347   25.4513 H   0  0  0  0  0  0
  -27.8651  -30.4471   23.9174 H   0  0  0  0  0  0
  -27.2641  -33.3654   26.2066 H   0  0  0  0  0  0
  -28.3823  -32.6884   25.0308 H   0  0  0  0  0  0
  -28.0694  -31.8472   26.5413 H   0  0  0  0  0  0
  -28.2540  -38.0157   24.7605 H   0  0  0  0  0  0
  -28.1145  -36.2693   24.6155 H   0  0  0  0  0  0
  -27.2308  -37.1298   25.8850 H   0  0  0  0  0  0
  -20.9280  -29.8752   21.6941 H   0  0  0  0  0  0
  -26.0172  -38.2876   24.1490 H   0  0  0  0  0  0
  -29.5620  -21.1672   23.4247 H   0  0  0  0  0  0
  -28.2874  -20.9830   22.2530 H   0  0  0  0  0  0
  -31.1099  -20.1688   19.5923 H   0  0  0  0  0  0
  -31.7286  -21.4206   20.5845 H   0  0  0  0  0  0
  -29.8786  -18.2898   19.4808 H   0  0  0  0  0  0
  -31.1409  -17.1107   19.3691 H   0  0  0  0  0  0
  -32.6023  -16.6354   21.7575 H   0  0  0  0  0  0
  -32.0656  -17.5361   23.1385 H   0  0  0  0  0  0
  -28.9453  -16.0314   19.6342 H   0  0  0  0  0  0
  -28.6361  -16.8812   21.1247 H   0  0  0  0  0  0
  -29.8917  -16.3476   23.1380 H   0  0  0  0  0  0
  -31.1767  -15.1724   23.0948 H   0  0  0  0  0  0
  -28.6725  -23.2844   22.5177 H   0  0  0  0  0  0
  -28.0910  -22.7417   20.3833 H   0  0  0  0  0  0
  -32.0736  -18.6847   20.8654 H   0  0  0  0  0  0
  -31.6417  -23.1450   21.8660 H   0  0  0  0  0  0
  -30.9754  -23.1725   23.4887 H   0  0  0  0  0  0
  -30.7105  -24.5208   22.4077 H   0  0  0  0  0  0
  -31.5592  -23.2310   18.9070 H   0  0  0  0  0  0
  -30.2359  -23.2081   17.7386 H   0  0  0  0  0  0
  -31.3223  -21.8527   17.8544 H   0  0  0  0  0  0
  -28.1929  -20.5335   19.4105 H   0  0  0  0  0  0
  -29.2766  -20.4281   18.0328 H   0  0  0  0  0  0
  -28.1603  -21.7769   18.1660 H   0  0  0  0  0  0
  -28.9242  -24.5107   18.9329 H   0  0  0  0  0  0
  -30.2582  -24.8211   20.0145 H   0  0  0  0  0  0
  -28.6436  -25.5509   21.7648 H   0  0  0  0  0  0
  -27.3060  -25.0435   20.7667 H   0  0  0  0  0  0
  1 25  1  0  0  0
  1 30  2  0  0  0
  1 88  1  0  0  0
  2  3  1  0  0  0
  2 25  1  0  0  0
  2 89  1  0  0  0
  2 90  1  0  0  0
  3  4  1  0  0  0
  3 91  1  0  0  0
  3 92  1  0  0  0
  4  5  1  0  0  0
  4 93  1  0  0  0
  4 94  1  0  0  0
  5  6  1  0  0  0
  5 26  1  0  0  0
  5 95  1  0  0  0
  6 25  1  0  0  0
  6 96  1  0  0  0
  6 97  1  0  0  0
  7  8  2  0  0  0
  7 26  1  0  0  0
  7 29  1  0  0  0
  8  9  1  0  0  0
  8 22  1  0  0  0
  9 10  1  0  0  0
  9 27  2  0  0  0
 10 11  2  0  0  0
 10 15  1  0  0  0
 11 12  1  0  0  0
 11 98  1  0  0  0
 12 13  2  0  0  0
 12 99  1  0  0  0
 13 14  1  0  0  0
 13 31  1  0  0  0
 14 15  2  0  0  0
 14100  1  0  0  0
 15101  1  0  0  0
 16 17  2  0  0  0
 16 21  1  0  0  0
 16 31  1  0  0  0
 17 18  1  0  0  0
 17102  1  0  0  0
 18 19  2  0  0  0
 18103  1  0  0  0
 19 20  1  0  0  0
 19 24  1  0  0  0
 20 21  2  0  0  0
 20104  1  0  0  0
 21 23  1  0  0  0
 22 28  1  0  0  0
 22 32  2  0  0  0
 26 27  1  0  0  0
 28105  1  0  0  0
 28106  1  0  0  0
 29107  1  0  0  0
 29108  1  0  0  0
 33 34  1  0  0  0
 33 66  1  0  0  0
 33 70  2  0  0  0
 34 36  1  0  0  0
 34 59  1  0  0  0
 34109  1  0  0  0
 35 44  2  0  0  0
 35 45  1  0  0  0
 35 68  1  0  0  0
 36 56  1  0  0  0
 36110  1  0  0  0
 37 39  1  0  0  0
 37 47  1  0  0  0
 37 66  1  0  0  0
 37111  1  0  0  0
 38 43  2  0  0  0
 38 46  1  0  0  0
 38 47  1  0  0  0
 39 64  1  0  0  0
 39 67  2  0  0  0
 40 52  1  0  0  0
 40 53  2  0  0  0
 40 58  1  0  0  0
 41112  1  0  0  0
 41113  1  0  0  0
 41114  1  0  0  0
 41 48  1  0  0  0
 42 43  1  0  0  0
 42 66  1  0  0  0
 42115  1  0  0  0
 42116  1  0  0  0
 43 44  1  0  0  0
 44117  1  0  0  0
 45 46  2  0  0  0
 45118  1  0  0  0
 46119  1  0  0  0
 47120  1  0  0  0
 47121  1  0  0  0
 48 56  1  0  0  0
 48 65  1  0  0  0
 48122  1  0  0  0
 49 50  1  0  0  0
 49 53  1  0  0  0
 49 64  1  0  0  0
 49123  1  0  0  0
 50 51  1  0  0  0
 50124  1  0  0  0
 50125  1  0  0  0
 51 52  1  0  0  0
 51126  1  0  0  0
 51127  1  0  0  0
 52128  1  0  0  0
 52129  1  0  0  0
 53 54  1  0  0  0
 54 55  2  0  0  0
 54130  1  0  0  0
 55 57  1  0  0  0
 55131  1  0  0  0
 56 69  2  0  0  0
 57 58  2  0  0  0
 57132  1  0  0  0
 58133  1  0  0  0
 59 60  1  0  0  0
 59 61  1  0  0  0
 59 62  1  0  0  0
 60134  1  0  0  0
 60135  1  0  0  0
 60136  1  0  0  0
 61137  1  0  0  0
 61138  1  0  0  0
 61139  1  0  0  0
 62140  1  0  0  0
 62141  1  0  0  0
 62142  1  0  0  0
 63 65  1  0  0  0
 63143  1  0  0  0
 63144  1  0  0  0
 63145  1  0  0  0
 64146  1  0  0  0
 65147  1  0  0  0
 68 86  1  0  0  0
 71 72  1  0  0  0
 71 73  1  0  0  0
 71 87  2  0  0  0
 72 78  1  0  0  0
 72148  1  0  0  0
 72149  1  0  0  0
 73 81  1  0  0  0
 73150  1  0  0  0
 73151  1  0  0  0
 74 76  1  0  0  0
 74 80  1  0  0  0
 74152  1  0  0  0
 74153  1  0  0  0
 75 77  1  0  0  0
 75 80  1  0  0  0
 75154  1  0  0  0
 75155  1  0  0  0
 76 88  1  0  0  0
 76156  1  0  0  0
 76157  1  0  0  0
 77 88  1  0  0  0
 77158  1  0  0  0
 77159  1  0  0  0
 78 79  1  0  0  0
 78 82  1  0  0  0
 78160  1  0  0  0
 79 81  1  0  0  0
 79 85  1  0  0  0
 79161  1  0  0  0
 80 87  1  0  0  0
 80162  1  0  0  0
 81 83  1  0  0  0
 81 84  1  0  0  0
 82163  1  0  0  0
 82164  1  0  0  0
 82165  1  0  0  0
 83166  1  0  0  0
 83167  1  0  0  0
 83168  1  0  0  0
 84169  1  0  0  0
 84170  1  0  0  0
 84171  1  0  0  0
 85 86  1  0  0  0
 85172  1  0  0  0
 85173  1  0  0  0
 86174  1  0  0  0
 86175  1  0  0  0
M  ISO  4   1 100  68 101  86 101  88 100
M  END
> <chiral flag>
0

> <version>
0

> <s_m_source_file>
/data/baiqing/PycharmProjects/Reinvent-master-3.2/result/LINK_invent/BTK/process_docking_weight1_custom_sum_contain_oxygen_bond_distance_aromatic_linkinvent_7_9_3/rearranged_h_0171.sdf

> <i_m_source_file_index>
93

> <r_mmod_Potential_Energy-OPLS-2005>
268.204406738281

> <r_mmod_Stretch_Energy-OPLS-2005>
42.2681884765625

> <r_mmod_Bend_Energy-OPLS-2005>
123.114265441895

> <r_mmod_Torsional_Energy-OPLS-2005>
399.072479248047

> <r_mmod_Improper_Torsional_Energy-OPLS-2005>
5.39926767349243

> <r_mmod_Van_der_Waal_Energy-OPLS-2005>
161.199310302734

> <r_mmod_Electrostatic_Energy-OPLS-2005>
-288.259399414062

> <r_mmod_Solvation_Energy-OPLS-2005>
-184.380065917969

> <b_mmod_Minimization_Converged-OPLS-2005>
0

> <r_mmod_RMS_Derivative-OPLS-2005>
1.76850557327271

$$$$
93
                    3D
 Structure written by MMmdl.
168177  0  0  1  0            999 V2000
  -30.7488  -14.6064   20.6362 C   0  0  0  0  0  0
  -30.4169  -12.4129   19.4751 C   0  0  0  0  0  0
  -29.5098  -12.5463   18.2353 C   0  0  0  0  0  0
  -28.0359  -12.3597   18.6294 C   0  0  0  0  0  0
  -27.6502  -13.2287   19.8518 C   0  0  2  0  0  0
  -28.6788  -13.1063   20.9924 C   0  0  0  0  0  0
  -25.2524  -13.8201   20.5662 C   0  0  0  0  0  0
  -24.1821  -13.0456   20.9185 C   0  0  0  0  0  0
  -24.6406  -11.6924   20.8731 C   0  0  0  0  0  0
  -23.9076  -10.4299   21.0404 C   0  0  0  0  0  0
  -24.3619   -9.4223   21.9204 C   0  0  0  0  0  0
  -23.6295   -8.2259   22.0765 C   0  0  0  0  0  0
  -22.4287   -8.0287   21.3538 C   0  0  0  0  0  0
  -21.9923   -9.0261   20.4641 C   0  0  0  0  0  0
  -22.7248  -10.2138   20.3055 C   0  0  0  0  0  0
  -21.6850   -6.0745   22.5275 C   0  0  0  0  0  0
  -21.4012   -6.5643   23.8208 C   0  0  0  0  0  0
  -21.3658   -5.6783   24.9169 C   0  0  0  0  0  0
  -21.6048   -4.3051   24.7214 C   0  0  0  0  0  0
  -21.8824   -3.8151   23.4331 C   0  0  0  0  0  0
  -21.9197   -4.6971   22.3397 C   0  0  0  0  0  0
  -22.7839  -13.5223   21.1863 C   0  0  0  0  0  0
  -22.1669   -4.2162   21.0970 F   0  0  0  0  0  0
  -21.5628   -3.4531   25.7727 F   0  0  0  0  0  0
  -30.0183  -13.4421   20.4705 N   0  0  0  0  0  0
  -26.2956  -12.9402   20.3206 N   0  0  0  0  0  0
  -25.9322  -11.6546   20.5679 N   0  0  0  0  0  0
  -22.0467  -12.8222   22.0401 N   0  0  0  0  0  0
  -25.4246  -15.1934   20.4163 N   0  0  0  0  0  0
  -31.7944  -14.7437   19.9930 O   0  0  0  0  0  0
  -21.6643   -6.8893   21.4240 O   0  0  0  0  0  0
  -22.3540  -14.5543   20.6718 O   0  0  0  0  0  0
  -24.6299  -31.8590   23.2031 C   0  0  0  0  0  0
  -25.9142  -32.4766   23.8372 C   0  0  1  0  0  0
  -27.2196  -27.3011   20.1145 C   0  0  0  0  0  0
  -25.5939  -33.8569   24.2308 N   0  0  0  0  0  0
  -23.4241  -30.4848   21.5477 C   0  0  2  0  0  0
  -24.8695  -28.9430   20.1104 C   0  0  0  0  0  0
  -22.7513  -29.4630   22.4939 C   0  0  0  0  0  0
  -18.0319  -28.1369   22.8489 C   0  0  0  0  0  0
  -24.1491  -36.7277   23.2637 C   0  0  0  0  0  0
  -25.9673  -30.7851   21.3780 C   0  0  0  0  0  0
  -26.0417  -29.4126   20.7159 C   0  0  0  0  0  0
  -27.2202  -28.6026   20.7089 C   0  0  0  0  0  0
  -26.0206  -26.8943   19.4807 C   0  0  0  0  0  0
  -24.8617  -27.6890   19.4848 C   0  0  0  0  0  0
  -23.6372  -29.8239   20.1615 C   0  0  0  0  0  0
  -25.4109  -36.3077   24.0329 C   0  0  1  0  0  0
  -20.5912  -28.3707   23.1252 C   0  0  2  0  0  0
  -20.6821  -26.9418   22.5395 C   0  0  0  0  0  0
  -19.5781  -26.6382   21.5217 C   0  0  0  0  0  0
  -18.1965  -26.7927   22.1622 C   0  0  0  0  0  0
  -19.1567  -28.8849   23.2869 C   0  0  0  0  0  0
  -18.9487  -30.1447   23.8880 C   0  0  0  0  0  0
  -17.6483  -30.6577   24.0559 C   0  0  0  0  0  0
  -25.9036  -34.9451   23.5127 C   0  0  0  0  0  0
  -16.5373  -29.9052   23.6341 C   0  0  0  0  0  0
  -16.7305  -28.6464   23.0368 C   0  0  0  0  0  0
  -26.4524  -31.6574   25.0739 C   0  0  0  0  0  0
  -25.3729  -31.3667   26.1425 C   0  0  0  0  0  0
  -27.0402  -30.3018   24.6185 C   0  0  0  0  0  0
  -27.6072  -32.4309   25.7509 C   0  0  0  0  0  0
  -27.5587  -37.1785   24.8464 C   0  0  0  0  0  0
  -21.4223  -29.3048   22.3647 N   0  0  0  0  0  0
  -26.4307  -37.3755   23.9389 N   0  0  0  0  0  0
  -24.6932  -31.0587   22.1003 N   0  0  0  0  0  0
  -23.4224  -28.8193   23.3052 O   0  0  0  0  0  0
  -28.3206  -26.4222   20.1736 O   0  0  0  0  0  0
  -26.5606  -34.8915   22.4699 O   0  0  0  0  0  0
  -23.5452  -32.1408   23.7330 O   0  0  0  0  0  0
  -30.7681  -20.7666   20.3530 C   0  0  0  0  0  0
  -31.3179  -19.4778   20.6790 C   0  0  0  0  0  0
  -29.3601  -20.9702   20.3593 C   0  0  0  0  0  0
  -30.4600  -18.3610   20.9554 C   0  0  0  0  0  0
  -28.5986  -19.7930   20.6551 C   0  0  0  0  0  0
  -31.0852  -15.9065   23.7257 C   0  0  0  0  0  0
  -31.3114  -17.2301   23.0374 C   0  0  0  0  0  0
  -30.0079  -15.2715   22.8598 C   0  0  0  0  0  0
  -31.0141  -16.9939   21.5398 C   0  0  1  0  0  0
  -31.6747  -21.9372   19.9853 C   0  0  0  0  0  0
  -32.8435  -19.3496   20.7610 C   0  0  0  0  0  0
  -27.0792  -19.8092   20.6486 C   0  0  0  0  0  0
  -28.6420  -22.3313   19.9309 C   0  0  0  0  0  0
  -29.1037  -23.8201   20.3275 C   0  0  0  0  0  0
  -28.0623  -24.9718   19.9492 C   0  0  0  0  0  0
  -29.1225  -18.5625   20.9415 N   0  0  0  0  0  0
  -30.3117  -15.6332   21.4625 N   0  0  0  0  0  0
  -31.4651  -12.4917   19.1797 H   0  0  0  0  0  0
  -30.3193  -11.4181   19.9114 H   0  0  0  0  0  0
  -29.7923  -11.8191   17.4733 H   0  0  0  0  0  0
  -29.6477  -13.5309   17.7840 H   0  0  0  0  0  0
  -27.8803  -11.3057   18.8581 H   0  0  0  0  0  0
  -27.3853  -12.5869   17.7842 H   0  0  0  0  0  0
  -27.6637  -14.2649   19.5114 H   0  0  0  0  0  0
  -28.6804  -12.0961   21.4056 H   0  0  0  0  0  0
  -28.3375  -13.7557   21.7936 H   0  0  0  0  0  0
  -25.2755   -9.5710   22.4790 H   0  0  0  0  0  0
  -23.9996   -7.4658   22.7489 H   0  0  0  0  0  0
  -21.0865   -8.8782   19.8935 H   0  0  0  0  0  0
  -22.3720  -10.9682   19.6161 H   0  0  0  0  0  0
  -21.1995   -7.6150   23.9716 H   0  0  0  0  0  0
  -21.1474   -6.0513   25.9071 H   0  0  0  0  0  0
  -22.0608   -2.7614   23.2821 H   0  0  0  0  0  0
  -22.4045  -11.9871   22.4796 H   0  0  0  0  0  0
  -21.1091  -13.1271   22.2576 H   0  0  0  0  0  0
  -24.6637  -15.8511   20.5456 H   0  0  0  0  0  0
  -26.2870  -15.6361   20.1259 H   0  0  0  0  0  0
  -26.7232  -32.5466   23.1133 H   0  0  0  0  0  0
  -25.0031  -33.9698   25.0420 H   0  0  0  0  0  0
  -22.7229  -31.3087   21.4086 H   0  0  0  0  0  0
  -23.3762  -35.9609   23.3299 H   0  0  0  0  0  0
  -24.3576  -36.8908   22.2054 H   0  0  0  0  0  0
  -23.7256  -37.6480   23.6672 H   0  0  0  0  0  0
  -26.1018  -31.5531   20.6157 H   0  0  0  0  0  0
  -26.8463  -30.8296   22.0089 H   0  0  0  0  0  0
  -28.1201  -28.9520   21.1977 H   0  0  0  0  0  0
  -25.9364  -25.9413   18.9816 H   0  0  0  0  0  0
  -23.9613  -27.3237   19.0078 H   0  0  0  0  0  0
  -23.7546  -30.6043   19.4080 H   0  0  0  0  0  0
  -22.7548  -29.2517   19.8663 H   0  0  0  0  0  0
  -25.1309  -36.1934   25.0825 H   0  0  0  0  0  0
  -21.0019  -28.3313   24.1361 H   0  0  0  0  0  0
  -20.5792  -26.2303   23.3601 H   0  0  0  0  0  0
  -21.6691  -26.7476   22.1139 H   0  0  0  0  0  0
  -19.6949  -25.6297   21.1239 H   0  0  0  0  0  0
  -19.6733  -27.3202   20.6756 H   0  0  0  0  0  0
  -17.4247  -26.6711   21.4000 H   0  0  0  0  0  0
  -18.0311  -26.0061   22.8995 H   0  0  0  0  0  0
  -19.7972  -30.7264   24.2250 H   0  0  0  0  0  0
  -17.5043  -31.6263   24.5170 H   0  0  0  0  0  0
  -15.5370  -30.2939   23.7686 H   0  0  0  0  0  0
  -15.8712  -28.0775   22.7081 H   0  0  0  0  0  0
  -24.5953  -30.6977   25.7703 H   0  0  0  0  0  0
  -24.8832  -32.2796   26.4831 H   0  0  0  0  0  0
  -25.8019  -30.8853   27.0219 H   0  0  0  0  0  0
  -26.2999  -29.6707   24.1241 H   0  0  0  0  0  0
  -27.4167  -29.7317   25.4690 H   0  0  0  0  0  0
  -27.8844  -30.4329   23.9403 H   0  0  0  0  0  0
  -27.2720  -33.3644   26.2039 H   0  0  0  0  0  0
  -28.3911  -32.6791   25.0345 H   0  0  0  0  0  0
  -28.0709  -31.8447   26.5454 H   0  0  0  0  0  0
  -28.2574  -38.0103   24.7524 H   0  0  0  0  0  0
  -28.1122  -36.2634   24.6313 H   0  0  0  0  0  0
  -27.2274  -37.1431   25.8854 H   0  0  0  0  0  0
  -20.9412  -29.8703   21.6792 H   0  0  0  0  0  0
  -26.0204  -38.2836   24.1397 H   0  0  0  0  0  0
  -30.7917  -16.0103   24.7713 H   0  0  0  0  0  0
  -31.9956  -15.3029   23.6945 H   0  0  0  0  0  0
  -32.3046  -17.6406   23.2205 H   0  0  0  0  0  0
  -30.5897  -17.9408   23.4459 H   0  0  0  0  0  0
  -29.0251  -15.6704   23.1181 H   0  0  0  0  0  0
  -29.9957  -14.2015   23.0723 H   0  0  0  0  0  0
  -31.9701  -16.8292   21.0530 H   0  0  0  0  0  0
  -32.7290  -21.6939   19.8810 H   0  0  0  0  0  0
  -31.6152  -22.7095   20.7519 H   0  0  0  0  0  0
  -31.3680  -22.3619   19.0290 H   0  0  0  0  0  0
  -33.2830  -19.4959   19.7735 H   0  0  0  0  0  0
  -33.2312  -18.4079   21.1370 H   0  0  0  0  0  0
  -33.2465  -20.1089   21.4328 H   0  0  0  0  0  0
  -26.7006  -20.4260   21.4646 H   0  0  0  0  0  0
  -26.6680  -18.8060   20.7756 H   0  0  0  0  0  0
  -26.6986  -20.1984   19.7050 H   0  0  0  0  0  0
  -27.6097  -22.2718   20.2676 H   0  0  0  0  0  0
  -28.5684  -22.2942   18.8429 H   0  0  0  0  0  0
  -30.0371  -24.0710   19.8301 H   0  0  0  0  0  0
  -29.2979  -23.8582   21.3995 H   0  0  0  0  0  0
  -27.1474  -24.7095   20.4833 H   0  0  0  0  0  0
  -27.8443  -24.8469   18.8872 H   0  0  0  0  0  0
  1 25  1  0  0  0
  1 30  2  0  0  0
  1 87  1  0  0  0
  2  3  1  0  0  0
  2 25  1  0  0  0
  2 88  1  0  0  0
  2 89  1  0  0  0
  3  4  1  0  0  0
  3 90  1  0  0  0
  3 91  1  0  0  0
  4  5  1  0  0  0
  4 92  1  0  0  0
  4 93  1  0  0  0
  5  6  1  0  0  0
  5 26  1  0  0  0
  5 94  1  0  0  0
  6 25  1  0  0  0
  6 95  1  0  0  0
  6 96  1  0  0  0
  7  8  2  0  0  0
  7 26  1  0  0  0
  7 29  1  0  0  0
  8  9  1  0  0  0
  8 22  1  0  0  0
  9 10  1  0  0  0
  9 27  2  0  0  0
 10 11  2  0  0  0
 10 15  1  0  0  0
 11 12  1  0  0  0
 11 97  1  0  0  0
 12 13  2  0  0  0
 12 98  1  0  0  0
 13 14  1  0  0  0
 13 31  1  0  0  0
 14 15  2  0  0  0
 14 99  1  0  0  0
 15100  1  0  0  0
 16 17  2  0  0  0
 16 21  1  0  0  0
 16 31  1  0  0  0
 17 18  1  0  0  0
 17101  1  0  0  0
 18 19  2  0  0  0
 18102  1  0  0  0
 19 20  1  0  0  0
 19 24  1  0  0  0
 20 21  2  0  0  0
 20103  1  0  0  0
 21 23  1  0  0  0
 22 28  1  0  0  0
 22 32  2  0  0  0
 26 27  1  0  0  0
 28104  1  0  0  0
 28105  1  0  0  0
 29106  1  0  0  0
 29107  1  0  0  0
 33 34  1  0  0  0
 33 66  1  0  0  0
 33 70  2  0  0  0
 34 36  1  0  0  0
 34 59  1  0  0  0
 34108  1  0  0  0
 35 44  2  0  0  0
 35 45  1  0  0  0
 35 68  1  0  0  0
 36 56  1  0  0  0
 36109  1  0  0  0
 37 39  1  0  0  0
 37 47  1  0  0  0
 37 66  1  0  0  0
 37110  1  0  0  0
 38 43  2  0  0  0
 38 46  1  0  0  0
 38 47  1  0  0  0
 39 64  1  0  0  0
 39 67  2  0  0  0
 40 52  1  0  0  0
 40 53  2  0  0  0
 40 58  1  0  0  0
 41111  1  0  0  0
 41112  1  0  0  0
 41113  1  0  0  0
 41 48  1  0  0  0
 42 43  1  0  0  0
 42 66  1  0  0  0
 42114  1  0  0  0
 42115  1  0  0  0
 43 44  1  0  0  0
 44116  1  0  0  0
 45 46  2  0  0  0
 45117  1  0  0  0
 46118  1  0  0  0
 47119  1  0  0  0
 47120  1  0  0  0
 48 56  1  0  0  0
 48 65  1  0  0  0
 48121  1  0  0  0
 49 50  1  0  0  0
 49 53  1  0  0  0
 49 64  1  0  0  0
 49122  1  0  0  0
 50 51  1  0  0  0
 50123  1  0  0  0
 50124  1  0  0  0
 51 52  1  0  0  0
 51125  1  0  0  0
 51126  1  0  0  0
 52127  1  0  0  0
 52128  1  0  0  0
 53 54  1  0  0  0
 54 55  2  0  0  0
 54129  1  0  0  0
 55 57  1  0  0  0
 55130  1  0  0  0
 56 69  2  0  0  0
 57 58  2  0  0  0
 57131  1  0  0  0
 58132  1  0  0  0
 59 60  1  0  0  0
 59 61  1  0  0  0
 59 62  1  0  0  0
 60133  1  0  0  0
 60134  1  0  0  0
 60135  1  0  0  0
 61136  1  0  0  0
 61137  1  0  0  0
 61138  1  0  0  0
 62139  1  0  0  0
 62140  1  0  0  0
 62141  1  0  0  0
 63 65  1  0  0  0
 63142  1  0  0  0
 63143  1  0  0  0
 63144  1  0  0  0
 64145  1  0  0  0
 65146  1  0  0  0
 68 85  1  0  0  0
 71 72  2  0  0  0
 71 73  1  0  0  0
 71 80  1  0  0  0
 72 74  1  0  0  0
 72 81  1  0  0  0
 73 75  2  0  0  0
 73 83  1  0  0  0
 74 86  2  0  0  0
 74 79  1  0  0  0
 75 82  1  0  0  0
 75 86  1  0  0  0
 76 77  1  0  0  0
 76 78  1  0  0  0
 76147  1  0  0  0
 76148  1  0  0  0
 77 79  1  0  0  0
 77149  1  0  0  0
 77150  1  0  0  0
 78 87  1  0  0  0
 78151  1  0  0  0
 78152  1  0  0  0
 79 87  1  0  0  0
 79153  1  0  0  0
 80154  1  0  0  0
 80155  1  0  0  0
 80156  1  0  0  0
 81157  1  0  0  0
 81158  1  0  0  0
 81159  1  0  0  0
 82160  1  0  0  0
 82161  1  0  0  0
 82162  1  0  0  0
 83 84  1  0  0  0
 83163  1  0  0  0
 83164  1  0  0  0
 84 85  1  0  0  0
 84165  1  0  0  0
 84166  1  0  0  0
 85167  1  0  0  0
 85168  1  0  0  0
M  ISO  4   1 100  68 101  85 101  87 100
M  END
> <chiral flag>
0

> <version>
0

> <s_m_source_file>
/data/baiqing/PycharmProjects/Reinvent-master-3.2/result/LINK_invent/BTK/process_docking_weight1_custom_sum_contain_oxygen_bond_distance_aromatic_linkinvent_7_9_3/rearranged_h_0171.sdf

> <i_m_source_file_index>
94

> <r_mmod_Potential_Energy-OPLS-2005>
135.909439086914

> <r_mmod_Stretch_Energy-OPLS-2005>
110.55973815918

> <r_mmod_Bend_Energy-OPLS-2005>
211.659378051758

> <r_mmod_Torsional_Energy-OPLS-2005>
293.617095947266

> <r_mmod_Improper_Torsional_Energy-OPLS-2005>
8.19698715209961

> <r_mmod_Van_der_Waal_Energy-OPLS-2005>
176.032043457031

> <r_mmod_Electrostatic_Energy-OPLS-2005>
-507.819274902344

> <r_mmod_Solvation_Energy-OPLS-2005>
-205.980026245117

> <b_mmod_Minimization_Converged-OPLS-2005>
0

> <r_mmod_RMS_Derivative-OPLS-2005>
3.40951752662659

$$$$
94
                    3D
 Structure written by MMmdl.
182191  0  0  1  0            999 V2000
  -30.6202  -14.9705   20.4429 C   0  0  0  0  0  0
  -30.4459  -12.6208   19.4909 C   0  0  0  0  0  0
  -29.5321  -12.5453   18.2492 C   0  0  0  0  0  0
  -28.0645  -12.3260   18.6652 C   0  0  0  0  0  0
  -27.6336  -13.2701   19.8206 C   0  0  2  0  0  0
  -28.6858  -13.3466   20.9560 C   0  0  0  0  0  0
  -25.2510  -13.8270   20.5735 C   0  0  0  0  0  0
  -24.1797  -13.0454   20.9170 C   0  0  0  0  0  0
  -24.6450  -11.6975   20.8678 C   0  0  0  0  0  0
  -23.9102  -10.4319   21.0324 C   0  0  0  0  0  0
  -24.3608   -9.4252   21.9171 C   0  0  0  0  0  0
  -23.6275   -8.2291   22.0758 C   0  0  0  0  0  0
  -22.4201   -8.0297   21.3638 C   0  0  0  0  0  0
  -21.9832   -9.0247   20.4737 C   0  0  0  0  0  0
  -22.7229  -10.2064   20.3035 C   0  0  0  0  0  0
  -21.6789   -6.0722   22.5369 C   0  0  0  0  0  0
  -21.3998   -6.5646   23.8326 C   0  0  0  0  0  0
  -21.3782   -5.6792   24.9268 C   0  0  0  0  0  0
  -21.6080   -4.3039   24.7288 C   0  0  0  0  0  0
  -21.8738   -3.8113   23.4387 C   0  0  0  0  0  0
  -21.9097   -4.6944   22.3465 C   0  0  0  0  0  0
  -22.7762  -13.5148   21.1826 C   0  0  0  0  0  0
  -22.1583   -4.2139   21.1033 F   0  0  0  0  0  0
  -21.5740   -3.4540   25.7803 F   0  0  0  0  0  0
  -29.9669  -13.7358   20.3607 N   0  0  0  0  0  0
  -26.2970  -12.9537   20.3220 N   0  0  0  0  0  0
  -25.9408  -11.6664   20.5687 N   0  0  0  0  0  0
  -22.0470  -12.8098   22.0424 N   0  0  0  0  0  0
  -25.4239  -15.2010   20.4398 N   0  0  0  0  0  0
  -31.8159  -14.9783   20.1531 O   0  0  0  0  0  0
  -21.6618   -6.8848   21.4323 O   0  0  0  0  0  0
  -22.3473  -14.5501   20.6744 O   0  0  0  0  0  0
  -24.6458  -31.8429   23.1934 C   0  0  0  0  0  0
  -25.9212  -32.4679   23.8357 C   0  0  1  0  0  0
  -27.2252  -27.1264   20.1740 C   0  0  0  0  0  0
  -25.5939  -33.8483   24.2283 N   0  0  0  0  0  0
  -23.4552  -30.4649   21.5363 C   0  0  2  0  0  0
  -24.9103  -28.8969   20.1084 C   0  0  0  0  0  0
  -22.7595  -29.4560   22.4844 C   0  0  0  0  0  0
  -18.0315  -28.1381   22.8495 C   0  0  0  0  0  0
  -24.1512  -36.7205   23.2644 C   0  0  0  0  0  0
  -26.0096  -30.7221   21.3964 C   0  0  0  0  0  0
  -26.0835  -29.3344   20.7311 C   0  0  0  0  0  0
  -27.2384  -28.4654   20.7492 C   0  0  0  0  0  0
  -26.0249  -26.7954   19.5037 C   0  0  0  0  0  0
  -24.8882  -27.6395   19.4865 C   0  0  0  0  0  0
  -23.6902  -29.8039   20.1539 C   0  0  0  0  0  0
  -25.4141  -36.3016   24.0346 C   0  0  1  0  0  0
  -20.5935  -28.3711   23.1232 C   0  0  2  0  0  0
  -20.6807  -26.9415   22.5416 C   0  0  0  0  0  0
  -19.5785  -26.6387   21.5220 C   0  0  0  0  0  0
  -18.1962  -26.7934   22.1635 C   0  0  0  0  0  0
  -19.1575  -28.8873   23.2854 C   0  0  0  0  0  0
  -18.9484  -30.1453   23.8908 C   0  0  0  0  0  0
  -17.6482  -30.6575   24.0575 C   0  0  0  0  0  0
  -25.9089  -34.9386   23.5128 C   0  0  0  0  0  0
  -16.5374  -29.9081   23.6304 C   0  0  0  0  0  0
  -16.7312  -28.6487   23.0363 C   0  0  0  0  0  0
  -26.4572  -31.6510   25.0758 C   0  0  0  0  0  0
  -25.3780  -31.3668   26.1475 C   0  0  0  0  0  0
  -27.0490  -30.2917   24.6320 C   0  0  0  0  0  0
  -27.6162  -32.4266   25.7457 C   0  0  0  0  0  0
  -27.5605  -37.1757   24.8466 C   0  0  0  0  0  0
  -21.4290  -29.3001   22.3573 N   0  0  0  0  0  0
  -26.4316  -37.3726   23.9408 N   0  0  0  0  0  0
  -24.7232  -31.0318   22.0966 N   0  0  0  0  0  0
  -23.4229  -28.8094   23.2998 O   0  0  0  0  0  0
  -28.2760  -26.1331   20.2931 O   0  0  0  0  0  0
  -26.5681  -34.8875   22.4708 O   0  0  0  0  0  0
  -23.5574  -32.1316   23.7113 O   0  0  0  0  0  0
  -29.5314  -20.4782   20.6631 C   0  0  0  0  0  0
  -27.3763  -19.8668   19.0648 C   0  0  0  0  0  0
  -29.3624  -19.0419   20.2802 C   0  0  0  0  0  0
  -28.6957  -21.6393   20.2345 C   0  0  0  0  0  0
  -28.3114  -18.8300   19.3628 C   0  0  0  0  0  0
  -27.5823  -21.2273   19.4560 C   0  0  0  0  0  0
  -26.1323  -19.8695   16.8192 C   0  0  0  0  0  0
  -26.1021  -19.4871   18.2955 C   0  0  2  0  0  0
  -23.9387  -20.2870   17.7072 C   0  0  1  0  0  0
  -24.6583  -19.7836   16.4201 C   0  0  0  0  0  0
  -28.2338  -17.4914   18.6285 C   0  0  0  0  0  0
  -22.5384  -19.7072   17.9625 C   0  0  0  0  0  0
  -24.3669  -20.7019   15.2233 C   0  0  0  0  0  0
  -24.3268  -18.3174   16.0484 C   0  0  0  0  0  0
  -30.3926  -23.5451   20.7851 C   0  0  0  0  0  0
  -31.7362  -18.0172   20.3680 C   0  0  0  0  0  0
  -28.1050  -24.6086   19.9696 C   0  0  0  0  0  0
  -28.8921  -23.2532   20.6504 C   0  0  1  0  0  0
  -30.2799  -17.7478   20.7794 C   0  0  2  0  0  0
  -29.9130  -16.1901   20.6719 N   0  0  0  0  0  0
  -24.8639  -20.0612   18.8386 N   0  3  0  0  0  0
  -26.6565  -22.1534   19.0664 O   0  0  0  0  0  0
  -31.4767  -12.7664   19.1702 H   0  0  0  0  0  0
  -30.4354  -11.6778   20.0380 H   0  0  0  0  0  0
  -29.8569  -11.7458   17.5830 H   0  0  0  0  0  0
  -29.6258  -13.4712   17.6744 H   0  0  0  0  0  0
  -27.9513  -11.2879   18.9780 H   0  0  0  0  0  0
  -27.4161  -12.4522   17.7950 H   0  0  0  0  0  0
  -27.5745  -14.2613   19.3686 H   0  0  0  0  0  0
  -28.7827  -12.3949   21.4739 H   0  0  0  0  0  0
  -28.3876  -14.0826   21.7046 H   0  0  0  0  0  0
  -25.2747   -9.5737   22.4736 H   0  0  0  0  0  0
  -24.0054   -7.4639   22.7383 H   0  0  0  0  0  0
  -21.0683   -8.8766   19.9164 H   0  0  0  0  0  0
  -22.3648  -10.9515   19.6088 H   0  0  0  0  0  0
  -21.2068   -7.6151   23.9881 H   0  0  0  0  0  0
  -21.1910   -6.0484   25.9240 H   0  0  0  0  0  0
  -22.0462   -2.7588   23.2914 H   0  0  0  0  0  0
  -22.4152  -11.9714   22.4633 H   0  0  0  0  0  0
  -21.1160  -13.1193   22.2910 H   0  0  0  0  0  0
  -24.6696  -15.8517   20.6163 H   0  0  0  0  0  0
  -26.2796  -15.6529   20.1518 H   0  0  0  0  0  0
  -26.7287  -32.5332   23.1107 H   0  0  0  0  0  0
  -25.0023  -33.9616   25.0397 H   0  0  0  0  0  0
  -22.7581  -31.2898   21.3803 H   0  0  0  0  0  0
  -23.3807  -35.9497   23.3270 H   0  0  0  0  0  0
  -24.3641  -36.8862   22.2071 H   0  0  0  0  0  0
  -23.7237  -37.6380   23.6699 H   0  0  0  0  0  0
  -26.1857  -31.4919   20.6429 H   0  0  0  0  0  0
  -26.8685  -30.7576   22.0534 H   0  0  0  0  0  0
  -28.1241  -28.8042   21.2654 H   0  0  0  0  0  0
  -25.9219  -25.8383   19.0147 H   0  0  0  0  0  0
  -23.9822  -27.3087   18.9984 H   0  0  0  0  0  0
  -23.8411  -30.5850   19.4080 H   0  0  0  0  0  0
  -22.8073  -29.2509   19.8341 H   0  0  0  0  0  0
  -25.1326  -36.1894   25.0848 H   0  0  0  0  0  0
  -21.0052  -28.3308   24.1345 H   0  0  0  0  0  0
  -20.5651  -26.2345   23.3643 H   0  0  0  0  0  0
  -21.6681  -26.7365   22.1246 H   0  0  0  0  0  0
  -19.6930  -25.6293   21.1254 H   0  0  0  0  0  0
  -19.6731  -27.3198   20.6753 H   0  0  0  0  0  0
  -17.4242  -26.6688   21.4021 H   0  0  0  0  0  0
  -18.0316  -26.0071   22.9024 H   0  0  0  0  0  0
  -19.7951  -30.7247   24.2320 H   0  0  0  0  0  0
  -17.5028  -31.6258   24.5159 H   0  0  0  0  0  0
  -15.5370  -30.2997   23.7571 H   0  0  0  0  0  0
  -15.8722  -28.0779   22.7092 H   0  0  0  0  0  0
  -24.5935  -30.7046   25.7763 H   0  0  0  0  0  0
  -24.8990  -32.2835   26.4929 H   0  0  0  0  0  0
  -25.8067  -30.8805   27.0250 H   0  0  0  0  0  0
  -26.3164  -29.6583   24.1282 H   0  0  0  0  0  0
  -27.4104  -29.7223   25.4892 H   0  0  0  0  0  0
  -27.9065  -30.4172   23.9698 H   0  0  0  0  0  0
  -27.2833  -33.3596   26.2010 H   0  0  0  0  0  0
  -28.3925  -32.6766   25.0207 H   0  0  0  0  0  0
  -28.0897  -31.8413   26.5355 H   0  0  0  0  0  0
  -28.2591  -38.0081   24.7558 H   0  0  0  0  0  0
  -28.1153  -36.2622   24.6258 H   0  0  0  0  0  0
  -27.2334  -37.1333   25.8870 H   0  0  0  0  0  0
  -20.9513  -29.8726   21.6751 H   0  0  0  0  0  0
  -26.0190  -38.2796   24.1423 H   0  0  0  0  0  0
  -30.3593  -20.6871   21.3255 H   0  0  0  0  0  0
  -26.7938  -19.2368   16.2281 H   0  0  0  0  0  0
  -26.4906  -20.8926   16.7086 H   0  0  0  0  0  0
  -25.9174  -18.4184   18.3985 H   0  0  0  0  0  0
  -23.8301  -21.3723   17.6552 H   0  0  0  0  0  0
  -27.7408  -17.5666   17.6635 H   0  0  0  0  0  0
  -27.7205  -16.7394   19.2259 H   0  0  0  0  0  0
  -29.2310  -17.1282   18.3735 H   0  0  0  0  0  0
  -22.5695  -18.6397   18.1842 H   0  0  0  0  0  0
  -21.8913  -19.8470   17.0969 H   0  0  0  0  0  0
  -22.0634  -20.2061   18.8043 H   0  0  0  0  0  0
  -24.6566  -21.7322   15.4370 H   0  0  0  0  0  0
  -23.3032  -20.7040   14.9791 H   0  0  0  0  0  0
  -24.9251  -20.3903   14.3416 H   0  0  0  0  0  0
  -24.4261  -17.6350   16.8920 H   0  0  0  0  0  0
  -24.9971  -17.9453   15.2717 H   0  0  0  0  0  0
  -23.3075  -18.2116   15.6734 H   0  0  0  0  0  0
  -30.8082  -22.9902   21.6307 H   0  0  0  0  0  0
  -30.5753  -24.6034   20.9752 H   0  0  0  0  0  0
  -30.9441  -23.2743   19.8845 H   0  0  0  0  0  0
  -32.4341  -17.3804   20.9128 H   0  0  0  0  0  0
  -32.0141  -19.0416   20.6066 H   0  0  0  0  0  0
  -31.8942  -17.8832   19.2978 H   0  0  0  0  0  0
  -27.0487  -24.3970   20.1326 H   0  0  0  0  0  0
  -28.2615  -24.5618   18.8920 H   0  0  0  0  0  0
  -28.5125  -23.2719   21.6746 H   0  0  0  0  0  0
  -30.2669  -17.9011   21.8600 H   0  0  0  0  0  0
  -28.9470  -16.0149   20.8969 H   0  0  0  0  0  0
  -25.1281  -20.9617   19.2220 H   0  0  0  0  0  0
  -24.4844  -19.4789   19.5649 H   0  0  0  0  0  0
  -27.0285  -23.0155   18.9265 H   0  0  0  0  0  0
  1 25  1  0  0  0
  1 30  2  0  0  0
  1 90  1  0  0  0
  2  3  1  0  0  0
  2 25  1  0  0  0
  2 93  1  0  0  0
  2 94  1  0  0  0
  3  4  1  0  0  0
  3 95  1  0  0  0
  3 96  1  0  0  0
  4  5  1  0  0  0
  4 97  1  0  0  0
  4 98  1  0  0  0
  5  6  1  0  0  0
  5 26  1  0  0  0
  5 99  1  0  0  0
  6 25  1  0  0  0
  6100  1  0  0  0
  6101  1  0  0  0
  7  8  2  0  0  0
  7 26  1  0  0  0
  7 29  1  0  0  0
  8  9  1  0  0  0
  8 22  1  0  0  0
  9 10  1  0  0  0
  9 27  2  0  0  0
 10 11  2  0  0  0
 10 15  1  0  0  0
 11 12  1  0  0  0
 11102  1  0  0  0
 12 13  2  0  0  0
 12103  1  0  0  0
 13 14  1  0  0  0
 13 31  1  0  0  0
 14 15  2  0  0  0
 14104  1  0  0  0
 15105  1  0  0  0
 16 17  2  0  0  0
 16 21  1  0  0  0
 16 31  1  0  0  0
 17 18  1  0  0  0
 17106  1  0  0  0
 18 19  2  0  0  0
 18107  1  0  0  0
 19 20  1  0  0  0
 19 24  1  0  0  0
 20 21  2  0  0  0
 20108  1  0  0  0
 21 23  1  0  0  0
 22 28  1  0  0  0
 22 32  2  0  0  0
 26 27  1  0  0  0
 28109  1  0  0  0
 28110  1  0  0  0
 29111  1  0  0  0
 29112  1  0  0  0
 33 34  1  0  0  0
 33 66  1  0  0  0
 33 70  2  0  0  0
 34 36  1  0  0  0
 34 59  1  0  0  0
 34113  1  0  0  0
 35 44  2  0  0  0
 35 45  1  0  0  0
 35 68  1  0  0  0
 36 56  1  0  0  0
 36114  1  0  0  0
 37 39  1  0  0  0
 37 47  1  0  0  0
 37 66  1  0  0  0
 37115  1  0  0  0
 38 43  2  0  0  0
 38 46  1  0  0  0
 38 47  1  0  0  0
 39 64  1  0  0  0
 39 67  2  0  0  0
 40 52  1  0  0  0
 40 53  2  0  0  0
 40 58  1  0  0  0
 41116  1  0  0  0
 41117  1  0  0  0
 41118  1  0  0  0
 41 48  1  0  0  0
 42 43  1  0  0  0
 42 66  1  0  0  0
 42119  1  0  0  0
 42120  1  0  0  0
 43 44  1  0  0  0
 44121  1  0  0  0
 45 46  2  0  0  0
 45122  1  0  0  0
 46123  1  0  0  0
 47124  1  0  0  0
 47125  1  0  0  0
 48 56  1  0  0  0
 48 65  1  0  0  0
 48126  1  0  0  0
 49 50  1  0  0  0
 49 53  1  0  0  0
 49 64  1  0  0  0
 49127  1  0  0  0
 50 51  1  0  0  0
 50128  1  0  0  0
 50129  1  0  0  0
 51 52  1  0  0  0
 51130  1  0  0  0
 51131  1  0  0  0
 52132  1  0  0  0
 52133  1  0  0  0
 53 54  1  0  0  0
 54 55  2  0  0  0
 54134  1  0  0  0
 55 57  1  0  0  0
 55135  1  0  0  0
 56 69  2  0  0  0
 57 58  2  0  0  0
 57136  1  0  0  0
 58137  1  0  0  0
 59 60  1  0  0  0
 59 61  1  0  0  0
 59 62  1  0  0  0
 60138  1  0  0  0
 60139  1  0  0  0
 60140  1  0  0  0
 61141  1  0  0  0
 61142  1  0  0  0
 61143  1  0  0  0
 62144  1  0  0  0
 62145  1  0  0  0
 62146  1  0  0  0
 63 65  1  0  0  0
 63147  1  0  0  0
 63148  1  0  0  0
 63149  1  0  0  0
 64150  1  0  0  0
 65151  1  0  0  0
 68 87  1  0  0  0
 71 73  2  0  0  0
 71 74  1  0  0  0
 71152  1  0  0  0
 72 75  2  0  0  0
 72 76  1  0  0  0
 72 78  1  0  0  0
 73 75  1  0  0  0
 73 89  1  0  0  0
 74 76  2  0  0  0
 74 88  1  0  0  0
 75 81  1  0  0  0
 76 92  1  0  0  0
 77 78  1  0  0  0
 77 80  1  0  0  0
 77153  1  0  0  0
 77154  1  0  0  0
 78 91  1  0  0  0
 78155  1  0  0  0
 79 80  1  0  0  0
 79 82  1  0  0  0
 79 91  1  0  0  0
 79156  1  0  0  0
 80 83  1  0  0  0
 80 84  1  0  0  0
 81157  1  0  0  0
 81158  1  0  0  0
 81159  1  0  0  0
 82160  1  0  0  0
 82161  1  0  0  0
 82162  1  0  0  0
 83163  1  0  0  0
 83164  1  0  0  0
 83165  1  0  0  0
 84166  1  0  0  0
 84167  1  0  0  0
 84168  1  0  0  0
 85169  1  0  0  0
 85170  1  0  0  0
 85171  1  0  0  0
 85 88  1  0  0  0
 86172  1  0  0  0
 86173  1  0  0  0
 86174  1  0  0  0
 86 89  1  0  0  0
 87 88  1  0  0  0
 87175  1  0  0  0
 87176  1  0  0  0
 88177  1  0  0  0
 89 90  1  0  0  0
 89178  1  0  0  0
 90179  1  0  0  0
 91180  1  0  0  0
 91181  1  0  0  0
 92182  1  0  0  0
M  CHG  1  91   1
M  ISO  4   1 100  68 101  87 101  90 100
M  END
> <chiral flag>
0

> <version>
0

> <s_m_source_file>
/data/baiqing/PycharmProjects/Reinvent-master-3.2/result/LINK_invent/BTK/process_docking_weight1_custom_sum_contain_oxygen_bond_distance_aromatic_linkinvent_7_9_3/rearranged_h_0171.sdf

> <i_m_source_file_index>
95

> <r_mmod_Potential_Energy-OPLS-2005>
451.559783935547

> <r_mmod_Stretch_Energy-OPLS-2005>
299.830383300781

> <r_mmod_Bend_Energy-OPLS-2005>
305.321166992188

> <r_mmod_Torsional_Energy-OPLS-2005>
292.087677001953

> <r_mmod_Improper_Torsional_Energy-OPLS-2005>
4.02612924575806

> <r_mmod_Van_der_Waal_Energy-OPLS-2005>
148.823989868164

> <r_mmod_Electrostatic_Energy-OPLS-2005>
-378.383239746094

> <r_mmod_Solvation_Energy-OPLS-2005>
-429.122314453125

> <b_mmod_Minimization_Converged-OPLS-2005>
0

> <r_mmod_RMS_Derivative-OPLS-2005>
7.89263105392456

$$$$
