0
                    3D
 Structure written by MMmdl.
155163  0  0  1  0            999 V2000
  -30.5167  -14.9197   20.4436 C   0  0  0  0  0  0
  -30.4545  -12.5683   19.4970 C   0  0  0  0  0  0
  -29.5267  -12.5356   18.2584 C   0  0  0  0  0  0
  -28.0579  -12.3222   18.6734 C   0  0  0  0  0  0
  -27.6405  -13.2399   19.8517 C   0  0  2  0  0  0
  -28.6835  -13.2213   20.9908 C   0  0  0  0  0  0
  -25.2502  -13.8194   20.5670 C   0  0  0  0  0  0
  -24.1805  -13.0434   20.9188 C   0  0  0  0  0  0
  -24.6409  -11.6918   20.8746 C   0  0  0  0  0  0
  -23.9085  -10.4295   21.0411 C   0  0  0  0  0  0
  -24.3631   -9.4206   21.9188 C   0  0  0  0  0  0
  -23.6298   -8.2246   22.0757 C   0  0  0  0  0  0
  -22.4279   -8.0290   21.3549 C   0  0  0  0  0  0
  -21.9922   -9.0263   20.4650 C   0  0  0  0  0  0
  -22.7257  -10.2139   20.3060 C   0  0  0  0  0  0
  -21.6858   -6.0744   22.5277 C   0  0  0  0  0  0
  -21.4014   -6.5644   23.8211 C   0  0  0  0  0  0
  -21.3656   -5.6795   24.9171 C   0  0  0  0  0  0
  -21.6044   -4.3059   24.7220 C   0  0  0  0  0  0
  -21.8817   -3.8151   23.4342 C   0  0  0  0  0  0
  -21.9191   -4.6971   22.3399 C   0  0  0  0  0  0
  -22.7831  -13.5224   21.1851 C   0  0  0  0  0  0
  -22.1662   -4.2157   21.0978 F   0  0  0  0  0  0
  -21.5625   -3.4539   25.7730 F   0  0  0  0  0  0
  -29.9692  -13.6397   20.4105 N   0  0  0  0  0  0
  -26.2944  -12.9415   20.3299 N   0  0  0  0  0  0
  -25.9351  -11.6554   20.5773 N   0  0  0  0  0  0
  -22.0477  -12.8219   22.0415 N   0  0  0  0  0  0
  -25.4150  -15.1911   20.4049 N   0  0  0  0  0  0
  -31.6963  -15.0567   20.0993 O   0  0  0  0  0  0
  -21.6642   -6.8888   21.4244 O   0  0  0  0  0  0
  -22.3510  -14.5531   20.6704 O   0  0  0  0  0  0
  -24.6441  -31.8448   23.1894 C   0  0  0  0  0  0
  -25.9212  -32.4701   23.8284 C   0  0  1  0  0  0
  -27.2154  -27.1342   20.1478 C   0  0  0  0  0  0
  -25.5964  -33.8507   24.2204 N   0  0  0  0  0  0
  -23.4480  -30.4667   21.5347 C   0  0  2  0  0  0
  -24.8974  -28.8966   20.1117 C   0  0  0  0  0  0
  -22.7579  -29.4555   22.4849 C   0  0  0  0  0  0
  -18.0310  -28.1393   22.8480 C   0  0  0  0  0  0
  -24.1492  -36.7247   23.2643 C   0  0  0  0  0  0
  -26.0058  -30.7180   21.3899 C   0  0  0  0  0  0
  -26.0770  -29.3302   20.7295 C   0  0  0  0  0  0
  -27.2378  -28.4660   20.7310 C   0  0  0  0  0  0
  -26.0066  -26.8086   19.4897 C   0  0  0  0  0  0
  -24.8755  -27.6486   19.4770 C   0  0  0  0  0  0
  -23.6750  -29.7988   20.1544 C   0  0  0  0  0  0
  -25.4121  -36.3031   24.0324 C   0  0  1  0  0  0
  -20.5927  -28.3716   23.1231 C   0  0  2  0  0  0
  -20.6795  -26.9418   22.5395 C   0  0  0  0  0  0
  -19.5768  -26.6372   21.5211 C   0  0  0  0  0  0
  -18.1948  -26.7932   22.1622 C   0  0  0  0  0  0
  -19.1570  -28.8869   23.2849 C   0  0  0  0  0  0
  -18.9486  -30.1467   23.8872 C   0  0  0  0  0  0
  -17.6482  -30.6591   24.0556 C   0  0  0  0  0  0
  -25.9070  -34.9409   23.5067 C   0  0  0  0  0  0
  -16.5371  -29.9078   23.6340 C   0  0  0  0  0  0
  -16.7295  -28.6497   23.0361 C   0  0  0  0  0  0
  -26.4536  -31.6565   25.0718 C   0  0  0  0  0  0
  -25.3728  -31.3765   26.1417 C   0  0  0  0  0  0
  -27.0400  -30.2959   24.6293 C   0  0  0  0  0  0
  -27.6068  -32.4334   25.7499 C   0  0  0  0  0  0
  -27.5576  -37.1777   24.8472 C   0  0  0  0  0  0
  -21.4265  -29.3055   22.3605 N   0  0  0  0  0  0
  -26.4283  -37.3743   23.9418 N   0  0  0  0  0  0
  -24.7189  -31.0303   22.0932 N   0  0  0  0  0  0
  -23.4221  -28.8084   23.2990 O   0  0  0  0  0  0
  -28.2540  -26.1303   20.2170 O   0  0  0  0  0  0
  -26.5643  -34.8909   22.4637 O   0  0  0  0  0  0
  -23.5558  -32.1320   23.7109 O   0  0  0  0  0  0
  -30.1237  -19.9456   19.9522 C   0  0  0  0  0  0
  -30.4170  -18.5093   20.0099 C   0  0  0  0  0  0
  -28.1279  -19.5725   21.1499 C   0  0  0  0  0  0
  -28.9450  -20.5622   20.5093 C   0  0  0  0  0  0
  -29.5674  -17.5315   20.6439 C   0  0  0  0  0  0
  -28.4194  -18.1482   21.2387 C   0  0  0  0  0  0
  -28.9107  -23.3368   20.2764 C   0  0  0  0  0  0
  -26.1645  -16.6276   23.7148 C   0  0  0  0  0  0
  -27.8736  -24.6214   20.1044 C   0  0  0  0  0  0
  -26.6108  -17.7681   22.7957 C   0  0  0  0  0  0
  -28.4293  -22.0083   20.4047 N   0  0  0  0  0  0
  -29.6600  -16.0043   20.7376 N   0  0  0  0  0  0
  -30.1244  -23.5577   20.2724 O   0  0  0  0  0  0
  -27.5920  -17.2607   21.9003 O   0  0  0  0  0  0
  -31.4856  -12.7416   19.1852 H   0  0  0  0  0  0
  -30.4558  -11.6037   20.0066 H   0  0  0  0  0  0
  -29.8401  -11.7475   17.5726 H   0  0  0  0  0  0
  -29.6177  -13.4738   17.7086 H   0  0  0  0  0  0
  -27.9480  -11.2771   18.9657 H   0  0  0  0  0  0
  -27.3948  -12.4703   17.8204 H   0  0  0  0  0  0
  -27.6170  -14.2514   19.4457 H   0  0  0  0  0  0
  -28.7612  -12.2269   21.4328 H   0  0  0  0  0  0
  -28.3824  -13.8902   21.7989 H   0  0  0  0  0  0
  -25.2770   -9.5683   22.4765 H   0  0  0  0  0  0
  -24.0001   -7.4641   22.7479 H   0  0  0  0  0  0
  -21.0848   -8.8787   19.8957 H   0  0  0  0  0  0
  -22.3713  -10.9683   19.6170 H   0  0  0  0  0  0
  -21.2009   -7.6150   23.9718 H   0  0  0  0  0  0
  -21.1478   -6.0522   25.9075 H   0  0  0  0  0  0
  -22.0597   -2.7613   23.2834 H   0  0  0  0  0  0
  -22.4094  -11.9878   22.4800 H   0  0  0  0  0  0
  -21.1100  -13.1255   22.2626 H   0  0  0  0  0  0
  -24.6483  -15.8411   20.5322 H   0  0  0  0  0  0
  -26.2803  -15.6482   20.1493 H   0  0  0  0  0  0
  -26.7268  -32.5308   23.1006 H   0  0  0  0  0  0
  -25.0140  -33.9629   25.0371 H   0  0  0  0  0  0
  -22.7512  -31.2926   21.3802 H   0  0  0  0  0  0
  -23.3774  -35.9562   23.3286 H   0  0  0  0  0  0
  -24.3577  -36.8888   22.2062 H   0  0  0  0  0  0
  -23.7228  -37.6431   23.6681 H   0  0  0  0  0  0
  -26.1636  -31.4742   20.6194 H   0  0  0  0  0  0
  -26.8762  -30.7660   22.0326 H   0  0  0  0  0  0
  -28.1343  -28.7922   21.2394 H   0  0  0  0  0  0
  -25.8870  -25.8613   18.9890 H   0  0  0  0  0  0
  -23.9750  -27.3102   18.9834 H   0  0  0  0  0  0
  -23.8141  -30.5738   19.4001 H   0  0  0  0  0  0
  -22.7907  -29.2408   19.8399 H   0  0  0  0  0  0
  -25.1307  -36.1858   25.0816 H   0  0  0  0  0  0
  -21.0023  -28.3299   24.1350 H   0  0  0  0  0  0
  -20.5694  -26.2330   23.3611 H   0  0  0  0  0  0
  -21.6661  -26.7421   22.1185 H   0  0  0  0  0  0
  -19.6930  -25.6275   21.1250 H   0  0  0  0  0  0
  -19.6704  -27.3176   20.6737 H   0  0  0  0  0  0
  -17.4216  -26.6683   21.4025 H   0  0  0  0  0  0
  -18.0344  -26.0077   22.9020 H   0  0  0  0  0  0
  -19.7968  -30.7291   24.2227 H   0  0  0  0  0  0
  -17.5041  -31.6275   24.5154 H   0  0  0  0  0  0
  -15.5376  -30.2975   23.7682 H   0  0  0  0  0  0
  -15.8696  -28.0805   22.7096 H   0  0  0  0  0  0
  -24.5900  -30.7116   25.7740 H   0  0  0  0  0  0
  -24.8934  -32.2960   26.4789 H   0  0  0  0  0  0
  -25.8015  -30.8967   27.0227 H   0  0  0  0  0  0
  -26.3014  -29.6679   24.1293 H   0  0  0  0  0  0
  -27.4016  -29.7248   25.4855 H   0  0  0  0  0  0
  -27.8924  -30.4200   23.9611 H   0  0  0  0  0  0
  -27.2668  -33.3675   26.1982 H   0  0  0  0  0  0
  -28.3930  -32.6820   25.0357 H   0  0  0  0  0  0
  -28.0676  -31.8517   26.5492 H   0  0  0  0  0  0
  -28.2578  -38.0087   24.7515 H   0  0  0  0  0  0
  -28.1083  -36.2612   24.6297 H   0  0  0  0  0  0
  -27.2293  -37.1420   25.8874 H   0  0  0  0  0  0
  -20.9463  -29.8780   21.6796 H   0  0  0  0  0  0
  -26.0153  -38.2809   24.1426 H   0  0  0  0  0  0
  -30.8186  -20.5799   19.4202 H   0  0  0  0  0  0
  -31.3172  -18.1589   19.5247 H   0  0  0  0  0  0
  -27.2096  -19.9366   21.5844 H   0  0  0  0  0  0
  -25.3841  -16.9624   24.3989 H   0  0  0  0  0  0
  -26.9971  -16.2616   24.3160 H   0  0  0  0  0  0
  -25.7701  -15.7860   23.1462 H   0  0  0  0  0  0
  -27.0477  -24.4445   20.7942 H   0  0  0  0  0  0
  -27.4709  -24.4723   19.1041 H   0  0  0  0  0  0
  -27.0115  -18.5756   23.4107 H   0  0  0  0  0  0
  -25.7593  -18.1552   22.2347 H   0  0  0  0  0  0
  -27.4220  -22.0417   20.4845 H   0  0  0  0  0  0
  -28.7897  -15.6387   21.0946 H   0  0  0  0  0  0
  1 25  1  0  0  0
  1 30  2  0  0  0
  1 82  1  0  0  0
  2  3  1  0  0  0
  2 25  1  0  0  0
  2 85  1  0  0  0
  2 86  1  0  0  0
  3  4  1  0  0  0
  3 87  1  0  0  0
  3 88  1  0  0  0
  4  5  1  0  0  0
  4 89  1  0  0  0
  4 90  1  0  0  0
  5  6  1  0  0  0
  5 26  1  0  0  0
  5 91  1  0  0  0
  6 25  1  0  0  0
  6 92  1  0  0  0
  6 93  1  0  0  0
  7  8  2  0  0  0
  7 26  1  0  0  0
  7 29  1  0  0  0
  8  9  1  0  0  0
  8 22  1  0  0  0
  9 10  1  0  0  0
  9 27  2  0  0  0
 10 11  2  0  0  0
 10 15  1  0  0  0
 11 12  1  0  0  0
 11 94  1  0  0  0
 12 13  2  0  0  0
 12 95  1  0  0  0
 13 14  1  0  0  0
 13 31  1  0  0  0
 14 15  2  0  0  0
 14 96  1  0  0  0
 15 97  1  0  0  0
 16 17  2  0  0  0
 16 21  1  0  0  0
 16 31  1  0  0  0
 17 18  1  0  0  0
 17 98  1  0  0  0
 18 19  2  0  0  0
 18 99  1  0  0  0
 19 20  1  0  0  0
 19 24  1  0  0  0
 20 21  2  0  0  0
 20100  1  0  0  0
 21 23  1  0  0  0
 22 28  1  0  0  0
 22 32  2  0  0  0
 26 27  1  0  0  0
 28101  1  0  0  0
 28102  1  0  0  0
 29103  1  0  0  0
 29104  1  0  0  0
 33 34  1  0  0  0
 33 66  1  0  0  0
 33 70  2  0  0  0
 34 36  1  0  0  0
 34 59  1  0  0  0
 34105  1  0  0  0
 35 44  2  0  0  0
 35 45  1  0  0  0
 35 68  1  0  0  0
 36 56  1  0  0  0
 36106  1  0  0  0
 37 39  1  0  0  0
 37 47  1  0  0  0
 37 66  1  0  0  0
 37107  1  0  0  0
 38 43  2  0  0  0
 38 46  1  0  0  0
 38 47  1  0  0  0
 39 64  1  0  0  0
 39 67  2  0  0  0
 40 52  1  0  0  0
 40 53  2  0  0  0
 40 58  1  0  0  0
 41108  1  0  0  0
 41109  1  0  0  0
 41110  1  0  0  0
 41 48  1  0  0  0
 42 43  1  0  0  0
 42 66  1  0  0  0
 42111  1  0  0  0
 42112  1  0  0  0
 43 44  1  0  0  0
 44113  1  0  0  0
 45 46  2  0  0  0
 45114  1  0  0  0
 46115  1  0  0  0
 47116  1  0  0  0
 47117  1  0  0  0
 48 56  1  0  0  0
 48 65  1  0  0  0
 48118  1  0  0  0
 49 50  1  0  0  0
 49 53  1  0  0  0
 49 64  1  0  0  0
 49119  1  0  0  0
 50 51  1  0  0  0
 50120  1  0  0  0
 50121  1  0  0  0
 51 52  1  0  0  0
 51122  1  0  0  0
 51123  1  0  0  0
 52124  1  0  0  0
 52125  1  0  0  0
 53 54  1  0  0  0
 54 55  2  0  0  0
 54126  1  0  0  0
 55 57  1  0  0  0
 55127  1  0  0  0
 56 69  2  0  0  0
 57 58  2  0  0  0
 57128  1  0  0  0
 58129  1  0  0  0
 59 60  1  0  0  0
 59 61  1  0  0  0
 59 62  1  0  0  0
 60130  1  0  0  0
 60131  1  0  0  0
 60132  1  0  0  0
 61133  1  0  0  0
 61134  1  0  0  0
 61135  1  0  0  0
 62136  1  0  0  0
 62137  1  0  0  0
 62138  1  0  0  0
 63 65  1  0  0  0
 63139  1  0  0  0
 63140  1  0  0  0
 63141  1  0  0  0
 64142  1  0  0  0
 65143  1  0  0  0
 68 79  1  0  0  0
 71 72  2  0  0  0
 71 74  1  0  0  0
 71144  1  0  0  0
 72 75  1  0  0  0
 72145  1  0  0  0
 73 74  2  0  0  0
 73 76  1  0  0  0
 73146  1  0  0  0
 74 81  1  0  0  0
 75 76  2  0  0  0
 75 82  1  0  0  0
 76 84  1  0  0  0
 77 79  1  0  0  0
 77 81  1  0  0  0
 77 83  2  0  0  0
 78 80  1  0  0  0
 78147  1  0  0  0
 78148  1  0  0  0
 78149  1  0  0  0
 79150  1  0  0  0
 79151  1  0  0  0
 80 84  1  0  0  0
 80152  1  0  0  0
 80153  1  0  0  0
 81154  1  0  0  0
 82155  1  0  0  0
M  ISO  4   1 100  68 101  79 101  82 100
M  END
> <chiral flag>
0

> <version>
0

> <s_m_source_file>
/data/baiqing/PycharmProjects/Reinvent-master-3.2/result/LINK_invent/BTK/process_docking_weight1_custom_sum_contain_oxygen_bond_distance_aromatic_linkinvent_7_9_3/rearranged_h_0010.sdf

> <i_m_source_file_index>
1

> <r_mmod_Potential_Energy-OPLS-2005>
391.687438964844

> <r_mmod_Stretch_Energy-OPLS-2005>
224.541213989258

> <r_mmod_Bend_Energy-OPLS-2005>
287.023162841797

> <r_mmod_Torsional_Energy-OPLS-2005>
228.551940917969

> <r_mmod_Improper_Torsional_Energy-OPLS-2005>
3.51475477218628

> <r_mmod_Van_der_Waal_Energy-OPLS-2005>
130.241592407227

> <r_mmod_Electrostatic_Energy-OPLS-2005>
-422.3271484375

> <r_mmod_Solvation_Energy-OPLS-2005>
-245.056076049805

> <b_mmod_Minimization_Converged-OPLS-2005>
0

> <r_mmod_RMS_Derivative-OPLS-2005>
1.20860064029694

$$$$
1
                    3D
 Structure written by MMmdl.
148156  0  0  1  0            999 V2000
  -30.5089  -14.9122   20.4351 C   0  0  0  0  0  0
  -30.4555  -12.5616   19.4901 C   0  0  0  0  0  0
  -29.5264  -12.5317   18.2520 C   0  0  0  0  0  0
  -28.0565  -12.3206   18.6662 C   0  0  0  0  0  0
  -27.6389  -13.2354   19.8464 C   0  0  2  0  0  0
  -28.6835  -13.2119   20.9840 C   0  0  0  0  0  0
  -25.2500  -13.8182   20.5681 C   0  0  0  0  0  0
  -24.1806  -13.0431   20.9230 C   0  0  0  0  0  0
  -24.6402  -11.6911   20.8760 C   0  0  0  0  0  0
  -23.9076  -10.4289   21.0416 C   0  0  0  0  0  0
  -24.3624   -9.4201   21.9190 C   0  0  0  0  0  0
  -23.6294   -8.2240   22.0758 C   0  0  0  0  0  0
  -22.4276   -8.0282   21.3547 C   0  0  0  0  0  0
  -21.9915   -9.0259   20.4652 C   0  0  0  0  0  0
  -22.7249  -10.2135   20.3063 C   0  0  0  0  0  0
  -21.6853   -6.0736   22.5279 C   0  0  0  0  0  0
  -21.4015   -6.5640   23.8212 C   0  0  0  0  0  0
  -21.3659   -5.6793   24.9175 C   0  0  0  0  0  0
  -21.6044   -4.3056   24.7225 C   0  0  0  0  0  0
  -21.8818   -3.8147   23.4347 C   0  0  0  0  0  0
  -21.9192   -4.6963   22.3402 C   0  0  0  0  0  0
  -22.7826  -13.5218   21.1880 C   0  0  0  0  0  0
  -22.1661   -4.2149   21.0979 F   0  0  0  0  0  0
  -21.5626   -3.4539   25.7738 F   0  0  0  0  0  0
  -29.9682  -13.6307   20.4025 N   0  0  0  0  0  0
  -26.2925  -12.9392   20.3247 N   0  0  0  0  0  0
  -25.9332  -11.6537   20.5742 N   0  0  0  0  0  0
  -22.0465  -12.8213   22.0434 N   0  0  0  0  0  0
  -25.4162  -15.1901   20.4026 N   0  0  0  0  0  0
  -31.6970  -15.0562   20.1234 O   0  0  0  0  0  0
  -21.6639   -6.8881   21.4242 O   0  0  0  0  0  0
  -22.3518  -14.5520   20.6717 O   0  0  0  0  0  0
  -24.6422  -31.8456   23.1895 C   0  0  0  0  0  0
  -25.9199  -32.4704   23.8282 C   0  0  1  0  0  0
  -27.2214  -27.1519   20.1469 C   0  0  0  0  0  0
  -25.5952  -33.8509   24.2201 N   0  0  0  0  0  0
  -23.4453  -30.4654   21.5351 C   0  0  2  0  0  0
  -24.8953  -28.8959   20.1105 C   0  0  0  0  0  0
  -22.7562  -29.4552   22.4864 C   0  0  0  0  0  0
  -18.0305  -28.1392   22.8480 C   0  0  0  0  0  0
  -24.1492  -36.7261   23.2642 C   0  0  0  0  0  0
  -26.0006  -30.7245   21.3860 C   0  0  0  0  0  0
  -26.0728  -29.3373   20.7273 C   0  0  0  0  0  0
  -27.2369  -28.4820   20.7280 C   0  0  0  0  0  0
  -26.0152  -26.8096   19.4937 C   0  0  0  0  0  0
  -24.8787  -27.6448   19.4786 C   0  0  0  0  0  0
  -23.6712  -29.7962   20.1539 C   0  0  0  0  0  0
  -25.4122  -36.3038   24.0318 C   0  0  1  0  0  0
  -20.5917  -28.3717   23.1239 C   0  0  2  0  0  0
  -20.6789  -26.9422   22.5403 C   0  0  0  0  0  0
  -19.5760  -26.6380   21.5213 C   0  0  0  0  0  0
  -18.1944  -26.7931   22.1628 C   0  0  0  0  0  0
  -19.1562  -28.8873   23.2853 C   0  0  0  0  0  0
  -18.9477  -30.1469   23.8878 C   0  0  0  0  0  0
  -17.6473  -30.6589   24.0558 C   0  0  0  0  0  0
  -25.9071  -34.9412   23.5068 C   0  0  0  0  0  0
  -16.5365  -29.9082   23.6333 C   0  0  0  0  0  0
  -16.7289  -28.6500   23.0357 C   0  0  0  0  0  0
  -26.4522  -31.6564   25.0716 C   0  0  0  0  0  0
  -25.3712  -31.3749   26.1414 C   0  0  0  0  0  0
  -27.0385  -30.2963   24.6283 C   0  0  0  0  0  0
  -27.6053  -32.4328   25.7502 C   0  0  0  0  0  0
  -27.5575  -37.1788   24.8465 C   0  0  0  0  0  0
  -21.4255  -29.3048   22.3615 N   0  0  0  0  0  0
  -26.4286  -37.3749   23.9408 N   0  0  0  0  0  0
  -24.7158  -31.0325   22.0923 N   0  0  0  0  0  0
  -23.4210  -28.8096   23.3008 O   0  0  0  0  0  0
  -28.2796  -26.1752   20.2158 O   0  0  0  0  0  0
  -26.5655  -34.8906   22.4645 O   0  0  0  0  0  0
  -23.5543  -32.1325   23.7122 O   0  0  0  0  0  0
  -30.4979  -18.5502   20.3681 C   0  0  0  0  0  0
  -30.1918  -19.9876   20.3030 C   0  0  0  0  0  0
  -28.2013  -18.0915   20.6159 C   0  0  0  0  0  0
  -29.5058  -17.5125   20.5303 C   0  0  0  0  0  0
  -28.8604  -20.5427   20.3787 C   0  0  0  0  0  0
  -27.8953  -19.4982   20.5370 C   0  0  0  0  0  0
  -27.9814  -24.6559   20.0800 C   0  0  0  0  0  0
  -28.9666  -23.3090   20.3181 C   0  0  0  0  0  0
  -29.6181  -15.9877   20.6567 N   0  0  0  0  0  0
  -28.3436  -21.9122   20.2867 O   0  0  0  0  0  0
  -26.5907  -19.8568   20.6201 F   0  0  0  0  0  0
  -31.4867  -12.7370   19.1791 H   0  0  0  0  0  0
  -30.4561  -11.5962   19.9987 H   0  0  0  0  0  0
  -29.8377  -11.7454   17.5632 H   0  0  0  0  0  0
  -29.6191  -13.4710   17.7045 H   0  0  0  0  0  0
  -27.9424  -11.2750   18.9545 H   0  0  0  0  0  0
  -27.3955  -12.4747   17.8124 H   0  0  0  0  0  0
  -27.6160  -14.2467   19.4405 H   0  0  0  0  0  0
  -28.7608  -12.2155   21.4218 H   0  0  0  0  0  0
  -28.3869  -13.8773   21.7964 H   0  0  0  0  0  0
  -25.2769   -9.5672   22.4767 H   0  0  0  0  0  0
  -24.0000   -7.4629   22.7477 H   0  0  0  0  0  0
  -21.0844   -8.8784   19.8957 H   0  0  0  0  0  0
  -22.3712  -10.9678   19.6174 H   0  0  0  0  0  0
  -21.2010   -7.6149   23.9716 H   0  0  0  0  0  0
  -21.1480   -6.0523   25.9077 H   0  0  0  0  0  0
  -22.0597   -2.7608   23.2848 H   0  0  0  0  0  0
  -22.4083  -11.9878   22.4830 H   0  0  0  0  0  0
  -21.1084  -13.1242   22.2641 H   0  0  0  0  0  0
  -24.6295  -15.8261   20.4770 H   0  0  0  0  0  0
  -26.2182  -15.6066   19.9499 H   0  0  0  0  0  0
  -26.7265  -32.5316   23.1014 H   0  0  0  0  0  0
  -25.0077  -33.9626   25.0333 H   0  0  0  0  0  0
  -22.7472  -31.2910   21.3818 H   0  0  0  0  0  0
  -23.3757  -35.9590   23.3292 H   0  0  0  0  0  0
  -24.3578  -36.8903   22.2059 H   0  0  0  0  0  0
  -23.7245  -37.6454   23.6684 H   0  0  0  0  0  0
  -26.1536  -31.4794   20.6136 H   0  0  0  0  0  0
  -26.8721  -30.7754   22.0269 H   0  0  0  0  0  0
  -28.1335  -28.8156   21.2313 H   0  0  0  0  0  0
  -25.9102  -25.8553   19.0018 H   0  0  0  0  0  0
  -23.9801  -27.3016   18.9846 H   0  0  0  0  0  0
  -23.8070  -30.5716   19.3992 H   0  0  0  0  0  0
  -22.7864  -29.2380   19.8427 H   0  0  0  0  0  0
  -25.1309  -36.1869   25.0810 H   0  0  0  0  0  0
  -21.0010  -28.3306   24.1360 H   0  0  0  0  0  0
  -20.5685  -26.2330   23.3621 H   0  0  0  0  0  0
  -21.6654  -26.7429   22.1199 H   0  0  0  0  0  0
  -19.6921  -25.6286   21.1255 H   0  0  0  0  0  0
  -19.6694  -27.3179   20.6734 H   0  0  0  0  0  0
  -17.4210  -26.6673   21.4035 H   0  0  0  0  0  0
  -18.0346  -26.0078   22.9030 H   0  0  0  0  0  0
  -19.7952  -30.7291   24.2241 H   0  0  0  0  0  0
  -17.5025  -31.6268   24.5163 H   0  0  0  0  0  0
  -15.5364  -30.2977   23.7663 H   0  0  0  0  0  0
  -15.8691  -28.0808   22.7085 H   0  0  0  0  0  0
  -24.5894  -30.7094   25.7734 H   0  0  0  0  0  0
  -24.8898  -32.2930   26.4792 H   0  0  0  0  0  0
  -25.7998  -30.8952   27.0222 H   0  0  0  0  0  0
  -26.2998  -29.6690   24.1281 H   0  0  0  0  0  0
  -27.3997  -29.7256   25.4848 H   0  0  0  0  0  0
  -27.8906  -30.4204   23.9597 H   0  0  0  0  0  0
  -27.2645  -33.3646   26.2028 H   0  0  0  0  0  0
  -28.3892  -32.6860   25.0352 H   0  0  0  0  0  0
  -28.0689  -31.8488   26.5463 H   0  0  0  0  0  0
  -28.2585  -38.0091   24.7510 H   0  0  0  0  0  0
  -28.1079  -36.2622   24.6295 H   0  0  0  0  0  0
  -27.2293  -37.1437   25.8868 H   0  0  0  0  0  0
  -20.9461  -29.8768   21.6802 H   0  0  0  0  0  0
  -26.0155  -38.2818   24.1409 H   0  0  0  0  0  0
  -31.5349  -18.2525   20.2974 H   0  0  0  0  0  0
  -31.0171  -20.6732   20.1773 H   0  0  0  0  0  0
  -27.3590  -17.4297   20.7477 H   0  0  0  0  0  0
  -27.1214  -24.4889   20.7294 H   0  0  0  0  0  0
  -27.6025  -24.5258   19.0670 H   0  0  0  0  0  0
  -29.4518  -23.4117   21.2888 H   0  0  0  0  0  0
  -29.7707  -23.3307   19.5826 H   0  0  0  0  0  0
  -28.7268  -15.5824   20.8973 H   0  0  0  0  0  0
  1 25  1  0  0  0
  1 30  2  0  0  0
  1 79  1  0  0  0
  2  3  1  0  0  0
  2 25  1  0  0  0
  2 82  1  0  0  0
  2 83  1  0  0  0
  3  4  1  0  0  0
  3 84  1  0  0  0
  3 85  1  0  0  0
  4  5  1  0  0  0
  4 86  1  0  0  0
  4 87  1  0  0  0
  5  6  1  0  0  0
  5 26  1  0  0  0
  5 88  1  0  0  0
  6 25  1  0  0  0
  6 89  1  0  0  0
  6 90  1  0  0  0
  7  8  2  0  0  0
  7 26  1  0  0  0
  7 29  1  0  0  0
  8  9  1  0  0  0
  8 22  1  0  0  0
  9 10  1  0  0  0
  9 27  2  0  0  0
 10 11  2  0  0  0
 10 15  1  0  0  0
 11 12  1  0  0  0
 11 91  1  0  0  0
 12 13  2  0  0  0
 12 92  1  0  0  0
 13 14  1  0  0  0
 13 31  1  0  0  0
 14 15  2  0  0  0
 14 93  1  0  0  0
 15 94  1  0  0  0
 16 17  2  0  0  0
 16 21  1  0  0  0
 16 31  1  0  0  0
 17 18  1  0  0  0
 17 95  1  0  0  0
 18 19  2  0  0  0
 18 96  1  0  0  0
 19 20  1  0  0  0
 19 24  1  0  0  0
 20 21  2  0  0  0
 20 97  1  0  0  0
 21 23  1  0  0  0
 22 28  1  0  0  0
 22 32  2  0  0  0
 26 27  1  0  0  0
 28 98  1  0  0  0
 28 99  1  0  0  0
 29100  1  0  0  0
 29101  1  0  0  0
 33 34  1  0  0  0
 33 66  1  0  0  0
 33 70  2  0  0  0
 34 36  1  0  0  0
 34 59  1  0  0  0
 34102  1  0  0  0
 35 44  2  0  0  0
 35 45  1  0  0  0
 35 68  1  0  0  0
 36 56  1  0  0  0
 36103  1  0  0  0
 37 39  1  0  0  0
 37 47  1  0  0  0
 37 66  1  0  0  0
 37104  1  0  0  0
 38 43  2  0  0  0
 38 46  1  0  0  0
 38 47  1  0  0  0
 39 64  1  0  0  0
 39 67  2  0  0  0
 40 52  1  0  0  0
 40 53  2  0  0  0
 40 58  1  0  0  0
 41105  1  0  0  0
 41106  1  0  0  0
 41107  1  0  0  0
 41 48  1  0  0  0
 42 43  1  0  0  0
 42 66  1  0  0  0
 42108  1  0  0  0
 42109  1  0  0  0
 43 44  1  0  0  0
 44110  1  0  0  0
 45 46  2  0  0  0
 45111  1  0  0  0
 46112  1  0  0  0
 47113  1  0  0  0
 47114  1  0  0  0
 48 56  1  0  0  0
 48 65  1  0  0  0
 48115  1  0  0  0
 49 50  1  0  0  0
 49 53  1  0  0  0
 49 64  1  0  0  0
 49116  1  0  0  0
 50 51  1  0  0  0
 50117  1  0  0  0
 50118  1  0  0  0
 51 52  1  0  0  0
 51119  1  0  0  0
 51120  1  0  0  0
 52121  1  0  0  0
 52122  1  0  0  0
 53 54  1  0  0  0
 54 55  2  0  0  0
 54123  1  0  0  0
 55 57  1  0  0  0
 55124  1  0  0  0
 56 69  2  0  0  0
 57 58  2  0  0  0
 57125  1  0  0  0
 58126  1  0  0  0
 59 60  1  0  0  0
 59 61  1  0  0  0
 59 62  1  0  0  0
 60127  1  0  0  0
 60128  1  0  0  0
 60129  1  0  0  0
 61130  1  0  0  0
 61131  1  0  0  0
 61132  1  0  0  0
 62133  1  0  0  0
 62134  1  0  0  0
 62135  1  0  0  0
 63 65  1  0  0  0
 63136  1  0  0  0
 63137  1  0  0  0
 63138  1  0  0  0
 64139  1  0  0  0
 65140  1  0  0  0
 68 77  1  0  0  0
 71 72  2  0  0  0
 71 74  1  0  0  0
 71141  1  0  0  0
 72 75  1  0  0  0
 72142  1  0  0  0
 73 74  2  0  0  0
 73 76  1  0  0  0
 73143  1  0  0  0
 74 79  1  0  0  0
 75 76  2  0  0  0
 75 80  1  0  0  0
 76 81  1  0  0  0
 77 78  1  0  0  0
 77144  1  0  0  0
 77145  1  0  0  0
 78 80  1  0  0  0
 78146  1  0  0  0
 78147  1  0  0  0
 79148  1  0  0  0
M  ISO  4   1 100  68 101  77 101  79 100
M  END
> <chiral flag>
0

> <version>
0

> <s_m_source_file>
/data/baiqing/PycharmProjects/Reinvent-master-3.2/result/LINK_invent/BTK/process_docking_weight1_custom_sum_contain_oxygen_bond_distance_aromatic_linkinvent_7_9_3/rearranged_h_0010.sdf

> <i_m_source_file_index>
2

> <r_mmod_Potential_Energy-OPLS-2005>
491.091247558594

> <r_mmod_Stretch_Energy-OPLS-2005>
216.953765869141

> <r_mmod_Bend_Energy-OPLS-2005>
302.484619140625

> <r_mmod_Torsional_Energy-OPLS-2005>
212.021713256836

> <r_mmod_Improper_Torsional_Energy-OPLS-2005>
4.76716709136963

> <r_mmod_Van_der_Waal_Energy-OPLS-2005>
130.573699951172

> <r_mmod_Electrostatic_Energy-OPLS-2005>
-337.487060546875

> <r_mmod_Solvation_Energy-OPLS-2005>
-212.451721191406

> <b_mmod_Minimization_Converged-OPLS-2005>
0

> <r_mmod_RMS_Derivative-OPLS-2005>
0.366873770952225

$$$$
2
                    3D
 Structure written by MMmdl.
148156  0  0  1  0            999 V2000
  -30.5114  -14.9205   20.4353 C   0  0  0  0  0  0
  -30.4549  -12.5673   19.4922 C   0  0  0  0  0  0
  -29.5268  -12.5346   18.2535 C   0  0  0  0  0  0
  -28.0572  -12.3215   18.6680 C   0  0  0  0  0  0
  -27.6390  -13.2376   19.8470 C   0  0  2  0  0  0
  -28.6835  -13.2190   20.9848 C   0  0  0  0  0  0
  -25.2503  -13.8190   20.5691 C   0  0  0  0  0  0
  -24.1807  -13.0434   20.9226 C   0  0  0  0  0  0
  -24.6405  -11.6914   20.8755 C   0  0  0  0  0  0
  -23.9078  -10.4290   21.0412 C   0  0  0  0  0  0
  -24.3625   -9.4204   21.9188 C   0  0  0  0  0  0
  -23.6297   -8.2241   22.0756 C   0  0  0  0  0  0
  -22.4279   -8.0282   21.3545 C   0  0  0  0  0  0
  -21.9918   -9.0256   20.4646 C   0  0  0  0  0  0
  -22.7250  -10.2133   20.3058 C   0  0  0  0  0  0
  -21.6852   -6.0736   22.5280 C   0  0  0  0  0  0
  -21.4014   -6.5640   23.8213 C   0  0  0  0  0  0
  -21.3661   -5.6793   24.9175 C   0  0  0  0  0  0
  -21.6046   -4.3055   24.7225 C   0  0  0  0  0  0
  -21.8819   -3.8147   23.4346 C   0  0  0  0  0  0
  -21.9192   -4.6964   22.3403 C   0  0  0  0  0  0
  -22.7826  -13.5215   21.1878 C   0  0  0  0  0  0
  -22.1661   -4.2152   21.0980 F   0  0  0  0  0  0
  -21.5630   -3.4538   25.7737 F   0  0  0  0  0  0
  -29.9672  -13.6392   20.4024 N   0  0  0  0  0  0
  -26.2929  -12.9403   20.3256 N   0  0  0  0  0  0
  -25.9336  -11.6544   20.5741 N   0  0  0  0  0  0
  -22.0467  -12.8206   22.0429 N   0  0  0  0  0  0
  -25.4169  -15.1913   20.4062 N   0  0  0  0  0  0
  -31.6995  -15.0581   20.1214 O   0  0  0  0  0  0
  -21.6640   -6.8880   21.4242 O   0  0  0  0  0  0
  -22.3514  -14.5520   20.6719 O   0  0  0  0  0  0
  -24.6438  -31.8449   23.1897 C   0  0  0  0  0  0
  -25.9212  -32.4699   23.8283 C   0  0  1  0  0  0
  -27.2193  -27.1419   20.1447 C   0  0  0  0  0  0
  -25.5962  -33.8505   24.2199 N   0  0  0  0  0  0
  -23.4471  -30.4658   21.5355 C   0  0  2  0  0  0
  -24.8972  -28.8971   20.1103 C   0  0  0  0  0  0
  -22.7569  -29.4554   22.4861 C   0  0  0  0  0  0
  -18.0306  -28.1397   22.8477 C   0  0  0  0  0  0
  -24.1494  -36.7255   23.2641 C   0  0  0  0  0  0
  -26.0043  -30.7201   21.3890 C   0  0  0  0  0  0
  -26.0760  -29.3328   20.7288 C   0  0  0  0  0  0
  -27.2382  -28.4719   20.7298 C   0  0  0  0  0  0
  -26.0119  -26.8124   19.4852 C   0  0  0  0  0  0
  -24.8781  -27.6496   19.4735 C   0  0  0  0  0  0
  -23.6735  -29.7979   20.1543 C   0  0  0  0  0  0
  -25.4126  -36.3034   24.0315 C   0  0  1  0  0  0
  -20.5919  -28.3725   23.1233 C   0  0  2  0  0  0
  -20.6792  -26.9428   22.5402 C   0  0  0  0  0  0
  -19.5764  -26.6384   21.5212 C   0  0  0  0  0  0
  -18.1946  -26.7935   22.1624 C   0  0  0  0  0  0
  -19.1563  -28.8879   23.2847 C   0  0  0  0  0  0
  -18.9478  -30.1475   23.8873 C   0  0  0  0  0  0
  -17.6474  -30.6593   24.0560 C   0  0  0  0  0  0
  -25.9074  -34.9409   23.5064 C   0  0  0  0  0  0
  -16.5366  -29.9085   23.6337 C   0  0  0  0  0  0
  -16.7290  -28.6504   23.0357 C   0  0  0  0  0  0
  -26.4533  -31.6563   25.0721 C   0  0  0  0  0  0
  -25.3718  -31.3750   26.1415 C   0  0  0  0  0  0
  -27.0398  -30.2959   24.6302 C   0  0  0  0  0  0
  -27.6062  -32.4328   25.7508 C   0  0  0  0  0  0
  -27.5577  -37.1786   24.8466 C   0  0  0  0  0  0
  -21.4262  -29.3051   22.3605 N   0  0  0  0  0  0
  -26.4290  -37.3746   23.9406 N   0  0  0  0  0  0
  -24.7182  -31.0309   22.0931 N   0  0  0  0  0  0
  -23.4211  -28.8097   23.3008 O   0  0  0  0  0  0
  -28.2625  -26.1444   20.2158 O   0  0  0  0  0  0
  -26.5654  -34.8904   22.4638 O   0  0  0  0  0  0
  -23.5557  -32.1324   23.7117 O   0  0  0  0  0  0
  -27.9747  -19.5529   20.6422 C   0  0  0  0  0  0
  -30.2517  -19.9892   20.2292 C   0  0  0  0  0  0
  -28.2527  -18.1388   20.7224 C   0  0  0  0  0  0
  -30.5328  -18.5470   20.2971 C   0  0  0  0  0  0
  -28.9418  -20.5772   20.3930 C   0  0  0  0  0  0
  -29.5365  -17.5311   20.5470 C   0  0  0  0  0  0
  -28.9267  -23.3605   20.2937 C   0  0  0  0  0  0
  -27.9013  -24.6395   20.0445 C   0  0  0  0  0  0
  -28.4495  -22.0266   20.2703 N   0  0  0  0  0  0
  -29.6297  -16.0040   20.6635 N   0  0  0  0  0  0
  -30.1229  -23.5910   20.4895 O   0  0  0  0  0  0
  -31.4864  -12.7415   19.1813 H   0  0  0  0  0  0
  -30.4554  -11.6027   20.0023 H   0  0  0  0  0  0
  -29.8401  -11.7482   17.5656 H   0  0  0  0  0  0
  -29.6180  -13.4738   17.7054 H   0  0  0  0  0  0
  -27.9451  -11.2762   18.9579 H   0  0  0  0  0  0
  -27.3957  -12.4733   17.8143 H   0  0  0  0  0  0
  -27.6148  -14.2484   19.4398 H   0  0  0  0  0  0
  -28.7626  -12.2241   21.4257 H   0  0  0  0  0  0
  -28.3856  -13.8864   21.7950 H   0  0  0  0  0  0
  -25.2770   -9.5679   22.4764 H   0  0  0  0  0  0
  -24.0004   -7.4632   22.7476 H   0  0  0  0  0  0
  -21.0850   -8.8777   19.8951 H   0  0  0  0  0  0
  -22.3712  -10.9674   19.6168 H   0  0  0  0  0  0
  -21.2005   -7.6149   23.9718 H   0  0  0  0  0  0
  -21.1485   -6.0523   25.9079 H   0  0  0  0  0  0
  -22.0597   -2.7609   23.2845 H   0  0  0  0  0  0
  -22.4083  -11.9868   22.4820 H   0  0  0  0  0  0
  -21.1082  -13.1231   22.2628 H   0  0  0  0  0  0
  -24.6348  -15.8318   20.4896 H   0  0  0  0  0  0
  -26.2317  -15.6172   19.9853 H   0  0  0  0  0  0
  -26.7277  -32.5307   23.1011 H   0  0  0  0  0  0
  -25.0101  -33.9623   25.0342 H   0  0  0  0  0  0
  -22.7496  -31.2920   21.3822 H   0  0  0  0  0  0
  -23.3760  -35.9583   23.3294 H   0  0  0  0  0  0
  -24.3578  -36.8897   22.2058 H   0  0  0  0  0  0
  -23.7246  -37.6448   23.6682 H   0  0  0  0  0  0
  -26.1607  -31.4756   20.6179 H   0  0  0  0  0  0
  -26.8743  -30.7686   22.0321 H   0  0  0  0  0  0
  -28.1343  -28.8006   21.2370 H   0  0  0  0  0  0
  -25.8980  -25.8642   18.9841 H   0  0  0  0  0  0
  -23.9793  -27.3113   18.9762 H   0  0  0  0  0  0
  -23.8099  -30.5737   19.4000 H   0  0  0  0  0  0
  -22.7884  -29.2404   19.8425 H   0  0  0  0  0  0
  -25.1314  -36.1864   25.0807 H   0  0  0  0  0  0
  -21.0012  -28.3317   24.1353 H   0  0  0  0  0  0
  -20.5691  -26.2338   23.3621 H   0  0  0  0  0  0
  -21.6656  -26.7436   22.1197 H   0  0  0  0  0  0
  -19.6926  -25.6289   21.1256 H   0  0  0  0  0  0
  -19.6700  -27.3182   20.6732 H   0  0  0  0  0  0
  -17.4214  -26.6680   21.4028 H   0  0  0  0  0  0
  -18.0346  -26.0083   22.9026 H   0  0  0  0  0  0
  -19.7954  -30.7301   24.2231 H   0  0  0  0  0  0
  -17.5025  -31.6269   24.5167 H   0  0  0  0  0  0
  -15.5364  -30.2977   23.7675 H   0  0  0  0  0  0
  -15.8692  -28.0813   22.7085 H   0  0  0  0  0  0
  -24.5907  -30.7087   25.7737 H   0  0  0  0  0  0
  -24.8897  -32.2931   26.4783 H   0  0  0  0  0  0
  -25.8004  -30.8964   27.0230 H   0  0  0  0  0  0
  -26.3018  -29.6679   24.1299 H   0  0  0  0  0  0
  -27.4000  -29.7258   25.4876 H   0  0  0  0  0  0
  -27.8931  -30.4193   23.9629 H   0  0  0  0  0  0
  -27.2656  -33.3649   26.2029 H   0  0  0  0  0  0
  -28.3906  -32.6854   25.0361 H   0  0  0  0  0  0
  -28.0694  -31.8490   26.5473 H   0  0  0  0  0  0
  -28.2587  -38.0090   24.7509 H   0  0  0  0  0  0
  -28.1082  -36.2617   24.6299 H   0  0  0  0  0  0
  -27.2290  -37.1441   25.8868 H   0  0  0  0  0  0
  -20.9473  -29.8764   21.6784 H   0  0  0  0  0  0
  -26.0157  -38.2815   24.1407 H   0  0  0  0  0  0
  -26.9454  -19.8521   20.7809 H   0  0  0  0  0  0
  -31.0796  -20.6531   20.0229 H   0  0  0  0  0  0
  -27.4098  -17.4937   20.9252 H   0  0  0  0  0  0
  -31.5547  -18.2269   20.1490 H   0  0  0  0  0  0
  -27.0275  -24.4465   20.6678 H   0  0  0  0  0  0
  -27.5723  -24.5107   19.0136 H   0  0  0  0  0  0
  -27.4446  -22.0564   20.1609 H   0  0  0  0  0  0
  -28.7368  -15.6100   20.9166 H   0  0  0  0  0  0
  1 25  1  0  0  0
  1 30  2  0  0  0
  1 80  1  0  0  0
  2  3  1  0  0  0
  2 25  1  0  0  0
  2 82  1  0  0  0
  2 83  1  0  0  0
  3  4  1  0  0  0
  3 84  1  0  0  0
  3 85  1  0  0  0
  4  5  1  0  0  0
  4 86  1  0  0  0
  4 87  1  0  0  0
  5  6  1  0  0  0
  5 26  1  0  0  0
  5 88  1  0  0  0
  6 25  1  0  0  0
  6 89  1  0  0  0
  6 90  1  0  0  0
  7  8  2  0  0  0
  7 26  1  0  0  0
  7 29  1  0  0  0
  8  9  1  0  0  0
  8 22  1  0  0  0
  9 10  1  0  0  0
  9 27  2  0  0  0
 10 11  2  0  0  0
 10 15  1  0  0  0
 11 12  1  0  0  0
 11 91  1  0  0  0
 12 13  2  0  0  0
 12 92  1  0  0  0
 13 14  1  0  0  0
 13 31  1  0  0  0
 14 15  2  0  0  0
 14 93  1  0  0  0
 15 94  1  0  0  0
 16 17  2  0  0  0
 16 21  1  0  0  0
 16 31  1  0  0  0
 17 18  1  0  0  0
 17 95  1  0  0  0
 18 19  2  0  0  0
 18 96  1  0  0  0
 19 20  1  0  0  0
 19 24  1  0  0  0
 20 21  2  0  0  0
 20 97  1  0  0  0
 21 23  1  0  0  0
 22 28  1  0  0  0
 22 32  2  0  0  0
 26 27  1  0  0  0
 28 98  1  0  0  0
 28 99  1  0  0  0
 29100  1  0  0  0
 29101  1  0  0  0
 33 34  1  0  0  0
 33 66  1  0  0  0
 33 70  2  0  0  0
 34 36  1  0  0  0
 34 59  1  0  0  0
 34102  1  0  0  0
 35 44  2  0  0  0
 35 45  1  0  0  0
 35 68  1  0  0  0
 36 56  1  0  0  0
 36103  1  0  0  0
 37 39  1  0  0  0
 37 47  1  0  0  0
 37 66  1  0  0  0
 37104  1  0  0  0
 38 43  2  0  0  0
 38 46  1  0  0  0
 38 47  1  0  0  0
 39 64  1  0  0  0
 39 67  2  0  0  0
 40 52  1  0  0  0
 40 53  2  0  0  0
 40 58  1  0  0  0
 41105  1  0  0  0
 41106  1  0  0  0
 41107  1  0  0  0
 41 48  1  0  0  0
 42 43  1  0  0  0
 42 66  1  0  0  0
 42108  1  0  0  0
 42109  1  0  0  0
 43 44  1  0  0  0
 44110  1  0  0  0
 45 46  2  0  0  0
 45111  1  0  0  0
 46112  1  0  0  0
 47113  1  0  0  0
 47114  1  0  0  0
 48 56  1  0  0  0
 48 65  1  0  0  0
 48115  1  0  0  0
 49 50  1  0  0  0
 49 53  1  0  0  0
 49 64  1  0  0  0
 49116  1  0  0  0
 50 51  1  0  0  0
 50117  1  0  0  0
 50118  1  0  0  0
 51 52  1  0  0  0
 51119  1  0  0  0
 51120  1  0  0  0
 52121  1  0  0  0
 52122  1  0  0  0
 53 54  1  0  0  0
 54 55  2  0  0  0
 54123  1  0  0  0
 55 57  1  0  0  0
 55124  1  0  0  0
 56 69  2  0  0  0
 57 58  2  0  0  0
 57125  1  0  0  0
 58126  1  0  0  0
 59 60  1  0  0  0
 59 61  1  0  0  0
 59 62  1  0  0  0
 60127  1  0  0  0
 60128  1  0  0  0
 60129  1  0  0  0
 61130  1  0  0  0
 61131  1  0  0  0
 61132  1  0  0  0
 62133  1  0  0  0
 62134  1  0  0  0
 62135  1  0  0  0
 63 65  1  0  0  0
 63136  1  0  0  0
 63137  1  0  0  0
 63138  1  0  0  0
 64139  1  0  0  0
 65140  1  0  0  0
 68 78  1  0  0  0
 71 73  2  0  0  0
 71 75  1  0  0  0
 71141  1  0  0  0
 72 74  1  0  0  0
 72 75  2  0  0  0
 72142  1  0  0  0
 73 76  1  0  0  0
 73143  1  0  0  0
 74 76  2  0  0  0
 74144  1  0  0  0
 75 79  1  0  0  0
 76 80  1  0  0  0
 77 78  1  0  0  0
 77 79  1  0  0  0
 77 81  2  0  0  0
 78145  1  0  0  0
 78146  1  0  0  0
 79147  1  0  0  0
 80148  1  0  0  0
M  ISO  4   1 100  68 101  78 101  80 100
M  END
> <chiral flag>
0

> <version>
0

> <s_m_source_file>
/data/baiqing/PycharmProjects/Reinvent-master-3.2/result/LINK_invent/BTK/process_docking_weight1_custom_sum_contain_oxygen_bond_distance_aromatic_linkinvent_7_9_3/rearranged_h_0010.sdf

> <i_m_source_file_index>
3

> <r_mmod_Potential_Energy-OPLS-2005>
411.609313964844

> <r_mmod_Stretch_Energy-OPLS-2005>
219.232482910156

> <r_mmod_Bend_Energy-OPLS-2005>
281.814636230469

> <r_mmod_Torsional_Energy-OPLS-2005>
220.372116088867

> <r_mmod_Improper_Torsional_Energy-OPLS-2005>
4.48748207092285

> <r_mmod_Van_der_Waal_Energy-OPLS-2005>
130.148376464844

> <r_mmod_Electrostatic_Energy-OPLS-2005>
-374.771942138672

> <r_mmod_Solvation_Energy-OPLS-2005>
-252.214736938477

> <b_mmod_Minimization_Converged-OPLS-2005>
0

> <r_mmod_RMS_Derivative-OPLS-2005>
0.218703597784042

$$$$
3
                    3D
 Structure written by MMmdl.
152160  0  0  1  0            999 V2000
  -30.5299  -14.9182   20.4302 C   0  0  0  0  0  0
  -30.4525  -12.5619   19.4983 C   0  0  0  0  0  0
  -29.5259  -12.5291   18.2588 C   0  0  0  0  0  0
  -28.0580  -12.3173   18.6767 C   0  0  0  0  0  0
  -27.6394  -13.2416   19.8497 C   0  0  2  0  0  0
  -28.6837  -13.2323   20.9871 C   0  0  0  0  0  0
  -25.2488  -13.8200   20.5696 C   0  0  0  0  0  0
  -24.1786  -13.0433   20.9188 C   0  0  0  0  0  0
  -24.6402  -11.6918   20.8751 C   0  0  0  0  0  0
  -23.9079  -10.4287   21.0407 C   0  0  0  0  0  0
  -24.3623   -9.4201   21.9185 C   0  0  0  0  0  0
  -23.6290   -8.2242   22.0757 C   0  0  0  0  0  0
  -22.4272   -8.0285   21.3547 C   0  0  0  0  0  0
  -21.9912   -9.0259   20.4649 C   0  0  0  0  0  0
  -22.7247  -10.2133   20.3055 C   0  0  0  0  0  0
  -21.6853   -6.0732   22.5282 C   0  0  0  0  0  0
  -21.4016   -6.5639   23.8215 C   0  0  0  0  0  0
  -21.3659   -5.6790   24.9175 C   0  0  0  0  0  0
  -21.6043   -4.3052   24.7227 C   0  0  0  0  0  0
  -21.8817   -3.8144   23.4349 C   0  0  0  0  0  0
  -21.9190   -4.6958   22.3403 C   0  0  0  0  0  0
  -22.7808  -13.5214   21.1855 C   0  0  0  0  0  0
  -22.1657   -4.2148   21.0979 F   0  0  0  0  0  0
  -21.5626   -3.4539   25.7741 F   0  0  0  0  0  0
  -29.9717  -13.6418   20.4040 N   0  0  0  0  0  0
  -26.2941  -12.9429   20.3300 N   0  0  0  0  0  0
  -25.9340  -11.6560   20.5759 N   0  0  0  0  0  0
  -22.0458  -12.8220   22.0423 N   0  0  0  0  0  0
  -25.4127  -15.1928   20.4135 N   0  0  0  0  0  0
  -31.7126  -15.0444   20.0946 O   0  0  0  0  0  0
  -21.6637   -6.8883   21.4248 O   0  0  0  0  0  0
  -22.3493  -14.5515   20.6697 O   0  0  0  0  0  0
  -24.6441  -31.8437   23.1901 C   0  0  0  0  0  0
  -25.9220  -32.4696   23.8283 C   0  0  1  0  0  0
  -27.2217  -27.1374   20.1448 C   0  0  0  0  0  0
  -25.5975  -33.8503   24.2204 N   0  0  0  0  0  0
  -23.4483  -30.4652   21.5343 C   0  0  2  0  0  0
  -24.8996  -28.8949   20.1098 C   0  0  0  0  0  0
  -22.7574  -29.4547   22.4844 C   0  0  0  0  0  0
  -18.0309  -28.1395   22.8463 C   0  0  0  0  0  0
  -24.1489  -36.7244   23.2644 C   0  0  0  0  0  0
  -26.0066  -30.7165   21.3918 C   0  0  0  0  0  0
  -26.0782  -29.3299   20.7297 C   0  0  0  0  0  0
  -27.2395  -28.4676   20.7303 C   0  0  0  0  0  0
  -26.0135  -26.8078   19.4876 C   0  0  0  0  0  0
  -24.8802  -27.6460   19.4753 C   0  0  0  0  0  0
  -23.6780  -29.7985   20.1527 C   0  0  0  0  0  0
  -25.4118  -36.3027   24.0329 C   0  0  1  0  0  0
  -20.5921  -28.3732   23.1218 C   0  0  2  0  0  0
  -20.6786  -26.9428   22.5397 C   0  0  0  0  0  0
  -19.5767  -26.6378   21.5199 C   0  0  0  0  0  0
  -18.1946  -26.7929   22.1606 C   0  0  0  0  0  0
  -19.1566  -28.8877   23.2833 C   0  0  0  0  0  0
  -18.9486  -30.1461   23.8875 C   0  0  0  0  0  0
  -17.6486  -30.6591   24.0549 C   0  0  0  0  0  0
  -25.9077  -34.9408   23.5070 C   0  0  0  0  0  0
  -16.5377  -29.9085   23.6336 C   0  0  0  0  0  0
  -16.7290  -28.6502   23.0360 C   0  0  0  0  0  0
  -26.4548  -31.6564   25.0725 C   0  0  0  0  0  0
  -25.3734  -31.3756   26.1423 C   0  0  0  0  0  0
  -27.0431  -30.2966   24.6316 C   0  0  0  0  0  0
  -27.6073  -32.4349   25.7506 C   0  0  0  0  0  0
  -27.5571  -37.1768   24.8464 C   0  0  0  0  0  0
  -21.4263  -29.3060   22.3590 N   0  0  0  0  0  0
  -26.4274  -37.3748   23.9426 N   0  0  0  0  0  0
  -24.7193  -31.0290   22.0936 N   0  0  0  0  0  0
  -23.4210  -28.8075   23.2985 O   0  0  0  0  0  0
  -28.2676  -26.1406   20.2143 O   0  0  0  0  0  0
  -26.5643  -34.8900   22.4635 O   0  0  0  0  0  0
  -23.5562  -32.1319   23.7114 O   0  0  0  0  0  0
  -28.1523  -19.5918   21.0047 C   0  0  0  0  0  0
  -30.5001  -18.5192   20.0117 C   0  0  0  0  0  0
  -29.0128  -20.5773   20.4188 C   0  0  0  0  0  0
  -29.6062  -17.5438   20.5875 C   0  0  0  0  0  0
  -28.4288  -18.1681   21.1076 C   0  0  0  0  0  0
  -30.2230  -19.9588   19.9293 C   0  0  0  0  0  0
  -28.9532  -23.3590   20.2937 C   0  0  0  0  0  0
  -26.5828  -17.8201   22.6075 C   0  0  0  0  0  0
  -27.9183  -24.6315   20.0376 C   0  0  0  0  0  0
  -28.4939  -22.0176   20.2598 N   0  0  0  0  0  0
  -29.6805  -16.0143   20.6978 N   0  0  0  0  0  0
  -30.1413  -23.6055   20.5159 O   0  0  0  0  0  0
  -27.5499  -17.2908   21.7099 O   0  0  0  0  0  0
  -31.1364  -20.7430   19.3091 F   0  0  0  0  0  0
  -31.4864  -12.7243   19.1892 H   0  0  0  0  0  0
  -30.4443  -11.5999   20.0133 H   0  0  0  0  0  0
  -29.8383  -11.7400   17.5731 H   0  0  0  0  0  0
  -29.6176  -13.4673   17.7091 H   0  0  0  0  0  0
  -27.9522  -11.2743   18.9775 H   0  0  0  0  0  0
  -27.3938  -12.4566   17.8230 H   0  0  0  0  0  0
  -27.6139  -14.2504   19.4373 H   0  0  0  0  0  0
  -28.7574  -12.2428   21.4390 H   0  0  0  0  0  0
  -28.3867  -13.9107   21.7881 H   0  0  0  0  0  0
  -25.2768   -9.5676   22.4764 H   0  0  0  0  0  0
  -23.9995   -7.4635   22.7486 H   0  0  0  0  0  0
  -21.0842   -8.8783   19.8963 H   0  0  0  0  0  0
  -22.3706  -10.9673   19.6171 H   0  0  0  0  0  0
  -21.2012   -7.6154   23.9721 H   0  0  0  0  0  0
  -21.1482   -6.0522   25.9080 H   0  0  0  0  0  0
  -22.0593   -2.7609   23.2850 H   0  0  0  0  0  0
  -22.4076  -11.9890   22.4817 H   0  0  0  0  0  0
  -21.1086  -13.1266   22.2639 H   0  0  0  0  0  0
  -24.6407  -15.8394   20.5255 H   0  0  0  0  0  0
  -26.2787  -15.6535   20.1640 H   0  0  0  0  0  0
  -26.7280  -32.5298   23.1001 H   0  0  0  0  0  0
  -25.0149  -33.9619   25.0374 H   0  0  0  0  0  0
  -22.7519  -31.2925   21.3800 H   0  0  0  0  0  0
  -23.3771  -35.9549   23.3278 H   0  0  0  0  0  0
  -24.3580  -36.8898   22.2058 H   0  0  0  0  0  0
  -23.7218  -37.6424   23.6698 H   0  0  0  0  0  0
  -26.1667  -31.4730   20.6231 H   0  0  0  0  0  0
  -26.8749  -30.7626   22.0376 H   0  0  0  0  0  0
  -28.1349  -28.7943   21.2404 H   0  0  0  0  0  0
  -25.8991  -25.8569   18.9917 H   0  0  0  0  0  0
  -23.9807  -27.3065   18.9805 H   0  0  0  0  0  0
  -23.8225  -30.5771   19.4026 H   0  0  0  0  0  0
  -22.7916  -29.2470   19.8328 H   0  0  0  0  0  0
  -25.1299  -36.1852   25.0818 H   0  0  0  0  0  0
  -21.0005  -28.3317   24.1341 H   0  0  0  0  0  0
  -20.5674  -26.2339   23.3617 H   0  0  0  0  0  0
  -21.6655  -26.7421   22.1197 H   0  0  0  0  0  0
  -19.6933  -25.6280   21.1255 H   0  0  0  0  0  0
  -19.6713  -27.3158   20.6702 H   0  0  0  0  0  0
  -17.4210  -26.6673   21.4010 H   0  0  0  0  0  0
  -18.0346  -26.0075   22.9008 H   0  0  0  0  0  0
  -19.7969  -30.7269   24.2248 H   0  0  0  0  0  0
  -17.5052  -31.6275   24.5146 H   0  0  0  0  0  0
  -15.5380  -30.2986   23.7685 H   0  0  0  0  0  0
  -15.8682  -28.0811   22.7110 H   0  0  0  0  0  0
  -24.5912  -30.7112   25.7739 H   0  0  0  0  0  0
  -24.8930  -32.2938   26.4810 H   0  0  0  0  0  0
  -25.8012  -30.8949   27.0228 H   0  0  0  0  0  0
  -26.3056  -29.6673   24.1319 H   0  0  0  0  0  0
  -27.4049  -29.7289   25.4896 H   0  0  0  0  0  0
  -27.8961  -30.4221   23.9644 H   0  0  0  0  0  0
  -27.2667  -33.3679   26.2010 H   0  0  0  0  0  0
  -28.3910  -32.6865   25.0348 H   0  0  0  0  0  0
  -28.0716  -31.8529   26.5476 H   0  0  0  0  0  0
  -28.2562  -38.0088   24.7537 H   0  0  0  0  0  0
  -28.1099  -36.2622   24.6264 H   0  0  0  0  0  0
  -27.2299  -37.1372   25.8866 H   0  0  0  0  0  0
  -20.9475  -29.8808   21.6797 H   0  0  0  0  0  0
  -26.0144  -38.2810   24.1461 H   0  0  0  0  0  0
  -27.2092  -19.9603   21.3767 H   0  0  0  0  0  0
  -31.4275  -18.1650   19.5867 H   0  0  0  0  0  0
  -26.1481  -17.0058   23.1878 H   0  0  0  0  0  0
  -25.7719  -18.3118   22.0696 H   0  0  0  0  0  0
  -27.0275  -18.5214   23.3162 H   0  0  0  0  0  0
  -27.0466  -24.4321   20.6616 H   0  0  0  0  0  0
  -27.5882  -24.5008   19.0077 H   0  0  0  0  0  0
  -27.4903  -22.0288   20.1454 H   0  0  0  0  0  0
  -28.7959  -15.6593   21.0310 H   0  0  0  0  0  0
  1 25  1  0  0  0
  1 30  2  0  0  0
  1 81  1  0  0  0
  2  3  1  0  0  0
  2 25  1  0  0  0
  2 85  1  0  0  0
  2 86  1  0  0  0
  3  4  1  0  0  0
  3 87  1  0  0  0
  3 88  1  0  0  0
  4  5  1  0  0  0
  4 89  1  0  0  0
  4 90  1  0  0  0
  5  6  1  0  0  0
  5 26  1  0  0  0
  5 91  1  0  0  0
  6 25  1  0  0  0
  6 92  1  0  0  0
  6 93  1  0  0  0
  7  8  2  0  0  0
  7 26  1  0  0  0
  7 29  1  0  0  0
  8  9  1  0  0  0
  8 22  1  0  0  0
  9 10  1  0  0  0
  9 27  2  0  0  0
 10 11  2  0  0  0
 10 15  1  0  0  0
 11 12  1  0  0  0
 11 94  1  0  0  0
 12 13  2  0  0  0
 12 95  1  0  0  0
 13 14  1  0  0  0
 13 31  1  0  0  0
 14 15  2  0  0  0
 14 96  1  0  0  0
 15 97  1  0  0  0
 16 17  2  0  0  0
 16 21  1  0  0  0
 16 31  1  0  0  0
 17 18  1  0  0  0
 17 98  1  0  0  0
 18 19  2  0  0  0
 18 99  1  0  0  0
 19 20  1  0  0  0
 19 24  1  0  0  0
 20 21  2  0  0  0
 20100  1  0  0  0
 21 23  1  0  0  0
 22 28  1  0  0  0
 22 32  2  0  0  0
 26 27  1  0  0  0
 28101  1  0  0  0
 28102  1  0  0  0
 29103  1  0  0  0
 29104  1  0  0  0
 33 34  1  0  0  0
 33 66  1  0  0  0
 33 70  2  0  0  0
 34 36  1  0  0  0
 34 59  1  0  0  0
 34105  1  0  0  0
 35 44  2  0  0  0
 35 45  1  0  0  0
 35 68  1  0  0  0
 36 56  1  0  0  0
 36106  1  0  0  0
 37 39  1  0  0  0
 37 47  1  0  0  0
 37 66  1  0  0  0
 37107  1  0  0  0
 38 43  2  0  0  0
 38 46  1  0  0  0
 38 47  1  0  0  0
 39 64  1  0  0  0
 39 67  2  0  0  0
 40 52  1  0  0  0
 40 53  2  0  0  0
 40 58  1  0  0  0
 41108  1  0  0  0
 41109  1  0  0  0
 41110  1  0  0  0
 41 48  1  0  0  0
 42 43  1  0  0  0
 42 66  1  0  0  0
 42111  1  0  0  0
 42112  1  0  0  0
 43 44  1  0  0  0
 44113  1  0  0  0
 45 46  2  0  0  0
 45114  1  0  0  0
 46115  1  0  0  0
 47116  1  0  0  0
 47117  1  0  0  0
 48 56  1  0  0  0
 48 65  1  0  0  0
 48118  1  0  0  0
 49 50  1  0  0  0
 49 53  1  0  0  0
 49 64  1  0  0  0
 49119  1  0  0  0
 50 51  1  0  0  0
 50120  1  0  0  0
 50121  1  0  0  0
 51 52  1  0  0  0
 51122  1  0  0  0
 51123  1  0  0  0
 52124  1  0  0  0
 52125  1  0  0  0
 53 54  1  0  0  0
 54 55  2  0  0  0
 54126  1  0  0  0
 55 57  1  0  0  0
 55127  1  0  0  0
 56 69  2  0  0  0
 57 58  2  0  0  0
 57128  1  0  0  0
 58129  1  0  0  0
 59 60  1  0  0  0
 59 61  1  0  0  0
 59 62  1  0  0  0
 60130  1  0  0  0
 60131  1  0  0  0
 60132  1  0  0  0
 61133  1  0  0  0
 61134  1  0  0  0
 61135  1  0  0  0
 62136  1  0  0  0
 62137  1  0  0  0
 62138  1  0  0  0
 63 65  1  0  0  0
 63139  1  0  0  0
 63140  1  0  0  0
 63141  1  0  0  0
 64142  1  0  0  0
 65143  1  0  0  0
 68 79  1  0  0  0
 71 73  2  0  0  0
 71 75  1  0  0  0
 71144  1  0  0  0
 72 74  1  0  0  0
 72 76  2  0  0  0
 72145  1  0  0  0
 73 76  1  0  0  0
 73 80  1  0  0  0
 74 75  2  0  0  0
 74 81  1  0  0  0
 75 83  1  0  0  0
 76 84  1  0  0  0
 77 79  1  0  0  0
 77 80  1  0  0  0
 77 82  2  0  0  0
 78 83  1  0  0  0
 78146  1  0  0  0
 78147  1  0  0  0
 78148  1  0  0  0
 79149  1  0  0  0
 79150  1  0  0  0
 80151  1  0  0  0
 81152  1  0  0  0
M  ISO  4   1 100  68 101  79 101  81 100
M  END
> <chiral flag>
0

> <version>
0

> <s_m_source_file>
/data/baiqing/PycharmProjects/Reinvent-master-3.2/result/LINK_invent/BTK/process_docking_weight1_custom_sum_contain_oxygen_bond_distance_aromatic_linkinvent_7_9_3/rearranged_h_0010.sdf

> <i_m_source_file_index>
4

> <r_mmod_Potential_Energy-OPLS-2005>
387.981353759766

> <r_mmod_Stretch_Energy-OPLS-2005>
224.899291992188

> <r_mmod_Bend_Energy-OPLS-2005>
285.605834960938

> <r_mmod_Torsional_Energy-OPLS-2005>
232.140167236328

> <r_mmod_Improper_Torsional_Energy-OPLS-2005>
3.96674847602844

> <r_mmod_Van_der_Waal_Energy-OPLS-2005>
133.264297485352

> <r_mmod_Electrostatic_Energy-OPLS-2005>
-419.945495605469

> <r_mmod_Solvation_Energy-OPLS-2005>
-254.509963989258

> <b_mmod_Minimization_Converged-OPLS-2005>
0

> <r_mmod_RMS_Derivative-OPLS-2005>
1.54839062690735

$$$$
4
                    3D
 Structure written by MMmdl.
152160  0  0  1  0            999 V2000
  -30.5173  -14.9248   20.4308 C   0  0  0  0  0  0
  -30.4517  -12.5687   19.4956 C   0  0  0  0  0  0
  -29.5258  -12.5396   18.2555 C   0  0  0  0  0  0
  -28.0561  -12.3285   18.6687 C   0  0  0  0  0  0
  -27.6380  -13.2433   19.8489 C   0  0  2  0  0  0
  -28.6823  -13.2281   20.9870 C   0  0  0  0  0  0
  -25.2481  -13.8184   20.5687 C   0  0  0  0  0  0
  -24.1786  -13.0418   20.9181 C   0  0  0  0  0  0
  -24.6403  -11.6906   20.8724 C   0  0  0  0  0  0
  -23.9082  -10.4282   21.0392 C   0  0  0  0  0  0
  -24.3626   -9.4202   21.9176 C   0  0  0  0  0  0
  -23.6294   -8.2241   22.0753 C   0  0  0  0  0  0
  -22.4275   -8.0280   21.3542 C   0  0  0  0  0  0
  -21.9910   -9.0252   20.4645 C   0  0  0  0  0  0
  -22.7248  -10.2127   20.3050 C   0  0  0  0  0  0
  -21.6855   -6.0731   22.5275 C   0  0  0  0  0  0
  -21.4015   -6.5633   23.8209 C   0  0  0  0  0  0
  -21.3665   -5.6788   24.9171 C   0  0  0  0  0  0
  -21.6045   -4.3050   24.7224 C   0  0  0  0  0  0
  -21.8820   -3.8141   23.4346 C   0  0  0  0  0  0
  -21.9192   -4.6957   22.3399 C   0  0  0  0  0  0
  -22.7812  -13.5202   21.1852 C   0  0  0  0  0  0
  -22.1662   -4.2141   21.0979 F   0  0  0  0  0  0
  -21.5629   -3.4537   25.7739 F   0  0  0  0  0  0
  -29.9679  -13.6447   20.4044 N   0  0  0  0  0  0
  -26.2931  -12.9422   20.3280 N   0  0  0  0  0  0
  -25.9342  -11.6553   20.5737 N   0  0  0  0  0  0
  -22.0466  -12.8197   22.0420 N   0  0  0  0  0  0
  -25.4111  -15.1906   20.4132 N   0  0  0  0  0  0
  -31.7009  -15.0560   20.0984 O   0  0  0  0  0  0
  -21.6640   -6.8878   21.4239 O   0  0  0  0  0  0
  -22.3491  -14.5513   20.6718 O   0  0  0  0  0  0
  -24.6451  -31.8443   23.1894 C   0  0  0  0  0  0
  -25.9223  -32.4694   23.8285 C   0  0  1  0  0  0
  -27.2202  -27.1395   20.1423 C   0  0  0  0  0  0
  -25.5971  -33.8500   24.2200 N   0  0  0  0  0  0
  -23.4483  -30.4659   21.5341 C   0  0  2  0  0  0
  -24.8979  -28.8968   20.1096 C   0  0  0  0  0  0
  -22.7579  -29.4556   22.4847 C   0  0  0  0  0  0
  -18.0317  -28.1395   22.8475 C   0  0  0  0  0  0
  -24.1495  -36.7253   23.2640 C   0  0  0  0  0  0
  -26.0057  -30.7189   21.3893 C   0  0  0  0  0  0
  -26.0770  -29.3316   20.7284 C   0  0  0  0  0  0
  -27.2390  -28.4695   20.7287 C   0  0  0  0  0  0
  -26.0111  -26.8106   19.4857 C   0  0  0  0  0  0
  -24.8779  -27.6492   19.4736 C   0  0  0  0  0  0
  -23.6751  -29.7992   20.1526 C   0  0  0  0  0  0
  -25.4126  -36.3030   24.0315 C   0  0  1  0  0  0
  -20.5930  -28.3727   23.1224 C   0  0  2  0  0  0
  -20.6796  -26.9427   22.5402 C   0  0  0  0  0  0
  -19.5766  -26.6380   21.5211 C   0  0  0  0  0  0
  -18.1950  -26.7934   22.1624 C   0  0  0  0  0  0
  -19.1573  -28.8880   23.2844 C   0  0  0  0  0  0
  -18.9485  -30.1473   23.8872 C   0  0  0  0  0  0
  -17.6478  -30.6585   24.0561 C   0  0  0  0  0  0
  -25.9080  -34.9406   23.5065 C   0  0  0  0  0  0
  -16.5371  -29.9076   23.6332 C   0  0  0  0  0  0
  -16.7301  -28.6499   23.0350 C   0  0  0  0  0  0
  -26.4538  -31.6560   25.0728 C   0  0  0  0  0  0
  -25.3719  -31.3765   26.1422 C   0  0  0  0  0  0
  -27.0388  -30.2943   24.6327 C   0  0  0  0  0  0
  -27.6073  -32.4324   25.7507 C   0  0  0  0  0  0
  -27.5576  -37.1791   24.8469 C   0  0  0  0  0  0
  -21.4271  -29.3053   22.3591 N   0  0  0  0  0  0
  -26.4292  -37.3738   23.9403 N   0  0  0  0  0  0
  -24.7192  -31.0308   22.0923 N   0  0  0  0  0  0
  -23.4222  -28.8098   23.2995 O   0  0  0  0  0  0
  -28.2652  -26.1424   20.2083 O   0  0  0  0  0  0
  -26.5659  -34.8900   22.4640 O   0  0  0  0  0  0
  -23.5567  -32.1327   23.7105 O   0  0  0  0  0  0
  -30.2011  -19.9608   19.9523 C   0  0  0  0  0  0
  -30.4787  -18.5212   20.0238 C   0  0  0  0  0  0
  -28.1154  -19.5937   20.9859 C   0  0  0  0  0  0
  -28.9851  -20.5808   20.4207 C   0  0  0  0  0  0
  -29.5754  -17.5448   20.5839 C   0  0  0  0  0  0
  -28.3854  -18.1674   21.0839 C   0  0  0  0  0  0
  -28.9455  -23.3601   20.2621 C   0  0  0  0  0  0
  -26.4184  -17.8196   22.4321 C   0  0  0  0  0  0
  -27.9078  -24.6354   20.0412 C   0  0  0  0  0  0
  -28.4727  -22.0237   20.2831 N   0  0  0  0  0  0
  -29.6585  -16.0168   20.6940 N   0  0  0  0  0  0
  -30.1493  -23.5955   20.3965 O   0  0  0  0  0  0
  -27.4902  -17.2888   21.6620 O   0  0  0  0  0  0
  -31.4842  -12.7356   19.1857 H   0  0  0  0  0  0
  -30.4453  -11.6046   20.0061 H   0  0  0  0  0  0
  -29.8374  -11.7537   17.5661 H   0  0  0  0  0  0
  -29.6195  -13.4801   17.7107 H   0  0  0  0  0  0
  -27.9422  -11.2828   18.9554 H   0  0  0  0  0  0
  -27.3955  -12.4848   17.8148 H   0  0  0  0  0  0
  -27.6113  -14.2553   19.4436 H   0  0  0  0  0  0
  -28.7586  -12.2354   21.4329 H   0  0  0  0  0  0
  -28.3830  -13.9004   21.7927 H   0  0  0  0  0  0
  -25.2768   -9.5676   22.4754 H   0  0  0  0  0  0
  -23.9993   -7.4632   22.7480 H   0  0  0  0  0  0
  -21.0836   -8.8775   19.8959 H   0  0  0  0  0  0
  -22.3699  -10.9663   19.6163 H   0  0  0  0  0  0
  -21.2007   -7.6138   23.9708 H   0  0  0  0  0  0
  -21.1489   -6.0520   25.9074 H   0  0  0  0  0  0
  -22.0594   -2.7602   23.2848 H   0  0  0  0  0  0
  -22.4076  -11.9862   22.4816 H   0  0  0  0  0  0
  -21.1089  -13.1232   22.2629 H   0  0  0  0  0  0
  -24.6406  -15.8364   20.5410 H   0  0  0  0  0  0
  -26.2753  -15.6524   20.1607 H   0  0  0  0  0  0
  -26.7295  -32.5299   23.1019 H   0  0  0  0  0  0
  -25.0106  -33.9618   25.0341 H   0  0  0  0  0  0
  -22.7518  -31.2928   21.3810 H   0  0  0  0  0  0
  -23.3751  -35.9593   23.3308 H   0  0  0  0  0  0
  -24.3578  -36.8878   22.2054 H   0  0  0  0  0  0
  -23.7266  -37.6458   23.6674 H   0  0  0  0  0  0
  -26.1657  -31.4757   20.6199 H   0  0  0  0  0  0
  -26.8743  -30.7651   22.0345 H   0  0  0  0  0  0
  -28.1356  -28.7974   21.2357 H   0  0  0  0  0  0
  -25.8952  -25.8626   18.9851 H   0  0  0  0  0  0
  -23.9790  -27.3122   18.9757 H   0  0  0  0  0  0
  -23.8123  -30.5750   19.3980 H   0  0  0  0  0  0
  -22.7895  -29.2426   19.8408 H   0  0  0  0  0  0
  -25.1314  -36.1857   25.0807 H   0  0  0  0  0  0
  -21.0036  -28.3324   24.1340 H   0  0  0  0  0  0
  -20.5678  -26.2347   23.3626 H   0  0  0  0  0  0
  -21.6662  -26.7416   22.1207 H   0  0  0  0  0  0
  -19.6922  -25.6284   21.1255 H   0  0  0  0  0  0
  -19.6692  -27.3177   20.6729 H   0  0  0  0  0  0
  -17.4217  -26.6683   21.4030 H   0  0  0  0  0  0
  -18.0343  -26.0078   22.9024 H   0  0  0  0  0  0
  -19.7960  -30.7301   24.2227 H   0  0  0  0  0  0
  -17.5028  -31.6262   24.5168 H   0  0  0  0  0  0
  -15.5369  -30.2967   23.7663 H   0  0  0  0  0  0
  -15.8707  -28.0806   22.7070 H   0  0  0  0  0  0
  -24.5914  -30.7086   25.7758 H   0  0  0  0  0  0
  -24.8887  -32.2947   26.4769 H   0  0  0  0  0  0
  -25.8002  -30.9005   27.0253 H   0  0  0  0  0  0
  -26.3004  -29.6669   24.1319 H   0  0  0  0  0  0
  -27.3959  -29.7245   25.4919 H   0  0  0  0  0  0
  -27.8937  -30.4149   23.9670 H   0  0  0  0  0  0
  -27.2674  -33.3643   26.2035 H   0  0  0  0  0  0
  -28.3908  -32.6854   25.0352 H   0  0  0  0  0  0
  -28.0716  -31.8483   26.5464 H   0  0  0  0  0  0
  -28.2605  -38.0072   24.7481 H   0  0  0  0  0  0
  -28.1059  -36.2605   24.6334 H   0  0  0  0  0  0
  -27.2294  -37.1487   25.8872 H   0  0  0  0  0  0
  -20.9482  -29.8769   21.6769 H   0  0  0  0  0  0
  -26.0157  -38.2811   24.1376 H   0  0  0  0  0  0
  -30.9424  -20.5926   19.4824 H   0  0  0  0  0  0
  -31.4133  -18.1680   19.6119 H   0  0  0  0  0  0
  -27.1724  -19.9687   21.3515 H   0  0  0  0  0  0
  -25.9071  -17.0071   22.9480 H   0  0  0  0  0  0
  -25.6823  -18.3181   21.8007 H   0  0  0  0  0  0
  -26.7724  -18.5158   23.1940 H   0  0  0  0  0  0
  -27.0485  -24.4355   20.6824 H   0  0  0  0  0  0
  -27.5571  -24.5058   19.0179 H   0  0  0  0  0  0
  -27.4625  -22.0478   20.2401 H   0  0  0  0  0  0
  -28.7754  -15.6573   21.0259 H   0  0  0  0  0  0
  1 25  1  0  0  0
  1 30  2  0  0  0
  1 81  1  0  0  0
  2  3  1  0  0  0
  2 25  1  0  0  0
  2 84  1  0  0  0
  2 85  1  0  0  0
  3  4  1  0  0  0
  3 86  1  0  0  0
  3 87  1  0  0  0
  4  5  1  0  0  0
  4 88  1  0  0  0
  4 89  1  0  0  0
  5  6  1  0  0  0
  5 26  1  0  0  0
  5 90  1  0  0  0
  6 25  1  0  0  0
  6 91  1  0  0  0
  6 92  1  0  0  0
  7  8  2  0  0  0
  7 26  1  0  0  0
  7 29  1  0  0  0
  8  9  1  0  0  0
  8 22  1  0  0  0
  9 10  1  0  0  0
  9 27  2  0  0  0
 10 11  2  0  0  0
 10 15  1  0  0  0
 11 12  1  0  0  0
 11 93  1  0  0  0
 12 13  2  0  0  0
 12 94  1  0  0  0
 13 14  1  0  0  0
 13 31  1  0  0  0
 14 15  2  0  0  0
 14 95  1  0  0  0
 15 96  1  0  0  0
 16 17  2  0  0  0
 16 21  1  0  0  0
 16 31  1  0  0  0
 17 18  1  0  0  0
 17 97  1  0  0  0
 18 19  2  0  0  0
 18 98  1  0  0  0
 19 20  1  0  0  0
 19 24  1  0  0  0
 20 21  2  0  0  0
 20 99  1  0  0  0
 21 23  1  0  0  0
 22 28  1  0  0  0
 22 32  2  0  0  0
 26 27  1  0  0  0
 28100  1  0  0  0
 28101  1  0  0  0
 29102  1  0  0  0
 29103  1  0  0  0
 33 34  1  0  0  0
 33 66  1  0  0  0
 33 70  2  0  0  0
 34 36  1  0  0  0
 34 59  1  0  0  0
 34104  1  0  0  0
 35 44  2  0  0  0
 35 45  1  0  0  0
 35 68  1  0  0  0
 36 56  1  0  0  0
 36105  1  0  0  0
 37 39  1  0  0  0
 37 47  1  0  0  0
 37 66  1  0  0  0
 37106  1  0  0  0
 38 43  2  0  0  0
 38 46  1  0  0  0
 38 47  1  0  0  0
 39 64  1  0  0  0
 39 67  2  0  0  0
 40 52  1  0  0  0
 40 53  2  0  0  0
 40 58  1  0  0  0
 41107  1  0  0  0
 41108  1  0  0  0
 41109  1  0  0  0
 41 48  1  0  0  0
 42 43  1  0  0  0
 42 66  1  0  0  0
 42110  1  0  0  0
 42111  1  0  0  0
 43 44  1  0  0  0
 44112  1  0  0  0
 45 46  2  0  0  0
 45113  1  0  0  0
 46114  1  0  0  0
 47115  1  0  0  0
 47116  1  0  0  0
 48 56  1  0  0  0
 48 65  1  0  0  0
 48117  1  0  0  0
 49 50  1  0  0  0
 49 53  1  0  0  0
 49 64  1  0  0  0
 49118  1  0  0  0
 50 51  1  0  0  0
 50119  1  0  0  0
 50120  1  0  0  0
 51 52  1  0  0  0
 51121  1  0  0  0
 51122  1  0  0  0
 52123  1  0  0  0
 52124  1  0  0  0
 53 54  1  0  0  0
 54 55  2  0  0  0
 54125  1  0  0  0
 55 57  1  0  0  0
 55126  1  0  0  0
 56 69  2  0  0  0
 57 58  2  0  0  0
 57127  1  0  0  0
 58128  1  0  0  0
 59 60  1  0  0  0
 59 61  1  0  0  0
 59 62  1  0  0  0
 60129  1  0  0  0
 60130  1  0  0  0
 60131  1  0  0  0
 61132  1  0  0  0
 61133  1  0  0  0
 61134  1  0  0  0
 62135  1  0  0  0
 62136  1  0  0  0
 62137  1  0  0  0
 63 65  1  0  0  0
 63138  1  0  0  0
 63139  1  0  0  0
 63140  1  0  0  0
 64141  1  0  0  0
 65142  1  0  0  0
 68 79  1  0  0  0
 71 72  2  0  0  0
 71 74  1  0  0  0
 71143  1  0  0  0
 72 75  1  0  0  0
 72144  1  0  0  0
 73 74  2  0  0  0
 73 76  1  0  0  0
 73145  1  0  0  0
 74 80  1  0  0  0
 75 76  2  0  0  0
 75 81  1  0  0  0
 76 83  1  0  0  0
 77 79  1  0  0  0
 77 80  1  0  0  0
 77 82  2  0  0  0
 78 83  1  0  0  0
 78146  1  0  0  0
 78147  1  0  0  0
 78148  1  0  0  0
 79149  1  0  0  0
 79150  1  0  0  0
 80151  1  0  0  0
 81152  1  0  0  0
M  ISO  4   1 100  68 101  79 101  81 100
M  END
> <chiral flag>
0

> <version>
0

> <s_m_source_file>
/data/baiqing/PycharmProjects/Reinvent-master-3.2/result/LINK_invent/BTK/process_docking_weight1_custom_sum_contain_oxygen_bond_distance_aromatic_linkinvent_7_9_3/rearranged_h_0010.sdf

> <i_m_source_file_index>
5

> <r_mmod_Potential_Energy-OPLS-2005>
398.277862548828

> <r_mmod_Stretch_Energy-OPLS-2005>
222.967102050781

> <r_mmod_Bend_Energy-OPLS-2005>
287.100189208984

> <r_mmod_Torsional_Energy-OPLS-2005>
227.307083129883

> <r_mmod_Improper_Torsional_Energy-OPLS-2005>
3.75444746017456

> <r_mmod_Van_der_Waal_Energy-OPLS-2005>
134.696365356445

> <r_mmod_Electrostatic_Energy-OPLS-2005>
-413.936401367188

> <r_mmod_Solvation_Energy-OPLS-2005>
-247.73112487793

> <b_mmod_Minimization_Converged-OPLS-2005>
0

> <r_mmod_RMS_Derivative-OPLS-2005>
0.934446752071381

$$$$
5
                    3D
 Structure written by MMmdl.
152160  0  0  1  0            999 V2000
  -30.5184  -14.9457   20.4069 C   0  0  0  0  0  0
  -30.4544  -12.5833   19.4942 C   0  0  0  0  0  0
  -29.5291  -12.5380   18.2547 C   0  0  0  0  0  0
  -28.0618  -12.3193   18.6709 C   0  0  0  0  0  0
  -27.6369  -13.2453   19.8408 C   0  0  2  0  0  0
  -28.6815  -13.2543   20.9790 C   0  0  0  0  0  0
  -25.2464  -13.8187   20.5649 C   0  0  0  0  0  0
  -24.1779  -13.0422   20.9200 C   0  0  0  0  0  0
  -24.6399  -11.6913   20.8726 C   0  0  0  0  0  0
  -23.9067  -10.4292   21.0380 C   0  0  0  0  0  0
  -24.3612   -9.4206   21.9167 C   0  0  0  0  0  0
  -23.6288   -8.2241   22.0741 C   0  0  0  0  0  0
  -22.4274   -8.0275   21.3541 C   0  0  0  0  0  0
  -21.9905   -9.0247   20.4645 C   0  0  0  0  0  0
  -22.7230  -10.2132   20.3043 C   0  0  0  0  0  0
  -21.6850   -6.0724   22.5272 C   0  0  0  0  0  0
  -21.4015   -6.5622   23.8204 C   0  0  0  0  0  0
  -21.3666   -5.6774   24.9164 C   0  0  0  0  0  0
  -21.6046   -4.3037   24.7215 C   0  0  0  0  0  0
  -21.8821   -3.8135   23.4328 C   0  0  0  0  0  0
  -21.9198   -4.6951   22.3392 C   0  0  0  0  0  0
  -22.7805  -13.5196   21.1868 C   0  0  0  0  0  0
  -22.1665   -4.2144   21.0971 F   0  0  0  0  0  0
  -21.5635   -3.4516   25.7724 F   0  0  0  0  0  0
  -29.9662  -13.6663   20.3922 N   0  0  0  0  0  0
  -26.2917  -12.9425   20.3225 N   0  0  0  0  0  0
  -25.9343  -11.6559   20.5717 N   0  0  0  0  0  0
  -22.0454  -12.8210   22.0433 N   0  0  0  0  0  0
  -25.4040  -15.1903   20.4006 N   0  0  0  0  0  0
  -31.7053  -15.0696   20.0883 O   0  0  0  0  0  0
  -21.6643   -6.8870   21.4241 O   0  0  0  0  0  0
  -22.3477  -14.5492   20.6699 O   0  0  0  0  0  0
  -24.6431  -31.8477   23.1905 C   0  0  0  0  0  0
  -25.9204  -32.4717   23.8295 C   0  0  1  0  0  0
  -27.2097  -27.1492   20.1338 C   0  0  0  0  0  0
  -25.5961  -33.8516   24.2212 N   0  0  0  0  0  0
  -23.4445  -30.4711   21.5365 C   0  0  2  0  0  0
  -24.8916  -28.9051   20.1067 C   0  0  0  0  0  0
  -22.7568  -29.4573   22.4868 C   0  0  0  0  0  0
  -18.0310  -28.1398   22.8482 C   0  0  0  0  0  0
  -24.1487  -36.7257   23.2638 C   0  0  0  0  0  0
  -26.0009  -30.7243   21.3872 C   0  0  0  0  0  0
  -26.0720  -29.3393   20.7239 C   0  0  0  0  0  0
  -27.2321  -28.4757   20.7242 C   0  0  0  0  0  0
  -26.0016  -26.8223   19.4740 C   0  0  0  0  0  0
  -24.8691  -27.6602   19.4675 C   0  0  0  0  0  0
  -23.6682  -29.8065   20.1537 C   0  0  0  0  0  0
  -25.4118  -36.3039   24.0326 C   0  0  1  0  0  0
  -20.5918  -28.3723   23.1237 C   0  0  2  0  0  0
  -20.6783  -26.9429   22.5408 C   0  0  0  0  0  0
  -19.5761  -26.6383   21.5212 C   0  0  0  0  0  0
  -18.1942  -26.7948   22.1624 C   0  0  0  0  0  0
  -19.1567  -28.8882   23.2852 C   0  0  0  0  0  0
  -18.9486  -30.1474   23.8879 C   0  0  0  0  0  0
  -17.6478  -30.6588   24.0557 C   0  0  0  0  0  0
  -25.9070  -34.9415   23.5074 C   0  0  0  0  0  0
  -16.5366  -29.9081   23.6332 C   0  0  0  0  0  0
  -16.7293  -28.6501   23.0359 C   0  0  0  0  0  0
  -26.4507  -31.6581   25.0740 C   0  0  0  0  0  0
  -25.3695  -31.3820   26.1455 C   0  0  0  0  0  0
  -27.0319  -30.2956   24.6322 C   0  0  0  0  0  0
  -27.6078  -32.4315   25.7494 C   0  0  0  0  0  0
  -27.5582  -37.1788   24.8461 C   0  0  0  0  0  0
  -21.4263  -29.3056   22.3613 N   0  0  0  0  0  0
  -26.4283  -37.3760   23.9416 N   0  0  0  0  0  0
  -24.7160  -31.0330   22.0935 N   0  0  0  0  0  0
  -23.4223  -28.8114   23.3005 O   0  0  0  0  0  0
  -28.2483  -26.1495   20.2045 O   0  0  0  0  0  0
  -26.5639  -34.8913   22.4639 O   0  0  0  0  0  0
  -23.5551  -32.1353   23.7129 O   0  0  0  0  0  0
  -30.3622  -18.5290   19.7719 C   0  0  0  0  0  0
  -28.2125  -19.6597   21.1043 C   0  0  0  0  0  0
  -29.5789  -17.5790   20.5308 C   0  0  0  0  0  0
  -28.9663  -20.6108   20.3493 C   0  0  0  0  0  0
  -30.0609  -19.9715   19.6583 C   0  0  0  0  0  0
  -28.4949  -18.2459   21.1927 C   0  0  0  0  0  0
  -28.8909  -23.3732   20.2820 C   0  0  0  0  0  0
  -31.5096  -20.2325   17.7599 C   0  0  0  0  0  0
  -27.8939  -24.6548   19.9670 C   0  0  0  0  0  0
  -28.4356  -22.0382   20.1624 N   0  0  0  0  0  0
  -29.6587  -16.0458   20.6449 N   0  0  0  0  0  0
  -30.0513  -23.6057   20.6312 O   0  0  0  0  0  0
  -30.7666  -20.8126   18.8245 O   0  0  0  0  0  0
  -27.4218  -17.2901   22.1517 Cl  0  0  0  0  0  0
  -31.4861  -12.7533   19.1802 H   0  0  0  0  0  0
  -30.4543  -11.6243   20.0149 H   0  0  0  0  0  0
  -29.8500  -11.7505   17.5723 H   0  0  0  0  0  0
  -29.6145  -13.4740   17.7001 H   0  0  0  0  0  0
  -27.9587  -11.2764   18.9734 H   0  0  0  0  0  0
  -27.3991  -12.4562   17.8154 H   0  0  0  0  0  0
  -27.6025  -14.2518   19.4215 H   0  0  0  0  0  0
  -28.7636  -12.2736   21.4476 H   0  0  0  0  0  0
  -28.3759  -13.9434   21.7680 H   0  0  0  0  0  0
  -25.2766   -9.5685   22.4732 H   0  0  0  0  0  0
  -24.0009   -7.4623   22.7444 H   0  0  0  0  0  0
  -21.0842   -8.8752   19.8949 H   0  0  0  0  0  0
  -22.3676  -10.9659   19.6144 H   0  0  0  0  0  0
  -21.1997   -7.6130   23.9703 H   0  0  0  0  0  0
  -21.1489   -6.0504   25.9076 H   0  0  0  0  0  0
  -22.0594   -2.7597   23.2820 H   0  0  0  0  0  0
  -22.4083  -11.9909   22.4882 H   0  0  0  0  0  0
  -21.1061  -13.1220   22.2592 H   0  0  0  0  0  0
  -24.6339  -15.8338   20.5425 H   0  0  0  0  0  0
  -26.2546  -15.6513   20.1093 H   0  0  0  0  0  0
  -26.7277  -32.5321   23.1029 H   0  0  0  0  0  0
  -25.0103  -33.9634   25.0352 H   0  0  0  0  0  0
  -22.7480  -31.2981   21.3885 H   0  0  0  0  0  0
  -23.3770  -35.9568   23.3268 H   0  0  0  0  0  0
  -24.3580  -36.8914   22.2060 H   0  0  0  0  0  0
  -23.7214  -37.6439   23.6677 H   0  0  0  0  0  0
  -26.1543  -31.4848   20.6197 H   0  0  0  0  0  0
  -26.8697  -30.7723   22.0309 H   0  0  0  0  0  0
  -28.1284  -28.8009   21.2336 H   0  0  0  0  0  0
  -25.8849  -25.8767   18.9673 H   0  0  0  0  0  0
  -23.9679  -27.3254   18.9700 H   0  0  0  0  0  0
  -23.7999  -30.5824   19.3996 H   0  0  0  0  0  0
  -22.7813  -29.2510   19.8443 H   0  0  0  0  0  0
  -25.1302  -36.1870   25.0826 H   0  0  0  0  0  0
  -21.0031  -28.3299   24.1349 H   0  0  0  0  0  0
  -20.5654  -26.2349   23.3636 H   0  0  0  0  0  0
  -21.6651  -26.7412   22.1226 H   0  0  0  0  0  0
  -19.6907  -25.6284   21.1263 H   0  0  0  0  0  0
  -19.6681  -27.3174   20.6731 H   0  0  0  0  0  0
  -17.4216  -26.6708   21.4014 H   0  0  0  0  0  0
  -18.0318  -26.0087   22.9024 H   0  0  0  0  0  0
  -19.7952  -30.7301   24.2240 H   0  0  0  0  0  0
  -17.5026  -31.6275   24.5165 H   0  0  0  0  0  0
  -15.5360  -30.2982   23.7668 H   0  0  0  0  0  0
  -15.8705  -28.0812   22.7081 H   0  0  0  0  0  0
  -24.5819  -30.7224   25.7786 H   0  0  0  0  0  0
  -24.8945  -32.3035   26.4842 H   0  0  0  0  0  0
  -25.7969  -30.9000   27.0259 H   0  0  0  0  0  0
  -26.2909  -29.6728   24.1304 H   0  0  0  0  0  0
  -27.3867  -29.7224   25.4894 H   0  0  0  0  0  0
  -27.8864  -30.4146   23.9661 H   0  0  0  0  0  0
  -27.2712  -33.3654   26.2006 H   0  0  0  0  0  0
  -28.3914  -32.6814   25.0329 H   0  0  0  0  0  0
  -28.0716  -31.8480   26.5457 H   0  0  0  0  0  0
  -28.2598  -38.0087   24.7513 H   0  0  0  0  0  0
  -28.1077  -36.2624   24.6260 H   0  0  0  0  0  0
  -27.2316  -37.1415   25.8869 H   0  0  0  0  0  0
  -20.9467  -29.8795   21.6813 H   0  0  0  0  0  0
  -26.0151  -38.2829   24.1429 H   0  0  0  0  0  0
  -31.2016  -18.1298   19.2245 H   0  0  0  0  0  0
  -27.3358  -20.0177   21.6243 H   0  0  0  0  0  0
  -31.6927  -20.9859   16.9924 H   0  0  0  0  0  0
  -30.9777  -19.4114   17.2755 H   0  0  0  0  0  0
  -32.4772  -19.8779   18.1145 H   0  0  0  0  0  0
  -26.9717  -24.4488   20.5123 H   0  0  0  0  0  0
  -27.6487  -24.5529   18.9097 H   0  0  0  0  0  0
  -27.4450  -22.0422   19.9568 H   0  0  0  0  0  0
  -28.7843  -15.6860   20.9974 H   0  0  0  0  0  0
  1 25  1  0  0  0
  1 30  2  0  0  0
  1 81  1  0  0  0
  2  3  1  0  0  0
  2 25  1  0  0  0
  2 85  1  0  0  0
  2 86  1  0  0  0
  3  4  1  0  0  0
  3 87  1  0  0  0
  3 88  1  0  0  0
  4  5  1  0  0  0
  4 89  1  0  0  0
  4 90  1  0  0  0
  5  6  1  0  0  0
  5 26  1  0  0  0
  5 91  1  0  0  0
  6 25  1  0  0  0
  6 92  1  0  0  0
  6 93  1  0  0  0
  7  8  2  0  0  0
  7 26  1  0  0  0
  7 29  1  0  0  0
  8  9  1  0  0  0
  8 22  1  0  0  0
  9 10  1  0  0  0
  9 27  2  0  0  0
 10 11  2  0  0  0
 10 15  1  0  0  0
 11 12  1  0  0  0
 11 94  1  0  0  0
 12 13  2  0  0  0
 12 95  1  0  0  0
 13 14  1  0  0  0
 13 31  1  0  0  0
 14 15  2  0  0  0
 14 96  1  0  0  0
 15 97  1  0  0  0
 16 17  2  0  0  0
 16 21  1  0  0  0
 16 31  1  0  0  0
 17 18  1  0  0  0
 17 98  1  0  0  0
 18 19  2  0  0  0
 18 99  1  0  0  0
 19 20  1  0  0  0
 19 24  1  0  0  0
 20 21  2  0  0  0
 20100  1  0  0  0
 21 23  1  0  0  0
 22 28  1  0  0  0
 22 32  2  0  0  0
 26 27  1  0  0  0
 28101  1  0  0  0
 28102  1  0  0  0
 29103  1  0  0  0
 29104  1  0  0  0
 33 34  1  0  0  0
 33 66  1  0  0  0
 33 70  2  0  0  0
 34 36  1  0  0  0
 34 59  1  0  0  0
 34105  1  0  0  0
 35 44  2  0  0  0
 35 45  1  0  0  0
 35 68  1  0  0  0
 36 56  1  0  0  0
 36106  1  0  0  0
 37 39  1  0  0  0
 37 47  1  0  0  0
 37 66  1  0  0  0
 37107  1  0  0  0
 38 43  2  0  0  0
 38 46  1  0  0  0
 38 47  1  0  0  0
 39 64  1  0  0  0
 39 67  2  0  0  0
 40 52  1  0  0  0
 40 53  2  0  0  0
 40 58  1  0  0  0
 41108  1  0  0  0
 41109  1  0  0  0
 41110  1  0  0  0
 41 48  1  0  0  0
 42 43  1  0  0  0
 42 66  1  0  0  0
 42111  1  0  0  0
 42112  1  0  0  0
 43 44  1  0  0  0
 44113  1  0  0  0
 45 46  2  0  0  0
 45114  1  0  0  0
 46115  1  0  0  0
 47116  1  0  0  0
 47117  1  0  0  0
 48 56  1  0  0  0
 48 65  1  0  0  0
 48118  1  0  0  0
 49 50  1  0  0  0
 49 53  1  0  0  0
 49 64  1  0  0  0
 49119  1  0  0  0
 50 51  1  0  0  0
 50120  1  0  0  0
 50121  1  0  0  0
 51 52  1  0  0  0
 51122  1  0  0  0
 51123  1  0  0  0
 52124  1  0  0  0
 52125  1  0  0  0
 53 54  1  0  0  0
 54 55  2  0  0  0
 54126  1  0  0  0
 55 57  1  0  0  0
 55127  1  0  0  0
 56 69  2  0  0  0
 57 58  2  0  0  0
 57128  1  0  0  0
 58129  1  0  0  0
 59 60  1  0  0  0
 59 61  1  0  0  0
 59 62  1  0  0  0
 60130  1  0  0  0
 60131  1  0  0  0
 60132  1  0  0  0
 61133  1  0  0  0
 61134  1  0  0  0
 61135  1  0  0  0
 62136  1  0  0  0
 62137  1  0  0  0
 62138  1  0  0  0
 63 65  1  0  0  0
 63139  1  0  0  0
 63140  1  0  0  0
 63141  1  0  0  0
 64142  1  0  0  0
 65143  1  0  0  0
 68 79  1  0  0  0
 71 73  2  0  0  0
 71 75  1  0  0  0
 71144  1  0  0  0
 72 74  1  0  0  0
 72 76  2  0  0  0
 72145  1  0  0  0
 73 76  1  0  0  0
 73 81  1  0  0  0
 74 75  2  0  0  0
 74 80  1  0  0  0
 75 83  1  0  0  0
 76 84  1  0  0  0
 77 79  1  0  0  0
 77 80  1  0  0  0
 77 82  2  0  0  0
 78 83  1  0  0  0
 78146  1  0  0  0
 78147  1  0  0  0
 78148  1  0  0  0
 79149  1  0  0  0
 79150  1  0  0  0
 80151  1  0  0  0
 81152  1  0  0  0
M  ISO  4   1 100  68 101  79 101  81 100
M  END
> <chiral flag>
0

> <version>
0

> <s_m_source_file>
/data/baiqing/PycharmProjects/Reinvent-master-3.2/result/LINK_invent/BTK/process_docking_weight1_custom_sum_contain_oxygen_bond_distance_aromatic_linkinvent_7_9_3/rearranged_h_0010.sdf

> <i_m_source_file_index>
6

> <r_mmod_Potential_Energy-OPLS-2005>
397.381317138672

> <r_mmod_Stretch_Energy-OPLS-2005>
220.688323974609

> <r_mmod_Bend_Energy-OPLS-2005>
273.732574462891

> <r_mmod_Torsional_Energy-OPLS-2005>
245.31608581543

> <r_mmod_Improper_Torsional_Energy-OPLS-2005>
5.12514448165894

> <r_mmod_Van_der_Waal_Energy-OPLS-2005>
132.947708129883

> <r_mmod_Electrostatic_Energy-OPLS-2005>
-413.642486572266

> <r_mmod_Solvation_Energy-OPLS-2005>
-257.682525634766

> <b_mmod_Minimization_Converged-OPLS-2005>
0

> <r_mmod_RMS_Derivative-OPLS-2005>
2.74446296691895

$$$$
6
                    3D
 Structure written by MMmdl.
148156  0  0  1  0            999 V2000
  -30.5089  -14.9122   20.4351 C   0  0  0  0  0  0
  -30.4555  -12.5616   19.4901 C   0  0  0  0  0  0
  -29.5264  -12.5317   18.2520 C   0  0  0  0  0  0
  -28.0565  -12.3206   18.6662 C   0  0  0  0  0  0
  -27.6389  -13.2354   19.8464 C   0  0  2  0  0  0
  -28.6835  -13.2119   20.9840 C   0  0  0  0  0  0
  -25.2500  -13.8182   20.5681 C   0  0  0  0  0  0
  -24.1806  -13.0431   20.9230 C   0  0  0  0  0  0
  -24.6402  -11.6911   20.8760 C   0  0  0  0  0  0
  -23.9076  -10.4289   21.0416 C   0  0  0  0  0  0
  -24.3624   -9.4201   21.9190 C   0  0  0  0  0  0
  -23.6294   -8.2240   22.0758 C   0  0  0  0  0  0
  -22.4276   -8.0282   21.3547 C   0  0  0  0  0  0
  -21.9915   -9.0259   20.4652 C   0  0  0  0  0  0
  -22.7249  -10.2135   20.3063 C   0  0  0  0  0  0
  -21.6853   -6.0736   22.5279 C   0  0  0  0  0  0
  -21.4015   -6.5640   23.8212 C   0  0  0  0  0  0
  -21.3659   -5.6793   24.9175 C   0  0  0  0  0  0
  -21.6044   -4.3056   24.7225 C   0  0  0  0  0  0
  -21.8818   -3.8147   23.4347 C   0  0  0  0  0  0
  -21.9192   -4.6963   22.3402 C   0  0  0  0  0  0
  -22.7826  -13.5218   21.1880 C   0  0  0  0  0  0
  -22.1661   -4.2149   21.0979 F   0  0  0  0  0  0
  -21.5626   -3.4539   25.7738 F   0  0  0  0  0  0
  -29.9682  -13.6307   20.4025 N   0  0  0  0  0  0
  -26.2925  -12.9392   20.3247 N   0  0  0  0  0  0
  -25.9332  -11.6537   20.5742 N   0  0  0  0  0  0
  -22.0465  -12.8213   22.0434 N   0  0  0  0  0  0
  -25.4162  -15.1901   20.4026 N   0  0  0  0  0  0
  -31.6970  -15.0562   20.1234 O   0  0  0  0  0  0
  -21.6639   -6.8881   21.4242 O   0  0  0  0  0  0
  -22.3518  -14.5520   20.6717 O   0  0  0  0  0  0
  -24.6422  -31.8456   23.1895 C   0  0  0  0  0  0
  -25.9199  -32.4704   23.8282 C   0  0  1  0  0  0
  -27.2214  -27.1519   20.1469 C   0  0  0  0  0  0
  -25.5952  -33.8509   24.2201 N   0  0  0  0  0  0
  -23.4453  -30.4654   21.5351 C   0  0  2  0  0  0
  -24.8953  -28.8959   20.1105 C   0  0  0  0  0  0
  -22.7562  -29.4552   22.4864 C   0  0  0  0  0  0
  -18.0305  -28.1392   22.8480 C   0  0  0  0  0  0
  -24.1492  -36.7261   23.2642 C   0  0  0  0  0  0
  -26.0006  -30.7245   21.3860 C   0  0  0  0  0  0
  -26.0728  -29.3373   20.7273 C   0  0  0  0  0  0
  -27.2369  -28.4820   20.7280 C   0  0  0  0  0  0
  -26.0152  -26.8096   19.4937 C   0  0  0  0  0  0
  -24.8787  -27.6448   19.4786 C   0  0  0  0  0  0
  -23.6712  -29.7962   20.1539 C   0  0  0  0  0  0
  -25.4122  -36.3038   24.0318 C   0  0  1  0  0  0
  -20.5917  -28.3717   23.1239 C   0  0  2  0  0  0
  -20.6789  -26.9422   22.5403 C   0  0  0  0  0  0
  -19.5760  -26.6380   21.5213 C   0  0  0  0  0  0
  -18.1944  -26.7931   22.1628 C   0  0  0  0  0  0
  -19.1562  -28.8873   23.2853 C   0  0  0  0  0  0
  -18.9477  -30.1469   23.8878 C   0  0  0  0  0  0
  -17.6473  -30.6589   24.0558 C   0  0  0  0  0  0
  -25.9071  -34.9412   23.5068 C   0  0  0  0  0  0
  -16.5365  -29.9082   23.6333 C   0  0  0  0  0  0
  -16.7289  -28.6500   23.0357 C   0  0  0  0  0  0
  -26.4522  -31.6564   25.0716 C   0  0  0  0  0  0
  -25.3712  -31.3749   26.1414 C   0  0  0  0  0  0
  -27.0385  -30.2963   24.6283 C   0  0  0  0  0  0
  -27.6053  -32.4328   25.7502 C   0  0  0  0  0  0
  -27.5575  -37.1788   24.8465 C   0  0  0  0  0  0
  -21.4255  -29.3048   22.3615 N   0  0  0  0  0  0
  -26.4286  -37.3749   23.9408 N   0  0  0  0  0  0
  -24.7158  -31.0325   22.0923 N   0  0  0  0  0  0
  -23.4210  -28.8096   23.3008 O   0  0  0  0  0  0
  -28.2796  -26.1752   20.2158 O   0  0  0  0  0  0
  -26.5655  -34.8906   22.4645 O   0  0  0  0  0  0
  -23.5543  -32.1325   23.7122 O   0  0  0  0  0  0
  -30.4979  -18.5502   20.3681 C   0  0  0  0  0  0
  -30.1918  -19.9876   20.3030 C   0  0  0  0  0  0
  -28.2013  -18.0915   20.6159 C   0  0  0  0  0  0
  -29.5058  -17.5125   20.5303 C   0  0  0  0  0  0
  -28.8604  -20.5427   20.3787 C   0  0  0  0  0  0
  -27.8953  -19.4982   20.5370 C   0  0  0  0  0  0
  -27.9814  -24.6559   20.0800 C   0  0  0  0  0  0
  -28.9666  -23.3090   20.3181 C   0  0  0  0  0  0
  -29.6181  -15.9877   20.6567 N   0  0  0  0  0  0
  -28.3436  -21.9122   20.2867 O   0  0  0  0  0  0
  -26.5907  -19.8568   20.6201 F   0  0  0  0  0  0
  -31.4867  -12.7370   19.1791 H   0  0  0  0  0  0
  -30.4561  -11.5962   19.9987 H   0  0  0  0  0  0
  -29.8377  -11.7454   17.5632 H   0  0  0  0  0  0
  -29.6191  -13.4710   17.7045 H   0  0  0  0  0  0
  -27.9424  -11.2750   18.9545 H   0  0  0  0  0  0
  -27.3955  -12.4747   17.8124 H   0  0  0  0  0  0
  -27.6160  -14.2467   19.4405 H   0  0  0  0  0  0
  -28.7608  -12.2155   21.4218 H   0  0  0  0  0  0
  -28.3869  -13.8773   21.7964 H   0  0  0  0  0  0
  -25.2769   -9.5672   22.4767 H   0  0  0  0  0  0
  -24.0000   -7.4629   22.7477 H   0  0  0  0  0  0
  -21.0844   -8.8784   19.8957 H   0  0  0  0  0  0
  -22.3712  -10.9678   19.6174 H   0  0  0  0  0  0
  -21.2010   -7.6149   23.9716 H   0  0  0  0  0  0
  -21.1480   -6.0523   25.9077 H   0  0  0  0  0  0
  -22.0597   -2.7608   23.2848 H   0  0  0  0  0  0
  -22.4083  -11.9878   22.4830 H   0  0  0  0  0  0
  -21.1084  -13.1242   22.2641 H   0  0  0  0  0  0
  -24.6295  -15.8261   20.4770 H   0  0  0  0  0  0
  -26.2182  -15.6066   19.9499 H   0  0  0  0  0  0
  -26.7265  -32.5316   23.1014 H   0  0  0  0  0  0
  -25.0077  -33.9626   25.0333 H   0  0  0  0  0  0
  -22.7472  -31.2910   21.3818 H   0  0  0  0  0  0
  -23.3757  -35.9590   23.3292 H   0  0  0  0  0  0
  -24.3578  -36.8903   22.2059 H   0  0  0  0  0  0
  -23.7245  -37.6454   23.6684 H   0  0  0  0  0  0
  -26.1536  -31.4794   20.6136 H   0  0  0  0  0  0
  -26.8721  -30.7754   22.0269 H   0  0  0  0  0  0
  -28.1335  -28.8156   21.2313 H   0  0  0  0  0  0
  -25.9102  -25.8553   19.0018 H   0  0  0  0  0  0
  -23.9801  -27.3016   18.9846 H   0  0  0  0  0  0
  -23.8070  -30.5716   19.3992 H   0  0  0  0  0  0
  -22.7864  -29.2380   19.8427 H   0  0  0  0  0  0
  -25.1309  -36.1869   25.0810 H   0  0  0  0  0  0
  -21.0010  -28.3306   24.1360 H   0  0  0  0  0  0
  -20.5685  -26.2330   23.3621 H   0  0  0  0  0  0
  -21.6654  -26.7429   22.1199 H   0  0  0  0  0  0
  -19.6921  -25.6286   21.1255 H   0  0  0  0  0  0
  -19.6694  -27.3179   20.6734 H   0  0  0  0  0  0
  -17.4210  -26.6673   21.4035 H   0  0  0  0  0  0
  -18.0346  -26.0078   22.9030 H   0  0  0  0  0  0
  -19.7952  -30.7291   24.2241 H   0  0  0  0  0  0
  -17.5025  -31.6268   24.5163 H   0  0  0  0  0  0
  -15.5364  -30.2977   23.7663 H   0  0  0  0  0  0
  -15.8691  -28.0808   22.7085 H   0  0  0  0  0  0
  -24.5894  -30.7094   25.7734 H   0  0  0  0  0  0
  -24.8898  -32.2930   26.4792 H   0  0  0  0  0  0
  -25.7998  -30.8952   27.0222 H   0  0  0  0  0  0
  -26.2998  -29.6690   24.1281 H   0  0  0  0  0  0
  -27.3997  -29.7256   25.4848 H   0  0  0  0  0  0
  -27.8906  -30.4204   23.9597 H   0  0  0  0  0  0
  -27.2645  -33.3646   26.2028 H   0  0  0  0  0  0
  -28.3892  -32.6860   25.0352 H   0  0  0  0  0  0
  -28.0689  -31.8488   26.5463 H   0  0  0  0  0  0
  -28.2585  -38.0091   24.7510 H   0  0  0  0  0  0
  -28.1079  -36.2622   24.6295 H   0  0  0  0  0  0
  -27.2293  -37.1437   25.8868 H   0  0  0  0  0  0
  -20.9461  -29.8768   21.6802 H   0  0  0  0  0  0
  -26.0155  -38.2818   24.1409 H   0  0  0  0  0  0
  -31.5349  -18.2525   20.2974 H   0  0  0  0  0  0
  -31.0171  -20.6732   20.1773 H   0  0  0  0  0  0
  -27.3590  -17.4297   20.7477 H   0  0  0  0  0  0
  -27.1214  -24.4889   20.7294 H   0  0  0  0  0  0
  -27.6025  -24.5258   19.0670 H   0  0  0  0  0  0
  -29.4518  -23.4117   21.2888 H   0  0  0  0  0  0
  -29.7707  -23.3307   19.5826 H   0  0  0  0  0  0
  -28.7268  -15.5824   20.8973 H   0  0  0  0  0  0
  1 25  1  0  0  0
  1 30  2  0  0  0
  1 79  1  0  0  0
  2  3  1  0  0  0
  2 25  1  0  0  0
  2 82  1  0  0  0
  2 83  1  0  0  0
  3  4  1  0  0  0
  3 84  1  0  0  0
  3 85  1  0  0  0
  4  5  1  0  0  0
  4 86  1  0  0  0
  4 87  1  0  0  0
  5  6  1  0  0  0
  5 26  1  0  0  0
  5 88  1  0  0  0
  6 25  1  0  0  0
  6 89  1  0  0  0
  6 90  1  0  0  0
  7  8  2  0  0  0
  7 26  1  0  0  0
  7 29  1  0  0  0
  8  9  1  0  0  0
  8 22  1  0  0  0
  9 10  1  0  0  0
  9 27  2  0  0  0
 10 11  2  0  0  0
 10 15  1  0  0  0
 11 12  1  0  0  0
 11 91  1  0  0  0
 12 13  2  0  0  0
 12 92  1  0  0  0
 13 14  1  0  0  0
 13 31  1  0  0  0
 14 15  2  0  0  0
 14 93  1  0  0  0
 15 94  1  0  0  0
 16 17  2  0  0  0
 16 21  1  0  0  0
 16 31  1  0  0  0
 17 18  1  0  0  0
 17 95  1  0  0  0
 18 19  2  0  0  0
 18 96  1  0  0  0
 19 20  1  0  0  0
 19 24  1  0  0  0
 20 21  2  0  0  0
 20 97  1  0  0  0
 21 23  1  0  0  0
 22 28  1  0  0  0
 22 32  2  0  0  0
 26 27  1  0  0  0
 28 98  1  0  0  0
 28 99  1  0  0  0
 29100  1  0  0  0
 29101  1  0  0  0
 33 34  1  0  0  0
 33 66  1  0  0  0
 33 70  2  0  0  0
 34 36  1  0  0  0
 34 59  1  0  0  0
 34102  1  0  0  0
 35 44  2  0  0  0
 35 45  1  0  0  0
 35 68  1  0  0  0
 36 56  1  0  0  0
 36103  1  0  0  0
 37 39  1  0  0  0
 37 47  1  0  0  0
 37 66  1  0  0  0
 37104  1  0  0  0
 38 43  2  0  0  0
 38 46  1  0  0  0
 38 47  1  0  0  0
 39 64  1  0  0  0
 39 67  2  0  0  0
 40 52  1  0  0  0
 40 53  2  0  0  0
 40 58  1  0  0  0
 41105  1  0  0  0
 41106  1  0  0  0
 41107  1  0  0  0
 41 48  1  0  0  0
 42 43  1  0  0  0
 42 66  1  0  0  0
 42108  1  0  0  0
 42109  1  0  0  0
 43 44  1  0  0  0
 44110  1  0  0  0
 45 46  2  0  0  0
 45111  1  0  0  0
 46112  1  0  0  0
 47113  1  0  0  0
 47114  1  0  0  0
 48 56  1  0  0  0
 48 65  1  0  0  0
 48115  1  0  0  0
 49 50  1  0  0  0
 49 53  1  0  0  0
 49 64  1  0  0  0
 49116  1  0  0  0
 50 51  1  0  0  0
 50117  1  0  0  0
 50118  1  0  0  0
 51 52  1  0  0  0
 51119  1  0  0  0
 51120  1  0  0  0
 52121  1  0  0  0
 52122  1  0  0  0
 53 54  1  0  0  0
 54 55  2  0  0  0
 54123  1  0  0  0
 55 57  1  0  0  0
 55124  1  0  0  0
 56 69  2  0  0  0
 57 58  2  0  0  0
 57125  1  0  0  0
 58126  1  0  0  0
 59 60  1  0  0  0
 59 61  1  0  0  0
 59 62  1  0  0  0
 60127  1  0  0  0
 60128  1  0  0  0
 60129  1  0  0  0
 61130  1  0  0  0
 61131  1  0  0  0
 61132  1  0  0  0
 62133  1  0  0  0
 62134  1  0  0  0
 62135  1  0  0  0
 63 65  1  0  0  0
 63136  1  0  0  0
 63137  1  0  0  0
 63138  1  0  0  0
 64139  1  0  0  0
 65140  1  0  0  0
 68 77  1  0  0  0
 71 72  2  0  0  0
 71 74  1  0  0  0
 71141  1  0  0  0
 72 75  1  0  0  0
 72142  1  0  0  0
 73 74  2  0  0  0
 73 76  1  0  0  0
 73143  1  0  0  0
 74 79  1  0  0  0
 75 76  2  0  0  0
 75 80  1  0  0  0
 76 81  1  0  0  0
 77 78  1  0  0  0
 77144  1  0  0  0
 77145  1  0  0  0
 78 80  1  0  0  0
 78146  1  0  0  0
 78147  1  0  0  0
 79148  1  0  0  0
M  ISO  4   1 100  68 101  77 101  79 100
M  END
> <chiral flag>
0

> <version>
0

> <s_m_source_file>
/data/baiqing/PycharmProjects/Reinvent-master-3.2/result/LINK_invent/BTK/process_docking_weight1_custom_sum_contain_oxygen_bond_distance_aromatic_linkinvent_7_9_3/rearranged_h_0010.sdf

> <i_m_source_file_index>
7

> <r_mmod_Potential_Energy-OPLS-2005>
491.091247558594

> <r_mmod_Stretch_Energy-OPLS-2005>
216.953765869141

> <r_mmod_Bend_Energy-OPLS-2005>
302.484619140625

> <r_mmod_Torsional_Energy-OPLS-2005>
212.021713256836

> <r_mmod_Improper_Torsional_Energy-OPLS-2005>
4.76716709136963

> <r_mmod_Van_der_Waal_Energy-OPLS-2005>
130.573699951172

> <r_mmod_Electrostatic_Energy-OPLS-2005>
-337.487060546875

> <r_mmod_Solvation_Energy-OPLS-2005>
-212.451721191406

> <b_mmod_Minimization_Converged-OPLS-2005>
0

> <r_mmod_RMS_Derivative-OPLS-2005>
0.366873770952225

$$$$
7
                    3D
 Structure written by MMmdl.
182190  0  0  1  0            999 V2000
  -30.6306  -14.6112   20.5190 C   0  0  0  0  0  0
  -30.4375  -12.3762   19.4484 C   0  0  0  0  0  0
  -29.5079  -12.5150   18.2220 C   0  0  0  0  0  0
  -28.0293  -12.3576   18.6296 C   0  0  0  0  0  0
  -27.6565  -13.2148   19.8679 C   0  0  2  0  0  0
  -28.6991  -13.0453   20.9961 C   0  0  0  0  0  0
  -25.2575  -13.8177   20.5662 C   0  0  0  0  0  0
  -24.1829  -13.0454   20.9163 C   0  0  0  0  0  0
  -24.6391  -11.6918   20.8730 C   0  0  0  0  0  0
  -23.9060  -10.4301   21.0398 C   0  0  0  0  0  0
  -24.3617   -9.4219   21.9182 C   0  0  0  0  0  0
  -23.6290   -8.2253   22.0757 C   0  0  0  0  0  0
  -22.4274   -8.0284   21.3542 C   0  0  0  0  0  0
  -21.9905   -9.0258   20.4646 C   0  0  0  0  0  0
  -22.7231  -10.2139   20.3050 C   0  0  0  0  0  0
  -21.6856   -6.0736   22.5276 C   0  0  0  0  0  0
  -21.4017   -6.5642   23.8210 C   0  0  0  0  0  0
  -21.3662   -5.6793   24.9174 C   0  0  0  0  0  0
  -21.6036   -4.3051   24.7223 C   0  0  0  0  0  0
  -21.8820   -3.8146   23.4345 C   0  0  0  0  0  0
  -21.9194   -4.6964   22.3400 C   0  0  0  0  0  0
  -22.7848  -13.5264   21.1815 C   0  0  0  0  0  0
  -22.1661   -4.2152   21.0977 F   0  0  0  0  0  0
  -21.5628   -3.4532   25.7735 F   0  0  0  0  0  0
  -30.0214  -13.3864   20.4421 N   0  0  0  0  0  0
  -26.3000  -12.9352   20.3317 N   0  0  0  0  0  0
  -25.9325  -11.6506   20.5757 N   0  0  0  0  0  0
  -22.0486  -12.8249   22.0366 N   0  0  0  0  0  0
  -25.4289  -15.1895   20.4063 N   0  0  0  0  0  0
  -31.7786  -14.7871   20.0985 O   0  0  0  0  0  0
  -21.6641   -6.8878   21.4240 O   0  0  0  0  0  0
  -22.3535  -14.5573   20.6675 O   0  0  0  0  0  0
  -24.6251  -31.8608   23.2031 C   0  0  0  0  0  0
  -25.9114  -32.4781   23.8338 C   0  0  1  0  0  0
  -27.2262  -27.3331   20.1095 C   0  0  0  0  0  0
  -25.5945  -33.8578   24.2275 N   0  0  0  0  0  0
  -23.4163  -30.4856   21.5476 C   0  0  2  0  0  0
  -24.8620  -28.9451   20.1108 C   0  0  0  0  0  0
  -22.7477  -29.4624   22.4959 C   0  0  0  0  0  0
  -18.0291  -28.1351   22.8485 C   0  0  0  0  0  0
  -24.1502  -36.7290   23.2636 C   0  0  0  0  0  0
  -25.9561  -30.7970   21.3689 C   0  0  0  0  0  0
  -26.0319  -29.4259   20.7112 C   0  0  0  0  0  0
  -27.2174  -28.6338   20.7002 C   0  0  0  0  0  0
  -26.0304  -26.9051   19.4849 C   0  0  0  0  0  0
  -24.8632  -27.6886   19.4893 C   0  0  0  0  0  0
  -23.6277  -29.8214   20.1626 C   0  0  0  0  0  0
  -25.4116  -36.3074   24.0336 C   0  0  1  0  0  0
  -20.5888  -28.3651   23.1291 C   0  0  2  0  0  0
  -20.6792  -26.9386   22.5395 C   0  0  0  0  0  0
  -19.5772  -26.6347   21.5205 C   0  0  0  0  0  0
  -18.1947  -26.7894   22.1610 C   0  0  0  0  0  0
  -19.1546  -28.8818   23.2877 C   0  0  0  0  0  0
  -18.9477  -30.1436   23.8870 C   0  0  0  0  0  0
  -17.6476  -30.6556   24.0557 C   0  0  0  0  0  0
  -25.9047  -34.9454   23.5087 C   0  0  0  0  0  0
  -16.5358  -29.9056   23.6332 C   0  0  0  0  0  0
  -16.7276  -28.6476   23.0333 C   0  0  0  0  0  0
  -26.4496  -31.6569   25.0693 C   0  0  0  0  0  0
  -25.3749  -31.3700   26.1444 C   0  0  0  0  0  0
  -27.0318  -30.2991   24.6089 C   0  0  0  0  0  0
  -27.6045  -32.4292   25.7496 C   0  0  0  0  0  0
  -27.5583  -37.1797   24.8465 C   0  0  0  0  0  0
  -21.4187  -29.3024   22.3700 N   0  0  0  0  0  0
  -26.4288  -37.3776   23.9430 N   0  0  0  0  0  0
  -24.6858  -31.0630   22.0973 N   0  0  0  0  0  0
  -23.4223  -28.8158   23.3024 O   0  0  0  0  0  0
  -28.3534  -26.4968   20.1474 O   0  0  0  0  0  0
  -26.5592  -34.8931   22.4639 O   0  0  0  0  0  0
  -23.5414  -32.1390   23.7368 O   0  0  0  0  0  0
  -30.8210  -17.7978   20.0060 C   0  0  0  0  0  0
  -30.7876  -19.2209   19.9233 C   0  0  0  0  0  0
  -28.9834  -17.8851   21.5413 C   0  0  0  0  0  0
  -28.9442  -19.3123   21.4747 C   0  0  0  0  0  0
  -29.9148  -17.0881   20.8310 C   0  0  0  0  0  0
  -29.8702  -20.0390   20.6485 C   0  0  0  0  0  0
  -27.9502  -19.9768   22.3806 C   0  0  0  0  0  0
  -19.9582  -17.3330   19.4496 C   0  0  0  0  0  0
  -18.9368  -16.2252   19.6577 C   0  0  0  0  0  0
  -31.3673  -21.9128   20.9954 C   0  0  0  0  0  0
  -20.6325  -17.8998   20.7005 C   0  0  0  0  0  0
  -21.9649  -18.6169   20.4208 C   0  0  0  0  0  0
  -22.6056  -19.1600   21.7060 C   0  0  0  0  0  0
  -23.9408  -19.8678   21.4406 C   0  0  0  0  0  0
  -24.5901  -20.4101   22.7246 C   0  0  0  0  0  0
  -29.3296  -24.0283   20.3144 C   0  0  0  0  0  0
  -25.8305  -21.2740   22.4502 C   0  0  0  0  0  0
  -28.9489  -22.5084   20.6136 C   0  0  0  0  0  0
  -28.1150  -25.0392   20.2022 C   0  0  0  0  0  0
  -29.8431  -15.6358   20.9679 N   0  0  0  0  0  0
  -26.8846  -20.5190   21.7793 N   0  0  0  0  0  0
  -30.0369  -21.4769   20.5665 N   0  0  0  0  0  0
  -28.1097  -19.9673   23.6038 O   0  0  0  0  0  0
  -20.2070  -17.7591   18.3188 O   0  0  0  0  0  0
  -31.4802  -12.4968   19.1495 H   0  0  0  0  0  0
  -30.3637  -11.3738   19.8736 H   0  0  0  0  0  0
  -29.7684  -11.7754   17.4641 H   0  0  0  0  0  0
  -29.6565  -13.4921   17.7580 H   0  0  0  0  0  0
  -27.8562  -11.3028   18.8452 H   0  0  0  0  0  0
  -27.3780  -12.6041   17.7905 H   0  0  0  0  0  0
  -27.6830  -14.2551   19.5434 H   0  0  0  0  0  0
  -28.7009  -12.0176   21.3611 H   0  0  0  0  0  0
  -28.4435  -13.6599   21.8595 H   0  0  0  0  0  0
  -25.2763   -9.5694   22.4754 H   0  0  0  0  0  0
  -23.9996   -7.4647   22.7475 H   0  0  0  0  0  0
  -21.0836   -8.8776   19.8951 H   0  0  0  0  0  0
  -22.3688  -10.9680   19.6158 H   0  0  0  0  0  0
  -21.2014   -7.6153   23.9719 H   0  0  0  0  0  0
  -21.1477   -6.0520   25.9077 H   0  0  0  0  0  0
  -22.0598   -2.7609   23.2841 H   0  0  0  0  0  0
  -22.4085  -11.9898   22.4741 H   0  0  0  0  0  0
  -21.1111  -13.1289   22.2568 H   0  0  0  0  0  0
  -24.6532  -15.8362   20.4893 H   0  0  0  0  0  0
  -26.2732  -15.6238   20.0566 H   0  0  0  0  0  0
  -26.7178  -32.5444   23.1076 H   0  0  0  0  0  0
  -25.0208  -33.9717   25.0496 H   0  0  0  0  0  0
  -22.7107  -31.3067   21.4058 H   0  0  0  0  0  0
  -23.3768  -35.9613   23.3256 H   0  0  0  0  0  0
  -24.3609  -36.8920   22.2057 H   0  0  0  0  0  0
  -23.7255  -37.6487   23.6662 H   0  0  0  0  0  0
  -26.0809  -31.5636   20.6030 H   0  0  0  0  0  0
  -26.8396  -30.8445   21.9938 H   0  0  0  0  0  0
  -28.1170  -29.0001   21.1742 H   0  0  0  0  0  0
  -25.9558  -25.9556   18.9792 H   0  0  0  0  0  0
  -23.9684  -27.3134   19.0119 H   0  0  0  0  0  0
  -23.7429  -30.5987   19.4074 H   0  0  0  0  0  0
  -22.7473  -29.2492   19.8636 H   0  0  0  0  0  0
  -25.1291  -36.1905   25.0825 H   0  0  0  0  0  0
  -20.9961  -28.3199   24.1419 H   0  0  0  0  0  0
  -20.5710  -26.2263   23.3582 H   0  0  0  0  0  0
  -21.6662  -26.7425   22.1183 H   0  0  0  0  0  0
  -19.6965  -25.6267   21.1218 H   0  0  0  0  0  0
  -19.6712  -27.3177   20.6754 H   0  0  0  0  0  0
  -17.4230  -26.6641   21.3999 H   0  0  0  0  0  0
  -18.0334  -26.0018   22.8981 H   0  0  0  0  0  0
  -19.7963  -30.7256   24.2196 H   0  0  0  0  0  0
  -17.5042  -31.6247   24.5147 H   0  0  0  0  0  0
  -15.5362  -30.2950   23.7678 H   0  0  0  0  0  0
  -15.8675  -28.0805   22.7016 H   0  0  0  0  0  0
  -24.5955  -30.6990   25.7817 H   0  0  0  0  0  0
  -24.8922  -32.2869   26.4837 H   0  0  0  0  0  0
  -25.8116  -30.8949   27.0239 H   0  0  0  0  0  0
  -26.2864  -29.6764   24.1121 H   0  0  0  0  0  0
  -27.4073  -29.7207   25.4539 H   0  0  0  0  0  0
  -27.8714  -30.4299   23.9253 H   0  0  0  0  0  0
  -27.2634  -33.3605   26.2042 H   0  0  0  0  0  0
  -28.3900  -32.6806   25.0353 H   0  0  0  0  0  0
  -28.0658  -31.8427   26.5457 H   0  0  0  0  0  0
  -28.2542  -38.0150   24.7532 H   0  0  0  0  0  0
  -28.1119  -36.2666   24.6215 H   0  0  0  0  0  0
  -27.2313  -37.1348   25.8872 H   0  0  0  0  0  0
  -20.9349  -29.8766   21.6940 H   0  0  0  0  0  0
  -26.0145  -38.2835   24.1450 H   0  0  0  0  0  0
  -31.5568  -17.2652   19.4228 H   0  0  0  0  0  0
  -31.5162  -19.6975   19.2833 H   0  0  0  0  0  0
  -28.2720  -17.3883   22.1879 H   0  0  0  0  0  0
  -18.3613  -16.4007   20.5662 H   0  0  0  0  0  0
  -19.4443  -15.2657   19.7494 H   0  0  0  0  0  0
  -18.2457  -16.1742   18.8165 H   0  0  0  0  0  0
  -32.0160  -21.0910   21.3019 H   0  0  0  0  0  0
  -31.2985  -22.5868   21.8491 H   0  0  0  0  0  0
  -31.8698  -22.4447   20.1859 H   0  0  0  0  0  0
  -20.7956  -17.0811   21.4013 H   0  0  0  0  0  0
  -19.9353  -18.5885   21.1774 H   0  0  0  0  0  0
  -21.8070  -19.4380   19.7199 H   0  0  0  0  0  0
  -22.6536  -17.9245   19.9340 H   0  0  0  0  0  0
  -22.7602  -18.3405   22.4097 H   0  0  0  0  0  0
  -21.9178  -19.8550   22.1905 H   0  0  0  0  0  0
  -23.7808  -20.6911   20.7425 H   0  0  0  0  0  0
  -24.6239  -19.1746   20.9485 H   0  0  0  0  0  0
  -24.8567  -19.5836   23.3859 H   0  0  0  0  0  0
  -23.8655  -21.0128   23.2743 H   0  0  0  0  0  0
  -29.9036  -24.0830   19.3881 H   0  0  0  0  0  0
  -29.9916  -24.3851   21.1036 H   0  0  0  0  0  0
  -26.1984  -21.7072   23.3817 H   0  0  0  0  0  0
  -25.5582  -22.1206   21.8189 H   0  0  0  0  0  0
  -28.1688  -22.2024   19.9149 H   0  0  0  0  0  0
  -28.5043  -22.4997   21.6067 H   0  0  0  0  0  0
  -27.4496  -24.8535   21.0472 H   0  0  0  0  0  0
  -27.5753  -24.7254   19.3108 H   0  0  0  0  0  0
  -28.9885  -15.2994   21.3851 H   0  0  0  0  0  0
  -26.8381  -20.4422   20.7731 H   0  0  0  0  0  0
  1 25  1  0  0  0
  1 30  2  0  0  0
  1 90  1  0  0  0
  2  3  1  0  0  0
  2 25  1  0  0  0
  2 95  1  0  0  0
  2 96  1  0  0  0
  3  4  1  0  0  0
  3 97  1  0  0  0
  3 98  1  0  0  0
  4  5  1  0  0  0
  4 99  1  0  0  0
  4100  1  0  0  0
  5  6  1  0  0  0
  5 26  1  0  0  0
  5101  1  0  0  0
  6 25  1  0  0  0
  6102  1  0  0  0
  6103  1  0  0  0
  7  8  2  0  0  0
  7 26  1  0  0  0
  7 29  1  0  0  0
  8  9  1  0  0  0
  8 22  1  0  0  0
  9 10  1  0  0  0
  9 27  2  0  0  0
 10 11  2  0  0  0
 10 15  1  0  0  0
 11 12  1  0  0  0
 11104  1  0  0  0
 12 13  2  0  0  0
 12105  1  0  0  0
 13 14  1  0  0  0
 13 31  1  0  0  0
 14 15  2  0  0  0
 14106  1  0  0  0
 15107  1  0  0  0
 16 17  2  0  0  0
 16 21  1  0  0  0
 16 31  1  0  0  0
 17 18  1  0  0  0
 17108  1  0  0  0
 18 19  2  0  0  0
 18109  1  0  0  0
 19 20  1  0  0  0
 19 24  1  0  0  0
 20 21  2  0  0  0
 20110  1  0  0  0
 21 23  1  0  0  0
 22 28  1  0  0  0
 22 32  2  0  0  0
 26 27  1  0  0  0
 28111  1  0  0  0
 28112  1  0  0  0
 29113  1  0  0  0
 29114  1  0  0  0
 33 34  1  0  0  0
 33 66  1  0  0  0
 33 70  2  0  0  0
 34 36  1  0  0  0
 34 59  1  0  0  0
 34115  1  0  0  0
 35 44  2  0  0  0
 35 45  1  0  0  0
 35 68  1  0  0  0
 36 56  1  0  0  0
 36116  1  0  0  0
 37 39  1  0  0  0
 37 47  1  0  0  0
 37 66  1  0  0  0
 37117  1  0  0  0
 38 43  2  0  0  0
 38 46  1  0  0  0
 38 47  1  0  0  0
 39 64  1  0  0  0
 39 67  2  0  0  0
 40 52  1  0  0  0
 40 53  2  0  0  0
 40 58  1  0  0  0
 41118  1  0  0  0
 41119  1  0  0  0
 41120  1  0  0  0
 41 48  1  0  0  0
 42 43  1  0  0  0
 42 66  1  0  0  0
 42121  1  0  0  0
 42122  1  0  0  0
 43 44  1  0  0  0
 44123  1  0  0  0
 45 46  2  0  0  0
 45124  1  0  0  0
 46125  1  0  0  0
 47126  1  0  0  0
 47127  1  0  0  0
 48 56  1  0  0  0
 48 65  1  0  0  0
 48128  1  0  0  0
 49 50  1  0  0  0
 49 53  1  0  0  0
 49 64  1  0  0  0
 49129  1  0  0  0
 50 51  1  0  0  0
 50130  1  0  0  0
 50131  1  0  0  0
 51 52  1  0  0  0
 51132  1  0  0  0
 51133  1  0  0  0
 52134  1  0  0  0
 52135  1  0  0  0
 53 54  1  0  0  0
 54 55  2  0  0  0
 54136  1  0  0  0
 55 57  1  0  0  0
 55137  1  0  0  0
 56 69  2  0  0  0
 57 58  2  0  0  0
 57138  1  0  0  0
 58139  1  0  0  0
 59 60  1  0  0  0
 59 61  1  0  0  0
 59 62  1  0  0  0
 60140  1  0  0  0
 60141  1  0  0  0
 60142  1  0  0  0
 61143  1  0  0  0
 61144  1  0  0  0
 61145  1  0  0  0
 62146  1  0  0  0
 62147  1  0  0  0
 62148  1  0  0  0
 63 65  1  0  0  0
 63149  1  0  0  0
 63150  1  0  0  0
 63151  1  0  0  0
 64152  1  0  0  0
 65153  1  0  0  0
 68 89  1  0  0  0
 71 72  2  0  0  0
 71 75  1  0  0  0
 71154  1  0  0  0
 72 76  1  0  0  0
 72155  1  0  0  0
 73 74  1  0  0  0
 73 75  2  0  0  0
 73156  1  0  0  0
 74 76  2  0  0  0
 74 77  1  0  0  0
 75 90  1  0  0  0
 76 92  1  0  0  0
 77 91  1  0  0  0
 77 93  2  0  0  0
 78 79  1  0  0  0
 78 81  1  0  0  0
 78 94  2  0  0  0
 79157  1  0  0  0
 79158  1  0  0  0
 79159  1  0  0  0
 80 92  1  0  0  0
 80160  1  0  0  0
 80161  1  0  0  0
 80162  1  0  0  0
 81 82  1  0  0  0
 81163  1  0  0  0
 81164  1  0  0  0
 82 83  1  0  0  0
 82165  1  0  0  0
 82166  1  0  0  0
 83 84  1  0  0  0
 83167  1  0  0  0
 83168  1  0  0  0
 84 85  1  0  0  0
 84169  1  0  0  0
 84170  1  0  0  0
 85 87  1  0  0  0
 85171  1  0  0  0
 85172  1  0  0  0
 86 88  1  0  0  0
 86 89  1  0  0  0
 86173  1  0  0  0
 86174  1  0  0  0
 87 91  1  0  0  0
 87175  1  0  0  0
 87176  1  0  0  0
 88 92  1  0  0  0
 88177  1  0  0  0
 88178  1  0  0  0
 89179  1  0  0  0
 89180  1  0  0  0
 90181  1  0  0  0
 91182  1  0  0  0
M  ISO  4   1 100  68 101  89 101  90 100
M  END
> <chiral flag>
0

> <version>
0

> <s_m_source_file>
/data/baiqing/PycharmProjects/Reinvent-master-3.2/result/LINK_invent/BTK/process_docking_weight1_custom_sum_contain_oxygen_bond_distance_aromatic_linkinvent_7_9_3/rearranged_h_0010.sdf

> <i_m_source_file_index>
8

> <r_mmod_Potential_Energy-OPLS-2005>
18.1056060791016

> <r_mmod_Stretch_Energy-OPLS-2005>
79.3854904174805

> <r_mmod_Bend_Energy-OPLS-2005>
159.876388549805

> <r_mmod_Torsional_Energy-OPLS-2005>
260.885833740234

> <r_mmod_Improper_Torsional_Energy-OPLS-2005>
5.58068370819092

> <r_mmod_Van_der_Waal_Energy-OPLS-2005>
141.849578857422

> <r_mmod_Electrostatic_Energy-OPLS-2005>
-415.100921630859

> <r_mmod_Solvation_Energy-OPLS-2005>
-254.190002441406

> <b_mmod_Minimization_Converged-OPLS-2005>
0

> <r_mmod_RMS_Derivative-OPLS-2005>
2.24053120613098

$$$$
8
                    3D
 Structure written by MMmdl.
156164  0  0  1  0            999 V2000
  -30.5249  -15.0235   20.4034 C   0  0  0  0  0  0
  -30.4378  -12.6385   19.5048 C   0  0  0  0  0  0
  -29.5225  -12.5359   18.2625 C   0  0  0  0  0  0
  -28.0595  -12.3084   18.6845 C   0  0  0  0  0  0
  -27.6237  -13.2554   19.8326 C   0  0  2  0  0  0
  -28.6653  -13.3251   20.9692 C   0  0  0  0  0  0
  -25.2438  -13.8228   20.5722 C   0  0  0  0  0  0
  -24.1766  -13.0440   20.9236 C   0  0  0  0  0  0
  -24.6394  -11.6930   20.8759 C   0  0  0  0  0  0
  -23.9084  -10.4295   21.0410 C   0  0  0  0  0  0
  -24.3630   -9.4207   21.9187 C   0  0  0  0  0  0
  -23.6301   -8.2244   22.0754 C   0  0  0  0  0  0
  -22.4282   -8.0283   21.3544 C   0  0  0  0  0  0
  -21.9923   -9.0257   20.4646 C   0  0  0  0  0  0
  -22.7255  -10.2135   20.3057 C   0  0  0  0  0  0
  -21.6855   -6.0738   22.5279 C   0  0  0  0  0  0
  -21.4015   -6.5641   23.8213 C   0  0  0  0  0  0
  -21.3660   -5.6793   24.9175 C   0  0  0  0  0  0
  -21.6043   -4.3056   24.7225 C   0  0  0  0  0  0
  -21.8819   -3.8148   23.4346 C   0  0  0  0  0  0
  -21.9193   -4.6966   22.3402 C   0  0  0  0  0  0
  -22.7785  -13.5205   21.1889 C   0  0  0  0  0  0
  -22.1661   -4.2151   21.0980 F   0  0  0  0  0  0
  -21.5628   -3.4539   25.7738 F   0  0  0  0  0  0
  -29.9299  -13.7557   20.3595 N   0  0  0  0  0  0
  -26.2862  -12.9472   20.3238 N   0  0  0  0  0  0
  -25.9327  -11.6595   20.5740 N   0  0  0  0  0  0
  -22.0440  -12.8188   22.0442 N   0  0  0  0  0  0
  -25.4089  -15.1961   20.4158 N   0  0  0  0  0  0
  -31.7372  -15.0471   20.1620 O   0  0  0  0  0  0
  -21.6643   -6.8882   21.4242 O   0  0  0  0  0  0
  -22.3467  -14.5508   20.6733 O   0  0  0  0  0  0
  -24.6486  -31.8380   23.1833 C   0  0  0  0  0  0
  -25.9233  -32.4661   23.8240 C   0  0  1  0  0  0
  -27.2163  -27.0819   20.1599 C   0  0  0  0  0  0
  -25.5959  -33.8470   24.2153 N   0  0  0  0  0  0
  -23.4551  -30.4558   21.5294 C   0  0  2  0  0  0
  -24.9052  -28.8715   20.1099 C   0  0  0  0  0  0
  -22.7592  -29.4518   22.4834 C   0  0  0  0  0  0
  -18.0311  -28.1400   22.8475 C   0  0  0  0  0  0
  -24.1492  -36.7241   23.2644 C   0  0  0  0  0  0
  -26.0146  -30.6950   21.3894 C   0  0  0  0  0  0
  -26.0845  -29.3008   20.7313 C   0  0  0  0  0  0
  -27.2402  -28.4236   20.7357 C   0  0  0  0  0  0
  -26.0100  -26.7657   19.4980 C   0  0  0  0  0  0
  -24.8839  -27.6198   19.4760 C   0  0  0  0  0  0
  -23.6846  -29.7809   20.1505 C   0  0  0  0  0  0
  -25.4126  -36.3011   24.0311 C   0  0  1  0  0  0
  -20.5927  -28.3728   23.1221 C   0  0  2  0  0  0
  -20.6790  -26.9425   22.5402 C   0  0  0  0  0  0
  -19.5763  -26.6381   21.5211 C   0  0  0  0  0  0
  -18.1946  -26.7937   22.1624 C   0  0  0  0  0  0
  -19.1569  -28.8883   23.2840 C   0  0  0  0  0  0
  -18.9484  -30.1478   23.8867 C   0  0  0  0  0  0
  -17.6479  -30.6593   24.0558 C   0  0  0  0  0  0
  -25.9081  -34.9388   23.5045 C   0  0  0  0  0  0
  -16.5370  -29.9083   23.6341 C   0  0  0  0  0  0
  -16.7295  -28.6504   23.0359 C   0  0  0  0  0  0
  -26.4538  -31.6555   25.0707 C   0  0  0  0  0  0
  -25.3708  -31.3759   26.1390 C   0  0  0  0  0  0
  -27.0414  -30.2944   24.6331 C   0  0  0  0  0  0
  -27.6055  -32.4337   25.7498 C   0  0  0  0  0  0
  -27.5573  -37.1774   24.8465 C   0  0  0  0  0  0
  -21.4278  -29.3045   22.3584 N   0  0  0  0  0  0
  -26.4282  -37.3732   23.9411 N   0  0  0  0  0  0
  -24.7264  -31.0191   22.0888 N   0  0  0  0  0  0
  -23.4210  -28.8072   23.3008 O   0  0  0  0  0  0
  -28.2557  -26.0665   20.2341 O   0  0  0  0  0  0
  -26.5675  -34.8898   22.4630 O   0  0  0  0  0  0
  -23.5593  -32.1276   23.7024 O   0  0  0  0  0  0
  -31.4245  -18.1613   20.4956 C   0  0  0  0  0  0
  -30.9168  -20.5919   20.3949 C   0  0  0  0  0  0
  -30.0685  -17.7659   20.4495 C   0  0  0  0  0  0
  -29.5185  -20.4080   20.3542 C   0  0  0  0  0  0
  -29.1322  -18.9455   20.3754 C   0  0  0  0  0  0
  -31.8304  -19.5152   20.4658 C   0  0  0  0  0  0
  -29.5270  -23.4157   21.8798 C   0  0  0  0  0  0
  -27.2313  -18.7651   19.0373 C   0  0  0  0  0  0
  -27.9850  -24.5128   20.0940 C   0  0  0  0  0  0
  -29.0292  -23.1917   20.4451 C   0  0  2  0  0  0
  -29.7502  -16.2374   20.4944 N   0  0  0  0  0  0
  -28.6645  -21.6514   20.2861 N   0  0  0  0  0  0
  -27.7975  -18.6400   20.3339 O   0  0  0  0  0  0
  -33.1554  -19.7936   20.5097 F   0  0  0  0  0  0
  -31.4689  -12.8015   19.1879 H   0  0  0  0  0  0
  -30.4447  -11.6997   20.0608 H   0  0  0  0  0  0
  -29.8553  -11.7274   17.6103 H   0  0  0  0  0  0
  -29.5964  -13.4534   17.6766 H   0  0  0  0  0  0
  -27.9717  -11.2718   19.0121 H   0  0  0  0  0  0
  -27.3936  -12.4142   17.8274 H   0  0  0  0  0  0
  -27.5731  -14.2477   19.3833 H   0  0  0  0  0  0
  -28.7722  -12.3613   21.4692 H   0  0  0  0  0  0
  -28.3523  -14.0391   21.7327 H   0  0  0  0  0  0
  -25.2772   -9.5683   22.4766 H   0  0  0  0  0  0
  -24.0006   -7.4636   22.7475 H   0  0  0  0  0  0
  -21.0854   -8.8780   19.8951 H   0  0  0  0  0  0
  -22.3715  -10.9676   19.6167 H   0  0  0  0  0  0
  -21.2008   -7.6149   23.9716 H   0  0  0  0  0  0
  -21.1482   -6.0524   25.9077 H   0  0  0  0  0  0
  -22.0597   -2.7610   23.2846 H   0  0  0  0  0  0
  -22.4069  -11.9855   22.4829 H   0  0  0  0  0  0
  -21.1053  -13.1200   22.2648 H   0  0  0  0  0  0
  -24.6385  -15.8446   20.5350 H   0  0  0  0  0  0
  -26.2517  -15.6425   20.0809 H   0  0  0  0  0  0
  -26.7296  -32.5247   23.0960 H   0  0  0  0  0  0
  -25.0076  -33.9573   25.0281 H   0  0  0  0  0  0
  -22.7610  -31.2837   21.3703 H   0  0  0  0  0  0
  -23.3759  -35.9566   23.3286 H   0  0  0  0  0  0
  -24.3576  -36.8901   22.2063 H   0  0  0  0  0  0
  -23.7242  -37.6427   23.6702 H   0  0  0  0  0  0
  -26.1770  -31.4460   20.6151 H   0  0  0  0  0  0
  -26.8824  -30.7463   22.0353 H   0  0  0  0  0  0
  -28.1370  -28.7473   21.2446 H   0  0  0  0  0  0
  -25.9050  -25.8079   19.0109 H   0  0  0  0  0  0
  -23.9843  -27.2867   18.9769 H   0  0  0  0  0  0
  -23.8257  -30.5531   19.3933 H   0  0  0  0  0  0
  -22.7980  -29.2262   19.8386 H   0  0  0  0  0  0
  -25.1316  -36.1827   25.0803 H   0  0  0  0  0  0
  -21.0022  -28.3322   24.1341 H   0  0  0  0  0  0
  -20.5679  -26.2342   23.3627 H   0  0  0  0  0  0
  -21.6654  -26.7419   22.1202 H   0  0  0  0  0  0
  -19.6922  -25.6285   21.1260 H   0  0  0  0  0  0
  -19.6702  -27.3174   20.6728 H   0  0  0  0  0  0
  -17.4213  -26.6685   21.4029 H   0  0  0  0  0  0
  -18.0342  -26.0086   22.9028 H   0  0  0  0  0  0
  -19.7959  -30.7303   24.2222 H   0  0  0  0  0  0
  -17.5031  -31.6272   24.5162 H   0  0  0  0  0  0
  -15.5368  -30.2973   23.7684 H   0  0  0  0  0  0
  -15.8697  -28.0812   22.7090 H   0  0  0  0  0  0
  -24.5901  -30.7093   25.7706 H   0  0  0  0  0  0
  -24.8880  -32.2944   26.4736 H   0  0  0  0  0  0
  -25.7976  -30.8983   27.0219 H   0  0  0  0  0  0
  -26.3044  -29.6651   24.1330 H   0  0  0  0  0  0
  -27.3998  -29.7267   25.4928 H   0  0  0  0  0  0
  -27.8965  -30.4167   23.9680 H   0  0  0  0  0  0
  -27.2641  -33.3669   26.1990 H   0  0  0  0  0  0
  -28.3910  -32.6847   25.0358 H   0  0  0  0  0  0
  -28.0673  -31.8519   26.5486 H   0  0  0  0  0  0
  -28.2572  -38.0087   24.7516 H   0  0  0  0  0  0
  -28.1088  -36.2615   24.6287 H   0  0  0  0  0  0
  -27.2293  -37.1411   25.8868 H   0  0  0  0  0  0
  -20.9499  -29.8749   21.6749 H   0  0  0  0  0  0
  -26.0143  -38.2796   24.1420 H   0  0  0  0  0  0
  -32.2058  -17.4212   20.5616 H   0  0  0  0  0  0
  -31.3290  -21.5885   20.3696 H   0  0  0  0  0  0
  -29.9068  -24.4308   22.0023 H   0  0  0  0  0  0
  -30.3334  -22.7367   22.1534 H   0  0  0  0  0  0
  -28.7203  -23.2811   22.6010 H   0  0  0  0  0  0
  -26.1890  -18.4467   19.0610 H   0  0  0  0  0  0
  -27.7545  -18.1348   18.3166 H   0  0  0  0  0  0
  -27.2554  -19.7943   18.6784 H   0  0  0  0  0  0
  -27.0788  -24.3342   20.6740 H   0  0  0  0  0  0
  -27.6821  -24.3729   19.0562 H   0  0  0  0  0  0
  -29.8876  -23.3376   19.7877 H   0  0  0  0  0  0
  -28.7649  -16.0450   20.5917 H   0  0  0  0  0  0
  -27.6656  -21.4676   20.2322 H   0  0  0  0  0  0
  1 25  1  0  0  0
  1 30  2  0  0  0
  1 81  1  0  0  0
  2  3  1  0  0  0
  2 25  1  0  0  0
  2 85  1  0  0  0
  2 86  1  0  0  0
  3  4  1  0  0  0
  3 87  1  0  0  0
  3 88  1  0  0  0
  4  5  1  0  0  0
  4 89  1  0  0  0
  4 90  1  0  0  0
  5  6  1  0  0  0
  5 26  1  0  0  0
  5 91  1  0  0  0
  6 25  1  0  0  0
  6 92  1  0  0  0
  6 93  1  0  0  0
  7  8  2  0  0  0
  7 26  1  0  0  0
  7 29  1  0  0  0
  8  9  1  0  0  0
  8 22  1  0  0  0
  9 10  1  0  0  0
  9 27  2  0  0  0
 10 11  2  0  0  0
 10 15  1  0  0  0
 11 12  1  0  0  0
 11 94  1  0  0  0
 12 13  2  0  0  0
 12 95  1  0  0  0
 13 14  1  0  0  0
 13 31  1  0  0  0
 14 15  2  0  0  0
 14 96  1  0  0  0
 15 97  1  0  0  0
 16 17  2  0  0  0
 16 21  1  0  0  0
 16 31  1  0  0  0
 17 18  1  0  0  0
 17 98  1  0  0  0
 18 19  2  0  0  0
 18 99  1  0  0  0
 19 20  1  0  0  0
 19 24  1  0  0  0
 20 21  2  0  0  0
 20100  1  0  0  0
 21 23  1  0  0  0
 22 28  1  0  0  0
 22 32  2  0  0  0
 26 27  1  0  0  0
 28101  1  0  0  0
 28102  1  0  0  0
 29103  1  0  0  0
 29104  1  0  0  0
 33 34  1  0  0  0
 33 66  1  0  0  0
 33 70  2  0  0  0
 34 36  1  0  0  0
 34 59  1  0  0  0
 34105  1  0  0  0
 35 44  2  0  0  0
 35 45  1  0  0  0
 35 68  1  0  0  0
 36 56  1  0  0  0
 36106  1  0  0  0
 37 39  1  0  0  0
 37 47  1  0  0  0
 37 66  1  0  0  0
 37107  1  0  0  0
 38 43  2  0  0  0
 38 46  1  0  0  0
 38 47  1  0  0  0
 39 64  1  0  0  0
 39 67  2  0  0  0
 40 52  1  0  0  0
 40 53  2  0  0  0
 40 58  1  0  0  0
 41108  1  0  0  0
 41109  1  0  0  0
 41110  1  0  0  0
 41 48  1  0  0  0
 42 43  1  0  0  0
 42 66  1  0  0  0
 42111  1  0  0  0
 42112  1  0  0  0
 43 44  1  0  0  0
 44113  1  0  0  0
 45 46  2  0  0  0
 45114  1  0  0  0
 46115  1  0  0  0
 47116  1  0  0  0
 47117  1  0  0  0
 48 56  1  0  0  0
 48 65  1  0  0  0
 48118  1  0  0  0
 49 50  1  0  0  0
 49 53  1  0  0  0
 49 64  1  0  0  0
 49119  1  0  0  0
 50 51  1  0  0  0
 50120  1  0  0  0
 50121  1  0  0  0
 51 52  1  0  0  0
 51122  1  0  0  0
 51123  1  0  0  0
 52124  1  0  0  0
 52125  1  0  0  0
 53 54  1  0  0  0
 54 55  2  0  0  0
 54126  1  0  0  0
 55 57  1  0  0  0
 55127  1  0  0  0
 56 69  2  0  0  0
 57 58  2  0  0  0
 57128  1  0  0  0
 58129  1  0  0  0
 59 60  1  0  0  0
 59 61  1  0  0  0
 59 62  1  0  0  0
 60130  1  0  0  0
 60131  1  0  0  0
 60132  1  0  0  0
 61133  1  0  0  0
 61134  1  0  0  0
 61135  1  0  0  0
 62136  1  0  0  0
 62137  1  0  0  0
 62138  1  0  0  0
 63 65  1  0  0  0
 63139  1  0  0  0
 63140  1  0  0  0
 63141  1  0  0  0
 64142  1  0  0  0
 65143  1  0  0  0
 68 79  1  0  0  0
 71 73  2  0  0  0
 71 76  1  0  0  0
 71144  1  0  0  0
 72 74  1  0  0  0
 72 76  2  0  0  0
 72145  1  0  0  0
 73 75  1  0  0  0
 73 81  1  0  0  0
 74 75  2  0  0  0
 74 82  1  0  0  0
 75 83  1  0  0  0
 76 84  1  0  0  0
 77146  1  0  0  0
 77147  1  0  0  0
 77148  1  0  0  0
 77 80  1  0  0  0
 78 83  1  0  0  0
 78149  1  0  0  0
 78150  1  0  0  0
 78151  1  0  0  0
 79 80  1  0  0  0
 79152  1  0  0  0
 79153  1  0  0  0
 80 82  1  0  0  0
 80154  1  0  0  0
 81155  1  0  0  0
 82156  1  0  0  0
M  ISO  4   1 100  68 101  79 101  81 100
M  END
> <chiral flag>
0

> <version>
0

> <s_m_source_file>
/data/baiqing/PycharmProjects/Reinvent-master-3.2/result/LINK_invent/BTK/process_docking_weight1_custom_sum_contain_oxygen_bond_distance_aromatic_linkinvent_7_9_3/rearranged_h_0010.sdf

> <i_m_source_file_index>
9

> <r_mmod_Potential_Energy-OPLS-2005>
627.268432617188

> <r_mmod_Stretch_Energy-OPLS-2005>
323.662231445312

> <r_mmod_Bend_Energy-OPLS-2005>
277.284851074219

> <r_mmod_Torsional_Energy-OPLS-2005>
234.196762084961

> <r_mmod_Improper_Torsional_Energy-OPLS-2005>
4.76944398880005

> <r_mmod_Van_der_Waal_Energy-OPLS-2005>
126.715049743652

> <r_mmod_Electrostatic_Energy-OPLS-2005>
-373.521575927734

> <r_mmod_Solvation_Energy-OPLS-2005>
-212.057601928711

> <b_mmod_Minimization_Converged-OPLS-2005>
0

> <r_mmod_RMS_Derivative-OPLS-2005>
0.27609857916832

$$$$
9
                    3D
 Structure written by MMmdl.
148156  0  0  1  0            999 V2000
  -30.5229  -14.9232   20.4181 C   0  0  0  0  0  0
  -30.4522  -12.5679   19.4857 C   0  0  0  0  0  0
  -29.5227  -12.5332   18.2487 C   0  0  0  0  0  0
  -28.0534  -12.3247   18.6659 C   0  0  0  0  0  0
  -27.6357  -13.2432   19.8441 C   0  0  2  0  0  0
  -28.6845  -13.2333   20.9779 C   0  0  0  0  0  0
  -25.2456  -13.8175   20.5705 C   0  0  0  0  0  0
  -24.1773  -13.0399   20.9199 C   0  0  0  0  0  0
  -24.6405  -11.6897   20.8735 C   0  0  0  0  0  0
  -23.9085  -10.4272   21.0392 C   0  0  0  0  0  0
  -24.3628   -9.4192   21.9179 C   0  0  0  0  0  0
  -23.6291   -8.2235   22.0754 C   0  0  0  0  0  0
  -22.4274   -8.0279   21.3544 C   0  0  0  0  0  0
  -21.9913   -9.0252   20.4647 C   0  0  0  0  0  0
  -22.7251  -10.2121   20.3049 C   0  0  0  0  0  0
  -21.6852   -6.0729   22.5276 C   0  0  0  0  0  0
  -21.4014   -6.5632   23.8209 C   0  0  0  0  0  0
  -21.3661   -5.6786   24.9172 C   0  0  0  0  0  0
  -21.6045   -4.3049   24.7224 C   0  0  0  0  0  0
  -21.8819   -3.8140   23.4346 C   0  0  0  0  0  0
  -21.9192   -4.6956   22.3400 C   0  0  0  0  0  0
  -22.7793  -13.5178   21.1865 C   0  0  0  0  0  0
  -22.1662   -4.2142   21.0978 F   0  0  0  0  0  0
  -21.5629   -3.4535   25.7738 F   0  0  0  0  0  0
  -29.9675  -13.6465   20.3882 N   0  0  0  0  0  0
  -26.2919  -12.9426   20.3274 N   0  0  0  0  0  0
  -25.9344  -11.6552   20.5738 N   0  0  0  0  0  0
  -22.0453  -12.8180   22.0439 N   0  0  0  0  0  0
  -25.3985  -15.1905   20.4184 N   0  0  0  0  0  0
  -31.7200  -15.0470   20.1363 O   0  0  0  0  0  0
  -21.6638   -6.8877   21.4241 O   0  0  0  0  0  0
  -22.3469  -14.5485   20.6719 O   0  0  0  0  0  0
  -24.6439  -31.8448   23.1893 C   0  0  0  0  0  0
  -25.9212  -32.4700   23.8284 C   0  0  1  0  0  0
  -27.2223  -27.1432   20.1398 C   0  0  0  0  0  0
  -25.5958  -33.8506   24.2198 N   0  0  0  0  0  0
  -23.4477  -30.4650   21.5350 C   0  0  2  0  0  0
  -24.8980  -28.8964   20.1096 C   0  0  0  0  0  0
  -22.7575  -29.4549   22.4860 C   0  0  0  0  0  0
  -18.0310  -28.1394   22.8479 C   0  0  0  0  0  0
  -24.1494  -36.7257   23.2643 C   0  0  0  0  0  0
  -26.0046  -30.7195   21.3893 C   0  0  0  0  0  0
  -26.0766  -29.3321   20.7284 C   0  0  0  0  0  0
  -27.2389  -28.4715   20.7288 C   0  0  0  0  0  0
  -26.0152  -26.8130   19.4806 C   0  0  0  0  0  0
  -24.8797  -27.6491   19.4716 C   0  0  0  0  0  0
  -23.6743  -29.7971   20.1537 C   0  0  0  0  0  0
  -25.4126  -36.3034   24.0315 C   0  0  1  0  0  0
  -20.5923  -28.3721   23.1235 C   0  0  2  0  0  0
  -20.6792  -26.9422   22.5404 C   0  0  0  0  0  0
  -19.5763  -26.6377   21.5215 C   0  0  0  0  0  0
  -18.1947  -26.7931   22.1629 C   0  0  0  0  0  0
  -19.1567  -28.8877   23.2848 C   0  0  0  0  0  0
  -18.9481  -30.1472   23.8873 C   0  0  0  0  0  0
  -17.6475  -30.6587   24.0559 C   0  0  0  0  0  0
  -25.9075  -34.9408   23.5066 C   0  0  0  0  0  0
  -16.5367  -29.9078   23.6333 C   0  0  0  0  0  0
  -16.7295  -28.6499   23.0353 C   0  0  0  0  0  0
  -26.4526  -31.6565   25.0726 C   0  0  0  0  0  0
  -25.3704  -31.3764   26.1418 C   0  0  0  0  0  0
  -27.0383  -30.2952   24.6315 C   0  0  0  0  0  0
  -27.6058  -32.4329   25.7509 C   0  0  0  0  0  0
  -27.5573  -37.1795   24.8471 C   0  0  0  0  0  0
  -21.4268  -29.3048   22.3605 N   0  0  0  0  0  0
  -26.4295  -37.3740   23.9396 N   0  0  0  0  0  0
  -24.7183  -31.0306   22.0927 N   0  0  0  0  0  0
  -23.4220  -28.8092   23.3006 O   0  0  0  0  0  0
  -28.2679  -26.1479   20.2098 O   0  0  0  0  0  0
  -26.5660  -34.8903   22.4644 O   0  0  0  0  0  0
  -23.5556  -32.1328   23.7105 O   0  0  0  0  0  0
  -30.2961  -20.0170   20.4256 C   0  0  0  0  0  0
  -30.5838  -18.5770   20.5039 C   0  0  0  0  0  0
  -28.0053  -19.5294   20.1717 C   0  0  0  0  0  0
  -28.9753  -20.5791   20.2571 C   0  0  0  0  0  0
  -29.5783  -17.5427   20.4311 C   0  0  0  0  0  0
  -28.2822  -18.1155   20.2590 C   0  0  0  0  0  0
  -28.9344  -23.3662   20.2880 C   0  0  0  0  0  0
  -27.9293  -24.6471   19.9728 C   0  0  0  0  0  0
  -28.4899  -22.0311   20.1185 N   0  0  0  0  0  0
  -29.6452  -16.0185   20.5765 N   0  0  0  0  0  0
  -30.0846  -23.5963   20.6703 O   0  0  0  0  0  0
  -27.2386  -17.2582   20.1703 F   0  0  0  0  0  0
  -31.4835  -12.7374   19.1725 H   0  0  0  0  0  0
  -30.4493  -11.6058   20.0004 H   0  0  0  0  0  0
  -29.8323  -11.7426   17.5639 H   0  0  0  0  0  0
  -29.6152  -13.4694   17.6962 H   0  0  0  0  0  0
  -27.9392  -11.2796   18.9559 H   0  0  0  0  0  0
  -27.3917  -12.4779   17.8127 H   0  0  0  0  0  0
  -27.6038  -14.2530   19.4341 H   0  0  0  0  0  0
  -28.7633  -12.2428   21.4286 H   0  0  0  0  0  0
  -28.3903  -13.9113   21.7806 H   0  0  0  0  0  0
  -25.2773   -9.5664   22.4755 H   0  0  0  0  0  0
  -23.9994   -7.4627   22.7479 H   0  0  0  0  0  0
  -21.0839   -8.8777   19.8956 H   0  0  0  0  0  0
  -22.3714  -10.9663   19.6160 H   0  0  0  0  0  0
  -21.2007   -7.6141   23.9710 H   0  0  0  0  0  0
  -21.1483   -6.0517   25.9074 H   0  0  0  0  0  0
  -22.0597   -2.7603   23.2849 H   0  0  0  0  0  0
  -22.4080  -11.9853   22.4836 H   0  0  0  0  0  0
  -21.1076  -13.1210   22.2656 H   0  0  0  0  0  0
  -24.6180  -15.8228   20.5520 H   0  0  0  0  0  0
  -26.2437  -15.6829   20.1485 H   0  0  0  0  0  0
  -26.7281  -32.5307   23.1018 H   0  0  0  0  0  0
  -25.0079  -33.9622   25.0327 H   0  0  0  0  0  0
  -22.7503  -31.2911   21.3817 H   0  0  0  0  0  0
  -23.3749  -35.9597   23.3317 H   0  0  0  0  0  0
  -24.3572  -36.8874   22.2054 H   0  0  0  0  0  0
  -23.7264  -37.6465   23.6670 H   0  0  0  0  0  0
  -26.1626  -31.4759   20.6192 H   0  0  0  0  0  0
  -26.8744  -30.7677   22.0330 H   0  0  0  0  0  0
  -28.1348  -28.7996   21.2373 H   0  0  0  0  0  0
  -25.9045  -25.8650   18.9778 H   0  0  0  0  0  0
  -23.9813  -27.3108   18.9740 H   0  0  0  0  0  0
  -23.8102  -30.5729   19.3992 H   0  0  0  0  0  0
  -22.7896  -29.2391   19.8428 H   0  0  0  0  0  0
  -25.1316  -36.1868   25.0809 H   0  0  0  0  0  0
  -21.0022  -28.3313   24.1353 H   0  0  0  0  0  0
  -20.5686  -26.2335   23.3625 H   0  0  0  0  0  0
  -21.6658  -26.7423   22.1202 H   0  0  0  0  0  0
  -19.6920  -25.6283   21.1257 H   0  0  0  0  0  0
  -19.6691  -27.3177   20.6736 H   0  0  0  0  0  0
  -17.4212  -26.6676   21.4036 H   0  0  0  0  0  0
  -18.0343  -26.0079   22.9032 H   0  0  0  0  0  0
  -19.7955  -30.7300   24.2230 H   0  0  0  0  0  0
  -17.5023  -31.6265   24.5165 H   0  0  0  0  0  0
  -15.5365  -30.2969   23.7664 H   0  0  0  0  0  0
  -15.8699  -28.0805   22.7076 H   0  0  0  0  0  0
  -24.5888  -30.7108   25.7740 H   0  0  0  0  0  0
  -24.8889  -32.2949   26.4781 H   0  0  0  0  0  0
  -25.7979  -30.8978   27.0237 H   0  0  0  0  0  0
  -26.3001  -29.6681   24.1303 H   0  0  0  0  0  0
  -27.3961  -29.7250   25.4899 H   0  0  0  0  0  0
  -27.8927  -30.4174   23.9656 H   0  0  0  0  0  0
  -27.2650  -33.3642   26.2044 H   0  0  0  0  0  0
  -28.3889  -32.6872   25.0355 H   0  0  0  0  0  0
  -28.0704  -31.8486   26.5461 H   0  0  0  0  0  0
  -28.2612  -38.0067   24.7470 H   0  0  0  0  0  0
  -28.1046  -36.2597   24.6360 H   0  0  0  0  0  0
  -27.2283  -37.1519   25.8873 H   0  0  0  0  0  0
  -20.9477  -29.8763   21.6786 H   0  0  0  0  0  0
  -26.0164  -38.2818   24.1361 H   0  0  0  0  0  0
  -31.1302  -20.7013   20.4938 H   0  0  0  0  0  0
  -31.6119  -18.2747   20.6419 H   0  0  0  0  0  0
  -26.9705  -19.8057   20.0355 H   0  0  0  0  0  0
  -27.0130  -24.4341   20.5243 H   0  0  0  0  0  0
  -27.6767  -24.5464   18.9172 H   0  0  0  0  0  0
  -27.5204  -22.0610   19.8323 H   0  0  0  0  0  0
  -28.7156  -15.6558   20.7243 H   0  0  0  0  0  0
  1 25  1  0  0  0
  1 30  2  0  0  0
  1 80  1  0  0  0
  2  3  1  0  0  0
  2 25  1  0  0  0
  2 83  1  0  0  0
  2 84  1  0  0  0
  3  4  1  0  0  0
  3 85  1  0  0  0
  3 86  1  0  0  0
  4  5  1  0  0  0
  4 87  1  0  0  0
  4 88  1  0  0  0
  5  6  1  0  0  0
  5 26  1  0  0  0
  5 89  1  0  0  0
  6 25  1  0  0  0
  6 90  1  0  0  0
  6 91  1  0  0  0
  7  8  2  0  0  0
  7 26  1  0  0  0
  7 29  1  0  0  0
  8  9  1  0  0  0
  8 22  1  0  0  0
  9 10  1  0  0  0
  9 27  2  0  0  0
 10 11  2  0  0  0
 10 15  1  0  0  0
 11 12  1  0  0  0
 11 92  1  0  0  0
 12 13  2  0  0  0
 12 93  1  0  0  0
 13 14  1  0  0  0
 13 31  1  0  0  0
 14 15  2  0  0  0
 14 94  1  0  0  0
 15 95  1  0  0  0
 16 17  2  0  0  0
 16 21  1  0  0  0
 16 31  1  0  0  0
 17 18  1  0  0  0
 17 96  1  0  0  0
 18 19  2  0  0  0
 18 97  1  0  0  0
 19 20  1  0  0  0
 19 24  1  0  0  0
 20 21  2  0  0  0
 20 98  1  0  0  0
 21 23  1  0  0  0
 22 28  1  0  0  0
 22 32  2  0  0  0
 26 27  1  0  0  0
 28 99  1  0  0  0
 28100  1  0  0  0
 29101  1  0  0  0
 29102  1  0  0  0
 33 34  1  0  0  0
 33 66  1  0  0  0
 33 70  2  0  0  0
 34 36  1  0  0  0
 34 59  1  0  0  0
 34103  1  0  0  0
 35 44  2  0  0  0
 35 45  1  0  0  0
 35 68  1  0  0  0
 36 56  1  0  0  0
 36104  1  0  0  0
 37 39  1  0  0  0
 37 47  1  0  0  0
 37 66  1  0  0  0
 37105  1  0  0  0
 38 43  2  0  0  0
 38 46  1  0  0  0
 38 47  1  0  0  0
 39 64  1  0  0  0
 39 67  2  0  0  0
 40 52  1  0  0  0
 40 53  2  0  0  0
 40 58  1  0  0  0
 41106  1  0  0  0
 41107  1  0  0  0
 41108  1  0  0  0
 41 48  1  0  0  0
 42 43  1  0  0  0
 42 66  1  0  0  0
 42109  1  0  0  0
 42110  1  0  0  0
 43 44  1  0  0  0
 44111  1  0  0  0
 45 46  2  0  0  0
 45112  1  0  0  0
 46113  1  0  0  0
 47114  1  0  0  0
 47115  1  0  0  0
 48 56  1  0  0  0
 48 65  1  0  0  0
 48116  1  0  0  0
 49 50  1  0  0  0
 49 53  1  0  0  0
 49 64  1  0  0  0
 49117  1  0  0  0
 50 51  1  0  0  0
 50118  1  0  0  0
 50119  1  0  0  0
 51 52  1  0  0  0
 51120  1  0  0  0
 51121  1  0  0  0
 52122  1  0  0  0
 52123  1  0  0  0
 53 54  1  0  0  0
 54 55  2  0  0  0
 54124  1  0  0  0
 55 57  1  0  0  0
 55125  1  0  0  0
 56 69  2  0  0  0
 57 58  2  0  0  0
 57126  1  0  0  0
 58127  1  0  0  0
 59 60  1  0  0  0
 59 61  1  0  0  0
 59 62  1  0  0  0
 60128  1  0  0  0
 60129  1  0  0  0
 60130  1  0  0  0
 61131  1  0  0  0
 61132  1  0  0  0
 61133  1  0  0  0
 62134  1  0  0  0
 62135  1  0  0  0
 62136  1  0  0  0
 63 65  1  0  0  0
 63137  1  0  0  0
 63138  1  0  0  0
 63139  1  0  0  0
 64140  1  0  0  0
 65141  1  0  0  0
 68 78  1  0  0  0
 71 72  2  0  0  0
 71 74  1  0  0  0
 71142  1  0  0  0
 72 75  1  0  0  0
 72143  1  0  0  0
 73 74  2  0  0  0
 73 76  1  0  0  0
 73144  1  0  0  0
 74 79  1  0  0  0
 75 76  2  0  0  0
 75 80  1  0  0  0
 76 82  1  0  0  0
 77 78  1  0  0  0
 77 79  1  0  0  0
 77 81  2  0  0  0
 78145  1  0  0  0
 78146  1  0  0  0
 79147  1  0  0  0
 80148  1  0  0  0
M  ISO  4   1 100  68 101  78 101  80 100
M  END
> <chiral flag>
0

> <version>
0

> <s_m_source_file>
/data/baiqing/PycharmProjects/Reinvent-master-3.2/result/LINK_invent/BTK/process_docking_weight1_custom_sum_contain_oxygen_bond_distance_aromatic_linkinvent_7_9_3/rearranged_h_0010.sdf

> <i_m_source_file_index>
10

> <r_mmod_Potential_Energy-OPLS-2005>
393.216552734375

> <r_mmod_Stretch_Energy-OPLS-2005>
217.871948242188

> <r_mmod_Bend_Energy-OPLS-2005>
284.265167236328

> <r_mmod_Torsional_Energy-OPLS-2005>
220.855941772461

> <r_mmod_Improper_Torsional_Energy-OPLS-2005>
4.66032266616821

> <r_mmod_Van_der_Waal_Energy-OPLS-2005>
131.992782592773

> <r_mmod_Electrostatic_Energy-OPLS-2005>
-408.452697753906

> <r_mmod_Solvation_Energy-OPLS-2005>
-240.841186523438

> <b_mmod_Minimization_Converged-OPLS-2005>
0

> <r_mmod_RMS_Derivative-OPLS-2005>
0.679981827735901

$$$$
10
                    3D
 Structure written by MMmdl.
155163  0  0  1  0            999 V2000
  -30.5217  -14.9324   20.4247 C   0  0  0  0  0  0
  -30.4475  -12.5744   19.4978 C   0  0  0  0  0  0
  -29.5249  -12.5454   18.2555 C   0  0  0  0  0  0
  -28.0527  -12.3361   18.6632 C   0  0  0  0  0  0
  -27.6348  -13.2476   19.8466 C   0  0  2  0  0  0
  -28.6787  -13.2372   20.9852 C   0  0  0  0  0  0
  -25.2468  -13.8213   20.5708 C   0  0  0  0  0  0
  -24.1775  -13.0440   20.9232 C   0  0  0  0  0  0
  -24.6382  -11.6925   20.8746 C   0  0  0  0  0  0
  -23.9057  -10.4296   21.0402 C   0  0  0  0  0  0
  -24.3610   -9.4208   21.9176 C   0  0  0  0  0  0
  -23.6293   -8.2232   22.0740 C   0  0  0  0  0  0
  -22.4276   -8.0265   21.3531 C   0  0  0  0  0  0
  -21.9906   -9.0233   20.4627 C   0  0  0  0  0  0
  -22.7231  -10.2122   20.3044 C   0  0  0  0  0  0
  -21.6851   -6.0722   22.5278 C   0  0  0  0  0  0
  -21.4011   -6.5623   23.8215 C   0  0  0  0  0  0
  -21.3678   -5.6776   24.9180 C   0  0  0  0  0  0
  -21.6060   -4.3040   24.7228 C   0  0  0  0  0  0
  -21.8811   -3.8127   23.4349 C   0  0  0  0  0  0
  -21.9185   -4.6946   22.3407 C   0  0  0  0  0  0
  -22.7791  -13.5196   21.1898 C   0  0  0  0  0  0
  -22.1657   -4.2121   21.0990 F   0  0  0  0  0  0
  -21.5644   -3.4535   25.7750 F   0  0  0  0  0  0
  -29.9634  -13.6543   20.4037 N   0  0  0  0  0  0
  -26.2901  -12.9447   20.3262 N   0  0  0  0  0  0
  -25.9324  -11.6583   20.5734 N   0  0  0  0  0  0
  -22.0436  -12.8181   22.0457 N   0  0  0  0  0  0
  -25.4131  -15.1936   20.4120 N   0  0  0  0  0  0
  -31.7052  -15.0464   20.0886 O   0  0  0  0  0  0
  -21.6646   -6.8863   21.4235 O   0  0  0  0  0  0
  -22.3478  -14.5505   20.6758 O   0  0  0  0  0  0
  -24.6442  -31.8453   23.1911 C   0  0  0  0  0  0
  -25.9211  -32.4700   23.8299 C   0  0  1  0  0  0
  -27.2223  -27.1347   20.1626 C   0  0  0  0  0  0
  -25.5971  -33.8509   24.2225 N   0  0  0  0  0  0
  -23.4489  -30.4657   21.5358 C   0  0  2  0  0  0
  -24.9025  -28.8964   20.1117 C   0  0  0  0  0  0
  -22.7571  -29.4552   22.4857 C   0  0  0  0  0  0
  -18.0304  -28.1395   22.8474 C   0  0  0  0  0  0
  -24.1498  -36.7231   23.2644 C   0  0  0  0  0  0
  -26.0057  -30.7196   21.3936 C   0  0  0  0  0  0
  -26.0787  -29.3306   20.7362 C   0  0  0  0  0  0
  -27.2360  -28.4640   20.7514 C   0  0  0  0  0  0
  -26.0255  -26.8176   19.4768 C   0  0  0  0  0  0
  -24.8892  -27.6522   19.4674 C   0  0  0  0  0  0
  -23.6779  -29.7965   20.1551 C   0  0  0  0  0  0
  -25.4133  -36.3036   24.0331 C   0  0  1  0  0  0
  -20.5919  -28.3716   23.1231 C   0  0  2  0  0  0
  -20.6784  -26.9413   22.5414 C   0  0  0  0  0  0
  -19.5763  -26.6373   21.5220 C   0  0  0  0  0  0
  -18.1943  -26.7929   22.1629 C   0  0  0  0  0  0
  -19.1561  -28.8875   23.2848 C   0  0  0  0  0  0
  -18.9476  -30.1471   23.8869 C   0  0  0  0  0  0
  -17.6471  -30.6589   24.0554 C   0  0  0  0  0  0
  -25.9082  -34.9405   23.5084 C   0  0  0  0  0  0
  -16.5361  -29.9083   23.6331 C   0  0  0  0  0  0
  -16.7285  -28.6505   23.0349 C   0  0  0  0  0  0
  -26.4544  -31.6542   25.0717 C   0  0  0  0  0  0
  -25.3736  -31.3706   26.1411 C   0  0  0  0  0  0
  -27.0394  -30.2932   24.6283 C   0  0  0  0  0  0
  -27.6116  -32.4269   25.7473 C   0  0  0  0  0  0
  -27.5581  -37.1781   24.8466 C   0  0  0  0  0  0
  -21.4263  -29.3041   22.3592 N   0  0  0  0  0  0
  -26.4294  -37.3750   23.9410 N   0  0  0  0  0  0
  -24.7190  -31.0310   22.0948 N   0  0  0  0  0  0
  -23.4205  -28.8098   23.3016 O   0  0  0  0  0  0
  -28.2570  -26.1283   20.2763 O   0  0  0  0  0  0
  -26.5652  -34.8894   22.4656 O   0  0  0  0  0  0
  -23.5560  -32.1321   23.7135 O   0  0  0  0  0  0
  -30.4080  -19.8232   19.5600 C   0  0  0  0  0  0
  -30.5611  -18.3864   19.7267 C   0  0  0  0  0  0
  -28.5583  -19.8420   21.0081 C   0  0  0  0  0  0
  -29.3977  -20.6586   20.1750 C   0  0  0  0  0  0
  -29.6957  -17.5765   20.5279 C   0  0  0  0  0  0
  -28.6790  -18.3846   21.1593 C   0  0  0  0  0  0
  -28.6900  -23.2807   20.5559 C   0  0  0  0  0  0
  -29.8629  -22.5410   18.5663 C   0  0  0  0  0  0
  -26.6148  -18.2812   22.3924 C   0  0  0  0  0  0
  -27.9827  -24.6408   19.8906 C   0  0  0  0  0  0
  -29.6904  -16.0492   20.6908 N   0  0  0  0  0  0
  -29.2123  -22.1625   19.8294 N   0  0  0  0  0  0
  -28.6847  -23.2227   21.7902 O   0  0  0  0  0  0
  -27.7925  -17.6468   21.9172 O   0  0  0  0  0  0
  -31.4800  -12.7391   19.1866 H   0  0  0  0  0  0
  -30.4435  -11.6102   20.0082 H   0  0  0  0  0  0
  -29.8407  -11.7611   17.5655 H   0  0  0  0  0  0
  -29.6193  -13.4866   17.7116 H   0  0  0  0  0  0
  -27.9310  -11.2891   18.9443 H   0  0  0  0  0  0
  -27.3937  -12.5007   17.8088 H   0  0  0  0  0  0
  -27.6076  -14.2605   19.4436 H   0  0  0  0  0  0
  -28.7548  -12.2442   21.4316 H   0  0  0  0  0  0
  -28.3785  -13.9113   21.7886 H   0  0  0  0  0  0
  -25.2752   -9.5689   22.4756 H   0  0  0  0  0  0
  -24.0001   -7.4618   22.7460 H   0  0  0  0  0  0
  -21.0837   -8.8735   19.8935 H   0  0  0  0  0  0
  -22.3673  -10.9647   19.6148 H   0  0  0  0  0  0
  -21.1994   -7.6132   23.9712 H   0  0  0  0  0  0
  -21.1533   -6.0515   25.9088 H   0  0  0  0  0  0
  -22.0580   -2.7586   23.2862 H   0  0  0  0  0  0
  -22.4041  -11.9825   22.4821 H   0  0  0  0  0  0
  -21.1036  -13.1178   22.2648 H   0  0  0  0  0  0
  -24.6429  -15.8444   20.5186 H   0  0  0  0  0  0
  -26.2554  -15.6301   20.0603 H   0  0  0  0  0  0
  -26.7273  -32.5319   23.1031 H   0  0  0  0  0  0
  -25.0104  -33.9621   25.0361 H   0  0  0  0  0  0
  -22.7534  -31.2935   21.3823 H   0  0  0  0  0  0
  -23.3780  -35.9541   23.3305 H   0  0  0  0  0  0
  -24.3580  -36.8849   22.2055 H   0  0  0  0  0  0
  -23.7221  -37.6425   23.6660 H   0  0  0  0  0  0
  -26.1645  -31.4755   20.6237 H   0  0  0  0  0  0
  -26.8755  -30.7706   22.0362 H   0  0  0  0  0  0
  -28.1242  -28.7875   21.2776 H   0  0  0  0  0  0
  -25.9180  -25.8755   18.9636 H   0  0  0  0  0  0
  -23.9936  -27.3140   18.9647 H   0  0  0  0  0  0
  -23.8165  -30.5730   19.4026 H   0  0  0  0  0  0
  -22.7933  -29.2406   19.8402 H   0  0  0  0  0  0
  -25.1327  -36.1880   25.0826 H   0  0  0  0  0  0
  -21.0028  -28.3311   24.1349 H   0  0  0  0  0  0
  -20.5677  -26.2326   23.3636 H   0  0  0  0  0  0
  -21.6647  -26.7416   22.1211 H   0  0  0  0  0  0
  -19.6920  -25.6284   21.1254 H   0  0  0  0  0  0
  -19.6704  -27.3179   20.6749 H   0  0  0  0  0  0
  -17.4218  -26.6675   21.4031 H   0  0  0  0  0  0
  -18.0336  -26.0077   22.9030 H   0  0  0  0  0  0
  -19.7953  -30.7297   24.2218 H   0  0  0  0  0  0
  -17.5022  -31.6266   24.5168 H   0  0  0  0  0  0
  -15.5357  -30.2980   23.7668 H   0  0  0  0  0  0
  -15.8682  -28.0817   22.7071 H   0  0  0  0  0  0
  -24.5967  -30.6998   25.7721 H   0  0  0  0  0  0
  -24.8861  -32.2863   26.4767 H   0  0  0  0  0  0
  -25.8039  -30.8934   27.0225 H   0  0  0  0  0  0
  -26.2998  -29.6650   24.1307 H   0  0  0  0  0  0
  -27.4018  -29.7238   25.4852 H   0  0  0  0  0  0
  -27.8911  -30.4150   23.9588 H   0  0  0  0  0  0
  -27.2784  -33.3628   26.1972 H   0  0  0  0  0  0
  -28.3969  -32.6717   25.0304 H   0  0  0  0  0  0
  -28.0730  -31.8412   26.5437 H   0  0  0  0  0  0
  -28.2605  -38.0074   24.7532 H   0  0  0  0  0  0
  -28.1082  -36.2613   24.6298 H   0  0  0  0  0  0
  -27.2286  -37.1417   25.8862 H   0  0  0  0  0  0
  -20.9469  -29.8726   21.6745 H   0  0  0  0  0  0
  -26.0169  -38.2822   24.1421 H   0  0  0  0  0  0
  -31.1177  -20.2876   18.8922 H   0  0  0  0  0  0
  -31.3537  -17.8967   19.1793 H   0  0  0  0  0  0
  -27.7607  -20.3651   21.5132 H   0  0  0  0  0  0
  -30.9447  -22.5658   18.7091 H   0  0  0  0  0  0
  -29.6046  -23.5142   18.1599 H   0  0  0  0  0  0
  -29.6409  -21.8155   17.7838 H   0  0  0  0  0  0
  -25.9537  -17.5286   22.8219 H   0  0  0  0  0  0
  -26.0680  -18.7715   21.5859 H   0  0  0  0  0  0
  -26.8461  -19.0081   23.1713 H   0  0  0  0  0  0
  -26.9513  -24.4618   20.1924 H   0  0  0  0  0  0
  -27.9480  -24.5776   18.8059 H   0  0  0  0  0  0
  -28.8095  -15.7354   21.0688 H   0  0  0  0  0  0
  1 25  1  0  0  0
  1 30  2  0  0  0
  1 81  1  0  0  0
  2  3  1  0  0  0
  2 25  1  0  0  0
  2 85  1  0  0  0
  2 86  1  0  0  0
  3  4  1  0  0  0
  3 87  1  0  0  0
  3 88  1  0  0  0
  4  5  1  0  0  0
  4 89  1  0  0  0
  4 90  1  0  0  0
  5  6  1  0  0  0
  5 26  1  0  0  0
  5 91  1  0  0  0
  6 25  1  0  0  0
  6 92  1  0  0  0
  6 93  1  0  0  0
  7  8  2  0  0  0
  7 26  1  0  0  0
  7 29  1  0  0  0
  8  9  1  0  0  0
  8 22  1  0  0  0
  9 10  1  0  0  0
  9 27  2  0  0  0
 10 11  2  0  0  0
 10 15  1  0  0  0
 11 12  1  0  0  0
 11 94  1  0  0  0
 12 13  2  0  0  0
 12 95  1  0  0  0
 13 14  1  0  0  0
 13 31  1  0  0  0
 14 15  2  0  0  0
 14 96  1  0  0  0
 15 97  1  0  0  0
 16 17  2  0  0  0
 16 21  1  0  0  0
 16 31  1  0  0  0
 17 18  1  0  0  0
 17 98  1  0  0  0
 18 19  2  0  0  0
 18 99  1  0  0  0
 19 20  1  0  0  0
 19 24  1  0  0  0
 20 21  2  0  0  0
 20100  1  0  0  0
 21 23  1  0  0  0
 22 28  1  0  0  0
 22 32  2  0  0  0
 26 27  1  0  0  0
 28101  1  0  0  0
 28102  1  0  0  0
 29103  1  0  0  0
 29104  1  0  0  0
 33 34  1  0  0  0
 33 66  1  0  0  0
 33 70  2  0  0  0
 34 36  1  0  0  0
 34 59  1  0  0  0
 34105  1  0  0  0
 35 44  2  0  0  0
 35 45  1  0  0  0
 35 68  1  0  0  0
 36 56  1  0  0  0
 36106  1  0  0  0
 37 39  1  0  0  0
 37 47  1  0  0  0
 37 66  1  0  0  0
 37107  1  0  0  0
 38 43  2  0  0  0
 38 46  1  0  0  0
 38 47  1  0  0  0
 39 64  1  0  0  0
 39 67  2  0  0  0
 40 52  1  0  0  0
 40 53  2  0  0  0
 40 58  1  0  0  0
 41108  1  0  0  0
 41109  1  0  0  0
 41110  1  0  0  0
 41 48  1  0  0  0
 42 43  1  0  0  0
 42 66  1  0  0  0
 42111  1  0  0  0
 42112  1  0  0  0
 43 44  1  0  0  0
 44113  1  0  0  0
 45 46  2  0  0  0
 45114  1  0  0  0
 46115  1  0  0  0
 47116  1  0  0  0
 47117  1  0  0  0
 48 56  1  0  0  0
 48 65  1  0  0  0
 48118  1  0  0  0
 49 50  1  0  0  0
 49 53  1  0  0  0
 49 64  1  0  0  0
 49119  1  0  0  0
 50 51  1  0  0  0
 50120  1  0  0  0
 50121  1  0  0  0
 51 52  1  0  0  0
 51122  1  0  0  0
 51123  1  0  0  0
 52124  1  0  0  0
 52125  1  0  0  0
 53 54  1  0  0  0
 54 55  2  0  0  0
 54126  1  0  0  0
 55 57  1  0  0  0
 55127  1  0  0  0
 56 69  2  0  0  0
 57 58  2  0  0  0
 57128  1  0  0  0
 58129  1  0  0  0
 59 60  1  0  0  0
 59 61  1  0  0  0
 59 62  1  0  0  0
 60130  1  0  0  0
 60131  1  0  0  0
 60132  1  0  0  0
 61133  1  0  0  0
 61134  1  0  0  0
 61135  1  0  0  0
 62136  1  0  0  0
 62137  1  0  0  0
 62138  1  0  0  0
 63 65  1  0  0  0
 63139  1  0  0  0
 63140  1  0  0  0
 63141  1  0  0  0
 64142  1  0  0  0
 65143  1  0  0  0
 68 80  1  0  0  0
 71 72  2  0  0  0
 71 74  1  0  0  0
 71144  1  0  0  0
 72 75  1  0  0  0
 72145  1  0  0  0
 73 74  2  0  0  0
 73 76  1  0  0  0
 73146  1  0  0  0
 74 82  1  0  0  0
 75 76  2  0  0  0
 75 81  1  0  0  0
 76 84  1  0  0  0
 77 80  1  0  0  0
 77 82  1  0  0  0
 77 83  2  0  0  0
 78 82  1  0  0  0
 78147  1  0  0  0
 78148  1  0  0  0
 78149  1  0  0  0
 79 84  1  0  0  0
 79150  1  0  0  0
 79151  1  0  0  0
 79152  1  0  0  0
 80153  1  0  0  0
 80154  1  0  0  0
 81155  1  0  0  0
M  ISO  4   1 100  68 101  80 101  81 100
M  END
> <chiral flag>
0

> <version>
0

> <s_m_source_file>
/data/baiqing/PycharmProjects/Reinvent-master-3.2/result/LINK_invent/BTK/process_docking_weight1_custom_sum_contain_oxygen_bond_distance_aromatic_linkinvent_7_9_3/rearranged_h_0010.sdf

> <i_m_source_file_index>
11

> <r_mmod_Potential_Energy-OPLS-2005>
540.132202148438

> <r_mmod_Stretch_Energy-OPLS-2005>
246.939544677734

> <r_mmod_Bend_Energy-OPLS-2005>
279.266815185547

> <r_mmod_Torsional_Energy-OPLS-2005>
266.499816894531

> <r_mmod_Improper_Torsional_Energy-OPLS-2005>
4.78109455108643

> <r_mmod_Van_der_Waal_Energy-OPLS-2005>
147.944229125977

> <r_mmod_Electrostatic_Energy-OPLS-2005>
-366.684020996094

> <r_mmod_Solvation_Energy-OPLS-2005>
-230.089721679688

> <b_mmod_Minimization_Converged-OPLS-2005>
0

> <r_mmod_RMS_Derivative-OPLS-2005>
2.11357736587524

$$$$
11
                    3D
 Structure written by MMmdl.
150158  0  0  1  0            999 V2000
  -30.4246  -15.3347   20.3852 C   0  0  0  0  0  0
  -30.4375  -12.8639   19.5237 C   0  0  0  0  0  0
  -29.5424  -12.5903   18.2897 C   0  0  0  0  0  0
  -28.0957  -12.2953   18.7241 C   0  0  0  0  0  0
  -27.6084  -13.2820   19.8160 C   0  0  2  0  0  0
  -28.6408  -13.4935   20.9447 C   0  0  0  0  0  0
  -25.2360  -13.8278   20.5724 C   0  0  0  0  0  0
  -24.1751  -13.0464   20.9287 C   0  0  0  0  0  0
  -24.6420  -11.6952   20.8783 C   0  0  0  0  0  0
  -23.9108  -10.4307   21.0418 C   0  0  0  0  0  0
  -24.3678   -9.4206   21.9183 C   0  0  0  0  0  0
  -23.6351   -8.2240   22.0741 C   0  0  0  0  0  0
  -22.4322   -8.0283   21.3544 C   0  0  0  0  0  0
  -21.9934   -9.0266   20.4670 C   0  0  0  0  0  0
  -22.7265  -10.2151   20.3082 C   0  0  0  0  0  0
  -21.6872   -6.0770   22.5309 C   0  0  0  0  0  0
  -21.4012   -6.5669   23.8243 C   0  0  0  0  0  0
  -21.3635   -5.6820   24.9193 C   0  0  0  0  0  0
  -21.6032   -4.3087   24.7237 C   0  0  0  0  0  0
  -21.8811   -3.8169   23.4368 C   0  0  0  0  0  0
  -21.9200   -4.6994   22.3416 C   0  0  0  0  0  0
  -22.7758  -13.5171   21.1929 C   0  0  0  0  0  0
  -22.1677   -4.2175   21.1002 F   0  0  0  0  0  0
  -21.5603   -3.4549   25.7753 F   0  0  0  0  0  0
  -29.8573  -14.0230   20.3060 N   0  0  0  0  0  0
  -26.2804  -12.9565   20.3197 N   0  0  0  0  0  0
  -25.9356  -11.6671   20.5737 N   0  0  0  0  0  0
  -22.0457  -12.8209   22.0541 N   0  0  0  0  0  0
  -25.3954  -15.2034   20.4129 N   0  0  0  0  0  0
  -31.6551  -15.2982   20.2157 O   0  0  0  0  0  0
  -21.6650   -6.8914   21.4275 O   0  0  0  0  0  0
  -22.3384  -14.5442   20.6747 O   0  0  0  0  0  0
  -24.6645  -31.8192   23.1643 C   0  0  0  0  0  0
  -25.9316  -32.4549   23.8120 C   0  0  1  0  0  0
  -27.2277  -26.8814   20.1930 C   0  0  0  0  0  0
  -25.5982  -33.8367   24.2035 N   0  0  0  0  0  0
  -23.4834  -30.4259   21.5134 C   0  0  2  0  0  0
  -24.9416  -28.8028   20.1117 C   0  0  0  0  0  0
  -22.7669  -29.4421   22.4749 C   0  0  0  0  0  0
  -18.0317  -28.1428   22.8437 C   0  0  0  0  0  0
  -24.1506  -36.7195   23.2639 C   0  0  0  0  0  0
  -26.0531  -30.6141   21.3976 C   0  0  0  0  0  0
  -26.1246  -29.1973   20.7473 C   0  0  0  0  0  0
  -27.2594  -28.2586   20.7615 C   0  0  0  0  0  0
  -26.0208  -26.6609   19.4898 C   0  0  0  0  0  0
  -24.9180  -27.5574   19.4617 C   0  0  0  0  0  0
  -23.7271  -29.7328   20.1439 C   0  0  0  0  0  0
  -25.4142  -36.2954   24.0280 C   0  0  1  0  0  0
  -20.5937  -28.3780   23.1169 C   0  0  2  0  0  0
  -20.6791  -26.9451   22.5403 C   0  0  0  0  0  0
  -19.5791  -26.6393   21.5193 C   0  0  0  0  0  0
  -18.1970  -26.7954   22.1604 C   0  0  0  0  0  0
  -19.1570  -28.8917   23.2801 C   0  0  0  0  0  0
  -18.9493  -30.1505   23.8854 C   0  0  0  0  0  0
  -17.6488  -30.6620   24.0547 C   0  0  0  0  0  0
  -25.9100  -34.9334   23.4985 C   0  0  0  0  0  0
  -16.5373  -29.9112   23.6337 C   0  0  0  0  0  0
  -16.7300  -28.6525   23.0353 C   0  0  0  0  0  0
  -26.4579  -31.6504   25.0655 C   0  0  0  0  0  0
  -25.3703  -31.3778   26.1308 C   0  0  0  0  0  0
  -27.0443  -30.2859   24.6386 C   0  0  0  0  0  0
  -27.6072  -32.4301   25.7471 C   0  0  0  0  0  0
  -27.5573  -37.1755   24.8463 C   0  0  0  0  0  0
  -21.4327  -29.3055   22.3499 N   0  0  0  0  0  0
  -26.4300  -37.3683   23.9390 N   0  0  0  0  0  0
  -24.7555  -30.9811   22.0794 N   0  0  0  0  0  0
  -23.4196  -28.7996   23.3002 O   0  0  0  0  0  0
  -28.2198  -25.7523   20.3229 O   0  0  0  0  0  0
  -26.5736  -34.8856   22.4595 O   0  0  0  0  0  0
  -23.5709  -32.1172   23.6726 O   0  0  0  0  0  0
  -28.8771  -19.8023   22.2500 C   0  0  0  0  0  0
  -31.0702  -18.1510   21.6221 C   0  0  0  0  0  0
  -29.6976  -19.3011   23.2772 C   0  0  0  0  0  0
  -30.0082  -18.2269   20.6865 C   0  0  0  0  0  0
  -29.1975  -19.5870   20.8896 C   0  0  0  0  0  0
  -30.8617  -18.5887   22.9431 C   0  0  0  0  0  0
  -28.1070  -24.1086   19.9775 C   0  0  0  0  0  0
  -28.7143  -22.5009   20.6570 C   0  0  0  0  0  0
  -29.4245  -19.5931   24.6154 N   0  0  0  0  0  0
  -29.6782  -16.6446   20.4109 N   0  0  0  0  0  0
  -28.9839  -20.9202   20.1274 O   0  0  0  0  0  0
  -31.7241  -18.2223   23.9238 F   0  0  0  0  0  0
  -31.4533  -13.0720   19.1867 H   0  0  0  0  0  0
  -30.5206  -11.9744   20.1516 H   0  0  0  0  0  0
  -29.9400  -11.7576   17.7071 H   0  0  0  0  0  0
  -29.5618  -13.4606   17.6312 H   0  0  0  0  0  0
  -28.0749  -11.2767   19.1165 H   0  0  0  0  0  0
  -27.4249  -12.3064   17.8639 H   0  0  0  0  0  0
  -27.5119  -14.2395   19.3028 H   0  0  0  0  0  0
  -28.8347  -12.5719   21.4980 H   0  0  0  0  0  0
  -28.2644  -14.2190   21.6681 H   0  0  0  0  0  0
  -25.2827   -9.5672   22.4764 H   0  0  0  0  0  0
  -24.0053   -7.4626   22.7458 H   0  0  0  0  0  0
  -21.0816   -8.8830   19.9033 H   0  0  0  0  0  0
  -22.3713  -10.9718   19.6229 H   0  0  0  0  0  0
  -21.2025   -7.6184   23.9757 H   0  0  0  0  0  0
  -21.1440   -6.0549   25.9100 H   0  0  0  0  0  0
  -22.0598   -2.7630   23.2871 H   0  0  0  0  0  0
  -22.4114  -11.9981   22.5085 H   0  0  0  0  0  0
  -21.1067  -13.1250   22.2742 H   0  0  0  0  0  0
  -24.6220  -15.8455   20.5463 H   0  0  0  0  0  0
  -26.2048  -15.6436   19.9961 H   0  0  0  0  0  0
  -26.7375  -32.5101   23.0814 H   0  0  0  0  0  0
  -25.0011  -33.9440   25.0110 H   0  0  0  0  0  0
  -22.7977  -31.2566   21.3366 H   0  0  0  0  0  0
  -23.3763  -35.9539   23.3283 H   0  0  0  0  0  0
  -24.3562  -36.8862   22.2059 H   0  0  0  0  0  0
  -23.7280  -37.6374   23.6714 H   0  0  0  0  0  0
  -26.2260  -31.3541   20.6159 H   0  0  0  0  0  0
  -26.9142  -30.6844   22.0473 H   0  0  0  0  0  0
  -28.1569  -28.5605   21.2852 H   0  0  0  0  0  0
  -25.8904  -25.7134   18.9886 H   0  0  0  0  0  0
  -24.0215  -27.2519   18.9417 H   0  0  0  0  0  0
  -23.8797  -30.4980   19.3817 H   0  0  0  0  0  0
  -22.8363  -29.1849   19.8291 H   0  0  0  0  0  0
  -25.1341  -36.1729   25.0769 H   0  0  0  0  0  0
  -21.0023  -28.3420   24.1300 H   0  0  0  0  0  0
  -20.5658  -26.2399   23.3647 H   0  0  0  0  0  0
  -21.6654  -26.7429   22.1220 H   0  0  0  0  0  0
  -19.6960  -25.6289   21.1278 H   0  0  0  0  0  0
  -19.6742  -27.3165   20.6690 H   0  0  0  0  0  0
  -17.4221  -26.6650   21.4042 H   0  0  0  0  0  0
  -18.0404  -26.0136   22.9042 H   0  0  0  0  0  0
  -19.7974  -30.7318   24.2220 H   0  0  0  0  0  0
  -17.5052  -31.6291   24.5175 H   0  0  0  0  0  0
  -15.5385  -30.3011   23.7696 H   0  0  0  0  0  0
  -15.8685  -28.0846   22.7100 H   0  0  0  0  0  0
  -24.5936  -30.7046   25.7651 H   0  0  0  0  0  0
  -24.8818  -32.2981   26.4537 H   0  0  0  0  0  0
  -25.7949  -30.9114   27.0210 H   0  0  0  0  0  0
  -26.3101  -29.6550   24.1358 H   0  0  0  0  0  0
  -27.3929  -29.7188   25.5031 H   0  0  0  0  0  0
  -27.9071  -30.3990   23.9811 H   0  0  0  0  0  0
  -27.2650  -33.3653   26.1909 H   0  0  0  0  0  0
  -28.3987  -32.6769   25.0382 H   0  0  0  0  0  0
  -28.0620  -31.8496   26.5508 H   0  0  0  0  0  0
  -28.2573  -38.0065   24.7467 H   0  0  0  0  0  0
  -28.1089  -36.2578   24.6352 H   0  0  0  0  0  0
  -27.2268  -37.1451   25.8863 H   0  0  0  0  0  0
  -20.9599  -29.8708   21.6580 H   0  0  0  0  0  0
  -26.0131  -38.2739   24.1394 H   0  0  0  0  0  0
  -28.1203  -20.5193   22.5254 H   0  0  0  0  0  0
  -31.8682  -17.4332   21.5079 H   0  0  0  0  0  0
  -27.0376  -23.9476   19.8503 H   0  0  0  0  0  0
  -28.4855  -24.0956   18.9552 H   0  0  0  0  0  0
  -28.0815  -22.3861   21.5363 H   0  0  0  0  0  0
  -29.6888  -22.7518   21.0759 H   0  0  0  0  0  0
  -28.4493  -19.6685   24.8877 H   0  0  0  0  0  0
  -29.9682  -19.0644   25.2929 H   0  0  0  0  0  0
  -28.6870  -16.4793   20.3123 H   0  0  0  0  0  0
  1 25  1  0  0  0
  1 30  2  0  0  0
  1 80  1  0  0  0
  2  3  1  0  0  0
  2 25  1  0  0  0
  2 83  1  0  0  0
  2 84  1  0  0  0
  3  4  1  0  0  0
  3 85  1  0  0  0
  3 86  1  0  0  0
  4  5  1  0  0  0
  4 87  1  0  0  0
  4 88  1  0  0  0
  5  6  1  0  0  0
  5 26  1  0  0  0
  5 89  1  0  0  0
  6 25  1  0  0  0
  6 90  1  0  0  0
  6 91  1  0  0  0
  7  8  2  0  0  0
  7 26  1  0  0  0
  7 29  1  0  0  0
  8  9  1  0  0  0
  8 22  1  0  0  0
  9 10  1  0  0  0
  9 27  2  0  0  0
 10 11  2  0  0  0
 10 15  1  0  0  0
 11 12  1  0  0  0
 11 92  1  0  0  0
 12 13  2  0  0  0
 12 93  1  0  0  0
 13 14  1  0  0  0
 13 31  1  0  0  0
 14 15  2  0  0  0
 14 94  1  0  0  0
 15 95  1  0  0  0
 16 17  2  0  0  0
 16 21  1  0  0  0
 16 31  1  0  0  0
 17 18  1  0  0  0
 17 96  1  0  0  0
 18 19  2  0  0  0
 18 97  1  0  0  0
 19 20  1  0  0  0
 19 24  1  0  0  0
 20 21  2  0  0  0
 20 98  1  0  0  0
 21 23  1  0  0  0
 22 28  1  0  0  0
 22 32  2  0  0  0
 26 27  1  0  0  0
 28 99  1  0  0  0
 28100  1  0  0  0
 29101  1  0  0  0
 29102  1  0  0  0
 33 34  1  0  0  0
 33 66  1  0  0  0
 33 70  2  0  0  0
 34 36  1  0  0  0
 34 59  1  0  0  0
 34103  1  0  0  0
 35 44  2  0  0  0
 35 45  1  0  0  0
 35 68  1  0  0  0
 36 56  1  0  0  0
 36104  1  0  0  0
 37 39  1  0  0  0
 37 47  1  0  0  0
 37 66  1  0  0  0
 37105  1  0  0  0
 38 43  2  0  0  0
 38 46  1  0  0  0
 38 47  1  0  0  0
 39 64  1  0  0  0
 39 67  2  0  0  0
 40 52  1  0  0  0
 40 53  2  0  0  0
 40 58  1  0  0  0
 41106  1  0  0  0
 41107  1  0  0  0
 41108  1  0  0  0
 41 48  1  0  0  0
 42 43  1  0  0  0
 42 66  1  0  0  0
 42109  1  0  0  0
 42110  1  0  0  0
 43 44  1  0  0  0
 44111  1  0  0  0
 45 46  2  0  0  0
 45112  1  0  0  0
 46113  1  0  0  0
 47114  1  0  0  0
 47115  1  0  0  0
 48 56  1  0  0  0
 48 65  1  0  0  0
 48116  1  0  0  0
 49 50  1  0  0  0
 49 53  1  0  0  0
 49 64  1  0  0  0
 49117  1  0  0  0
 50 51  1  0  0  0
 50118  1  0  0  0
 50119  1  0  0  0
 51 52  1  0  0  0
 51120  1  0  0  0
 51121  1  0  0  0
 52122  1  0  0  0
 52123  1  0  0  0
 53 54  1  0  0  0
 54 55  2  0  0  0
 54124  1  0  0  0
 55 57  1  0  0  0
 55125  1  0  0  0
 56 69  2  0  0  0
 57 58  2  0  0  0
 57126  1  0  0  0
 58127  1  0  0  0
 59 60  1  0  0  0
 59 61  1  0  0  0
 59 62  1  0  0  0
 60128  1  0  0  0
 60129  1  0  0  0
 60130  1  0  0  0
 61131  1  0  0  0
 61132  1  0  0  0
 61133  1  0  0  0
 62134  1  0  0  0
 62135  1  0  0  0
 62136  1  0  0  0
 63 65  1  0  0  0
 63137  1  0  0  0
 63138  1  0  0  0
 63139  1  0  0  0
 64140  1  0  0  0
 65141  1  0  0  0
 68 77  1  0  0  0
 71 73  2  0  0  0
 71 75  1  0  0  0
 71142  1  0  0  0
 72 74  1  0  0  0
 72 76  2  0  0  0
 72143  1  0  0  0
 73 76  1  0  0  0
 73 79  1  0  0  0
 74 75  2  0  0  0
 74 80  1  0  0  0
 75 81  1  0  0  0
 76 82  1  0  0  0
 77 78  1  0  0  0
 77144  1  0  0  0
 77145  1  0  0  0
 78 81  1  0  0  0
 78146  1  0  0  0
 78147  1  0  0  0
 79148  1  0  0  0
 79149  1  0  0  0
 80150  1  0  0  0
M  ISO  4   1 100  68 101  77 101  80 100
M  END
> <chiral flag>
0

> <version>
0

> <s_m_source_file>
/data/baiqing/PycharmProjects/Reinvent-master-3.2/result/LINK_invent/BTK/process_docking_weight1_custom_sum_contain_oxygen_bond_distance_aromatic_linkinvent_7_9_3/rearranged_h_0010.sdf

> <i_m_source_file_index>
12

> <r_mmod_Potential_Energy-OPLS-2005>
1777.07409667969

> <r_mmod_Stretch_Energy-OPLS-2005>
734.900512695312

> <r_mmod_Bend_Energy-OPLS-2005>
517.069580078125

> <r_mmod_Torsional_Energy-OPLS-2005>
425.885559082031

> <r_mmod_Improper_Torsional_Energy-OPLS-2005>
30.8488883972168

> <r_mmod_Van_der_Waal_Energy-OPLS-2005>
134.299591064453

> <r_mmod_Electrostatic_Energy-OPLS-2005>
-373.275146484375

> <r_mmod_Solvation_Energy-OPLS-2005>
-226.019561767578

> <b_mmod_Minimization_Converged-OPLS-2005>
0

> <r_mmod_RMS_Derivative-OPLS-2005>
3.96514248847961

$$$$
12
                    3D
 Structure written by MMmdl.
151159  0  0  1  0            999 V2000
  -30.5154  -14.9345   20.4291 C   0  0  0  0  0  0
  -30.4493  -12.5749   19.5034 C   0  0  0  0  0  0
  -29.5281  -12.5371   18.2598 C   0  0  0  0  0  0
  -28.0578  -12.3267   18.6703 C   0  0  0  0  0  0
  -27.6372  -13.2438   19.8485 C   0  0  2  0  0  0
  -28.6784  -13.2364   20.9894 C   0  0  0  0  0  0
  -25.2496  -13.8209   20.5717 C   0  0  0  0  0  0
  -24.1791  -13.0445   20.9211 C   0  0  0  0  0  0
  -24.6393  -11.6926   20.8733 C   0  0  0  0  0  0
  -23.9071  -10.4301   21.0398 C   0  0  0  0  0  0
  -24.3623   -9.4218   21.9175 C   0  0  0  0  0  0
  -23.6300   -8.2249   22.0748 C   0  0  0  0  0  0
  -22.4280   -8.0282   21.3542 C   0  0  0  0  0  0
  -21.9914   -9.0258   20.4645 C   0  0  0  0  0  0
  -22.7240  -10.2141   20.3052 C   0  0  0  0  0  0
  -21.6855   -6.0735   22.5278 C   0  0  0  0  0  0
  -21.4014   -6.5635   23.8214 C   0  0  0  0  0  0
  -21.3663   -5.6785   24.9173 C   0  0  0  0  0  0
  -21.6045   -4.3050   24.7222 C   0  0  0  0  0  0
  -21.8819   -3.8145   23.4342 C   0  0  0  0  0  0
  -21.9195   -4.6962   22.3397 C   0  0  0  0  0  0
  -22.7815  -13.5230   21.1876 C   0  0  0  0  0  0
  -22.1664   -4.2149   21.0974 F   0  0  0  0  0  0
  -21.5632   -3.4532   25.7736 F   0  0  0  0  0  0
  -29.9616  -13.6550   20.4080 N   0  0  0  0  0  0
  -26.2919  -12.9432   20.3269 N   0  0  0  0  0  0
  -25.9329  -11.6566   20.5724 N   0  0  0  0  0  0
  -22.0453  -12.8230   22.0433 N   0  0  0  0  0  0
  -25.4202  -15.1939   20.4199 N   0  0  0  0  0  0
  -31.6951  -15.0525   20.0787 O   0  0  0  0  0  0
  -21.6641   -6.8881   21.4244 O   0  0  0  0  0  0
  -22.3503  -14.5529   20.6712 O   0  0  0  0  0  0
  -24.6440  -31.8435   23.1872 C   0  0  0  0  0  0
  -25.9205  -32.4691   23.8272 C   0  0  1  0  0  0
  -27.2202  -27.1273   20.1401 C   0  0  0  0  0  0
  -25.5944  -33.8497   24.2179 N   0  0  0  0  0  0
  -23.4485  -30.4625   21.5335 C   0  0  2  0  0  0
  -24.8985  -28.8915   20.1050 C   0  0  0  0  0  0
  -22.7575  -29.4540   22.4852 C   0  0  0  0  0  0
  -18.0304  -28.1401   22.8480 C   0  0  0  0  0  0
  -24.1491  -36.7256   23.2642 C   0  0  0  0  0  0
  -26.0057  -30.7113   21.3911 C   0  0  0  0  0  0
  -26.0741  -29.3231   20.7299 C   0  0  0  0  0  0
  -27.2298  -28.4543   20.7370 C   0  0  0  0  0  0
  -26.0152  -26.8028   19.4743 C   0  0  0  0  0  0
  -24.8829  -27.6452   19.4639 C   0  0  0  0  0  0
  -23.6752  -29.7932   20.1520 C   0  0  0  0  0  0
  -25.4121  -36.3029   24.0315 C   0  0  1  0  0  0
  -20.5919  -28.3725   23.1232 C   0  0  2  0  0  0
  -20.6785  -26.9428   22.5405 C   0  0  0  0  0  0
  -19.5758  -26.6380   21.5216 C   0  0  0  0  0  0
  -18.1940  -26.7937   22.1633 C   0  0  0  0  0  0
  -19.1564  -28.8883   23.2846 C   0  0  0  0  0  0
  -18.9476  -30.1478   23.8874 C   0  0  0  0  0  0
  -17.6474  -30.6595   24.0557 C   0  0  0  0  0  0
  -25.9073  -34.9405   23.5057 C   0  0  0  0  0  0
  -16.5364  -29.9088   23.6338 C   0  0  0  0  0  0
  -16.7288  -28.6510   23.0354 C   0  0  0  0  0  0
  -26.4505  -31.6571   25.0731 C   0  0  0  0  0  0
  -25.3681  -31.3809   26.1432 C   0  0  0  0  0  0
  -27.0344  -30.2944   24.6350 C   0  0  0  0  0  0
  -27.6056  -32.4321   25.7502 C   0  0  0  0  0  0
  -27.5578  -37.1778   24.8454 C   0  0  0  0  0  0
  -21.4266  -29.3042   22.3600 N   0  0  0  0  0  0
  -26.4281  -37.3746   23.9409 N   0  0  0  0  0  0
  -24.7194  -31.0273   22.0920 N   0  0  0  0  0  0
  -23.4215  -28.8096   23.3010 O   0  0  0  0  0  0
  -28.2774  -26.1477   20.2635 O   0  0  0  0  0  0
  -26.5672  -34.8908   22.4643 O   0  0  0  0  0  0
  -23.5554  -32.1317   23.7077 O   0  0  0  0  0  0
  -28.8354  -18.4602   21.2925 C   0  0  0  0  0  0
  -28.7261  -19.9074   21.1242 C   0  0  0  0  0  0
  -30.4033  -18.3370   19.5555 C   0  0  0  0  0  0
  -29.6919  -17.5778   20.5352 C   0  0  0  0  0  0
  -29.4514  -20.6789   20.1507 C   0  0  0  0  0  0
  -30.2769  -19.7746   19.3601 C   0  0  0  0  0  0
  -28.5319  -23.2719   20.3668 C   0  0  0  0  0  0
  -30.5821  -22.7704   19.2325 C   0  0  0  0  0  0
  -28.3320  -24.7413   19.5863 C   0  0  0  0  0  0
  -29.6878  -16.0500   20.7247 N   0  0  0  0  0  0
  -29.4121  -22.2259   19.9366 N   0  0  0  0  0  0
  -27.8064  -23.0774   21.3476 O   0  0  0  0  0  0
  -30.9806  -20.2658   18.3126 F   0  0  0  0  0  0
  -31.4828  -12.7401   19.1952 H   0  0  0  0  0  0
  -30.4441  -11.6124   20.0174 H   0  0  0  0  0  0
  -29.8447  -11.7466   17.5780 H   0  0  0  0  0  0
  -29.6220  -13.4737   17.7073 H   0  0  0  0  0  0
  -27.9433  -11.2811   18.9589 H   0  0  0  0  0  0
  -27.3983  -12.4801   17.8151 H   0  0  0  0  0  0
  -27.6112  -14.2539   19.4397 H   0  0  0  0  0  0
  -28.7574  -12.2456   21.4388 H   0  0  0  0  0  0
  -28.3756  -13.9106   21.7921 H   0  0  0  0  0  0
  -25.2768   -9.5694   22.4757 H   0  0  0  0  0  0
  -24.0010   -7.4636   22.7464 H   0  0  0  0  0  0
  -21.0841   -8.8778   19.8955 H   0  0  0  0  0  0
  -22.3688  -10.9682   19.6166 H   0  0  0  0  0  0
  -21.2002   -7.6143   23.9717 H   0  0  0  0  0  0
  -21.1488   -6.0513   25.9079 H   0  0  0  0  0  0
  -22.0596   -2.7609   23.2833 H   0  0  0  0  0  0
  -22.4068  -11.9902   22.4838 H   0  0  0  0  0  0
  -21.1073  -13.1270   22.2632 H   0  0  0  0  0  0
  -24.6537  -15.8472   20.5386 H   0  0  0  0  0  0
  -26.2702  -15.6374   20.0969 H   0  0  0  0  0  0
  -26.7283  -32.5286   23.1014 H   0  0  0  0  0  0
  -25.0039  -33.9609   25.0291 H   0  0  0  0  0  0
  -22.7516  -31.2891   21.3791 H   0  0  0  0  0  0
  -23.3760  -35.9581   23.3277 H   0  0  0  0  0  0
  -24.3583  -36.8911   22.2061 H   0  0  0  0  0  0
  -23.7240  -37.6442   23.6696 H   0  0  0  0  0  0
  -26.1665  -31.4668   20.6208 H   0  0  0  0  0  0
  -26.8745  -30.7578   22.0364 H   0  0  0  0  0  0
  -28.1199  -28.7771   21.2585 H   0  0  0  0  0  0
  -25.8812  -25.8533   18.9852 H   0  0  0  0  0  0
  -23.9840  -27.3084   18.9656 H   0  0  0  0  0  0
  -23.8112  -30.5681   19.3967 H   0  0  0  0  0  0
  -22.7903  -29.2345   19.8420 H   0  0  0  0  0  0
  -25.1308  -36.1854   25.0807 H   0  0  0  0  0  0
  -21.0008  -28.3316   24.1356 H   0  0  0  0  0  0
  -20.5672  -26.2343   23.3625 H   0  0  0  0  0  0
  -21.6650  -26.7427   22.1205 H   0  0  0  0  0  0
  -19.6913  -25.6282   21.1265 H   0  0  0  0  0  0
  -19.6691  -27.3175   20.6731 H   0  0  0  0  0  0
  -17.4202  -26.6671   21.4041 H   0  0  0  0  0  0
  -18.0345  -26.0094   22.9047 H   0  0  0  0  0  0
  -19.7950  -30.7297   24.2235 H   0  0  0  0  0  0
  -17.5026  -31.6273   24.5165 H   0  0  0  0  0  0
  -15.5360  -30.2978   23.7682 H   0  0  0  0  0  0
  -15.8689  -28.0821   22.7078 H   0  0  0  0  0  0
  -24.5805  -30.7226   25.7744 H   0  0  0  0  0  0
  -24.8943  -32.3023   26.4829 H   0  0  0  0  0  0
  -25.7931  -30.8965   27.0231 H   0  0  0  0  0  0
  -26.2957  -29.6679   24.1339 H   0  0  0  0  0  0
  -27.3886  -29.7245   25.4948 H   0  0  0  0  0  0
  -27.8906  -30.4129   23.9711 H   0  0  0  0  0  0
  -27.2668  -33.3634   26.2051 H   0  0  0  0  0  0
  -28.3882  -32.6856   25.0341 H   0  0  0  0  0  0
  -28.0714  -31.8468   26.5438 H   0  0  0  0  0  0
  -28.2576  -38.0095   24.7516 H   0  0  0  0  0  0
  -28.1094  -36.2624   24.6252 H   0  0  0  0  0  0
  -27.2306  -37.1389   25.8860 H   0  0  0  0  0  0
  -20.9484  -29.8749   21.6770 H   0  0  0  0  0  0
  -26.0144  -38.2811   24.1420 H   0  0  0  0  0  0
  -28.2138  -18.0145   22.0570 H   0  0  0  0  0  0
  -28.0519  -20.4357   21.7830 H   0  0  0  0  0  0
  -31.0554  -17.8024   18.8805 H   0  0  0  0  0  0
  -31.4803  -22.1991   19.4634 H   0  0  0  0  0  0
  -30.8496  -23.7820   19.5417 H   0  0  0  0  0  0
  -30.4265  -22.7647   18.1529 H   0  0  0  0  0  0
  -27.4391  -24.5780   18.9936 H   0  0  0  0  0  0
  -29.0943  -24.8404   18.8170 H   0  0  0  0  0  0
  -28.8284  -15.7240   21.1403 H   0  0  0  0  0  0
  1 25  1  0  0  0
  1 30  2  0  0  0
  1 80  1  0  0  0
  2  3  1  0  0  0
  2 25  1  0  0  0
  2 84  1  0  0  0
  2 85  1  0  0  0
  3  4  1  0  0  0
  3 86  1  0  0  0
  3 87  1  0  0  0
  4  5  1  0  0  0
  4 88  1  0  0  0
  4 89  1  0  0  0
  5  6  1  0  0  0
  5 26  1  0  0  0
  5 90  1  0  0  0
  6 25  1  0  0  0
  6 91  1  0  0  0
  6 92  1  0  0  0
  7  8  2  0  0  0
  7 26  1  0  0  0
  7 29  1  0  0  0
  8  9  1  0  0  0
  8 22  1  0  0  0
  9 10  1  0  0  0
  9 27  2  0  0  0
 10 11  2  0  0  0
 10 15  1  0  0  0
 11 12  1  0  0  0
 11 93  1  0  0  0
 12 13  2  0  0  0
 12 94  1  0  0  0
 13 14  1  0  0  0
 13 31  1  0  0  0
 14 15  2  0  0  0
 14 95  1  0  0  0
 15 96  1  0  0  0
 16 17  2  0  0  0
 16 21  1  0  0  0
 16 31  1  0  0  0
 17 18  1  0  0  0
 17 97  1  0  0  0
 18 19  2  0  0  0
 18 98  1  0  0  0
 19 20  1  0  0  0
 19 24  1  0  0  0
 20 21  2  0  0  0
 20 99  1  0  0  0
 21 23  1  0  0  0
 22 28  1  0  0  0
 22 32  2  0  0  0
 26 27  1  0  0  0
 28100  1  0  0  0
 28101  1  0  0  0
 29102  1  0  0  0
 29103  1  0  0  0
 33 34  1  0  0  0
 33 66  1  0  0  0
 33 70  2  0  0  0
 34 36  1  0  0  0
 34 59  1  0  0  0
 34104  1  0  0  0
 35 44  2  0  0  0
 35 45  1  0  0  0
 35 68  1  0  0  0
 36 56  1  0  0  0
 36105  1  0  0  0
 37 39  1  0  0  0
 37 47  1  0  0  0
 37 66  1  0  0  0
 37106  1  0  0  0
 38 43  2  0  0  0
 38 46  1  0  0  0
 38 47  1  0  0  0
 39 64  1  0  0  0
 39 67  2  0  0  0
 40 52  1  0  0  0
 40 53  2  0  0  0
 40 58  1  0  0  0
 41107  1  0  0  0
 41108  1  0  0  0
 41109  1  0  0  0
 41 48  1  0  0  0
 42 43  1  0  0  0
 42 66  1  0  0  0
 42110  1  0  0  0
 42111  1  0  0  0
 43 44  1  0  0  0
 44112  1  0  0  0
 45 46  2  0  0  0
 45113  1  0  0  0
 46114  1  0  0  0
 47115  1  0  0  0
 47116  1  0  0  0
 48 56  1  0  0  0
 48 65  1  0  0  0
 48117  1  0  0  0
 49 50  1  0  0  0
 49 53  1  0  0  0
 49 64  1  0  0  0
 49118  1  0  0  0
 50 51  1  0  0  0
 50119  1  0  0  0
 50120  1  0  0  0
 51 52  1  0  0  0
 51121  1  0  0  0
 51122  1  0  0  0
 52123  1  0  0  0
 52124  1  0  0  0
 53 54  1  0  0  0
 54 55  2  0  0  0
 54125  1  0  0  0
 55 57  1  0  0  0
 55126  1  0  0  0
 56 69  2  0  0  0
 57 58  2  0  0  0
 57127  1  0  0  0
 58128  1  0  0  0
 59 60  1  0  0  0
 59 61  1  0  0  0
 59 62  1  0  0  0
 60129  1  0  0  0
 60130  1  0  0  0
 60131  1  0  0  0
 61132  1  0  0  0
 61133  1  0  0  0
 61134  1  0  0  0
 62135  1  0  0  0
 62136  1  0  0  0
 62137  1  0  0  0
 63 65  1  0  0  0
 63138  1  0  0  0
 63139  1  0  0  0
 63140  1  0  0  0
 64141  1  0  0  0
 65142  1  0  0  0
 68 79  1  0  0  0
 71 72  2  0  0  0
 71 74  1  0  0  0
 71143  1  0  0  0
 72 75  1  0  0  0
 72144  1  0  0  0
 73 74  2  0  0  0
 73 76  1  0  0  0
 73145  1  0  0  0
 74 80  1  0  0  0
 75 76  2  0  0  0
 75 81  1  0  0  0
 76 83  1  0  0  0
 77 79  1  0  0  0
 77 81  1  0  0  0
 77 82  2  0  0  0
 78 81  1  0  0  0
 78146  1  0  0  0
 78147  1  0  0  0
 78148  1  0  0  0
 79149  1  0  0  0
 79150  1  0  0  0
 80151  1  0  0  0
M  ISO  4   1 100  68 101  79 101  80 100
M  END
> <chiral flag>
0

> <version>
0

> <s_m_source_file>
/data/baiqing/PycharmProjects/Reinvent-master-3.2/result/LINK_invent/BTK/process_docking_weight1_custom_sum_contain_oxygen_bond_distance_aromatic_linkinvent_7_9_3/rearranged_h_0010.sdf

> <i_m_source_file_index>
13

> <r_mmod_Potential_Energy-OPLS-2005>
584.214599609375

> <r_mmod_Stretch_Energy-OPLS-2005>
254.816650390625

> <r_mmod_Bend_Energy-OPLS-2005>
280.084167480469

> <r_mmod_Torsional_Energy-OPLS-2005>
258.447998046875

> <r_mmod_Improper_Torsional_Energy-OPLS-2005>
3.90082216262817

> <r_mmod_Van_der_Waal_Energy-OPLS-2005>
148.400924682617

> <r_mmod_Electrostatic_Energy-OPLS-2005>
-327.247192382812

> <r_mmod_Solvation_Energy-OPLS-2005>
-226.000396728516

> <b_mmod_Minimization_Converged-OPLS-2005>
0

> <r_mmod_RMS_Derivative-OPLS-2005>
0.948058903217316

$$$$
13
                    3D
 Structure written by MMmdl.
152160  0  0  1  0            999 V2000
  -30.5173  -14.9248   20.4308 C   0  0  0  0  0  0
  -30.4517  -12.5687   19.4956 C   0  0  0  0  0  0
  -29.5258  -12.5396   18.2555 C   0  0  0  0  0  0
  -28.0561  -12.3285   18.6687 C   0  0  0  0  0  0
  -27.6380  -13.2433   19.8489 C   0  0  2  0  0  0
  -28.6823  -13.2281   20.9870 C   0  0  0  0  0  0
  -25.2481  -13.8184   20.5687 C   0  0  0  0  0  0
  -24.1786  -13.0418   20.9181 C   0  0  0  0  0  0
  -24.6403  -11.6906   20.8724 C   0  0  0  0  0  0
  -23.9082  -10.4282   21.0392 C   0  0  0  0  0  0
  -24.3626   -9.4202   21.9176 C   0  0  0  0  0  0
  -23.6294   -8.2241   22.0753 C   0  0  0  0  0  0
  -22.4275   -8.0280   21.3542 C   0  0  0  0  0  0
  -21.9910   -9.0252   20.4645 C   0  0  0  0  0  0
  -22.7248  -10.2127   20.3050 C   0  0  0  0  0  0
  -21.6855   -6.0731   22.5275 C   0  0  0  0  0  0
  -21.4015   -6.5633   23.8209 C   0  0  0  0  0  0
  -21.3665   -5.6788   24.9171 C   0  0  0  0  0  0
  -21.6045   -4.3050   24.7224 C   0  0  0  0  0  0
  -21.8820   -3.8141   23.4346 C   0  0  0  0  0  0
  -21.9192   -4.6957   22.3399 C   0  0  0  0  0  0
  -22.7812  -13.5202   21.1852 C   0  0  0  0  0  0
  -22.1662   -4.2141   21.0979 F   0  0  0  0  0  0
  -21.5629   -3.4537   25.7739 F   0  0  0  0  0  0
  -29.9679  -13.6447   20.4044 N   0  0  0  0  0  0
  -26.2931  -12.9422   20.3280 N   0  0  0  0  0  0
  -25.9342  -11.6553   20.5737 N   0  0  0  0  0  0
  -22.0466  -12.8197   22.0420 N   0  0  0  0  0  0
  -25.4111  -15.1906   20.4132 N   0  0  0  0  0  0
  -31.7009  -15.0560   20.0984 O   0  0  0  0  0  0
  -21.6640   -6.8878   21.4239 O   0  0  0  0  0  0
  -22.3491  -14.5513   20.6718 O   0  0  0  0  0  0
  -24.6451  -31.8443   23.1894 C   0  0  0  0  0  0
  -25.9223  -32.4694   23.8285 C   0  0  1  0  0  0
  -27.2202  -27.1395   20.1423 C   0  0  0  0  0  0
  -25.5971  -33.8500   24.2200 N   0  0  0  0  0  0
  -23.4483  -30.4659   21.5341 C   0  0  2  0  0  0
  -24.8979  -28.8968   20.1096 C   0  0  0  0  0  0
  -22.7579  -29.4556   22.4847 C   0  0  0  0  0  0
  -18.0317  -28.1395   22.8475 C   0  0  0  0  0  0
  -24.1495  -36.7253   23.2640 C   0  0  0  0  0  0
  -26.0057  -30.7189   21.3893 C   0  0  0  0  0  0
  -26.0770  -29.3316   20.7284 C   0  0  0  0  0  0
  -27.2390  -28.4695   20.7287 C   0  0  0  0  0  0
  -26.0111  -26.8106   19.4857 C   0  0  0  0  0  0
  -24.8779  -27.6492   19.4736 C   0  0  0  0  0  0
  -23.6751  -29.7992   20.1526 C   0  0  0  0  0  0
  -25.4126  -36.3030   24.0315 C   0  0  1  0  0  0
  -20.5930  -28.3727   23.1224 C   0  0  2  0  0  0
  -20.6796  -26.9427   22.5402 C   0  0  0  0  0  0
  -19.5766  -26.6380   21.5211 C   0  0  0  0  0  0
  -18.1950  -26.7934   22.1624 C   0  0  0  0  0  0
  -19.1573  -28.8880   23.2844 C   0  0  0  0  0  0
  -18.9485  -30.1473   23.8872 C   0  0  0  0  0  0
  -17.6478  -30.6585   24.0561 C   0  0  0  0  0  0
  -25.9080  -34.9406   23.5065 C   0  0  0  0  0  0
  -16.5371  -29.9076   23.6332 C   0  0  0  0  0  0
  -16.7301  -28.6499   23.0350 C   0  0  0  0  0  0
  -26.4538  -31.6560   25.0728 C   0  0  0  0  0  0
  -25.3719  -31.3765   26.1422 C   0  0  0  0  0  0
  -27.0388  -30.2943   24.6327 C   0  0  0  0  0  0
  -27.6073  -32.4324   25.7507 C   0  0  0  0  0  0
  -27.5576  -37.1791   24.8469 C   0  0  0  0  0  0
  -21.4271  -29.3053   22.3591 N   0  0  0  0  0  0
  -26.4292  -37.3738   23.9403 N   0  0  0  0  0  0
  -24.7192  -31.0308   22.0923 N   0  0  0  0  0  0
  -23.4222  -28.8098   23.2995 O   0  0  0  0  0  0
  -28.2652  -26.1424   20.2083 O   0  0  0  0  0  0
  -26.5659  -34.8900   22.4640 O   0  0  0  0  0  0
  -23.5567  -32.1327   23.7105 O   0  0  0  0  0  0
  -30.2011  -19.9608   19.9523 C   0  0  0  0  0  0
  -30.4787  -18.5212   20.0238 C   0  0  0  0  0  0
  -28.1154  -19.5937   20.9859 C   0  0  0  0  0  0
  -28.9851  -20.5808   20.4207 C   0  0  0  0  0  0
  -29.5754  -17.5448   20.5839 C   0  0  0  0  0  0
  -28.3854  -18.1674   21.0839 C   0  0  0  0  0  0
  -28.9455  -23.3601   20.2621 C   0  0  0  0  0  0
  -26.4184  -17.8196   22.4321 C   0  0  0  0  0  0
  -27.9078  -24.6354   20.0412 C   0  0  0  0  0  0
  -28.4727  -22.0237   20.2831 N   0  0  0  0  0  0
  -29.6585  -16.0168   20.6940 N   0  0  0  0  0  0
  -30.1493  -23.5955   20.3965 O   0  0  0  0  0  0
  -27.4902  -17.2888   21.6620 O   0  0  0  0  0  0
  -31.4842  -12.7356   19.1857 H   0  0  0  0  0  0
  -30.4453  -11.6046   20.0061 H   0  0  0  0  0  0
  -29.8374  -11.7537   17.5661 H   0  0  0  0  0  0
  -29.6195  -13.4801   17.7107 H   0  0  0  0  0  0
  -27.9422  -11.2828   18.9554 H   0  0  0  0  0  0
  -27.3955  -12.4848   17.8148 H   0  0  0  0  0  0
  -27.6113  -14.2553   19.4436 H   0  0  0  0  0  0
  -28.7586  -12.2354   21.4329 H   0  0  0  0  0  0
  -28.3830  -13.9004   21.7927 H   0  0  0  0  0  0
  -25.2768   -9.5676   22.4754 H   0  0  0  0  0  0
  -23.9993   -7.4632   22.7480 H   0  0  0  0  0  0
  -21.0836   -8.8775   19.8959 H   0  0  0  0  0  0
  -22.3699  -10.9663   19.6163 H   0  0  0  0  0  0
  -21.2007   -7.6138   23.9708 H   0  0  0  0  0  0
  -21.1489   -6.0520   25.9074 H   0  0  0  0  0  0
  -22.0594   -2.7602   23.2848 H   0  0  0  0  0  0
  -22.4076  -11.9862   22.4816 H   0  0  0  0  0  0
  -21.1089  -13.1232   22.2629 H   0  0  0  0  0  0
  -24.6406  -15.8364   20.5410 H   0  0  0  0  0  0
  -26.2753  -15.6524   20.1607 H   0  0  0  0  0  0
  -26.7295  -32.5299   23.1019 H   0  0  0  0  0  0
  -25.0106  -33.9618   25.0341 H   0  0  0  0  0  0
  -22.7518  -31.2928   21.3810 H   0  0  0  0  0  0
  -23.3751  -35.9593   23.3308 H   0  0  0  0  0  0
  -24.3578  -36.8878   22.2054 H   0  0  0  0  0  0
  -23.7266  -37.6458   23.6674 H   0  0  0  0  0  0
  -26.1657  -31.4757   20.6199 H   0  0  0  0  0  0
  -26.8743  -30.7651   22.0345 H   0  0  0  0  0  0
  -28.1356  -28.7974   21.2357 H   0  0  0  0  0  0
  -25.8952  -25.8626   18.9851 H   0  0  0  0  0  0
  -23.9790  -27.3122   18.9757 H   0  0  0  0  0  0
  -23.8123  -30.5750   19.3980 H   0  0  0  0  0  0
  -22.7895  -29.2426   19.8408 H   0  0  0  0  0  0
  -25.1314  -36.1857   25.0807 H   0  0  0  0  0  0
  -21.0036  -28.3324   24.1340 H   0  0  0  0  0  0
  -20.5678  -26.2347   23.3626 H   0  0  0  0  0  0
  -21.6662  -26.7416   22.1207 H   0  0  0  0  0  0
  -19.6922  -25.6284   21.1255 H   0  0  0  0  0  0
  -19.6692  -27.3177   20.6729 H   0  0  0  0  0  0
  -17.4217  -26.6683   21.4030 H   0  0  0  0  0  0
  -18.0343  -26.0078   22.9024 H   0  0  0  0  0  0
  -19.7960  -30.7301   24.2227 H   0  0  0  0  0  0
  -17.5028  -31.6262   24.5168 H   0  0  0  0  0  0
  -15.5369  -30.2967   23.7663 H   0  0  0  0  0  0
  -15.8707  -28.0806   22.7070 H   0  0  0  0  0  0
  -24.5914  -30.7086   25.7758 H   0  0  0  0  0  0
  -24.8887  -32.2947   26.4769 H   0  0  0  0  0  0
  -25.8002  -30.9005   27.0253 H   0  0  0  0  0  0
  -26.3004  -29.6669   24.1319 H   0  0  0  0  0  0
  -27.3959  -29.7245   25.4919 H   0  0  0  0  0  0
  -27.8937  -30.4149   23.9670 H   0  0  0  0  0  0
  -27.2674  -33.3643   26.2035 H   0  0  0  0  0  0
  -28.3908  -32.6854   25.0352 H   0  0  0  0  0  0
  -28.0716  -31.8483   26.5464 H   0  0  0  0  0  0
  -28.2605  -38.0072   24.7481 H   0  0  0  0  0  0
  -28.1059  -36.2605   24.6334 H   0  0  0  0  0  0
  -27.2294  -37.1487   25.8872 H   0  0  0  0  0  0
  -20.9482  -29.8769   21.6769 H   0  0  0  0  0  0
  -26.0157  -38.2811   24.1376 H   0  0  0  0  0  0
  -30.9424  -20.5926   19.4824 H   0  0  0  0  0  0
  -31.4133  -18.1680   19.6119 H   0  0  0  0  0  0
  -27.1724  -19.9687   21.3515 H   0  0  0  0  0  0
  -25.9071  -17.0071   22.9480 H   0  0  0  0  0  0
  -25.6823  -18.3181   21.8007 H   0  0  0  0  0  0
  -26.7724  -18.5158   23.1940 H   0  0  0  0  0  0
  -27.0485  -24.4355   20.6824 H   0  0  0  0  0  0
  -27.5571  -24.5058   19.0179 H   0  0  0  0  0  0
  -27.4625  -22.0478   20.2401 H   0  0  0  0  0  0
  -28.7754  -15.6573   21.0259 H   0  0  0  0  0  0
  1 25  1  0  0  0
  1 30  2  0  0  0
  1 81  1  0  0  0
  2  3  1  0  0  0
  2 25  1  0  0  0
  2 84  1  0  0  0
  2 85  1  0  0  0
  3  4  1  0  0  0
  3 86  1  0  0  0
  3 87  1  0  0  0
  4  5  1  0  0  0
  4 88  1  0  0  0
  4 89  1  0  0  0
  5  6  1  0  0  0
  5 26  1  0  0  0
  5 90  1  0  0  0
  6 25  1  0  0  0
  6 91  1  0  0  0
  6 92  1  0  0  0
  7  8  2  0  0  0
  7 26  1  0  0  0
  7 29  1  0  0  0
  8  9  1  0  0  0
  8 22  1  0  0  0
  9 10  1  0  0  0
  9 27  2  0  0  0
 10 11  2  0  0  0
 10 15  1  0  0  0
 11 12  1  0  0  0
 11 93  1  0  0  0
 12 13  2  0  0  0
 12 94  1  0  0  0
 13 14  1  0  0  0
 13 31  1  0  0  0
 14 15  2  0  0  0
 14 95  1  0  0  0
 15 96  1  0  0  0
 16 17  2  0  0  0
 16 21  1  0  0  0
 16 31  1  0  0  0
 17 18  1  0  0  0
 17 97  1  0  0  0
 18 19  2  0  0  0
 18 98  1  0  0  0
 19 20  1  0  0  0
 19 24  1  0  0  0
 20 21  2  0  0  0
 20 99  1  0  0  0
 21 23  1  0  0  0
 22 28  1  0  0  0
 22 32  2  0  0  0
 26 27  1  0  0  0
 28100  1  0  0  0
 28101  1  0  0  0
 29102  1  0  0  0
 29103  1  0  0  0
 33 34  1  0  0  0
 33 66  1  0  0  0
 33 70  2  0  0  0
 34 36  1  0  0  0
 34 59  1  0  0  0
 34104  1  0  0  0
 35 44  2  0  0  0
 35 45  1  0  0  0
 35 68  1  0  0  0
 36 56  1  0  0  0
 36105  1  0  0  0
 37 39  1  0  0  0
 37 47  1  0  0  0
 37 66  1  0  0  0
 37106  1  0  0  0
 38 43  2  0  0  0
 38 46  1  0  0  0
 38 47  1  0  0  0
 39 64  1  0  0  0
 39 67  2  0  0  0
 40 52  1  0  0  0
 40 53  2  0  0  0
 40 58  1  0  0  0
 41107  1  0  0  0
 41108  1  0  0  0
 41109  1  0  0  0
 41 48  1  0  0  0
 42 43  1  0  0  0
 42 66  1  0  0  0
 42110  1  0  0  0
 42111  1  0  0  0
 43 44  1  0  0  0
 44112  1  0  0  0
 45 46  2  0  0  0
 45113  1  0  0  0
 46114  1  0  0  0
 47115  1  0  0  0
 47116  1  0  0  0
 48 56  1  0  0  0
 48 65  1  0  0  0
 48117  1  0  0  0
 49 50  1  0  0  0
 49 53  1  0  0  0
 49 64  1  0  0  0
 49118  1  0  0  0
 50 51  1  0  0  0
 50119  1  0  0  0
 50120  1  0  0  0
 51 52  1  0  0  0
 51121  1  0  0  0
 51122  1  0  0  0
 52123  1  0  0  0
 52124  1  0  0  0
 53 54  1  0  0  0
 54 55  2  0  0  0
 54125  1  0  0  0
 55 57  1  0  0  0
 55126  1  0  0  0
 56 69  2  0  0  0
 57 58  2  0  0  0
 57127  1  0  0  0
 58128  1  0  0  0
 59 60  1  0  0  0
 59 61  1  0  0  0
 59 62  1  0  0  0
 60129  1  0  0  0
 60130  1  0  0  0
 60131  1  0  0  0
 61132  1  0  0  0
 61133  1  0  0  0
 61134  1  0  0  0
 62135  1  0  0  0
 62136  1  0  0  0
 62137  1  0  0  0
 63 65  1  0  0  0
 63138  1  0  0  0
 63139  1  0  0  0
 63140  1  0  0  0
 64141  1  0  0  0
 65142  1  0  0  0
 68 79  1  0  0  0
 71 72  2  0  0  0
 71 74  1  0  0  0
 71143  1  0  0  0
 72 75  1  0  0  0
 72144  1  0  0  0
 73 74  2  0  0  0
 73 76  1  0  0  0
 73145  1  0  0  0
 74 80  1  0  0  0
 75 76  2  0  0  0
 75 81  1  0  0  0
 76 83  1  0  0  0
 77 79  1  0  0  0
 77 80  1  0  0  0
 77 82  2  0  0  0
 78 83  1  0  0  0
 78146  1  0  0  0
 78147  1  0  0  0
 78148  1  0  0  0
 79149  1  0  0  0
 79150  1  0  0  0
 80151  1  0  0  0
 81152  1  0  0  0
M  ISO  4   1 100  68 101  79 101  81 100
M  END
> <chiral flag>
0

> <version>
0

> <s_m_source_file>
/data/baiqing/PycharmProjects/Reinvent-master-3.2/result/LINK_invent/BTK/process_docking_weight1_custom_sum_contain_oxygen_bond_distance_aromatic_linkinvent_7_9_3/rearranged_h_0010.sdf

> <i_m_source_file_index>
14

> <r_mmod_Potential_Energy-OPLS-2005>
398.277862548828

> <r_mmod_Stretch_Energy-OPLS-2005>
222.967102050781

> <r_mmod_Bend_Energy-OPLS-2005>
287.100189208984

> <r_mmod_Torsional_Energy-OPLS-2005>
227.307083129883

> <r_mmod_Improper_Torsional_Energy-OPLS-2005>
3.75444746017456

> <r_mmod_Van_der_Waal_Energy-OPLS-2005>
134.696365356445

> <r_mmod_Electrostatic_Energy-OPLS-2005>
-413.936401367188

> <r_mmod_Solvation_Energy-OPLS-2005>
-247.73112487793

> <b_mmod_Minimization_Converged-OPLS-2005>
0

> <r_mmod_RMS_Derivative-OPLS-2005>
0.934446752071381

$$$$
14
                    3D
 Structure written by MMmdl.
160168  0  0  1  0            999 V2000
  -30.6545  -14.5285   20.5433 C   0  0  0  0  0  0
  -30.4267  -12.3308   19.4355 C   0  0  0  0  0  0
  -29.4960  -12.5106   18.2169 C   0  0  0  0  0  0
  -28.0181  -12.3599   18.6280 C   0  0  0  0  0  0
  -27.6573  -13.2064   19.8783 C   0  0  2  0  0  0
  -28.6991  -13.0034   21.0016 C   0  0  0  0  0  0
  -25.2553  -13.8154   20.5704 C   0  0  0  0  0  0
  -24.1807  -13.0427   20.9192 C   0  0  0  0  0  0
  -24.6365  -11.6900   20.8738 C   0  0  0  0  0  0
  -23.9040  -10.4280   21.0404 C   0  0  0  0  0  0
  -24.3601   -9.4207   21.9181 C   0  0  0  0  0  0
  -23.6291   -8.2238   22.0759 C   0  0  0  0  0  0
  -22.4275   -8.0271   21.3545 C   0  0  0  0  0  0
  -21.9908   -9.0243   20.4645 C   0  0  0  0  0  0
  -22.7216  -10.2131   20.3061 C   0  0  0  0  0  0
  -21.6851   -6.0730   22.5272 C   0  0  0  0  0  0
  -21.4005   -6.5643   23.8199 C   0  0  0  0  0  0
  -21.3668   -5.6801   24.9168 C   0  0  0  0  0  0
  -21.6048   -4.3062   24.7220 C   0  0  0  0  0  0
  -21.8811   -3.8148   23.4341 C   0  0  0  0  0  0
  -21.9193   -4.6962   22.3395 C   0  0  0  0  0  0
  -22.7826  -13.5221   21.1850 C   0  0  0  0  0  0
  -22.1658   -4.2148   21.0974 F   0  0  0  0  0  0
  -21.5643   -3.4552   25.7733 F   0  0  0  0  0  0
  -30.0253  -13.3229   20.4470 N   0  0  0  0  0  0
  -26.2995  -12.9330   20.3395 N   0  0  0  0  0  0
  -25.9305  -11.6498   20.5797 N   0  0  0  0  0  0
  -22.0485  -12.8207   22.0420 N   0  0  0  0  0  0
  -25.4270  -15.1873   20.4119 N   0  0  0  0  0  0
  -31.8048  -14.7077   20.1276 O   0  0  0  0  0  0
  -21.6632   -6.8874   21.4238 O   0  0  0  0  0  0
  -22.3512  -14.5546   20.6730 O   0  0  0  0  0  0
  -24.6188  -31.8649   23.2074 C   0  0  0  0  0  0
  -25.9058  -32.4816   23.8390 C   0  0  1  0  0  0
  -27.2302  -27.3866   20.1081 C   0  0  0  0  0  0
  -25.5903  -33.8614   24.2318 N   0  0  0  0  0  0
  -23.4092  -30.4877   21.5497 C   0  0  2  0  0  0
  -24.8549  -28.9464   20.1147 C   0  0  0  0  0  0
  -22.7438  -29.4639   22.4984 C   0  0  0  0  0  0
  -18.0278  -28.1381   22.8496 C   0  0  0  0  0  0
  -24.1487  -36.7317   23.2637 C   0  0  0  0  0  0
  -25.9422  -30.8154   21.3680 C   0  0  0  0  0  0
  -26.0180  -29.4456   20.7150 C   0  0  0  0  0  0
  -27.2093  -28.6755   20.7017 C   0  0  0  0  0  0
  -26.0513  -26.9193   19.4868 C   0  0  0  0  0  0
  -24.8696  -27.6854   19.4941 C   0  0  0  0  0  0
  -23.6194  -29.8193   20.1649 C   0  0  0  0  0  0
  -25.4110  -36.3105   24.0333 C   0  0  1  0  0  0
  -20.5867  -28.3667   23.1319 C   0  0  2  0  0  0
  -20.6766  -26.9401   22.5419 C   0  0  0  0  0  0
  -19.5742  -26.6386   21.5219 C   0  0  0  0  0  0
  -18.1921  -26.7932   22.1631 C   0  0  0  0  0  0
  -19.1524  -28.8844   23.2903 C   0  0  0  0  0  0
  -18.9451  -30.1450   23.8911 C   0  0  0  0  0  0
  -17.6450  -30.6585   24.0568 C   0  0  0  0  0  0
  -25.9043  -34.9470   23.5128 C   0  0  0  0  0  0
  -16.5344  -29.9084   23.6321 C   0  0  0  0  0  0
  -16.7266  -28.6502   23.0345 C   0  0  0  0  0  0
  -26.4464  -31.6601   25.0736 C   0  0  0  0  0  0
  -25.3721  -31.3712   26.1482 C   0  0  0  0  0  0
  -27.0295  -30.3038   24.6133 C   0  0  0  0  0  0
  -27.6054  -32.4309   25.7493 C   0  0  0  0  0  0
  -27.5589  -37.1808   24.8456 C   0  0  0  0  0  0
  -21.4158  -29.3038   22.3731 N   0  0  0  0  0  0
  -26.4295  -37.3797   23.9408 N   0  0  0  0  0  0
  -24.6755  -31.0711   22.1001 N   0  0  0  0  0  0
  -23.4190  -28.8185   23.3046 O   0  0  0  0  0  0
  -28.3888  -26.6216   20.1056 O   0  0  0  0  0  0
  -26.5605  -34.8924   22.4689 O   0  0  0  0  0  0
  -23.5368  -32.1423   23.7441 O   0  0  0  0  0  0
  -28.8713  -17.5927   20.0266 C   0  0  0  0  0  0
  -28.9787  -18.9200   19.5411 C   0  0  0  0  0  0
  -31.1481  -17.6945   20.8409 C   0  0  0  0  0  0
  -31.2598  -19.0309   20.3739 C   0  0  0  0  0  0
  -29.9775  -16.9353   20.6148 C   0  0  0  0  0  0
  -30.1898  -19.6409   19.6561 C   0  0  0  0  0  0
  -30.1132  -22.0302   18.7089 C   0  0  0  0  0  0
  -32.5807  -19.7546   20.5669 C   0  0  0  0  0  0
  -31.2760  -20.2438   17.5765 C   0  0  0  0  0  0
  -29.2726  -22.7565   19.7981 C   0  0  0  0  0  0
  -29.1619  -24.3126   19.5087 C   0  0  0  0  0  0
  -28.2884  -25.2053   20.4348 C   0  0  0  0  0  0
  -29.8717  -15.5483   20.9748 N   0  0  0  0  0  0
  -30.4698  -20.7016   18.7215 N   0  0  0  0  0  0
  -30.4857  -22.7409   17.7657 O   0  0  0  0  0  0
  -31.4706  -12.4416   19.1364 H   0  0  0  0  0  0
  -30.3388  -11.3224   19.8435 H   0  0  0  0  0  0
  -29.7453  -11.7889   17.4377 H   0  0  0  0  0  0
  -29.6485  -13.4988   17.7775 H   0  0  0  0  0  0
  -27.8339  -11.3041   18.8294 H   0  0  0  0  0  0
  -27.3679  -12.6282   17.7947 H   0  0  0  0  0  0
  -27.6960  -14.2521   19.5737 H   0  0  0  0  0  0
  -28.6843  -11.9711   21.3540 H   0  0  0  0  0  0
  -28.4584  -13.6074   21.8782 H   0  0  0  0  0  0
  -25.2751   -9.5704   22.4749 H   0  0  0  0  0  0
  -24.0007   -7.4642   22.7485 H   0  0  0  0  0  0
  -21.0853   -8.8758   19.8940 H   0  0  0  0  0  0
  -22.3670  -10.9681   19.6181 H   0  0  0  0  0  0
  -21.1981   -7.6145   23.9702 H   0  0  0  0  0  0
  -21.1509   -6.0530   25.9072 H   0  0  0  0  0  0
  -22.0590   -2.7612   23.2830 H   0  0  0  0  0  0
  -22.4110  -11.9847   22.4756 H   0  0  0  0  0  0
  -21.1105  -13.1226   22.2665 H   0  0  0  0  0  0
  -24.6593  -15.8428   20.5170 H   0  0  0  0  0  0
  -26.2751  -15.6255   20.0821 H   0  0  0  0  0  0
  -26.7137  -32.5504   23.1155 H   0  0  0  0  0  0
  -25.0056  -33.9778   25.0461 H   0  0  0  0  0  0
  -22.6994  -31.3054   21.4102 H   0  0  0  0  0  0
  -23.3753  -35.9646   23.3288 H   0  0  0  0  0  0
  -24.3585  -36.8950   22.2054 H   0  0  0  0  0  0
  -23.7235  -37.6515   23.6665 H   0  0  0  0  0  0
  -26.0604  -31.5793   20.5985 H   0  0  0  0  0  0
  -26.8280  -30.8691   21.9892 H   0  0  0  0  0  0
  -28.1080  -29.0580   21.1654 H   0  0  0  0  0  0
  -26.0375  -25.9637   18.9823 H   0  0  0  0  0  0
  -23.9795  -27.3025   19.0137 H   0  0  0  0  0  0
  -23.7326  -30.5950   19.4072 H   0  0  0  0  0  0
  -22.7404  -29.2443   19.8667 H   0  0  0  0  0  0
  -25.1286  -36.1977   25.0826 H   0  0  0  0  0  0
  -20.9960  -28.3235   24.1442 H   0  0  0  0  0  0
  -20.5683  -26.2275   23.3611 H   0  0  0  0  0  0
  -21.6638  -26.7451   22.1210 H   0  0  0  0  0  0
  -19.6906  -25.6299   21.1244 H   0  0  0  0  0  0
  -19.6680  -27.3200   20.6757 H   0  0  0  0  0  0
  -17.4194  -26.6681   21.4028 H   0  0  0  0  0  0
  -18.0315  -26.0067   22.9025 H   0  0  0  0  0  0
  -19.7921  -30.7268   24.2289 H   0  0  0  0  0  0
  -17.4999  -31.6265   24.5173 H   0  0  0  0  0  0
  -15.5342  -30.2992   23.7637 H   0  0  0  0  0  0
  -15.8667  -28.0832   22.7043 H   0  0  0  0  0  0
  -24.5870  -30.7100   25.7797 H   0  0  0  0  0  0
  -24.8943  -32.2873   26.4965 H   0  0  0  0  0  0
  -25.8060  -30.8834   27.0219 H   0  0  0  0  0  0
  -26.2849  -29.6812   24.1168 H   0  0  0  0  0  0
  -27.4030  -29.7271   25.4603 H   0  0  0  0  0  0
  -27.8698  -30.4349   23.9313 H   0  0  0  0  0  0
  -27.2698  -33.3608   26.2095 H   0  0  0  0  0  0
  -28.3849  -32.6870   25.0304 H   0  0  0  0  0  0
  -28.0737  -31.8414   26.5384 H   0  0  0  0  0  0
  -28.2586  -38.0124   24.7540 H   0  0  0  0  0  0
  -28.1107  -36.2662   24.6239 H   0  0  0  0  0  0
  -27.2315  -37.1407   25.8859 H   0  0  0  0  0  0
  -20.9325  -29.8768   21.6954 H   0  0  0  0  0  0
  -26.0184  -38.2878   24.1419 H   0  0  0  0  0  0
  -27.9499  -17.0527   19.8632 H   0  0  0  0  0  0
  -28.1593  -19.3342   18.9722 H   0  0  0  0  0  0
  -31.9917  -17.2291   21.3333 H   0  0  0  0  0  0
  -33.1150  -19.3708   21.4366 H   0  0  0  0  0  0
  -32.4228  -20.8217   20.7267 H   0  0  0  0  0  0
  -33.2189  -19.6220   19.6930 H   0  0  0  0  0  0
  -31.4317  -19.1635   17.5821 H   0  0  0  0  0  0
  -32.2609  -20.7145   17.5863 H   0  0  0  0  0  0
  -30.7898  -20.4760   16.6274 H   0  0  0  0  0  0
  -29.7311  -22.5779   20.7703 H   0  0  0  0  0  0
  -28.2797  -22.3082   19.8287 H   0  0  0  0  0  0
  -28.7779  -24.4567   18.4976 H   0  0  0  0  0  0
  -30.1700  -24.7305   19.5005 H   0  0  0  0  0  0
  -28.6290  -25.0881   21.4643 H   0  0  0  0  0  0
  -27.2648  -24.8325   20.4252 H   0  0  0  0  0  0
  -28.9552  -15.2419   21.2642 H   0  0  0  0  0  0
  1 25  1  0  0  0
  1 30  2  0  0  0
  1 83  1  0  0  0
  2  3  1  0  0  0
  2 25  1  0  0  0
  2 86  1  0  0  0
  2 87  1  0  0  0
  3  4  1  0  0  0
  3 88  1  0  0  0
  3 89  1  0  0  0
  4  5  1  0  0  0
  4 90  1  0  0  0
  4 91  1  0  0  0
  5  6  1  0  0  0
  5 26  1  0  0  0
  5 92  1  0  0  0
  6 25  1  0  0  0
  6 93  1  0  0  0
  6 94  1  0  0  0
  7  8  2  0  0  0
  7 26  1  0  0  0
  7 29  1  0  0  0
  8  9  1  0  0  0
  8 22  1  0  0  0
  9 10  1  0  0  0
  9 27  2  0  0  0
 10 11  2  0  0  0
 10 15  1  0  0  0
 11 12  1  0  0  0
 11 95  1  0  0  0
 12 13  2  0  0  0
 12 96  1  0  0  0
 13 14  1  0  0  0
 13 31  1  0  0  0
 14 15  2  0  0  0
 14 97  1  0  0  0
 15 98  1  0  0  0
 16 17  2  0  0  0
 16 21  1  0  0  0
 16 31  1  0  0  0
 17 18  1  0  0  0
 17 99  1  0  0  0
 18 19  2  0  0  0
 18100  1  0  0  0
 19 20  1  0  0  0
 19 24  1  0  0  0
 20 21  2  0  0  0
 20101  1  0  0  0
 21 23  1  0  0  0
 22 28  1  0  0  0
 22 32  2  0  0  0
 26 27  1  0  0  0
 28102  1  0  0  0
 28103  1  0  0  0
 29104  1  0  0  0
 29105  1  0  0  0
 33 34  1  0  0  0
 33 66  1  0  0  0
 33 70  2  0  0  0
 34 36  1  0  0  0
 34 59  1  0  0  0
 34106  1  0  0  0
 35 44  2  0  0  0
 35 45  1  0  0  0
 35 68  1  0  0  0
 36 56  1  0  0  0
 36107  1  0  0  0
 37 39  1  0  0  0
 37 47  1  0  0  0
 37 66  1  0  0  0
 37108  1  0  0  0
 38 43  2  0  0  0
 38 46  1  0  0  0
 38 47  1  0  0  0
 39 64  1  0  0  0
 39 67  2  0  0  0
 40 52  1  0  0  0
 40 53  2  0  0  0
 40 58  1  0  0  0
 41109  1  0  0  0
 41110  1  0  0  0
 41111  1  0  0  0
 41 48  1  0  0  0
 42 43  1  0  0  0
 42 66  1  0  0  0
 42112  1  0  0  0
 42113  1  0  0  0
 43 44  1  0  0  0
 44114  1  0  0  0
 45 46  2  0  0  0
 45115  1  0  0  0
 46116  1  0  0  0
 47117  1  0  0  0
 47118  1  0  0  0
 48 56  1  0  0  0
 48 65  1  0  0  0
 48119  1  0  0  0
 49 50  1  0  0  0
 49 53  1  0  0  0
 49 64  1  0  0  0
 49120  1  0  0  0
 50 51  1  0  0  0
 50121  1  0  0  0
 50122  1  0  0  0
 51 52  1  0  0  0
 51123  1  0  0  0
 51124  1  0  0  0
 52125  1  0  0  0
 52126  1  0  0  0
 53 54  1  0  0  0
 54 55  2  0  0  0
 54127  1  0  0  0
 55 57  1  0  0  0
 55128  1  0  0  0
 56 69  2  0  0  0
 57 58  2  0  0  0
 57129  1  0  0  0
 58130  1  0  0  0
 59 60  1  0  0  0
 59 61  1  0  0  0
 59 62  1  0  0  0
 60131  1  0  0  0
 60132  1  0  0  0
 60133  1  0  0  0
 61134  1  0  0  0
 61135  1  0  0  0
 61136  1  0  0  0
 62137  1  0  0  0
 62138  1  0  0  0
 62139  1  0  0  0
 63 65  1  0  0  0
 63140  1  0  0  0
 63141  1  0  0  0
 63142  1  0  0  0
 64143  1  0  0  0
 65144  1  0  0  0
 68 82  1  0  0  0
 71 72  2  0  0  0
 71 75  1  0  0  0
 71145  1  0  0  0
 72 76  1  0  0  0
 72146  1  0  0  0
 73 74  1  0  0  0
 73 75  2  0  0  0
 73147  1  0  0  0
 74 76  2  0  0  0
 74 78  1  0  0  0
 75 83  1  0  0  0
 76 84  1  0  0  0
 77 80  1  0  0  0
 77 84  1  0  0  0
 77 85  2  0  0  0
 78148  1  0  0  0
 78149  1  0  0  0
 78150  1  0  0  0
 79 84  1  0  0  0
 79151  1  0  0  0
 79152  1  0  0  0
 79153  1  0  0  0
 80 81  1  0  0  0
 80154  1  0  0  0
 80155  1  0  0  0
 81 82  1  0  0  0
 81156  1  0  0  0
 81157  1  0  0  0
 82158  1  0  0  0
 82159  1  0  0  0
 83160  1  0  0  0
M  ISO  4   1 100  68 101  82 101  83 100
M  END
> <chiral flag>
0

> <version>
0

> <s_m_source_file>
/data/baiqing/PycharmProjects/Reinvent-master-3.2/result/LINK_invent/BTK/process_docking_weight1_custom_sum_contain_oxygen_bond_distance_aromatic_linkinvent_7_9_3/rearranged_h_0010.sdf

> <i_m_source_file_index>
15

> <r_mmod_Potential_Energy-OPLS-2005>
76.9860076904297

> <r_mmod_Stretch_Energy-OPLS-2005>
53.6599502563477

> <r_mmod_Bend_Energy-OPLS-2005>
126.715835571289

> <r_mmod_Torsional_Energy-OPLS-2005>
313.435455322266

> <r_mmod_Improper_Torsional_Energy-OPLS-2005>
9.9497766494751

> <r_mmod_Van_der_Waal_Energy-OPLS-2005>
158.171936035156

> <r_mmod_Electrostatic_Energy-OPLS-2005>
-387.971740722656

> <r_mmod_Solvation_Energy-OPLS-2005>
-217.714813232422

> <b_mmod_Minimization_Converged-OPLS-2005>
0

> <r_mmod_RMS_Derivative-OPLS-2005>
2.10107803344727

$$$$
15
                    3D
 Structure written by MMmdl.
148156  0  0  1  0            999 V2000
  -30.5114  -14.9205   20.4353 C   0  0  0  0  0  0
  -30.4549  -12.5673   19.4922 C   0  0  0  0  0  0
  -29.5268  -12.5346   18.2535 C   0  0  0  0  0  0
  -28.0572  -12.3215   18.6680 C   0  0  0  0  0  0
  -27.6390  -13.2376   19.8470 C   0  0  2  0  0  0
  -28.6835  -13.2190   20.9848 C   0  0  0  0  0  0
  -25.2503  -13.8190   20.5691 C   0  0  0  0  0  0
  -24.1807  -13.0434   20.9226 C   0  0  0  0  0  0
  -24.6405  -11.6914   20.8755 C   0  0  0  0  0  0
  -23.9078  -10.4290   21.0412 C   0  0  0  0  0  0
  -24.3625   -9.4204   21.9188 C   0  0  0  0  0  0
  -23.6297   -8.2241   22.0756 C   0  0  0  0  0  0
  -22.4279   -8.0282   21.3545 C   0  0  0  0  0  0
  -21.9918   -9.0256   20.4646 C   0  0  0  0  0  0
  -22.7250  -10.2133   20.3058 C   0  0  0  0  0  0
  -21.6852   -6.0736   22.5280 C   0  0  0  0  0  0
  -21.4014   -6.5640   23.8213 C   0  0  0  0  0  0
  -21.3661   -5.6793   24.9175 C   0  0  0  0  0  0
  -21.6046   -4.3055   24.7225 C   0  0  0  0  0  0
  -21.8819   -3.8147   23.4346 C   0  0  0  0  0  0
  -21.9192   -4.6964   22.3403 C   0  0  0  0  0  0
  -22.7826  -13.5215   21.1878 C   0  0  0  0  0  0
  -22.1661   -4.2152   21.0980 F   0  0  0  0  0  0
  -21.5630   -3.4538   25.7737 F   0  0  0  0  0  0
  -29.9672  -13.6392   20.4024 N   0  0  0  0  0  0
  -26.2929  -12.9403   20.3256 N   0  0  0  0  0  0
  -25.9336  -11.6544   20.5741 N   0  0  0  0  0  0
  -22.0467  -12.8206   22.0429 N   0  0  0  0  0  0
  -25.4169  -15.1913   20.4062 N   0  0  0  0  0  0
  -31.6995  -15.0581   20.1214 O   0  0  0  0  0  0
  -21.6640   -6.8880   21.4242 O   0  0  0  0  0  0
  -22.3514  -14.5520   20.6719 O   0  0  0  0  0  0
  -24.6438  -31.8449   23.1897 C   0  0  0  0  0  0
  -25.9212  -32.4699   23.8283 C   0  0  1  0  0  0
  -27.2193  -27.1419   20.1447 C   0  0  0  0  0  0
  -25.5962  -33.8505   24.2199 N   0  0  0  0  0  0
  -23.4471  -30.4658   21.5355 C   0  0  2  0  0  0
  -24.8972  -28.8971   20.1103 C   0  0  0  0  0  0
  -22.7569  -29.4554   22.4861 C   0  0  0  0  0  0
  -18.0306  -28.1397   22.8477 C   0  0  0  0  0  0
  -24.1494  -36.7255   23.2641 C   0  0  0  0  0  0
  -26.0043  -30.7201   21.3890 C   0  0  0  0  0  0
  -26.0760  -29.3328   20.7288 C   0  0  0  0  0  0
  -27.2382  -28.4719   20.7298 C   0  0  0  0  0  0
  -26.0119  -26.8124   19.4852 C   0  0  0  0  0  0
  -24.8781  -27.6496   19.4735 C   0  0  0  0  0  0
  -23.6735  -29.7979   20.1543 C   0  0  0  0  0  0
  -25.4126  -36.3034   24.0315 C   0  0  1  0  0  0
  -20.5919  -28.3725   23.1233 C   0  0  2  0  0  0
  -20.6792  -26.9428   22.5402 C   0  0  0  0  0  0
  -19.5764  -26.6384   21.5212 C   0  0  0  0  0  0
  -18.1946  -26.7935   22.1624 C   0  0  0  0  0  0
  -19.1563  -28.8879   23.2847 C   0  0  0  0  0  0
  -18.9478  -30.1475   23.8873 C   0  0  0  0  0  0
  -17.6474  -30.6593   24.0560 C   0  0  0  0  0  0
  -25.9074  -34.9409   23.5064 C   0  0  0  0  0  0
  -16.5366  -29.9085   23.6337 C   0  0  0  0  0  0
  -16.7290  -28.6504   23.0357 C   0  0  0  0  0  0
  -26.4533  -31.6563   25.0721 C   0  0  0  0  0  0
  -25.3718  -31.3750   26.1415 C   0  0  0  0  0  0
  -27.0398  -30.2959   24.6302 C   0  0  0  0  0  0
  -27.6062  -32.4328   25.7508 C   0  0  0  0  0  0
  -27.5577  -37.1786   24.8466 C   0  0  0  0  0  0
  -21.4262  -29.3051   22.3605 N   0  0  0  0  0  0
  -26.4290  -37.3746   23.9406 N   0  0  0  0  0  0
  -24.7182  -31.0309   22.0931 N   0  0  0  0  0  0
  -23.4211  -28.8097   23.3008 O   0  0  0  0  0  0
  -28.2625  -26.1444   20.2158 O   0  0  0  0  0  0
  -26.5654  -34.8904   22.4638 O   0  0  0  0  0  0
  -23.5557  -32.1324   23.7117 O   0  0  0  0  0  0
  -27.9747  -19.5529   20.6422 C   0  0  0  0  0  0
  -30.2517  -19.9892   20.2292 C   0  0  0  0  0  0
  -28.2527  -18.1388   20.7224 C   0  0  0  0  0  0
  -30.5328  -18.5470   20.2971 C   0  0  0  0  0  0
  -28.9418  -20.5772   20.3930 C   0  0  0  0  0  0
  -29.5365  -17.5311   20.5470 C   0  0  0  0  0  0
  -28.9267  -23.3605   20.2937 C   0  0  0  0  0  0
  -27.9013  -24.6395   20.0445 C   0  0  0  0  0  0
  -28.4495  -22.0266   20.2703 N   0  0  0  0  0  0
  -29.6297  -16.0040   20.6635 N   0  0  0  0  0  0
  -30.1229  -23.5910   20.4895 O   0  0  0  0  0  0
  -31.4864  -12.7415   19.1813 H   0  0  0  0  0  0
  -30.4554  -11.6027   20.0023 H   0  0  0  0  0  0
  -29.8401  -11.7482   17.5656 H   0  0  0  0  0  0
  -29.6180  -13.4738   17.7054 H   0  0  0  0  0  0
  -27.9451  -11.2762   18.9579 H   0  0  0  0  0  0
  -27.3957  -12.4733   17.8143 H   0  0  0  0  0  0
  -27.6148  -14.2484   19.4398 H   0  0  0  0  0  0
  -28.7626  -12.2241   21.4257 H   0  0  0  0  0  0
  -28.3856  -13.8864   21.7950 H   0  0  0  0  0  0
  -25.2770   -9.5679   22.4764 H   0  0  0  0  0  0
  -24.0004   -7.4632   22.7476 H   0  0  0  0  0  0
  -21.0850   -8.8777   19.8951 H   0  0  0  0  0  0
  -22.3712  -10.9674   19.6168 H   0  0  0  0  0  0
  -21.2005   -7.6149   23.9718 H   0  0  0  0  0  0
  -21.1485   -6.0523   25.9079 H   0  0  0  0  0  0
  -22.0597   -2.7609   23.2845 H   0  0  0  0  0  0
  -22.4083  -11.9868   22.4820 H   0  0  0  0  0  0
  -21.1082  -13.1231   22.2628 H   0  0  0  0  0  0
  -24.6348  -15.8318   20.4896 H   0  0  0  0  0  0
  -26.2317  -15.6172   19.9853 H   0  0  0  0  0  0
  -26.7277  -32.5307   23.1011 H   0  0  0  0  0  0
  -25.0101  -33.9623   25.0342 H   0  0  0  0  0  0
  -22.7496  -31.2920   21.3822 H   0  0  0  0  0  0
  -23.3760  -35.9583   23.3294 H   0  0  0  0  0  0
  -24.3578  -36.8897   22.2058 H   0  0  0  0  0  0
  -23.7246  -37.6448   23.6682 H   0  0  0  0  0  0
  -26.1607  -31.4756   20.6179 H   0  0  0  0  0  0
  -26.8743  -30.7686   22.0321 H   0  0  0  0  0  0
  -28.1343  -28.8006   21.2370 H   0  0  0  0  0  0
  -25.8980  -25.8642   18.9841 H   0  0  0  0  0  0
  -23.9793  -27.3113   18.9762 H   0  0  0  0  0  0
  -23.8099  -30.5737   19.4000 H   0  0  0  0  0  0
  -22.7884  -29.2404   19.8425 H   0  0  0  0  0  0
  -25.1314  -36.1864   25.0807 H   0  0  0  0  0  0
  -21.0012  -28.3317   24.1353 H   0  0  0  0  0  0
  -20.5691  -26.2338   23.3621 H   0  0  0  0  0  0
  -21.6656  -26.7436   22.1197 H   0  0  0  0  0  0
  -19.6926  -25.6289   21.1256 H   0  0  0  0  0  0
  -19.6700  -27.3182   20.6732 H   0  0  0  0  0  0
  -17.4214  -26.6680   21.4028 H   0  0  0  0  0  0
  -18.0346  -26.0083   22.9026 H   0  0  0  0  0  0
  -19.7954  -30.7301   24.2231 H   0  0  0  0  0  0
  -17.5025  -31.6269   24.5167 H   0  0  0  0  0  0
  -15.5364  -30.2977   23.7675 H   0  0  0  0  0  0
  -15.8692  -28.0813   22.7085 H   0  0  0  0  0  0
  -24.5907  -30.7087   25.7737 H   0  0  0  0  0  0
  -24.8897  -32.2931   26.4783 H   0  0  0  0  0  0
  -25.8004  -30.8964   27.0230 H   0  0  0  0  0  0
  -26.3018  -29.6679   24.1299 H   0  0  0  0  0  0
  -27.4000  -29.7258   25.4876 H   0  0  0  0  0  0
  -27.8931  -30.4193   23.9629 H   0  0  0  0  0  0
  -27.2656  -33.3649   26.2029 H   0  0  0  0  0  0
  -28.3906  -32.6854   25.0361 H   0  0  0  0  0  0
  -28.0694  -31.8490   26.5473 H   0  0  0  0  0  0
  -28.2587  -38.0090   24.7509 H   0  0  0  0  0  0
  -28.1082  -36.2617   24.6299 H   0  0  0  0  0  0
  -27.2290  -37.1441   25.8868 H   0  0  0  0  0  0
  -20.9473  -29.8764   21.6784 H   0  0  0  0  0  0
  -26.0157  -38.2815   24.1407 H   0  0  0  0  0  0
  -26.9454  -19.8521   20.7809 H   0  0  0  0  0  0
  -31.0796  -20.6531   20.0229 H   0  0  0  0  0  0
  -27.4098  -17.4937   20.9252 H   0  0  0  0  0  0
  -31.5547  -18.2269   20.1490 H   0  0  0  0  0  0
  -27.0275  -24.4465   20.6678 H   0  0  0  0  0  0
  -27.5723  -24.5107   19.0136 H   0  0  0  0  0  0
  -27.4446  -22.0564   20.1609 H   0  0  0  0  0  0
  -28.7368  -15.6100   20.9166 H   0  0  0  0  0  0
  1 25  1  0  0  0
  1 30  2  0  0  0
  1 80  1  0  0  0
  2  3  1  0  0  0
  2 25  1  0  0  0
  2 82  1  0  0  0
  2 83  1  0  0  0
  3  4  1  0  0  0
  3 84  1  0  0  0
  3 85  1  0  0  0
  4  5  1  0  0  0
  4 86  1  0  0  0
  4 87  1  0  0  0
  5  6  1  0  0  0
  5 26  1  0  0  0
  5 88  1  0  0  0
  6 25  1  0  0  0
  6 89  1  0  0  0
  6 90  1  0  0  0
  7  8  2  0  0  0
  7 26  1  0  0  0
  7 29  1  0  0  0
  8  9  1  0  0  0
  8 22  1  0  0  0
  9 10  1  0  0  0
  9 27  2  0  0  0
 10 11  2  0  0  0
 10 15  1  0  0  0
 11 12  1  0  0  0
 11 91  1  0  0  0
 12 13  2  0  0  0
 12 92  1  0  0  0
 13 14  1  0  0  0
 13 31  1  0  0  0
 14 15  2  0  0  0
 14 93  1  0  0  0
 15 94  1  0  0  0
 16 17  2  0  0  0
 16 21  1  0  0  0
 16 31  1  0  0  0
 17 18  1  0  0  0
 17 95  1  0  0  0
 18 19  2  0  0  0
 18 96  1  0  0  0
 19 20  1  0  0  0
 19 24  1  0  0  0
 20 21  2  0  0  0
 20 97  1  0  0  0
 21 23  1  0  0  0
 22 28  1  0  0  0
 22 32  2  0  0  0
 26 27  1  0  0  0
 28 98  1  0  0  0
 28 99  1  0  0  0
 29100  1  0  0  0
 29101  1  0  0  0
 33 34  1  0  0  0
 33 66  1  0  0  0
 33 70  2  0  0  0
 34 36  1  0  0  0
 34 59  1  0  0  0
 34102  1  0  0  0
 35 44  2  0  0  0
 35 45  1  0  0  0
 35 68  1  0  0  0
 36 56  1  0  0  0
 36103  1  0  0  0
 37 39  1  0  0  0
 37 47  1  0  0  0
 37 66  1  0  0  0
 37104  1  0  0  0
 38 43  2  0  0  0
 38 46  1  0  0  0
 38 47  1  0  0  0
 39 64  1  0  0  0
 39 67  2  0  0  0
 40 52  1  0  0  0
 40 53  2  0  0  0
 40 58  1  0  0  0
 41105  1  0  0  0
 41106  1  0  0  0
 41107  1  0  0  0
 41 48  1  0  0  0
 42 43  1  0  0  0
 42 66  1  0  0  0
 42108  1  0  0  0
 42109  1  0  0  0
 43 44  1  0  0  0
 44110  1  0  0  0
 45 46  2  0  0  0
 45111  1  0  0  0
 46112  1  0  0  0
 47113  1  0  0  0
 47114  1  0  0  0
 48 56  1  0  0  0
 48 65  1  0  0  0
 48115  1  0  0  0
 49 50  1  0  0  0
 49 53  1  0  0  0
 49 64  1  0  0  0
 49116  1  0  0  0
 50 51  1  0  0  0
 50117  1  0  0  0
 50118  1  0  0  0
 51 52  1  0  0  0
 51119  1  0  0  0
 51120  1  0  0  0
 52121  1  0  0  0
 52122  1  0  0  0
 53 54  1  0  0  0
 54 55  2  0  0  0
 54123  1  0  0  0
 55 57  1  0  0  0
 55124  1  0  0  0
 56 69  2  0  0  0
 57 58  2  0  0  0
 57125  1  0  0  0
 58126  1  0  0  0
 59 60  1  0  0  0
 59 61  1  0  0  0
 59 62  1  0  0  0
 60127  1  0  0  0
 60128  1  0  0  0
 60129  1  0  0  0
 61130  1  0  0  0
 61131  1  0  0  0
 61132  1  0  0  0
 62133  1  0  0  0
 62134  1  0  0  0
 62135  1  0  0  0
 63 65  1  0  0  0
 63136  1  0  0  0
 63137  1  0  0  0
 63138  1  0  0  0
 64139  1  0  0  0
 65140  1  0  0  0
 68 78  1  0  0  0
 71 73  2  0  0  0
 71 75  1  0  0  0
 71141  1  0  0  0
 72 74  1  0  0  0
 72 75  2  0  0  0
 72142  1  0  0  0
 73 76  1  0  0  0
 73143  1  0  0  0
 74 76  2  0  0  0
 74144  1  0  0  0
 75 79  1  0  0  0
 76 80  1  0  0  0
 77 78  1  0  0  0
 77 79  1  0  0  0
 77 81  2  0  0  0
 78145  1  0  0  0
 78146  1  0  0  0
 79147  1  0  0  0
 80148  1  0  0  0
M  ISO  4   1 100  68 101  78 101  80 100
M  END
> <chiral flag>
0

> <version>
0

> <s_m_source_file>
/data/baiqing/PycharmProjects/Reinvent-master-3.2/result/LINK_invent/BTK/process_docking_weight1_custom_sum_contain_oxygen_bond_distance_aromatic_linkinvent_7_9_3/rearranged_h_0010.sdf

> <i_m_source_file_index>
16

> <r_mmod_Potential_Energy-OPLS-2005>
411.609313964844

> <r_mmod_Stretch_Energy-OPLS-2005>
219.232482910156

> <r_mmod_Bend_Energy-OPLS-2005>
281.814636230469

> <r_mmod_Torsional_Energy-OPLS-2005>
220.372116088867

> <r_mmod_Improper_Torsional_Energy-OPLS-2005>
4.48748207092285

> <r_mmod_Van_der_Waal_Energy-OPLS-2005>
130.148376464844

> <r_mmod_Electrostatic_Energy-OPLS-2005>
-374.771942138672

> <r_mmod_Solvation_Energy-OPLS-2005>
-252.214736938477

> <b_mmod_Minimization_Converged-OPLS-2005>
0

> <r_mmod_RMS_Derivative-OPLS-2005>
0.218703597784042

$$$$
16
                    3D
 Structure written by MMmdl.
170178  0  0  1  0            999 V2000
  -30.7868  -14.2678   20.7911 C   0  0  0  0  0  0
  -30.4245  -12.2917   19.3485 C   0  0  0  0  0  0
  -29.4740  -12.5459   18.1658 C   0  0  0  0  0  0
  -28.0037  -12.3776   18.5920 C   0  0  0  0  0  0
  -27.6671  -13.1879   19.8681 C   0  0  2  0  0  0
  -28.6983  -12.8933   20.9723 C   0  0  0  0  0  0
  -25.2643  -13.8138   20.5640 C   0  0  0  0  0  0
  -24.1869  -13.0437   20.9138 C   0  0  0  0  0  0
  -24.6389  -11.6898   20.8697 C   0  0  0  0  0  0
  -23.9039  -10.4297   21.0385 C   0  0  0  0  0  0
  -24.3605   -9.4223   21.9167 C   0  0  0  0  0  0
  -23.6291   -8.2252   22.0756 C   0  0  0  0  0  0
  -22.4270   -8.0280   21.3549 C   0  0  0  0  0  0
  -21.9892   -9.0239   20.4641 C   0  0  0  0  0  0
  -22.7211  -10.2125   20.3042 C   0  0  0  0  0  0
  -21.6851   -6.0733   22.5281 C   0  0  0  0  0  0
  -21.4011   -6.5641   23.8217 C   0  0  0  0  0  0
  -21.3661   -5.6793   24.9181 C   0  0  0  0  0  0
  -21.6046   -4.3056   24.7228 C   0  0  0  0  0  0
  -21.8820   -3.8144   23.4352 C   0  0  0  0  0  0
  -21.9196   -4.6962   22.3410 C   0  0  0  0  0  0
  -22.7904  -13.5266   21.1828 C   0  0  0  0  0  0
  -22.1663   -4.2156   21.0989 F   0  0  0  0  0  0
  -21.5625   -3.4539   25.7737 F   0  0  0  0  0  0
  -30.0558  -13.1780   20.4570 N   0  0  0  0  0  0
  -26.3043  -12.9265   20.3294 N   0  0  0  0  0  0
  -25.9295  -11.6439   20.5677 N   0  0  0  0  0  0
  -22.0539  -12.8252   22.0385 N   0  0  0  0  0  0
  -25.4408  -15.1849   20.4080 N   0  0  0  0  0  0
  -31.7066  -14.7267   20.1031 O   0  0  0  0  0  0
  -21.6639   -6.8871   21.4244 O   0  0  0  0  0  0
  -22.3587  -14.5571   20.6681 O   0  0  0  0  0  0
  -24.6077  -31.8719   23.2133 C   0  0  0  0  0  0
  -25.8989  -32.4845   23.8401 C   0  0  1  0  0  0
  -27.2386  -27.4840   20.0966 C   0  0  0  0  0  0
  -25.5848  -33.8640   24.2330 N   0  0  0  0  0  0
  -23.3929  -30.4954   21.5494 C   0  0  2  0  0  0
  -24.8421  -28.9649   20.1148 C   0  0  0  0  0  0
  -22.7365  -29.4683   22.4979 C   0  0  0  0  0  0
  -18.0267  -28.1387   22.8486 C   0  0  0  0  0  0
  -24.1477  -36.7352   23.2639 C   0  0  0  0  0  0
  -25.9130  -30.8542   21.3576 C   0  0  0  0  0  0
  -25.9938  -29.4873   20.7165 C   0  0  0  0  0  0
  -27.1941  -28.7510   20.7155 C   0  0  0  0  0  0
  -26.0809  -26.9679   19.4824 C   0  0  0  0  0  0
  -24.8770  -27.6993   19.5002 C   0  0  0  0  0  0
  -23.6008  -29.8268   20.1633 C   0  0  0  0  0  0
  -25.4092  -36.3125   24.0335 C   0  0  1  0  0  0
  -20.5852  -28.3667   23.1342 C   0  0  2  0  0  0
  -20.6758  -26.9408   22.5426 C   0  0  0  0  0  0
  -19.5732  -26.6386   21.5225 C   0  0  0  0  0  0
  -18.1909  -26.7927   22.1631 C   0  0  0  0  0  0
  -19.1514  -28.8833   23.2913 C   0  0  0  0  0  0
  -18.9458  -30.1443   23.8910 C   0  0  0  0  0  0
  -17.6462  -30.6587   24.0571 C   0  0  0  0  0  0
  -25.9023  -34.9488   23.5137 C   0  0  0  0  0  0
  -16.5350  -29.9099   23.6325 C   0  0  0  0  0  0
  -16.7261  -28.6526   23.0330 C   0  0  0  0  0  0
  -26.4446  -31.6615   25.0708 C   0  0  0  0  0  0
  -25.3726  -31.3730   26.1478 C   0  0  0  0  0  0
  -27.0293  -30.3066   24.6056 C   0  0  0  0  0  0
  -27.6019  -32.4343   25.7474 C   0  0  0  0  0  0
  -27.5571  -37.1822   24.8459 C   0  0  0  0  0  0
  -21.4103  -29.3047   22.3738 N   0  0  0  0  0  0
  -26.4282  -37.3804   23.9417 N   0  0  0  0  0  0
  -24.6554  -31.0880   22.0999 N   0  0  0  0  0  0
  -23.4169  -28.8226   23.2997 O   0  0  0  0  0  0
  -28.3894  -26.7427   20.0601 O   0  0  0  0  0  0
  -26.5602  -34.8943   22.4713 O   0  0  0  0  0  0
  -23.5286  -32.1440   23.7564 O   0  0  0  0  0  0
  -31.3626  -18.1764   22.9582 C   0  0  0  0  0  0
  -31.4651  -16.9192   22.3293 C   0  0  0  0  0  0
  -29.4142  -17.4033   24.2057 C   0  0  0  0  0  0
  -30.3245  -18.4331   23.8872 C   0  0  0  0  0  0
  -30.5316  -15.9070   22.6335 C   0  0  0  0  0  0
  -29.5155  -16.1455   23.5843 C   0  0  0  0  0  0
  -30.1744  -19.7805   24.5315 C   0  0  0  0  0  0
  -28.1493  -12.1294   26.0246 C   0  0  0  0  0  0
  -27.8483  -13.2097   24.9791 C   0  0  0  0  0  0
  -29.6775  -24.4177   22.7375 C   0  0  0  0  0  0
  -29.8792  -22.8976   22.6711 C   0  0  0  0  0  0
  -29.2018  -24.9498   21.3760 C   0  0  0  0  0  0
  -30.2436  -22.2240   24.0012 C   0  0  0  0  0  0
  -28.9106  -14.3165   24.9255 C   0  0  0  0  0  0
  -28.9600  -26.4612   21.3348 C   0  0  0  0  0  0
  -30.5613  -14.6190   22.0610 N   0  0  0  0  0  0
  -30.4746  -20.8104   23.7371 N   0  0  0  0  0  0
  -29.7192  -19.9079   25.6695 O   0  0  0  0  0  0
  -28.5794  -15.1784   23.8474 O   0  0  0  0  0  0
  -31.4601  -12.4338   19.0348 H   0  0  0  0  0  0
  -30.3526  -11.2533   19.6767 H   0  0  0  0  0  0
  -29.7076  -11.8654   17.3460 H   0  0  0  0  0  0
  -29.6271  -13.5544   17.7794 H   0  0  0  0  0  0
  -27.8234  -11.3162   18.7657 H   0  0  0  0  0  0
  -27.3403  -12.6708   17.7771 H   0  0  0  0  0  0
  -27.7386  -14.2454   19.6140 H   0  0  0  0  0  0
  -28.6443  -11.8453   21.2720 H   0  0  0  0  0  0
  -28.4204  -13.4664   21.8552 H   0  0  0  0  0  0
  -25.2759   -9.5719   22.4730 H   0  0  0  0  0  0
  -24.0012   -7.4653   22.7485 H   0  0  0  0  0  0
  -21.0817   -8.8745   19.8945 H   0  0  0  0  0  0
  -22.3661  -10.9656   19.6141 H   0  0  0  0  0  0
  -21.1998   -7.6152   23.9726 H   0  0  0  0  0  0
  -21.1477   -6.0521   25.9088 H   0  0  0  0  0  0
  -22.0594   -2.7608   23.2848 H   0  0  0  0  0  0
  -22.4147  -11.9923   22.4800 H   0  0  0  0  0  0
  -21.1152  -13.1271   22.2572 H   0  0  0  0  0  0
  -24.6822  -15.8477   20.5271 H   0  0  0  0  0  0
  -26.3103  -15.6210   20.1251 H   0  0  0  0  0  0
  -26.7062  -32.5593   23.1174 H   0  0  0  0  0  0
  -24.9914  -33.9809   25.0413 H   0  0  0  0  0  0
  -22.6794  -31.3094   21.4111 H   0  0  0  0  0  0
  -23.3713  -35.9714   23.3317 H   0  0  0  0  0  0
  -24.3561  -36.8961   22.2055 H   0  0  0  0  0  0
  -23.7268  -37.6572   23.6659 H   0  0  0  0  0  0
  -26.0092  -31.6162   20.5825 H   0  0  0  0  0  0
  -26.8076  -30.9195   21.9647 H   0  0  0  0  0  0
  -28.0840  -29.1540   21.1784 H   0  0  0  0  0  0
  -26.1110  -25.9993   19.0011 H   0  0  0  0  0  0
  -23.9928  -27.2911   19.0323 H   0  0  0  0  0  0
  -23.7048  -30.6044   19.4040 H   0  0  0  0  0  0
  -22.7258  -29.2448   19.8683 H   0  0  0  0  0  0
  -25.1269  -36.1998   25.0824 H   0  0  0  0  0  0
  -20.9946  -28.3239   24.1459 H   0  0  0  0  0  0
  -20.5680  -26.2275   23.3605 H   0  0  0  0  0  0
  -21.6630  -26.7461   22.1204 H   0  0  0  0  0  0
  -19.6902  -25.6308   21.1241 H   0  0  0  0  0  0
  -19.6680  -27.3205   20.6759 H   0  0  0  0  0  0
  -17.4184  -26.6691   21.4023 H   0  0  0  0  0  0
  -18.0298  -26.0068   22.9025 H   0  0  0  0  0  0
  -19.7951  -30.7258   24.2263 H   0  0  0  0  0  0
  -17.5040  -31.6268   24.5186 H   0  0  0  0  0  0
  -15.5361  -30.3017   23.7649 H   0  0  0  0  0  0
  -15.8660  -28.0875   22.7004 H   0  0  0  0  0  0
  -24.5880  -30.7089   25.7826 H   0  0  0  0  0  0
  -24.8940  -32.2897   26.4932 H   0  0  0  0  0  0
  -25.8097  -30.8903   27.0217 H   0  0  0  0  0  0
  -26.2845  -29.6822   24.1125 H   0  0  0  0  0  0
  -27.4081  -29.7311   25.4507 H   0  0  0  0  0  0
  -27.8629  -30.4388   23.9156 H   0  0  0  0  0  0
  -27.2605  -33.3615   26.2087 H   0  0  0  0  0  0
  -28.3807  -32.6954   25.0297 H   0  0  0  0  0  0
  -28.0698  -31.8450   26.5362 H   0  0  0  0  0  0
  -28.2592  -38.0114   24.7486 H   0  0  0  0  0  0
  -28.1061  -36.2645   24.6295 H   0  0  0  0  0  0
  -27.2293  -37.1481   25.8862 H   0  0  0  0  0  0
  -20.9245  -29.8796   21.6997 H   0  0  0  0  0  0
  -26.0182  -38.2881   24.1411 H   0  0  0  0  0  0
  -32.0852  -18.9418   22.7129 H   0  0  0  0  0  0
  -32.2587  -16.7472   21.6164 H   0  0  0  0  0  0
  -28.6193  -17.5861   24.9154 H   0  0  0  0  0  0
  -27.3843  -11.3523   26.0074 H   0  0  0  0  0  0
  -28.1756  -12.5478   27.0312 H   0  0  0  0  0  0
  -29.1098  -11.6482   25.8348 H   0  0  0  0  0  0
  -26.8720  -13.6520   25.1821 H   0  0  0  0  0  0
  -27.7695  -12.7342   24.0013 H   0  0  0  0  0  0
  -28.9451  -24.6668   23.5075 H   0  0  0  0  0  0
  -30.6099  -24.9062   23.0255 H   0  0  0  0  0  0
  -30.6588  -22.6843   21.9386 H   0  0  0  0  0  0
  -28.9692  -22.4354   22.2850 H   0  0  0  0  0  0
  -28.2706  -24.4476   21.1082 H   0  0  0  0  0  0
  -29.9226  -24.6842   20.6016 H   0  0  0  0  0  0
  -29.4426  -22.3610   24.7318 H   0  0  0  0  0  0
  -31.1474  -22.6641   24.4243 H   0  0  0  0  0  0
  -29.9000  -13.8816   24.7741 H   0  0  0  0  0  0
  -28.9339  -14.8728   25.8636 H   0  0  0  0  0  0
  -28.3063  -26.7453   22.1629 H   0  0  0  0  0  0
  -29.8944  -27.0125   21.4514 H   0  0  0  0  0  0
  -29.9293  -13.9753   22.5129 H   0  0  0  0  0  0
  -30.8162  -20.5677   22.8178 H   0  0  0  0  0  0
  1 25  1  0  0  0
  1 30  2  0  0  0
  1 86  1  0  0  0
  2  3  1  0  0  0
  2 25  1  0  0  0
  2 90  1  0  0  0
  2 91  1  0  0  0
  3  4  1  0  0  0
  3 92  1  0  0  0
  3 93  1  0  0  0
  4  5  1  0  0  0
  4 94  1  0  0  0
  4 95  1  0  0  0
  5  6  1  0  0  0
  5 26  1  0  0  0
  5 96  1  0  0  0
  6 25  1  0  0  0
  6 97  1  0  0  0
  6 98  1  0  0  0
  7  8  2  0  0  0
  7 26  1  0  0  0
  7 29  1  0  0  0
  8  9  1  0  0  0
  8 22  1  0  0  0
  9 10  1  0  0  0
  9 27  2  0  0  0
 10 11  2  0  0  0
 10 15  1  0  0  0
 11 12  1  0  0  0
 11 99  1  0  0  0
 12 13  2  0  0  0
 12100  1  0  0  0
 13 14  1  0  0  0
 13 31  1  0  0  0
 14 15  2  0  0  0
 14101  1  0  0  0
 15102  1  0  0  0
 16 17  2  0  0  0
 16 21  1  0  0  0
 16 31  1  0  0  0
 17 18  1  0  0  0
 17103  1  0  0  0
 18 19  2  0  0  0
 18104  1  0  0  0
 19 20  1  0  0  0
 19 24  1  0  0  0
 20 21  2  0  0  0
 20105  1  0  0  0
 21 23  1  0  0  0
 22 28  1  0  0  0
 22 32  2  0  0  0
 26 27  1  0  0  0
 28106  1  0  0  0
 28107  1  0  0  0
 29108  1  0  0  0
 29109  1  0  0  0
 33 34  1  0  0  0
 33 66  1  0  0  0
 33 70  2  0  0  0
 34 36  1  0  0  0
 34 59  1  0  0  0
 34110  1  0  0  0
 35 44  2  0  0  0
 35 45  1  0  0  0
 35 68  1  0  0  0
 36 56  1  0  0  0
 36111  1  0  0  0
 37 39  1  0  0  0
 37 47  1  0  0  0
 37 66  1  0  0  0
 37112  1  0  0  0
 38 43  2  0  0  0
 38 46  1  0  0  0
 38 47  1  0  0  0
 39 64  1  0  0  0
 39 67  2  0  0  0
 40 52  1  0  0  0
 40 53  2  0  0  0
 40 58  1  0  0  0
 41113  1  0  0  0
 41114  1  0  0  0
 41115  1  0  0  0
 41 48  1  0  0  0
 42 43  1  0  0  0
 42 66  1  0  0  0
 42116  1  0  0  0
 42117  1  0  0  0
 43 44  1  0  0  0
 44118  1  0  0  0
 45 46  2  0  0  0
 45119  1  0  0  0
 46120  1  0  0  0
 47121  1  0  0  0
 47122  1  0  0  0
 48 56  1  0  0  0
 48 65  1  0  0  0
 48123  1  0  0  0
 49 50  1  0  0  0
 49 53  1  0  0  0
 49 64  1  0  0  0
 49124  1  0  0  0
 50 51  1  0  0  0
 50125  1  0  0  0
 50126  1  0  0  0
 51 52  1  0  0  0
 51127  1  0  0  0
 51128  1  0  0  0
 52129  1  0  0  0
 52130  1  0  0  0
 53 54  1  0  0  0
 54 55  2  0  0  0
 54131  1  0  0  0
 55 57  1  0  0  0
 55132  1  0  0  0
 56 69  2  0  0  0
 57 58  2  0  0  0
 57133  1  0  0  0
 58134  1  0  0  0
 59 60  1  0  0  0
 59 61  1  0  0  0
 59 62  1  0  0  0
 60135  1  0  0  0
 60136  1  0  0  0
 60137  1  0  0  0
 61138  1  0  0  0
 61139  1  0  0  0
 61140  1  0  0  0
 62141  1  0  0  0
 62142  1  0  0  0
 62143  1  0  0  0
 63 65  1  0  0  0
 63144  1  0  0  0
 63145  1  0  0  0
 63146  1  0  0  0
 64147  1  0  0  0
 65148  1  0  0  0
 68 85  1  0  0  0
 71 72  2  0  0  0
 71 74  1  0  0  0
 71149  1  0  0  0
 72 75  1  0  0  0
 72150  1  0  0  0
 73 74  2  0  0  0
 73 76  1  0  0  0
 73151  1  0  0  0
 74 77  1  0  0  0
 75 76  2  0  0  0
 75 86  1  0  0  0
 76 89  1  0  0  0
 77 87  1  0  0  0
 77 88  2  0  0  0
 78 79  1  0  0  0
 78152  1  0  0  0
 78153  1  0  0  0
 78154  1  0  0  0
 79 84  1  0  0  0
 79155  1  0  0  0
 79156  1  0  0  0
 80 81  1  0  0  0
 80 82  1  0  0  0
 80157  1  0  0  0
 80158  1  0  0  0
 81 83  1  0  0  0
 81159  1  0  0  0
 81160  1  0  0  0
 82 85  1  0  0  0
 82161  1  0  0  0
 82162  1  0  0  0
 83 87  1  0  0  0
 83163  1  0  0  0
 83164  1  0  0  0
 84 89  1  0  0  0
 84165  1  0  0  0
 84166  1  0  0  0
 85167  1  0  0  0
 85168  1  0  0  0
 86169  1  0  0  0
 87170  1  0  0  0
M  ISO  4   1 100  68 101  85 101  86 100
M  END
> <chiral flag>
0

> <version>
0

> <s_m_source_file>
/data/baiqing/PycharmProjects/Reinvent-master-3.2/result/LINK_invent/BTK/process_docking_weight1_custom_sum_contain_oxygen_bond_distance_aromatic_linkinvent_7_9_3/rearranged_h_0010.sdf

> <i_m_source_file_index>
17

> <r_mmod_Potential_Energy-OPLS-2005>
-125.056617736816

> <r_mmod_Stretch_Energy-OPLS-2005>
29.9415969848633

> <r_mmod_Bend_Energy-OPLS-2005>
96.9560470581055

> <r_mmod_Torsional_Energy-OPLS-2005>
277.852935791016

> <r_mmod_Improper_Torsional_Energy-OPLS-2005>
8.44043731689453

> <r_mmod_Van_der_Waal_Energy-OPLS-2005>
146.648742675781

> <r_mmod_Electrostatic_Energy-OPLS-2005>
-477.704437255859

> <r_mmod_Solvation_Energy-OPLS-2005>
-217.593322753906

> <b_mmod_Minimization_Converged-OPLS-2005>
0

> <r_mmod_RMS_Derivative-OPLS-2005>
2.21960735321045

$$$$
17
                    3D
 Structure written by MMmdl.
151159  0  0  1  0            999 V2000
  -30.6314  -14.6502   20.4927 C   0  0  0  0  0  0
  -30.4372  -12.3978   19.4583 C   0  0  0  0  0  0
  -29.5079  -12.5047   18.2283 C   0  0  0  0  0  0
  -28.0304  -12.3486   18.6391 C   0  0  0  0  0  0
  -27.6528  -13.2220   19.8654 C   0  0  2  0  0  0
  -28.6987  -13.0878   20.9957 C   0  0  0  0  0  0
  -25.2528  -13.8163   20.5654 C   0  0  0  0  0  0
  -24.1810  -13.0425   20.9178 C   0  0  0  0  0  0
  -24.6401  -11.6907   20.8750 C   0  0  0  0  0  0
  -23.9072  -10.4289   21.0410 C   0  0  0  0  0  0
  -24.3621   -9.4206   21.9188 C   0  0  0  0  0  0
  -23.6297   -8.2240   22.0753 C   0  0  0  0  0  0
  -22.4279   -8.0280   21.3544 C   0  0  0  0  0  0
  -21.9916   -9.0254   20.4646 C   0  0  0  0  0  0
  -22.7244  -10.2132   20.3059 C   0  0  0  0  0  0
  -21.6853   -6.0739   22.5279 C   0  0  0  0  0  0
  -21.4011   -6.5642   23.8213 C   0  0  0  0  0  0
  -21.3659   -5.6793   24.9175 C   0  0  0  0  0  0
  -21.6044   -4.3055   24.7223 C   0  0  0  0  0  0
  -21.8821   -3.8150   23.4343 C   0  0  0  0  0  0
  -21.9194   -4.6968   22.3401 C   0  0  0  0  0  0
  -22.7835  -13.5218   21.1851 C   0  0  0  0  0  0
  -22.1663   -4.2155   21.0978 F   0  0  0  0  0  0
  -21.5631   -3.4537   25.7735 F   0  0  0  0  0  0
  -30.0141  -13.4266   20.4301 N   0  0  0  0  0  0
  -26.2990  -12.9372   20.3345 N   0  0  0  0  0  0
  -25.9340  -11.6521   20.5791 N   0  0  0  0  0  0
  -22.0488  -12.8209   22.0416 N   0  0  0  0  0  0
  -25.4186  -15.1873   20.4014 N   0  0  0  0  0  0
  -31.7945  -14.7936   20.1072 O   0  0  0  0  0  0
  -21.6641   -6.8879   21.4239 O   0  0  0  0  0  0
  -22.3514  -14.5530   20.6714 O   0  0  0  0  0  0
  -24.6271  -31.8596   23.2035 C   0  0  0  0  0  0
  -25.9112  -32.4779   23.8362 C   0  0  1  0  0  0
  -27.2225  -27.3148   20.1097 C   0  0  0  0  0  0
  -25.5927  -33.8580   24.2287 N   0  0  0  0  0  0
  -23.4208  -30.4849   21.5464 C   0  0  2  0  0  0
  -24.8656  -28.9427   20.1109 C   0  0  0  0  0  0
  -22.7483  -29.4622   22.4933 C   0  0  0  0  0  0
  -18.0287  -28.1385   22.8499 C   0  0  0  0  0  0
  -24.1487  -36.7286   23.2636 C   0  0  0  0  0  0
  -25.9633  -30.7892   21.3754 C   0  0  0  0  0  0
  -26.0369  -29.4173   20.7145 C   0  0  0  0  0  0
  -27.2180  -28.6158   20.7041 C   0  0  0  0  0  0
  -26.0235  -26.8964   19.4838 C   0  0  0  0  0  0
  -24.8614  -27.6874   19.4874 C   0  0  0  0  0  0
  -23.6351  -29.8241   20.1605 C   0  0  0  0  0  0
  -25.4112  -36.3081   24.0331 C   0  0  1  0  0  0
  -20.5892  -28.3683   23.1285 C   0  0  2  0  0  0
  -20.6775  -26.9406   22.5409 C   0  0  0  0  0  0
  -19.5746  -26.6386   21.5214 C   0  0  0  0  0  0
  -18.1927  -26.7934   22.1629 C   0  0  0  0  0  0
  -19.1544  -28.8852   23.2889 C   0  0  0  0  0  0
  -18.9466  -30.1458   23.8897 C   0  0  0  0  0  0
  -17.6466  -30.6589   24.0568 C   0  0  0  0  0  0
  -25.9045  -34.9455   23.5106 C   0  0  0  0  0  0
  -16.5354  -29.9090   23.6336 C   0  0  0  0  0  0
  -16.7275  -28.6507   23.0358 C   0  0  0  0  0  0
  -26.4492  -31.6590   25.0732 C   0  0  0  0  0  0
  -25.3728  -31.3751   26.1462 C   0  0  0  0  0  0
  -27.0313  -30.3006   24.6188 C   0  0  0  0  0  0
  -27.6056  -32.4316   25.7500 C   0  0  0  0  0  0
  -27.5580  -37.1796   24.8468 C   0  0  0  0  0  0
  -21.4191  -29.3041   22.3683 N   0  0  0  0  0  0
  -26.4288  -37.3780   23.9414 N   0  0  0  0  0  0
  -24.6892  -31.0614   22.0982 N   0  0  0  0  0  0
  -23.4209  -28.8154   23.3006 O   0  0  0  0  0  0
  -28.3363  -26.4568   20.1560 O   0  0  0  0  0  0
  -26.5612  -34.8924   22.4673 O   0  0  0  0  0  0
  -23.5431  -32.1385   23.7365 O   0  0  0  0  0  0
  -28.9860  -19.4478   21.0346 C   0  0  0  0  0  0
  -31.0385  -17.8269   20.0154 C   0  0  0  0  0  0
  -30.0669  -20.1037   20.3927 C   0  0  0  0  0  0
  -29.9671  -17.1678   20.6745 C   0  0  0  0  0  0
  -31.0875  -19.2470   19.8855 C   0  0  0  0  0  0
  -28.9407  -18.0245   21.1733 C   0  0  0  0  0  0
  -29.2921  -24.0297   20.3052 C   0  0  0  0  0  0
  -30.2644  -21.6690   20.3447 C   0  0  0  0  0  0
  -28.0869  -24.9990   19.9937 C   0  0  0  0  0  0
  -29.8423  -15.7124   20.8519 N   0  0  0  0  0  0
  -29.1405  -22.6630   20.2335 N   0  0  0  0  0  0
  -30.3861  -24.5233   20.5906 O   0  0  0  0  0  0
  -32.1636  -19.7942   19.2718 F   0  0  0  0  0  0
  -27.5961  -17.3272   22.0030 Cl  0  0  0  0  0  0
  -31.4787  -12.5199   19.1552 H   0  0  0  0  0  0
  -30.3724  -11.4058   19.9076 H   0  0  0  0  0  0
  -29.7708  -11.7448   17.4911 H   0  0  0  0  0  0
  -29.6532  -13.4691   17.7392 H   0  0  0  0  0  0
  -27.8637  -11.2967   18.8714 H   0  0  0  0  0  0
  -27.3775  -12.5800   17.7966 H   0  0  0  0  0  0
  -27.6667  -14.2565   19.5220 H   0  0  0  0  0  0
  -28.7112  -12.0705   21.3897 H   0  0  0  0  0  0
  -28.4448  -13.7300   21.8406 H   0  0  0  0  0  0
  -25.2765   -9.5682   22.4764 H   0  0  0  0  0  0
  -24.0008   -7.4628   22.7470 H   0  0  0  0  0  0
  -21.0848   -8.8775   19.8948 H   0  0  0  0  0  0
  -22.3706  -10.9674   19.6170 H   0  0  0  0  0  0
  -21.1999   -7.6151   23.9717 H   0  0  0  0  0  0
  -21.1480   -6.0523   25.9077 H   0  0  0  0  0  0
  -22.0600   -2.7613   23.2841 H   0  0  0  0  0  0
  -22.4111  -11.9871   22.4798 H   0  0  0  0  0  0
  -21.1111  -13.1234   22.2633 H   0  0  0  0  0  0
  -24.6579  -15.8422   20.5418 H   0  0  0  0  0  0
  -26.2828  -15.6394   20.1338 H   0  0  0  0  0  0
  -26.7182  -32.5442   23.1111 H   0  0  0  0  0  0
  -25.0083  -33.9730   25.0439 H   0  0  0  0  0  0
  -22.7148  -31.3061   21.4064 H   0  0  0  0  0  0
  -23.3754  -35.9613   23.3290 H   0  0  0  0  0  0
  -24.3582  -36.8910   22.2052 H   0  0  0  0  0  0
  -23.7235  -37.6489   23.6660 H   0  0  0  0  0  0
  -26.0983  -31.5552   20.6108 H   0  0  0  0  0  0
  -26.8428  -30.8338   22.0061 H   0  0  0  0  0  0
  -28.1171  -28.9762   21.1854 H   0  0  0  0  0  0
  -25.9478  -25.9406   18.9888 H   0  0  0  0  0  0
  -23.9643  -27.3184   19.0092 H   0  0  0  0  0  0
  -23.7565  -30.6033   19.4068 H   0  0  0  0  0  0
  -22.7540  -29.2561   19.8562 H   0  0  0  0  0  0
  -25.1293  -36.1924   25.0824 H   0  0  0  0  0  0
  -20.9991  -28.3246   24.1402 H   0  0  0  0  0  0
  -20.5671  -26.2288   23.3605 H   0  0  0  0  0  0
  -21.6641  -26.7428   22.1200 H   0  0  0  0  0  0
  -19.6899  -25.6300   21.1232 H   0  0  0  0  0  0
  -19.6683  -27.3207   20.6755 H   0  0  0  0  0  0
  -17.4198  -26.6687   21.4030 H   0  0  0  0  0  0
  -18.0320  -26.0077   22.9023 H   0  0  0  0  0  0
  -19.7938  -30.7280   24.2258 H   0  0  0  0  0  0
  -17.5018  -31.6269   24.5166 H   0  0  0  0  0  0
  -15.5356  -30.2989   23.7663 H   0  0  0  0  0  0
  -15.8673  -28.0827   22.7068 H   0  0  0  0  0  0
  -24.5909  -30.7077   25.7814 H   0  0  0  0  0  0
  -24.8907  -32.2922   26.4852 H   0  0  0  0  0  0
  -25.8050  -30.8970   27.0256 H   0  0  0  0  0  0
  -26.2876  -29.6774   24.1201 H   0  0  0  0  0  0
  -27.3985  -29.7248   25.4694 H   0  0  0  0  0  0
  -27.8766  -30.4281   23.9423 H   0  0  0  0  0  0
  -27.2685  -33.3643   26.2032 H   0  0  0  0  0  0
  -28.3891  -32.6815   25.0334 H   0  0  0  0  0  0
  -28.0681  -31.8453   26.5450 H   0  0  0  0  0  0
  -28.2593  -38.0099   24.7516 H   0  0  0  0  0  0
  -28.1077  -36.2630   24.6282 H   0  0  0  0  0  0
  -27.2299  -37.1434   25.8871 H   0  0  0  0  0  0
  -20.9355  -29.8782   21.6916 H   0  0  0  0  0  0
  -26.0162  -38.2847   24.1429 H   0  0  0  0  0  0
  -28.1914  -20.0398   21.4639 H   0  0  0  0  0  0
  -31.8559  -17.2556   19.6039 H   0  0  0  0  0  0
  -30.9399  -21.8874   19.5159 H   0  0  0  0  0  0
  -30.8328  -21.9215   21.2418 H   0  0  0  0  0  0
  -27.2561  -24.6985   20.6338 H   0  0  0  0  0  0
  -27.7934  -24.7985   18.9632 H   0  0  0  0  0  0
  -28.9489  -15.4322   21.2289 H   0  0  0  0  0  0
  -28.2280  -22.3047   19.9855 H   0  0  0  0  0  0
  1 25  1  0  0  0
  1 30  2  0  0  0
  1 80  1  0  0  0
  2  3  1  0  0  0
  2 25  1  0  0  0
  2 85  1  0  0  0
  2 86  1  0  0  0
  3  4  1  0  0  0
  3 87  1  0  0  0
  3 88  1  0  0  0
  4  5  1  0  0  0
  4 89  1  0  0  0
  4 90  1  0  0  0
  5  6  1  0  0  0
  5 26  1  0  0  0
  5 91  1  0  0  0
  6 25  1  0  0  0
  6 92  1  0  0  0
  6 93  1  0  0  0
  7  8  2  0  0  0
  7 26  1  0  0  0
  7 29  1  0  0  0
  8  9  1  0  0  0
  8 22  1  0  0  0
  9 10  1  0  0  0
  9 27  2  0  0  0
 10 11  2  0  0  0
 10 15  1  0  0  0
 11 12  1  0  0  0
 11 94  1  0  0  0
 12 13  2  0  0  0
 12 95  1  0  0  0
 13 14  1  0  0  0
 13 31  1  0  0  0
 14 15  2  0  0  0
 14 96  1  0  0  0
 15 97  1  0  0  0
 16 17  2  0  0  0
 16 21  1  0  0  0
 16 31  1  0  0  0
 17 18  1  0  0  0
 17 98  1  0  0  0
 18 19  2  0  0  0
 18 99  1  0  0  0
 19 20  1  0  0  0
 19 24  1  0  0  0
 20 21  2  0  0  0
 20100  1  0  0  0
 21 23  1  0  0  0
 22 28  1  0  0  0
 22 32  2  0  0  0
 26 27  1  0  0  0
 28101  1  0  0  0
 28102  1  0  0  0
 29103  1  0  0  0
 29104  1  0  0  0
 33 34  1  0  0  0
 33 66  1  0  0  0
 33 70  2  0  0  0
 34 36  1  0  0  0
 34 59  1  0  0  0
 34105  1  0  0  0
 35 44  2  0  0  0
 35 45  1  0  0  0
 35 68  1  0  0  0
 36 56  1  0  0  0
 36106  1  0  0  0
 37 39  1  0  0  0
 37 47  1  0  0  0
 37 66  1  0  0  0
 37107  1  0  0  0
 38 43  2  0  0  0
 38 46  1  0  0  0
 38 47  1  0  0  0
 39 64  1  0  0  0
 39 67  2  0  0  0
 40 52  1  0  0  0
 40 53  2  0  0  0
 40 58  1  0  0  0
 41108  1  0  0  0
 41109  1  0  0  0
 41110  1  0  0  0
 41 48  1  0  0  0
 42 43  1  0  0  0
 42 66  1  0  0  0
 42111  1  0  0  0
 42112  1  0  0  0
 43 44  1  0  0  0
 44113  1  0  0  0
 45 46  2  0  0  0
 45114  1  0  0  0
 46115  1  0  0  0
 47116  1  0  0  0
 47117  1  0  0  0
 48 56  1  0  0  0
 48 65  1  0  0  0
 48118  1  0  0  0
 49 50  1  0  0  0
 49 53  1  0  0  0
 49 64  1  0  0  0
 49119  1  0  0  0
 50 51  1  0  0  0
 50120  1  0  0  0
 50121  1  0  0  0
 51 52  1  0  0  0
 51122  1  0  0  0
 51123  1  0  0  0
 52124  1  0  0  0
 52125  1  0  0  0
 53 54  1  0  0  0
 54 55  2  0  0  0
 54126  1  0  0  0
 55 57  1  0  0  0
 55127  1  0  0  0
 56 69  2  0  0  0
 57 58  2  0  0  0
 57128  1  0  0  0
 58129  1  0  0  0
 59 60  1  0  0  0
 59 61  1  0  0  0
 59 62  1  0  0  0
 60130  1  0  0  0
 60131  1  0  0  0
 60132  1  0  0  0
 61133  1  0  0  0
 61134  1  0  0  0
 61135  1  0  0  0
 62136  1  0  0  0
 62137  1  0  0  0
 62138  1  0  0  0
 63 65  1  0  0  0
 63139  1  0  0  0
 63140  1  0  0  0
 63141  1  0  0  0
 64142  1  0  0  0
 65143  1  0  0  0
 68 79  1  0  0  0
 71 73  2  0  0  0
 71 76  1  0  0  0
 71144  1  0  0  0
 72 74  1  0  0  0
 72 75  2  0  0  0
 72145  1  0  0  0
 73 75  1  0  0  0
 73 78  1  0  0  0
 74 76  2  0  0  0
 74 80  1  0  0  0
 75 83  1  0  0  0
 76 84  1  0  0  0
 77 79  1  0  0  0
 77 81  1  0  0  0
 77 82  2  0  0  0
 78 81  1  0  0  0
 78146  1  0  0  0
 78147  1  0  0  0
 79148  1  0  0  0
 79149  1  0  0  0
 80150  1  0  0  0
 81151  1  0  0  0
M  ISO  4   1 100  68 101  79 101  80 100
M  END
> <chiral flag>
0

> <version>
0

> <s_m_source_file>
/data/baiqing/PycharmProjects/Reinvent-master-3.2/result/LINK_invent/BTK/process_docking_weight1_custom_sum_contain_oxygen_bond_distance_aromatic_linkinvent_7_9_3/rearranged_h_0010.sdf

> <i_m_source_file_index>
18

> <r_mmod_Potential_Energy-OPLS-2005>
-42.405387878418

> <r_mmod_Stretch_Energy-OPLS-2005>
81.5512237548828

> <r_mmod_Bend_Energy-OPLS-2005>
139.640441894531

> <r_mmod_Torsional_Energy-OPLS-2005>
208.231216430664

> <r_mmod_Improper_Torsional_Energy-OPLS-2005>
4.19159603118896

> <r_mmod_Van_der_Waal_Energy-OPLS-2005>
144.93571472168

> <r_mmod_Electrostatic_Energy-OPLS-2005>
-428.82861328125

> <r_mmod_Solvation_Energy-OPLS-2005>
-243.363372802734

> <b_mmod_Minimization_Converged-OPLS-2005>
0

> <r_mmod_RMS_Derivative-OPLS-2005>
0.97740775346756

$$$$
18
                    3D
 Structure written by MMmdl.
171179  0  0  1  0            999 V2000
  -30.6167  -14.7999   20.4744 C   0  0  0  0  0  0
  -30.4241  -12.5020   19.4702 C   0  0  0  0  0  0
  -29.5023  -12.5054   18.2336 C   0  0  0  0  0  0
  -28.0349  -12.3146   18.6595 C   0  0  0  0  0  0
  -27.6310  -13.2378   19.8394 C   0  0  2  0  0  0
  -28.6765  -13.2233   20.9731 C   0  0  0  0  0  0
  -25.2477  -13.8204   20.5708 C   0  0  0  0  0  0
  -24.1781  -13.0438   20.9220 C   0  0  0  0  0  0
  -24.6383  -11.6918   20.8761 C   0  0  0  0  0  0
  -23.9066  -10.4291   21.0411 C   0  0  0  0  0  0
  -24.3618   -9.4204   21.9189 C   0  0  0  0  0  0
  -23.6292   -8.2240   22.0757 C   0  0  0  0  0  0
  -22.4277   -8.0278   21.3540 C   0  0  0  0  0  0
  -21.9913   -9.0249   20.4645 C   0  0  0  0  0  0
  -22.7240  -10.2129   20.3057 C   0  0  0  0  0  0
  -21.6853   -6.0735   22.5274 C   0  0  0  0  0  0
  -21.4018   -6.5639   23.8208 C   0  0  0  0  0  0
  -21.3658   -5.6791   24.9169 C   0  0  0  0  0  0
  -21.6042   -4.3055   24.7221 C   0  0  0  0  0  0
  -21.8820   -3.8145   23.4343 C   0  0  0  0  0  0
  -21.9195   -4.6962   22.3397 C   0  0  0  0  0  0
  -22.7808  -13.5221   21.1873 C   0  0  0  0  0  0
  -22.1664   -4.2148   21.0978 F   0  0  0  0  0  0
  -21.5623   -3.4539   25.7735 F   0  0  0  0  0  0
  -29.9609  -13.5893   20.3685 N   0  0  0  0  0  0
  -26.2888  -12.9421   20.3262 N   0  0  0  0  0  0
  -25.9312  -11.6556   20.5757 N   0  0  0  0  0  0
  -22.0462  -12.8202   22.0429 N   0  0  0  0  0  0
  -25.4159  -15.1929   20.4132 N   0  0  0  0  0  0
  -31.8151  -14.8422   20.1800 O   0  0  0  0  0  0
  -21.6639   -6.8874   21.4236 O   0  0  0  0  0  0
  -22.3499  -14.5524   20.6721 O   0  0  0  0  0  0
  -24.6344  -31.8499   23.1942 C   0  0  0  0  0  0
  -25.9146  -32.4735   23.8304 C   0  0  1  0  0  0
  -27.2187  -27.2208   20.1466 C   0  0  0  0  0  0
  -25.5920  -33.8541   24.2225 N   0  0  0  0  0  0
  -23.4347  -30.4681   21.5385 C   0  0  2  0  0  0
  -24.8831  -28.9034   20.1153 C   0  0  0  0  0  0
  -22.7519  -29.4558   22.4907 C   0  0  0  0  0  0
  -18.0285  -28.1378   22.8466 C   0  0  0  0  0  0
  -24.1483  -36.7287   23.2635 C   0  0  0  0  0  0
  -25.9822  -30.7515   21.3785 C   0  0  0  0  0  0
  -26.0559  -29.3679   20.7249 C   0  0  0  0  0  0
  -27.2304  -28.5415   20.7212 C   0  0  0  0  0  0
  -26.0239  -26.8252   19.5146 C   0  0  0  0  0  0
  -24.8736  -27.6419   19.4967 C   0  0  0  0  0  0
  -23.6554  -29.7960   20.1574 C   0  0  0  0  0  0
  -25.4116  -36.3070   24.0310 C   0  0  1  0  0  0
  -20.5892  -28.3693   23.1257 C   0  0  2  0  0  0
  -20.6777  -26.9411   22.5401 C   0  0  0  0  0  0
  -19.5762  -26.6375   21.5196 C   0  0  0  0  0  0
  -18.1938  -26.7916   22.1602 C   0  0  0  0  0  0
  -19.1538  -28.8855   23.2849 C   0  0  0  0  0  0
  -18.9460  -30.1453   23.8873 C   0  0  0  0  0  0
  -17.6463  -30.6580   24.0557 C   0  0  0  0  0  0
  -25.9055  -34.9435   23.5081 C   0  0  0  0  0  0
  -16.5354  -29.9074   23.6336 C   0  0  0  0  0  0
  -16.7272  -28.6491   23.0353 C   0  0  0  0  0  0
  -26.4505  -31.6568   25.0706 C   0  0  0  0  0  0
  -25.3709  -31.3731   26.1414 C   0  0  0  0  0  0
  -27.0376  -30.2980   24.6225 C   0  0  0  0  0  0
  -27.6037  -32.4338   25.7490 C   0  0  0  0  0  0
  -27.5586  -37.1797   24.8460 C   0  0  0  0  0  0
  -21.4220  -29.3029   22.3648 N   0  0  0  0  0  0
  -26.4294  -37.3769   23.9400 N   0  0  0  0  0  0
  -24.7029  -31.0427   22.0936 N   0  0  0  0  0  0
  -23.4198  -28.8105   23.3029 O   0  0  0  0  0  0
  -28.3101  -26.3143   20.1374 O   0  0  0  0  0  0
  -26.5648  -34.8917   22.4665 O   0  0  0  0  0  0
  -23.5480  -32.1330   23.7213 O   0  0  0  0  0  0
  -31.3049  -16.9358   22.3887 C   0  0  0  0  0  0
  -31.8716  -17.8763   23.2529 C   0  0  0  0  0  0
  -30.5882  -19.6074   22.1505 C   0  0  0  0  0  0
  -29.9815  -18.7050   21.2355 C   0  0  0  0  0  0
  -30.3735  -17.2549   21.3582 C   0  0  0  0  0  0
  -31.5212  -19.2193   23.1210 C   0  0  0  0  0  0
  -28.9944  -19.3875   20.2308 C   0  0  0  0  0  0
  -33.3746  -20.3346   24.2969 C   0  0  0  0  0  0
  -24.7669  -20.3345   21.5373 C   0  0  0  0  0  0
  -26.2954  -20.2294   21.5713 C   0  0  0  0  0  0
  -28.5292  -23.5052   19.9067 C   0  0  0  0  0  0
  -26.9528  -20.7248   20.2666 C   0  0  0  0  0  0
  -28.9536  -22.1151   20.7084 C   0  0  0  0  0  0
  -28.1658  -24.9048   20.6893 C   0  0  0  0  0  0
  -33.7708  -21.2620   25.1652 N   0  0  0  0  0  0
  -34.3083  -19.5682   23.7294 N   0  3  0  0  0  0
  -29.9071  -15.9988   20.6794 N   0  0  0  0  0  0
  -28.4277  -20.6923   20.3579 N   0  0  0  0  0  0
  -32.0612  -20.2124   24.0179 N   0  0  0  0  0  0
  -28.5545  -18.6325   19.3577 O   0  0  0  0  0  0
  -31.4619  -12.6306   19.1594 H   0  0  0  0  0  0
  -30.3829  -11.5397   19.9828 H   0  0  0  0  0  0
  -29.7952  -11.7170   17.5391 H   0  0  0  0  0  0
  -29.6100  -13.4480   17.6936 H   0  0  0  0  0  0
  -27.9152  -11.2715   18.9545 H   0  0  0  0  0  0
  -27.3677  -12.4675   17.8104 H   0  0  0  0  0  0
  -27.6085  -14.2479   19.4294 H   0  0  0  0  0  0
  -28.7341  -12.2419   21.4462 H   0  0  0  0  0  0
  -28.4030  -13.9318   21.7567 H   0  0  0  0  0  0
  -25.2759   -9.5683   22.4767 H   0  0  0  0  0  0
  -23.9996   -7.4635   22.7485 H   0  0  0  0  0  0
  -21.0841   -8.8766   19.8951 H   0  0  0  0  0  0
  -22.3695  -10.9668   19.6168 H   0  0  0  0  0  0
  -21.2018   -7.6150   23.9708 H   0  0  0  0  0  0
  -21.1478   -6.0525   25.9070 H   0  0  0  0  0  0
  -22.0603   -2.7610   23.2842 H   0  0  0  0  0  0
  -22.4083  -11.9858   22.4795 H   0  0  0  0  0  0
  -21.1079  -13.1219   22.2639 H   0  0  0  0  0  0
  -24.6461  -15.8438   20.5205 H   0  0  0  0  0  0
  -26.2606  -15.6335   20.0735 H   0  0  0  0  0  0
  -26.7214  -32.5369   23.1043 H   0  0  0  0  0  0
  -25.0033  -33.9659   25.0350 H   0  0  0  0  0  0
  -22.7318  -31.2898   21.3875 H   0  0  0  0  0  0
  -23.3743  -35.9621   23.3290 H   0  0  0  0  0  0
  -24.3557  -36.8941   22.2052 H   0  0  0  0  0  0
  -23.7248  -37.6481   23.6681 H   0  0  0  0  0  0
  -26.1234  -31.5073   20.6047 H   0  0  0  0  0  0
  -26.8586  -30.8049   22.0128 H   0  0  0  0  0  0
  -28.1338  -28.8948   21.1978 H   0  0  0  0  0  0
  -25.9746  -25.8566   19.0374 H   0  0  0  0  0  0
  -23.9778  -27.2803   19.0112 H   0  0  0  0  0  0
  -23.7845  -30.5682   19.3979 H   0  0  0  0  0  0
  -22.7727  -29.2295   19.8553 H   0  0  0  0  0  0
  -25.1308  -36.1916   25.0803 H   0  0  0  0  0  0
  -20.9963  -28.3276   24.1383 H   0  0  0  0  0  0
  -20.5677  -26.2300   23.3601 H   0  0  0  0  0  0
  -21.6646  -26.7434   22.1202 H   0  0  0  0  0  0
  -19.6932  -25.6281   21.1236 H   0  0  0  0  0  0
  -19.6712  -27.3164   20.6712 H   0  0  0  0  0  0
  -17.4212  -26.6641   21.4004 H   0  0  0  0  0  0
  -18.0349  -26.0060   22.9003 H   0  0  0  0  0  0
  -19.7942  -30.7265   24.2232 H   0  0  0  0  0  0
  -17.5023  -31.6255   24.5160 H   0  0  0  0  0  0
  -15.5355  -30.2977   23.7672 H   0  0  0  0  0  0
  -15.8663  -28.0811   22.7088 H   0  0  0  0  0  0
  -24.5869  -30.7111   25.7728 H   0  0  0  0  0  0
  -24.8907  -32.2905   26.4822 H   0  0  0  0  0  0
  -25.7993  -30.8902   27.0205 H   0  0  0  0  0  0
  -26.2983  -29.6694   24.1246 H   0  0  0  0  0  0
  -27.4049  -29.7284   25.4770 H   0  0  0  0  0  0
  -27.8860  -30.4249   23.9500 H   0  0  0  0  0  0
  -27.2620  -33.3649   26.2026 H   0  0  0  0  0  0
  -28.3859  -32.6887   25.0327 H   0  0  0  0  0  0
  -28.0689  -31.8497   26.5436 H   0  0  0  0  0  0
  -28.2595  -38.0107   24.7529 H   0  0  0  0  0  0
  -28.1108  -36.2636   24.6281 H   0  0  0  0  0  0
  -27.2301  -37.1454   25.8865 H   0  0  0  0  0  0
  -20.9417  -29.8759   21.6850 H   0  0  0  0  0  0
  -26.0174  -38.2846   24.1396 H   0  0  0  0  0  0
  -31.6060  -15.9169   22.5815 H   0  0  0  0  0  0
  -32.5476  -17.5461   24.0289 H   0  0  0  0  0  0
  -30.3406  -20.6501   22.1459 H   0  0  0  0  0  0
  -24.3337  -19.9894   22.4770 H   0  0  0  0  0  0
  -24.3484  -19.7255   20.7354 H   0  0  0  0  0  0
  -24.4411  -21.3636   21.3811 H   0  0  0  0  0  0
  -26.5721  -19.1924   21.7670 H   0  0  0  0  0  0
  -26.6720  -20.8102   22.4151 H   0  0  0  0  0  0
  -27.7288  -23.3045   19.1969 H   0  0  0  0  0  0
  -29.3768  -23.7386   19.2617 H   0  0  0  0  0  0
  -26.5799  -21.7271   20.0711 H   0  0  0  0  0  0
  -26.5953  -20.1320   19.4224 H   0  0  0  0  0  0
  -28.7384  -22.2712   21.7661 H   0  0  0  0  0  0
  -30.0407  -22.0722   20.6351 H   0  0  0  0  0  0
  -28.8025  -24.9154   21.5741 H   0  0  0  0  0  0
  -27.1592  -24.7959   21.0946 H   0  0  0  0  0  0
  -34.7420  -21.3984   25.4039 H   0  0  0  0  0  0
  -33.1041  -21.8540   25.6427 H   0  0  0  0  0  0
  -35.2888  -19.6424   23.9563 H   0  0  0  0  0  0
  -34.0435  -18.8897   23.0299 H   0  0  0  0  0  0
  -28.9122  -15.9393   20.5251 H   0  0  0  0  0  0
  -31.4939  -21.0139   24.2545 H   0  0  0  0  0  0
  1 25  1  0  0  0
  1 30  2  0  0  0
  1 87  1  0  0  0
  2  3  1  0  0  0
  2 25  1  0  0  0
  2 91  1  0  0  0
  2 92  1  0  0  0
  3  4  1  0  0  0
  3 93  1  0  0  0
  3 94  1  0  0  0
  4  5  1  0  0  0
  4 95  1  0  0  0
  4 96  1  0  0  0
  5  6  1  0  0  0
  5 26  1  0  0  0
  5 97  1  0  0  0
  6 25  1  0  0  0
  6 98  1  0  0  0
  6 99  1  0  0  0
  7  8  2  0  0  0
  7 26  1  0  0  0
  7 29  1  0  0  0
  8  9  1  0  0  0
  8 22  1  0  0  0
  9 10  1  0  0  0
  9 27  2  0  0  0
 10 11  2  0  0  0
 10 15  1  0  0  0
 11 12  1  0  0  0
 11100  1  0  0  0
 12 13  2  0  0  0
 12101  1  0  0  0
 13 14  1  0  0  0
 13 31  1  0  0  0
 14 15  2  0  0  0
 14102  1  0  0  0
 15103  1  0  0  0
 16 17  2  0  0  0
 16 21  1  0  0  0
 16 31  1  0  0  0
 17 18  1  0  0  0
 17104  1  0  0  0
 18 19  2  0  0  0
 18105  1  0  0  0
 19 20  1  0  0  0
 19 24  1  0  0  0
 20 21  2  0  0  0
 20106  1  0  0  0
 21 23  1  0  0  0
 22 28  1  0  0  0
 22 32  2  0  0  0
 26 27  1  0  0  0
 28107  1  0  0  0
 28108  1  0  0  0
 29109  1  0  0  0
 29110  1  0  0  0
 33 34  1  0  0  0
 33 66  1  0  0  0
 33 70  2  0  0  0
 34 36  1  0  0  0
 34 59  1  0  0  0
 34111  1  0  0  0
 35 44  2  0  0  0
 35 45  1  0  0  0
 35 68  1  0  0  0
 36 56  1  0  0  0
 36112  1  0  0  0
 37 39  1  0  0  0
 37 47  1  0  0  0
 37 66  1  0  0  0
 37113  1  0  0  0
 38 43  2  0  0  0
 38 46  1  0  0  0
 38 47  1  0  0  0
 39 64  1  0  0  0
 39 67  2  0  0  0
 40 52  1  0  0  0
 40 53  2  0  0  0
 40 58  1  0  0  0
 41114  1  0  0  0
 41115  1  0  0  0
 41116  1  0  0  0
 41 48  1  0  0  0
 42 43  1  0  0  0
 42 66  1  0  0  0
 42117  1  0  0  0
 42118  1  0  0  0
 43 44  1  0  0  0
 44119  1  0  0  0
 45 46  2  0  0  0
 45120  1  0  0  0
 46121  1  0  0  0
 47122  1  0  0  0
 47123  1  0  0  0
 48 56  1  0  0  0
 48 65  1  0  0  0
 48124  1  0  0  0
 49 50  1  0  0  0
 49 53  1  0  0  0
 49 64  1  0  0  0
 49125  1  0  0  0
 50 51  1  0  0  0
 50126  1  0  0  0
 50127  1  0  0  0
 51 52  1  0  0  0
 51128  1  0  0  0
 51129  1  0  0  0
 52130  1  0  0  0
 52131  1  0  0  0
 53 54  1  0  0  0
 54 55  2  0  0  0
 54132  1  0  0  0
 55 57  1  0  0  0
 55133  1  0  0  0
 56 69  2  0  0  0
 57 58  2  0  0  0
 57134  1  0  0  0
 58135  1  0  0  0
 59 60  1  0  0  0
 59 61  1  0  0  0
 59 62  1  0  0  0
 60136  1  0  0  0
 60137  1  0  0  0
 60138  1  0  0  0
 61139  1  0  0  0
 61140  1  0  0  0
 61141  1  0  0  0
 62142  1  0  0  0
 62143  1  0  0  0
 62144  1  0  0  0
 63 65  1  0  0  0
 63145  1  0  0  0
 63146  1  0  0  0
 63147  1  0  0  0
 64148  1  0  0  0
 65149  1  0  0  0
 68 84  1  0  0  0
 71 72  2  0  0  0
 71 75  1  0  0  0
 71150  1  0  0  0
 72 76  1  0  0  0
 72151  1  0  0  0
 73 74  1  0  0  0
 73 76  2  0  0  0
 73152  1  0  0  0
 74 75  2  0  0  0
 74 77  1  0  0  0
 75 87  1  0  0  0
 76 89  1  0  0  0
 77 88  1  0  0  0
 77 90  2  0  0  0
 78 85  1  0  0  0
 78 86  2  0  0  0
 78 89  1  0  0  0
 79 80  1  0  0  0
 79153  1  0  0  0
 79154  1  0  0  0
 79155  1  0  0  0
 80 82  1  0  0  0
 80156  1  0  0  0
 80157  1  0  0  0
 81 83  1  0  0  0
 81 84  1  0  0  0
 81158  1  0  0  0
 81159  1  0  0  0
 82 88  1  0  0  0
 82160  1  0  0  0
 82161  1  0  0  0
 83 88  1  0  0  0
 83162  1  0  0  0
 83163  1  0  0  0
 84164  1  0  0  0
 84165  1  0  0  0
 85166  1  0  0  0
 85167  1  0  0  0
 86168  1  0  0  0
 86169  1  0  0  0
 87170  1  0  0  0
 89171  1  0  0  0
M  CHG  1  86   1
M  ISO  4   1 100  68 101  84 101  87 100
M  END
> <chiral flag>
0

> <version>
0

> <s_m_source_file>
/data/baiqing/PycharmProjects/Reinvent-master-3.2/result/LINK_invent/BTK/process_docking_weight1_custom_sum_contain_oxygen_bond_distance_aromatic_linkinvent_7_9_3/rearranged_h_0010.sdf

> <i_m_source_file_index>
19

> <r_mmod_Potential_Energy-OPLS-2005>
260.120147705078

> <r_mmod_Stretch_Energy-OPLS-2005>
192.580902099609

> <r_mmod_Bend_Energy-OPLS-2005>
264.416931152344

> <r_mmod_Torsional_Energy-OPLS-2005>
338.317352294922

> <r_mmod_Improper_Torsional_Energy-OPLS-2005>
9.42315292358398

> <r_mmod_Van_der_Waal_Energy-OPLS-2005>
154.742416381836

> <r_mmod_Electrostatic_Energy-OPLS-2005>
-327.267303466797

> <r_mmod_Solvation_Energy-OPLS-2005>
-482.752716064453

> <b_mmod_Minimization_Converged-OPLS-2005>
0

> <r_mmod_RMS_Derivative-OPLS-2005>
1.29579448699951

$$$$
19
                    3D
 Structure written by MMmdl.
163171  0  0  1  0            999 V2000
  -30.3209  -15.7272   20.2982 C   0  0  0  0  0  0
  -30.4220  -13.1451   19.5409 C   0  0  0  0  0  0
  -29.5534  -12.6827   18.3338 C   0  0  0  0  0  0
  -28.1324  -12.3109   18.7796 C   0  0  0  0  0  0
  -27.5959  -13.3266   19.8122 C   0  0  2  0  0  0
  -28.6133  -13.7054   20.9212 C   0  0  0  0  0  0
  -25.2310  -13.8318   20.5811 C   0  0  0  0  0  0
  -24.1716  -13.0441   20.9297 C   0  0  0  0  0  0
  -24.6445  -11.6963   20.8761 C   0  0  0  0  0  0
  -23.9152  -10.4296   21.0381 C   0  0  0  0  0  0
  -24.3668   -9.4201   21.9167 C   0  0  0  0  0  0
  -23.6320   -8.2245   22.0745 C   0  0  0  0  0  0
  -22.4297   -8.0292   21.3542 C   0  0  0  0  0  0
  -21.9953   -9.0269   20.4637 C   0  0  0  0  0  0
  -22.7310  -10.2135   20.3042 C   0  0  0  0  0  0
  -21.6859   -6.0740   22.5281 C   0  0  0  0  0  0
  -21.4018   -6.5643   23.8214 C   0  0  0  0  0  0
  -21.3667   -5.6796   24.9176 C   0  0  0  0  0  0
  -21.6044   -4.3058   24.7226 C   0  0  0  0  0  0
  -21.8817   -3.8151   23.4348 C   0  0  0  0  0  0
  -21.9191   -4.6966   22.3403 C   0  0  0  0  0  0
  -22.7716  -13.5142   21.1935 C   0  0  0  0  0  0
  -22.1659   -4.2157   21.0977 F   0  0  0  0  0  0
  -21.5631   -3.4538   25.7735 F   0  0  0  0  0  0
  -29.7813  -14.3501   20.2567 N   0  0  0  0  0  0
  -26.2794  -12.9696   20.3259 N   0  0  0  0  0  0
  -25.9404  -11.6746   20.5709 N   0  0  0  0  0  0
  -22.0387  -12.8109   22.0490 N   0  0  0  0  0  0
  -25.3863  -15.2060   20.4249 N   0  0  0  0  0  0
  -31.5519  -15.6239   20.1330 O   0  0  0  0  0  0
  -21.6653   -6.8891   21.4245 O   0  0  0  0  0  0
  -22.3370  -14.5431   20.6768 O   0  0  0  0  0  0
  -24.6770  -31.8404   23.1866 C   0  0  0  0  0  0
  -25.9278  -32.4871   23.8601 C   0  0  1  0  0  0
  -27.8601  -25.9507   21.0041 C   0  0  0  0  0  0
  -25.5838  -33.8628   24.2429 N   0  0  0  0  0  0
  -23.5329  -30.4636   21.4785 C   0  0  2  0  0  0
  -24.8648  -28.9500   19.7843 C   0  0  0  0  0  0
  -22.7839  -29.4723   22.4379 C   0  0  0  0  0  0
  -18.0406  -28.1460   22.8412 C   0  0  0  0  0  0
  -24.1456  -36.7343   23.2652 C   0  0  0  0  0  0
  -26.1673  -30.8704   21.4283 C   0  0  0  0  0  0
  -26.4940  -29.5059   20.8589 C   0  0  0  0  0  0
  -27.9774  -28.1586   21.5470 C   0  0  0  0  0  0
  -25.8670  -25.4548   19.4606 C   0  0  0  0  0  0
  -24.5146  -27.0385   19.1676 C   0  0  0  0  0  0
  -23.6971  -29.8949   20.0144 C   0  0  0  0  0  0
  -25.4063  -36.3136   24.0368 C   0  0  1  0  0  0
  -20.6083  -28.3969   23.0906 C   0  0  2  0  0  0
  -20.6906  -26.9563   22.5341 C   0  0  0  0  0  0
  -19.5854  -26.6373   21.5212 C   0  0  0  0  0  0
  -18.2037  -26.7968   22.1616 C   0  0  0  0  0  0
  -19.1676  -28.9017   23.2658 C   0  0  0  0  0  0
  -18.9558  -30.1569   23.8755 C   0  0  0  0  0  0
  -17.6536  -30.6616   24.0545 C   0  0  0  0  0  0
  -25.8964  -34.9483   23.5196 C   0  0  0  0  0  0
  -16.5431  -29.9082   23.6360 C   0  0  0  0  0  0
  -16.7373  -28.6506   23.0379 C   0  0  0  0  0  0
  -26.4542  -31.6633   25.0958 C   0  0  0  0  0  0
  -25.3656  -31.3804   26.1563 C   0  0  0  0  0  0
  -27.0435  -30.3016   24.6513 C   0  0  0  0  0  0
  -27.6040  -32.4397   25.7776 C   0  0  0  0  0  0
  -27.5562  -37.1820   24.8466 C   0  0  0  0  0  0
  -21.4493  -29.3200   22.3064 N   0  0  0  0  0  0
  -26.4275  -37.3796   23.9411 N   0  0  0  0  0  0
  -24.8047  -31.0472   22.0757 N   0  0  0  0  0  0
  -23.4106  -28.8502   23.2999 O   0  0  0  0  0  0
  -27.1033  -25.3757   19.4325 O   0  0  0  0  0  0
  -26.5533  -34.8923   22.4756 O   0  0  0  0  0  0
  -23.5732  -32.1030   23.6914 O   0  0  0  0  0  0
  -27.0245  -23.8102   21.2116 C   0  0  0  0  0  0
  -25.9185  -25.2160   21.6982 C   0  0  0  0  0  0
  -29.2721  -25.4021   19.3359 C   0  0  0  0  0  0
  -28.5483  -23.7773   20.1882 C   0  0  0  0  0  0
  -26.2805  -27.1994   20.5834 C   0  0  0  0  0  0
  -28.3101  -27.2065   19.3444 C   0  0  0  0  0  0
  -28.9326  -20.6108   20.3589 C   0  0  0  0  0  0
  -25.6684  -27.3815   21.2668 C   0  0  0  0  0  0
  -28.9228  -29.5744   18.8883 C   0  0  0  0  0  0
  -29.8236  -18.9382   20.1456 C   0  0  0  0  0  0
  -26.6221  -27.2585   17.8047 C   0  0  0  0  0  0
  -27.2247  -25.7558   17.7065 C   0  0  0  0  0  0
  -29.1880  -22.1414   20.0547 N   0  0  0  0  0  0
  -29.6103  -17.1419   20.3318 N   0  0  0  0  0  0
  -26.7662  -27.6826   19.4323 N   0  0  0  0  0  0
  -27.8397  -20.4235   20.8969 O   0  0  0  0  0  0
  -29.0570  -28.1786   18.6414 O   0  0  0  0  0  0
  -31.4117  -13.3995   19.1601 H   0  0  0  0  0  0
  -30.5966  -12.3218   20.2360 H   0  0  0  0  0  0
  -30.0241  -11.8398   17.8260 H   0  0  0  0  0  0
  -29.5021  -13.4942   17.6056 H   0  0  0  0  0  0
  -28.1695  -11.3180   19.2299 H   0  0  0  0  0  0
  -27.4641  -12.2364   17.9200 H   0  0  0  0  0  0
  -27.4429  -14.2365   19.2291 H   0  0  0  0  0  0
  -28.8899  -12.8400   21.5258 H   0  0  0  0  0  0
  -28.1619  -14.4219   21.6093 H   0  0  0  0  0  0
  -25.2807   -9.5669   22.4753 H   0  0  0  0  0  0
  -24.0024   -7.4634   22.7467 H   0  0  0  0  0  0
  -21.0883   -8.8796   19.8942 H   0  0  0  0  0  0
  -22.3766  -10.9670   19.6153 H   0  0  0  0  0  0
  -21.2014   -7.6152   23.9723 H   0  0  0  0  0  0
  -21.1492   -6.0522   25.9081 H   0  0  0  0  0  0
  -22.0587   -2.7615   23.2843 H   0  0  0  0  0  0
  -22.4036  -11.9799   22.4906 H   0  0  0  0  0  0
  -21.0984  -13.1082   22.2685 H   0  0  0  0  0  0
  -24.6126  -15.8523   20.5376 H   0  0  0  0  0  0
  -26.2307  -15.6515   20.0908 H   0  0  0  0  0  0
  -26.7628  -32.6017   23.1786 H   0  0  0  0  0  0
  -24.9972  -33.9762   25.0566 H   0  0  0  0  0  0
  -22.8450  -31.3035   21.3649 H   0  0  0  0  0  0
  -23.3684  -35.9718   23.3374 H   0  0  0  0  0  0
  -24.3536  -36.8888   22.2055 H   0  0  0  0  0  0
  -23.7261  -37.6588   23.6618 H   0  0  0  0  0  0
  -26.2776  -31.6120   20.6362 H   0  0  0  0  0  0
  -27.0189  -30.9970   22.0807 H   0  0  0  0  0  0
  -28.6845  -28.4883   22.2948 H   0  0  0  0  0  0
  -25.4286  -24.4688   19.1616 H   0  0  0  0  0  0
  -23.5584  -26.8157   18.7158 H   0  0  0  0  0  0
  -23.8344  -30.7298   19.3279 H   0  0  0  0  0  0
  -22.7817  -29.3965   19.6918 H   0  0  0  0  0  0
  -25.1247  -36.2016   25.0866 H   0  0  0  0  0  0
  -21.0229  -28.3712   24.1008 H   0  0  0  0  0  0
  -20.5796  -26.2636   23.3699 H   0  0  0  0  0  0
  -21.6765  -26.7484   22.1161 H   0  0  0  0  0  0
  -19.7034  -25.6235   21.1373 H   0  0  0  0  0  0
  -19.6761  -27.3066   20.6644 H   0  0  0  0  0  0
  -17.4312  -26.6677   21.4020 H   0  0  0  0  0  0
  -18.0431  -26.0156   22.9056 H   0  0  0  0  0  0
  -19.8032  -30.7425   24.2070 H   0  0  0  0  0  0
  -17.5085  -31.6268   24.5201 H   0  0  0  0  0  0
  -15.5428  -30.2941   23.7768 H   0  0  0  0  0  0
  -15.8775  -28.0768   22.7190 H   0  0  0  0  0  0
  -24.5835  -30.7194   25.7813 H   0  0  0  0  0  0
  -24.8855  -32.2994   26.4924 H   0  0  0  0  0  0
  -25.7860  -30.8978   27.0398 H   0  0  0  0  0  0
  -26.3258  -29.6901   24.1036 H   0  0  0  0  0  0
  -27.3536  -29.7104   25.5145 H   0  0  0  0  0  0
  -27.9315  -30.4231   24.0309 H   0  0  0  0  0  0
  -27.2596  -33.3723   26.2253 H   0  0  0  0  0  0
  -28.3924  -32.6935   25.0682 H   0  0  0  0  0  0
  -28.0630  -31.8587   26.5780 H   0  0  0  0  0  0
  -28.2623  -38.0070   24.7448 H   0  0  0  0  0  0
  -28.1006  -36.2604   24.6357 H   0  0  0  0  0  0
  -27.2277  -37.1567   25.8869 H   0  0  0  0  0  0
  -20.9784  -29.8711   21.6025 H   0  0  0  0  0  0
  -26.0181  -38.2887   24.1385 H   0  0  0  0  0  0
  -26.7681  -22.8626   21.6627 H   0  0  0  0  0  0
  -25.1406  -25.0810   22.4391 H   0  0  0  0  0  0
  -30.1916  -25.3207   18.7772 H   0  0  0  0  0  0
  -26.0079  -27.3693   22.4460 H   0  0  0  0  0  0
  -24.5440  -26.9805   21.3917 H   0  0  0  0  0  0
  -25.0763  -28.1946   21.8317 H   0  0  0  0  0  0
  -29.6538  -30.0984   18.2727 H   0  0  0  0  0  0
  -29.1545  -29.8302   19.9204 H   0  0  0  0  0  0
  -27.9415  -29.9631   18.6182 H   0  0  0  0  0  0
  -30.7385  -19.1118   20.7100 H   0  0  0  0  0  0
  -30.1461  -19.0102   19.1075 H   0  0  0  0  0  0
  -25.6755  -27.3477   17.2725 H   0  0  0  0  0  0
  -27.2307  -27.9244   17.1922 H   0  0  0  0  0  0
  -28.2006  -25.7350   17.2179 H   0  0  0  0  0  0
  -26.5862  -25.1227   17.0837 H   0  0  0  0  0  0
  -30.0830  -22.1767   19.5840 H   0  0  0  0  0  0
  -28.6245  -16.9690   20.4733 H   0  0  0  0  0  0
  1 25  1  0  0  0
  1 30  2  0  0  0
  1 84  1  0  0  0
  2  3  1  0  0  0
  2 25  1  0  0  0
  2 88  1  0  0  0
  2 89  1  0  0  0
  3  4  1  0  0  0
  3 90  1  0  0  0
  3 91  1  0  0  0
  4  5  1  0  0  0
  4 92  1  0  0  0
  4 93  1  0  0  0
  5  6  1  0  0  0
  5 26  1  0  0  0
  5 94  1  0  0  0
  6 25  1  0  0  0
  6 95  1  0  0  0
  6 96  1  0  0  0
  7  8  2  0  0  0
  7 26  1  0  0  0
  7 29  1  0  0  0
  8  9  1  0  0  0
  8 22  1  0  0  0
  9 10  1  0  0  0
  9 27  2  0  0  0
 10 11  2  0  0  0
 10 15  1  0  0  0
 11 12  1  0  0  0
 11 97  1  0  0  0
 12 13  2  0  0  0
 12 98  1  0  0  0
 13 14  1  0  0  0
 13 31  1  0  0  0
 14 15  2  0  0  0
 14 99  1  0  0  0
 15100  1  0  0  0
 16 17  2  0  0  0
 16 21  1  0  0  0
 16 31  1  0  0  0
 17 18  1  0  0  0
 17101  1  0  0  0
 18 19  2  0  0  0
 18102  1  0  0  0
 19 20  1  0  0  0
 19 24  1  0  0  0
 20 21  2  0  0  0
 20103  1  0  0  0
 21 23  1  0  0  0
 22 28  1  0  0  0
 22 32  2  0  0  0
 26 27  1  0  0  0
 28104  1  0  0  0
 28105  1  0  0  0
 29106  1  0  0  0
 29107  1  0  0  0
 33 34  1  0  0  0
 33 66  1  0  0  0
 33 70  2  0  0  0
 34 36  1  0  0  0
 34 59  1  0  0  0
 34108  1  0  0  0
 35 44  2  0  0  0
 35 45  1  0  0  0
 35 68  1  0  0  0
 36 56  1  0  0  0
 36109  1  0  0  0
 37 39  1  0  0  0
 37 47  1  0  0  0
 37 66  1  0  0  0
 37110  1  0  0  0
 38 43  2  0  0  0
 38 46  1  0  0  0
 38 47  1  0  0  0
 39 64  1  0  0  0
 39 67  2  0  0  0
 40 52  1  0  0  0
 40 53  2  0  0  0
 40 58  1  0  0  0
 41111  1  0  0  0
 41112  1  0  0  0
 41113  1  0  0  0
 41 48  1  0  0  0
 42 43  1  0  0  0
 42 66  1  0  0  0
 42114  1  0  0  0
 42115  1  0  0  0
 43 44  1  0  0  0
 44116  1  0  0  0
 45 46  2  0  0  0
 45117  1  0  0  0
 46118  1  0  0  0
 47119  1  0  0  0
 47120  1  0  0  0
 48 56  1  0  0  0
 48 65  1  0  0  0
 48121  1  0  0  0
 49 50  1  0  0  0
 49 53  1  0  0  0
 49 64  1  0  0  0
 49122  1  0  0  0
 50 51  1  0  0  0
 50123  1  0  0  0
 50124  1  0  0  0
 51 52  1  0  0  0
 51125  1  0  0  0
 51126  1  0  0  0
 52127  1  0  0  0
 52128  1  0  0  0
 53 54  1  0  0  0
 54 55  2  0  0  0
 54129  1  0  0  0
 55 57  1  0  0  0
 55130  1  0  0  0
 56 69  2  0  0  0
 57 58  2  0  0  0
 57131  1  0  0  0
 58132  1  0  0  0
 59 60  1  0  0  0
 59 61  1  0  0  0
 59 62  1  0  0  0
 60133  1  0  0  0
 60134  1  0  0  0
 60135  1  0  0  0
 61136  1  0  0  0
 61137  1  0  0  0
 61138  1  0  0  0
 62139  1  0  0  0
 62140  1  0  0  0
 62141  1  0  0  0
 63 65  1  0  0  0
 63142  1  0  0  0
 63143  1  0  0  0
 63144  1  0  0  0
 64145  1  0  0  0
 65146  1  0  0  0
 68 82  1  0  0  0
 71 72  2  0  0  0
 71 74  1  0  0  0
 71147  1  0  0  0
 72 75  1  0  0  0
 72148  1  0  0  0
 73 74  2  0  0  0
 73 76  1  0  0  0
 73149  1  0  0  0
 74 83  1  0  0  0
 75 76  2  0  0  0
 75 85  1  0  0  0
 76 87  1  0  0  0
 77 80  1  0  0  0
 77 83  1  0  0  0
 77 86  2  0  0  0
 78 85  1  0  0  0
 78150  1  0  0  0
 78151  1  0  0  0
 78152  1  0  0  0
 79 87  1  0  0  0
 79153  1  0  0  0
 79154  1  0  0  0
 79155  1  0  0  0
 80 84  1  0  0  0
 80156  1  0  0  0
 80157  1  0  0  0
 81 82  1  0  0  0
 81 85  1  0  0  0
 81158  1  0  0  0
 81159  1  0  0  0
 82160  1  0  0  0
 82161  1  0  0  0
 83162  1  0  0  0
 84163  1  0  0  0
M  ISO  4   1 100  68 101  82 101  84 100
M  END
> <chiral flag>
0

> <version>
0

> <s_m_source_file>
/data/baiqing/PycharmProjects/Reinvent-master-3.2/result/LINK_invent/BTK/process_docking_weight1_custom_sum_contain_oxygen_bond_distance_aromatic_linkinvent_7_9_3/rearranged_h_0010.sdf

> <i_m_source_file_index>
20

> <r_mmod_Potential_Energy-OPLS-2005>
27432.708984375

> <r_mmod_Stretch_Energy-OPLS-2005>
15968.2958984375

> <r_mmod_Bend_Energy-OPLS-2005>
2877.69580078125

> <r_mmod_Torsional_Energy-OPLS-2005>
407.443084716797

> <r_mmod_Improper_Torsional_Energy-OPLS-2005>
79.4573822021484

> <r_mmod_Van_der_Waal_Energy-OPLS-2005>
6901.1787109375

> <r_mmod_Electrostatic_Energy-OPLS-2005>
-449.967346191406

> <r_mmod_Solvation_Energy-OPLS-2005>
-248.994827270508

> <b_mmod_Minimization_Converged-OPLS-2005>
0

> <r_mmod_RMS_Derivative-OPLS-2005>
5.14999008178711

$$$$
20
                    3D
 Structure written by MMmdl.
157165  0  0  1  0            999 V2000
  -30.5434  -14.9056   20.4364 C   0  0  0  0  0  0
  -30.4508  -12.5569   19.5002 C   0  0  0  0  0  0
  -29.5264  -12.5279   18.2586 C   0  0  0  0  0  0
  -28.0580  -12.3224   18.6757 C   0  0  0  0  0  0
  -27.6399  -13.2427   19.8513 C   0  0  2  0  0  0
  -28.6841  -13.2315   20.9906 C   0  0  0  0  0  0
  -25.2509  -13.8204   20.5725 C   0  0  0  0  0  0
  -24.1807  -13.0436   20.9218 C   0  0  0  0  0  0
  -24.6416  -11.6921   20.8765 C   0  0  0  0  0  0
  -23.9089  -10.4298   21.0421 C   0  0  0  0  0  0
  -24.3626   -9.4204   21.9198 C   0  0  0  0  0  0
  -23.6291   -8.2243   22.0765 C   0  0  0  0  0  0
  -22.4271   -8.0292   21.3554 C   0  0  0  0  0  0
  -21.9914   -9.0268   20.4658 C   0  0  0  0  0  0
  -22.7257  -10.2142   20.3067 C   0  0  0  0  0  0
  -21.6849   -6.0745   22.5284 C   0  0  0  0  0  0
  -21.4022   -6.5647   23.8225 C   0  0  0  0  0  0
  -21.3658   -5.6791   24.9182 C   0  0  0  0  0  0
  -21.6035   -4.3051   24.7225 C   0  0  0  0  0  0
  -21.8816   -3.8154   23.4345 C   0  0  0  0  0  0
  -21.9195   -4.6970   22.3405 C   0  0  0  0  0  0
  -22.7832  -13.5215   21.1873 C   0  0  0  0  0  0
  -22.1662   -4.2158   21.0983 F   0  0  0  0  0  0
  -21.5617   -3.4533   25.7736 F   0  0  0  0  0  0
  -29.9734  -13.6364   20.4087 N   0  0  0  0  0  0
  -26.2944  -12.9431   20.3296 N   0  0  0  0  0  0
  -25.9350  -11.6558   20.5752 N   0  0  0  0  0  0
  -22.0476  -12.8212   22.0427 N   0  0  0  0  0  0
  -25.4170  -15.1939   20.4194 N   0  0  0  0  0  0
  -31.7234  -15.0229   20.0860 O   0  0  0  0  0  0
  -21.6629   -6.8885   21.4246 O   0  0  0  0  0  0
  -22.3521  -14.5522   20.6728 O   0  0  0  0  0  0
  -24.6424  -31.8453   23.1897 C   0  0  0  0  0  0
  -25.9201  -32.4704   23.8286 C   0  0  1  0  0  0
  -27.2252  -27.1537   20.1405 C   0  0  0  0  0  0
  -25.5955  -33.8508   24.2205 N   0  0  0  0  0  0
  -23.4462  -30.4645   21.5344 C   0  0  2  0  0  0
  -24.8964  -28.8945   20.1075 C   0  0  0  0  0  0
  -22.7570  -29.4546   22.4863 C   0  0  0  0  0  0
  -18.0308  -28.1395   22.8480 C   0  0  0  0  0  0
  -24.1491  -36.7255   23.2642 C   0  0  0  0  0  0
  -26.0006  -30.7215   21.3882 C   0  0  0  0  0  0
  -26.0720  -29.3347   20.7285 C   0  0  0  0  0  0
  -27.2341  -28.4793   20.7319 C   0  0  0  0  0  0
  -26.0251  -26.8148   19.4742 C   0  0  0  0  0  0
  -24.8852  -27.6478   19.4653 C   0  0  0  0  0  0
  -23.6721  -29.7953   20.1529 C   0  0  0  0  0  0
  -25.4122  -36.3035   24.0321 C   0  0  1  0  0  0
  -20.5917  -28.3718   23.1240 C   0  0  2  0  0  0
  -20.6789  -26.9423   22.5405 C   0  0  0  0  0  0
  -19.5762  -26.6382   21.5217 C   0  0  0  0  0  0
  -18.1946  -26.7937   22.1629 C   0  0  0  0  0  0
  -19.1564  -28.8878   23.2855 C   0  0  0  0  0  0
  -18.9478  -30.1471   23.8882 C   0  0  0  0  0  0
  -17.6474  -30.6593   24.0558 C   0  0  0  0  0  0
  -25.9072  -34.9410   23.5067 C   0  0  0  0  0  0
  -16.5366  -29.9083   23.6332 C   0  0  0  0  0  0
  -16.7292  -28.6502   23.0359 C   0  0  0  0  0  0
  -26.4526  -31.6567   25.0720 C   0  0  0  0  0  0
  -25.3713  -31.3745   26.1415 C   0  0  0  0  0  0
  -27.0397  -30.2971   24.6287 C   0  0  0  0  0  0
  -27.6062  -32.4329   25.7497 C   0  0  0  0  0  0
  -27.5575  -37.1787   24.8468 C   0  0  0  0  0  0
  -21.4264  -29.3044   22.3613 N   0  0  0  0  0  0
  -26.4288  -37.3748   23.9406 N   0  0  0  0  0  0
  -24.7160  -31.0316   22.0925 N   0  0  0  0  0  0
  -23.4219  -28.8091   23.3012 O   0  0  0  0  0  0
  -28.2870  -26.1833   20.2306 O   0  0  0  0  0  0
  -26.5657  -34.8903   22.4645 O   0  0  0  0  0  0
  -23.5546  -32.1316   23.7126 O   0  0  0  0  0  0
  -30.2041  -19.7138   19.3366 C   0  0  0  0  0  0
  -30.4105  -18.2913   19.5511 C   0  0  0  0  0  0
  -28.7297  -19.8196   21.1654 C   0  0  0  0  0  0
  -29.3181  -20.5686   20.0955 C   0  0  0  0  0  0
  -29.7409  -17.5347   20.5633 C   0  0  0  0  0  0
  -28.9235  -18.3865   21.3918 C   0  0  0  0  0  0
  -28.0820  -18.5343   23.6833 C   0  0  0  0  0  0
  -28.9471  -22.0700   18.2270 C   0  0  0  0  0  0
  -28.9921  -23.3471   20.4060 C   0  0  0  0  0  0
  -28.0900  -24.6815   19.8897 C   0  0  0  0  0  0
  -29.7277  -16.0157   20.7391 N   0  0  0  0  0  0
  -28.2814  -17.7526   22.4687 N   0  0  0  0  0  0
  -28.9436  -21.9592   19.6869 N   0  0  0  0  0  0
  -31.4852  -12.7175   19.1925 H   0  0  0  0  0  0
  -30.4382  -11.5938   20.0129 H   0  0  0  0  0  0
  -29.8336  -11.7347   17.5760 H   0  0  0  0  0  0
  -29.6241  -13.4634   17.7057 H   0  0  0  0  0  0
  -27.9496  -11.2788   18.9726 H   0  0  0  0  0  0
  -27.3955  -12.4675   17.8221 H   0  0  0  0  0  0
  -27.6129  -14.2535   19.4434 H   0  0  0  0  0  0
  -28.7593  -12.2420   21.4444 H   0  0  0  0  0  0
  -28.3859  -13.9099   21.7908 H   0  0  0  0  0  0
  -25.2779   -9.5656   22.4771 H   0  0  0  0  0  0
  -23.9997   -7.4622   22.7478 H   0  0  0  0  0  0
  -21.0849   -8.8796   19.8960 H   0  0  0  0  0  0
  -22.3736  -10.9680   19.6172 H   0  0  0  0  0  0
  -21.2026   -7.6161   23.9725 H   0  0  0  0  0  0
  -21.1478   -6.0529   25.9081 H   0  0  0  0  0  0
  -22.0596   -2.7615   23.2844 H   0  0  0  0  0  0
  -22.4085  -11.9873   22.4816 H   0  0  0  0  0  0
  -21.1093  -13.1257   22.2632 H   0  0  0  0  0  0
  -24.6514  -15.8441   20.5590 H   0  0  0  0  0  0
  -26.2677  -15.6474   20.1135 H   0  0  0  0  0  0
  -26.7265  -32.5310   23.1018 H   0  0  0  0  0  0
  -25.0092  -33.9625   25.0344 H   0  0  0  0  0  0
  -22.7473  -31.2899   21.3822 H   0  0  0  0  0  0
  -23.3759  -35.9582   23.3300 H   0  0  0  0  0  0
  -24.3577  -36.8886   22.2057 H   0  0  0  0  0  0
  -23.7240  -37.6450   23.6676 H   0  0  0  0  0  0
  -26.1572  -31.4756   20.6160 H   0  0  0  0  0  0
  -26.8710  -30.7701   22.0306 H   0  0  0  0  0  0
  -28.1276  -28.8090   21.2431 H   0  0  0  0  0  0
  -25.9311  -25.8671   18.9668 H   0  0  0  0  0  0
  -23.9900  -27.3074   18.9632 H   0  0  0  0  0  0
  -23.8091  -30.5717   19.3993 H   0  0  0  0  0  0
  -22.7864  -29.2393   19.8418 H   0  0  0  0  0  0
  -25.1308  -36.1873   25.0816 H   0  0  0  0  0  0
  -21.0013  -28.3308   24.1362 H   0  0  0  0  0  0
  -20.5690  -26.2333   23.3625 H   0  0  0  0  0  0
  -21.6652  -26.7433   22.1195 H   0  0  0  0  0  0
  -19.6916  -25.6288   21.1260 H   0  0  0  0  0  0
  -19.6696  -27.3183   20.6740 H   0  0  0  0  0  0
  -17.4212  -26.6689   21.4031 H   0  0  0  0  0  0
  -18.0337  -26.0084   22.9031 H   0  0  0  0  0  0
  -19.7952  -30.7294   24.2248 H   0  0  0  0  0  0
  -17.5023  -31.6271   24.5166 H   0  0  0  0  0  0
  -15.5362  -30.2980   23.7661 H   0  0  0  0  0  0
  -15.8694  -28.0810   22.7085 H   0  0  0  0  0  0
  -24.5907  -30.7080   25.7730 H   0  0  0  0  0  0
  -24.8885  -32.2919   26.4788 H   0  0  0  0  0  0
  -25.7997  -30.8952   27.0226 H   0  0  0  0  0  0
  -26.3014  -29.6690   24.1290 H   0  0  0  0  0  0
  -27.4020  -29.7271   25.4852 H   0  0  0  0  0  0
  -27.8913  -30.4224   23.9598 H   0  0  0  0  0  0
  -27.2671  -33.3652   26.2024 H   0  0  0  0  0  0
  -28.3896  -32.6854   25.0339 H   0  0  0  0  0  0
  -28.0707  -31.8490   26.5452 H   0  0  0  0  0  0
  -28.2593  -38.0082   24.7510 H   0  0  0  0  0  0
  -28.1073  -36.2614   24.6306 H   0  0  0  0  0  0
  -27.2292  -37.1441   25.8871 H   0  0  0  0  0  0
  -20.9478  -29.8760   21.6790 H   0  0  0  0  0  0
  -26.0159  -38.2817   24.1411 H   0  0  0  0  0  0
  -30.7384  -20.1438   18.5019 H   0  0  0  0  0  0
  -31.0694  -17.7679   18.8729 H   0  0  0  0  0  0
  -28.0429  -20.3581   21.8000 H   0  0  0  0  0  0
  -27.9931  -17.8735   24.5465 H   0  0  0  0  0  0
  -27.1685  -19.1273   23.6261 H   0  0  0  0  0  0
  -28.9219  -19.2061   23.8705 H   0  0  0  0  0  0
  -28.7034  -21.1233   17.7422 H   0  0  0  0  0  0
  -29.9215  -22.3958   17.8593 H   0  0  0  0  0  0
  -28.1976  -22.7758   17.8735 H   0  0  0  0  0  0
  -28.7711  -23.1823   21.4612 H   0  0  0  0  0  0
  -30.0400  -23.6495   20.3863 H   0  0  0  0  0  0
  -27.0627  -24.4282   20.1504 H   0  0  0  0  0  0
  -28.1142  -24.6842   18.8022 H   0  0  0  0  0  0
  -28.8470  -15.6963   21.1097 H   0  0  0  0  0  0
  -28.5843  -16.7982   22.6338 H   0  0  0  0  0  0
  1 25  1  0  0  0
  1 30  2  0  0  0
  1 81  1  0  0  0
  2  3  1  0  0  0
  2 25  1  0  0  0
  2 84  1  0  0  0
  2 85  1  0  0  0
  3  4  1  0  0  0
  3 86  1  0  0  0
  3 87  1  0  0  0
  4  5  1  0  0  0
  4 88  1  0  0  0
  4 89  1  0  0  0
  5  6  1  0  0  0
  5 26  1  0  0  0
  5 90  1  0  0  0
  6 25  1  0  0  0
  6 91  1  0  0  0
  6 92  1  0  0  0
  7  8  2  0  0  0
  7 26  1  0  0  0
  7 29  1  0  0  0
  8  9  1  0  0  0
  8 22  1  0  0  0
  9 10  1  0  0  0
  9 27  2  0  0  0
 10 11  2  0  0  0
 10 15  1  0  0  0
 11 12  1  0  0  0
 11 93  1  0  0  0
 12 13  2  0  0  0
 12 94  1  0  0  0
 13 14  1  0  0  0
 13 31  1  0  0  0
 14 15  2  0  0  0
 14 95  1  0  0  0
 15 96  1  0  0  0
 16 17  2  0  0  0
 16 21  1  0  0  0
 16 31  1  0  0  0
 17 18  1  0  0  0
 17 97  1  0  0  0
 18 19  2  0  0  0
 18 98  1  0  0  0
 19 20  1  0  0  0
 19 24  1  0  0  0
 20 21  2  0  0  0
 20 99  1  0  0  0
 21 23  1  0  0  0
 22 28  1  0  0  0
 22 32  2  0  0  0
 26 27  1  0  0  0
 28100  1  0  0  0
 28101  1  0  0  0
 29102  1  0  0  0
 29103  1  0  0  0
 33 34  1  0  0  0
 33 66  1  0  0  0
 33 70  2  0  0  0
 34 36  1  0  0  0
 34 59  1  0  0  0
 34104  1  0  0  0
 35 44  2  0  0  0
 35 45  1  0  0  0
 35 68  1  0  0  0
 36 56  1  0  0  0
 36105  1  0  0  0
 37 39  1  0  0  0
 37 47  1  0  0  0
 37 66  1  0  0  0
 37106  1  0  0  0
 38 43  2  0  0  0
 38 46  1  0  0  0
 38 47  1  0  0  0
 39 64  1  0  0  0
 39 67  2  0  0  0
 40 52  1  0  0  0
 40 53  2  0  0  0
 40 58  1  0  0  0
 41107  1  0  0  0
 41108  1  0  0  0
 41109  1  0  0  0
 41 48  1  0  0  0
 42 43  1  0  0  0
 42 66  1  0  0  0
 42110  1  0  0  0
 42111  1  0  0  0
 43 44  1  0  0  0
 44112  1  0  0  0
 45 46  2  0  0  0
 45113  1  0  0  0
 46114  1  0  0  0
 47115  1  0  0  0
 47116  1  0  0  0
 48 56  1  0  0  0
 48 65  1  0  0  0
 48117  1  0  0  0
 49 50  1  0  0  0
 49 53  1  0  0  0
 49 64  1  0  0  0
 49118  1  0  0  0
 50 51  1  0  0  0
 50119  1  0  0  0
 50120  1  0  0  0
 51 52  1  0  0  0
 51121  1  0  0  0
 51122  1  0  0  0
 52123  1  0  0  0
 52124  1  0  0  0
 53 54  1  0  0  0
 54 55  2  0  0  0
 54125  1  0  0  0
 55 57  1  0  0  0
 55126  1  0  0  0
 56 69  2  0  0  0
 57 58  2  0  0  0
 57127  1  0  0  0
 58128  1  0  0  0
 59 60  1  0  0  0
 59 61  1  0  0  0
 59 62  1  0  0  0
 60129  1  0  0  0
 60130  1  0  0  0
 60131  1  0  0  0
 61132  1  0  0  0
 61133  1  0  0  0
 61134  1  0  0  0
 62135  1  0  0  0
 62136  1  0  0  0
 62137  1  0  0  0
 63 65  1  0  0  0
 63138  1  0  0  0
 63139  1  0  0  0
 63140  1  0  0  0
 64141  1  0  0  0
 65142  1  0  0  0
 68 80  1  0  0  0
 71 72  2  0  0  0
 71 74  1  0  0  0
 71143  1  0  0  0
 72 75  1  0  0  0
 72144  1  0  0  0
 73 74  2  0  0  0
 73 76  1  0  0  0
 73145  1  0  0  0
 74 83  1  0  0  0
 75 76  2  0  0  0
 75 81  1  0  0  0
 76 82  1  0  0  0
 77 82  1  0  0  0
 77146  1  0  0  0
 77147  1  0  0  0
 77148  1  0  0  0
 78 83  1  0  0  0
 78149  1  0  0  0
 78150  1  0  0  0
 78151  1  0  0  0
 79 80  1  0  0  0
 79 83  1  0  0  0
 79152  1  0  0  0
 79153  1  0  0  0
 80154  1  0  0  0
 80155  1  0  0  0
 81156  1  0  0  0
 82157  1  0  0  0
M  ISO  4   1 100  68 101  80 101  81 100
M  END
> <chiral flag>
0

> <version>
0

> <s_m_source_file>
/data/baiqing/PycharmProjects/Reinvent-master-3.2/result/LINK_invent/BTK/process_docking_weight1_custom_sum_contain_oxygen_bond_distance_aromatic_linkinvent_7_9_3/rearranged_h_0010.sdf

> <i_m_source_file_index>
21

> <r_mmod_Potential_Energy-OPLS-2005>
401.114959716797

> <r_mmod_Stretch_Energy-OPLS-2005>
220.933395385742

> <r_mmod_Bend_Energy-OPLS-2005>
263.110961914062

> <r_mmod_Torsional_Energy-OPLS-2005>
231.207138061523

> <r_mmod_Improper_Torsional_Energy-OPLS-2005>
9.21202182769775

> <r_mmod_Van_der_Waal_Energy-OPLS-2005>
145.388366699219

> <r_mmod_Electrostatic_Energy-OPLS-2005>
-400.275482177734

> <r_mmod_Solvation_Energy-OPLS-2005>
-238.161117553711

> <b_mmod_Minimization_Converged-OPLS-2005>
0

> <r_mmod_RMS_Derivative-OPLS-2005>
1.80491304397583

$$$$
21
                    3D
 Structure written by MMmdl.
155163  0  0  1  0            999 V2000
  -30.7240  -14.4228   20.6265 C   0  0  0  0  0  0
  -30.4228  -12.2950   19.4107 C   0  0  0  0  0  0
  -29.4920  -12.5148   18.2014 C   0  0  0  0  0  0
  -28.0138  -12.3738   18.6143 C   0  0  0  0  0  0
  -27.6660  -13.2019   19.8799 C   0  0  2  0  0  0
  -28.7046  -12.9521   20.9965 C   0  0  0  0  0  0
  -25.2610  -13.8153   20.5678 C   0  0  0  0  0  0
  -24.1849  -13.0439   20.9167 C   0  0  0  0  0  0
  -24.6392  -11.6902   20.8725 C   0  0  0  0  0  0
  -23.9055  -10.4291   21.0399 C   0  0  0  0  0  0
  -24.3610   -9.4209   21.9178 C   0  0  0  0  0  0
  -23.6287   -8.2244   22.0752 C   0  0  0  0  0  0
  -22.4269   -8.0281   21.3545 C   0  0  0  0  0  0
  -21.9901   -9.0254   20.4647 C   0  0  0  0  0  0
  -22.7228  -10.2133   20.3051 C   0  0  0  0  0  0
  -21.6853   -6.0733   22.5279 C   0  0  0  0  0  0
  -21.4015   -6.5637   23.8212 C   0  0  0  0  0  0
  -21.3657   -5.6789   24.9175 C   0  0  0  0  0  0
  -21.6044   -4.3052   24.7224 C   0  0  0  0  0  0
  -21.8819   -3.8145   23.4345 C   0  0  0  0  0  0
  -21.9193   -4.6962   22.3403 C   0  0  0  0  0  0
  -22.7873  -13.5246   21.1834 C   0  0  0  0  0  0
  -22.1662   -4.2148   21.0979 F   0  0  0  0  0  0
  -21.5627   -3.4535   25.7737 F   0  0  0  0  0  0
  -30.0425  -13.2579   20.4556 N   0  0  0  0  0  0
  -26.3044  -12.9313   20.3376 N   0  0  0  0  0  0
  -25.9317  -11.6476   20.5755 N   0  0  0  0  0  0
  -22.0510  -12.8245   22.0393 N   0  0  0  0  0  0
  -25.4354  -15.1869   20.4091 N   0  0  0  0  0  0
  -31.8093  -14.6441   20.0805 O   0  0  0  0  0  0
  -21.6637   -6.8877   21.4241 O   0  0  0  0  0  0
  -22.3563  -14.5555   20.6685 O   0  0  0  0  0  0
  -24.6105  -31.8701   23.2126 C   0  0  0  0  0  0
  -25.9011  -32.4835   23.8413 C   0  0  1  0  0  0
  -27.2449  -27.4619   20.0996 C   0  0  0  0  0  0
  -25.5879  -33.8633   24.2343 N   0  0  0  0  0  0
  -23.3989  -30.4918   21.5514 C   0  0  2  0  0  0
  -24.8505  -28.9595   20.1185 C   0  0  0  0  0  0
  -22.7391  -29.4661   22.5004 C   0  0  0  0  0  0
  -18.0267  -28.1372   22.8495 C   0  0  0  0  0  0
  -24.1486  -36.7325   23.2639 C   0  0  0  0  0  0
  -25.9236  -30.8425   21.3646 C   0  0  0  0  0  0
  -26.0047  -29.4750   20.7224 C   0  0  0  0  0  0
  -27.2039  -28.7304   20.7233 C   0  0  0  0  0  0
  -26.0813  -26.9615   19.4833 C   0  0  0  0  0  0
  -24.8808  -27.6973   19.4995 C   0  0  0  0  0  0
  -23.6088  -29.8212   20.1666 C   0  0  0  0  0  0
  -25.4103  -36.3121   24.0342 C   0  0  1  0  0  0
  -20.5854  -28.3653   23.1328 C   0  0  2  0  0  0
  -20.6754  -26.9392   22.5421 C   0  0  0  0  0  0
  -19.5736  -26.6384   21.5213 C   0  0  0  0  0  0
  -18.1914  -26.7920   22.1624 C   0  0  0  0  0  0
  -19.1515  -28.8829   23.2909 C   0  0  0  0  0  0
  -18.9446  -30.1438   23.8915 C   0  0  0  0  0  0
  -17.6449  -30.6581   24.0566 C   0  0  0  0  0  0
  -25.9025  -34.9484   23.5141 C   0  0  0  0  0  0
  -16.5340  -29.9084   23.6326 C   0  0  0  0  0  0
  -16.7257  -28.6501   23.0346 C   0  0  0  0  0  0
  -26.4458  -31.6600   25.0722 C   0  0  0  0  0  0
  -25.3741  -31.3696   26.1484 C   0  0  0  0  0  0
  -27.0285  -30.3047   24.6068 C   0  0  0  0  0  0
  -27.6045  -32.4311   25.7474 C   0  0  0  0  0  0
  -27.5581  -37.1815   24.8466 C   0  0  0  0  0  0
  -21.4123  -29.3026   22.3740 N   0  0  0  0  0  0
  -26.4296  -37.3798   23.9407 N   0  0  0  0  0  0
  -24.6619  -31.0822   22.1017 N   0  0  0  0  0  0
  -23.4175  -28.8205   23.3039 O   0  0  0  0  0  0
  -28.3762  -26.6841   20.0357 O   0  0  0  0  0  0
  -26.5591  -34.8928   22.4704 O   0  0  0  0  0  0
  -23.5304  -32.1444   23.7531 O   0  0  0  0  0  0
  -31.8789  -18.6544   21.6581 C   0  0  0  0  0  0
  -29.4815  -18.9962   21.8658 C   0  0  0  0  0  0
  -31.6732  -17.2687   21.5029 C   0  0  0  0  0  0
  -29.2760  -17.6085   21.7149 C   0  0  0  0  0  0
  -30.7898  -19.5359   21.8288 C   0  0  0  0  0  0
  -30.3645  -16.7320   21.5146 C   0  0  0  0  0  0
  -30.3067  -22.0078   21.9060 C   0  0  0  0  0  0
  -30.1099  -25.3947   21.1113 C   0  0  0  0  0  0
  -30.9942  -23.3429   22.2374 C   0  0  0  0  0  0
  -29.1635  -26.6021   21.2214 C   0  0  0  0  0  0
  -31.0908  -20.9182   22.0079 N   0  0  0  0  0  0
  -30.0875  -15.3407   21.3776 N   0  0  0  0  0  0
  -30.1177  -24.5147   22.1222 N   0  0  0  0  0  0
  -29.1184  -21.9848   21.5708 O   0  0  0  0  0  0
  -30.8368  -25.2666   20.1223 O   0  0  0  0  0  0
  -31.4668  -12.3950   19.1081 H   0  0  0  0  0  0
  -30.3229  -11.2770   19.7900 H   0  0  0  0  0  0
  -29.7282  -11.8019   17.4103 H   0  0  0  0  0  0
  -29.6633  -13.5067   17.7801 H   0  0  0  0  0  0
  -27.8211  -11.3165   18.8004 H   0  0  0  0  0  0
  -27.3628  -12.6593   17.7873 H   0  0  0  0  0  0
  -27.7210  -14.2543   19.6002 H   0  0  0  0  0  0
  -28.6740  -11.9076   21.3106 H   0  0  0  0  0  0
  -28.4562  -13.5227   21.8920 H   0  0  0  0  0  0
  -25.2757   -9.5684   22.4749 H   0  0  0  0  0  0
  -23.9999   -7.4635   22.7468 H   0  0  0  0  0  0
  -21.0834   -8.8771   19.8953 H   0  0  0  0  0  0
  -22.3687  -10.9670   19.6158 H   0  0  0  0  0  0
  -21.2008   -7.6144   23.9716 H   0  0  0  0  0  0
  -21.1478   -6.0518   25.9078 H   0  0  0  0  0  0
  -22.0600   -2.7607   23.2846 H   0  0  0  0  0  0
  -22.4117  -11.9901   22.4780 H   0  0  0  0  0  0
  -21.1133  -13.1282   22.2600 H   0  0  0  0  0  0
  -24.6706  -15.8449   20.5135 H   0  0  0  0  0  0
  -26.2903  -15.6221   20.0857 H   0  0  0  0  0  0
  -26.7085  -32.5572   23.1189 H   0  0  0  0  0  0
  -25.0028  -33.9801   25.0487 H   0  0  0  0  0  0
  -22.6862  -31.3072   21.4115 H   0  0  0  0  0  0
  -23.3737  -35.9671   23.3321 H   0  0  0  0  0  0
  -24.3581  -36.8916   22.2050 H   0  0  0  0  0  0
  -23.7253  -37.6544   23.6637 H   0  0  0  0  0  0
  -26.0287  -31.6039   20.5905 H   0  0  0  0  0  0
  -26.8140  -30.9040   21.9780 H   0  0  0  0  0  0
  -28.0908  -29.1407   21.1852 H   0  0  0  0  0  0
  -26.1053  -25.9956   18.9984 H   0  0  0  0  0  0
  -23.9954  -27.2933   19.0283 H   0  0  0  0  0  0
  -23.7128  -30.5944   19.4045 H   0  0  0  0  0  0
  -22.7354  -29.2356   19.8738 H   0  0  0  0  0  0
  -25.1278  -36.1997   25.0836 H   0  0  0  0  0  0
  -20.9948  -28.3213   24.1448 H   0  0  0  0  0  0
  -20.5656  -26.2256   23.3601 H   0  0  0  0  0  0
  -21.6627  -26.7436   22.1215 H   0  0  0  0  0  0
  -19.6896  -25.6301   21.1225 H   0  0  0  0  0  0
  -19.6677  -27.3208   20.6754 H   0  0  0  0  0  0
  -17.4185  -26.6672   21.4024 H   0  0  0  0  0  0
  -18.0316  -26.0055   22.9014 H   0  0  0  0  0  0
  -19.7923  -30.7249   24.2290 H   0  0  0  0  0  0
  -17.5006  -31.6264   24.5163 H   0  0  0  0  0  0
  -15.5341  -30.2992   23.7640 H   0  0  0  0  0  0
  -15.8656  -28.0828   22.7050 H   0  0  0  0  0  0
  -24.5896  -30.7061   25.7826 H   0  0  0  0  0  0
  -24.8951  -32.2850   26.4969 H   0  0  0  0  0  0
  -25.8105  -30.8837   27.0219 H   0  0  0  0  0  0
  -26.2817  -29.6814   24.1134 H   0  0  0  0  0  0
  -27.4083  -29.7273   25.4507 H   0  0  0  0  0  0
  -27.8639  -30.4380   23.9191 H   0  0  0  0  0  0
  -27.2672  -33.3594   26.2100 H   0  0  0  0  0  0
  -28.3824  -32.6900   25.0279 H   0  0  0  0  0  0
  -28.0747  -31.8406   26.5348 H   0  0  0  0  0  0
  -28.2613  -38.0097   24.7498 H   0  0  0  0  0  0
  -28.1061  -36.2631   24.6306 H   0  0  0  0  0  0
  -27.2301  -37.1492   25.8870 H   0  0  0  0  0  0
  -20.9278  -29.8750   21.6968 H   0  0  0  0  0  0
  -26.0191  -38.2882   24.1393 H   0  0  0  0  0  0
  -32.8913  -19.0335   21.6455 H   0  0  0  0  0  0
  -28.6183  -19.6251   22.0241 H   0  0  0  0  0  0
  -32.5376  -16.6314   21.3852 H   0  0  0  0  0  0
  -28.2658  -17.2247   21.7490 H   0  0  0  0  0  0
  -31.8806  -23.4522   21.6099 H   0  0  0  0  0  0
  -31.3545  -23.2944   23.2656 H   0  0  0  0  0  0
  -29.7604  -27.5064   21.3453 H   0  0  0  0  0  0
  -28.5256  -26.4996   22.1018 H   0  0  0  0  0  0
  -32.0572  -21.1238   22.2229 H   0  0  0  0  0  0
  -29.1919  -15.0325   21.7239 H   0  0  0  0  0  0
  -29.4569  -24.6577   22.8737 H   0  0  0  0  0  0
  1 25  1  0  0  0
  1 30  2  0  0  0
  1 82  1  0  0  0
  2  3  1  0  0  0
  2 25  1  0  0  0
  2 86  1  0  0  0
  2 87  1  0  0  0
  3  4  1  0  0  0
  3 88  1  0  0  0
  3 89  1  0  0  0
  4  5  1  0  0  0
  4 90  1  0  0  0
  4 91  1  0  0  0
  5  6  1  0  0  0
  5 26  1  0  0  0
  5 92  1  0  0  0
  6 25  1  0  0  0
  6 93  1  0  0  0
  6 94  1  0  0  0
  7  8  2  0  0  0
  7 26  1  0  0  0
  7 29  1  0  0  0
  8  9  1  0  0  0
  8 22  1  0  0  0
  9 10  1  0  0  0
  9 27  2  0  0  0
 10 11  2  0  0  0
 10 15  1  0  0  0
 11 12  1  0  0  0
 11 95  1  0  0  0
 12 13  2  0  0  0
 12 96  1  0  0  0
 13 14  1  0  0  0
 13 31  1  0  0  0
 14 15  2  0  0  0
 14 97  1  0  0  0
 15 98  1  0  0  0
 16 17  2  0  0  0
 16 21  1  0  0  0
 16 31  1  0  0  0
 17 18  1  0  0  0
 17 99  1  0  0  0
 18 19  2  0  0  0
 18100  1  0  0  0
 19 20  1  0  0  0
 19 24  1  0  0  0
 20 21  2  0  0  0
 20101  1  0  0  0
 21 23  1  0  0  0
 22 28  1  0  0  0
 22 32  2  0  0  0
 26 27  1  0  0  0
 28102  1  0  0  0
 28103  1  0  0  0
 29104  1  0  0  0
 29105  1  0  0  0
 33 34  1  0  0  0
 33 66  1  0  0  0
 33 70  2  0  0  0
 34 36  1  0  0  0
 34 59  1  0  0  0
 34106  1  0  0  0
 35 44  2  0  0  0
 35 45  1  0  0  0
 35 68  1  0  0  0
 36 56  1  0  0  0
 36107  1  0  0  0
 37 39  1  0  0  0
 37 47  1  0  0  0
 37 66  1  0  0  0
 37108  1  0  0  0
 38 43  2  0  0  0
 38 46  1  0  0  0
 38 47  1  0  0  0
 39 64  1  0  0  0
 39 67  2  0  0  0
 40 52  1  0  0  0
 40 53  2  0  0  0
 40 58  1  0  0  0
 41109  1  0  0  0
 41110  1  0  0  0
 41111  1  0  0  0
 41 48  1  0  0  0
 42 43  1  0  0  0
 42 66  1  0  0  0
 42112  1  0  0  0
 42113  1  0  0  0
 43 44  1  0  0  0
 44114  1  0  0  0
 45 46  2  0  0  0
 45115  1  0  0  0
 46116  1  0  0  0
 47117  1  0  0  0
 47118  1  0  0  0
 48 56  1  0  0  0
 48 65  1  0  0  0
 48119  1  0  0  0
 49 50  1  0  0  0
 49 53  1  0  0  0
 49 64  1  0  0  0
 49120  1  0  0  0
 50 51  1  0  0  0
 50121  1  0  0  0
 50122  1  0  0  0
 51 52  1  0  0  0
 51123  1  0  0  0
 51124  1  0  0  0
 52125  1  0  0  0
 52126  1  0  0  0
 53 54  1  0  0  0
 54 55  2  0  0  0
 54127  1  0  0  0
 55 57  1  0  0  0
 55128  1  0  0  0
 56 69  2  0  0  0
 57 58  2  0  0  0
 57129  1  0  0  0
 58130  1  0  0  0
 59 60  1  0  0  0
 59 61  1  0  0  0
 59 62  1  0  0  0
 60131  1  0  0  0
 60132  1  0  0  0
 60133  1  0  0  0
 61134  1  0  0  0
 61135  1  0  0  0
 61136  1  0  0  0
 62137  1  0  0  0
 62138  1  0  0  0
 62139  1  0  0  0
 63 65  1  0  0  0
 63140  1  0  0  0
 63141  1  0  0  0
 63142  1  0  0  0
 64143  1  0  0  0
 65144  1  0  0  0
 68 80  1  0  0  0
 71 73  2  0  0  0
 71 75  1  0  0  0
 71145  1  0  0  0
 72 74  1  0  0  0
 72 75  2  0  0  0
 72146  1  0  0  0
 73 76  1  0  0  0
 73147  1  0  0  0
 74 76  2  0  0  0
 74148  1  0  0  0
 75 81  1  0  0  0
 76 82  1  0  0  0
 77 79  1  0  0  0
 77 81  1  0  0  0
 77 84  2  0  0  0
 78 80  1  0  0  0
 78 83  1  0  0  0
 78 85  2  0  0  0
 79 83  1  0  0  0
 79149  1  0  0  0
 79150  1  0  0  0
 80151  1  0  0  0
 80152  1  0  0  0
 81153  1  0  0  0
 82154  1  0  0  0
 83155  1  0  0  0
M  ISO  4   1 100  68 101  80 101  82 100
M  END
> <chiral flag>
0

> <version>
0

> <s_m_source_file>
/data/baiqing/PycharmProjects/Reinvent-master-3.2/result/LINK_invent/BTK/process_docking_weight1_custom_sum_contain_oxygen_bond_distance_aromatic_linkinvent_7_9_3/rearranged_h_0010.sdf

> <i_m_source_file_index>
22

> <r_mmod_Potential_Energy-OPLS-2005>
-226.552444458008

> <r_mmod_Stretch_Energy-OPLS-2005>
34.3314971923828

> <r_mmod_Bend_Energy-OPLS-2005>
103.477088928223

> <r_mmod_Torsional_Energy-OPLS-2005>
219.495361328125

> <r_mmod_Improper_Torsional_Energy-OPLS-2005>
2.83688139915466

> <r_mmod_Van_der_Waal_Energy-OPLS-2005>
160.403427124023

> <r_mmod_Electrostatic_Energy-OPLS-2005>
-478.673553466797

> <r_mmod_Solvation_Energy-OPLS-2005>
-276.065338134766

> <b_mmod_Minimization_Converged-OPLS-2005>
0

> <r_mmod_RMS_Derivative-OPLS-2005>
0.330767750740051

$$$$
22
                    3D
 Structure written by MMmdl.
155163  0  0  1  0            999 V2000
  -30.5167  -14.9197   20.4436 C   0  0  0  0  0  0
  -30.4545  -12.5683   19.4970 C   0  0  0  0  0  0
  -29.5267  -12.5356   18.2584 C   0  0  0  0  0  0
  -28.0579  -12.3222   18.6734 C   0  0  0  0  0  0
  -27.6405  -13.2399   19.8517 C   0  0  2  0  0  0
  -28.6835  -13.2213   20.9908 C   0  0  0  0  0  0
  -25.2502  -13.8194   20.5670 C   0  0  0  0  0  0
  -24.1805  -13.0434   20.9188 C   0  0  0  0  0  0
  -24.6409  -11.6918   20.8746 C   0  0  0  0  0  0
  -23.9085  -10.4295   21.0411 C   0  0  0  0  0  0
  -24.3631   -9.4206   21.9188 C   0  0  0  0  0  0
  -23.6298   -8.2246   22.0757 C   0  0  0  0  0  0
  -22.4279   -8.0290   21.3549 C   0  0  0  0  0  0
  -21.9922   -9.0263   20.4650 C   0  0  0  0  0  0
  -22.7257  -10.2139   20.3060 C   0  0  0  0  0  0
  -21.6858   -6.0744   22.5277 C   0  0  0  0  0  0
  -21.4014   -6.5644   23.8211 C   0  0  0  0  0  0
  -21.3656   -5.6795   24.9171 C   0  0  0  0  0  0
  -21.6044   -4.3059   24.7220 C   0  0  0  0  0  0
  -21.8817   -3.8151   23.4342 C   0  0  0  0  0  0
  -21.9191   -4.6971   22.3399 C   0  0  0  0  0  0
  -22.7831  -13.5224   21.1851 C   0  0  0  0  0  0
  -22.1662   -4.2157   21.0978 F   0  0  0  0  0  0
  -21.5625   -3.4539   25.7730 F   0  0  0  0  0  0
  -29.9692  -13.6397   20.4105 N   0  0  0  0  0  0
  -26.2944  -12.9415   20.3299 N   0  0  0  0  0  0
  -25.9351  -11.6554   20.5773 N   0  0  0  0  0  0
  -22.0477  -12.8219   22.0415 N   0  0  0  0  0  0
  -25.4150  -15.1911   20.4049 N   0  0  0  0  0  0
  -31.6963  -15.0567   20.0993 O   0  0  0  0  0  0
  -21.6642   -6.8888   21.4244 O   0  0  0  0  0  0
  -22.3510  -14.5531   20.6704 O   0  0  0  0  0  0
  -24.6441  -31.8448   23.1894 C   0  0  0  0  0  0
  -25.9212  -32.4701   23.8284 C   0  0  1  0  0  0
  -27.2154  -27.1342   20.1478 C   0  0  0  0  0  0
  -25.5964  -33.8507   24.2204 N   0  0  0  0  0  0
  -23.4480  -30.4667   21.5347 C   0  0  2  0  0  0
  -24.8974  -28.8966   20.1117 C   0  0  0  0  0  0
  -22.7579  -29.4555   22.4849 C   0  0  0  0  0  0
  -18.0310  -28.1393   22.8480 C   0  0  0  0  0  0
  -24.1492  -36.7247   23.2643 C   0  0  0  0  0  0
  -26.0058  -30.7180   21.3899 C   0  0  0  0  0  0
  -26.0770  -29.3302   20.7295 C   0  0  0  0  0  0
  -27.2378  -28.4660   20.7310 C   0  0  0  0  0  0
  -26.0066  -26.8086   19.4897 C   0  0  0  0  0  0
  -24.8755  -27.6486   19.4770 C   0  0  0  0  0  0
  -23.6750  -29.7988   20.1544 C   0  0  0  0  0  0
  -25.4121  -36.3031   24.0324 C   0  0  1  0  0  0
  -20.5927  -28.3716   23.1231 C   0  0  2  0  0  0
  -20.6795  -26.9418   22.5395 C   0  0  0  0  0  0
  -19.5768  -26.6372   21.5211 C   0  0  0  0  0  0
  -18.1948  -26.7932   22.1622 C   0  0  0  0  0  0
  -19.1570  -28.8869   23.2849 C   0  0  0  0  0  0
  -18.9486  -30.1467   23.8872 C   0  0  0  0  0  0
  -17.6482  -30.6591   24.0556 C   0  0  0  0  0  0
  -25.9070  -34.9409   23.5067 C   0  0  0  0  0  0
  -16.5371  -29.9078   23.6340 C   0  0  0  0  0  0
  -16.7295  -28.6497   23.0361 C   0  0  0  0  0  0
  -26.4536  -31.6565   25.0718 C   0  0  0  0  0  0
  -25.3728  -31.3765   26.1417 C   0  0  0  0  0  0
  -27.0400  -30.2959   24.6293 C   0  0  0  0  0  0
  -27.6068  -32.4334   25.7499 C   0  0  0  0  0  0
  -27.5576  -37.1777   24.8472 C   0  0  0  0  0  0
  -21.4265  -29.3055   22.3605 N   0  0  0  0  0  0
  -26.4283  -37.3743   23.9418 N   0  0  0  0  0  0
  -24.7189  -31.0303   22.0932 N   0  0  0  0  0  0
  -23.4221  -28.8084   23.2990 O   0  0  0  0  0  0
  -28.2540  -26.1303   20.2170 O   0  0  0  0  0  0
  -26.5643  -34.8909   22.4637 O   0  0  0  0  0  0
  -23.5558  -32.1320   23.7109 O   0  0  0  0  0  0
  -30.1237  -19.9456   19.9522 C   0  0  0  0  0  0
  -30.4170  -18.5093   20.0099 C   0  0  0  0  0  0
  -28.1279  -19.5725   21.1499 C   0  0  0  0  0  0
  -28.9450  -20.5622   20.5093 C   0  0  0  0  0  0
  -29.5674  -17.5315   20.6439 C   0  0  0  0  0  0
  -28.4194  -18.1482   21.2387 C   0  0  0  0  0  0
  -28.9107  -23.3368   20.2764 C   0  0  0  0  0  0
  -26.1645  -16.6276   23.7148 C   0  0  0  0  0  0
  -27.8736  -24.6214   20.1044 C   0  0  0  0  0  0
  -26.6108  -17.7681   22.7957 C   0  0  0  0  0  0
  -28.4293  -22.0083   20.4047 N   0  0  0  0  0  0
  -29.6600  -16.0043   20.7376 N   0  0  0  0  0  0
  -30.1244  -23.5577   20.2724 O   0  0  0  0  0  0
  -27.5920  -17.2607   21.9003 O   0  0  0  0  0  0
  -31.4856  -12.7416   19.1852 H   0  0  0  0  0  0
  -30.4558  -11.6037   20.0066 H   0  0  0  0  0  0
  -29.8401  -11.7475   17.5726 H   0  0  0  0  0  0
  -29.6177  -13.4738   17.7086 H   0  0  0  0  0  0
  -27.9480  -11.2771   18.9657 H   0  0  0  0  0  0
  -27.3948  -12.4703   17.8204 H   0  0  0  0  0  0
  -27.6170  -14.2514   19.4457 H   0  0  0  0  0  0
  -28.7612  -12.2269   21.4328 H   0  0  0  0  0  0
  -28.3824  -13.8902   21.7989 H   0  0  0  0  0  0
  -25.2770   -9.5683   22.4765 H   0  0  0  0  0  0
  -24.0001   -7.4641   22.7479 H   0  0  0  0  0  0
  -21.0848   -8.8787   19.8957 H   0  0  0  0  0  0
  -22.3713  -10.9683   19.6170 H   0  0  0  0  0  0
  -21.2009   -7.6150   23.9718 H   0  0  0  0  0  0
  -21.1478   -6.0522   25.9075 H   0  0  0  0  0  0
  -22.0597   -2.7613   23.2834 H   0  0  0  0  0  0
  -22.4094  -11.9878   22.4800 H   0  0  0  0  0  0
  -21.1100  -13.1255   22.2626 H   0  0  0  0  0  0
  -24.6483  -15.8411   20.5322 H   0  0  0  0  0  0
  -26.2803  -15.6482   20.1493 H   0  0  0  0  0  0
  -26.7268  -32.5308   23.1006 H   0  0  0  0  0  0
  -25.0140  -33.9629   25.0371 H   0  0  0  0  0  0
  -22.7512  -31.2926   21.3802 H   0  0  0  0  0  0
  -23.3774  -35.9562   23.3286 H   0  0  0  0  0  0
  -24.3577  -36.8888   22.2062 H   0  0  0  0  0  0
  -23.7228  -37.6431   23.6681 H   0  0  0  0  0  0
  -26.1636  -31.4742   20.6194 H   0  0  0  0  0  0
  -26.8762  -30.7660   22.0326 H   0  0  0  0  0  0
  -28.1343  -28.7922   21.2394 H   0  0  0  0  0  0
  -25.8870  -25.8613   18.9890 H   0  0  0  0  0  0
  -23.9750  -27.3102   18.9834 H   0  0  0  0  0  0
  -23.8141  -30.5738   19.4001 H   0  0  0  0  0  0
  -22.7907  -29.2408   19.8399 H   0  0  0  0  0  0
  -25.1307  -36.1858   25.0816 H   0  0  0  0  0  0
  -21.0023  -28.3299   24.1350 H   0  0  0  0  0  0
  -20.5694  -26.2330   23.3611 H   0  0  0  0  0  0
  -21.6661  -26.7421   22.1185 H   0  0  0  0  0  0
  -19.6930  -25.6275   21.1250 H   0  0  0  0  0  0
  -19.6704  -27.3176   20.6737 H   0  0  0  0  0  0
  -17.4216  -26.6683   21.4025 H   0  0  0  0  0  0
  -18.0344  -26.0077   22.9020 H   0  0  0  0  0  0
  -19.7968  -30.7291   24.2227 H   0  0  0  0  0  0
  -17.5041  -31.6275   24.5154 H   0  0  0  0  0  0
  -15.5376  -30.2975   23.7682 H   0  0  0  0  0  0
  -15.8696  -28.0805   22.7096 H   0  0  0  0  0  0
  -24.5900  -30.7116   25.7740 H   0  0  0  0  0  0
  -24.8934  -32.2960   26.4789 H   0  0  0  0  0  0
  -25.8015  -30.8967   27.0227 H   0  0  0  0  0  0
  -26.3014  -29.6679   24.1293 H   0  0  0  0  0  0
  -27.4016  -29.7248   25.4855 H   0  0  0  0  0  0
  -27.8924  -30.4200   23.9611 H   0  0  0  0  0  0
  -27.2668  -33.3675   26.1982 H   0  0  0  0  0  0
  -28.3930  -32.6820   25.0357 H   0  0  0  0  0  0
  -28.0676  -31.8517   26.5492 H   0  0  0  0  0  0
  -28.2578  -38.0087   24.7515 H   0  0  0  0  0  0
  -28.1083  -36.2612   24.6297 H   0  0  0  0  0  0
  -27.2293  -37.1420   25.8874 H   0  0  0  0  0  0
  -20.9463  -29.8780   21.6796 H   0  0  0  0  0  0
  -26.0153  -38.2809   24.1426 H   0  0  0  0  0  0
  -30.8186  -20.5799   19.4202 H   0  0  0  0  0  0
  -31.3172  -18.1589   19.5247 H   0  0  0  0  0  0
  -27.2096  -19.9366   21.5844 H   0  0  0  0  0  0
  -25.3841  -16.9624   24.3989 H   0  0  0  0  0  0
  -26.9971  -16.2616   24.3160 H   0  0  0  0  0  0
  -25.7701  -15.7860   23.1462 H   0  0  0  0  0  0
  -27.0477  -24.4445   20.7942 H   0  0  0  0  0  0
  -27.4709  -24.4723   19.1041 H   0  0  0  0  0  0
  -27.0115  -18.5756   23.4107 H   0  0  0  0  0  0
  -25.7593  -18.1552   22.2347 H   0  0  0  0  0  0
  -27.4220  -22.0417   20.4845 H   0  0  0  0  0  0
  -28.7897  -15.6387   21.0946 H   0  0  0  0  0  0
  1 25  1  0  0  0
  1 30  2  0  0  0
  1 82  1  0  0  0
  2  3  1  0  0  0
  2 25  1  0  0  0
  2 85  1  0  0  0
  2 86  1  0  0  0
  3  4  1  0  0  0
  3 87  1  0  0  0
  3 88  1  0  0  0
  4  5  1  0  0  0
  4 89  1  0  0  0
  4 90  1  0  0  0
  5  6  1  0  0  0
  5 26  1  0  0  0
  5 91  1  0  0  0
  6 25  1  0  0  0
  6 92  1  0  0  0
  6 93  1  0  0  0
  7  8  2  0  0  0
  7 26  1  0  0  0
  7 29  1  0  0  0
  8  9  1  0  0  0
  8 22  1  0  0  0
  9 10  1  0  0  0
  9 27  2  0  0  0
 10 11  2  0  0  0
 10 15  1  0  0  0
 11 12  1  0  0  0
 11 94  1  0  0  0
 12 13  2  0  0  0
 12 95  1  0  0  0
 13 14  1  0  0  0
 13 31  1  0  0  0
 14 15  2  0  0  0
 14 96  1  0  0  0
 15 97  1  0  0  0
 16 17  2  0  0  0
 16 21  1  0  0  0
 16 31  1  0  0  0
 17 18  1  0  0  0
 17 98  1  0  0  0
 18 19  2  0  0  0
 18 99  1  0  0  0
 19 20  1  0  0  0
 19 24  1  0  0  0
 20 21  2  0  0  0
 20100  1  0  0  0
 21 23  1  0  0  0
 22 28  1  0  0  0
 22 32  2  0  0  0
 26 27  1  0  0  0
 28101  1  0  0  0
 28102  1  0  0  0
 29103  1  0  0  0
 29104  1  0  0  0
 33 34  1  0  0  0
 33 66  1  0  0  0
 33 70  2  0  0  0
 34 36  1  0  0  0
 34 59  1  0  0  0
 34105  1  0  0  0
 35 44  2  0  0  0
 35 45  1  0  0  0
 35 68  1  0  0  0
 36 56  1  0  0  0
 36106  1  0  0  0
 37 39  1  0  0  0
 37 47  1  0  0  0
 37 66  1  0  0  0
 37107  1  0  0  0
 38 43  2  0  0  0
 38 46  1  0  0  0
 38 47  1  0  0  0
 39 64  1  0  0  0
 39 67  2  0  0  0
 40 52  1  0  0  0
 40 53  2  0  0  0
 40 58  1  0  0  0
 41108  1  0  0  0
 41109  1  0  0  0
 41110  1  0  0  0
 41 48  1  0  0  0
 42 43  1  0  0  0
 42 66  1  0  0  0
 42111  1  0  0  0
 42112  1  0  0  0
 43 44  1  0  0  0
 44113  1  0  0  0
 45 46  2  0  0  0
 45114  1  0  0  0
 46115  1  0  0  0
 47116  1  0  0  0
 47117  1  0  0  0
 48 56  1  0  0  0
 48 65  1  0  0  0
 48118  1  0  0  0
 49 50  1  0  0  0
 49 53  1  0  0  0
 49 64  1  0  0  0
 49119  1  0  0  0
 50 51  1  0  0  0
 50120  1  0  0  0
 50121  1  0  0  0
 51 52  1  0  0  0
 51122  1  0  0  0
 51123  1  0  0  0
 52124  1  0  0  0
 52125  1  0  0  0
 53 54  1  0  0  0
 54 55  2  0  0  0
 54126  1  0  0  0
 55 57  1  0  0  0
 55127  1  0  0  0
 56 69  2  0  0  0
 57 58  2  0  0  0
 57128  1  0  0  0
 58129  1  0  0  0
 59 60  1  0  0  0
 59 61  1  0  0  0
 59 62  1  0  0  0
 60130  1  0  0  0
 60131  1  0  0  0
 60132  1  0  0  0
 61133  1  0  0  0
 61134  1  0  0  0
 61135  1  0  0  0
 62136  1  0  0  0
 62137  1  0  0  0
 62138  1  0  0  0
 63 65  1  0  0  0
 63139  1  0  0  0
 63140  1  0  0  0
 63141  1  0  0  0
 64142  1  0  0  0
 65143  1  0  0  0
 68 79  1  0  0  0
 71 72  2  0  0  0
 71 74  1  0  0  0
 71144  1  0  0  0
 72 75  1  0  0  0
 72145  1  0  0  0
 73 74  2  0  0  0
 73 76  1  0  0  0
 73146  1  0  0  0
 74 81  1  0  0  0
 75 76  2  0  0  0
 75 82  1  0  0  0
 76 84  1  0  0  0
 77 79  1  0  0  0
 77 81  1  0  0  0
 77 83  2  0  0  0
 78 80  1  0  0  0
 78147  1  0  0  0
 78148  1  0  0  0
 78149  1  0  0  0
 79150  1  0  0  0
 79151  1  0  0  0
 80 84  1  0  0  0
 80152  1  0  0  0
 80153  1  0  0  0
 81154  1  0  0  0
 82155  1  0  0  0
M  ISO  4   1 100  68 101  79 101  82 100
M  END
> <chiral flag>
0

> <version>
0

> <s_m_source_file>
/data/baiqing/PycharmProjects/Reinvent-master-3.2/result/LINK_invent/BTK/process_docking_weight1_custom_sum_contain_oxygen_bond_distance_aromatic_linkinvent_7_9_3/rearranged_h_0010.sdf

> <i_m_source_file_index>
23

> <r_mmod_Potential_Energy-OPLS-2005>
391.687438964844

> <r_mmod_Stretch_Energy-OPLS-2005>
224.541213989258

> <r_mmod_Bend_Energy-OPLS-2005>
287.023162841797

> <r_mmod_Torsional_Energy-OPLS-2005>
228.551940917969

> <r_mmod_Improper_Torsional_Energy-OPLS-2005>
3.51475477218628

> <r_mmod_Van_der_Waal_Energy-OPLS-2005>
130.241592407227

> <r_mmod_Electrostatic_Energy-OPLS-2005>
-422.3271484375

> <r_mmod_Solvation_Energy-OPLS-2005>
-245.056076049805

> <b_mmod_Minimization_Converged-OPLS-2005>
0

> <r_mmod_RMS_Derivative-OPLS-2005>
1.20860064029694

$$$$
23
                    3D
 Structure written by MMmdl.
151159  0  0  1  0            999 V2000
  -30.6313  -14.6226   20.5119 C   0  0  0  0  0  0
  -30.4386  -12.3830   19.4521 C   0  0  0  0  0  0
  -29.5087  -12.5116   18.2247 C   0  0  0  0  0  0
  -28.0304  -12.3539   18.6344 C   0  0  0  0  0  0
  -27.6566  -13.2169   19.8689 C   0  0  2  0  0  0
  -28.7009  -13.0563   20.9975 C   0  0  0  0  0  0
  -25.2549  -13.8154   20.5649 C   0  0  0  0  0  0
  -24.1822  -13.0422   20.9164 C   0  0  0  0  0  0
  -24.6401  -11.6898   20.8731 C   0  0  0  0  0  0
  -23.9068  -10.4282   21.0403 C   0  0  0  0  0  0
  -24.3618   -9.4202   21.9185 C   0  0  0  0  0  0
  -23.6291   -8.2239   22.0754 C   0  0  0  0  0  0
  -22.4273   -8.0278   21.3545 C   0  0  0  0  0  0
  -21.9909   -9.0254   20.4650 C   0  0  0  0  0  0
  -22.7238  -10.2130   20.3057 C   0  0  0  0  0  0
  -21.6852   -6.0736   22.5280 C   0  0  0  0  0  0
  -21.4013   -6.5639   23.8214 C   0  0  0  0  0  0
  -21.3659   -5.6790   24.9176 C   0  0  0  0  0  0
  -21.6045   -4.3053   24.7224 C   0  0  0  0  0  0
  -21.8819   -3.8145   23.4346 C   0  0  0  0  0  0
  -21.9192   -4.6964   22.3404 C   0  0  0  0  0  0
  -22.7847  -13.5221   21.1837 C   0  0  0  0  0  0
  -22.1662   -4.2151   21.0982 F   0  0  0  0  0  0
  -21.5628   -3.4536   25.7737 F   0  0  0  0  0  0
  -30.0203  -13.3976   20.4397 N   0  0  0  0  0  0
  -26.3006  -12.9352   20.3343 N   0  0  0  0  0  0
  -25.9336  -11.6502   20.5764 N   0  0  0  0  0  0
  -22.0492  -12.8222   22.0404 N   0  0  0  0  0  0
  -25.4217  -15.1864   20.4031 N   0  0  0  0  0  0
  -31.7809  -14.7923   20.0954 O   0  0  0  0  0  0
  -21.6637   -6.8877   21.4242 O   0  0  0  0  0  0
  -22.3527  -14.5531   20.6692 O   0  0  0  0  0  0
  -24.6260  -31.8611   23.2035 C   0  0  0  0  0  0
  -25.9108  -32.4783   23.8362 C   0  0  1  0  0  0
  -27.2233  -27.3258   20.1123 C   0  0  0  0  0  0
  -25.5926  -33.8583   24.2291 N   0  0  0  0  0  0
  -23.4189  -30.4862   21.5467 C   0  0  2  0  0  0
  -24.8643  -28.9451   20.1109 C   0  0  0  0  0  0
  -22.7475  -29.4632   22.4941 C   0  0  0  0  0  0
  -18.0288  -28.1386   22.8490 C   0  0  0  0  0  0
  -24.1489  -36.7296   23.2637 C   0  0  0  0  0  0
  -25.9602  -30.7947   21.3733 C   0  0  0  0  0  0
  -26.0345  -29.4230   20.7143 C   0  0  0  0  0  0
  -27.2174  -28.6261   20.7043 C   0  0  0  0  0  0
  -26.0272  -26.9017   19.4851 C   0  0  0  0  0  0
  -24.8628  -27.6895   19.4876 C   0  0  0  0  0  0
  -23.6324  -29.8242   20.1612 C   0  0  0  0  0  0
  -25.4111  -36.3087   24.0333 C   0  0  1  0  0  0
  -20.5888  -28.3688   23.1291 C   0  0  2  0  0  0
  -20.6777  -26.9413   22.5412 C   0  0  0  0  0  0
  -19.5750  -26.6390   21.5216 C   0  0  0  0  0  0
  -18.1933  -26.7928   22.1631 C   0  0  0  0  0  0
  -19.1540  -28.8854   23.2886 C   0  0  0  0  0  0
  -18.9459  -30.1456   23.8902 C   0  0  0  0  0  0
  -17.6459  -30.6588   24.0565 C   0  0  0  0  0  0
  -25.9048  -34.9453   23.5112 C   0  0  0  0  0  0
  -16.5352  -29.9087   23.6329 C   0  0  0  0  0  0
  -16.7276  -28.6505   23.0353 C   0  0  0  0  0  0
  -26.4488  -31.6586   25.0727 C   0  0  0  0  0  0
  -25.3720  -31.3729   26.1455 C   0  0  0  0  0  0
  -27.0323  -30.3010   24.6169 C   0  0  0  0  0  0
  -27.6059  -32.4310   25.7493 C   0  0  0  0  0  0
  -27.5581  -37.1803   24.8464 C   0  0  0  0  0  0
  -21.4189  -29.3044   22.3685 N   0  0  0  0  0  0
  -26.4290  -37.3780   23.9412 N   0  0  0  0  0  0
  -24.6875  -31.0631   22.0982 N   0  0  0  0  0  0
  -23.4202  -28.8165   23.3014 O   0  0  0  0  0  0
  -28.3410  -26.4760   20.1631 O   0  0  0  0  0  0
  -26.5617  -34.8918   22.4678 O   0  0  0  0  0  0
  -23.5424  -32.1405   23.7367 O   0  0  0  0  0  0
  -30.8366  -19.2421   19.9238 C   0  0  0  0  0  0
  -30.8887  -17.8216   20.0553 C   0  0  0  0  0  0
  -28.8058  -19.3084   21.2082 C   0  0  0  0  0  0
  -29.7932  -20.0294   20.4859 C   0  0  0  0  0  0
  -29.8978  -17.1045   20.7770 C   0  0  0  0  0  0
  -28.8599  -17.8907   21.3527 C   0  0  0  0  0  0
  -28.8626  -22.4494   20.4877 C   0  0  0  0  0  0
  -29.2512  -23.9806   20.3980 C   0  0  0  0  0  0
  -28.0953  -25.0178   20.0599 C   0  0  0  0  0  0
  -29.8321  -21.4897   20.3508 N   0  0  0  0  0  0
  -29.8450  -15.6520   20.9462 N   0  0  0  0  0  0
  -27.6820  -22.1486   20.6785 O   0  0  0  0  0  0
  -27.6207  -17.1102   22.2710 Cl  0  0  0  0  0  0
  -31.4808  -12.5036   19.1513 H   0  0  0  0  0  0
  -30.3675  -11.3838   19.8849 H   0  0  0  0  0  0
  -29.7698  -11.7646   17.4738 H   0  0  0  0  0  0
  -29.6561  -13.4837   17.7514 H   0  0  0  0  0  0
  -27.8603  -11.2997   18.8563 H   0  0  0  0  0  0
  -27.3786  -12.5959   17.7941 H   0  0  0  0  0  0
  -27.6796  -14.2559   19.5390 H   0  0  0  0  0  0
  -28.7067  -12.0300   21.3682 H   0  0  0  0  0  0
  -28.4452  -13.6767   21.8576 H   0  0  0  0  0  0
  -25.2765   -9.5678   22.4757 H   0  0  0  0  0  0
  -24.0003   -7.4630   22.7471 H   0  0  0  0  0  0
  -21.0841   -8.8774   19.8956 H   0  0  0  0  0  0
  -22.3700  -10.9671   19.6165 H   0  0  0  0  0  0
  -21.2005   -7.6145   23.9718 H   0  0  0  0  0  0
  -21.1484   -6.0520   25.9080 H   0  0  0  0  0  0
  -22.0598   -2.7607   23.2844 H   0  0  0  0  0  0
  -22.4105  -11.9888   22.4801 H   0  0  0  0  0  0
  -21.1116  -13.1260   22.2617 H   0  0  0  0  0  0
  -24.6618  -15.8412   20.5485 H   0  0  0  0  0  0
  -26.2901  -15.6392   20.1509 H   0  0  0  0  0  0
  -26.7178  -32.5455   23.1115 H   0  0  0  0  0  0
  -25.0060  -33.9727   25.0426 H   0  0  0  0  0  0
  -22.7127  -31.3071   21.4061 H   0  0  0  0  0  0
  -23.3751  -35.9629   23.3296 H   0  0  0  0  0  0
  -24.3583  -36.8916   22.2052 H   0  0  0  0  0  0
  -23.7240  -37.6499   23.6656 H   0  0  0  0  0  0
  -26.0907  -31.5590   20.6058 H   0  0  0  0  0  0
  -26.8415  -30.8432   22.0013 H   0  0  0  0  0  0
  -28.1153  -28.9885   21.1852 H   0  0  0  0  0  0
  -25.9571  -25.9449   18.9911 H   0  0  0  0  0  0
  -23.9667  -27.3183   19.0095 H   0  0  0  0  0  0
  -23.7502  -30.6022   19.4056 H   0  0  0  0  0  0
  -22.7520  -29.2542   19.8592 H   0  0  0  0  0  0
  -25.1286  -36.1943   25.0827 H   0  0  0  0  0  0
  -20.9987  -28.3258   24.1410 H   0  0  0  0  0  0
  -20.5690  -26.2292   23.3607 H   0  0  0  0  0  0
  -21.6644  -26.7451   22.1200 H   0  0  0  0  0  0
  -19.6910  -25.6303   21.1244 H   0  0  0  0  0  0
  -19.6686  -27.3202   20.6747 H   0  0  0  0  0  0
  -17.4201  -26.6680   21.4034 H   0  0  0  0  0  0
  -18.0331  -26.0070   22.9029 H   0  0  0  0  0  0
  -19.7932  -30.7273   24.2276 H   0  0  0  0  0  0
  -17.5011  -31.6267   24.5166 H   0  0  0  0  0  0
  -15.5352  -30.2991   23.7645 H   0  0  0  0  0  0
  -15.8677  -28.0825   22.7066 H   0  0  0  0  0  0
  -24.5891  -30.7081   25.7784 H   0  0  0  0  0  0
  -24.8911  -32.2897   26.4877 H   0  0  0  0  0  0
  -25.8040  -30.8907   27.0232 H   0  0  0  0  0  0
  -26.2891  -29.6770   24.1189 H   0  0  0  0  0  0
  -27.4018  -29.7254   25.4666 H   0  0  0  0  0  0
  -27.8764  -30.4296   23.9390 H   0  0  0  0  0  0
  -27.2688  -33.3618   26.2066 H   0  0  0  0  0  0
  -28.3872  -32.6854   25.0318 H   0  0  0  0  0  0
  -28.0721  -31.8428   26.5407 H   0  0  0  0  0  0
  -28.2598  -38.0101   24.7515 H   0  0  0  0  0  0
  -28.1079  -36.2633   24.6284 H   0  0  0  0  0  0
  -27.2301  -37.1446   25.8867 H   0  0  0  0  0  0
  -20.9364  -29.8766   21.6898 H   0  0  0  0  0  0
  -26.0173  -38.2858   24.1408 H   0  0  0  0  0  0
  -31.6256  -19.7298   19.3685 H   0  0  0  0  0  0
  -31.7068  -17.2937   19.5874 H   0  0  0  0  0  0
  -27.9942  -19.8369   21.6850 H   0  0  0  0  0  0
  -30.0543  -24.0946   19.6700 H   0  0  0  0  0  0
  -29.6798  -24.2487   21.3636 H   0  0  0  0  0  0
  -27.2446  -24.7807   20.7017 H   0  0  0  0  0  0
  -27.7807  -24.8001   19.0389 H   0  0  0  0  0  0
  -30.7383  -21.8640   20.1011 H   0  0  0  0  0  0
  -28.9829  -15.3361   21.3643 H   0  0  0  0  0  0
  1 25  1  0  0  0
  1 30  2  0  0  0
  1 81  1  0  0  0
  2  3  1  0  0  0
  2 25  1  0  0  0
  2 84  1  0  0  0
  2 85  1  0  0  0
  3  4  1  0  0  0
  3 86  1  0  0  0
  3 87  1  0  0  0
  4  5  1  0  0  0
  4 88  1  0  0  0
  4 89  1  0  0  0
  5  6  1  0  0  0
  5 26  1  0  0  0
  5 90  1  0  0  0
  6 25  1  0  0  0
  6 91  1  0  0  0
  6 92  1  0  0  0
  7  8  2  0  0  0
  7 26  1  0  0  0
  7 29  1  0  0  0
  8  9  1  0  0  0
  8 22  1  0  0  0
  9 10  1  0  0  0
  9 27  2  0  0  0
 10 11  2  0  0  0
 10 15  1  0  0  0
 11 12  1  0  0  0
 11 93  1  0  0  0
 12 13  2  0  0  0
 12 94  1  0  0  0
 13 14  1  0  0  0
 13 31  1  0  0  0
 14 15  2  0  0  0
 14 95  1  0  0  0
 15 96  1  0  0  0
 16 17  2  0  0  0
 16 21  1  0  0  0
 16 31  1  0  0  0
 17 18  1  0  0  0
 17 97  1  0  0  0
 18 19  2  0  0  0
 18 98  1  0  0  0
 19 20  1  0  0  0
 19 24  1  0  0  0
 20 21  2  0  0  0
 20 99  1  0  0  0
 21 23  1  0  0  0
 22 28  1  0  0  0
 22 32  2  0  0  0
 26 27  1  0  0  0
 28100  1  0  0  0
 28101  1  0  0  0
 29102  1  0  0  0
 29103  1  0  0  0
 33 34  1  0  0  0
 33 66  1  0  0  0
 33 70  2  0  0  0
 34 36  1  0  0  0
 34 59  1  0  0  0
 34104  1  0  0  0
 35 44  2  0  0  0
 35 45  1  0  0  0
 35 68  1  0  0  0
 36 56  1  0  0  0
 36105  1  0  0  0
 37 39  1  0  0  0
 37 47  1  0  0  0
 37 66  1  0  0  0
 37106  1  0  0  0
 38 43  2  0  0  0
 38 46  1  0  0  0
 38 47  1  0  0  0
 39 64  1  0  0  0
 39 67  2  0  0  0
 40 52  1  0  0  0
 40 53  2  0  0  0
 40 58  1  0  0  0
 41107  1  0  0  0
 41108  1  0  0  0
 41109  1  0  0  0
 41 48  1  0  0  0
 42 43  1  0  0  0
 42 66  1  0  0  0
 42110  1  0  0  0
 42111  1  0  0  0
 43 44  1  0  0  0
 44112  1  0  0  0
 45 46  2  0  0  0
 45113  1  0  0  0
 46114  1  0  0  0
 47115  1  0  0  0
 47116  1  0  0  0
 48 56  1  0  0  0
 48 65  1  0  0  0
 48117  1  0  0  0
 49 50  1  0  0  0
 49 53  1  0  0  0
 49 64  1  0  0  0
 49118  1  0  0  0
 50 51  1  0  0  0
 50119  1  0  0  0
 50120  1  0  0  0
 51 52  1  0  0  0
 51121  1  0  0  0
 51122  1  0  0  0
 52123  1  0  0  0
 52124  1  0  0  0
 53 54  1  0  0  0
 54 55  2  0  0  0
 54125  1  0  0  0
 55 57  1  0  0  0
 55126  1  0  0  0
 56 69  2  0  0  0
 57 58  2  0  0  0
 57127  1  0  0  0
 58128  1  0  0  0
 59 60  1  0  0  0
 59 61  1  0  0  0
 59 62  1  0  0  0
 60129  1  0  0  0
 60130  1  0  0  0
 60131  1  0  0  0
 61132  1  0  0  0
 61133  1  0  0  0
 61134  1  0  0  0
 62135  1  0  0  0
 62136  1  0  0  0
 62137  1  0  0  0
 63 65  1  0  0  0
 63138  1  0  0  0
 63139  1  0  0  0
 63140  1  0  0  0
 64141  1  0  0  0
 65142  1  0  0  0
 68 79  1  0  0  0
 71 72  2  0  0  0
 71 74  1  0  0  0
 71143  1  0  0  0
 72 75  1  0  0  0
 72144  1  0  0  0
 73 74  2  0  0  0
 73 76  1  0  0  0
 73145  1  0  0  0
 74 80  1  0  0  0
 75 76  2  0  0  0
 75 81  1  0  0  0
 76 83  1  0  0  0
 77 78  1  0  0  0
 77 80  1  0  0  0
 77 82  2  0  0  0
 78 79  1  0  0  0
 78146  1  0  0  0
 78147  1  0  0  0
 79148  1  0  0  0
 79149  1  0  0  0
 80150  1  0  0  0
 81151  1  0  0  0
M  ISO  4   1 100  68 101  79 101  81 100
M  END
> <chiral flag>
0

> <version>
0

> <s_m_source_file>
/data/baiqing/PycharmProjects/Reinvent-master-3.2/result/LINK_invent/BTK/process_docking_weight1_custom_sum_contain_oxygen_bond_distance_aromatic_linkinvent_7_9_3/rearranged_h_0010.sdf

> <i_m_source_file_index>
24

> <r_mmod_Potential_Energy-OPLS-2005>
-39.8276100158691

> <r_mmod_Stretch_Energy-OPLS-2005>
75.8334045410156

> <r_mmod_Bend_Energy-OPLS-2005>
137.30485534668

> <r_mmod_Torsional_Energy-OPLS-2005>
219.300308227539

> <r_mmod_Improper_Torsional_Energy-OPLS-2005>
3.37479662895203

> <r_mmod_Van_der_Waal_Energy-OPLS-2005>
146.25749206543

> <r_mmod_Electrostatic_Energy-OPLS-2005>
-440.887420654297

> <r_mmod_Solvation_Energy-OPLS-2005>
-225.128921508789

> <b_mmod_Minimization_Converged-OPLS-2005>
0

> <r_mmod_RMS_Derivative-OPLS-2005>
0.618308126926422

$$$$
24
                    3D
 Structure written by MMmdl.
160168  0  0  1  0            999 V2000
  -30.5488  -15.0005   20.3956 C   0  0  0  0  0  0
  -30.4510  -12.6203   19.4927 C   0  0  0  0  0  0
  -29.5256  -12.5588   18.2557 C   0  0  0  0  0  0
  -28.0576  -12.3332   18.6703 C   0  0  0  0  0  0
  -27.6283  -13.2418   19.8523 C   0  0  2  0  0  0
  -28.6924  -13.2730   20.9762 C   0  0  0  0  0  0
  -25.2165  -13.7644   20.5689 C   0  0  0  0  0  0
  -24.1603  -12.9959   20.9293 C   0  0  0  0  0  0
  -24.6398  -11.6559   20.8818 C   0  0  0  0  0  0
  -23.9107  -10.4021   21.0441 C   0  0  0  0  0  0
  -24.3632   -9.3966   21.9235 C   0  0  0  0  0  0
  -23.6252   -8.2053   22.0775 C   0  0  0  0  0  0
  -22.4227   -8.0181   21.3550 C   0  0  0  0  0  0
  -21.9903   -9.0149   20.4639 C   0  0  0  0  0  0
  -22.7292  -10.1974   20.3054 C   0  0  0  0  0  0
  -21.6768   -6.0709   22.5293 C   0  0  0  0  0  0
  -21.3965   -6.5619   23.8231 C   0  0  0  0  0  0
  -21.3653   -5.6773   24.9194 C   0  0  0  0  0  0
  -21.6055   -4.3041   24.7236 C   0  0  0  0  0  0
  -21.8824   -3.8133   23.4358 C   0  0  0  0  0  0
  -21.9156   -4.6954   22.3407 C   0  0  0  0  0  0
  -22.7641  -13.4836   21.1916 C   0  0  0  0  0  0
  -22.1627   -4.2154   21.0980 F   0  0  0  0  0  0
  -21.5637   -3.4533   25.7756 F   0  0  0  0  0  0
  -29.9615  -13.7230   20.3719 N   0  0  0  0  0  0
  -26.2869  -12.9177   20.3366 N   0  0  0  0  0  0
  -25.9365  -11.6288   20.5814 N   0  0  0  0  0  0
  -22.0251  -12.7941   22.0511 N   0  0  0  0  0  0
  -25.3039  -15.1208   20.4004 N   0  0  0  0  0  0
  -31.7504  -15.0687   20.1188 O   0  0  0  0  0  0
  -21.6533   -6.8838   21.4255 O   0  0  0  0  0  0
  -22.3400  -14.5203   20.6788 O   0  0  0  0  0  0
  -24.6408  -31.8459   23.1890 C   0  0  0  0  0  0
  -25.9214  -32.4696   23.8274 C   0  0  1  0  0  0
  -27.2536  -27.1745   20.1247 C   0  0  0  0  0  0
  -25.5984  -33.8505   24.2198 N   0  0  0  0  0  0
  -23.4452  -30.4622   21.5325 C   0  0  2  0  0  0
  -24.9005  -28.8933   20.1097 C   0  0  0  0  0  0
  -22.7569  -29.4551   22.4871 C   0  0  0  0  0  0
  -18.0310  -28.1383   22.8464 C   0  0  0  0  0  0
  -24.1502  -36.7241   23.2636 C   0  0  0  0  0  0
  -25.9985  -30.7265   21.3872 C   0  0  0  0  0  0
  -26.0746  -29.3412   20.7269 C   0  0  0  0  0  0
  -27.2443  -28.4954   20.7252 C   0  0  0  0  0  0
  -26.0490  -26.8233   19.4679 C   0  0  0  0  0  0
  -24.8983  -27.6443   19.4704 C   0  0  0  0  0  0
  -23.6724  -29.7907   20.1528 C   0  0  0  0  0  0
  -25.4130  -36.3019   24.0311 C   0  0  1  0  0  0
  -20.5922  -28.3712   23.1233 C   0  0  2  0  0  0
  -20.6781  -26.9406   22.5424 C   0  0  0  0  0  0
  -19.5765  -26.6368   21.5216 C   0  0  0  0  0  0
  -18.1943  -26.7925   22.1607 C   0  0  0  0  0  0
  -19.1560  -28.8864   23.2842 C   0  0  0  0  0  0
  -18.9486  -30.1469   23.8861 C   0  0  0  0  0  0
  -17.6475  -30.6572   24.0557 C   0  0  0  0  0  0
  -25.9075  -34.9404   23.5060 C   0  0  0  0  0  0
  -16.5371  -29.9060   23.6327 C   0  0  0  0  0  0
  -16.7293  -28.6483   23.0339 C   0  0  0  0  0  0
  -26.4530  -31.6554   25.0722 C   0  0  0  0  0  0
  -25.3710  -31.3806   26.1422 C   0  0  0  0  0  0
  -27.0334  -30.2912   24.6328 C   0  0  0  0  0  0
  -27.6080  -32.4296   25.7480 C   0  0  0  0  0  0
  -27.5585  -37.1769   24.8451 C   0  0  0  0  0  0
  -21.4264  -29.3031   22.3598 N   0  0  0  0  0  0
  -26.4283  -37.3743   23.9414 N   0  0  0  0  0  0
  -24.7138  -31.0313   22.0920 N   0  0  0  0  0  0
  -23.4211  -28.8099   23.3027 O   0  0  0  0  0  0
  -28.3400  -26.2260   20.1982 O   0  0  0  0  0  0
  -26.5651  -34.8896   22.4637 O   0  0  0  0  0  0
  -23.5532  -32.1341   23.7113 O   0  0  0  0  0  0
  -30.7499  -20.0677   20.0104 C   0  0  0  0  0  0
  -30.8542  -18.6104   20.1681 C   0  0  0  0  0  0
  -28.4491  -19.9499   20.3882 C   0  0  0  0  0  0
  -28.5122  -18.5080   20.5133 C   0  0  0  0  0  0
  -29.5229  -20.8212   20.1242 C   0  0  0  0  0  0
  -29.7420  -17.7201   20.4147 C   0  0  0  0  0  0
  -29.1010  -23.5109   20.3753 C   0  0  0  0  0  0
  -25.9179  -18.7499   20.8190 C   0  0  0  0  0  0
  -27.1397  -16.8885   21.8408 C   0  0  0  0  0  0
  -26.9459  -17.2110   19.1934 C   0  0  0  0  0  0
  -28.1764  -24.7450   19.7820 C   0  0  0  0  0  0
  -27.1447  -17.8246   20.6048 C   0  0  0  0  0  0
  -29.2074  -22.2605   19.7215 N   0  0  0  0  0  0
  -29.7304  -16.1640   20.5403 N   0  0  0  0  0  0
  -29.7224  -23.7064   21.4243 O   0  0  0  0  0  0
  -31.4818  -12.7794   19.1739 H   0  0  0  0  0  0
  -30.4516  -11.6677   20.0251 H   0  0  0  0  0  0
  -29.8501  -11.7744   17.5718 H   0  0  0  0  0  0
  -29.6055  -13.4952   17.7019 H   0  0  0  0  0  0
  -27.9513  -11.2865   18.9556 H   0  0  0  0  0  0
  -27.4015  -12.4924   17.8146 H   0  0  0  0  0  0
  -27.5721  -14.2438   19.4376 H   0  0  0  0  0  0
  -28.8030  -12.2871   21.4308 H   0  0  0  0  0  0
  -28.3992  -13.9369   21.7880 H   0  0  0  0  0  0
  -25.2761   -9.5405   22.4838 H   0  0  0  0  0  0
  -23.9911   -7.4420   22.7496 H   0  0  0  0  0  0
  -21.0830   -8.8717   19.8941 H   0  0  0  0  0  0
  -22.3817  -10.9556   19.6169 H   0  0  0  0  0  0
  -21.1944   -7.6113   23.9754 H   0  0  0  0  0  0
  -21.1474   -6.0492   25.9106 H   0  0  0  0  0  0
  -22.0619   -2.7605   23.2852 H   0  0  0  0  0  0
  -22.3789  -11.9607   22.4955 H   0  0  0  0  0  0
  -21.0909  -13.1063   22.2722 H   0  0  0  0  0  0
  -24.4996  -15.7143   20.5662 H   0  0  0  0  0  0
  -26.1245  -15.6381   20.1178 H   0  0  0  0  0  0
  -26.7289  -32.5309   23.0992 H   0  0  0  0  0  0
  -25.0162  -33.9627   25.0368 H   0  0  0  0  0  0
  -22.7467  -31.2881   21.3799 H   0  0  0  0  0  0
  -23.3768  -35.9563   23.3262 H   0  0  0  0  0  0
  -24.3598  -36.8908   22.2054 H   0  0  0  0  0  0
  -23.7243  -37.6427   23.6693 H   0  0  0  0  0  0
  -26.1569  -31.4885   20.6216 H   0  0  0  0  0  0
  -26.8648  -30.7720   22.0356 H   0  0  0  0  0  0
  -28.1367  -28.8347   21.2319 H   0  0  0  0  0  0
  -25.9619  -25.8782   18.9526 H   0  0  0  0  0  0
  -24.0021  -27.2987   18.9730 H   0  0  0  0  0  0
  -23.8045  -30.5646   19.3957 H   0  0  0  0  0  0
  -22.7875  -29.2306   19.8474 H   0  0  0  0  0  0
  -25.1306  -36.1837   25.0797 H   0  0  0  0  0  0
  -21.0029  -28.3315   24.1347 H   0  0  0  0  0  0
  -20.5635  -26.2334   23.3652 H   0  0  0  0  0  0
  -21.6657  -26.7376   22.1258 H   0  0  0  0  0  0
  -19.6917  -25.6274   21.1262 H   0  0  0  0  0  0
  -19.6697  -27.3158   20.6728 H   0  0  0  0  0  0
  -17.4227  -26.6703   21.3999 H   0  0  0  0  0  0
  -18.0293  -26.0063   22.8989 H   0  0  0  0  0  0
  -19.7972  -30.7305   24.2199 H   0  0  0  0  0  0
  -17.5029  -31.6250   24.5175 H   0  0  0  0  0  0
  -15.5366  -30.2943   23.7665 H   0  0  0  0  0  0
  -15.8703  -28.0791   22.7042 H   0  0  0  0  0  0
  -24.5941  -30.7044   25.7822 H   0  0  0  0  0  0
  -24.8816  -32.3003   26.4642 H   0  0  0  0  0  0
  -25.8004  -30.9191   27.0322 H   0  0  0  0  0  0
  -26.2938  -29.6660   24.1303 H   0  0  0  0  0  0
  -27.3854  -29.7188   25.4921 H   0  0  0  0  0  0
  -27.8902  -30.4056   23.9680 H   0  0  0  0  0  0
  -27.2706  -33.3630   26.1976 H   0  0  0  0  0  0
  -28.3922  -32.6785   25.0327 H   0  0  0  0  0  0
  -28.0700  -31.8475   26.5449 H   0  0  0  0  0  0
  -28.2577  -38.0085   24.7515 H   0  0  0  0  0  0
  -28.1105  -36.2625   24.6232 H   0  0  0  0  0  0
  -27.2329  -37.1378   25.8859 H   0  0  0  0  0  0
  -20.9464  -29.8750   21.6784 H   0  0  0  0  0  0
  -26.0138  -38.2809   24.1438 H   0  0  0  0  0  0
  -31.6501  -20.6105   19.7514 H   0  0  0  0  0  0
  -31.8344  -18.1695   20.0522 H   0  0  0  0  0  0
  -27.5082  -20.4687   20.4195 H   0  0  0  0  0  0
  -26.0151  -19.3481   21.7257 H   0  0  0  0  0  0
  -25.0026  -18.1642   20.9239 H   0  0  0  0  0  0
  -25.7388  -19.4191   19.9774 H   0  0  0  0  0  0
  -27.7006  -17.3261   22.6687 H   0  0  0  0  0  0
  -27.5513  -15.9086   21.6440 H   0  0  0  0  0  0
  -26.1387  -16.7087   22.2349 H   0  0  0  0  0  0
  -27.2053  -17.9474   18.4304 H   0  0  0  0  0  0
  -25.9146  -16.9578   18.9542 H   0  0  0  0  0  0
  -27.5860  -16.3558   18.9971 H   0  0  0  0  0  0
  -27.1651  -24.4428   20.0564 H   0  0  0  0  0  0
  -28.2177  -24.7002   18.6942 H   0  0  0  0  0  0
  -28.7219  -22.2995   18.8308 H   0  0  0  0  0  0
  -28.7984  -15.8487   20.7533 H   0  0  0  0  0  0
  1 25  1  0  0  0
  1 30  2  0  0  0
  1 84  1  0  0  0
  2  3  1  0  0  0
  2 25  1  0  0  0
  2 86  1  0  0  0
  2 87  1  0  0  0
  3  4  1  0  0  0
  3 88  1  0  0  0
  3 89  1  0  0  0
  4  5  1  0  0  0
  4 90  1  0  0  0
  4 91  1  0  0  0
  5  6  1  0  0  0
  5 26  1  0  0  0
  5 92  1  0  0  0
  6 25  1  0  0  0
  6 93  1  0  0  0
  6 94  1  0  0  0
  7  8  2  0  0  0
  7 26  1  0  0  0
  7 29  1  0  0  0
  8  9  1  0  0  0
  8 22  1  0  0  0
  9 10  1  0  0  0
  9 27  2  0  0  0
 10 11  2  0  0  0
 10 15  1  0  0  0
 11 12  1  0  0  0
 11 95  1  0  0  0
 12 13  2  0  0  0
 12 96  1  0  0  0
 13 14  1  0  0  0
 13 31  1  0  0  0
 14 15  2  0  0  0
 14 97  1  0  0  0
 15 98  1  0  0  0
 16 17  2  0  0  0
 16 21  1  0  0  0
 16 31  1  0  0  0
 17 18  1  0  0  0
 17 99  1  0  0  0
 18 19  2  0  0  0
 18100  1  0  0  0
 19 20  1  0  0  0
 19 24  1  0  0  0
 20 21  2  0  0  0
 20101  1  0  0  0
 21 23  1  0  0  0
 22 28  1  0  0  0
 22 32  2  0  0  0
 26 27  1  0  0  0
 28102  1  0  0  0
 28103  1  0  0  0
 29104  1  0  0  0
 29105  1  0  0  0
 33 34  1  0  0  0
 33 66  1  0  0  0
 33 70  2  0  0  0
 34 36  1  0  0  0
 34 59  1  0  0  0
 34106  1  0  0  0
 35 44  2  0  0  0
 35 45  1  0  0  0
 35 68  1  0  0  0
 36 56  1  0  0  0
 36107  1  0  0  0
 37 39  1  0  0  0
 37 47  1  0  0  0
 37 66  1  0  0  0
 37108  1  0  0  0
 38 43  2  0  0  0
 38 46  1  0  0  0
 38 47  1  0  0  0
 39 64  1  0  0  0
 39 67  2  0  0  0
 40 52  1  0  0  0
 40 53  2  0  0  0
 40 58  1  0  0  0
 41109  1  0  0  0
 41110  1  0  0  0
 41111  1  0  0  0
 41 48  1  0  0  0
 42 43  1  0  0  0
 42 66  1  0  0  0
 42112  1  0  0  0
 42113  1  0  0  0
 43 44  1  0  0  0
 44114  1  0  0  0
 45 46  2  0  0  0
 45115  1  0  0  0
 46116  1  0  0  0
 47117  1  0  0  0
 47118  1  0  0  0
 48 56  1  0  0  0
 48 65  1  0  0  0
 48119  1  0  0  0
 49 50  1  0  0  0
 49 53  1  0  0  0
 49 64  1  0  0  0
 49120  1  0  0  0
 50 51  1  0  0  0
 50121  1  0  0  0
 50122  1  0  0  0
 51 52  1  0  0  0
 51123  1  0  0  0
 51124  1  0  0  0
 52125  1  0  0  0
 52126  1  0  0  0
 53 54  1  0  0  0
 54 55  2  0  0  0
 54127  1  0  0  0
 55 57  1  0  0  0
 55128  1  0  0  0
 56 69  2  0  0  0
 57 58  2  0  0  0
 57129  1  0  0  0
 58130  1  0  0  0
 59 60  1  0  0  0
 59 61  1  0  0  0
 59 62  1  0  0  0
 60131  1  0  0  0
 60132  1  0  0  0
 60133  1  0  0  0
 61134  1  0  0  0
 61135  1  0  0  0
 61136  1  0  0  0
 62137  1  0  0  0
 62138  1  0  0  0
 62139  1  0  0  0
 63 65  1  0  0  0
 63140  1  0  0  0
 63141  1  0  0  0
 63142  1  0  0  0
 64143  1  0  0  0
 65144  1  0  0  0
 68 81  1  0  0  0
 71 72  2  0  0  0
 71 75  1  0  0  0
 71145  1  0  0  0
 72 76  1  0  0  0
 72146  1  0  0  0
 73 74  1  0  0  0
 73 75  2  0  0  0
 73147  1  0  0  0
 74 76  2  0  0  0
 74 82  1  0  0  0
 75 83  1  0  0  0
 76 84  1  0  0  0
 77 81  1  0  0  0
 77 83  1  0  0  0
 77 85  2  0  0  0
 78148  1  0  0  0
 78149  1  0  0  0
 78150  1  0  0  0
 78 82  1  0  0  0
 79 82  1  0  0  0
 79151  1  0  0  0
 79152  1  0  0  0
 79153  1  0  0  0
 80 82  1  0  0  0
 80154  1  0  0  0
 80155  1  0  0  0
 80156  1  0  0  0
 81157  1  0  0  0
 81158  1  0  0  0
 83159  1  0  0  0
 84160  1  0  0  0
M  ISO  4   1 100  68 101  81 101  84 100
M  END
> <chiral flag>
0

> <version>
0

> <s_m_source_file>
/data/baiqing/PycharmProjects/Reinvent-master-3.2/result/LINK_invent/BTK/process_docking_weight1_custom_sum_contain_oxygen_bond_distance_aromatic_linkinvent_7_9_3/rearranged_h_0010.sdf

> <i_m_source_file_index>
25

> <r_mmod_Potential_Energy-OPLS-2005>
551.5751953125

> <r_mmod_Stretch_Energy-OPLS-2005>
237.882308959961

> <r_mmod_Bend_Energy-OPLS-2005>
305.238128662109

> <r_mmod_Torsional_Energy-OPLS-2005>
267.053253173828

> <r_mmod_Improper_Torsional_Energy-OPLS-2005>
7.9864706993103

> <r_mmod_Van_der_Waal_Energy-OPLS-2005>
170.642364501953

> <r_mmod_Electrostatic_Energy-OPLS-2005>
-396.654205322266

> <r_mmod_Solvation_Energy-OPLS-2005>
-236.072769165039

> <b_mmod_Minimization_Converged-OPLS-2005>
0

> <r_mmod_RMS_Derivative-OPLS-2005>
3.57954239845276

$$$$
25
                    3D
 Structure written by MMmdl.
148156  0  0  1  0            999 V2000
  -30.5071  -14.9091   20.4349 C   0  0  0  0  0  0
  -30.4551  -12.5589   19.4897 C   0  0  0  0  0  0
  -29.5270  -12.5329   18.2509 C   0  0  0  0  0  0
  -28.0557  -12.3244   18.6627 C   0  0  0  0  0  0
  -27.6390  -13.2360   19.8459 C   0  0  2  0  0  0
  -28.6832  -13.2069   20.9838 C   0  0  0  0  0  0
  -25.2502  -13.8186   20.5684 C   0  0  0  0  0  0
  -24.1806  -13.0433   20.9232 C   0  0  0  0  0  0
  -24.6399  -11.6912   20.8753 C   0  0  0  0  0  0
  -23.9071  -10.4291   21.0410 C   0  0  0  0  0  0
  -24.3620   -9.4205   21.9187 C   0  0  0  0  0  0
  -23.6295   -8.2241   22.0753 C   0  0  0  0  0  0
  -22.4276   -8.0280   21.3543 C   0  0  0  0  0  0
  -21.9914   -9.0255   20.4646 C   0  0  0  0  0  0
  -22.7243  -10.2134   20.3057 C   0  0  0  0  0  0
  -21.6853   -6.0734   22.5279 C   0  0  0  0  0  0
  -21.4013   -6.5638   23.8214 C   0  0  0  0  0  0
  -21.3660   -5.6790   24.9176 C   0  0  0  0  0  0
  -21.6045   -4.3053   24.7225 C   0  0  0  0  0  0
  -21.8818   -3.8145   23.4345 C   0  0  0  0  0  0
  -21.9191   -4.6962   22.3402 C   0  0  0  0  0  0
  -22.7826  -13.5219   21.1885 C   0  0  0  0  0  0
  -22.1662   -4.2148   21.0979 F   0  0  0  0  0  0
  -21.5630   -3.4536   25.7737 F   0  0  0  0  0  0
  -29.9682  -13.6267   20.4039 N   0  0  0  0  0  0
  -26.2924  -12.9395   20.3236 N   0  0  0  0  0  0
  -25.9328  -11.6538   20.5724 N   0  0  0  0  0  0
  -22.0463  -12.8212   22.0436 N   0  0  0  0  0  0
  -25.4168  -15.1908   20.4052 N   0  0  0  0  0  0
  -31.6932  -15.0555   20.1170 O   0  0  0  0  0  0
  -21.6640   -6.8878   21.4242 O   0  0  0  0  0  0
  -22.3512  -14.5521   20.6720 O   0  0  0  0  0  0
  -24.6427  -31.8451   23.1897 C   0  0  0  0  0  0
  -25.9205  -32.4700   23.8281 C   0  0  1  0  0  0
  -27.2211  -27.1506   20.1461 C   0  0  0  0  0  0
  -25.5958  -33.8506   24.2201 N   0  0  0  0  0  0
  -23.4454  -30.4659   21.5347 C   0  0  2  0  0  0
  -24.8955  -28.8960   20.1110 C   0  0  0  0  0  0
  -22.7560  -29.4556   22.4859 C   0  0  0  0  0  0
  -18.0305  -28.1392   22.8473 C   0  0  0  0  0  0
  -24.1492  -36.7257   23.2641 C   0  0  0  0  0  0
  -26.0010  -30.7240   21.3865 C   0  0  0  0  0  0
  -26.0733  -29.3369   20.7275 C   0  0  0  0  0  0
  -27.2373  -28.4810   20.7275 C   0  0  0  0  0  0
  -26.0143  -26.8093   19.4938 C   0  0  0  0  0  0
  -24.8783  -27.6448   19.4791 C   0  0  0  0  0  0
  -23.6714  -29.7964   20.1537 C   0  0  0  0  0  0
  -25.4124  -36.3036   24.0316 C   0  0  1  0  0  0
  -20.5916  -28.3719   23.1233 C   0  0  2  0  0  0
  -20.6787  -26.9423   22.5398 C   0  0  0  0  0  0
  -19.5764  -26.6379   21.5204 C   0  0  0  0  0  0
  -18.1946  -26.7930   22.1618 C   0  0  0  0  0  0
  -19.1560  -28.8873   23.2846 C   0  0  0  0  0  0
  -18.9477  -30.1467   23.8874 C   0  0  0  0  0  0
  -17.6474  -30.6589   24.0556 C   0  0  0  0  0  0
  -25.9072  -34.9410   23.5066 C   0  0  0  0  0  0
  -16.5365  -29.9081   23.6334 C   0  0  0  0  0  0
  -16.7289  -28.6499   23.0357 C   0  0  0  0  0  0
  -26.4531  -31.6563   25.0717 C   0  0  0  0  0  0
  -25.3717  -31.3745   26.1411 C   0  0  0  0  0  0
  -27.0396  -30.2960   24.6292 C   0  0  0  0  0  0
  -27.6065  -32.4323   25.7504 C   0  0  0  0  0  0
  -27.5579  -37.1786   24.8465 C   0  0  0  0  0  0
  -21.4253  -29.3051   22.3608 N   0  0  0  0  0  0
  -26.4289  -37.3747   23.9408 N   0  0  0  0  0  0
  -24.7161  -31.0323   22.0923 N   0  0  0  0  0  0
  -23.4208  -28.8100   23.3004 O   0  0  0  0  0  0
  -28.2792  -26.1727   20.2114 O   0  0  0  0  0  0
  -26.5651  -34.8906   22.4640 O   0  0  0  0  0  0
  -23.5549  -32.1320   23.7127 O   0  0  0  0  0  0
  -30.4719  -18.5370   20.2646 C   0  0  0  0  0  0
  -30.1644  -19.9740   20.2051 C   0  0  0  0  0  0
  -28.2164  -18.0931   20.7744 C   0  0  0  0  0  0
  -29.5017  -17.5070   20.5544 C   0  0  0  0  0  0
  -28.8514  -20.5382   20.4159 C   0  0  0  0  0  0
  -27.9066  -19.5000   20.7045 C   0  0  0  0  0  0
  -27.9775  -24.6521   20.0891 C   0  0  0  0  0  0
  -28.9681  -23.3038   20.2982 C   0  0  0  0  0  0
  -29.6172  -15.9822   20.6695 N   0  0  0  0  0  0
  -28.3374  -21.9104   20.3404 O   0  0  0  0  0  0
  -26.2644  -19.9568   20.9920 Cl  0  0  0  0  0  0
  -31.4868  -12.7333   19.1802 H   0  0  0  0  0  0
  -30.4553  -11.5919   19.9954 H   0  0  0  0  0  0
  -29.8387  -11.7480   17.5605 H   0  0  0  0  0  0
  -29.6220  -13.4736   17.7059 H   0  0  0  0  0  0
  -27.9377  -11.2779   18.9466 H   0  0  0  0  0  0
  -27.3965  -12.4844   17.8087 H   0  0  0  0  0  0
  -27.6179  -14.2490   19.4436 H   0  0  0  0  0  0
  -28.7590  -12.2083   21.4173 H   0  0  0  0  0  0
  -28.3869  -13.8687   21.7991 H   0  0  0  0  0  0
  -25.2765   -9.5684   22.4762 H   0  0  0  0  0  0
  -24.0004   -7.4631   22.7471 H   0  0  0  0  0  0
  -21.0844   -8.8776   19.8950 H   0  0  0  0  0  0
  -22.3702  -10.9674   19.6166 H   0  0  0  0  0  0
  -21.2007   -7.6146   23.9718 H   0  0  0  0  0  0
  -21.1485   -6.0519   25.9079 H   0  0  0  0  0  0
  -22.0597   -2.7607   23.2844 H   0  0  0  0  0  0
  -22.4077  -11.9879   22.4836 H   0  0  0  0  0  0
  -21.1076  -13.1236   22.2628 H   0  0  0  0  0  0
  -24.6329  -15.8287   20.4895 H   0  0  0  0  0  0
  -26.2222  -15.6127   19.9633 H   0  0  0  0  0  0
  -26.7269  -32.5314   23.1010 H   0  0  0  0  0  0
  -25.0095  -33.9622   25.0341 H   0  0  0  0  0  0
  -22.7474  -31.2916   21.3814 H   0  0  0  0  0  0
  -23.3761  -35.9582   23.3290 H   0  0  0  0  0  0
  -24.3577  -36.8901   22.2057 H   0  0  0  0  0  0
  -23.7242  -37.6449   23.6683 H   0  0  0  0  0  0
  -26.1555  -31.4802   20.6157 H   0  0  0  0  0  0
  -26.8714  -30.7730   22.0290 H   0  0  0  0  0  0
  -28.1345  -28.8149   21.2296 H   0  0  0  0  0  0
  -25.9080  -25.8560   19.0002 H   0  0  0  0  0  0
  -23.9797  -27.3020   18.9850 H   0  0  0  0  0  0
  -23.8069  -30.5712   19.3981 H   0  0  0  0  0  0
  -22.7866  -29.2376   19.8433 H   0  0  0  0  0  0
  -25.1312  -36.1864   25.0808 H   0  0  0  0  0  0
  -21.0009  -28.3308   24.1353 H   0  0  0  0  0  0
  -20.5673  -26.2334   23.3616 H   0  0  0  0  0  0
  -21.6656  -26.7424   22.1205 H   0  0  0  0  0  0
  -19.6926  -25.6282   21.1254 H   0  0  0  0  0  0
  -19.6705  -27.3169   20.6718 H   0  0  0  0  0  0
  -17.4212  -26.6666   21.4026 H   0  0  0  0  0  0
  -18.0357  -26.0079   22.9024 H   0  0  0  0  0  0
  -19.7952  -30.7286   24.2241 H   0  0  0  0  0  0
  -17.5028  -31.6269   24.5158 H   0  0  0  0  0  0
  -15.5364  -30.2977   23.7670 H   0  0  0  0  0  0
  -15.8689  -28.0807   22.7092 H   0  0  0  0  0  0
  -24.5909  -30.7080   25.7730 H   0  0  0  0  0  0
  -24.8891  -32.2923   26.4779 H   0  0  0  0  0  0
  -25.8003  -30.8958   27.0225 H   0  0  0  0  0  0
  -26.3011  -29.6681   24.1295 H   0  0  0  0  0  0
  -27.4009  -29.7262   25.4863 H   0  0  0  0  0  0
  -27.8921  -30.4200   23.9609 H   0  0  0  0  0  0
  -27.2663  -33.3643   26.2031 H   0  0  0  0  0  0
  -28.3907  -32.6848   25.0355 H   0  0  0  0  0  0
  -28.0697  -31.8478   26.5465 H   0  0  0  0  0  0
  -28.2585  -38.0093   24.7516 H   0  0  0  0  0  0
  -28.1087  -36.2622   24.6287 H   0  0  0  0  0  0
  -27.2294  -37.1426   25.8868 H   0  0  0  0  0  0
  -20.9457  -29.8772   21.6797 H   0  0  0  0  0  0
  -26.0157  -38.2816   24.1412 H   0  0  0  0  0  0
  -31.4923  -18.2325   20.0783 H   0  0  0  0  0  0
  -30.9718  -20.6519   19.9696 H   0  0  0  0  0  0
  -27.3943  -17.4334   21.0096 H   0  0  0  0  0  0
  -27.1372  -24.4888   20.7650 H   0  0  0  0  0  0
  -27.5687  -24.5160   19.0889 H   0  0  0  0  0  0
  -29.5122  -23.4257   21.2349 H   0  0  0  0  0  0
  -29.7261  -23.3020   19.5146 H   0  0  0  0  0  0
  -28.7326  -15.5754   20.9318 H   0  0  0  0  0  0
  1 25  1  0  0  0
  1 30  2  0  0  0
  1 79  1  0  0  0
  2  3  1  0  0  0
  2 25  1  0  0  0
  2 82  1  0  0  0
  2 83  1  0  0  0
  3  4  1  0  0  0
  3 84  1  0  0  0
  3 85  1  0  0  0
  4  5  1  0  0  0
  4 86  1  0  0  0
  4 87  1  0  0  0
  5  6  1  0  0  0
  5 26  1  0  0  0
  5 88  1  0  0  0
  6 25  1  0  0  0
  6 89  1  0  0  0
  6 90  1  0  0  0
  7  8  2  0  0  0
  7 26  1  0  0  0
  7 29  1  0  0  0
  8  9  1  0  0  0
  8 22  1  0  0  0
  9 10  1  0  0  0
  9 27  2  0  0  0
 10 11  2  0  0  0
 10 15  1  0  0  0
 11 12  1  0  0  0
 11 91  1  0  0  0
 12 13  2  0  0  0
 12 92  1  0  0  0
 13 14  1  0  0  0
 13 31  1  0  0  0
 14 15  2  0  0  0
 14 93  1  0  0  0
 15 94  1  0  0  0
 16 17  2  0  0  0
 16 21  1  0  0  0
 16 31  1  0  0  0
 17 18  1  0  0  0
 17 95  1  0  0  0
 18 19  2  0  0  0
 18 96  1  0  0  0
 19 20  1  0  0  0
 19 24  1  0  0  0
 20 21  2  0  0  0
 20 97  1  0  0  0
 21 23  1  0  0  0
 22 28  1  0  0  0
 22 32  2  0  0  0
 26 27  1  0  0  0
 28 98  1  0  0  0
 28 99  1  0  0  0
 29100  1  0  0  0
 29101  1  0  0  0
 33 34  1  0  0  0
 33 66  1  0  0  0
 33 70  2  0  0  0
 34 36  1  0  0  0
 34 59  1  0  0  0
 34102  1  0  0  0
 35 44  2  0  0  0
 35 45  1  0  0  0
 35 68  1  0  0  0
 36 56  1  0  0  0
 36103  1  0  0  0
 37 39  1  0  0  0
 37 47  1  0  0  0
 37 66  1  0  0  0
 37104  1  0  0  0
 38 43  2  0  0  0
 38 46  1  0  0  0
 38 47  1  0  0  0
 39 64  1  0  0  0
 39 67  2  0  0  0
 40 52  1  0  0  0
 40 53  2  0  0  0
 40 58  1  0  0  0
 41105  1  0  0  0
 41106  1  0  0  0
 41107  1  0  0  0
 41 48  1  0  0  0
 42 43  1  0  0  0
 42 66  1  0  0  0
 42108  1  0  0  0
 42109  1  0  0  0
 43 44  1  0  0  0
 44110  1  0  0  0
 45 46  2  0  0  0
 45111  1  0  0  0
 46112  1  0  0  0
 47113  1  0  0  0
 47114  1  0  0  0
 48 56  1  0  0  0
 48 65  1  0  0  0
 48115  1  0  0  0
 49 50  1  0  0  0
 49 53  1  0  0  0
 49 64  1  0  0  0
 49116  1  0  0  0
 50 51  1  0  0  0
 50117  1  0  0  0
 50118  1  0  0  0
 51 52  1  0  0  0
 51119  1  0  0  0
 51120  1  0  0  0
 52121  1  0  0  0
 52122  1  0  0  0
 53 54  1  0  0  0
 54 55  2  0  0  0
 54123  1  0  0  0
 55 57  1  0  0  0
 55124  1  0  0  0
 56 69  2  0  0  0
 57 58  2  0  0  0
 57125  1  0  0  0
 58126  1  0  0  0
 59 60  1  0  0  0
 59 61  1  0  0  0
 59 62  1  0  0  0
 60127  1  0  0  0
 60128  1  0  0  0
 60129  1  0  0  0
 61130  1  0  0  0
 61131  1  0  0  0
 61132  1  0  0  0
 62133  1  0  0  0
 62134  1  0  0  0
 62135  1  0  0  0
 63 65  1  0  0  0
 63136  1  0  0  0
 63137  1  0  0  0
 63138  1  0  0  0
 64139  1  0  0  0
 65140  1  0  0  0
 68 77  1  0  0  0
 71 72  2  0  0  0
 71 74  1  0  0  0
 71141  1  0  0  0
 72 75  1  0  0  0
 72142  1  0  0  0
 73 74  2  0  0  0
 73 76  1  0  0  0
 73143  1  0  0  0
 74 79  1  0  0  0
 75 76  2  0  0  0
 75 80  1  0  0  0
 76 81  1  0  0  0
 77 78  1  0  0  0
 77144  1  0  0  0
 77145  1  0  0  0
 78 80  1  0  0  0
 78146  1  0  0  0
 78147  1  0  0  0
 79148  1  0  0  0
M  ISO  4   1 100  68 101  77 101  79 100
M  END
> <chiral flag>
0

> <version>
0

> <s_m_source_file>
/data/baiqing/PycharmProjects/Reinvent-master-3.2/result/LINK_invent/BTK/process_docking_weight1_custom_sum_contain_oxygen_bond_distance_aromatic_linkinvent_7_9_3/rearranged_h_0010.sdf

> <i_m_source_file_index>
26

> <r_mmod_Potential_Energy-OPLS-2005>
484.967193603516

> <r_mmod_Stretch_Energy-OPLS-2005>
218.050033569336

> <r_mmod_Bend_Energy-OPLS-2005>
303.205078125

> <r_mmod_Torsional_Energy-OPLS-2005>
211.642440795898

> <r_mmod_Improper_Torsional_Energy-OPLS-2005>
4.45681285858154

> <r_mmod_Van_der_Waal_Energy-OPLS-2005>
129.603378295898

> <r_mmod_Electrostatic_Energy-OPLS-2005>
-342.015991210938

> <r_mmod_Solvation_Energy-OPLS-2005>
-213.363555908203

> <b_mmod_Minimization_Converged-OPLS-2005>
0

> <r_mmod_RMS_Derivative-OPLS-2005>
0.425622463226318

$$$$
26
                    3D
 Structure written by MMmdl.
155163  0  0  1  0            999 V2000
  -30.6007  -14.6594   20.5107 C   0  0  0  0  0  0
  -30.4512  -12.4055   19.4539 C   0  0  0  0  0  0
  -29.5146  -12.5064   18.2272 C   0  0  0  0  0  0
  -28.0344  -12.3508   18.6348 C   0  0  0  0  0  0
  -27.6579  -13.2149   19.8665 C   0  0  2  0  0  0
  -28.7039  -13.0480   20.9922 C   0  0  0  0  0  0
  -25.2575  -13.8169   20.5692 C   0  0  0  0  0  0
  -24.1836  -13.0439   20.9205 C   0  0  0  0  0  0
  -24.6398  -11.6904   20.8739 C   0  0  0  0  0  0
  -23.9065  -10.4289   21.0411 C   0  0  0  0  0  0
  -24.3612   -9.4206   21.9197 C   0  0  0  0  0  0
  -23.6286   -8.2243   22.0757 C   0  0  0  0  0  0
  -22.4274   -8.0280   21.3542 C   0  0  0  0  0  0
  -21.9918   -9.0251   20.4640 C   0  0  0  0  0  0
  -22.7241  -10.2133   20.3052 C   0  0  0  0  0  0
  -21.6854   -6.0740   22.5284 C   0  0  0  0  0  0
  -21.4003   -6.5640   23.8216 C   0  0  0  0  0  0
  -21.3658   -5.6793   24.9173 C   0  0  0  0  0  0
  -21.6051   -4.3059   24.7226 C   0  0  0  0  0  0
  -21.8818   -3.8153   23.4346 C   0  0  0  0  0  0
  -21.9186   -4.6968   22.3402 C   0  0  0  0  0  0
  -22.7852  -13.5233   21.1869 C   0  0  0  0  0  0
  -22.1659   -4.2155   21.0980 F   0  0  0  0  0  0
  -21.5635   -3.4541   25.7743 F   0  0  0  0  0  0
  -30.0206  -13.4161   20.4397 N   0  0  0  0  0  0
  -26.3006  -12.9340   20.3324 N   0  0  0  0  0  0
  -25.9322  -11.6500   20.5745 N   0  0  0  0  0  0
  -22.0478  -12.8207   22.0402 N   0  0  0  0  0  0
  -25.4317  -15.1891   20.4118 N   0  0  0  0  0  0
  -31.7390  -14.8677   20.0782 O   0  0  0  0  0  0
  -21.6630   -6.8882   21.4241 O   0  0  0  0  0  0
  -22.3546  -14.5554   20.6743 O   0  0  0  0  0  0
  -24.6260  -31.8594   23.1983 C   0  0  0  0  0  0
  -25.9106  -32.4773   23.8329 C   0  0  1  0  0  0
  -27.2375  -27.3212   20.1213 C   0  0  0  0  0  0
  -25.5933  -33.8571   24.2260 N   0  0  0  0  0  0
  -23.4200  -30.4771   21.5432 C   0  0  2  0  0  0
  -24.8691  -28.9228   20.1159 C   0  0  0  0  0  0
  -22.7491  -29.4591   22.4953 C   0  0  0  0  0  0
  -18.0281  -28.1376   22.8464 C   0  0  0  0  0  0
  -24.1495  -36.7286   23.2642 C   0  0  0  0  0  0
  -25.9575  -30.7916   21.3646 C   0  0  0  0  0  0
  -26.0370  -29.4137   20.7147 C   0  0  0  0  0  0
  -27.2251  -28.6255   20.7017 C   0  0  0  0  0  0
  -26.0457  -26.8669   19.5175 C   0  0  0  0  0  0
  -24.8743  -27.6535   19.5117 C   0  0  0  0  0  0
  -23.6348  -29.8037   20.1606 C   0  0  0  0  0  0
  -25.4120  -36.3071   24.0336 C   0  0  1  0  0  0
  -20.5883  -28.3674   23.1298 C   0  0  2  0  0  0
  -20.6772  -26.9403   22.5412 C   0  0  0  0  0  0
  -19.5756  -26.6389   21.5197 C   0  0  0  0  0  0
  -18.1923  -26.7920   22.1602 C   0  0  0  0  0  0
  -19.1540  -28.8845   23.2861 C   0  0  0  0  0  0
  -18.9463  -30.1445   23.8876 C   0  0  0  0  0  0
  -17.6464  -30.6576   24.0562 C   0  0  0  0  0  0
  -25.9070  -34.9444   23.5107 C   0  0  0  0  0  0
  -16.5352  -29.9078   23.6333 C   0  0  0  0  0  0
  -16.7269  -28.6504   23.0334 C   0  0  0  0  0  0
  -26.4486  -31.6576   25.0701 C   0  0  0  0  0  0
  -25.3709  -31.3697   26.1423 C   0  0  0  0  0  0
  -27.0320  -30.3020   24.6087 C   0  0  0  0  0  0
  -27.6068  -32.4294   25.7456 C   0  0  0  0  0  0
  -27.5575  -37.1785   24.8464 C   0  0  0  0  0  0
  -21.4199  -29.3018   22.3696 N   0  0  0  0  0  0
  -26.4284  -37.3776   23.9415 N   0  0  0  0  0  0
  -24.6860  -31.0600   22.0935 N   0  0  0  0  0  0
  -23.4201  -28.8138   23.3038 O   0  0  0  0  0  0
  -28.3806  -26.5124   20.0894 O   0  0  0  0  0  0
  -26.5632  -34.8916   22.4665 O   0  0  0  0  0  0
  -23.5432  -32.1414   23.7317 O   0  0  0  0  0  0
  -28.5154  -17.6675   21.4869 C   0  0  0  0  0  0
  -30.4958  -18.0347   20.1930 C   0  0  0  0  0  0
  -28.2108  -19.0502   21.4250 C   0  0  0  0  0  0
  -30.1882  -19.4452   20.1456 C   0  0  0  0  0  0
  -29.6544  -17.1020   20.8710 C   0  0  0  0  0  0
  -29.0253  -20.0137   20.7608 C   0  0  0  0  0  0
  -27.6177  -21.7905   21.7330 C   0  0  0  0  0  0
  -28.6791  -23.8911   19.6836 C   0  0  0  0  0  0
  -29.4382  -22.5726   20.2241 C   0  0  0  0  0  0
  -28.3274  -25.1320   20.6261 C   0  0  0  0  0  0
  -29.7814  -15.6443   20.9974 N   0  0  0  0  0  0
  -28.6348  -21.4194   20.7467 N   0  0  0  0  0  0
  -31.4897  -12.5457   19.1515 H   0  0  0  0  0  0
  -30.4031  -11.4081   19.8931 H   0  0  0  0  0  0
  -29.7759  -11.7426   17.4926 H   0  0  0  0  0  0
  -29.6619  -13.4677   17.7325 H   0  0  0  0  0  0
  -27.8648  -11.2978   18.8600 H   0  0  0  0  0  0
  -27.3846  -12.5867   17.7919 H   0  0  0  0  0  0
  -27.6802  -14.2543   19.5371 H   0  0  0  0  0  0
  -28.7193  -12.0135   21.3379 H   0  0  0  0  0  0
  -28.4392  -13.6410   21.8683 H   0  0  0  0  0  0
  -25.2749   -9.5688   22.4779 H   0  0  0  0  0  0
  -23.9996   -7.4630   22.7477 H   0  0  0  0  0  0
  -21.0860   -8.8765   19.8933 H   0  0  0  0  0  0
  -22.3710  -10.9668   19.6160 H   0  0  0  0  0  0
  -21.1988   -7.6149   23.9721 H   0  0  0  0  0  0
  -21.1485   -6.0524   25.9083 H   0  0  0  0  0  0
  -22.0598   -2.7612   23.2845 H   0  0  0  0  0  0
  -22.4057  -11.9841   22.4768 H   0  0  0  0  0  0
  -21.1089  -13.1227   22.2587 H   0  0  0  0  0  0
  -24.6701  -15.8491   20.5206 H   0  0  0  0  0  0
  -26.2824  -15.6195   20.0716 H   0  0  0  0  0  0
  -26.7189  -32.5465   23.1096 H   0  0  0  0  0  0
  -25.0030  -33.9692   25.0368 H   0  0  0  0  0  0
  -22.7135  -31.2963   21.3973 H   0  0  0  0  0  0
  -23.3754  -35.9622   23.3292 H   0  0  0  0  0  0
  -24.3575  -36.8924   22.2057 H   0  0  0  0  0  0
  -23.7249  -37.6484   23.6675 H   0  0  0  0  0  0
  -26.0721  -31.5492   20.5889 H   0  0  0  0  0  0
  -26.8443  -30.8558   21.9826 H   0  0  0  0  0  0
  -28.1276  -29.0009   21.1656 H   0  0  0  0  0  0
  -26.0212  -25.8947   19.0455 H   0  0  0  0  0  0
  -23.9775  -27.2697   19.0449 H   0  0  0  0  0  0
  -23.7497  -30.5775   19.4005 H   0  0  0  0  0  0
  -22.7558  -29.2282   19.8629 H   0  0  0  0  0  0
  -25.1278  -36.1927   25.0831 H   0  0  0  0  0  0
  -20.9942  -28.3244   24.1435 H   0  0  0  0  0  0
  -20.5703  -26.2270   23.3590 H   0  0  0  0  0  0
  -21.6643  -26.7460   22.1189 H   0  0  0  0  0  0
  -19.6947  -25.6312   21.1198 H   0  0  0  0  0  0
  -19.6718  -27.3235   20.6746 H   0  0  0  0  0  0
  -17.4208  -26.6678   21.3983 H   0  0  0  0  0  0
  -18.0313  -26.0058   22.9004 H   0  0  0  0  0  0
  -19.7957  -30.7237   24.2257 H   0  0  0  0  0  0
  -17.5037  -31.6266   24.5156 H   0  0  0  0  0  0
  -15.5357  -30.2963   23.7690 H   0  0  0  0  0  0
  -15.8662  -28.0823   22.7040 H   0  0  0  0  0  0
  -24.5937  -30.6985   25.7729 H   0  0  0  0  0  0
  -24.8831  -32.2861   26.4777 H   0  0  0  0  0  0
  -25.8047  -30.8930   27.0231 H   0  0  0  0  0  0
  -26.2861  -29.6777   24.1157 H   0  0  0  0  0  0
  -27.4111  -29.7260   25.4531 H   0  0  0  0  0  0
  -27.8693  -30.4322   23.9221 H   0  0  0  0  0  0
  -27.2712  -33.3647   26.1945 H   0  0  0  0  0  0
  -28.3917  -32.6759   25.0287 H   0  0  0  0  0  0
  -28.0679  -31.8456   26.5433 H   0  0  0  0  0  0
  -28.2568  -38.0096   24.7499 H   0  0  0  0  0  0
  -28.1085  -36.2621   24.6293 H   0  0  0  0  0  0
  -27.2279  -37.1427   25.8859 H   0  0  0  0  0  0
  -20.9396  -29.8721   21.6873 H   0  0  0  0  0  0
  -26.0169  -38.2850   24.1444 H   0  0  0  0  0  0
  -27.8315  -17.0273   22.0263 H   0  0  0  0  0  0
  -31.3877  -17.6819   19.6942 H   0  0  0  0  0  0
  -27.2975  -19.3390   21.9206 H   0  0  0  0  0  0
  -30.8709  -20.0909   19.6137 H   0  0  0  0  0  0
  -27.8441  -21.3717   22.7149 H   0  0  0  0  0  0
  -26.6336  -21.4367   21.4220 H   0  0  0  0  0  0
  -27.5414  -22.8668   21.8730 H   0  0  0  0  0  0
  -27.7878  -23.6032   19.1247 H   0  0  0  0  0  0
  -29.3478  -24.3025   18.9275 H   0  0  0  0  0  0
  -30.1784  -22.8608   20.9723 H   0  0  0  0  0  0
  -30.0211  -22.1897   19.3862 H   0  0  0  0  0  0
  -29.0468  -25.1259   21.4447 H   0  0  0  0  0  0
  -27.3622  -24.9570   21.1003 H   0  0  0  0  0  0
  -28.9737  -15.2234   21.4302 H   0  0  0  0  0  0
  1 25  1  0  0  0
  1 30  2  0  0  0
  1 81  1  0  0  0
  2  3  1  0  0  0
  2 25  1  0  0  0
  2 83  1  0  0  0
  2 84  1  0  0  0
  3  4  1  0  0  0
  3 85  1  0  0  0
  3 86  1  0  0  0
  4  5  1  0  0  0
  4 87  1  0  0  0
  4 88  1  0  0  0
  5  6  1  0  0  0
  5 26  1  0  0  0
  5 89  1  0  0  0
  6 25  1  0  0  0
  6 90  1  0  0  0
  6 91  1  0  0  0
  7  8  2  0  0  0
  7 26  1  0  0  0
  7 29  1  0  0  0
  8  9  1  0  0  0
  8 22  1  0  0  0
  9 10  1  0  0  0
  9 27  2  0  0  0
 10 11  2  0  0  0
 10 15  1  0  0  0
 11 12  1  0  0  0
 11 92  1  0  0  0
 12 13  2  0  0  0
 12 93  1  0  0  0
 13 14  1  0  0  0
 13 31  1  0  0  0
 14 15  2  0  0  0
 14 94  1  0  0  0
 15 95  1  0  0  0
 16 17  2  0  0  0
 16 21  1  0  0  0
 16 31  1  0  0  0
 17 18  1  0  0  0
 17 96  1  0  0  0
 18 19  2  0  0  0
 18 97  1  0  0  0
 19 20  1  0  0  0
 19 24  1  0  0  0
 20 21  2  0  0  0
 20 98  1  0  0  0
 21 23  1  0  0  0
 22 28  1  0  0  0
 22 32  2  0  0  0
 26 27  1  0  0  0
 28 99  1  0  0  0
 28100  1  0  0  0
 29101  1  0  0  0
 29102  1  0  0  0
 33 34  1  0  0  0
 33 66  1  0  0  0
 33 70  2  0  0  0
 34 36  1  0  0  0
 34 59  1  0  0  0
 34103  1  0  0  0
 35 44  2  0  0  0
 35 45  1  0  0  0
 35 68  1  0  0  0
 36 56  1  0  0  0
 36104  1  0  0  0
 37 39  1  0  0  0
 37 47  1  0  0  0
 37 66  1  0  0  0
 37105  1  0  0  0
 38 43  2  0  0  0
 38 46  1  0  0  0
 38 47  1  0  0  0
 39 64  1  0  0  0
 39 67  2  0  0  0
 40 52  1  0  0  0
 40 53  2  0  0  0
 40 58  1  0  0  0
 41106  1  0  0  0
 41107  1  0  0  0
 41108  1  0  0  0
 41 48  1  0  0  0
 42 43  1  0  0  0
 42 66  1  0  0  0
 42109  1  0  0  0
 42110  1  0  0  0
 43 44  1  0  0  0
 44111  1  0  0  0
 45 46  2  0  0  0
 45112  1  0  0  0
 46113  1  0  0  0
 47114  1  0  0  0
 47115  1  0  0  0
 48 56  1  0  0  0
 48 65  1  0  0  0
 48116  1  0  0  0
 49 50  1  0  0  0
 49 53  1  0  0  0
 49 64  1  0  0  0
 49117  1  0  0  0
 50 51  1  0  0  0
 50118  1  0  0  0
 50119  1  0  0  0
 51 52  1  0  0  0
 51120  1  0  0  0
 51121  1  0  0  0
 52122  1  0  0  0
 52123  1  0  0  0
 53 54  1  0  0  0
 54 55  2  0  0  0
 54124  1  0  0  0
 55 57  1  0  0  0
 55125  1  0  0  0
 56 69  2  0  0  0
 57 58  2  0  0  0
 57126  1  0  0  0
 58127  1  0  0  0
 59 60  1  0  0  0
 59 61  1  0  0  0
 59 62  1  0  0  0
 60128  1  0  0  0
 60129  1  0  0  0
 60130  1  0  0  0
 61131  1  0  0  0
 61132  1  0  0  0
 61133  1  0  0  0
 62134  1  0  0  0
 62135  1  0  0  0
 62136  1  0  0  0
 63 65  1  0  0  0
 63137  1  0  0  0
 63138  1  0  0  0
 63139  1  0  0  0
 64140  1  0  0  0
 65141  1  0  0  0
 68 80  1  0  0  0
 71 73  2  0  0  0
 71 75  1  0  0  0
 71142  1  0  0  0
 72 74  1  0  0  0
 72 75  2  0  0  0
 72143  1  0  0  0
 73 76  1  0  0  0
 73144  1  0  0  0
 74 76  2  0  0  0
 74145  1  0  0  0
 75 81  1  0  0  0
 76 82  1  0  0  0
 77 82  1  0  0  0
 77146  1  0  0  0
 77147  1  0  0  0
 77148  1  0  0  0
 78 79  1  0  0  0
 78 80  1  0  0  0
 78149  1  0  0  0
 78150  1  0  0  0
 79 82  1  0  0  0
 79151  1  0  0  0
 79152  1  0  0  0
 80153  1  0  0  0
 80154  1  0  0  0
 81155  1  0  0  0
M  ISO  4   1 100  68 101  80 101  81 100
M  END
> <chiral flag>
0

> <version>
0

> <s_m_source_file>
/data/baiqing/PycharmProjects/Reinvent-master-3.2/result/LINK_invent/BTK/process_docking_weight1_custom_sum_contain_oxygen_bond_distance_aromatic_linkinvent_7_9_3/rearranged_h_0010.sdf

> <i_m_source_file_index>
27

> <r_mmod_Potential_Energy-OPLS-2005>
96.0075302124023

> <r_mmod_Stretch_Energy-OPLS-2005>
90.3139038085938

> <r_mmod_Bend_Energy-OPLS-2005>
187.635864257812

> <r_mmod_Torsional_Energy-OPLS-2005>
230.668258666992

> <r_mmod_Improper_Torsional_Energy-OPLS-2005>
4.55378293991089

> <r_mmod_Van_der_Waal_Energy-OPLS-2005>
145.405334472656

> <r_mmod_Electrostatic_Energy-OPLS-2005>
-383.672637939453

> <r_mmod_Solvation_Energy-OPLS-2005>
-227.081100463867

> <b_mmod_Minimization_Converged-OPLS-2005>
0

> <r_mmod_RMS_Derivative-OPLS-2005>
2.64921760559082

$$$$
27
                    3D
 Structure written by MMmdl.
148156  0  0  1  0            999 V2000
  -30.5122  -14.9218   20.4210 C   0  0  0  0  0  0
  -30.4531  -12.5665   19.4870 C   0  0  0  0  0  0
  -29.5248  -12.5329   18.2489 C   0  0  0  0  0  0
  -28.0554  -12.3215   18.6638 C   0  0  0  0  0  0
  -27.6372  -13.2379   19.8425 C   0  0  2  0  0  0
  -28.6832  -13.2237   20.9788 C   0  0  0  0  0  0
  -25.2494  -13.8187   20.5681 C   0  0  0  0  0  0
  -24.1803  -13.0433   20.9229 C   0  0  0  0  0  0
  -24.6403  -11.6915   20.8752 C   0  0  0  0  0  0
  -23.9077  -10.4290   21.0406 C   0  0  0  0  0  0
  -24.3623   -9.4205   21.9184 C   0  0  0  0  0  0
  -23.6292   -8.2244   22.0754 C   0  0  0  0  0  0
  -22.4273   -8.0285   21.3544 C   0  0  0  0  0  0
  -21.9912   -9.0261   20.4649 C   0  0  0  0  0  0
  -22.7246  -10.2135   20.3058 C   0  0  0  0  0  0
  -21.6854   -6.0731   22.5275 C   0  0  0  0  0  0
  -21.4015   -6.5633   23.8208 C   0  0  0  0  0  0
  -21.3662   -5.6786   24.9171 C   0  0  0  0  0  0
  -21.6044   -4.3049   24.7222 C   0  0  0  0  0  0
  -21.8820   -3.8140   23.4345 C   0  0  0  0  0  0
  -21.9192   -4.6957   22.3399 C   0  0  0  0  0  0
  -22.7822  -13.5216   21.1875 C   0  0  0  0  0  0
  -22.1662   -4.2142   21.0977 F   0  0  0  0  0  0
  -21.5629   -3.4536   25.7739 F   0  0  0  0  0  0
  -29.9663  -13.6413   20.3934 N   0  0  0  0  0  0
  -26.2920  -12.9402   20.3233 N   0  0  0  0  0  0
  -25.9333  -11.6544   20.5726 N   0  0  0  0  0  0
  -22.0461  -12.8217   22.0433 N   0  0  0  0  0  0
  -25.4154  -15.1905   20.4032 N   0  0  0  0  0  0
  -31.7048  -15.0554   20.1240 O   0  0  0  0  0  0
  -21.6639   -6.8880   21.4240 O   0  0  0  0  0  0
  -22.3514  -14.5518   20.6710 O   0  0  0  0  0  0
  -24.6443  -31.8448   23.1896 C   0  0  0  0  0  0
  -25.9216  -32.4698   23.8287 C   0  0  1  0  0  0
  -27.2194  -27.1412   20.1396 C   0  0  0  0  0  0
  -25.5963  -33.8505   24.2200 N   0  0  0  0  0  0
  -23.4478  -30.4658   21.5355 C   0  0  2  0  0  0
  -24.8972  -28.8971   20.1102 C   0  0  0  0  0  0
  -22.7577  -29.4550   22.4860 C   0  0  0  0  0  0
  -18.0311  -28.1393   22.8478 C   0  0  0  0  0  0
  -24.1495  -36.7256   23.2642 C   0  0  0  0  0  0
  -26.0052  -30.7192   21.3896 C   0  0  0  0  0  0
  -26.0767  -29.3319   20.7282 C   0  0  0  0  0  0
  -27.2386  -28.4703   20.7274 C   0  0  0  0  0  0
  -26.0107  -26.8123   19.4826 C   0  0  0  0  0  0
  -24.8768  -27.6494   19.4737 C   0  0  0  0  0  0
  -23.6743  -29.7989   20.1540 C   0  0  0  0  0  0
  -25.4127  -36.3034   24.0315 C   0  0  1  0  0  0
  -20.5925  -28.3720   23.1235 C   0  0  2  0  0  0
  -20.6794  -26.9423   22.5404 C   0  0  0  0  0  0
  -19.5763  -26.6377   21.5215 C   0  0  0  0  0  0
  -18.1947  -26.7930   22.1628 C   0  0  0  0  0  0
  -19.1569  -28.8877   23.2847 C   0  0  0  0  0  0
  -18.9480  -30.1472   23.8872 C   0  0  0  0  0  0
  -17.6474  -30.6587   24.0560 C   0  0  0  0  0  0
  -25.9076  -34.9406   23.5066 C   0  0  0  0  0  0
  -16.5368  -29.9079   23.6333 C   0  0  0  0  0  0
  -16.7296  -28.6499   23.0353 C   0  0  0  0  0  0
  -26.4529  -31.6564   25.0728 C   0  0  0  0  0  0
  -25.3706  -31.3765   26.1420 C   0  0  0  0  0  0
  -27.0385  -30.2951   24.6320 C   0  0  0  0  0  0
  -27.6061  -32.4328   25.7511 C   0  0  0  0  0  0
  -27.5573  -37.1796   24.8471 C   0  0  0  0  0  0
  -21.4268  -29.3048   22.3606 N   0  0  0  0  0  0
  -26.4295  -37.3739   23.9395 N   0  0  0  0  0  0
  -24.7189  -31.0306   22.0930 N   0  0  0  0  0  0
  -23.4222  -28.8090   23.3003 O   0  0  0  0  0  0
  -28.2628  -26.1435   20.2061 O   0  0  0  0  0  0
  -26.5660  -34.8903   22.4643 O   0  0  0  0  0  0
  -23.5560  -32.1329   23.7109 O   0  0  0  0  0  0
  -30.5556  -18.5556   20.3651 C   0  0  0  0  0  0
  -30.2820  -19.9982   20.2907 C   0  0  0  0  0  0
  -28.2396  -18.1427   20.4896 C   0  0  0  0  0  0
  -29.5376  -17.5370   20.4734 C   0  0  0  0  0  0
  -28.9593  -20.5786   20.3041 C   0  0  0  0  0  0
  -27.9644  -19.5572   20.3992 C   0  0  0  0  0  0
  -28.9304  -23.3609   20.2667 C   0  0  0  0  0  0
  -27.9099  -24.6404   20.0006 C   0  0  0  0  0  0
  -28.4680  -22.0258   20.1786 N   0  0  0  0  0  0
  -29.6243  -16.0086   20.6072 N   0  0  0  0  0  0
  -30.1122  -23.5927   20.5350 O   0  0  0  0  0  0
  -26.6671  -19.9507   20.4038 F   0  0  0  0  0  0
  -31.4844  -12.7383   19.1752 H   0  0  0  0  0  0
  -30.4520  -11.6030   19.9989 H   0  0  0  0  0  0
  -29.8366  -11.7451   17.5617 H   0  0  0  0  0  0
  -29.6166  -13.4710   17.6997 H   0  0  0  0  0  0
  -27.9406  -11.2757   18.9515 H   0  0  0  0  0  0
  -27.3953  -12.4769   17.8097 H   0  0  0  0  0  0
  -27.6101  -14.2476   19.4324 H   0  0  0  0  0  0
  -28.7617  -12.2309   21.4245 H   0  0  0  0  0  0
  -28.3859  -13.8962   21.7849 H   0  0  0  0  0  0
  -25.2767   -9.5674   22.4762 H   0  0  0  0  0  0
  -23.9995   -7.4633   22.7476 H   0  0  0  0  0  0
  -21.0839   -8.8784   19.8959 H   0  0  0  0  0  0
  -22.3705  -10.9676   19.6171 H   0  0  0  0  0  0
  -21.2010   -7.6141   23.9709 H   0  0  0  0  0  0
  -21.1483   -6.0517   25.9072 H   0  0  0  0  0  0
  -22.0596   -2.7603   23.2848 H   0  0  0  0  0  0
  -22.4073  -11.9888   22.4838 H   0  0  0  0  0  0
  -21.1080  -13.1251   22.2629 H   0  0  0  0  0  0
  -24.6299  -15.8279   20.4806 H   0  0  0  0  0  0
  -26.2201  -15.6099   19.9582 H   0  0  0  0  0  0
  -26.7284  -32.5304   23.1019 H   0  0  0  0  0  0
  -25.0087  -33.9620   25.0332 H   0  0  0  0  0  0
  -22.7507  -31.2922   21.3828 H   0  0  0  0  0  0
  -23.3749  -35.9597   23.3319 H   0  0  0  0  0  0
  -24.3573  -36.8871   22.2053 H   0  0  0  0  0  0
  -23.7267  -37.6465   23.6669 H   0  0  0  0  0  0
  -26.1638  -31.4760   20.6202 H   0  0  0  0  0  0
  -26.8746  -30.7664   22.0337 H   0  0  0  0  0  0
  -28.1353  -28.7977   21.2346 H   0  0  0  0  0  0
  -25.8960  -25.8642   18.9812 H   0  0  0  0  0  0
  -23.9771  -27.3112   18.9782 H   0  0  0  0  0  0
  -23.8123  -30.5751   19.4004 H   0  0  0  0  0  0
  -22.7889  -29.2427   19.8418 H   0  0  0  0  0  0
  -25.1316  -36.1868   25.0809 H   0  0  0  0  0  0
  -21.0023  -28.3313   24.1353 H   0  0  0  0  0  0
  -20.5685  -26.2336   23.3623 H   0  0  0  0  0  0
  -21.6660  -26.7422   22.1202 H   0  0  0  0  0  0
  -19.6920  -25.6282   21.1257 H   0  0  0  0  0  0
  -19.6691  -27.3176   20.6736 H   0  0  0  0  0  0
  -17.4212  -26.6677   21.4036 H   0  0  0  0  0  0
  -18.0343  -26.0079   22.9031 H   0  0  0  0  0  0
  -19.7955  -30.7300   24.2228 H   0  0  0  0  0  0
  -17.5024  -31.6263   24.5165 H   0  0  0  0  0  0
  -15.5366  -30.2968   23.7664 H   0  0  0  0  0  0
  -15.8700  -28.0805   22.7076 H   0  0  0  0  0  0
  -24.5890  -30.7107   25.7742 H   0  0  0  0  0  0
  -24.8890  -32.2951   26.4780 H   0  0  0  0  0  0
  -25.7980  -30.8981   27.0239 H   0  0  0  0  0  0
  -26.3004  -29.6679   24.1307 H   0  0  0  0  0  0
  -27.3959  -29.7249   25.4905 H   0  0  0  0  0  0
  -27.8931  -30.4168   23.9663 H   0  0  0  0  0  0
  -27.2655  -33.3642   26.2046 H   0  0  0  0  0  0
  -28.3893  -32.6869   25.0356 H   0  0  0  0  0  0
  -28.0707  -31.8484   26.5461 H   0  0  0  0  0  0
  -28.2614  -38.0066   24.7468 H   0  0  0  0  0  0
  -28.1045  -36.2596   24.6362 H   0  0  0  0  0  0
  -27.2283  -37.1523   25.8873 H   0  0  0  0  0  0
  -20.9479  -29.8766   21.6786 H   0  0  0  0  0  0
  -26.0164  -38.2816   24.1359 H   0  0  0  0  0  0
  -31.5893  -18.2394   20.3456 H   0  0  0  0  0  0
  -31.1257  -20.6684   20.2073 H   0  0  0  0  0  0
  -27.3790  -17.4966   20.5727 H   0  0  0  0  0  0
  -27.0217  -24.4352   20.5988 H   0  0  0  0  0  0
  -27.6067  -24.5279   18.9598 H   0  0  0  0  0  0
  -27.4699  -22.0293   20.0105 H   0  0  0  0  0  0
  -28.7206  -15.6158   20.8204 H   0  0  0  0  0  0
  1 25  1  0  0  0
  1 30  2  0  0  0
  1 80  1  0  0  0
  2  3  1  0  0  0
  2 25  1  0  0  0
  2 83  1  0  0  0
  2 84  1  0  0  0
  3  4  1  0  0  0
  3 85  1  0  0  0
  3 86  1  0  0  0
  4  5  1  0  0  0
  4 87  1  0  0  0
  4 88  1  0  0  0
  5  6  1  0  0  0
  5 26  1  0  0  0
  5 89  1  0  0  0
  6 25  1  0  0  0
  6 90  1  0  0  0
  6 91  1  0  0  0
  7  8  2  0  0  0
  7 26  1  0  0  0
  7 29  1  0  0  0
  8  9  1  0  0  0
  8 22  1  0  0  0
  9 10  1  0  0  0
  9 27  2  0  0  0
 10 11  2  0  0  0
 10 15  1  0  0  0
 11 12  1  0  0  0
 11 92  1  0  0  0
 12 13  2  0  0  0
 12 93  1  0  0  0
 13 14  1  0  0  0
 13 31  1  0  0  0
 14 15  2  0  0  0
 14 94  1  0  0  0
 15 95  1  0  0  0
 16 17  2  0  0  0
 16 21  1  0  0  0
 16 31  1  0  0  0
 17 18  1  0  0  0
 17 96  1  0  0  0
 18 19  2  0  0  0
 18 97  1  0  0  0
 19 20  1  0  0  0
 19 24  1  0  0  0
 20 21  2  0  0  0
 20 98  1  0  0  0
 21 23  1  0  0  0
 22 28  1  0  0  0
 22 32  2  0  0  0
 26 27  1  0  0  0
 28 99  1  0  0  0
 28100  1  0  0  0
 29101  1  0  0  0
 29102  1  0  0  0
 33 34  1  0  0  0
 33 66  1  0  0  0
 33 70  2  0  0  0
 34 36  1  0  0  0
 34 59  1  0  0  0
 34103  1  0  0  0
 35 44  2  0  0  0
 35 45  1  0  0  0
 35 68  1  0  0  0
 36 56  1  0  0  0
 36104  1  0  0  0
 37 39  1  0  0  0
 37 47  1  0  0  0
 37 66  1  0  0  0
 37105  1  0  0  0
 38 43  2  0  0  0
 38 46  1  0  0  0
 38 47  1  0  0  0
 39 64  1  0  0  0
 39 67  2  0  0  0
 40 52  1  0  0  0
 40 53  2  0  0  0
 40 58  1  0  0  0
 41106  1  0  0  0
 41107  1  0  0  0
 41108  1  0  0  0
 41 48  1  0  0  0
 42 43  1  0  0  0
 42 66  1  0  0  0
 42109  1  0  0  0
 42110  1  0  0  0
 43 44  1  0  0  0
 44111  1  0  0  0
 45 46  2  0  0  0
 45112  1  0  0  0
 46113  1  0  0  0
 47114  1  0  0  0
 47115  1  0  0  0
 48 56  1  0  0  0
 48 65  1  0  0  0
 48116  1  0  0  0
 49 50  1  0  0  0
 49 53  1  0  0  0
 49 64  1  0  0  0
 49117  1  0  0  0
 50 51  1  0  0  0
 50118  1  0  0  0
 50119  1  0  0  0
 51 52  1  0  0  0
 51120  1  0  0  0
 51121  1  0  0  0
 52122  1  0  0  0
 52123  1  0  0  0
 53 54  1  0  0  0
 54 55  2  0  0  0
 54124  1  0  0  0
 55 57  1  0  0  0
 55125  1  0  0  0
 56 69  2  0  0  0
 57 58  2  0  0  0
 57126  1  0  0  0
 58127  1  0  0  0
 59 60  1  0  0  0
 59 61  1  0  0  0
 59 62  1  0  0  0
 60128  1  0  0  0
 60129  1  0  0  0
 60130  1  0  0  0
 61131  1  0  0  0
 61132  1  0  0  0
 61133  1  0  0  0
 62134  1  0  0  0
 62135  1  0  0  0
 62136  1  0  0  0
 63 65  1  0  0  0
 63137  1  0  0  0
 63138  1  0  0  0
 63139  1  0  0  0
 64140  1  0  0  0
 65141  1  0  0  0
 68 78  1  0  0  0
 71 72  2  0  0  0
 71 74  1  0  0  0
 71142  1  0  0  0
 72 75  1  0  0  0
 72143  1  0  0  0
 73 74  2  0  0  0
 73 76  1  0  0  0
 73144  1  0  0  0
 74 80  1  0  0  0
 75 76  2  0  0  0
 75 79  1  0  0  0
 76 82  1  0  0  0
 77 78  1  0  0  0
 77 79  1  0  0  0
 77 81  2  0  0  0
 78145  1  0  0  0
 78146  1  0  0  0
 79147  1  0  0  0
 80148  1  0  0  0
M  ISO  4   1 100  68 101  78 101  80 100
M  END
> <chiral flag>
0

> <version>
0

> <s_m_source_file>
/data/baiqing/PycharmProjects/Reinvent-master-3.2/result/LINK_invent/BTK/process_docking_weight1_custom_sum_contain_oxygen_bond_distance_aromatic_linkinvent_7_9_3/rearranged_h_0010.sdf

> <i_m_source_file_index>
28

> <r_mmod_Potential_Energy-OPLS-2005>
408.086791992188

> <r_mmod_Stretch_Energy-OPLS-2005>
218.79460144043

> <r_mmod_Bend_Energy-OPLS-2005>
281.798767089844

> <r_mmod_Torsional_Energy-OPLS-2005>
220.497772216797

> <r_mmod_Improper_Torsional_Energy-OPLS-2005>
5.07187652587891

> <r_mmod_Van_der_Waal_Energy-OPLS-2005>
130.193206787109

> <r_mmod_Electrostatic_Energy-OPLS-2005>
-389.395721435547

> <r_mmod_Solvation_Energy-OPLS-2005>
-242.372695922852

> <b_mmod_Minimization_Converged-OPLS-2005>
0

> <r_mmod_RMS_Derivative-OPLS-2005>
0.813941478729248

$$$$
28
                    3D
 Structure written by MMmdl.
151159  0  0  1  0            999 V2000
  -30.6182  -14.6508   20.4889 C   0  0  0  0  0  0
  -30.4343  -12.3957   19.4577 C   0  0  0  0  0  0
  -29.5097  -12.5117   18.2259 C   0  0  0  0  0  0
  -28.0316  -12.3464   18.6328 C   0  0  0  0  0  0
  -27.6501  -13.2187   19.8584 C   0  0  2  0  0  0
  -28.6913  -13.0857   20.9919 C   0  0  0  0  0  0
  -25.2542  -13.8181   20.5666 C   0  0  0  0  0  0
  -24.1812  -13.0457   20.9192 C   0  0  0  0  0  0
  -24.6371  -11.6919   20.8731 C   0  0  0  0  0  0
  -23.9039  -10.4298   21.0406 C   0  0  0  0  0  0
  -24.3594   -9.4215   21.9183 C   0  0  0  0  0  0
  -23.6271   -8.2250   22.0745 C   0  0  0  0  0  0
  -22.4261   -8.0281   21.3533 C   0  0  0  0  0  0
  -21.9897   -9.0255   20.4649 C   0  0  0  0  0  0
  -22.7219  -10.2137   20.3050 C   0  0  0  0  0  0
  -21.6860   -6.0729   22.5281 C   0  0  0  0  0  0
  -21.4019   -6.5629   23.8210 C   0  0  0  0  0  0
  -21.3666   -5.6777   24.9175 C   0  0  0  0  0  0
  -21.6047   -4.3043   24.7227 C   0  0  0  0  0  0
  -21.8817   -3.8136   23.4346 C   0  0  0  0  0  0
  -21.9196   -4.6954   22.3409 C   0  0  0  0  0  0
  -22.7839  -13.5262   21.1865 C   0  0  0  0  0  0
  -22.1667   -4.2147   21.0981 F   0  0  0  0  0  0
  -21.5637   -3.4521   25.7736 F   0  0  0  0  0  0
  -30.0088  -13.4237   20.4293 N   0  0  0  0  0  0
  -26.2954  -12.9361   20.3257 N   0  0  0  0  0  0
  -25.9298  -11.6510   20.5711 N   0  0  0  0  0  0
  -22.0461  -12.8256   22.0412 N   0  0  0  0  0  0
  -25.4244  -15.1898   20.4087 N   0  0  0  0  0  0
  -31.7887  -14.7985   20.1222 O   0  0  0  0  0  0
  -21.6635   -6.8873   21.4237 O   0  0  0  0  0  0
  -22.3540  -14.5581   20.6729 O   0  0  0  0  0  0
  -24.6265  -31.8612   23.2049 C   0  0  0  0  0  0
  -25.9115  -32.4783   23.8371 C   0  0  1  0  0  0
  -27.2165  -27.3169   20.1104 C   0  0  0  0  0  0
  -25.5942  -33.8583   24.2311 N   0  0  0  0  0  0
  -23.4198  -30.4883   21.5465 C   0  0  2  0  0  0
  -24.8649  -28.9471   20.1101 C   0  0  0  0  0  0
  -22.7481  -29.4638   22.4917 C   0  0  0  0  0  0
  -18.0294  -28.1402   22.8482 C   0  0  0  0  0  0
  -24.1486  -36.7294   23.2634 C   0  0  0  0  0  0
  -25.9617  -30.7891   21.3788 C   0  0  0  0  0  0
  -26.0343  -29.4159   20.7224 C   0  0  0  0  0  0
  -27.2132  -28.6106   20.7180 C   0  0  0  0  0  0
  -26.0288  -26.9151   19.4564 C   0  0  0  0  0  0
  -24.8642  -27.7017   19.4685 C   0  0  0  0  0  0
  -23.6357  -29.8299   20.1593 C   0  0  0  0  0  0
  -25.4107  -36.3086   24.0333 C   0  0  1  0  0  0
  -20.5895  -28.3704   23.1280 C   0  0  2  0  0  0
  -20.6783  -26.9428   22.5400 C   0  0  0  0  0  0
  -19.5755  -26.6398   21.5210 C   0  0  0  0  0  0
  -18.1942  -26.7940   22.1635 C   0  0  0  0  0  0
  -19.1544  -28.8869   23.2884 C   0  0  0  0  0  0
  -18.9462  -30.1468   23.8909 C   0  0  0  0  0  0
  -17.6458  -30.6592   24.0578 C   0  0  0  0  0  0
  -25.9045  -34.9453   23.5116 C   0  0  0  0  0  0
  -16.5355  -29.9096   23.6322 C   0  0  0  0  0  0
  -16.7281  -28.6522   23.0333 C   0  0  0  0  0  0
  -26.4503  -31.6577   25.0730 C   0  0  0  0  0  0
  -25.3742  -31.3713   26.1463 C   0  0  0  0  0  0
  -27.0335  -30.3000   24.6176 C   0  0  0  0  0  0
  -27.6078  -32.4292   25.7498 C   0  0  0  0  0  0
  -27.5580  -37.1804   24.8466 C   0  0  0  0  0  0
  -21.4193  -29.3060   22.3665 N   0  0  0  0  0  0
  -26.4292  -37.3775   23.9411 N   0  0  0  0  0  0
  -24.6879  -31.0627   22.1002 N   0  0  0  0  0  0
  -23.4203  -28.8163   23.2982 O   0  0  0  0  0  0
  -28.3230  -26.4523   20.1399 O   0  0  0  0  0  0
  -26.5595  -34.8917   22.4674 O   0  0  0  0  0  0
  -23.5429  -32.1406   23.7373 O   0  0  0  0  0  0
  -28.7814  -19.3998   20.5810 C   0  0  0  0  0  0
  -28.7609  -17.9817   20.7731 C   0  0  0  0  0  0
  -31.1007  -17.8477   20.2574 C   0  0  0  0  0  0
  -29.9706  -20.0804   20.2182 C   0  0  0  0  0  0
  -29.9121  -17.1592   20.6076 C   0  0  0  0  0  0
  -31.1242  -19.2605   20.0691 C   0  0  0  0  0  0
  -29.2411  -24.0108   20.1397 C   0  0  0  0  0  0
  -30.0931  -21.6198   19.9044 C   0  0  0  0  0  0
  -28.0412  -25.0067   20.3647 C   0  0  0  0  0  0
  -29.8001  -15.7074   20.8040 N   0  0  0  0  0  0
  -29.0635  -22.6526   20.2691 N   0  0  0  0  0  0
  -30.3382  -24.4724   19.8153 O   0  0  0  0  0  0
  -32.2977  -19.8382   19.7167 F   0  0  0  0  0  0
  -31.4775  -12.5160   19.1596 H   0  0  0  0  0  0
  -30.3632  -11.4019   19.9019 H   0  0  0  0  0  0
  -29.7794  -11.7649   17.4785 H   0  0  0  0  0  0
  -29.6500  -13.4844   17.7501 H   0  0  0  0  0  0
  -27.8647  -11.2938   18.8622 H   0  0  0  0  0  0
  -27.3798  -12.5803   17.7899 H   0  0  0  0  0  0
  -27.6650  -14.2510   19.5073 H   0  0  0  0  0  0
  -28.7009  -12.0712   21.3917 H   0  0  0  0  0  0
  -28.4306  -13.7336   21.8316 H   0  0  0  0  0  0
  -25.2738   -9.5720   22.4752 H   0  0  0  0  0  0
  -24.0009   -7.4652   22.7448 H   0  0  0  0  0  0
  -21.0841   -8.8772   19.8949 H   0  0  0  0  0  0
  -22.3676  -10.9673   19.6158 H   0  0  0  0  0  0
  -21.1998   -7.6131   23.9721 H   0  0  0  0  0  0
  -21.1495   -6.0499   25.9080 H   0  0  0  0  0  0
  -22.0587   -2.7596   23.2839 H   0  0  0  0  0  0
  -22.4054  -11.9921   22.4827 H   0  0  0  0  0  0
  -21.1072  -13.1296   22.2601 H   0  0  0  0  0  0
  -24.6471  -15.8347   20.5007 H   0  0  0  0  0  0
  -26.2574  -15.6274   20.0385 H   0  0  0  0  0  0
  -26.7182  -32.5457   23.1116 H   0  0  0  0  0  0
  -25.0132  -33.9729   25.0490 H   0  0  0  0  0  0
  -22.7132  -31.3091   21.4062 H   0  0  0  0  0  0
  -23.3736  -35.9637   23.3308 H   0  0  0  0  0  0
  -24.3581  -36.8897   22.2044 H   0  0  0  0  0  0
  -23.7254  -37.6514   23.6636 H   0  0  0  0  0  0
  -26.0922  -31.5513   20.6091 H   0  0  0  0  0  0
  -26.8433  -30.8397   22.0056 H   0  0  0  0  0  0
  -28.1077  -28.9617   21.2125 H   0  0  0  0  0  0
  -25.9695  -25.9885   18.9076 H   0  0  0  0  0  0
  -23.9746  -27.3478   18.9649 H   0  0  0  0  0  0
  -23.7605  -30.6104   19.4072 H   0  0  0  0  0  0
  -22.7537  -29.2652   19.8514 H   0  0  0  0  0  0
  -25.1279  -36.1942   25.0826 H   0  0  0  0  0  0
  -21.0004  -28.3286   24.1398 H   0  0  0  0  0  0
  -20.5708  -26.2314   23.3598 H   0  0  0  0  0  0
  -21.6651  -26.7475   22.1184 H   0  0  0  0  0  0
  -19.6917  -25.6311   21.1241 H   0  0  0  0  0  0
  -19.6692  -27.3208   20.6737 H   0  0  0  0  0  0
  -17.4204  -26.6677   21.4047 H   0  0  0  0  0  0
  -18.0367  -26.0099   22.9055 H   0  0  0  0  0  0
  -19.7934  -30.7284   24.2296 H   0  0  0  0  0  0
  -17.5009  -31.6264   24.5191 H   0  0  0  0  0  0
  -15.5358  -30.2999   23.7636 H   0  0  0  0  0  0
  -15.8689  -28.0848   22.7025 H   0  0  0  0  0  0
  -24.5909  -30.7074   25.7791 H   0  0  0  0  0  0
  -24.8940  -32.2878   26.4898 H   0  0  0  0  0  0
  -25.8070  -30.8880   27.0230 H   0  0  0  0  0  0
  -26.2901  -29.6752   24.1213 H   0  0  0  0  0  0
  -27.4052  -29.7255   25.4669 H   0  0  0  0  0  0
  -27.8764  -30.4282   23.9381 H   0  0  0  0  0  0
  -27.2719  -33.3606   26.2060 H   0  0  0  0  0  0
  -28.3899  -32.6819   25.0327 H   0  0  0  0  0  0
  -28.0724  -31.8411   26.5423 H   0  0  0  0  0  0
  -28.2588  -38.0106   24.7512 H   0  0  0  0  0  0
  -28.1086  -36.2641   24.6288 H   0  0  0  0  0  0
  -27.2304  -37.1452   25.8870 H   0  0  0  0  0  0
  -20.9361  -29.8799   21.6895 H   0  0  0  0  0  0
  -26.0172  -38.2852   24.1406 H   0  0  0  0  0  0
  -27.8640  -19.9591   20.6961 H   0  0  0  0  0  0
  -27.8212  -17.5225   21.0444 H   0  0  0  0  0  0
  -32.0249  -17.3084   20.1209 H   0  0  0  0  0  0
  -30.2153  -21.6860   18.8221 H   0  0  0  0  0  0
  -31.0487  -21.9498   20.3155 H   0  0  0  0  0  0
  -27.6810  -24.8795   21.3866 H   0  0  0  0  0  0
  -27.2591  -24.6279   19.7118 H   0  0  0  0  0  0
  -28.8868  -15.4017   21.1032 H   0  0  0  0  0  0
  -28.1503  -22.3225   20.5503 H   0  0  0  0  0  0
  1 25  1  0  0  0
  1 30  2  0  0  0
  1 80  1  0  0  0
  2  3  1  0  0  0
  2 25  1  0  0  0
  2 84  1  0  0  0
  2 85  1  0  0  0
  3  4  1  0  0  0
  3 86  1  0  0  0
  3 87  1  0  0  0
  4  5  1  0  0  0
  4 88  1  0  0  0
  4 89  1  0  0  0
  5  6  1  0  0  0
  5 26  1  0  0  0
  5 90  1  0  0  0
  6 25  1  0  0  0
  6 91  1  0  0  0
  6 92  1  0  0  0
  7  8  2  0  0  0
  7 26  1  0  0  0
  7 29  1  0  0  0
  8  9  1  0  0  0
  8 22  1  0  0  0
  9 10  1  0  0  0
  9 27  2  0  0  0
 10 11  2  0  0  0
 10 15  1  0  0  0
 11 12  1  0  0  0
 11 93  1  0  0  0
 12 13  2  0  0  0
 12 94  1  0  0  0
 13 14  1  0  0  0
 13 31  1  0  0  0
 14 15  2  0  0  0
 14 95  1  0  0  0
 15 96  1  0  0  0
 16 17  2  0  0  0
 16 21  1  0  0  0
 16 31  1  0  0  0
 17 18  1  0  0  0
 17 97  1  0  0  0
 18 19  2  0  0  0
 18 98  1  0  0  0
 19 20  1  0  0  0
 19 24  1  0  0  0
 20 21  2  0  0  0
 20 99  1  0  0  0
 21 23  1  0  0  0
 22 28  1  0  0  0
 22 32  2  0  0  0
 26 27  1  0  0  0
 28100  1  0  0  0
 28101  1  0  0  0
 29102  1  0  0  0
 29103  1  0  0  0
 33 34  1  0  0  0
 33 66  1  0  0  0
 33 70  2  0  0  0
 34 36  1  0  0  0
 34 59  1  0  0  0
 34104  1  0  0  0
 35 44  2  0  0  0
 35 45  1  0  0  0
 35 68  1  0  0  0
 36 56  1  0  0  0
 36105  1  0  0  0
 37 39  1  0  0  0
 37 47  1  0  0  0
 37 66  1  0  0  0
 37106  1  0  0  0
 38 43  2  0  0  0
 38 46  1  0  0  0
 38 47  1  0  0  0
 39 64  1  0  0  0
 39 67  2  0  0  0
 40 52  1  0  0  0
 40 53  2  0  0  0
 40 58  1  0  0  0
 41107  1  0  0  0
 41108  1  0  0  0
 41109  1  0  0  0
 41 48  1  0  0  0
 42 43  1  0  0  0
 42 66  1  0  0  0
 42110  1  0  0  0
 42111  1  0  0  0
 43 44  1  0  0  0
 44112  1  0  0  0
 45 46  2  0  0  0
 45113  1  0  0  0
 46114  1  0  0  0
 47115  1  0  0  0
 47116  1  0  0  0
 48 56  1  0  0  0
 48 65  1  0  0  0
 48117  1  0  0  0
 49 50  1  0  0  0
 49 53  1  0  0  0
 49 64  1  0  0  0
 49118  1  0  0  0
 50 51  1  0  0  0
 50119  1  0  0  0
 50120  1  0  0  0
 51 52  1  0  0  0
 51121  1  0  0  0
 51122  1  0  0  0
 52123  1  0  0  0
 52124  1  0  0  0
 53 54  1  0  0  0
 54 55  2  0  0  0
 54125  1  0  0  0
 55 57  1  0  0  0
 55126  1  0  0  0
 56 69  2  0  0  0
 57 58  2  0  0  0
 57127  1  0  0  0
 58128  1  0  0  0
 59 60  1  0  0  0
 59 61  1  0  0  0
 59 62  1  0  0  0
 60129  1  0  0  0
 60130  1  0  0  0
 60131  1  0  0  0
 61132  1  0  0  0
 61133  1  0  0  0
 61134  1  0  0  0
 62135  1  0  0  0
 62136  1  0  0  0
 62137  1  0  0  0
 63 65  1  0  0  0
 63138  1  0  0  0
 63139  1  0  0  0
 63140  1  0  0  0
 64141  1  0  0  0
 65142  1  0  0  0
 68 79  1  0  0  0
 71 72  2  0  0  0
 71 74  1  0  0  0
 71143  1  0  0  0
 72 75  1  0  0  0
 72144  1  0  0  0
 73 75  2  0  0  0
 73 76  1  0  0  0
 73145  1  0  0  0
 74 76  2  0  0  0
 74 78  1  0  0  0
 75 80  1  0  0  0
 76 83  1  0  0  0
 77 79  1  0  0  0
 77 81  1  0  0  0
 77 82  2  0  0  0
 78 81  1  0  0  0
 78146  1  0  0  0
 78147  1  0  0  0
 79148  1  0  0  0
 79149  1  0  0  0
 80150  1  0  0  0
 81151  1  0  0  0
M  ISO  4   1 100  68 101  79 101  80 100
M  END
> <chiral flag>
0

> <version>
0

> <s_m_source_file>
/data/baiqing/PycharmProjects/Reinvent-master-3.2/result/LINK_invent/BTK/process_docking_weight1_custom_sum_contain_oxygen_bond_distance_aromatic_linkinvent_7_9_3/rearranged_h_0010.sdf

> <i_m_source_file_index>
29

> <r_mmod_Potential_Energy-OPLS-2005>
14.2365608215332

> <r_mmod_Stretch_Energy-OPLS-2005>
79.1475448608398

> <r_mmod_Bend_Energy-OPLS-2005>
140.470153808594

> <r_mmod_Torsional_Energy-OPLS-2005>
216.263656616211

> <r_mmod_Improper_Torsional_Energy-OPLS-2005>
4.705735206604

> <r_mmod_Van_der_Waal_Energy-OPLS-2005>
146.55354309082

> <r_mmod_Electrostatic_Energy-OPLS-2005>
-375.890625

> <r_mmod_Solvation_Energy-OPLS-2005>
-248.972244262695

> <b_mmod_Minimization_Converged-OPLS-2005>
0

> <r_mmod_RMS_Derivative-OPLS-2005>
2.50171446800232

$$$$
29
                    3D
 Structure written by MMmdl.
186195  0  0  1  0            999 V2000
  -30.7302  -14.3947   20.5815 C   0  0  0  0  0  0
  -30.4159  -12.2590   19.4145 C   0  0  0  0  0  0
  -29.4951  -12.5015   18.2015 C   0  0  0  0  0  0
  -28.0126  -12.3789   18.6078 C   0  0  0  0  0  0
  -27.6668  -13.2031   19.8777 C   0  0  2  0  0  0
  -28.7044  -12.9514   20.9958 C   0  0  0  0  0  0
  -25.2617  -13.8159   20.5675 C   0  0  0  0  0  0
  -24.1855  -13.0444   20.9157 C   0  0  0  0  0  0
  -24.6395  -11.6909   20.8710 C   0  0  0  0  0  0
  -23.9057  -10.4296   21.0395 C   0  0  0  0  0  0
  -24.3609   -9.4211   21.9173 C   0  0  0  0  0  0
  -23.6288   -8.2244   22.0750 C   0  0  0  0  0  0
  -22.4272   -8.0279   21.3538 C   0  0  0  0  0  0
  -21.9900   -9.0251   20.4643 C   0  0  0  0  0  0
  -22.7227  -10.2136   20.3048 C   0  0  0  0  0  0
  -21.6854   -6.0735   22.5280 C   0  0  0  0  0  0
  -21.4012   -6.5638   23.8213 C   0  0  0  0  0  0
  -21.3657   -5.6789   24.9173 C   0  0  0  0  0  0
  -21.6047   -4.3051   24.7224 C   0  0  0  0  0  0
  -21.8819   -3.8147   23.4342 C   0  0  0  0  0  0
  -21.9191   -4.6964   22.3400 C   0  0  0  0  0  0
  -22.7879  -13.5249   21.1818 C   0  0  0  0  0  0
  -22.1662   -4.2152   21.0978 F   0  0  0  0  0  0
  -21.5629   -3.4534   25.7733 F   0  0  0  0  0  0
  -30.0464  -13.2304   20.4538 N   0  0  0  0  0  0
  -26.3053  -12.9324   20.3360 N   0  0  0  0  0  0
  -25.9321  -11.6488   20.5744 N   0  0  0  0  0  0
  -22.0508  -12.8257   22.0382 N   0  0  0  0  0  0
  -25.4354  -15.1880   20.4116 N   0  0  0  0  0  0
  -31.8547  -14.5599   20.1000 O   0  0  0  0  0  0
  -21.6639   -6.8878   21.4240 O   0  0  0  0  0  0
  -22.3565  -14.5549   20.6665 O   0  0  0  0  0  0
  -24.6077  -31.8699   23.2116 C   0  0  0  0  0  0
  -25.8977  -32.4842   23.8415 C   0  0  1  0  0  0
  -27.2727  -27.4992   20.1121 C   0  0  0  0  0  0
  -25.5813  -33.8635   24.2338 N   0  0  0  0  0  0
  -23.3947  -30.4912   21.5481 C   0  0  2  0  0  0
  -24.8481  -28.9597   20.1167 C   0  0  0  0  0  0
  -22.7372  -29.4680   22.5000 C   0  0  0  0  0  0
  -18.0267  -28.1412   22.8490 C   0  0  0  0  0  0
  -24.1438  -36.7385   23.2639 C   0  0  0  0  0  0
  -25.9109  -30.8658   21.3467 C   0  0  0  0  0  0
  -25.9954  -29.5004   20.7047 C   0  0  0  0  0  0
  -27.2039  -28.7855   20.6963 C   0  0  0  0  0  0
  -26.1072  -26.9618   19.5241 C   0  0  0  0  0  0
  -24.8950  -27.6851   19.5205 C   0  0  0  0  0  0
  -23.6007  -29.8115   20.1650 C   0  0  0  0  0  0
  -25.4050  -36.3136   24.0334 C   0  0  1  0  0  0
  -20.5852  -28.3681   23.1335 C   0  0  2  0  0  0
  -20.6769  -26.9420   22.5438 C   0  0  0  0  0  0
  -19.5752  -26.6402   21.5231 C   0  0  0  0  0  0
  -18.1920  -26.7957   22.1626 C   0  0  0  0  0  0
  -19.1517  -28.8861   23.2915 C   0  0  0  0  0  0
  -18.9450  -30.1462   23.8934 C   0  0  0  0  0  0
  -17.6455  -30.6604   24.0584 C   0  0  0  0  0  0
  -25.8972  -34.9492   23.5138 C   0  0  0  0  0  0
  -16.5342  -29.9127   23.6322 C   0  0  0  0  0  0
  -16.7261  -28.6551   23.0329 C   0  0  0  0  0  0
  -26.4473  -31.6631   25.0718 C   0  0  0  0  0  0
  -25.3785  -31.3748   26.1521 C   0  0  0  0  0  0
  -27.0301  -30.3075   24.6066 C   0  0  0  0  0  0
  -27.6095  -32.4351   25.7408 C   0  0  0  0  0  0
  -27.5552  -37.1829   24.8444 C   0  0  0  0  0  0
  -21.4112  -29.3027   22.3724 N   0  0  0  0  0  0
  -26.4255  -37.3802   23.9404 N   0  0  0  0  0  0
  -24.6562  -31.0882   22.0966 N   0  0  0  0  0  0
  -23.4168  -28.8238   23.3034 O   0  0  0  0  0  0
  -28.4205  -26.7318   20.0833 O   0  0  0  0  0  0
  -26.5567  -34.8937   22.4717 O   0  0  0  0  0  0
  -23.5284  -32.1405   23.7554 O   0  0  0  0  0  0
  -30.9535  -18.7362   19.7154 C   0  0  0  0  0  0
  -28.8751  -18.9086   20.9495 C   0  0  0  0  0  0
  -31.0639  -17.3852   20.0784 C   0  0  0  0  0  0
  -28.9751  -17.5470   21.3021 C   0  0  0  0  0  0
  -29.8638  -19.5289   20.1448 C   0  0  0  0  0  0
  -30.0607  -16.7647   20.8608 C   0  0  0  0  0  0
  -32.7772  -24.3817   20.7843 C   0  0  0  0  0  0
  -31.1246  -21.7137   19.9063 C   0  0  0  0  0  0
  -33.3383  -27.7147   21.4253 C   0  0  0  0  0  0
  -34.2753  -26.4430   23.4103 C   0  0  0  0  0  0
  -33.9640  -26.5487   20.6278 C   0  0  0  0  0  0
  -34.4149  -25.1486   22.5578 C   0  0  0  0  0  0
  -33.1508  -27.4017   22.9365 C   0  0  0  0  0  0
  -29.4027  -21.0205   18.1841 C   0  0  0  0  0  0
  -28.6338  -21.7774   20.4280 C   0  0  0  0  0  0
  -32.5470  -23.0264   21.4917 C   0  0  0  0  0  0
  -29.4832  -27.0821   22.3035 C   0  0  0  0  0  0
  -30.6513  -27.7440   23.0713 C   0  0  0  0  0  0
  -29.5898  -27.2062   20.7629 C   0  0  0  0  0  0
  -29.7558  -21.0016   19.6878 C   0  0  0  0  0  0
  -33.6815  -25.2638   21.2839 N   0  0  0  0  0  0
  -30.0562  -15.3804   21.1946 N   0  0  0  0  0  0
  -31.3267  -22.3277   21.0781 N   0  0  0  0  0  0
  -31.8097  -26.8352   23.2369 N   0  3  0  0  0  0
  -32.1078  -24.6595   19.7853 O   0  0  0  0  0  0
  -31.9997  -21.6859   19.0363 O   0  0  0  0  0  0
  -31.4635  -12.3360   19.1173 H   0  0  0  0  0  0
  -30.2927  -11.2428   19.7922 H   0  0  0  0  0  0
  -29.7259  -11.7904   17.4067 H   0  0  0  0  0  0
  -29.6830  -13.4935   17.7873 H   0  0  0  0  0  0
  -27.8047  -11.3228   18.7827 H   0  0  0  0  0  0
  -27.3709  -12.6791   17.7782 H   0  0  0  0  0  0
  -27.7227  -14.2558   19.5987 H   0  0  0  0  0  0
  -28.6607  -11.9116   21.3225 H   0  0  0  0  0  0
  -28.4726  -13.5394   21.8845 H   0  0  0  0  0  0
  -25.2761   -9.5694   22.4736 H   0  0  0  0  0  0
  -24.0003   -7.4644   22.7471 H   0  0  0  0  0  0
  -21.0826   -8.8761   19.8959 H   0  0  0  0  0  0
  -22.3675  -10.9664   19.6149 H   0  0  0  0  0  0
  -21.2002   -7.6149   23.9717 H   0  0  0  0  0  0
  -21.1483   -6.0520   25.9079 H   0  0  0  0  0  0
  -22.0601   -2.7610   23.2839 H   0  0  0  0  0  0
  -22.4109  -11.9927   22.4795 H   0  0  0  0  0  0
  -21.1126  -13.1299   22.2565 H   0  0  0  0  0  0
  -24.6703  -15.8449   20.5230 H   0  0  0  0  0  0
  -26.2928  -15.6277   20.1007 H   0  0  0  0  0  0
  -26.7055  -32.5605   23.1205 H   0  0  0  0  0  0
  -24.9921  -33.9774   25.0455 H   0  0  0  0  0  0
  -22.6821  -31.3062   21.4054 H   0  0  0  0  0  0
  -23.3650  -35.9769   23.3306 H   0  0  0  0  0  0
  -24.3550  -36.9002   22.2059 H   0  0  0  0  0  0
  -23.7241  -37.6612   23.6655 H   0  0  0  0  0  0
  -25.9989  -31.6271   20.5700 H   0  0  0  0  0  0
  -26.8095  -30.9392   21.9487 H   0  0  0  0  0  0
  -28.0653  -29.2508   21.1498 H   0  0  0  0  0  0
  -26.1433  -25.9797   19.0731 H   0  0  0  0  0  0
  -24.0143  -27.2574   19.0615 H   0  0  0  0  0  0
  -23.6910  -30.5785   19.3950 H   0  0  0  0  0  0
  -22.7328  -29.2123   19.8830 H   0  0  0  0  0  0
  -25.1220  -36.2009   25.0829 H   0  0  0  0  0  0
  -20.9969  -28.3280   24.1445 H   0  0  0  0  0  0
  -20.5697  -26.2290   23.3627 H   0  0  0  0  0  0
  -21.6639  -26.7483   22.1213 H   0  0  0  0  0  0
  -19.6910  -25.6314   21.1258 H   0  0  0  0  0  0
  -19.6707  -27.3228   20.6774 H   0  0  0  0  0  0
  -17.4199  -26.6709   21.4016 H   0  0  0  0  0  0
  -18.0297  -26.0110   22.9028 H   0  0  0  0  0  0
  -19.7925  -30.7263   24.2328 H   0  0  0  0  0  0
  -17.5012  -31.6278   24.5200 H   0  0  0  0  0  0
  -15.5353  -30.3050   23.7618 H   0  0  0  0  0  0
  -15.8657  -28.0897   22.7010 H   0  0  0  0  0  0
  -24.5867  -30.7185   25.7899 H   0  0  0  0  0  0
  -24.9073  -32.2911   26.5088 H   0  0  0  0  0  0
  -25.8161  -30.8827   27.0209 H   0  0  0  0  0  0
  -26.2784  -29.6763   24.1304 H   0  0  0  0  0  0
  -27.4272  -29.7405   25.4503 H   0  0  0  0  0  0
  -27.8531  -30.4426   23.9045 H   0  0  0  0  0  0
  -27.2757  -33.3663   26.2009 H   0  0  0  0  0  0
  -28.3841  -32.6896   25.0158 H   0  0  0  0  0  0
  -28.0829  -31.8459   26.5269 H   0  0  0  0  0  0
  -28.2566  -38.0125   24.7457 H   0  0  0  0  0  0
  -28.1029  -36.2648   24.6263 H   0  0  0  0  0  0
  -27.2280  -37.1503   25.8851 H   0  0  0  0  0  0
  -20.9275  -29.8696   21.6901 H   0  0  0  0  0  0
  -26.0146  -38.2879   24.1404 H   0  0  0  0  0  0
  -31.7256  -19.1516   19.0834 H   0  0  0  0  0  0
  -28.0088  -19.4513   21.2962 H   0  0  0  0  0  0
  -31.9290  -16.8555   19.7112 H   0  0  0  0  0  0
  -28.1898  -17.1037   21.8995 H   0  0  0  0  0  0
  -32.4030  -28.0201   20.9590 H   0  0  0  0  0  0
  -33.9958  -28.5796   21.3240 H   0  0  0  0  0  0
  -35.2199  -26.9865   23.3550 H   0  0  0  0  0  0
  -34.1552  -26.1917   24.4652 H   0  0  0  0  0  0
  -35.0467  -26.6785   20.5841 H   0  0  0  0  0  0
  -33.6337  -26.5823   19.5879 H   0  0  0  0  0  0
  -34.1032  -24.3025   23.1663 H   0  0  0  0  0  0
  -35.4669  -24.9585   22.3388 H   0  0  0  0  0  0
  -33.2300  -28.3321   23.5027 H   0  0  0  0  0  0
  -30.1469  -20.4990   17.5810 H   0  0  0  0  0  0
  -29.3336  -22.0408   17.8052 H   0  0  0  0  0  0
  -28.4440  -20.5367   17.9983 H   0  0  0  0  0  0
  -28.7285  -21.7103   21.5125 H   0  0  0  0  0  0
  -27.6461  -21.3967   20.1653 H   0  0  0  0  0  0
  -28.6377  -22.8363   20.1637 H   0  0  0  0  0  0
  -32.4440  -23.1693   22.5651 H   0  0  0  0  0  0
  -33.4180  -22.3887   21.3319 H   0  0  0  0  0  0
  -28.5666  -27.5627   22.6427 H   0  0  0  0  0  0
  -29.3694  -26.0355   22.5885 H   0  0  0  0  0  0
  -30.3153  -28.0171   24.0729 H   0  0  0  0  0  0
  -30.9335  -28.6854   22.5975 H   0  0  0  0  0  0
  -30.4304  -26.6064   20.4180 H   0  0  0  0  0  0
  -29.8340  -28.2241   20.4556 H   0  0  0  0  0  0
  -29.2307  -15.0613   21.6779 H   0  0  0  0  0  0
  -30.5604  -22.3094   21.7355 H   0  0  0  0  0  0
  -31.8092  -26.5399   24.2018 H   0  0  0  0  0  0
  -31.6570  -26.0171   22.6762 H   0  0  0  0  0  0
  1 25  1  0  0  0
  1 30  2  0  0  0
  1 92  1  0  0  0
  2  3  1  0  0  0
  2 25  1  0  0  0
  2 97  1  0  0  0
  2 98  1  0  0  0
  3  4  1  0  0  0
  3 99  1  0  0  0
  3100  1  0  0  0
  4  5  1  0  0  0
  4101  1  0  0  0
  4102  1  0  0  0
  5  6  1  0  0  0
  5 26  1  0  0  0
  5103  1  0  0  0
  6 25  1  0  0  0
  6104  1  0  0  0
  6105  1  0  0  0
  7  8  2  0  0  0
  7 26  1  0  0  0
  7 29  1  0  0  0
  8  9  1  0  0  0
  8 22  1  0  0  0
  9 10  1  0  0  0
  9 27  2  0  0  0
 10 11  2  0  0  0
 10 15  1  0  0  0
 11 12  1  0  0  0
 11106  1  0  0  0
 12 13  2  0  0  0
 12107  1  0  0  0
 13 14  1  0  0  0
 13 31  1  0  0  0
 14 15  2  0  0  0
 14108  1  0  0  0
 15109  1  0  0  0
 16 17  2  0  0  0
 16 21  1  0  0  0
 16 31  1  0  0  0
 17 18  1  0  0  0
 17110  1  0  0  0
 18 19  2  0  0  0
 18111  1  0  0  0
 19 20  1  0  0  0
 19 24  1  0  0  0
 20 21  2  0  0  0
 20112  1  0  0  0
 21 23  1  0  0  0
 22 28  1  0  0  0
 22 32  2  0  0  0
 26 27  1  0  0  0
 28113  1  0  0  0
 28114  1  0  0  0
 29115  1  0  0  0
 29116  1  0  0  0
 33 34  1  0  0  0
 33 66  1  0  0  0
 33 70  2  0  0  0
 34 36  1  0  0  0
 34 59  1  0  0  0
 34117  1  0  0  0
 35 44  2  0  0  0
 35 45  1  0  0  0
 35 68  1  0  0  0
 36 56  1  0  0  0
 36118  1  0  0  0
 37 39  1  0  0  0
 37 47  1  0  0  0
 37 66  1  0  0  0
 37119  1  0  0  0
 38 43  2  0  0  0
 38 46  1  0  0  0
 38 47  1  0  0  0
 39 64  1  0  0  0
 39 67  2  0  0  0
 40 52  1  0  0  0
 40 53  2  0  0  0
 40 58  1  0  0  0
 41120  1  0  0  0
 41121  1  0  0  0
 41122  1  0  0  0
 41 48  1  0  0  0
 42 43  1  0  0  0
 42 66  1  0  0  0
 42123  1  0  0  0
 42124  1  0  0  0
 43 44  1  0  0  0
 44125  1  0  0  0
 45 46  2  0  0  0
 45126  1  0  0  0
 46127  1  0  0  0
 47128  1  0  0  0
 47129  1  0  0  0
 48 56  1  0  0  0
 48 65  1  0  0  0
 48130  1  0  0  0
 49 50  1  0  0  0
 49 53  1  0  0  0
 49 64  1  0  0  0
 49131  1  0  0  0
 50 51  1  0  0  0
 50132  1  0  0  0
 50133  1  0  0  0
 51 52  1  0  0  0
 51134  1  0  0  0
 51135  1  0  0  0
 52136  1  0  0  0
 52137  1  0  0  0
 53 54  1  0  0  0
 54 55  2  0  0  0
 54138  1  0  0  0
 55 57  1  0  0  0
 55139  1  0  0  0
 56 69  2  0  0  0
 57 58  2  0  0  0
 57140  1  0  0  0
 58141  1  0  0  0
 59 60  1  0  0  0
 59 61  1  0  0  0
 59 62  1  0  0  0
 60142  1  0  0  0
 60143  1  0  0  0
 60144  1  0  0  0
 61145  1  0  0  0
 61146  1  0  0  0
 61147  1  0  0  0
 62148  1  0  0  0
 62149  1  0  0  0
 62150  1  0  0  0
 63 65  1  0  0  0
 63151  1  0  0  0
 63152  1  0  0  0
 63153  1  0  0  0
 64154  1  0  0  0
 65155  1  0  0  0
 68 89  1  0  0  0
 71 73  2  0  0  0
 71 75  1  0  0  0
 71156  1  0  0  0
 72 74  1  0  0  0
 72 75  2  0  0  0
 72157  1  0  0  0
 73 76  1  0  0  0
 73158  1  0  0  0
 74 76  2  0  0  0
 74159  1  0  0  0
 75 90  1  0  0  0
 76 92  1  0  0  0
 77 86  1  0  0  0
 77 91  1  0  0  0
 77 95  2  0  0  0
 78 90  1  0  0  0
 78 93  1  0  0  0
 78 96  2  0  0  0
 79 81  1  0  0  0
 79 83  1  0  0  0
 79160  1  0  0  0
 79161  1  0  0  0
 80 82  1  0  0  0
 80 83  1  0  0  0
 80162  1  0  0  0
 80163  1  0  0  0
 81 91  1  0  0  0
 81164  1  0  0  0
 81165  1  0  0  0
 82 91  1  0  0  0
 82166  1  0  0  0
 82167  1  0  0  0
 83 94  1  0  0  0
 83168  1  0  0  0
 84169  1  0  0  0
 84170  1  0  0  0
 84171  1  0  0  0
 84 90  1  0  0  0
 85 90  1  0  0  0
 85172  1  0  0  0
 85173  1  0  0  0
 85174  1  0  0  0
 86 93  1  0  0  0
 86175  1  0  0  0
 86176  1  0  0  0
 87 88  1  0  0  0
 87 89  1  0  0  0
 87177  1  0  0  0
 87178  1  0  0  0
 88 94  1  0  0  0
 88179  1  0  0  0
 88180  1  0  0  0
 89181  1  0  0  0
 89182  1  0  0  0
 92183  1  0  0  0
 93184  1  0  0  0
 94185  1  0  0  0
 94186  1  0  0  0
M  CHG  1  94   1
M  ISO  4   1 100  68 101  89 101  92 100
M  END
> <chiral flag>
0

> <version>
0

> <s_m_source_file>
/data/baiqing/PycharmProjects/Reinvent-master-3.2/result/LINK_invent/BTK/process_docking_weight1_custom_sum_contain_oxygen_bond_distance_aromatic_linkinvent_7_9_3/rearranged_h_0010.sdf

> <i_m_source_file_index>
30

> <r_mmod_Potential_Energy-OPLS-2005>
-158.388031005859

> <r_mmod_Stretch_Energy-OPLS-2005>
44.3053512573242

> <r_mmod_Bend_Energy-OPLS-2005>
122.664253234863

> <r_mmod_Torsional_Energy-OPLS-2005>
319.362426757812

> <r_mmod_Improper_Torsional_Energy-OPLS-2005>
4.30742502212524

> <r_mmod_Van_der_Waal_Energy-OPLS-2005>
194.818893432617

> <r_mmod_Electrostatic_Energy-OPLS-2005>
-319.984588623047

> <r_mmod_Solvation_Energy-OPLS-2005>
-532.786376953125

> <b_mmod_Minimization_Converged-OPLS-2005>
0

> <r_mmod_RMS_Derivative-OPLS-2005>
1.76917004585266

$$$$
30
                    3D
 Structure written by MMmdl.
149157  0  0  1  0            999 V2000
  -30.5268  -14.9002   20.4346 C   0  0  0  0  0  0
  -30.4537  -12.5539   19.4879 C   0  0  0  0  0  0
  -29.5240  -12.5325   18.2507 C   0  0  0  0  0  0
  -28.0532  -12.3281   18.6658 C   0  0  0  0  0  0
  -27.6386  -13.2408   19.8500 C   0  0  2  0  0  0
  -28.6865  -13.2135   20.9848 C   0  0  0  0  0  0
  -25.2451  -13.8153   20.5684 C   0  0  0  0  0  0
  -24.1765  -13.0383   20.9178 C   0  0  0  0  0  0
  -24.6400  -11.6883   20.8733 C   0  0  0  0  0  0
  -23.9083  -10.4265   21.0396 C   0  0  0  0  0  0
  -24.3627   -9.4187   21.9182 C   0  0  0  0  0  0
  -23.6292   -8.2231   22.0757 C   0  0  0  0  0  0
  -22.4273   -8.0274   21.3547 C   0  0  0  0  0  0
  -21.9913   -9.0246   20.4647 C   0  0  0  0  0  0
  -22.7251  -10.2116   20.3048 C   0  0  0  0  0  0
  -21.6850   -6.0732   22.5281 C   0  0  0  0  0  0
  -21.4012   -6.5636   23.8214 C   0  0  0  0  0  0
  -21.3660   -5.6789   24.9176 C   0  0  0  0  0  0
  -21.6043   -4.3052   24.7226 C   0  0  0  0  0  0
  -21.8819   -3.8145   23.4347 C   0  0  0  0  0  0
  -21.9192   -4.6961   22.3404 C   0  0  0  0  0  0
  -22.7789  -13.5169   21.1854 C   0  0  0  0  0  0
  -22.1661   -4.2147   21.0981 F   0  0  0  0  0  0
  -21.5629   -3.4537   25.7739 F   0  0  0  0  0  0
  -29.9733  -13.6247   20.4012 N   0  0  0  0  0  0
  -26.2930  -12.9412   20.3301 N   0  0  0  0  0  0
  -25.9345  -11.6539   20.5759 N   0  0  0  0  0  0
  -22.0451  -12.8170   22.0431 N   0  0  0  0  0  0
  -25.3973  -15.1876   20.4153 N   0  0  0  0  0  0
  -31.7150  -15.0360   20.1227 O   0  0  0  0  0  0
  -21.6634   -6.8875   21.4243 O   0  0  0  0  0  0
  -22.3465  -14.5481   20.6716 O   0  0  0  0  0  0
  -24.6417  -31.8460   23.1898 C   0  0  0  0  0  0
  -25.9197  -32.4706   23.8284 C   0  0  1  0  0  0
  -27.2240  -27.1612   20.1444 C   0  0  0  0  0  0
  -25.5951  -33.8511   24.2202 N   0  0  0  0  0  0
  -23.4443  -30.4661   21.5351 C   0  0  2  0  0  0
  -24.8944  -28.8972   20.1110 C   0  0  0  0  0  0
  -22.7558  -29.4558   22.4867 C   0  0  0  0  0  0
  -18.0304  -28.1393   22.8479 C   0  0  0  0  0  0
  -24.1491  -36.7261   23.2642 C   0  0  0  0  0  0
  -25.9990  -30.7280   21.3849 C   0  0  0  0  0  0
  -26.0717  -29.3416   20.7261 C   0  0  0  0  0  0
  -27.2376  -28.4903   20.7249 C   0  0  0  0  0  0
  -26.0175  -26.8124   19.4953 C   0  0  0  0  0  0
  -24.8790  -27.6448   19.4811 C   0  0  0  0  0  0
  -23.6697  -29.7961   20.1543 C   0  0  0  0  0  0
  -25.4122  -36.3039   24.0318 C   0  0  1  0  0  0
  -20.5915  -28.3718   23.1239 C   0  0  2  0  0  0
  -20.6787  -26.9423   22.5403 C   0  0  0  0  0  0
  -19.5761  -26.6381   21.5211 C   0  0  0  0  0  0
  -18.1943  -26.7932   22.1625 C   0  0  0  0  0  0
  -19.1560  -28.8873   23.2852 C   0  0  0  0  0  0
  -18.9476  -30.1469   23.8878 C   0  0  0  0  0  0
  -17.6473  -30.6590   24.0559 C   0  0  0  0  0  0
  -25.9070  -34.9413   23.5067 C   0  0  0  0  0  0
  -16.5365  -29.9083   23.6334 C   0  0  0  0  0  0
  -16.7289  -28.6501   23.0357 C   0  0  0  0  0  0
  -26.4524  -31.6566   25.0717 C   0  0  0  0  0  0
  -25.3713  -31.3748   26.1414 C   0  0  0  0  0  0
  -27.0389  -30.2966   24.6282 C   0  0  0  0  0  0
  -27.6055  -32.4329   25.7503 C   0  0  0  0  0  0
  -27.5575  -37.1788   24.8466 C   0  0  0  0  0  0
  -21.4253  -29.3049   22.3614 N   0  0  0  0  0  0
  -26.4288  -37.3749   23.9407 N   0  0  0  0  0  0
  -24.7147  -31.0338   22.0921 N   0  0  0  0  0  0
  -23.4209  -28.8103   23.3010 O   0  0  0  0  0  0
  -28.2885  -26.1936   20.2089 O   0  0  0  0  0  0
  -26.5654  -34.8907   22.4644 O   0  0  0  0  0  0
  -23.5540  -32.1326   23.7130 O   0  0  0  0  0  0
  -30.2718  -19.9635   20.2876 C   0  0  0  0  0  0
  -30.5709  -18.5270   20.3538 C   0  0  0  0  0  0
  -27.9792  -19.4844   20.5411 C   0  0  0  0  0  0
  -28.9448  -20.5249   20.3726 C   0  0  0  0  0  0
  -29.5701  -17.5023   20.5257 C   0  0  0  0  0  0
  -28.2682  -18.0752   20.6197 C   0  0  0  0  0  0
  -29.0301  -23.3681   20.3266 C   0  0  0  0  0  0
  -28.0005  -24.6762   20.0903 C   0  0  0  0  0  0
  -29.6535  -15.9832   20.6551 N   0  0  0  0  0  0
  -28.4580  -21.9272   20.2844 N   0  0  0  0  0  0
  -27.2315  -17.2229   20.7918 F   0  0  0  0  0  0
  -31.4861  -12.7220   19.1770 H   0  0  0  0  0  0
  -30.4481  -11.5874   19.9944 H   0  0  0  0  0  0
  -29.8309  -11.7460   17.5599 H   0  0  0  0  0  0
  -29.6215  -13.4726   17.7054 H   0  0  0  0  0  0
  -27.9347  -11.2819   18.9500 H   0  0  0  0  0  0
  -27.3925  -12.4880   17.8129 H   0  0  0  0  0  0
  -27.6130  -14.2545   19.4491 H   0  0  0  0  0  0
  -28.7594  -12.2172   21.4233 H   0  0  0  0  0  0
  -28.3947  -13.8813   21.7970 H   0  0  0  0  0  0
  -25.2770   -9.5663   22.4758 H   0  0  0  0  0  0
  -23.9996   -7.4622   22.7478 H   0  0  0  0  0  0
  -21.0843   -8.8768   19.8954 H   0  0  0  0  0  0
  -22.3713  -10.9655   19.6156 H   0  0  0  0  0  0
  -21.2005   -7.6144   23.9716 H   0  0  0  0  0  0
  -21.1482   -6.0520   25.9079 H   0  0  0  0  0  0
  -22.0599   -2.7607   23.2847 H   0  0  0  0  0  0
  -22.4075  -11.9835   22.4817 H   0  0  0  0  0  0
  -21.1075  -13.1202   22.2657 H   0  0  0  0  0  0
  -24.6241  -15.8232   20.5724 H   0  0  0  0  0  0
  -26.2642  -15.6811   20.2333 H   0  0  0  0  0  0
  -26.7264  -32.5322   23.1017 H   0  0  0  0  0  0
  -25.0077  -33.9628   25.0335 H   0  0  0  0  0  0
  -22.7460  -31.2915   21.3817 H   0  0  0  0  0  0
  -23.3755  -35.9591   23.3297 H   0  0  0  0  0  0
  -24.3578  -36.8899   22.2059 H   0  0  0  0  0  0
  -23.7245  -37.6456   23.6682 H   0  0  0  0  0  0
  -26.1516  -31.4838   20.6133 H   0  0  0  0  0  0
  -26.8706  -30.7780   22.0259 H   0  0  0  0  0  0
  -28.1351  -28.8273   21.2243 H   0  0  0  0  0  0
  -25.9160  -25.8569   19.0048 H   0  0  0  0  0  0
  -23.9803  -27.2988   18.9892 H   0  0  0  0  0  0
  -23.8039  -30.5708   19.3984 H   0  0  0  0  0  0
  -22.7854  -29.2362   19.8446 H   0  0  0  0  0  0
  -25.1309  -36.1871   25.0810 H   0  0  0  0  0  0
  -21.0009  -28.3307   24.1359 H   0  0  0  0  0  0
  -20.5679  -26.2332   23.3621 H   0  0  0  0  0  0
  -21.6654  -26.7428   22.1203 H   0  0  0  0  0  0
  -19.6921  -25.6286   21.1255 H   0  0  0  0  0  0
  -19.6695  -27.3178   20.6730 H   0  0  0  0  0  0
  -17.4210  -26.6675   21.4031 H   0  0  0  0  0  0
  -18.0345  -26.0078   22.9026 H   0  0  0  0  0  0
  -19.7952  -30.7290   24.2241 H   0  0  0  0  0  0
  -17.5025  -31.6268   24.5164 H   0  0  0  0  0  0
  -15.5364  -30.2978   23.7665 H   0  0  0  0  0  0
  -15.8690  -28.0810   22.7084 H   0  0  0  0  0  0
  -24.5901  -30.7086   25.7735 H   0  0  0  0  0  0
  -24.8892  -32.2926   26.4788 H   0  0  0  0  0  0
  -25.8001  -30.8957   27.0225 H   0  0  0  0  0  0
  -26.3003  -29.6691   24.1282 H   0  0  0  0  0  0
  -27.4003  -29.7261   25.4849 H   0  0  0  0  0  0
  -27.8909  -30.4209   23.9595 H   0  0  0  0  0  0
  -27.2648  -33.3645   26.2032 H   0  0  0  0  0  0
  -28.3893  -32.6863   25.0353 H   0  0  0  0  0  0
  -28.0693  -31.8486   26.5461 H   0  0  0  0  0  0
  -28.2588  -38.0088   24.7507 H   0  0  0  0  0  0
  -28.1075  -36.2617   24.6300 H   0  0  0  0  0  0
  -27.2293  -37.1445   25.8870 H   0  0  0  0  0  0
  -20.9458  -29.8766   21.6799 H   0  0  0  0  0  0
  -26.0156  -38.2819   24.1403 H   0  0  0  0  0  0
  -31.1021  -20.6423   20.1539 H   0  0  0  0  0  0
  -31.6040  -18.2208   20.2760 H   0  0  0  0  0  0
  -26.9386  -19.7615   20.6198 H   0  0  0  0  0  0
  -29.5089  -23.4913   21.2988 H   0  0  0  0  0  0
  -29.8371  -23.4288   19.5954 H   0  0  0  0  0  0
  -27.1514  -24.5025   20.7527 H   0  0  0  0  0  0
  -27.6127  -24.5330   19.0822 H   0  0  0  0  0  0
  -28.7423  -15.6155   20.8847 H   0  0  0  0  0  0
  -27.4410  -21.9665   20.2841 H   0  0  0  0  0  0
  1 25  1  0  0  0
  1 30  2  0  0  0
  1 79  1  0  0  0
  2  3  1  0  0  0
  2 25  1  0  0  0
  2 82  1  0  0  0
  2 83  1  0  0  0
  3  4  1  0  0  0
  3 84  1  0  0  0
  3 85  1  0  0  0
  4  5  1  0  0  0
  4 86  1  0  0  0
  4 87  1  0  0  0
  5  6  1  0  0  0
  5 26  1  0  0  0
  5 88  1  0  0  0
  6 25  1  0  0  0
  6 89  1  0  0  0
  6 90  1  0  0  0
  7  8  2  0  0  0
  7 26  1  0  0  0
  7 29  1  0  0  0
  8  9  1  0  0  0
  8 22  1  0  0  0
  9 10  1  0  0  0
  9 27  2  0  0  0
 10 11  2  0  0  0
 10 15  1  0  0  0
 11 12  1  0  0  0
 11 91  1  0  0  0
 12 13  2  0  0  0
 12 92  1  0  0  0
 13 14  1  0  0  0
 13 31  1  0  0  0
 14 15  2  0  0  0
 14 93  1  0  0  0
 15 94  1  0  0  0
 16 17  2  0  0  0
 16 21  1  0  0  0
 16 31  1  0  0  0
 17 18  1  0  0  0
 17 95  1  0  0  0
 18 19  2  0  0  0
 18 96  1  0  0  0
 19 20  1  0  0  0
 19 24  1  0  0  0
 20 21  2  0  0  0
 20 97  1  0  0  0
 21 23  1  0  0  0
 22 28  1  0  0  0
 22 32  2  0  0  0
 26 27  1  0  0  0
 28 98  1  0  0  0
 28 99  1  0  0  0
 29100  1  0  0  0
 29101  1  0  0  0
 33 34  1  0  0  0
 33 66  1  0  0  0
 33 70  2  0  0  0
 34 36  1  0  0  0
 34 59  1  0  0  0
 34102  1  0  0  0
 35 44  2  0  0  0
 35 45  1  0  0  0
 35 68  1  0  0  0
 36 56  1  0  0  0
 36103  1  0  0  0
 37 39  1  0  0  0
 37 47  1  0  0  0
 37 66  1  0  0  0
 37104  1  0  0  0
 38 43  2  0  0  0
 38 46  1  0  0  0
 38 47  1  0  0  0
 39 64  1  0  0  0
 39 67  2  0  0  0
 40 52  1  0  0  0
 40 53  2  0  0  0
 40 58  1  0  0  0
 41105  1  0  0  0
 41106  1  0  0  0
 41107  1  0  0  0
 41 48  1  0  0  0
 42 43  1  0  0  0
 42 66  1  0  0  0
 42108  1  0  0  0
 42109  1  0  0  0
 43 44  1  0  0  0
 44110  1  0  0  0
 45 46  2  0  0  0
 45111  1  0  0  0
 46112  1  0  0  0
 47113  1  0  0  0
 47114  1  0  0  0
 48 56  1  0  0  0
 48 65  1  0  0  0
 48115  1  0  0  0
 49 50  1  0  0  0
 49 53  1  0  0  0
 49 64  1  0  0  0
 49116  1  0  0  0
 50 51  1  0  0  0
 50117  1  0  0  0
 50118  1  0  0  0
 51 52  1  0  0  0
 51119  1  0  0  0
 51120  1  0  0  0
 52121  1  0  0  0
 52122  1  0  0  0
 53 54  1  0  0  0
 54 55  2  0  0  0
 54123  1  0  0  0
 55 57  1  0  0  0
 55124  1  0  0  0
 56 69  2  0  0  0
 57 58  2  0  0  0
 57125  1  0  0  0
 58126  1  0  0  0
 59 60  1  0  0  0
 59 61  1  0  0  0
 59 62  1  0  0  0
 60127  1  0  0  0
 60128  1  0  0  0
 60129  1  0  0  0
 61130  1  0  0  0
 61131  1  0  0  0
 61132  1  0  0  0
 62133  1  0  0  0
 62134  1  0  0  0
 62135  1  0  0  0
 63 65  1  0  0  0
 63136  1  0  0  0
 63137  1  0  0  0
 63138  1  0  0  0
 64139  1  0  0  0
 65140  1  0  0  0
 68 78  1  0  0  0
 71 72  2  0  0  0
 71 74  1  0  0  0
 71141  1  0  0  0
 72 75  1  0  0  0
 72142  1  0  0  0
 73 74  2  0  0  0
 73 76  1  0  0  0
 73143  1  0  0  0
 74 80  1  0  0  0
 75 76  2  0  0  0
 75 79  1  0  0  0
 76 81  1  0  0  0
 77 78  1  0  0  0
 77 80  1  0  0  0
 77144  1  0  0  0
 77145  1  0  0  0
 78146  1  0  0  0
 78147  1  0  0  0
 79148  1  0  0  0
 80149  1  0  0  0
M  ISO  4   1 100  68 101  78 101  79 100
M  END
> <chiral flag>
0

> <version>
0

> <s_m_source_file>
/data/baiqing/PycharmProjects/Reinvent-master-3.2/result/LINK_invent/BTK/process_docking_weight1_custom_sum_contain_oxygen_bond_distance_aromatic_linkinvent_7_9_3/rearranged_h_0010.sdf

> <i_m_source_file_index>
31

> <r_mmod_Potential_Energy-OPLS-2005>
383.99658203125

> <r_mmod_Stretch_Energy-OPLS-2005>
201.653121948242

> <r_mmod_Bend_Energy-OPLS-2005>
292.421051025391

> <r_mmod_Torsional_Energy-OPLS-2005>
202.540115356445

> <r_mmod_Improper_Torsional_Energy-OPLS-2005>
4.12791681289673

> <r_mmod_Van_der_Waal_Energy-OPLS-2005>
134.1064453125

> <r_mmod_Electrostatic_Energy-OPLS-2005>
-401.087951660156

> <r_mmod_Solvation_Energy-OPLS-2005>
-214.647521972656

> <b_mmod_Minimization_Converged-OPLS-2005>
0

> <r_mmod_RMS_Derivative-OPLS-2005>
0.230514645576477

$$$$
31
                    3D
 Structure written by MMmdl.
160168  0  0  1  0            999 V2000
  -30.7471  -14.4017   20.6200 C   0  0  0  0  0  0
  -30.4110  -12.2834   19.4088 C   0  0  0  0  0  0
  -29.4876  -12.5235   18.1984 C   0  0  0  0  0  0
  -28.0084  -12.3869   18.6086 C   0  0  0  0  0  0
  -27.6625  -13.2095   19.8785 C   0  0  2  0  0  0
  -28.7024  -12.9663   20.9960 C   0  0  0  0  0  0
  -25.2589  -13.8166   20.5673 C   0  0  0  0  0  0
  -24.1838  -13.0447   20.9169 C   0  0  0  0  0  0
  -24.6394  -11.6911   20.8729 C   0  0  0  0  0  0
  -23.9060  -10.4294   21.0392 C   0  0  0  0  0  0
  -24.3619   -9.4212   21.9178 C   0  0  0  0  0  0
  -23.6299   -8.2241   22.0745 C   0  0  0  0  0  0
  -22.4281   -8.0279   21.3535 C   0  0  0  0  0  0
  -21.9914   -9.0245   20.4626 C   0  0  0  0  0  0
  -22.7238  -10.2125   20.3029 C   0  0  0  0  0  0
  -21.6846   -6.0738   22.5278 C   0  0  0  0  0  0
  -21.3994   -6.5642   23.8215 C   0  0  0  0  0  0
  -21.3654   -5.6793   24.9175 C   0  0  0  0  0  0
  -21.6048   -4.3057   24.7227 C   0  0  0  0  0  0
  -21.8823   -3.8149   23.4349 C   0  0  0  0  0  0
  -21.9196   -4.6965   22.3404 C   0  0  0  0  0  0
  -22.7860  -13.5239   21.1844 C   0  0  0  0  0  0
  -22.1671   -4.2155   21.0985 F   0  0  0  0  0  0
  -21.5637   -3.4539   25.7735 F   0  0  0  0  0  0
  -30.0418  -13.2534   20.4504 N   0  0  0  0  0  0
  -26.3031  -12.9341   20.3369 N   0  0  0  0  0  0
  -25.9325  -11.6498   20.5768 N   0  0  0  0  0  0
  -22.0489  -12.8212   22.0383 N   0  0  0  0  0  0
  -25.4336  -15.1881   20.4085 N   0  0  0  0  0  0
  -31.8349  -14.6059   20.0744 O   0  0  0  0  0  0
  -21.6638   -6.8884   21.4239 O   0  0  0  0  0  0
  -22.3552  -14.5556   20.6720 O   0  0  0  0  0  0
  -24.6136  -31.8689   23.2117 C   0  0  0  0  0  0
  -25.9044  -32.4812   23.8419 C   0  0  1  0  0  0
  -27.2344  -27.4664   20.0964 C   0  0  0  0  0  0
  -25.5908  -33.8609   24.2365 N   0  0  0  0  0  0
  -23.3996  -30.4939   21.5512 C   0  0  2  0  0  0
  -24.8464  -28.9610   20.1165 C   0  0  0  0  0  0
  -22.7405  -29.4676   22.4997 C   0  0  0  0  0  0
  -18.0261  -28.1375   22.8501 C   0  0  0  0  0  0
  -24.1463  -36.7278   23.2652 C   0  0  0  0  0  0
  -25.9263  -30.8468   21.3577 C   0  0  0  0  0  0
  -26.0051  -29.4830   20.7078 C   0  0  0  0  0  0
  -27.2063  -28.7426   20.6956 C   0  0  0  0  0  0
  -26.0658  -26.9473   19.5049 C   0  0  0  0  0  0
  -24.8692  -27.6891   19.5150 C   0  0  0  0  0  0
  -23.6075  -29.8252   20.1656 C   0  0  0  0  0  0
  -25.4081  -36.3094   24.0367 C   0  0  1  0  0  0
  -20.5864  -28.3641   23.1318 C   0  0  2  0  0  0
  -20.6747  -26.9381   22.5409 C   0  0  0  0  0  0
  -19.5718  -26.6390   21.5209 C   0  0  0  0  0  0
  -18.1897  -26.7928   22.1625 C   0  0  0  0  0  0
  -19.1517  -28.8823   23.2903 C   0  0  0  0  0  0
  -18.9452  -30.1444   23.8892 C   0  0  0  0  0  0
  -17.6455  -30.6580   24.0560 C   0  0  0  0  0  0
  -25.9025  -34.9468   23.5159 C   0  0  0  0  0  0
  -16.5340  -29.9075   23.6349 C   0  0  0  0  0  0
  -16.7252  -28.6496   23.0354 C   0  0  0  0  0  0
  -26.4490  -31.6565   25.0725 C   0  0  0  0  0  0
  -25.3784  -31.3594   26.1474 C   0  0  0  0  0  0
  -27.0351  -30.3034   24.6058 C   0  0  0  0  0  0
  -27.6065  -32.4282   25.7496 C   0  0  0  0  0  0
  -27.5564  -37.1782   24.8475 C   0  0  0  0  0  0
  -21.4138  -29.3004   22.3715 N   0  0  0  0  0  0
  -26.4247  -37.3793   23.9456 N   0  0  0  0  0  0
  -24.6651  -31.0842   22.0993 N   0  0  0  0  0  0
  -23.4187  -28.8250   23.3056 O   0  0  0  0  0  0
  -28.3779  -26.7116   20.0976 O   0  0  0  0  0  0
  -26.5573  -34.8938   22.4715 O   0  0  0  0  0  0
  -23.5336  -32.1412   23.7529 O   0  0  0  0  0  0
  -31.4716  -19.3592   21.7773 C   0  0  0  0  0  0
  -31.9222  -16.9701   21.9146 C   0  0  0  0  0  0
  -29.6979  -17.7560   21.2896 C   0  0  0  0  0  0
  -32.3637  -18.3023   22.0545 C   0  0  0  0  0  0
  -30.1395  -19.0959   21.3815 C   0  0  0  0  0  0
  -30.5955  -16.6878   21.5174 C   0  0  0  0  0  0
  -29.4498  -21.3218   20.5085 C   0  0  0  0  0  0
  -28.2249  -22.2197   20.2899 C   0  0  0  0  0  0
  -28.5290  -23.6672   19.8308 C   0  0  0  0  0  0
  -29.2264  -24.5586   20.8842 C   0  0  0  0  0  0
  -28.4509  -25.8414   21.2262 C   0  0  0  0  0  0
  -33.7967  -18.5870   22.4797 C   0  0  0  0  0  0
  -29.2106  -20.1379   21.1006 N   0  0  0  0  0  0
  -30.1418  -15.3496   21.3564 N   0  0  0  0  0  0
  -30.5665  -21.6858   20.1313 O   0  0  0  0  0  0
  -33.9245  -19.8140   22.9870 F   0  0  0  0  0  0
  -34.1912  -17.7132   23.4065 F   0  0  0  0  0  0
  -34.6031  -18.4789   21.4249 F   0  0  0  0  0  0
  -31.4585  -12.3609   19.1121 H   0  0  0  0  0  0
  -30.2884  -11.2680   19.7885 H   0  0  0  0  0  0
  -29.7212  -11.8209   17.3974 H   0  0  0  0  0  0
  -29.6629  -13.5211   17.7921 H   0  0  0  0  0  0
  -27.8055  -11.3303   18.7837 H   0  0  0  0  0  0
  -27.3592  -12.6824   17.7837 H   0  0  0  0  0  0
  -27.7147  -14.2618   19.5992 H   0  0  0  0  0  0
  -28.6647  -11.9270   21.3240 H   0  0  0  0  0  0
  -28.4644  -13.5566   21.8823 H   0  0  0  0  0  0
  -25.2763   -9.5707   22.4754 H   0  0  0  0  0  0
  -24.0008   -7.4636   22.7472 H   0  0  0  0  0  0
  -21.0844   -8.8757   19.8939 H   0  0  0  0  0  0
  -22.3698  -10.9655   19.6128 H   0  0  0  0  0  0
  -21.1955   -7.6145   23.9718 H   0  0  0  0  0  0
  -21.1476   -6.0519   25.9085 H   0  0  0  0  0  0
  -22.0605   -2.7613   23.2833 H   0  0  0  0  0  0
  -22.4098  -11.9858   22.4735 H   0  0  0  0  0  0
  -21.1110  -13.1228   22.2603 H   0  0  0  0  0  0
  -24.6659  -15.8453   20.4966 H   0  0  0  0  0  0
  -26.2974  -15.6221   20.1063 H   0  0  0  0  0  0
  -26.7131  -32.5534   23.1209 H   0  0  0  0  0  0
  -25.0097  -33.9758   25.0535 H   0  0  0  0  0  0
  -22.6877  -31.3103   21.4134 H   0  0  0  0  0  0
  -23.3747  -35.9581   23.3279 H   0  0  0  0  0  0
  -24.3570  -36.8902   22.2072 H   0  0  0  0  0  0
  -23.7182  -37.6467   23.6670 H   0  0  0  0  0  0
  -26.0344  -31.6139   20.5895 H   0  0  0  0  0  0
  -26.8160  -30.9016   21.9724 H   0  0  0  0  0  0
  -28.1041  -29.1409   21.1480 H   0  0  0  0  0  0
  -26.0820  -25.9674   19.0493 H   0  0  0  0  0  0
  -23.9773  -27.2761   19.0633 H   0  0  0  0  0  0
  -23.7150  -30.6000   19.4052 H   0  0  0  0  0  0
  -22.7326  -29.2433   19.8691 H   0  0  0  0  0  0
  -25.1251  -36.1940   25.0854 H   0  0  0  0  0  0
  -20.9973  -28.3191   24.1436 H   0  0  0  0  0  0
  -20.5640  -26.2253   23.3594 H   0  0  0  0  0  0
  -21.6606  -26.7406   22.1194 H   0  0  0  0  0  0
  -19.6860  -25.6312   21.1204 H   0  0  0  0  0  0
  -19.6667  -27.3222   20.6759 H   0  0  0  0  0  0
  -17.4188  -26.6709   21.4008 H   0  0  0  0  0  0
  -18.0259  -26.0050   22.8993 H   0  0  0  0  0  0
  -19.7931  -30.7256   24.2243 H   0  0  0  0  0  0
  -17.5012  -31.6261   24.5159 H   0  0  0  0  0  0
  -15.5336  -30.2961   23.7706 H   0  0  0  0  0  0
  -15.8652  -28.0823   22.7058 H   0  0  0  0  0  0
  -24.6009  -30.6883   25.7804 H   0  0  0  0  0  0
  -24.8903  -32.2696   26.4967 H   0  0  0  0  0  0
  -25.8173  -30.8764   27.0213 H   0  0  0  0  0  0
  -26.2882  -29.6742   24.1205 H   0  0  0  0  0  0
  -27.4265  -29.7308   25.4478 H   0  0  0  0  0  0
  -27.8643  -30.4387   23.9106 H   0  0  0  0  0  0
  -27.2692  -33.3588   26.2074 H   0  0  0  0  0  0
  -28.3882  -32.6820   25.0324 H   0  0  0  0  0  0
  -28.0731  -31.8401   26.5406 H   0  0  0  0  0  0
  -28.2545  -38.0118   24.7575 H   0  0  0  0  0  0
  -28.1094  -36.2654   24.6215 H   0  0  0  0  0  0
  -27.2302  -37.1306   25.8879 H   0  0  0  0  0  0
  -20.9314  -29.8684   21.6887 H   0  0  0  0  0  0
  -26.0126  -38.2855   24.1500 H   0  0  0  0  0  0
  -31.8243  -20.3758   21.8765 H   0  0  0  0  0  0
  -32.6195  -16.1686   22.1118 H   0  0  0  0  0  0
  -28.6773  -17.5473   20.9964 H   0  0  0  0  0  0
  -27.6306  -22.2410   21.2037 H   0  0  0  0  0  0
  -27.6043  -21.7354   19.5358 H   0  0  0  0  0  0
  -27.5875  -24.1277   19.5300 H   0  0  0  0  0  0
  -29.1337  -23.6458   18.9235 H   0  0  0  0  0  0
  -30.2280  -24.8194   20.5414 H   0  0  0  0  0  0
  -29.3728  -23.9941   21.8064 H   0  0  0  0  0  0
  -28.9527  -26.3702   22.0377 H   0  0  0  0  0  0
  -27.4610  -25.5697   21.6001 H   0  0  0  0  0  0
  -28.2381  -19.9300   21.2812 H   0  0  0  0  0  0
  -29.2027  -15.1343   21.6585 H   0  0  0  0  0  0
  1 25  1  0  0  0
  1 30  2  0  0  0
  1 84  1  0  0  0
  2  3  1  0  0  0
  2 25  1  0  0  0
  2 89  1  0  0  0
  2 90  1  0  0  0
  3  4  1  0  0  0
  3 91  1  0  0  0
  3 92  1  0  0  0
  4  5  1  0  0  0
  4 93  1  0  0  0
  4 94  1  0  0  0
  5  6  1  0  0  0
  5 26  1  0  0  0
  5 95  1  0  0  0
  6 25  1  0  0  0
  6 96  1  0  0  0
  6 97  1  0  0  0
  7  8  2  0  0  0
  7 26  1  0  0  0
  7 29  1  0  0  0
  8  9  1  0  0  0
  8 22  1  0  0  0
  9 10  1  0  0  0
  9 27  2  0  0  0
 10 11  2  0  0  0
 10 15  1  0  0  0
 11 12  1  0  0  0
 11 98  1  0  0  0
 12 13  2  0  0  0
 12 99  1  0  0  0
 13 14  1  0  0  0
 13 31  1  0  0  0
 14 15  2  0  0  0
 14100  1  0  0  0
 15101  1  0  0  0
 16 17  2  0  0  0
 16 21  1  0  0  0
 16 31  1  0  0  0
 17 18  1  0  0  0
 17102  1  0  0  0
 18 19  2  0  0  0
 18103  1  0  0  0
 19 20  1  0  0  0
 19 24  1  0  0  0
 20 21  2  0  0  0
 20104  1  0  0  0
 21 23  1  0  0  0
 22 28  1  0  0  0
 22 32  2  0  0  0
 26 27  1  0  0  0
 28105  1  0  0  0
 28106  1  0  0  0
 29107  1  0  0  0
 29108  1  0  0  0
 33 34  1  0  0  0
 33 66  1  0  0  0
 33 70  2  0  0  0
 34 36  1  0  0  0
 34 59  1  0  0  0
 34109  1  0  0  0
 35 44  2  0  0  0
 35 45  1  0  0  0
 35 68  1  0  0  0
 36 56  1  0  0  0
 36110  1  0  0  0
 37 39  1  0  0  0
 37 47  1  0  0  0
 37 66  1  0  0  0
 37111  1  0  0  0
 38 43  2  0  0  0
 38 46  1  0  0  0
 38 47  1  0  0  0
 39 64  1  0  0  0
 39 67  2  0  0  0
 40 52  1  0  0  0
 40 53  2  0  0  0
 40 58  1  0  0  0
 41112  1  0  0  0
 41113  1  0  0  0
 41114  1  0  0  0
 41 48  1  0  0  0
 42 43  1  0  0  0
 42 66  1  0  0  0
 42115  1  0  0  0
 42116  1  0  0  0
 43 44  1  0  0  0
 44117  1  0  0  0
 45 46  2  0  0  0
 45118  1  0  0  0
 46119  1  0  0  0
 47120  1  0  0  0
 47121  1  0  0  0
 48 56  1  0  0  0
 48 65  1  0  0  0
 48122  1  0  0  0
 49 50  1  0  0  0
 49 53  1  0  0  0
 49 64  1  0  0  0
 49123  1  0  0  0
 50 51  1  0  0  0
 50124  1  0  0  0
 50125  1  0  0  0
 51 52  1  0  0  0
 51126  1  0  0  0
 51127  1  0  0  0
 52128  1  0  0  0
 52129  1  0  0  0
 53 54  1  0  0  0
 54 55  2  0  0  0
 54130  1  0  0  0
 55 57  1  0  0  0
 55131  1  0  0  0
 56 69  2  0  0  0
 57 58  2  0  0  0
 57132  1  0  0  0
 58133  1  0  0  0
 59 60  1  0  0  0
 59 61  1  0  0  0
 59 62  1  0  0  0
 60134  1  0  0  0
 60135  1  0  0  0
 60136  1  0  0  0
 61137  1  0  0  0
 61138  1  0  0  0
 61139  1  0  0  0
 62140  1  0  0  0
 62141  1  0  0  0
 62142  1  0  0  0
 63 65  1  0  0  0
 63143  1  0  0  0
 63144  1  0  0  0
 63145  1  0  0  0
 64146  1  0  0  0
 65147  1  0  0  0
 68 81  1  0  0  0
 71 74  2  0  0  0
 71 75  1  0  0  0
 71148  1  0  0  0
 72 74  1  0  0  0
 72 76  2  0  0  0
 72149  1  0  0  0
 73 75  2  0  0  0
 73 76  1  0  0  0
 73150  1  0  0  0
 74 82  1  0  0  0
 75 83  1  0  0  0
 76 84  1  0  0  0
 77 78  1  0  0  0
 77 83  1  0  0  0
 77 85  2  0  0  0
 78 79  1  0  0  0
 78151  1  0  0  0
 78152  1  0  0  0
 79 80  1  0  0  0
 79153  1  0  0  0
 79154  1  0  0  0
 80 81  1  0  0  0
 80155  1  0  0  0
 80156  1  0  0  0
 81157  1  0  0  0
 81158  1  0  0  0
 82 86  1  0  0  0
 82 87  1  0  0  0
 82 88  1  0  0  0
 83159  1  0  0  0
 84160  1  0  0  0
M  ISO  4   1 100  68 101  81 101  84 100
M  END
> <chiral flag>
0

> <version>
0

> <s_m_source_file>
/data/baiqing/PycharmProjects/Reinvent-master-3.2/result/LINK_invent/BTK/process_docking_weight1_custom_sum_contain_oxygen_bond_distance_aromatic_linkinvent_7_9_3/rearranged_h_0010.sdf

> <i_m_source_file_index>
32

> <r_mmod_Potential_Energy-OPLS-2005>
-47.1424751281738

> <r_mmod_Stretch_Energy-OPLS-2005>
33.7445678710938

> <r_mmod_Bend_Energy-OPLS-2005>
90.157585144043

> <r_mmod_Torsional_Energy-OPLS-2005>
265.281585693359

> <r_mmod_Improper_Torsional_Energy-OPLS-2005>
2.87012147903442

> <r_mmod_Van_der_Waal_Energy-OPLS-2005>
158.026000976562

> <r_mmod_Electrostatic_Energy-OPLS-2005>
-373.021759033203

> <r_mmod_Solvation_Energy-OPLS-2005>
-232.450698852539

> <b_mmod_Minimization_Converged-OPLS-2005>
0

> <r_mmod_RMS_Derivative-OPLS-2005>
2.29107284545898

$$$$
32
                    3D
 Structure written by MMmdl.
162170  0  0  1  0            999 V2000
  -30.6453  -14.6598   20.4992 C   0  0  0  0  0  0
  -30.4389  -12.4093   19.4529 C   0  0  0  0  0  0
  -29.5037  -12.5149   18.2275 C   0  0  0  0  0  0
  -28.0278  -12.3511   18.6441 C   0  0  0  0  0  0
  -27.6494  -13.2219   19.8733 C   0  0  2  0  0  0
  -28.7064  -13.0858   20.9955 C   0  0  0  0  0  0
  -25.2314  -13.7886   20.5500 C   0  0  0  0  0  0
  -24.1668  -13.0189   20.9102 C   0  0  0  0  0  0
  -24.6378  -11.6739   20.8757 C   0  0  0  0  0  0
  -23.9069  -10.4159   21.0411 C   0  0  0  0  0  0
  -24.3613   -9.4101   21.9205 C   0  0  0  0  0  0
  -23.6267   -8.2160   22.0769 C   0  0  0  0  0  0
  -22.4252   -8.0225   21.3548 C   0  0  0  0  0  0
  -21.9893   -9.0192   20.4644 C   0  0  0  0  0  0
  -22.7241  -10.2048   20.3049 C   0  0  0  0  0  0
  -21.6827   -6.0708   22.5285 C   0  0  0  0  0  0
  -21.3991   -6.5620   23.8215 C   0  0  0  0  0  0
  -21.3654   -5.6780   24.9182 C   0  0  0  0  0  0
  -21.6045   -4.3043   24.7233 C   0  0  0  0  0  0
  -21.8824   -3.8130   23.4355 C   0  0  0  0  0  0
  -21.9185   -4.6942   22.3409 C   0  0  0  0  0  0
  -22.7719  -13.5042   21.1806 C   0  0  0  0  0  0
  -22.1659   -4.2131   21.0987 F   0  0  0  0  0  0
  -21.5637   -3.4532   25.7747 F   0  0  0  0  0  0
  -30.0193  -13.4381   20.4270 N   0  0  0  0  0  0
  -26.2963  -12.9265   20.3446 N   0  0  0  0  0  0
  -25.9360  -11.6407   20.5913 N   0  0  0  0  0  0
  -22.0392  -12.8082   22.0419 N   0  0  0  0  0  0
  -25.3577  -15.1478   20.3634 N   0  0  0  0  0  0
  -31.8039  -14.8008   20.1006 O   0  0  0  0  0  0
  -21.6603   -6.8840   21.4247 O   0  0  0  0  0  0
  -22.3436  -14.5403   20.6729 O   0  0  0  0  0  0
  -24.6255  -31.8607   23.2026 C   0  0  0  0  0  0
  -25.9107  -32.4781   23.8343 C   0  0  1  0  0  0
  -27.2417  -27.3387   20.1064 C   0  0  0  0  0  0
  -25.5925  -33.8580   24.2264 N   0  0  0  0  0  0
  -23.4170  -30.4832   21.5446 C   0  0  2  0  0  0
  -24.8664  -28.9382   20.1138 C   0  0  0  0  0  0
  -22.7456  -29.4638   22.4946 C   0  0  0  0  0  0
  -18.0289  -28.1398   22.8494 C   0  0  0  0  0  0
  -24.1498  -36.7303   23.2633 C   0  0  0  0  0  0
  -25.9564  -30.7985   21.3687 C   0  0  0  0  0  0
  -26.0350  -29.4263   20.7119 C   0  0  0  0  0  0
  -27.2228  -28.6391   20.6979 C   0  0  0  0  0  0
  -26.0448  -26.8980   19.4922 C   0  0  0  0  0  0
  -24.8720  -27.6783   19.4977 C   0  0  0  0  0  0
  -23.6315  -29.8133   20.1622 C   0  0  0  0  0  0
  -25.4117  -36.3073   24.0318 C   0  0  1  0  0  0
  -20.5881  -28.3698   23.1290 C   0  0  2  0  0  0
  -20.6781  -26.9426   22.5409 C   0  0  0  0  0  0
  -19.5754  -26.6400   21.5212 C   0  0  0  0  0  0
  -18.1937  -26.7940   22.1630 C   0  0  0  0  0  0
  -19.1543  -28.8861   23.2888 C   0  0  0  0  0  0
  -18.9465  -30.1462   23.8903 C   0  0  0  0  0  0
  -17.6467  -30.6594   24.0569 C   0  0  0  0  0  0
  -25.9052  -34.9448   23.5088 C   0  0  0  0  0  0
  -16.5355  -29.9093   23.6331 C   0  0  0  0  0  0
  -16.7277  -28.6512   23.0348 C   0  0  0  0  0  0
  -26.4498  -31.6581   25.0704 C   0  0  0  0  0  0
  -25.3729  -31.3721   26.1430 C   0  0  0  0  0  0
  -27.0328  -30.3001   24.6144 C   0  0  0  0  0  0
  -27.6052  -32.4311   25.7485 C   0  0  0  0  0  0
  -27.5578  -37.1803   24.8457 C   0  0  0  0  0  0
  -21.4175  -29.3056   22.3686 N   0  0  0  0  0  0
  -26.4290  -37.3777   23.9402 N   0  0  0  0  0  0
  -24.6851  -31.0627   22.0968 N   0  0  0  0  0  0
  -23.4178  -28.8181   23.3026 O   0  0  0  0  0  0
  -28.3831  -26.5201   20.1426 O   0  0  0  0  0  0
  -26.5618  -34.8919   22.4654 O   0  0  0  0  0  0
  -23.5422  -32.1404   23.7370 O   0  0  0  0  0  0
  -31.0983  -19.2918   19.9643 C   0  0  0  0  0  0
  -31.0624  -17.8669   20.1135 C   0  0  0  0  0  0
  -29.0438  -19.4888   21.1665 C   0  0  0  0  0  0
  -30.0778  -20.1461   20.4719 C   0  0  0  0  0  0
  -29.9928  -17.1935   20.7734 C   0  0  0  0  0  0
  -28.9817  -18.0767   21.2872 C   0  0  0  0  0  0
  -29.1129  -22.5302   20.3261 C   0  0  0  0  0  0
  -25.5543  -19.3394   21.0298 C   0  0  0  0  0  0
  -26.5496  -17.7939   19.3898 C   0  0  0  0  0  0
  -29.4259  -24.0772   20.2866 C   0  0  0  0  0  0
  -28.2010  -25.0584   20.0171 C   0  0  0  0  0  0
  -30.1283  -21.6036   20.3213 N   0  0  0  0  0  0
  -29.8733  -15.7234   20.8917 N   0  0  0  0  0  0
  -26.2781  -18.0762   20.8129 N   0  0  0  0  0  0
  -27.9309  -22.1813   20.3463 O   0  0  0  0  0  0
  -27.3924  -16.0475   21.9686 O   0  0  0  0  0  0
  -27.1596  -18.2333   23.2486 O   0  0  0  0  0  0
  -27.4300  -17.5163   21.9906 S   0  0  0  0  0  0
  -31.4781  -12.5320   19.1427 H   0  0  0  0  0  0
  -30.3792  -11.4162   19.9002 H   0  0  0  0  0  0
  -29.7675  -11.7595   17.4864 H   0  0  0  0  0  0
  -29.6407  -13.4812   17.7410 H   0  0  0  0  0  0
  -27.8678  -11.2973   18.8761 H   0  0  0  0  0  0
  -27.3699  -12.5778   17.8040 H   0  0  0  0  0  0
  -27.6550  -14.2585   19.5355 H   0  0  0  0  0  0
  -28.7265  -12.0631   21.3764 H   0  0  0  0  0  0
  -28.4578  -13.7103   21.8535 H   0  0  0  0  0  0
  -25.2753   -9.5575   22.4781 H   0  0  0  0  0  0
  -23.9959   -7.4546   22.7494 H   0  0  0  0  0  0
  -21.0822   -8.8719   19.8948 H   0  0  0  0  0  0
  -22.3723  -10.9591   19.6154 H   0  0  0  0  0  0
  -21.1971   -7.6127   23.9710 H   0  0  0  0  0  0
  -21.1477   -6.0512   25.9081 H   0  0  0  0  0  0
  -22.0610   -2.7595   23.2862 H   0  0  0  0  0  0
  -22.4001  -11.9725   22.4775 H   0  0  0  0  0  0
  -21.1044  -13.1150   22.2701 H   0  0  0  0  0  0
  -24.5555  -15.7124   20.6173 H   0  0  0  0  0  0
  -26.2107  -15.5501   20.7475 H   0  0  0  0  0  0
  -26.7161  -32.5455   23.1081 H   0  0  0  0  0  0
  -25.0060  -33.9713   25.0395 H   0  0  0  0  0  0
  -22.7115  -31.3044   21.3986 H   0  0  0  0  0  0
  -23.3747  -35.9648   23.3300 H   0  0  0  0  0  0
  -24.3580  -36.8927   22.2044 H   0  0  0  0  0  0
  -23.7267  -37.6511   23.6660 H   0  0  0  0  0  0
  -26.0776  -31.5642   20.6008 H   0  0  0  0  0  0
  -26.8402  -30.8514   21.9935 H   0  0  0  0  0  0
  -28.1200  -29.0151   21.1683 H   0  0  0  0  0  0
  -25.9860  -25.9368   19.0037 H   0  0  0  0  0  0
  -23.9751  -27.2965   19.0308 H   0  0  0  0  0  0
  -23.7467  -30.5857   19.4018 H   0  0  0  0  0  0
  -22.7550  -29.2356   19.8625 H   0  0  0  0  0  0
  -25.1304  -36.1914   25.0810 H   0  0  0  0  0  0
  -20.9979  -28.3275   24.1409 H   0  0  0  0  0  0
  -20.5694  -26.2306   23.3603 H   0  0  0  0  0  0
  -21.6651  -26.7474   22.1195 H   0  0  0  0  0  0
  -19.6920  -25.6313   21.1238 H   0  0  0  0  0  0
  -19.6691  -27.3213   20.6746 H   0  0  0  0  0  0
  -17.4205  -26.6689   21.4031 H   0  0  0  0  0  0
  -18.0350  -26.0075   22.9021 H   0  0  0  0  0  0
  -19.7938  -30.7284   24.2275 H   0  0  0  0  0  0
  -17.5019  -31.6277   24.5174 H   0  0  0  0  0  0
  -15.5356  -30.3000   23.7659 H   0  0  0  0  0  0
  -15.8677  -28.0835   22.7062 H   0  0  0  0  0  0
  -24.5912  -30.7061   25.7758 H   0  0  0  0  0  0
  -24.8922  -32.2898   26.4833 H   0  0  0  0  0  0
  -25.8066  -30.8913   27.0205 H   0  0  0  0  0  0
  -26.2897  -29.6755   24.1179 H   0  0  0  0  0  0
  -27.4032  -29.7249   25.4635 H   0  0  0  0  0  0
  -27.8761  -30.4278   23.9353 H   0  0  0  0  0  0
  -27.2650  -33.3603   26.2072 H   0  0  0  0  0  0
  -28.3876  -32.6885   25.0327 H   0  0  0  0  0  0
  -28.0706  -31.8421   26.5400 H   0  0  0  0  0  0
  -28.2591  -38.0103   24.7506 H   0  0  0  0  0  0
  -28.1079  -36.2636   24.6289 H   0  0  0  0  0  0
  -27.2292  -37.1457   25.8857 H   0  0  0  0  0  0
  -20.9356  -29.8745   21.6866 H   0  0  0  0  0  0
  -26.0169  -38.2844   24.1408 H   0  0  0  0  0  0
  -31.9300  -19.7279   19.4300 H   0  0  0  0  0  0
  -31.8698  -17.2938   19.6812 H   0  0  0  0  0  0
  -28.2469  -20.0638   21.6086 H   0  0  0  0  0  0
  -24.6705  -19.3869   20.3921 H   0  0  0  0  0  0
  -26.1807  -20.1991   20.7960 H   0  0  0  0  0  0
  -25.2183  -19.4223   22.0637 H   0  0  0  0  0  0
  -25.6204  -17.7264   18.8224 H   0  0  0  0  0  0
  -27.0892  -16.8538   19.2691 H   0  0  0  0  0  0
  -27.1631  -18.5828   18.9513 H   0  0  0  0  0  0
  -30.1948  -24.2553   19.5343 H   0  0  0  0  0  0
  -29.8722  -24.3304   21.2480 H   0  0  0  0  0  0
  -27.8562  -24.8446   19.0045 H   0  0  0  0  0  0
  -27.3905  -24.7728   20.6901 H   0  0  0  0  0  0
  -31.0517  -21.9929   20.1829 H   0  0  0  0  0  0
  -28.9791  -15.4239   21.2663 H   0  0  0  0  0  0
  1 25  1  0  0  0
  1 30  2  0  0  0
  1 83  1  0  0  0
  2  3  1  0  0  0
  2 25  1  0  0  0
  2 89  1  0  0  0
  2 90  1  0  0  0
  3  4  1  0  0  0
  3 91  1  0  0  0
  3 92  1  0  0  0
  4  5  1  0  0  0
  4 93  1  0  0  0
  4 94  1  0  0  0
  5  6  1  0  0  0
  5 26  1  0  0  0
  5 95  1  0  0  0
  6 25  1  0  0  0
  6 96  1  0  0  0
  6 97  1  0  0  0
  7  8  2  0  0  0
  7 26  1  0  0  0
  7 29  1  0  0  0
  8  9  1  0  0  0
  8 22  1  0  0  0
  9 10  1  0  0  0
  9 27  2  0  0  0
 10 11  2  0  0  0
 10 15  1  0  0  0
 11 12  1  0  0  0
 11 98  1  0  0  0
 12 13  2  0  0  0
 12 99  1  0  0  0
 13 14  1  0  0  0
 13 31  1  0  0  0
 14 15  2  0  0  0
 14100  1  0  0  0
 15101  1  0  0  0
 16 17  2  0  0  0
 16 21  1  0  0  0
 16 31  1  0  0  0
 17 18  1  0  0  0
 17102  1  0  0  0
 18 19  2  0  0  0
 18103  1  0  0  0
 19 20  1  0  0  0
 19 24  1  0  0  0
 20 21  2  0  0  0
 20104  1  0  0  0
 21 23  1  0  0  0
 22 28  1  0  0  0
 22 32  2  0  0  0
 26 27  1  0  0  0
 28105  1  0  0  0
 28106  1  0  0  0
 29107  1  0  0  0
 29108  1  0  0  0
 33 34  1  0  0  0
 33 66  1  0  0  0
 33 70  2  0  0  0
 34 36  1  0  0  0
 34 59  1  0  0  0
 34109  1  0  0  0
 35 44  2  0  0  0
 35 45  1  0  0  0
 35 68  1  0  0  0
 36 56  1  0  0  0
 36110  1  0  0  0
 37 39  1  0  0  0
 37 47  1  0  0  0
 37 66  1  0  0  0
 37111  1  0  0  0
 38 43  2  0  0  0
 38 46  1  0  0  0
 38 47  1  0  0  0
 39 64  1  0  0  0
 39 67  2  0  0  0
 40 52  1  0  0  0
 40 53  2  0  0  0
 40 58  1  0  0  0
 41112  1  0  0  0
 41113  1  0  0  0
 41114  1  0  0  0
 41 48  1  0  0  0
 42 43  1  0  0  0
 42 66  1  0  0  0
 42115  1  0  0  0
 42116  1  0  0  0
 43 44  1  0  0  0
 44117  1  0  0  0
 45 46  2  0  0  0
 45118  1  0  0  0
 46119  1  0  0  0
 47120  1  0  0  0
 47121  1  0  0  0
 48 56  1  0  0  0
 48 65  1  0  0  0
 48122  1  0  0  0
 49 50  1  0  0  0
 49 53  1  0  0  0
 49 64  1  0  0  0
 49123  1  0  0  0
 50 51  1  0  0  0
 50124  1  0  0  0
 50125  1  0  0  0
 51 52  1  0  0  0
 51126  1  0  0  0
 51127  1  0  0  0
 52128  1  0  0  0
 52129  1  0  0  0
 53 54  1  0  0  0
 54 55  2  0  0  0
 54130  1  0  0  0
 55 57  1  0  0  0
 55131  1  0  0  0
 56 69  2  0  0  0
 57 58  2  0  0  0
 57132  1  0  0  0
 58133  1  0  0  0
 59 60  1  0  0  0
 59 61  1  0  0  0
 59 62  1  0  0  0
 60134  1  0  0  0
 60135  1  0  0  0
 60136  1  0  0  0
 61137  1  0  0  0
 61138  1  0  0  0
 61139  1  0  0  0
 62140  1  0  0  0
 62141  1  0  0  0
 62142  1  0  0  0
 63 65  1  0  0  0
 63143  1  0  0  0
 63144  1  0  0  0
 63145  1  0  0  0
 64146  1  0  0  0
 65147  1  0  0  0
 68 81  1  0  0  0
 71 72  2  0  0  0
 71 74  1  0  0  0
 71148  1  0  0  0
 72 75  1  0  0  0
 72149  1  0  0  0
 73 74  2  0  0  0
 73 76  1  0  0  0
 73150  1  0  0  0
 74 82  1  0  0  0
 75 76  2  0  0  0
 75 83  1  0  0  0
 76 88  1  0  0  0
 77 80  1  0  0  0
 77 82  1  0  0  0
 77 85  2  0  0  0
 78 84  1  0  0  0
 78151  1  0  0  0
 78152  1  0  0  0
 78153  1  0  0  0
 79 84  1  0  0  0
 79154  1  0  0  0
 79155  1  0  0  0
 79156  1  0  0  0
 80 81  1  0  0  0
 80157  1  0  0  0
 80158  1  0  0  0
 81159  1  0  0  0
 81160  1  0  0  0
 82161  1  0  0  0
 83162  1  0  0  0
 84 88  1  0  0  0
 86 88  2  0  0  0
 87 88  2  0  0  0
M  ISO  4   1 100  68 101  81 101  83 100
M  END
> <chiral flag>
0

> <version>
0

> <s_m_source_file>
/data/baiqing/PycharmProjects/Reinvent-master-3.2/result/LINK_invent/BTK/process_docking_weight1_custom_sum_contain_oxygen_bond_distance_aromatic_linkinvent_7_9_3/rearranged_h_0010.sdf

> <i_m_source_file_index>
33

> <r_mmod_Potential_Energy-OPLS-2005>
-23.6380863189697

> <r_mmod_Stretch_Energy-OPLS-2005>
83.1192626953125

> <r_mmod_Bend_Energy-OPLS-2005>
142.808715820312

> <r_mmod_Torsional_Energy-OPLS-2005>
222.288681030273

> <r_mmod_Improper_Torsional_Energy-OPLS-2005>
11.3046884536743

> <r_mmod_Van_der_Waal_Energy-OPLS-2005>
148.63883972168

> <r_mmod_Electrostatic_Energy-OPLS-2005>
-439.669067382812

> <r_mmod_Solvation_Energy-OPLS-2005>
-239.020767211914

> <b_mmod_Minimization_Converged-OPLS-2005>
0

> <r_mmod_RMS_Derivative-OPLS-2005>
1.84735238552094

$$$$
33
                    3D
 Structure written by MMmdl.
148156  0  0  1  0            999 V2000
  -30.5229  -14.9232   20.4181 C   0  0  0  0  0  0
  -30.4522  -12.5679   19.4857 C   0  0  0  0  0  0
  -29.5227  -12.5332   18.2487 C   0  0  0  0  0  0
  -28.0534  -12.3247   18.6659 C   0  0  0  0  0  0
  -27.6357  -13.2432   19.8441 C   0  0  2  0  0  0
  -28.6845  -13.2333   20.9779 C   0  0  0  0  0  0
  -25.2456  -13.8175   20.5705 C   0  0  0  0  0  0
  -24.1773  -13.0399   20.9199 C   0  0  0  0  0  0
  -24.6405  -11.6897   20.8735 C   0  0  0  0  0  0
  -23.9085  -10.4272   21.0392 C   0  0  0  0  0  0
  -24.3628   -9.4192   21.9179 C   0  0  0  0  0  0
  -23.6291   -8.2235   22.0754 C   0  0  0  0  0  0
  -22.4274   -8.0279   21.3544 C   0  0  0  0  0  0
  -21.9913   -9.0252   20.4647 C   0  0  0  0  0  0
  -22.7251  -10.2121   20.3049 C   0  0  0  0  0  0
  -21.6852   -6.0729   22.5276 C   0  0  0  0  0  0
  -21.4014   -6.5632   23.8209 C   0  0  0  0  0  0
  -21.3661   -5.6786   24.9172 C   0  0  0  0  0  0
  -21.6045   -4.3049   24.7224 C   0  0  0  0  0  0
  -21.8819   -3.8140   23.4346 C   0  0  0  0  0  0
  -21.9192   -4.6956   22.3400 C   0  0  0  0  0  0
  -22.7793  -13.5178   21.1865 C   0  0  0  0  0  0
  -22.1662   -4.2142   21.0978 F   0  0  0  0  0  0
  -21.5629   -3.4535   25.7738 F   0  0  0  0  0  0
  -29.9675  -13.6465   20.3882 N   0  0  0  0  0  0
  -26.2919  -12.9426   20.3274 N   0  0  0  0  0  0
  -25.9344  -11.6552   20.5738 N   0  0  0  0  0  0
  -22.0453  -12.8180   22.0439 N   0  0  0  0  0  0
  -25.3985  -15.1905   20.4184 N   0  0  0  0  0  0
  -31.7200  -15.0470   20.1363 O   0  0  0  0  0  0
  -21.6638   -6.8877   21.4241 O   0  0  0  0  0  0
  -22.3469  -14.5485   20.6719 O   0  0  0  0  0  0
  -24.6439  -31.8448   23.1893 C   0  0  0  0  0  0
  -25.9212  -32.4700   23.8284 C   0  0  1  0  0  0
  -27.2223  -27.1432   20.1398 C   0  0  0  0  0  0
  -25.5958  -33.8506   24.2198 N   0  0  0  0  0  0
  -23.4477  -30.4650   21.5350 C   0  0  2  0  0  0
  -24.8980  -28.8964   20.1096 C   0  0  0  0  0  0
  -22.7575  -29.4549   22.4860 C   0  0  0  0  0  0
  -18.0310  -28.1394   22.8479 C   0  0  0  0  0  0
  -24.1494  -36.7257   23.2643 C   0  0  0  0  0  0
  -26.0046  -30.7195   21.3893 C   0  0  0  0  0  0
  -26.0766  -29.3321   20.7284 C   0  0  0  0  0  0
  -27.2389  -28.4715   20.7288 C   0  0  0  0  0  0
  -26.0152  -26.8130   19.4806 C   0  0  0  0  0  0
  -24.8797  -27.6491   19.4716 C   0  0  0  0  0  0
  -23.6743  -29.7971   20.1537 C   0  0  0  0  0  0
  -25.4126  -36.3034   24.0315 C   0  0  1  0  0  0
  -20.5923  -28.3721   23.1235 C   0  0  2  0  0  0
  -20.6792  -26.9422   22.5404 C   0  0  0  0  0  0
  -19.5763  -26.6377   21.5215 C   0  0  0  0  0  0
  -18.1947  -26.7931   22.1629 C   0  0  0  0  0  0
  -19.1567  -28.8877   23.2848 C   0  0  0  0  0  0
  -18.9481  -30.1472   23.8873 C   0  0  0  0  0  0
  -17.6475  -30.6587   24.0559 C   0  0  0  0  0  0
  -25.9075  -34.9408   23.5066 C   0  0  0  0  0  0
  -16.5367  -29.9078   23.6333 C   0  0  0  0  0  0
  -16.7295  -28.6499   23.0353 C   0  0  0  0  0  0
  -26.4526  -31.6565   25.0726 C   0  0  0  0  0  0
  -25.3704  -31.3764   26.1418 C   0  0  0  0  0  0
  -27.0383  -30.2952   24.6315 C   0  0  0  0  0  0
  -27.6058  -32.4329   25.7509 C   0  0  0  0  0  0
  -27.5573  -37.1795   24.8471 C   0  0  0  0  0  0
  -21.4268  -29.3048   22.3605 N   0  0  0  0  0  0
  -26.4295  -37.3740   23.9396 N   0  0  0  0  0  0
  -24.7183  -31.0306   22.0927 N   0  0  0  0  0  0
  -23.4220  -28.8092   23.3006 O   0  0  0  0  0  0
  -28.2679  -26.1479   20.2098 O   0  0  0  0  0  0
  -26.5660  -34.8903   22.4644 O   0  0  0  0  0  0
  -23.5556  -32.1328   23.7105 O   0  0  0  0  0  0
  -30.2961  -20.0170   20.4256 C   0  0  0  0  0  0
  -30.5838  -18.5770   20.5039 C   0  0  0  0  0  0
  -28.0053  -19.5294   20.1717 C   0  0  0  0  0  0
  -28.9753  -20.5791   20.2571 C   0  0  0  0  0  0
  -29.5783  -17.5427   20.4311 C   0  0  0  0  0  0
  -28.2822  -18.1155   20.2590 C   0  0  0  0  0  0
  -28.9344  -23.3662   20.2880 C   0  0  0  0  0  0
  -27.9293  -24.6471   19.9728 C   0  0  0  0  0  0
  -28.4899  -22.0311   20.1185 N   0  0  0  0  0  0
  -29.6452  -16.0185   20.5765 N   0  0  0  0  0  0
  -30.0846  -23.5963   20.6703 O   0  0  0  0  0  0
  -27.2386  -17.2582   20.1703 F   0  0  0  0  0  0
  -31.4835  -12.7374   19.1725 H   0  0  0  0  0  0
  -30.4493  -11.6058   20.0004 H   0  0  0  0  0  0
  -29.8323  -11.7426   17.5639 H   0  0  0  0  0  0
  -29.6152  -13.4694   17.6962 H   0  0  0  0  0  0
  -27.9392  -11.2796   18.9559 H   0  0  0  0  0  0
  -27.3917  -12.4779   17.8127 H   0  0  0  0  0  0
  -27.6038  -14.2530   19.4341 H   0  0  0  0  0  0
  -28.7633  -12.2428   21.4286 H   0  0  0  0  0  0
  -28.3903  -13.9113   21.7806 H   0  0  0  0  0  0
  -25.2773   -9.5664   22.4755 H   0  0  0  0  0  0
  -23.9994   -7.4627   22.7479 H   0  0  0  0  0  0
  -21.0839   -8.8777   19.8956 H   0  0  0  0  0  0
  -22.3714  -10.9663   19.6160 H   0  0  0  0  0  0
  -21.2007   -7.6141   23.9710 H   0  0  0  0  0  0
  -21.1483   -6.0517   25.9074 H   0  0  0  0  0  0
  -22.0597   -2.7603   23.2849 H   0  0  0  0  0  0
  -22.4080  -11.9853   22.4836 H   0  0  0  0  0  0
  -21.1076  -13.1210   22.2656 H   0  0  0  0  0  0
  -24.6180  -15.8228   20.5520 H   0  0  0  0  0  0
  -26.2437  -15.6829   20.1485 H   0  0  0  0  0  0
  -26.7281  -32.5307   23.1018 H   0  0  0  0  0  0
  -25.0079  -33.9622   25.0327 H   0  0  0  0  0  0
  -22.7503  -31.2911   21.3817 H   0  0  0  0  0  0
  -23.3749  -35.9597   23.3317 H   0  0  0  0  0  0
  -24.3572  -36.8874   22.2054 H   0  0  0  0  0  0
  -23.7264  -37.6465   23.6670 H   0  0  0  0  0  0
  -26.1626  -31.4759   20.6192 H   0  0  0  0  0  0
  -26.8744  -30.7677   22.0330 H   0  0  0  0  0  0
  -28.1348  -28.7996   21.2373 H   0  0  0  0  0  0
  -25.9045  -25.8650   18.9778 H   0  0  0  0  0  0
  -23.9813  -27.3108   18.9740 H   0  0  0  0  0  0
  -23.8102  -30.5729   19.3992 H   0  0  0  0  0  0
  -22.7896  -29.2391   19.8428 H   0  0  0  0  0  0
  -25.1316  -36.1868   25.0809 H   0  0  0  0  0  0
  -21.0022  -28.3313   24.1353 H   0  0  0  0  0  0
  -20.5686  -26.2335   23.3625 H   0  0  0  0  0  0
  -21.6658  -26.7423   22.1202 H   0  0  0  0  0  0
  -19.6920  -25.6283   21.1257 H   0  0  0  0  0  0
  -19.6691  -27.3177   20.6736 H   0  0  0  0  0  0
  -17.4212  -26.6676   21.4036 H   0  0  0  0  0  0
  -18.0343  -26.0079   22.9032 H   0  0  0  0  0  0
  -19.7955  -30.7300   24.2230 H   0  0  0  0  0  0
  -17.5023  -31.6265   24.5165 H   0  0  0  0  0  0
  -15.5365  -30.2969   23.7664 H   0  0  0  0  0  0
  -15.8699  -28.0805   22.7076 H   0  0  0  0  0  0
  -24.5888  -30.7108   25.7740 H   0  0  0  0  0  0
  -24.8889  -32.2949   26.4781 H   0  0  0  0  0  0
  -25.7979  -30.8978   27.0237 H   0  0  0  0  0  0
  -26.3001  -29.6681   24.1303 H   0  0  0  0  0  0
  -27.3961  -29.7250   25.4899 H   0  0  0  0  0  0
  -27.8927  -30.4174   23.9656 H   0  0  0  0  0  0
  -27.2650  -33.3642   26.2044 H   0  0  0  0  0  0
  -28.3889  -32.6872   25.0355 H   0  0  0  0  0  0
  -28.0704  -31.8486   26.5461 H   0  0  0  0  0  0
  -28.2612  -38.0067   24.7470 H   0  0  0  0  0  0
  -28.1046  -36.2597   24.6360 H   0  0  0  0  0  0
  -27.2283  -37.1519   25.8873 H   0  0  0  0  0  0
  -20.9477  -29.8763   21.6786 H   0  0  0  0  0  0
  -26.0164  -38.2818   24.1361 H   0  0  0  0  0  0
  -31.1302  -20.7013   20.4938 H   0  0  0  0  0  0
  -31.6119  -18.2747   20.6419 H   0  0  0  0  0  0
  -26.9705  -19.8057   20.0355 H   0  0  0  0  0  0
  -27.0130  -24.4341   20.5243 H   0  0  0  0  0  0
  -27.6767  -24.5464   18.9172 H   0  0  0  0  0  0
  -27.5204  -22.0610   19.8323 H   0  0  0  0  0  0
  -28.7156  -15.6558   20.7243 H   0  0  0  0  0  0
  1 25  1  0  0  0
  1 30  2  0  0  0
  1 80  1  0  0  0
  2  3  1  0  0  0
  2 25  1  0  0  0
  2 83  1  0  0  0
  2 84  1  0  0  0
  3  4  1  0  0  0
  3 85  1  0  0  0
  3 86  1  0  0  0
  4  5  1  0  0  0
  4 87  1  0  0  0
  4 88  1  0  0  0
  5  6  1  0  0  0
  5 26  1  0  0  0
  5 89  1  0  0  0
  6 25  1  0  0  0
  6 90  1  0  0  0
  6 91  1  0  0  0
  7  8  2  0  0  0
  7 26  1  0  0  0
  7 29  1  0  0  0
  8  9  1  0  0  0
  8 22  1  0  0  0
  9 10  1  0  0  0
  9 27  2  0  0  0
 10 11  2  0  0  0
 10 15  1  0  0  0
 11 12  1  0  0  0
 11 92  1  0  0  0
 12 13  2  0  0  0
 12 93  1  0  0  0
 13 14  1  0  0  0
 13 31  1  0  0  0
 14 15  2  0  0  0
 14 94  1  0  0  0
 15 95  1  0  0  0
 16 17  2  0  0  0
 16 21  1  0  0  0
 16 31  1  0  0  0
 17 18  1  0  0  0
 17 96  1  0  0  0
 18 19  2  0  0  0
 18 97  1  0  0  0
 19 20  1  0  0  0
 19 24  1  0  0  0
 20 21  2  0  0  0
 20 98  1  0  0  0
 21 23  1  0  0  0
 22 28  1  0  0  0
 22 32  2  0  0  0
 26 27  1  0  0  0
 28 99  1  0  0  0
 28100  1  0  0  0
 29101  1  0  0  0
 29102  1  0  0  0
 33 34  1  0  0  0
 33 66  1  0  0  0
 33 70  2  0  0  0
 34 36  1  0  0  0
 34 59  1  0  0  0
 34103  1  0  0  0
 35 44  2  0  0  0
 35 45  1  0  0  0
 35 68  1  0  0  0
 36 56  1  0  0  0
 36104  1  0  0  0
 37 39  1  0  0  0
 37 47  1  0  0  0
 37 66  1  0  0  0
 37105  1  0  0  0
 38 43  2  0  0  0
 38 46  1  0  0  0
 38 47  1  0  0  0
 39 64  1  0  0  0
 39 67  2  0  0  0
 40 52  1  0  0  0
 40 53  2  0  0  0
 40 58  1  0  0  0
 41106  1  0  0  0
 41107  1  0  0  0
 41108  1  0  0  0
 41 48  1  0  0  0
 42 43  1  0  0  0
 42 66  1  0  0  0
 42109  1  0  0  0
 42110  1  0  0  0
 43 44  1  0  0  0
 44111  1  0  0  0
 45 46  2  0  0  0
 45112  1  0  0  0
 46113  1  0  0  0
 47114  1  0  0  0
 47115  1  0  0  0
 48 56  1  0  0  0
 48 65  1  0  0  0
 48116  1  0  0  0
 49 50  1  0  0  0
 49 53  1  0  0  0
 49 64  1  0  0  0
 49117  1  0  0  0
 50 51  1  0  0  0
 50118  1  0  0  0
 50119  1  0  0  0
 51 52  1  0  0  0
 51120  1  0  0  0
 51121  1  0  0  0
 52122  1  0  0  0
 52123  1  0  0  0
 53 54  1  0  0  0
 54 55  2  0  0  0
 54124  1  0  0  0
 55 57  1  0  0  0
 55125  1  0  0  0
 56 69  2  0  0  0
 57 58  2  0  0  0
 57126  1  0  0  0
 58127  1  0  0  0
 59 60  1  0  0  0
 59 61  1  0  0  0
 59 62  1  0  0  0
 60128  1  0  0  0
 60129  1  0  0  0
 60130  1  0  0  0
 61131  1  0  0  0
 61132  1  0  0  0
 61133  1  0  0  0
 62134  1  0  0  0
 62135  1  0  0  0
 62136  1  0  0  0
 63 65  1  0  0  0
 63137  1  0  0  0
 63138  1  0  0  0
 63139  1  0  0  0
 64140  1  0  0  0
 65141  1  0  0  0
 68 78  1  0  0  0
 71 72  2  0  0  0
 71 74  1  0  0  0
 71142  1  0  0  0
 72 75  1  0  0  0
 72143  1  0  0  0
 73 74  2  0  0  0
 73 76  1  0  0  0
 73144  1  0  0  0
 74 79  1  0  0  0
 75 76  2  0  0  0
 75 80  1  0  0  0
 76 82  1  0  0  0
 77 78  1  0  0  0
 77 79  1  0  0  0
 77 81  2  0  0  0
 78145  1  0  0  0
 78146  1  0  0  0
 79147  1  0  0  0
 80148  1  0  0  0
M  ISO  4   1 100  68 101  78 101  80 100
M  END
> <chiral flag>
0

> <version>
0

> <s_m_source_file>
/data/baiqing/PycharmProjects/Reinvent-master-3.2/result/LINK_invent/BTK/process_docking_weight1_custom_sum_contain_oxygen_bond_distance_aromatic_linkinvent_7_9_3/rearranged_h_0010.sdf

> <i_m_source_file_index>
34

> <r_mmod_Potential_Energy-OPLS-2005>
393.216552734375

> <r_mmod_Stretch_Energy-OPLS-2005>
217.871948242188

> <r_mmod_Bend_Energy-OPLS-2005>
284.265167236328

> <r_mmod_Torsional_Energy-OPLS-2005>
220.855941772461

> <r_mmod_Improper_Torsional_Energy-OPLS-2005>
4.66032266616821

> <r_mmod_Van_der_Waal_Energy-OPLS-2005>
131.992782592773

> <r_mmod_Electrostatic_Energy-OPLS-2005>
-408.452697753906

> <r_mmod_Solvation_Energy-OPLS-2005>
-240.841186523438

> <b_mmod_Minimization_Converged-OPLS-2005>
0

> <r_mmod_RMS_Derivative-OPLS-2005>
0.679981827735901

$$$$
34
                    3D
 Structure written by MMmdl.
159167  0  0  1  0            999 V2000
  -30.5016  -14.9236   20.4253 C   0  0  0  0  0  0
  -30.4494  -12.5677   19.4915 C   0  0  0  0  0  0
  -29.5257  -12.5376   18.2503 C   0  0  0  0  0  0
  -28.0516  -12.3311   18.6573 C   0  0  0  0  0  0
  -27.6334  -13.2416   19.8408 C   0  0  2  0  0  0
  -28.6750  -13.2235   20.9803 C   0  0  0  0  0  0
  -25.2466  -13.8200   20.5678 C   0  0  0  0  0  0
  -24.1776  -13.0429   20.9214 C   0  0  0  0  0  0
  -24.6379  -11.6911   20.8738 C   0  0  0  0  0  0
  -23.9054  -10.4289   21.0394 C   0  0  0  0  0  0
  -24.3614   -9.4210   21.9175 C   0  0  0  0  0  0
  -23.6297   -8.2238   22.0750 C   0  0  0  0  0  0
  -22.4280   -8.0273   21.3535 C   0  0  0  0  0  0
  -21.9907   -9.0241   20.4639 C   0  0  0  0  0  0
  -22.7226  -10.2128   20.3041 C   0  0  0  0  0  0
  -21.6851   -6.0727   22.5272 C   0  0  0  0  0  0
  -21.4013   -6.5632   23.8210 C   0  0  0  0  0  0
  -21.3662   -5.6785   24.9169 C   0  0  0  0  0  0
  -21.6044   -4.3045   24.7216 C   0  0  0  0  0  0
  -21.8821   -3.8135   23.4335 C   0  0  0  0  0  0
  -21.9191   -4.6950   22.3395 C   0  0  0  0  0  0
  -22.7796  -13.5207   21.1870 C   0  0  0  0  0  0
  -22.1661   -4.2134   21.0971 F   0  0  0  0  0  0
  -21.5632   -3.4529   25.7734 F   0  0  0  0  0  0
  -29.9567  -13.6427   20.3953 N   0  0  0  0  0  0
  -26.2885  -12.9412   20.3210 N   0  0  0  0  0  0
  -25.9305  -11.6543   20.5704 N   0  0  0  0  0  0
  -22.0439  -12.8205   22.0434 N   0  0  0  0  0  0
  -25.4131  -15.1927   20.4090 N   0  0  0  0  0  0
  -31.6953  -15.0511   20.1278 O   0  0  0  0  0  0
  -21.6632   -6.8873   21.4238 O   0  0  0  0  0  0
  -22.3479  -14.5499   20.6710 O   0  0  0  0  0  0
  -24.6429  -31.8451   23.1879 C   0  0  0  0  0  0
  -25.9216  -32.4680   23.8259 C   0  0  1  0  0  0
  -27.2157  -27.1512   20.1461 C   0  0  0  0  0  0
  -25.5962  -33.8480   24.2183 N   0  0  0  0  0  0
  -23.4443  -30.4649   21.5346 C   0  0  2  0  0  0
  -24.8906  -28.8880   20.1148 C   0  0  0  0  0  0
  -22.7548  -29.4572   22.4872 C   0  0  0  0  0  0
  -18.0295  -28.1392   22.8494 C   0  0  0  0  0  0
  -24.1499  -36.7241   23.2642 C   0  0  0  0  0  0
  -25.9998  -30.7220   21.3855 C   0  0  0  0  0  0
  -26.0698  -29.3337   20.7269 C   0  0  0  0  0  0
  -27.2360  -28.4821   20.7227 C   0  0  0  0  0  0
  -26.0134  -26.8006   19.4980 C   0  0  0  0  0  0
  -24.8727  -27.6330   19.4865 C   0  0  0  0  0  0
  -23.6684  -29.7917   20.1551 C   0  0  0  0  0  0
  -25.4129  -36.3011   24.0315 C   0  0  1  0  0  0
  -20.5907  -28.3720   23.1231 C   0  0  2  0  0  0
  -20.6791  -26.9422   22.5398 C   0  0  0  0  0  0
  -19.5763  -26.6383   21.5211 C   0  0  0  0  0  0
  -18.1941  -26.7936   22.1627 C   0  0  0  0  0  0
  -19.1552  -28.8869   23.2862 C   0  0  0  0  0  0
  -18.9475  -30.1463   23.8884 C   0  0  0  0  0  0
  -17.6473  -30.6591   24.0552 C   0  0  0  0  0  0
  -25.9084  -34.9390   23.5060 C   0  0  0  0  0  0
  -16.5366  -29.9083   23.6330 C   0  0  0  0  0  0
  -16.7282  -28.6496   23.0372 C   0  0  0  0  0  0
  -26.4542  -31.6544   25.0693 C   0  0  0  0  0  0
  -25.3740  -31.3729   26.1400 C   0  0  0  0  0  0
  -27.0404  -30.2932   24.6287 C   0  0  0  0  0  0
  -27.6075  -32.4312   25.7475 C   0  0  0  0  0  0
  -27.5577  -37.1773   24.8460 C   0  0  0  0  0  0
  -21.4244  -29.3044   22.3595 N   0  0  0  0  0  0
  -26.4282  -37.3733   23.9407 N   0  0  0  0  0  0
  -24.7153  -31.0326   22.0904 N   0  0  0  0  0  0
  -23.4200  -28.8139   23.3030 O   0  0  0  0  0  0
  -28.2780  -26.1822   20.1556 O   0  0  0  0  0  0
  -26.5659  -34.8889   22.4631 O   0  0  0  0  0  0
  -23.5555  -32.1313   23.7120 O   0  0  0  0  0  0
  -29.5282  -18.3268   21.7839 C   0  0  0  0  0  0
  -29.2658  -19.8418   19.4751 C   0  0  0  0  0  0
  -29.6625  -17.5534   20.5907 C   0  0  0  0  0  0
  -29.1065  -20.6111   20.6842 C   0  0  0  0  0  0
  -29.2615  -19.7515   21.8348 C   0  0  0  0  0  0
  -29.5054  -18.3956   19.4276 C   0  0  0  0  0  0
  -31.7600  -20.3025   24.0457 C   0  0  0  0  0  0
  -30.9296  -22.4528   23.1463 C   0  0  0  0  0  0
  -28.0210  -24.6969   20.5366 C   0  0  0  0  0  0
  -28.7317  -23.2690   19.9828 C   0  0  0  0  0  0
  -29.6300  -16.0203   20.6261 N   0  0  0  0  0  0
  -30.6058  -21.1876   23.8258 N   0  0  0  0  0  0
  -28.0668  -21.5204   23.5015 O   0  0  0  0  0  0
  -28.9336  -19.3494   24.4755 O   0  0  0  0  0  0
  -28.7645  -22.0267   20.8794 O   0  0  0  0  0  0
  -29.0731  -20.4454   23.5022 S   0  0  0  0  0  0
  -29.5201  -17.6399   17.8742 Cl  0  0  0  0  0  0
  -31.4817  -12.7440   19.1827 H   0  0  0  0  0  0
  -30.4478  -11.6022   20.0003 H   0  0  0  0  0  0
  -29.8414  -11.7533   17.5602 H   0  0  0  0  0  0
  -29.6231  -13.4794   17.7068 H   0  0  0  0  0  0
  -27.9268  -11.2850   18.9370 H   0  0  0  0  0  0
  -27.3958  -12.4966   17.8018 H   0  0  0  0  0  0
  -27.6086  -14.2540   19.4356 H   0  0  0  0  0  0
  -28.7536  -12.2288   21.4222 H   0  0  0  0  0  0
  -28.3766  -13.8944   21.7878 H   0  0  0  0  0  0
  -25.2760   -9.5684   22.4748 H   0  0  0  0  0  0
  -23.9995   -7.4627   22.7475 H   0  0  0  0  0  0
  -21.0831   -8.8752   19.8955 H   0  0  0  0  0  0
  -22.3676  -10.9658   19.6145 H   0  0  0  0  0  0
  -21.2010   -7.6145   23.9708 H   0  0  0  0  0  0
  -21.1489   -6.0514   25.9078 H   0  0  0  0  0  0
  -22.0604   -2.7595   23.2829 H   0  0  0  0  0  0
  -22.4056  -11.9869   22.4839 H   0  0  0  0  0  0
  -21.1051  -13.1230   22.2628 H   0  0  0  0  0  0
  -24.6353  -15.8361   20.5089 H   0  0  0  0  0  0
  -26.2312  -15.6281   20.0051 H   0  0  0  0  0  0
  -26.7287  -32.5295   23.0994 H   0  0  0  0  0  0
  -25.0100  -33.9594   25.0327 H   0  0  0  0  0  0
  -22.7473  -31.2910   21.3812 H   0  0  0  0  0  0
  -23.3755  -35.9576   23.3269 H   0  0  0  0  0  0
  -24.3599  -36.8900   22.2063 H   0  0  0  0  0  0
  -23.7252  -37.6425   23.6707 H   0  0  0  0  0  0
  -26.1599  -31.4773   20.6154 H   0  0  0  0  0  0
  -26.8690  -30.7671   22.0298 H   0  0  0  0  0  0
  -28.1393  -28.8215   21.2104 H   0  0  0  0  0  0
  -25.9415  -25.8457   18.9965 H   0  0  0  0  0  0
  -23.9744  -27.2854   18.9945 H   0  0  0  0  0  0
  -23.8074  -30.5653   19.3986 H   0  0  0  0  0  0
  -22.7820  -29.2365   19.8446 H   0  0  0  0  0  0
  -25.1326  -36.1822   25.0807 H   0  0  0  0  0  0
  -21.0021  -28.3310   24.1350 H   0  0  0  0  0  0
  -20.5682  -26.2335   23.3619 H   0  0  0  0  0  0
  -21.6658  -26.7434   22.1197 H   0  0  0  0  0  0
  -19.6917  -25.6289   21.1247 H   0  0  0  0  0  0
  -19.6690  -27.3187   20.6732 H   0  0  0  0  0  0
  -17.4215  -26.6669   21.4020 H   0  0  0  0  0  0
  -18.0341  -26.0076   22.9022 H   0  0  0  0  0  0
  -19.7952  -30.7273   24.2264 H   0  0  0  0  0  0
  -17.5030  -31.6271   24.5148 H   0  0  0  0  0  0
  -15.5367  -30.2985   23.7660 H   0  0  0  0  0  0
  -15.8681  -28.0793   22.7127 H   0  0  0  0  0  0
  -24.5926  -30.7070   25.7722 H   0  0  0  0  0  0
  -24.8923  -32.2908   26.4782 H   0  0  0  0  0  0
  -25.8040  -30.8927   27.0200 H   0  0  0  0  0  0
  -26.3021  -29.6640   24.1304 H   0  0  0  0  0  0
  -27.4005  -29.7250   25.4873 H   0  0  0  0  0  0
  -27.8940  -30.4128   23.9609 H   0  0  0  0  0  0
  -27.2674  -33.3639   26.1989 H   0  0  0  0  0  0
  -28.3924  -32.6826   25.0329 H   0  0  0  0  0  0
  -28.0712  -31.8469   26.5436 H   0  0  0  0  0  0
  -28.2566  -38.0098   24.7535 H   0  0  0  0  0  0
  -28.1095  -36.2620   24.6257 H   0  0  0  0  0  0
  -27.2295  -37.1391   25.8862 H   0  0  0  0  0  0
  -20.9457  -29.8709   21.6734 H   0  0  0  0  0  0
  -26.0129  -38.2787   24.1422 H   0  0  0  0  0  0
  -29.5822  -17.7959   22.7217 H   0  0  0  0  0  0
  -29.1439  -20.3556   18.5331 H   0  0  0  0  0  0
  -32.6328  -20.8683   24.3719 H   0  0  0  0  0  0
  -32.0163  -19.7700   23.1289 H   0  0  0  0  0  0
  -31.5358  -19.5638   24.8166 H   0  0  0  0  0  0
  -31.7763  -22.9470   23.6246 H   0  0  0  0  0  0
  -30.0842  -23.1408   23.1869 H   0  0  0  0  0  0
  -31.1762  -22.2787   22.0980 H   0  0  0  0  0  0
  -28.2486  -24.6988   21.6032 H   0  0  0  0  0  0
  -26.9454  -24.5226   20.5161 H   0  0  0  0  0  0
  -29.7702  -23.4895   19.7382 H   0  0  0  0  0  0
  -28.2661  -22.9919   19.0366 H   0  0  0  0  0  0
  -28.7120  -15.6764   20.8644 H   0  0  0  0  0  0
  1 25  1  0  0  0
  1 30  2  0  0  0
  1 81  1  0  0  0
  2  3  1  0  0  0
  2 25  1  0  0  0
  2 88  1  0  0  0
  2 89  1  0  0  0
  3  4  1  0  0  0
  3 90  1  0  0  0
  3 91  1  0  0  0
  4  5  1  0  0  0
  4 92  1  0  0  0
  4 93  1  0  0  0
  5  6  1  0  0  0
  5 26  1  0  0  0
  5 94  1  0  0  0
  6 25  1  0  0  0
  6 95  1  0  0  0
  6 96  1  0  0  0
  7  8  2  0  0  0
  7 26  1  0  0  0
  7 29  1  0  0  0
  8  9  1  0  0  0
  8 22  1  0  0  0
  9 10  1  0  0  0
  9 27  2  0  0  0
 10 11  2  0  0  0
 10 15  1  0  0  0
 11 12  1  0  0  0
 11 97  1  0  0  0
 12 13  2  0  0  0
 12 98  1  0  0  0
 13 14  1  0  0  0
 13 31  1  0  0  0
 14 15  2  0  0  0
 14 99  1  0  0  0
 15100  1  0  0  0
 16 17  2  0  0  0
 16 21  1  0  0  0
 16 31  1  0  0  0
 17 18  1  0  0  0
 17101  1  0  0  0
 18 19  2  0  0  0
 18102  1  0  0  0
 19 20  1  0  0  0
 19 24  1  0  0  0
 20 21  2  0  0  0
 20103  1  0  0  0
 21 23  1  0  0  0
 22 28  1  0  0  0
 22 32  2  0  0  0
 26 27  1  0  0  0
 28104  1  0  0  0
 28105  1  0  0  0
 29106  1  0  0  0
 29107  1  0  0  0
 33 34  1  0  0  0
 33 66  1  0  0  0
 33 70  2  0  0  0
 34 36  1  0  0  0
 34 59  1  0  0  0
 34108  1  0  0  0
 35 44  2  0  0  0
 35 45  1  0  0  0
 35 68  1  0  0  0
 36 56  1  0  0  0
 36109  1  0  0  0
 37 39  1  0  0  0
 37 47  1  0  0  0
 37 66  1  0  0  0
 37110  1  0  0  0
 38 43  2  0  0  0
 38 46  1  0  0  0
 38 47  1  0  0  0
 39 64  1  0  0  0
 39 67  2  0  0  0
 40 52  1  0  0  0
 40 53  2  0  0  0
 40 58  1  0  0  0
 41111  1  0  0  0
 41112  1  0  0  0
 41113  1  0  0  0
 41 48  1  0  0  0
 42 43  1  0  0  0
 42 66  1  0  0  0
 42114  1  0  0  0
 42115  1  0  0  0
 43 44  1  0  0  0
 44116  1  0  0  0
 45 46  2  0  0  0
 45117  1  0  0  0
 46118  1  0  0  0
 47119  1  0  0  0
 47120  1  0  0  0
 48 56  1  0  0  0
 48 65  1  0  0  0
 48121  1  0  0  0
 49 50  1  0  0  0
 49 53  1  0  0  0
 49 64  1  0  0  0
 49122  1  0  0  0
 50 51  1  0  0  0
 50123  1  0  0  0
 50124  1  0  0  0
 51 52  1  0  0  0
 51125  1  0  0  0
 51126  1  0  0  0
 52127  1  0  0  0
 52128  1  0  0  0
 53 54  1  0  0  0
 54 55  2  0  0  0
 54129  1  0  0  0
 55 57  1  0  0  0
 55130  1  0  0  0
 56 69  2  0  0  0
 57 58  2  0  0  0
 57131  1  0  0  0
 58132  1  0  0  0
 59 60  1  0  0  0
 59 61  1  0  0  0
 59 62  1  0  0  0
 60133  1  0  0  0
 60134  1  0  0  0
 60135  1  0  0  0
 61136  1  0  0  0
 61137  1  0  0  0
 61138  1  0  0  0
 62139  1  0  0  0
 62140  1  0  0  0
 62141  1  0  0  0
 63 65  1  0  0  0
 63142  1  0  0  0
 63143  1  0  0  0
 63144  1  0  0  0
 64145  1  0  0  0
 65146  1  0  0  0
 68 79  1  0  0  0
 71 73  2  0  0  0
 71 75  1  0  0  0
 71147  1  0  0  0
 72 74  1  0  0  0
 72 76  2  0  0  0
 72148  1  0  0  0
 73 76  1  0  0  0
 73 81  1  0  0  0
 74 75  2  0  0  0
 74 85  1  0  0  0
 75 86  1  0  0  0
 76 87  1  0  0  0
 77 82  1  0  0  0
 77149  1  0  0  0
 77150  1  0  0  0
 77151  1  0  0  0
 78 82  1  0  0  0
 78152  1  0  0  0
 78153  1  0  0  0
 78154  1  0  0  0
 79 80  1  0  0  0
 79155  1  0  0  0
 79156  1  0  0  0
 80 85  1  0  0  0
 80157  1  0  0  0
 80158  1  0  0  0
 81159  1  0  0  0
 82 86  1  0  0  0
 83 86  2  0  0  0
 84 86  2  0  0  0
M  ISO  4   1 100  68 101  79 101  81 100
M  END
> <chiral flag>
0

> <version>
0

> <s_m_source_file>
/data/baiqing/PycharmProjects/Reinvent-master-3.2/result/LINK_invent/BTK/process_docking_weight1_custom_sum_contain_oxygen_bond_distance_aromatic_linkinvent_7_9_3/rearranged_h_0010.sdf

> <i_m_source_file_index>
35

> <r_mmod_Potential_Energy-OPLS-2005>
404.303283691406

> <r_mmod_Stretch_Energy-OPLS-2005>
222.842834472656

> <r_mmod_Bend_Energy-OPLS-2005>
286.50927734375

> <r_mmod_Torsional_Energy-OPLS-2005>
236.350540161133

> <r_mmod_Improper_Torsional_Energy-OPLS-2005>
9.56186866760254

> <r_mmod_Van_der_Waal_Energy-OPLS-2005>
117.925102233887

> <r_mmod_Electrostatic_Energy-OPLS-2005>
-368.897308349609

> <r_mmod_Solvation_Energy-OPLS-2005>
-276.086242675781

> <b_mmod_Minimization_Converged-OPLS-2005>
0

> <r_mmod_RMS_Derivative-OPLS-2005>
2.04619264602661

$$$$
35
                    3D
 Structure written by MMmdl.
151159  0  0  1  0            999 V2000
  -30.6182  -14.6508   20.4889 C   0  0  0  0  0  0
  -30.4343  -12.3957   19.4577 C   0  0  0  0  0  0
  -29.5097  -12.5117   18.2259 C   0  0  0  0  0  0
  -28.0316  -12.3464   18.6328 C   0  0  0  0  0  0
  -27.6501  -13.2187   19.8584 C   0  0  2  0  0  0
  -28.6913  -13.0857   20.9919 C   0  0  0  0  0  0
  -25.2542  -13.8181   20.5666 C   0  0  0  0  0  0
  -24.1812  -13.0457   20.9192 C   0  0  0  0  0  0
  -24.6371  -11.6919   20.8731 C   0  0  0  0  0  0
  -23.9039  -10.4298   21.0406 C   0  0  0  0  0  0
  -24.3594   -9.4215   21.9183 C   0  0  0  0  0  0
  -23.6271   -8.2250   22.0745 C   0  0  0  0  0  0
  -22.4261   -8.0281   21.3533 C   0  0  0  0  0  0
  -21.9897   -9.0255   20.4649 C   0  0  0  0  0  0
  -22.7219  -10.2137   20.3050 C   0  0  0  0  0  0
  -21.6860   -6.0729   22.5281 C   0  0  0  0  0  0
  -21.4019   -6.5629   23.8210 C   0  0  0  0  0  0
  -21.3666   -5.6777   24.9175 C   0  0  0  0  0  0
  -21.6047   -4.3043   24.7227 C   0  0  0  0  0  0
  -21.8817   -3.8136   23.4346 C   0  0  0  0  0  0
  -21.9196   -4.6954   22.3409 C   0  0  0  0  0  0
  -22.7839  -13.5262   21.1865 C   0  0  0  0  0  0
  -22.1667   -4.2147   21.0981 F   0  0  0  0  0  0
  -21.5637   -3.4521   25.7736 F   0  0  0  0  0  0
  -30.0088  -13.4237   20.4293 N   0  0  0  0  0  0
  -26.2954  -12.9361   20.3257 N   0  0  0  0  0  0
  -25.9298  -11.6510   20.5711 N   0  0  0  0  0  0
  -22.0461  -12.8256   22.0412 N   0  0  0  0  0  0
  -25.4244  -15.1898   20.4087 N   0  0  0  0  0  0
  -31.7887  -14.7985   20.1222 O   0  0  0  0  0  0
  -21.6635   -6.8873   21.4237 O   0  0  0  0  0  0
  -22.3540  -14.5581   20.6729 O   0  0  0  0  0  0
  -24.6265  -31.8612   23.2049 C   0  0  0  0  0  0
  -25.9115  -32.4783   23.8371 C   0  0  1  0  0  0
  -27.2165  -27.3169   20.1104 C   0  0  0  0  0  0
  -25.5942  -33.8583   24.2311 N   0  0  0  0  0  0
  -23.4198  -30.4883   21.5465 C   0  0  2  0  0  0
  -24.8649  -28.9471   20.1101 C   0  0  0  0  0  0
  -22.7481  -29.4638   22.4917 C   0  0  0  0  0  0
  -18.0294  -28.1402   22.8482 C   0  0  0  0  0  0
  -24.1486  -36.7294   23.2634 C   0  0  0  0  0  0
  -25.9617  -30.7891   21.3788 C   0  0  0  0  0  0
  -26.0343  -29.4159   20.7224 C   0  0  0  0  0  0
  -27.2132  -28.6106   20.7180 C   0  0  0  0  0  0
  -26.0288  -26.9151   19.4564 C   0  0  0  0  0  0
  -24.8642  -27.7017   19.4685 C   0  0  0  0  0  0
  -23.6357  -29.8299   20.1593 C   0  0  0  0  0  0
  -25.4107  -36.3086   24.0333 C   0  0  1  0  0  0
  -20.5895  -28.3704   23.1280 C   0  0  2  0  0  0
  -20.6783  -26.9428   22.5400 C   0  0  0  0  0  0
  -19.5755  -26.6398   21.5210 C   0  0  0  0  0  0
  -18.1942  -26.7940   22.1635 C   0  0  0  0  0  0
  -19.1544  -28.8869   23.2884 C   0  0  0  0  0  0
  -18.9462  -30.1468   23.8909 C   0  0  0  0  0  0
  -17.6458  -30.6592   24.0578 C   0  0  0  0  0  0
  -25.9045  -34.9453   23.5116 C   0  0  0  0  0  0
  -16.5355  -29.9096   23.6322 C   0  0  0  0  0  0
  -16.7281  -28.6522   23.0333 C   0  0  0  0  0  0
  -26.4503  -31.6577   25.0730 C   0  0  0  0  0  0
  -25.3742  -31.3713   26.1463 C   0  0  0  0  0  0
  -27.0335  -30.3000   24.6176 C   0  0  0  0  0  0
  -27.6078  -32.4292   25.7498 C   0  0  0  0  0  0
  -27.5580  -37.1804   24.8466 C   0  0  0  0  0  0
  -21.4193  -29.3060   22.3665 N   0  0  0  0  0  0
  -26.4292  -37.3775   23.9411 N   0  0  0  0  0  0
  -24.6879  -31.0627   22.1002 N   0  0  0  0  0  0
  -23.4203  -28.8163   23.2982 O   0  0  0  0  0  0
  -28.3230  -26.4523   20.1399 O   0  0  0  0  0  0
  -26.5595  -34.8917   22.4674 O   0  0  0  0  0  0
  -23.5429  -32.1406   23.7373 O   0  0  0  0  0  0
  -28.7814  -19.3998   20.5810 C   0  0  0  0  0  0
  -28.7609  -17.9817   20.7731 C   0  0  0  0  0  0
  -31.1007  -17.8477   20.2574 C   0  0  0  0  0  0
  -29.9706  -20.0804   20.2182 C   0  0  0  0  0  0
  -29.9121  -17.1592   20.6076 C   0  0  0  0  0  0
  -31.1242  -19.2605   20.0691 C   0  0  0  0  0  0
  -29.2411  -24.0108   20.1397 C   0  0  0  0  0  0
  -30.0931  -21.6198   19.9044 C   0  0  0  0  0  0
  -28.0412  -25.0067   20.3647 C   0  0  0  0  0  0
  -29.8001  -15.7074   20.8040 N   0  0  0  0  0  0
  -29.0635  -22.6526   20.2691 N   0  0  0  0  0  0
  -30.3382  -24.4724   19.8153 O   0  0  0  0  0  0
  -32.2977  -19.8382   19.7167 F   0  0  0  0  0  0
  -31.4775  -12.5160   19.1596 H   0  0  0  0  0  0
  -30.3632  -11.4019   19.9019 H   0  0  0  0  0  0
  -29.7794  -11.7649   17.4785 H   0  0  0  0  0  0
  -29.6500  -13.4844   17.7501 H   0  0  0  0  0  0
  -27.8647  -11.2938   18.8622 H   0  0  0  0  0  0
  -27.3798  -12.5803   17.7899 H   0  0  0  0  0  0
  -27.6650  -14.2510   19.5073 H   0  0  0  0  0  0
  -28.7009  -12.0712   21.3917 H   0  0  0  0  0  0
  -28.4306  -13.7336   21.8316 H   0  0  0  0  0  0
  -25.2738   -9.5720   22.4752 H   0  0  0  0  0  0
  -24.0009   -7.4652   22.7448 H   0  0  0  0  0  0
  -21.0841   -8.8772   19.8949 H   0  0  0  0  0  0
  -22.3676  -10.9673   19.6158 H   0  0  0  0  0  0
  -21.1998   -7.6131   23.9721 H   0  0  0  0  0  0
  -21.1495   -6.0499   25.9080 H   0  0  0  0  0  0
  -22.0587   -2.7596   23.2839 H   0  0  0  0  0  0
  -22.4054  -11.9921   22.4827 H   0  0  0  0  0  0
  -21.1072  -13.1296   22.2601 H   0  0  0  0  0  0
  -24.6471  -15.8347   20.5007 H   0  0  0  0  0  0
  -26.2574  -15.6274   20.0385 H   0  0  0  0  0  0
  -26.7182  -32.5457   23.1116 H   0  0  0  0  0  0
  -25.0132  -33.9729   25.0490 H   0  0  0  0  0  0
  -22.7132  -31.3091   21.4062 H   0  0  0  0  0  0
  -23.3736  -35.9637   23.3308 H   0  0  0  0  0  0
  -24.3581  -36.8897   22.2044 H   0  0  0  0  0  0
  -23.7254  -37.6514   23.6636 H   0  0  0  0  0  0
  -26.0922  -31.5513   20.6091 H   0  0  0  0  0  0
  -26.8433  -30.8397   22.0056 H   0  0  0  0  0  0
  -28.1077  -28.9617   21.2125 H   0  0  0  0  0  0
  -25.9695  -25.9885   18.9076 H   0  0  0  0  0  0
  -23.9746  -27.3478   18.9649 H   0  0  0  0  0  0
  -23.7605  -30.6104   19.4072 H   0  0  0  0  0  0
  -22.7537  -29.2652   19.8514 H   0  0  0  0  0  0
  -25.1279  -36.1942   25.0826 H   0  0  0  0  0  0
  -21.0004  -28.3286   24.1398 H   0  0  0  0  0  0
  -20.5708  -26.2314   23.3598 H   0  0  0  0  0  0
  -21.6651  -26.7475   22.1184 H   0  0  0  0  0  0
  -19.6917  -25.6311   21.1241 H   0  0  0  0  0  0
  -19.6692  -27.3208   20.6737 H   0  0  0  0  0  0
  -17.4204  -26.6677   21.4047 H   0  0  0  0  0  0
  -18.0367  -26.0099   22.9055 H   0  0  0  0  0  0
  -19.7934  -30.7284   24.2296 H   0  0  0  0  0  0
  -17.5009  -31.6264   24.5191 H   0  0  0  0  0  0
  -15.5358  -30.2999   23.7636 H   0  0  0  0  0  0
  -15.8689  -28.0848   22.7025 H   0  0  0  0  0  0
  -24.5909  -30.7074   25.7791 H   0  0  0  0  0  0
  -24.8940  -32.2878   26.4898 H   0  0  0  0  0  0
  -25.8070  -30.8880   27.0230 H   0  0  0  0  0  0
  -26.2901  -29.6752   24.1213 H   0  0  0  0  0  0
  -27.4052  -29.7255   25.4669 H   0  0  0  0  0  0
  -27.8764  -30.4282   23.9381 H   0  0  0  0  0  0
  -27.2719  -33.3606   26.2060 H   0  0  0  0  0  0
  -28.3899  -32.6819   25.0327 H   0  0  0  0  0  0
  -28.0724  -31.8411   26.5423 H   0  0  0  0  0  0
  -28.2588  -38.0106   24.7512 H   0  0  0  0  0  0
  -28.1086  -36.2641   24.6288 H   0  0  0  0  0  0
  -27.2304  -37.1452   25.8870 H   0  0  0  0  0  0
  -20.9361  -29.8799   21.6895 H   0  0  0  0  0  0
  -26.0172  -38.2852   24.1406 H   0  0  0  0  0  0
  -27.8640  -19.9591   20.6961 H   0  0  0  0  0  0
  -27.8212  -17.5225   21.0444 H   0  0  0  0  0  0
  -32.0249  -17.3084   20.1209 H   0  0  0  0  0  0
  -30.2153  -21.6860   18.8221 H   0  0  0  0  0  0
  -31.0487  -21.9498   20.3155 H   0  0  0  0  0  0
  -27.6810  -24.8795   21.3866 H   0  0  0  0  0  0
  -27.2591  -24.6279   19.7118 H   0  0  0  0  0  0
  -28.8868  -15.4017   21.1032 H   0  0  0  0  0  0
  -28.1503  -22.3225   20.5503 H   0  0  0  0  0  0
  1 25  1  0  0  0
  1 30  2  0  0  0
  1 80  1  0  0  0
  2  3  1  0  0  0
  2 25  1  0  0  0
  2 84  1  0  0  0
  2 85  1  0  0  0
  3  4  1  0  0  0
  3 86  1  0  0  0
  3 87  1  0  0  0
  4  5  1  0  0  0
  4 88  1  0  0  0
  4 89  1  0  0  0
  5  6  1  0  0  0
  5 26  1  0  0  0
  5 90  1  0  0  0
  6 25  1  0  0  0
  6 91  1  0  0  0
  6 92  1  0  0  0
  7  8  2  0  0  0
  7 26  1  0  0  0
  7 29  1  0  0  0
  8  9  1  0  0  0
  8 22  1  0  0  0
  9 10  1  0  0  0
  9 27  2  0  0  0
 10 11  2  0  0  0
 10 15  1  0  0  0
 11 12  1  0  0  0
 11 93  1  0  0  0
 12 13  2  0  0  0
 12 94  1  0  0  0
 13 14  1  0  0  0
 13 31  1  0  0  0
 14 15  2  0  0  0
 14 95  1  0  0  0
 15 96  1  0  0  0
 16 17  2  0  0  0
 16 21  1  0  0  0
 16 31  1  0  0  0
 17 18  1  0  0  0
 17 97  1  0  0  0
 18 19  2  0  0  0
 18 98  1  0  0  0
 19 20  1  0  0  0
 19 24  1  0  0  0
 20 21  2  0  0  0
 20 99  1  0  0  0
 21 23  1  0  0  0
 22 28  1  0  0  0
 22 32  2  0  0  0
 26 27  1  0  0  0
 28100  1  0  0  0
 28101  1  0  0  0
 29102  1  0  0  0
 29103  1  0  0  0
 33 34  1  0  0  0
 33 66  1  0  0  0
 33 70  2  0  0  0
 34 36  1  0  0  0
 34 59  1  0  0  0
 34104  1  0  0  0
 35 44  2  0  0  0
 35 45  1  0  0  0
 35 68  1  0  0  0
 36 56  1  0  0  0
 36105  1  0  0  0
 37 39  1  0  0  0
 37 47  1  0  0  0
 37 66  1  0  0  0
 37106  1  0  0  0
 38 43  2  0  0  0
 38 46  1  0  0  0
 38 47  1  0  0  0
 39 64  1  0  0  0
 39 67  2  0  0  0
 40 52  1  0  0  0
 40 53  2  0  0  0
 40 58  1  0  0  0
 41107  1  0  0  0
 41108  1  0  0  0
 41109  1  0  0  0
 41 48  1  0  0  0
 42 43  1  0  0  0
 42 66  1  0  0  0
 42110  1  0  0  0
 42111  1  0  0  0
 43 44  1  0  0  0
 44112  1  0  0  0
 45 46  2  0  0  0
 45113  1  0  0  0
 46114  1  0  0  0
 47115  1  0  0  0
 47116  1  0  0  0
 48 56  1  0  0  0
 48 65  1  0  0  0
 48117  1  0  0  0
 49 50  1  0  0  0
 49 53  1  0  0  0
 49 64  1  0  0  0
 49118  1  0  0  0
 50 51  1  0  0  0
 50119  1  0  0  0
 50120  1  0  0  0
 51 52  1  0  0  0
 51121  1  0  0  0
 51122  1  0  0  0
 52123  1  0  0  0
 52124  1  0  0  0
 53 54  1  0  0  0
 54 55  2  0  0  0
 54125  1  0  0  0
 55 57  1  0  0  0
 55126  1  0  0  0
 56 69  2  0  0  0
 57 58  2  0  0  0
 57127  1  0  0  0
 58128  1  0  0  0
 59 60  1  0  0  0
 59 61  1  0  0  0
 59 62  1  0  0  0
 60129  1  0  0  0
 60130  1  0  0  0
 60131  1  0  0  0
 61132  1  0  0  0
 61133  1  0  0  0
 61134  1  0  0  0
 62135  1  0  0  0
 62136  1  0  0  0
 62137  1  0  0  0
 63 65  1  0  0  0
 63138  1  0  0  0
 63139  1  0  0  0
 63140  1  0  0  0
 64141  1  0  0  0
 65142  1  0  0  0
 68 79  1  0  0  0
 71 72  2  0  0  0
 71 74  1  0  0  0
 71143  1  0  0  0
 72 75  1  0  0  0
 72144  1  0  0  0
 73 75  2  0  0  0
 73 76  1  0  0  0
 73145  1  0  0  0
 74 76  2  0  0  0
 74 78  1  0  0  0
 75 80  1  0  0  0
 76 83  1  0  0  0
 77 79  1  0  0  0
 77 81  1  0  0  0
 77 82  2  0  0  0
 78 81  1  0  0  0
 78146  1  0  0  0
 78147  1  0  0  0
 79148  1  0  0  0
 79149  1  0  0  0
 80150  1  0  0  0
 81151  1  0  0  0
M  ISO  4   1 100  68 101  79 101  80 100
M  END
> <chiral flag>
0

> <version>
0

> <s_m_source_file>
/data/baiqing/PycharmProjects/Reinvent-master-3.2/result/LINK_invent/BTK/process_docking_weight1_custom_sum_contain_oxygen_bond_distance_aromatic_linkinvent_7_9_3/rearranged_h_0010.sdf

> <i_m_source_file_index>
36

> <r_mmod_Potential_Energy-OPLS-2005>
14.2365608215332

> <r_mmod_Stretch_Energy-OPLS-2005>
79.1475448608398

> <r_mmod_Bend_Energy-OPLS-2005>
140.470153808594

> <r_mmod_Torsional_Energy-OPLS-2005>
216.263656616211

> <r_mmod_Improper_Torsional_Energy-OPLS-2005>
4.705735206604

> <r_mmod_Van_der_Waal_Energy-OPLS-2005>
146.55354309082

> <r_mmod_Electrostatic_Energy-OPLS-2005>
-375.890625

> <r_mmod_Solvation_Energy-OPLS-2005>
-248.972244262695

> <b_mmod_Minimization_Converged-OPLS-2005>
0

> <r_mmod_RMS_Derivative-OPLS-2005>
2.50171446800232

$$$$
36
                    3D
 Structure written by MMmdl.
158166  0  0  1  0            999 V2000
  -30.6047  -14.6422   20.5028 C   0  0  0  0  0  0
  -30.4432  -12.3932   19.4525 C   0  0  0  0  0  0
  -29.5106  -12.5110   18.2255 C   0  0  0  0  0  0
  -28.0332  -12.3441   18.6359 C   0  0  0  0  0  0
  -27.6547  -13.2122   19.8646 C   0  0  2  0  0  0
  -28.6988  -13.0578   20.9946 C   0  0  0  0  0  0
  -25.2566  -13.8156   20.5682 C   0  0  0  0  0  0
  -24.1827  -13.0427   20.9183 C   0  0  0  0  0  0
  -24.6391  -11.6898   20.8732 C   0  0  0  0  0  0
  -23.9061  -10.4286   21.0398 C   0  0  0  0  0  0
  -24.3612   -9.4202   21.9177 C   0  0  0  0  0  0
  -23.6288   -8.2241   22.0754 C   0  0  0  0  0  0
  -22.4268   -8.0280   21.3547 C   0  0  0  0  0  0
  -21.9900   -9.0253   20.4650 C   0  0  0  0  0  0
  -22.7231  -10.2129   20.3052 C   0  0  0  0  0  0
  -21.6852   -6.0734   22.5280 C   0  0  0  0  0  0
  -21.4017   -6.5640   23.8214 C   0  0  0  0  0  0
  -21.3658   -5.6790   24.9176 C   0  0  0  0  0  0
  -21.6041   -4.3053   24.7227 C   0  0  0  0  0  0
  -21.8819   -3.8147   23.4347 C   0  0  0  0  0  0
  -21.9194   -4.6963   22.3401 C   0  0  0  0  0  0
  -22.7849  -13.5228   21.1843 C   0  0  0  0  0  0
  -22.1664   -4.2151   21.0978 F   0  0  0  0  0  0
  -21.5621   -3.4536   25.7739 F   0  0  0  0  0  0
  -30.0153  -13.4073   20.4357 N   0  0  0  0  0  0
  -26.2995  -12.9332   20.3315 N   0  0  0  0  0  0
  -25.9319  -11.6489   20.5745 N   0  0  0  0  0  0
  -22.0490  -12.8230   22.0407 N   0  0  0  0  0  0
  -25.4271  -15.1880   20.4108 N   0  0  0  0  0  0
  -31.7612  -14.8295   20.1117 O   0  0  0  0  0  0
  -21.6636   -6.8877   21.4242 O   0  0  0  0  0  0
  -22.3537  -14.5535   20.6689 O   0  0  0  0  0  0
  -24.6247  -31.8604   23.2012 C   0  0  0  0  0  0
  -25.9103  -32.4779   23.8344 C   0  0  1  0  0  0
  -27.2286  -27.3331   20.1265 C   0  0  0  0  0  0
  -25.5926  -33.8577   24.2287 N   0  0  0  0  0  0
  -23.4179  -30.4817   21.5433 C   0  0  2  0  0  0
  -24.8664  -28.9330   20.1138 C   0  0  0  0  0  0
  -22.7466  -29.4621   22.4938 C   0  0  0  0  0  0
  -18.0287  -28.1375   22.8481 C   0  0  0  0  0  0
  -24.1491  -36.7292   23.2637 C   0  0  0  0  0  0
  -25.9560  -30.7966   21.3682 C   0  0  0  0  0  0
  -26.0329  -29.4223   20.7162 C   0  0  0  0  0  0
  -27.2193  -28.6343   20.7104 C   0  0  0  0  0  0
  -26.0447  -26.8875   19.5026 C   0  0  0  0  0  0
  -24.8729  -27.6699   19.4979 C   0  0  0  0  0  0
  -23.6334  -29.8126   20.1598 C   0  0  0  0  0  0
  -25.4114  -36.3083   24.0331 C   0  0  1  0  0  0
  -20.5884  -28.3674   23.1288 C   0  0  2  0  0  0
  -20.6774  -26.9399   22.5409 C   0  0  0  0  0  0
  -19.5754  -26.6381   21.5203 C   0  0  0  0  0  0
  -18.1935  -26.7920   22.1616 C   0  0  0  0  0  0
  -19.1538  -28.8842   23.2882 C   0  0  0  0  0  0
  -18.9463  -30.1446   23.8895 C   0  0  0  0  0  0
  -17.6464  -30.6577   24.0564 C   0  0  0  0  0  0
  -25.9047  -34.9450   23.5109 C   0  0  0  0  0  0
  -16.5356  -29.9078   23.6323 C   0  0  0  0  0  0
  -16.7276  -28.6496   23.0342 C   0  0  0  0  0  0
  -26.4496  -31.6571   25.0701 C   0  0  0  0  0  0
  -25.3750  -31.3706   26.1444 C   0  0  0  0  0  0
  -27.0322  -30.2998   24.6118 C   0  0  0  0  0  0
  -27.6063  -32.4293   25.7474 C   0  0  0  0  0  0
  -27.5578  -37.1808   24.8469 C   0  0  0  0  0  0
  -21.4181  -29.3032   22.3684 N   0  0  0  0  0  0
  -26.4296  -37.3773   23.9403 N   0  0  0  0  0  0
  -24.6849  -31.0632   22.0950 N   0  0  0  0  0  0
  -23.4197  -28.8168   23.3018 O   0  0  0  0  0  0
  -28.3546  -26.5050   20.1313 O   0  0  0  0  0  0
  -26.5611  -34.8919   22.4670 O   0  0  0  0  0  0
  -23.5417  -32.1393   23.7354 O   0  0  0  0  0  0
  -28.9775  -19.0179   19.3121 C   0  0  0  0  0  0
  -29.0675  -17.5807   19.5577 C   0  0  0  0  0  0
  -29.5656  -19.9442   20.1086 C   0  0  0  0  0  0
  -29.8309  -17.0840   20.5567 C   0  0  0  0  0  0
  -30.3769  -19.4263   21.2465 C   0  0  0  0  0  0
  -31.3107  -17.5522   22.5075 C   0  0  0  0  0  0
  -30.1549  -21.7059   18.4852 C   0  0  0  0  0  0
  -28.9055  -23.9395   19.8624 C   0  0  0  0  0  0
  -28.9791  -22.4909   20.5541 C   0  0  0  0  0  0
  -28.2030  -25.1281   20.6478 C   0  0  0  0  0  0
  -30.4910  -18.0454   21.3913 N   0  0  0  0  0  0
  -29.7574  -15.6700   20.8280 N   0  0  0  0  0  0
  -29.5608  -21.3405   19.7726 N   0  0  0  0  0  0
  -30.9485  -20.1992   22.0259 O   0  0  0  0  0  0
  -31.4837  -12.5267   19.1513 H   0  0  0  0  0  0
  -30.3834  -11.3954   19.8898 H   0  0  0  0  0  0
  -29.7763  -11.7651   17.4754 H   0  0  0  0  0  0
  -29.6509  -13.4834   17.7514 H   0  0  0  0  0  0
  -27.8712  -11.2903   18.8662 H   0  0  0  0  0  0
  -27.3797  -12.5751   17.7940 H   0  0  0  0  0  0
  -27.6740  -14.2475   19.5242 H   0  0  0  0  0  0
  -28.7108  -12.0324   21.3667 H   0  0  0  0  0  0
  -28.4424  -13.6806   21.8532 H   0  0  0  0  0  0
  -25.2754   -9.5677   22.4753 H   0  0  0  0  0  0
  -23.9996   -7.4631   22.7470 H   0  0  0  0  0  0
  -21.0833   -8.8772   19.8959 H   0  0  0  0  0  0
  -22.3689  -10.9666   19.6164 H   0  0  0  0  0  0
  -21.2016   -7.6148   23.9719 H   0  0  0  0  0  0
  -21.1476   -6.0520   25.9078 H   0  0  0  0  0  0
  -22.0599   -2.7610   23.2847 H   0  0  0  0  0  0
  -22.4095  -11.9892   22.4804 H   0  0  0  0  0  0
  -21.1115  -13.1270   22.2614 H   0  0  0  0  0  0
  -24.6568  -15.8384   20.5214 H   0  0  0  0  0  0
  -26.2721  -15.6332   20.0776 H   0  0  0  0  0  0
  -26.7165  -32.5460   23.1092 H   0  0  0  0  0  0
  -25.0100  -33.9720   25.0450 H   0  0  0  0  0  0
  -22.7104  -31.3008   21.3980 H   0  0  0  0  0  0
  -23.3743  -35.9635   23.3322 H   0  0  0  0  0  0
  -24.3587  -36.8886   22.2047 H   0  0  0  0  0  0
  -23.7258  -37.6508   23.6641 H   0  0  0  0  0  0
  -26.0825  -31.5573   20.5965 H   0  0  0  0  0  0
  -26.8381  -30.8503   21.9943 H   0  0  0  0  0  0
  -28.1175  -29.0070   21.1823 H   0  0  0  0  0  0
  -26.0232  -25.9204   19.0203 H   0  0  0  0  0  0
  -23.9800  -27.2892   19.0219 H   0  0  0  0  0  0
  -23.7538  -30.5871   19.4014 H   0  0  0  0  0  0
  -22.7535  -29.2417   19.8575 H   0  0  0  0  0  0
  -25.1293  -36.1940   25.0824 H   0  0  0  0  0  0
  -20.9979  -28.3248   24.1405 H   0  0  0  0  0  0
  -20.5658  -26.2282   23.3604 H   0  0  0  0  0  0
  -21.6647  -26.7420   22.1215 H   0  0  0  0  0  0
  -19.6915  -25.6293   21.1229 H   0  0  0  0  0  0
  -19.6695  -27.3194   20.6734 H   0  0  0  0  0  0
  -17.4200  -26.6658   21.4023 H   0  0  0  0  0  0
  -18.0340  -26.0061   22.9013 H   0  0  0  0  0  0
  -19.7942  -30.7261   24.2261 H   0  0  0  0  0  0
  -17.5019  -31.6258   24.5167 H   0  0  0  0  0  0
  -15.5355  -30.2978   23.7646 H   0  0  0  0  0  0
  -15.8677  -28.0819   22.7049 H   0  0  0  0  0  0
  -24.5924  -30.7044   25.7792 H   0  0  0  0  0  0
  -24.8943  -32.2869   26.4876 H   0  0  0  0  0  0
  -25.8101  -30.8891   27.0211 H   0  0  0  0  0  0
  -26.2870  -29.6758   24.1165 H   0  0  0  0  0  0
  -27.4061  -29.7236   25.4592 H   0  0  0  0  0  0
  -27.8726  -30.4289   23.9295 H   0  0  0  0  0  0
  -27.2679  -33.3587   26.2065 H   0  0  0  0  0  0
  -28.3872  -32.6858   25.0305 H   0  0  0  0  0  0
  -28.0726  -31.8405   26.5384 H   0  0  0  0  0  0
  -28.2613  -38.0085   24.7485 H   0  0  0  0  0  0
  -28.1056  -36.2618   24.6331 H   0  0  0  0  0  0
  -27.2298  -37.1503   25.8874 H   0  0  0  0  0  0
  -20.9350  -29.8764   21.6907 H   0  0  0  0  0  0
  -26.0182  -38.2853   24.1382 H   0  0  0  0  0  0
  -28.4316  -19.3477   18.4392 H   0  0  0  0  0  0
  -28.4866  -16.9136   18.9355 H   0  0  0  0  0  0
  -31.4005  -16.4700   22.5599 H   0  0  0  0  0  0
  -30.8908  -17.8837   23.4581 H   0  0  0  0  0  0
  -32.3257  -17.9455   22.4331 H   0  0  0  0  0  0
  -30.6517  -20.8590   18.0089 H   0  0  0  0  0  0
  -30.9136  -22.4802   18.6039 H   0  0  0  0  0  0
  -29.3959  -22.0645   17.7890 H   0  0  0  0  0  0
  -28.3986  -23.8520   18.9011 H   0  0  0  0  0  0
  -29.9204  -24.2663   19.6393 H   0  0  0  0  0  0
  -27.9695  -22.2034   20.8506 H   0  0  0  0  0  0
  -29.5407  -22.5822   21.4849 H   0  0  0  0  0  0
  -28.6161  -25.1454   21.6568 H   0  0  0  0  0  0
  -27.1521  -24.8719   20.7863 H   0  0  0  0  0  0
  -28.8406  -15.3460   21.0967 H   0  0  0  0  0  0
  1 25  1  0  0  0
  1 30  2  0  0  0
  1 82  1  0  0  0
  2  3  1  0  0  0
  2 25  1  0  0  0
  2 85  1  0  0  0
  2 86  1  0  0  0
  3  4  1  0  0  0
  3 87  1  0  0  0
  3 88  1  0  0  0
  4  5  1  0  0  0
  4 89  1  0  0  0
  4 90  1  0  0  0
  5  6  1  0  0  0
  5 26  1  0  0  0
  5 91  1  0  0  0
  6 25  1  0  0  0
  6 92  1  0  0  0
  6 93  1  0  0  0
  7  8  2  0  0  0
  7 26  1  0  0  0
  7 29  1  0  0  0
  8  9  1  0  0  0
  8 22  1  0  0  0
  9 10  1  0  0  0
  9 27  2  0  0  0
 10 11  2  0  0  0
 10 15  1  0  0  0
 11 12  1  0  0  0
 11 94  1  0  0  0
 12 13  2  0  0  0
 12 95  1  0  0  0
 13 14  1  0  0  0
 13 31  1  0  0  0
 14 15  2  0  0  0
 14 96  1  0  0  0
 15 97  1  0  0  0
 16 17  2  0  0  0
 16 21  1  0  0  0
 16 31  1  0  0  0
 17 18  1  0  0  0
 17 98  1  0  0  0
 18 19  2  0  0  0
 18 99  1  0  0  0
 19 20  1  0  0  0
 19 24  1  0  0  0
 20 21  2  0  0  0
 20100  1  0  0  0
 21 23  1  0  0  0
 22 28  1  0  0  0
 22 32  2  0  0  0
 26 27  1  0  0  0
 28101  1  0  0  0
 28102  1  0  0  0
 29103  1  0  0  0
 29104  1  0  0  0
 33 34  1  0  0  0
 33 66  1  0  0  0
 33 70  2  0  0  0
 34 36  1  0  0  0
 34 59  1  0  0  0
 34105  1  0  0  0
 35 44  2  0  0  0
 35 45  1  0  0  0
 35 68  1  0  0  0
 36 56  1  0  0  0
 36106  1  0  0  0
 37 39  1  0  0  0
 37 47  1  0  0  0
 37 66  1  0  0  0
 37107  1  0  0  0
 38 43  2  0  0  0
 38 46  1  0  0  0
 38 47  1  0  0  0
 39 64  1  0  0  0
 39 67  2  0  0  0
 40 52  1  0  0  0
 40 53  2  0  0  0
 40 58  1  0  0  0
 41108  1  0  0  0
 41109  1  0  0  0
 41110  1  0  0  0
 41 48  1  0  0  0
 42 43  1  0  0  0
 42 66  1  0  0  0
 42111  1  0  0  0
 42112  1  0  0  0
 43 44  1  0  0  0
 44113  1  0  0  0
 45 46  2  0  0  0
 45114  1  0  0  0
 46115  1  0  0  0
 47116  1  0  0  0
 47117  1  0  0  0
 48 56  1  0  0  0
 48 65  1  0  0  0
 48118  1  0  0  0
 49 50  1  0  0  0
 49 53  1  0  0  0
 49 64  1  0  0  0
 49119  1  0  0  0
 50 51  1  0  0  0
 50120  1  0  0  0
 50121  1  0  0  0
 51 52  1  0  0  0
 51122  1  0  0  0
 51123  1  0  0  0
 52124  1  0  0  0
 52125  1  0  0  0
 53 54  1  0  0  0
 54 55  2  0  0  0
 54126  1  0  0  0
 55 57  1  0  0  0
 55127  1  0  0  0
 56 69  2  0  0  0
 57 58  2  0  0  0
 57128  1  0  0  0
 58129  1  0  0  0
 59 60  1  0  0  0
 59 61  1  0  0  0
 59 62  1  0  0  0
 60130  1  0  0  0
 60131  1  0  0  0
 60132  1  0  0  0
 61133  1  0  0  0
 61134  1  0  0  0
 61135  1  0  0  0
 62136  1  0  0  0
 62137  1  0  0  0
 62138  1  0  0  0
 63 65  1  0  0  0
 63139  1  0  0  0
 63140  1  0  0  0
 63141  1  0  0  0
 64142  1  0  0  0
 65143  1  0  0  0
 68 80  1  0  0  0
 71 72  1  0  0  0
 71 73  2  0  0  0
 71144  1  0  0  0
 72 74  2  0  0  0
 72145  1  0  0  0
 73 75  1  0  0  0
 73 83  1  0  0  0
 74 81  1  0  0  0
 74 82  1  0  0  0
 75 81  1  0  0  0
 75 84  2  0  0  0
 76 81  1  0  0  0
 76146  1  0  0  0
 76147  1  0  0  0
 76148  1  0  0  0
 77 83  1  0  0  0
 77149  1  0  0  0
 77150  1  0  0  0
 77151  1  0  0  0
 78 79  1  0  0  0
 78 80  1  0  0  0
 78152  1  0  0  0
 78153  1  0  0  0
 79 83  1  0  0  0
 79154  1  0  0  0
 79155  1  0  0  0
 80156  1  0  0  0
 80157  1  0  0  0
 82158  1  0  0  0
M  ISO  4   1 100  68 101  80 101  82 100
M  END
> <chiral flag>
0

> <version>
0

> <s_m_source_file>
/data/baiqing/PycharmProjects/Reinvent-master-3.2/result/LINK_invent/BTK/process_docking_weight1_custom_sum_contain_oxygen_bond_distance_aromatic_linkinvent_7_9_3/rearranged_h_0010.sdf

> <i_m_source_file_index>
37

> <r_mmod_Potential_Energy-OPLS-2005>
205.152725219727

> <r_mmod_Stretch_Energy-OPLS-2005>
90.0837097167969

> <r_mmod_Bend_Energy-OPLS-2005>
136.668701171875

> <r_mmod_Torsional_Energy-OPLS-2005>
293.779571533203

> <r_mmod_Improper_Torsional_Energy-OPLS-2005>
6.02859830856323

> <r_mmod_Van_der_Waal_Energy-OPLS-2005>
154.871307373047

> <r_mmod_Electrostatic_Energy-OPLS-2005>
-287.231414794922

> <r_mmod_Solvation_Energy-OPLS-2005>
-234.2265625

> <b_mmod_Minimization_Converged-OPLS-2005>
0

> <r_mmod_RMS_Derivative-OPLS-2005>
0.930786848068237

$$$$
37
                    3D
 Structure written by MMmdl.
148156  0  0  1  0            999 V2000
  -30.5122  -14.9218   20.4210 C   0  0  0  0  0  0
  -30.4531  -12.5665   19.4870 C   0  0  0  0  0  0
  -29.5248  -12.5329   18.2489 C   0  0  0  0  0  0
  -28.0554  -12.3215   18.6638 C   0  0  0  0  0  0
  -27.6372  -13.2379   19.8425 C   0  0  2  0  0  0
  -28.6832  -13.2237   20.9788 C   0  0  0  0  0  0
  -25.2494  -13.8187   20.5681 C   0  0  0  0  0  0
  -24.1803  -13.0433   20.9229 C   0  0  0  0  0  0
  -24.6403  -11.6915   20.8752 C   0  0  0  0  0  0
  -23.9077  -10.4290   21.0406 C   0  0  0  0  0  0
  -24.3623   -9.4205   21.9184 C   0  0  0  0  0  0
  -23.6292   -8.2244   22.0754 C   0  0  0  0  0  0
  -22.4273   -8.0285   21.3544 C   0  0  0  0  0  0
  -21.9912   -9.0261   20.4649 C   0  0  0  0  0  0
  -22.7246  -10.2135   20.3058 C   0  0  0  0  0  0
  -21.6854   -6.0731   22.5275 C   0  0  0  0  0  0
  -21.4015   -6.5633   23.8208 C   0  0  0  0  0  0
  -21.3662   -5.6786   24.9171 C   0  0  0  0  0  0
  -21.6044   -4.3049   24.7222 C   0  0  0  0  0  0
  -21.8820   -3.8140   23.4345 C   0  0  0  0  0  0
  -21.9192   -4.6957   22.3399 C   0  0  0  0  0  0
  -22.7822  -13.5216   21.1875 C   0  0  0  0  0  0
  -22.1662   -4.2142   21.0977 F   0  0  0  0  0  0
  -21.5629   -3.4536   25.7739 F   0  0  0  0  0  0
  -29.9663  -13.6413   20.3934 N   0  0  0  0  0  0
  -26.2920  -12.9402   20.3233 N   0  0  0  0  0  0
  -25.9333  -11.6544   20.5726 N   0  0  0  0  0  0
  -22.0461  -12.8217   22.0433 N   0  0  0  0  0  0
  -25.4154  -15.1905   20.4032 N   0  0  0  0  0  0
  -31.7048  -15.0554   20.1240 O   0  0  0  0  0  0
  -21.6639   -6.8880   21.4240 O   0  0  0  0  0  0
  -22.3514  -14.5518   20.6710 O   0  0  0  0  0  0
  -24.6443  -31.8448   23.1896 C   0  0  0  0  0  0
  -25.9216  -32.4698   23.8287 C   0  0  1  0  0  0
  -27.2194  -27.1412   20.1396 C   0  0  0  0  0  0
  -25.5963  -33.8505   24.2200 N   0  0  0  0  0  0
  -23.4478  -30.4658   21.5355 C   0  0  2  0  0  0
  -24.8972  -28.8971   20.1102 C   0  0  0  0  0  0
  -22.7577  -29.4550   22.4860 C   0  0  0  0  0  0
  -18.0311  -28.1393   22.8478 C   0  0  0  0  0  0
  -24.1495  -36.7256   23.2642 C   0  0  0  0  0  0
  -26.0052  -30.7192   21.3896 C   0  0  0  0  0  0
  -26.0767  -29.3319   20.7282 C   0  0  0  0  0  0
  -27.2386  -28.4703   20.7274 C   0  0  0  0  0  0
  -26.0107  -26.8123   19.4826 C   0  0  0  0  0  0
  -24.8768  -27.6494   19.4737 C   0  0  0  0  0  0
  -23.6743  -29.7989   20.1540 C   0  0  0  0  0  0
  -25.4127  -36.3034   24.0315 C   0  0  1  0  0  0
  -20.5925  -28.3720   23.1235 C   0  0  2  0  0  0
  -20.6794  -26.9423   22.5404 C   0  0  0  0  0  0
  -19.5763  -26.6377   21.5215 C   0  0  0  0  0  0
  -18.1947  -26.7930   22.1628 C   0  0  0  0  0  0
  -19.1569  -28.8877   23.2847 C   0  0  0  0  0  0
  -18.9480  -30.1472   23.8872 C   0  0  0  0  0  0
  -17.6474  -30.6587   24.0560 C   0  0  0  0  0  0
  -25.9076  -34.9406   23.5066 C   0  0  0  0  0  0
  -16.5368  -29.9079   23.6333 C   0  0  0  0  0  0
  -16.7296  -28.6499   23.0353 C   0  0  0  0  0  0
  -26.4529  -31.6564   25.0728 C   0  0  0  0  0  0
  -25.3706  -31.3765   26.1420 C   0  0  0  0  0  0
  -27.0385  -30.2951   24.6320 C   0  0  0  0  0  0
  -27.6061  -32.4328   25.7511 C   0  0  0  0  0  0
  -27.5573  -37.1796   24.8471 C   0  0  0  0  0  0
  -21.4268  -29.3048   22.3606 N   0  0  0  0  0  0
  -26.4295  -37.3739   23.9395 N   0  0  0  0  0  0
  -24.7189  -31.0306   22.0930 N   0  0  0  0  0  0
  -23.4222  -28.8090   23.3003 O   0  0  0  0  0  0
  -28.2628  -26.1435   20.2061 O   0  0  0  0  0  0
  -26.5660  -34.8903   22.4643 O   0  0  0  0  0  0
  -23.5560  -32.1329   23.7109 O   0  0  0  0  0  0
  -30.5556  -18.5556   20.3651 C   0  0  0  0  0  0
  -30.2820  -19.9982   20.2907 C   0  0  0  0  0  0
  -28.2396  -18.1427   20.4896 C   0  0  0  0  0  0
  -29.5376  -17.5370   20.4734 C   0  0  0  0  0  0
  -28.9593  -20.5786   20.3041 C   0  0  0  0  0  0
  -27.9644  -19.5572   20.3992 C   0  0  0  0  0  0
  -28.9304  -23.3609   20.2667 C   0  0  0  0  0  0
  -27.9099  -24.6404   20.0006 C   0  0  0  0  0  0
  -28.4680  -22.0258   20.1786 N   0  0  0  0  0  0
  -29.6243  -16.0086   20.6072 N   0  0  0  0  0  0
  -30.1122  -23.5927   20.5350 O   0  0  0  0  0  0
  -26.6671  -19.9507   20.4038 F   0  0  0  0  0  0
  -31.4844  -12.7383   19.1752 H   0  0  0  0  0  0
  -30.4520  -11.6030   19.9989 H   0  0  0  0  0  0
  -29.8366  -11.7451   17.5617 H   0  0  0  0  0  0
  -29.6166  -13.4710   17.6997 H   0  0  0  0  0  0
  -27.9406  -11.2757   18.9515 H   0  0  0  0  0  0
  -27.3953  -12.4769   17.8097 H   0  0  0  0  0  0
  -27.6101  -14.2476   19.4324 H   0  0  0  0  0  0
  -28.7617  -12.2309   21.4245 H   0  0  0  0  0  0
  -28.3859  -13.8962   21.7849 H   0  0  0  0  0  0
  -25.2767   -9.5674   22.4762 H   0  0  0  0  0  0
  -23.9995   -7.4633   22.7476 H   0  0  0  0  0  0
  -21.0839   -8.8784   19.8959 H   0  0  0  0  0  0
  -22.3705  -10.9676   19.6171 H   0  0  0  0  0  0
  -21.2010   -7.6141   23.9709 H   0  0  0  0  0  0
  -21.1483   -6.0517   25.9072 H   0  0  0  0  0  0
  -22.0596   -2.7603   23.2848 H   0  0  0  0  0  0
  -22.4073  -11.9888   22.4838 H   0  0  0  0  0  0
  -21.1080  -13.1251   22.2629 H   0  0  0  0  0  0
  -24.6299  -15.8279   20.4806 H   0  0  0  0  0  0
  -26.2201  -15.6099   19.9582 H   0  0  0  0  0  0
  -26.7284  -32.5304   23.1019 H   0  0  0  0  0  0
  -25.0087  -33.9620   25.0332 H   0  0  0  0  0  0
  -22.7507  -31.2922   21.3828 H   0  0  0  0  0  0
  -23.3749  -35.9597   23.3319 H   0  0  0  0  0  0
  -24.3573  -36.8871   22.2053 H   0  0  0  0  0  0
  -23.7267  -37.6465   23.6669 H   0  0  0  0  0  0
  -26.1638  -31.4760   20.6202 H   0  0  0  0  0  0
  -26.8746  -30.7664   22.0337 H   0  0  0  0  0  0
  -28.1353  -28.7977   21.2346 H   0  0  0  0  0  0
  -25.8960  -25.8642   18.9812 H   0  0  0  0  0  0
  -23.9771  -27.3112   18.9782 H   0  0  0  0  0  0
  -23.8123  -30.5751   19.4004 H   0  0  0  0  0  0
  -22.7889  -29.2427   19.8418 H   0  0  0  0  0  0
  -25.1316  -36.1868   25.0809 H   0  0  0  0  0  0
  -21.0023  -28.3313   24.1353 H   0  0  0  0  0  0
  -20.5685  -26.2336   23.3623 H   0  0  0  0  0  0
  -21.6660  -26.7422   22.1202 H   0  0  0  0  0  0
  -19.6920  -25.6282   21.1257 H   0  0  0  0  0  0
  -19.6691  -27.3176   20.6736 H   0  0  0  0  0  0
  -17.4212  -26.6677   21.4036 H   0  0  0  0  0  0
  -18.0343  -26.0079   22.9031 H   0  0  0  0  0  0
  -19.7955  -30.7300   24.2228 H   0  0  0  0  0  0
  -17.5024  -31.6263   24.5165 H   0  0  0  0  0  0
  -15.5366  -30.2968   23.7664 H   0  0  0  0  0  0
  -15.8700  -28.0805   22.7076 H   0  0  0  0  0  0
  -24.5890  -30.7107   25.7742 H   0  0  0  0  0  0
  -24.8890  -32.2951   26.4780 H   0  0  0  0  0  0
  -25.7980  -30.8981   27.0239 H   0  0  0  0  0  0
  -26.3004  -29.6679   24.1307 H   0  0  0  0  0  0
  -27.3959  -29.7249   25.4905 H   0  0  0  0  0  0
  -27.8931  -30.4168   23.9663 H   0  0  0  0  0  0
  -27.2655  -33.3642   26.2046 H   0  0  0  0  0  0
  -28.3893  -32.6869   25.0356 H   0  0  0  0  0  0
  -28.0707  -31.8484   26.5461 H   0  0  0  0  0  0
  -28.2614  -38.0066   24.7468 H   0  0  0  0  0  0
  -28.1045  -36.2596   24.6362 H   0  0  0  0  0  0
  -27.2283  -37.1523   25.8873 H   0  0  0  0  0  0
  -20.9479  -29.8766   21.6786 H   0  0  0  0  0  0
  -26.0164  -38.2816   24.1359 H   0  0  0  0  0  0
  -31.5893  -18.2394   20.3456 H   0  0  0  0  0  0
  -31.1257  -20.6684   20.2073 H   0  0  0  0  0  0
  -27.3790  -17.4966   20.5727 H   0  0  0  0  0  0
  -27.0217  -24.4352   20.5988 H   0  0  0  0  0  0
  -27.6067  -24.5279   18.9598 H   0  0  0  0  0  0
  -27.4699  -22.0293   20.0105 H   0  0  0  0  0  0
  -28.7206  -15.6158   20.8204 H   0  0  0  0  0  0
  1 25  1  0  0  0
  1 30  2  0  0  0
  1 80  1  0  0  0
  2  3  1  0  0  0
  2 25  1  0  0  0
  2 83  1  0  0  0
  2 84  1  0  0  0
  3  4  1  0  0  0
  3 85  1  0  0  0
  3 86  1  0  0  0
  4  5  1  0  0  0
  4 87  1  0  0  0
  4 88  1  0  0  0
  5  6  1  0  0  0
  5 26  1  0  0  0
  5 89  1  0  0  0
  6 25  1  0  0  0
  6 90  1  0  0  0
  6 91  1  0  0  0
  7  8  2  0  0  0
  7 26  1  0  0  0
  7 29  1  0  0  0
  8  9  1  0  0  0
  8 22  1  0  0  0
  9 10  1  0  0  0
  9 27  2  0  0  0
 10 11  2  0  0  0
 10 15  1  0  0  0
 11 12  1  0  0  0
 11 92  1  0  0  0
 12 13  2  0  0  0
 12 93  1  0  0  0
 13 14  1  0  0  0
 13 31  1  0  0  0
 14 15  2  0  0  0
 14 94  1  0  0  0
 15 95  1  0  0  0
 16 17  2  0  0  0
 16 21  1  0  0  0
 16 31  1  0  0  0
 17 18  1  0  0  0
 17 96  1  0  0  0
 18 19  2  0  0  0
 18 97  1  0  0  0
 19 20  1  0  0  0
 19 24  1  0  0  0
 20 21  2  0  0  0
 20 98  1  0  0  0
 21 23  1  0  0  0
 22 28  1  0  0  0
 22 32  2  0  0  0
 26 27  1  0  0  0
 28 99  1  0  0  0
 28100  1  0  0  0
 29101  1  0  0  0
 29102  1  0  0  0
 33 34  1  0  0  0
 33 66  1  0  0  0
 33 70  2  0  0  0
 34 36  1  0  0  0
 34 59  1  0  0  0
 34103  1  0  0  0
 35 44  2  0  0  0
 35 45  1  0  0  0
 35 68  1  0  0  0
 36 56  1  0  0  0
 36104  1  0  0  0
 37 39  1  0  0  0
 37 47  1  0  0  0
 37 66  1  0  0  0
 37105  1  0  0  0
 38 43  2  0  0  0
 38 46  1  0  0  0
 38 47  1  0  0  0
 39 64  1  0  0  0
 39 67  2  0  0  0
 40 52  1  0  0  0
 40 53  2  0  0  0
 40 58  1  0  0  0
 41106  1  0  0  0
 41107  1  0  0  0
 41108  1  0  0  0
 41 48  1  0  0  0
 42 43  1  0  0  0
 42 66  1  0  0  0
 42109  1  0  0  0
 42110  1  0  0  0
 43 44  1  0  0  0
 44111  1  0  0  0
 45 46  2  0  0  0
 45112  1  0  0  0
 46113  1  0  0  0
 47114  1  0  0  0
 47115  1  0  0  0
 48 56  1  0  0  0
 48 65  1  0  0  0
 48116  1  0  0  0
 49 50  1  0  0  0
 49 53  1  0  0  0
 49 64  1  0  0  0
 49117  1  0  0  0
 50 51  1  0  0  0
 50118  1  0  0  0
 50119  1  0  0  0
 51 52  1  0  0  0
 51120  1  0  0  0
 51121  1  0  0  0
 52122  1  0  0  0
 52123  1  0  0  0
 53 54  1  0  0  0
 54 55  2  0  0  0
 54124  1  0  0  0
 55 57  1  0  0  0
 55125  1  0  0  0
 56 69  2  0  0  0
 57 58  2  0  0  0
 57126  1  0  0  0
 58127  1  0  0  0
 59 60  1  0  0  0
 59 61  1  0  0  0
 59 62  1  0  0  0
 60128  1  0  0  0
 60129  1  0  0  0
 60130  1  0  0  0
 61131  1  0  0  0
 61132  1  0  0  0
 61133  1  0  0  0
 62134  1  0  0  0
 62135  1  0  0  0
 62136  1  0  0  0
 63 65  1  0  0  0
 63137  1  0  0  0
 63138  1  0  0  0
 63139  1  0  0  0
 64140  1  0  0  0
 65141  1  0  0  0
 68 78  1  0  0  0
 71 72  2  0  0  0
 71 74  1  0  0  0
 71142  1  0  0  0
 72 75  1  0  0  0
 72143  1  0  0  0
 73 74  2  0  0  0
 73 76  1  0  0  0
 73144  1  0  0  0
 74 80  1  0  0  0
 75 76  2  0  0  0
 75 79  1  0  0  0
 76 82  1  0  0  0
 77 78  1  0  0  0
 77 79  1  0  0  0
 77 81  2  0  0  0
 78145  1  0  0  0
 78146  1  0  0  0
 79147  1  0  0  0
 80148  1  0  0  0
M  ISO  4   1 100  68 101  78 101  80 100
M  END
> <chiral flag>
0

> <version>
0

> <s_m_source_file>
/data/baiqing/PycharmProjects/Reinvent-master-3.2/result/LINK_invent/BTK/process_docking_weight1_custom_sum_contain_oxygen_bond_distance_aromatic_linkinvent_7_9_3/rearranged_h_0010.sdf

> <i_m_source_file_index>
38

> <r_mmod_Potential_Energy-OPLS-2005>
408.086791992188

> <r_mmod_Stretch_Energy-OPLS-2005>
218.79460144043

> <r_mmod_Bend_Energy-OPLS-2005>
281.798767089844

> <r_mmod_Torsional_Energy-OPLS-2005>
220.497772216797

> <r_mmod_Improper_Torsional_Energy-OPLS-2005>
5.07187652587891

> <r_mmod_Van_der_Waal_Energy-OPLS-2005>
130.193206787109

> <r_mmod_Electrostatic_Energy-OPLS-2005>
-389.395721435547

> <r_mmod_Solvation_Energy-OPLS-2005>
-242.372695922852

> <b_mmod_Minimization_Converged-OPLS-2005>
0

> <r_mmod_RMS_Derivative-OPLS-2005>
0.813941478729248

$$$$
38
                    3D
 Structure written by MMmdl.
148156  0  0  1  0            999 V2000
  -30.5122  -14.9218   20.4210 C   0  0  0  0  0  0
  -30.4531  -12.5665   19.4870 C   0  0  0  0  0  0
  -29.5248  -12.5329   18.2489 C   0  0  0  0  0  0
  -28.0554  -12.3215   18.6638 C   0  0  0  0  0  0
  -27.6372  -13.2379   19.8425 C   0  0  2  0  0  0
  -28.6832  -13.2237   20.9788 C   0  0  0  0  0  0
  -25.2494  -13.8187   20.5681 C   0  0  0  0  0  0
  -24.1803  -13.0433   20.9229 C   0  0  0  0  0  0
  -24.6403  -11.6915   20.8752 C   0  0  0  0  0  0
  -23.9077  -10.4290   21.0406 C   0  0  0  0  0  0
  -24.3623   -9.4205   21.9184 C   0  0  0  0  0  0
  -23.6292   -8.2244   22.0754 C   0  0  0  0  0  0
  -22.4273   -8.0285   21.3544 C   0  0  0  0  0  0
  -21.9912   -9.0261   20.4649 C   0  0  0  0  0  0
  -22.7246  -10.2135   20.3058 C   0  0  0  0  0  0
  -21.6854   -6.0731   22.5275 C   0  0  0  0  0  0
  -21.4015   -6.5633   23.8208 C   0  0  0  0  0  0
  -21.3662   -5.6786   24.9171 C   0  0  0  0  0  0
  -21.6044   -4.3049   24.7222 C   0  0  0  0  0  0
  -21.8820   -3.8140   23.4345 C   0  0  0  0  0  0
  -21.9192   -4.6957   22.3399 C   0  0  0  0  0  0
  -22.7822  -13.5216   21.1875 C   0  0  0  0  0  0
  -22.1662   -4.2142   21.0977 F   0  0  0  0  0  0
  -21.5629   -3.4536   25.7739 F   0  0  0  0  0  0
  -29.9663  -13.6413   20.3934 N   0  0  0  0  0  0
  -26.2920  -12.9402   20.3233 N   0  0  0  0  0  0
  -25.9333  -11.6544   20.5726 N   0  0  0  0  0  0
  -22.0461  -12.8217   22.0433 N   0  0  0  0  0  0
  -25.4154  -15.1905   20.4032 N   0  0  0  0  0  0
  -31.7048  -15.0554   20.1240 O   0  0  0  0  0  0
  -21.6639   -6.8880   21.4240 O   0  0  0  0  0  0
  -22.3514  -14.5518   20.6710 O   0  0  0  0  0  0
  -24.6443  -31.8448   23.1896 C   0  0  0  0  0  0
  -25.9216  -32.4698   23.8287 C   0  0  1  0  0  0
  -27.2194  -27.1412   20.1396 C   0  0  0  0  0  0
  -25.5963  -33.8505   24.2200 N   0  0  0  0  0  0
  -23.4478  -30.4658   21.5355 C   0  0  2  0  0  0
  -24.8972  -28.8971   20.1102 C   0  0  0  0  0  0
  -22.7577  -29.4550   22.4860 C   0  0  0  0  0  0
  -18.0311  -28.1393   22.8478 C   0  0  0  0  0  0
  -24.1495  -36.7256   23.2642 C   0  0  0  0  0  0
  -26.0052  -30.7192   21.3896 C   0  0  0  0  0  0
  -26.0767  -29.3319   20.7282 C   0  0  0  0  0  0
  -27.2386  -28.4703   20.7274 C   0  0  0  0  0  0
  -26.0107  -26.8123   19.4826 C   0  0  0  0  0  0
  -24.8768  -27.6494   19.4737 C   0  0  0  0  0  0
  -23.6743  -29.7989   20.1540 C   0  0  0  0  0  0
  -25.4127  -36.3034   24.0315 C   0  0  1  0  0  0
  -20.5925  -28.3720   23.1235 C   0  0  2  0  0  0
  -20.6794  -26.9423   22.5404 C   0  0  0  0  0  0
  -19.5763  -26.6377   21.5215 C   0  0  0  0  0  0
  -18.1947  -26.7930   22.1628 C   0  0  0  0  0  0
  -19.1569  -28.8877   23.2847 C   0  0  0  0  0  0
  -18.9480  -30.1472   23.8872 C   0  0  0  0  0  0
  -17.6474  -30.6587   24.0560 C   0  0  0  0  0  0
  -25.9076  -34.9406   23.5066 C   0  0  0  0  0  0
  -16.5368  -29.9079   23.6333 C   0  0  0  0  0  0
  -16.7296  -28.6499   23.0353 C   0  0  0  0  0  0
  -26.4529  -31.6564   25.0728 C   0  0  0  0  0  0
  -25.3706  -31.3765   26.1420 C   0  0  0  0  0  0
  -27.0385  -30.2951   24.6320 C   0  0  0  0  0  0
  -27.6061  -32.4328   25.7511 C   0  0  0  0  0  0
  -27.5573  -37.1796   24.8471 C   0  0  0  0  0  0
  -21.4268  -29.3048   22.3606 N   0  0  0  0  0  0
  -26.4295  -37.3739   23.9395 N   0  0  0  0  0  0
  -24.7189  -31.0306   22.0930 N   0  0  0  0  0  0
  -23.4222  -28.8090   23.3003 O   0  0  0  0  0  0
  -28.2628  -26.1435   20.2061 O   0  0  0  0  0  0
  -26.5660  -34.8903   22.4643 O   0  0  0  0  0  0
  -23.5560  -32.1329   23.7109 O   0  0  0  0  0  0
  -30.5556  -18.5556   20.3651 C   0  0  0  0  0  0
  -30.2820  -19.9982   20.2907 C   0  0  0  0  0  0
  -28.2396  -18.1427   20.4896 C   0  0  0  0  0  0
  -29.5376  -17.5370   20.4734 C   0  0  0  0  0  0
  -28.9593  -20.5786   20.3041 C   0  0  0  0  0  0
  -27.9644  -19.5572   20.3992 C   0  0  0  0  0  0
  -28.9304  -23.3609   20.2667 C   0  0  0  0  0  0
  -27.9099  -24.6404   20.0006 C   0  0  0  0  0  0
  -28.4680  -22.0258   20.1786 N   0  0  0  0  0  0
  -29.6243  -16.0086   20.6072 N   0  0  0  0  0  0
  -30.1122  -23.5927   20.5350 O   0  0  0  0  0  0
  -26.6671  -19.9507   20.4038 F   0  0  0  0  0  0
  -31.4844  -12.7383   19.1752 H   0  0  0  0  0  0
  -30.4520  -11.6030   19.9989 H   0  0  0  0  0  0
  -29.8366  -11.7451   17.5617 H   0  0  0  0  0  0
  -29.6166  -13.4710   17.6997 H   0  0  0  0  0  0
  -27.9406  -11.2757   18.9515 H   0  0  0  0  0  0
  -27.3953  -12.4769   17.8097 H   0  0  0  0  0  0
  -27.6101  -14.2476   19.4324 H   0  0  0  0  0  0
  -28.7617  -12.2309   21.4245 H   0  0  0  0  0  0
  -28.3859  -13.8962   21.7849 H   0  0  0  0  0  0
  -25.2767   -9.5674   22.4762 H   0  0  0  0  0  0
  -23.9995   -7.4633   22.7476 H   0  0  0  0  0  0
  -21.0839   -8.8784   19.8959 H   0  0  0  0  0  0
  -22.3705  -10.9676   19.6171 H   0  0  0  0  0  0
  -21.2010   -7.6141   23.9709 H   0  0  0  0  0  0
  -21.1483   -6.0517   25.9072 H   0  0  0  0  0  0
  -22.0596   -2.7603   23.2848 H   0  0  0  0  0  0
  -22.4073  -11.9888   22.4838 H   0  0  0  0  0  0
  -21.1080  -13.1251   22.2629 H   0  0  0  0  0  0
  -24.6299  -15.8279   20.4806 H   0  0  0  0  0  0
  -26.2201  -15.6099   19.9582 H   0  0  0  0  0  0
  -26.7284  -32.5304   23.1019 H   0  0  0  0  0  0
  -25.0087  -33.9620   25.0332 H   0  0  0  0  0  0
  -22.7507  -31.2922   21.3828 H   0  0  0  0  0  0
  -23.3749  -35.9597   23.3319 H   0  0  0  0  0  0
  -24.3573  -36.8871   22.2053 H   0  0  0  0  0  0
  -23.7267  -37.6465   23.6669 H   0  0  0  0  0  0
  -26.1638  -31.4760   20.6202 H   0  0  0  0  0  0
  -26.8746  -30.7664   22.0337 H   0  0  0  0  0  0
  -28.1353  -28.7977   21.2346 H   0  0  0  0  0  0
  -25.8960  -25.8642   18.9812 H   0  0  0  0  0  0
  -23.9771  -27.3112   18.9782 H   0  0  0  0  0  0
  -23.8123  -30.5751   19.4004 H   0  0  0  0  0  0
  -22.7889  -29.2427   19.8418 H   0  0  0  0  0  0
  -25.1316  -36.1868   25.0809 H   0  0  0  0  0  0
  -21.0023  -28.3313   24.1353 H   0  0  0  0  0  0
  -20.5685  -26.2336   23.3623 H   0  0  0  0  0  0
  -21.6660  -26.7422   22.1202 H   0  0  0  0  0  0
  -19.6920  -25.6282   21.1257 H   0  0  0  0  0  0
  -19.6691  -27.3176   20.6736 H   0  0  0  0  0  0
  -17.4212  -26.6677   21.4036 H   0  0  0  0  0  0
  -18.0343  -26.0079   22.9031 H   0  0  0  0  0  0
  -19.7955  -30.7300   24.2228 H   0  0  0  0  0  0
  -17.5024  -31.6263   24.5165 H   0  0  0  0  0  0
  -15.5366  -30.2968   23.7664 H   0  0  0  0  0  0
  -15.8700  -28.0805   22.7076 H   0  0  0  0  0  0
  -24.5890  -30.7107   25.7742 H   0  0  0  0  0  0
  -24.8890  -32.2951   26.4780 H   0  0  0  0  0  0
  -25.7980  -30.8981   27.0239 H   0  0  0  0  0  0
  -26.3004  -29.6679   24.1307 H   0  0  0  0  0  0
  -27.3959  -29.7249   25.4905 H   0  0  0  0  0  0
  -27.8931  -30.4168   23.9663 H   0  0  0  0  0  0
  -27.2655  -33.3642   26.2046 H   0  0  0  0  0  0
  -28.3893  -32.6869   25.0356 H   0  0  0  0  0  0
  -28.0707  -31.8484   26.5461 H   0  0  0  0  0  0
  -28.2614  -38.0066   24.7468 H   0  0  0  0  0  0
  -28.1045  -36.2596   24.6362 H   0  0  0  0  0  0
  -27.2283  -37.1523   25.8873 H   0  0  0  0  0  0
  -20.9479  -29.8766   21.6786 H   0  0  0  0  0  0
  -26.0164  -38.2816   24.1359 H   0  0  0  0  0  0
  -31.5893  -18.2394   20.3456 H   0  0  0  0  0  0
  -31.1257  -20.6684   20.2073 H   0  0  0  0  0  0
  -27.3790  -17.4966   20.5727 H   0  0  0  0  0  0
  -27.0217  -24.4352   20.5988 H   0  0  0  0  0  0
  -27.6067  -24.5279   18.9598 H   0  0  0  0  0  0
  -27.4699  -22.0293   20.0105 H   0  0  0  0  0  0
  -28.7206  -15.6158   20.8204 H   0  0  0  0  0  0
  1 25  1  0  0  0
  1 30  2  0  0  0
  1 80  1  0  0  0
  2  3  1  0  0  0
  2 25  1  0  0  0
  2 83  1  0  0  0
  2 84  1  0  0  0
  3  4  1  0  0  0
  3 85  1  0  0  0
  3 86  1  0  0  0
  4  5  1  0  0  0
  4 87  1  0  0  0
  4 88  1  0  0  0
  5  6  1  0  0  0
  5 26  1  0  0  0
  5 89  1  0  0  0
  6 25  1  0  0  0
  6 90  1  0  0  0
  6 91  1  0  0  0
  7  8  2  0  0  0
  7 26  1  0  0  0
  7 29  1  0  0  0
  8  9  1  0  0  0
  8 22  1  0  0  0
  9 10  1  0  0  0
  9 27  2  0  0  0
 10 11  2  0  0  0
 10 15  1  0  0  0
 11 12  1  0  0  0
 11 92  1  0  0  0
 12 13  2  0  0  0
 12 93  1  0  0  0
 13 14  1  0  0  0
 13 31  1  0  0  0
 14 15  2  0  0  0
 14 94  1  0  0  0
 15 95  1  0  0  0
 16 17  2  0  0  0
 16 21  1  0  0  0
 16 31  1  0  0  0
 17 18  1  0  0  0
 17 96  1  0  0  0
 18 19  2  0  0  0
 18 97  1  0  0  0
 19 20  1  0  0  0
 19 24  1  0  0  0
 20 21  2  0  0  0
 20 98  1  0  0  0
 21 23  1  0  0  0
 22 28  1  0  0  0
 22 32  2  0  0  0
 26 27  1  0  0  0
 28 99  1  0  0  0
 28100  1  0  0  0
 29101  1  0  0  0
 29102  1  0  0  0
 33 34  1  0  0  0
 33 66  1  0  0  0
 33 70  2  0  0  0
 34 36  1  0  0  0
 34 59  1  0  0  0
 34103  1  0  0  0
 35 44  2  0  0  0
 35 45  1  0  0  0
 35 68  1  0  0  0
 36 56  1  0  0  0
 36104  1  0  0  0
 37 39  1  0  0  0
 37 47  1  0  0  0
 37 66  1  0  0  0
 37105  1  0  0  0
 38 43  2  0  0  0
 38 46  1  0  0  0
 38 47  1  0  0  0
 39 64  1  0  0  0
 39 67  2  0  0  0
 40 52  1  0  0  0
 40 53  2  0  0  0
 40 58  1  0  0  0
 41106  1  0  0  0
 41107  1  0  0  0
 41108  1  0  0  0
 41 48  1  0  0  0
 42 43  1  0  0  0
 42 66  1  0  0  0
 42109  1  0  0  0
 42110  1  0  0  0
 43 44  1  0  0  0
 44111  1  0  0  0
 45 46  2  0  0  0
 45112  1  0  0  0
 46113  1  0  0  0
 47114  1  0  0  0
 47115  1  0  0  0
 48 56  1  0  0  0
 48 65  1  0  0  0
 48116  1  0  0  0
 49 50  1  0  0  0
 49 53  1  0  0  0
 49 64  1  0  0  0
 49117  1  0  0  0
 50 51  1  0  0  0
 50118  1  0  0  0
 50119  1  0  0  0
 51 52  1  0  0  0
 51120  1  0  0  0
 51121  1  0  0  0
 52122  1  0  0  0
 52123  1  0  0  0
 53 54  1  0  0  0
 54 55  2  0  0  0
 54124  1  0  0  0
 55 57  1  0  0  0
 55125  1  0  0  0
 56 69  2  0  0  0
 57 58  2  0  0  0
 57126  1  0  0  0
 58127  1  0  0  0
 59 60  1  0  0  0
 59 61  1  0  0  0
 59 62  1  0  0  0
 60128  1  0  0  0
 60129  1  0  0  0
 60130  1  0  0  0
 61131  1  0  0  0
 61132  1  0  0  0
 61133  1  0  0  0
 62134  1  0  0  0
 62135  1  0  0  0
 62136  1  0  0  0
 63 65  1  0  0  0
 63137  1  0  0  0
 63138  1  0  0  0
 63139  1  0  0  0
 64140  1  0  0  0
 65141  1  0  0  0
 68 78  1  0  0  0
 71 72  2  0  0  0
 71 74  1  0  0  0
 71142  1  0  0  0
 72 75  1  0  0  0
 72143  1  0  0  0
 73 74  2  0  0  0
 73 76  1  0  0  0
 73144  1  0  0  0
 74 80  1  0  0  0
 75 76  2  0  0  0
 75 79  1  0  0  0
 76 82  1  0  0  0
 77 78  1  0  0  0
 77 79  1  0  0  0
 77 81  2  0  0  0
 78145  1  0  0  0
 78146  1  0  0  0
 79147  1  0  0  0
 80148  1  0  0  0
M  ISO  4   1 100  68 101  78 101  80 100
M  END
> <chiral flag>
0

> <version>
0

> <s_m_source_file>
/data/baiqing/PycharmProjects/Reinvent-master-3.2/result/LINK_invent/BTK/process_docking_weight1_custom_sum_contain_oxygen_bond_distance_aromatic_linkinvent_7_9_3/rearranged_h_0010.sdf

> <i_m_source_file_index>
39

> <r_mmod_Potential_Energy-OPLS-2005>
408.086791992188

> <r_mmod_Stretch_Energy-OPLS-2005>
218.79460144043

> <r_mmod_Bend_Energy-OPLS-2005>
281.798767089844

> <r_mmod_Torsional_Energy-OPLS-2005>
220.497772216797

> <r_mmod_Improper_Torsional_Energy-OPLS-2005>
5.07187652587891

> <r_mmod_Van_der_Waal_Energy-OPLS-2005>
130.193206787109

> <r_mmod_Electrostatic_Energy-OPLS-2005>
-389.395721435547

> <r_mmod_Solvation_Energy-OPLS-2005>
-242.372695922852

> <b_mmod_Minimization_Converged-OPLS-2005>
0

> <r_mmod_RMS_Derivative-OPLS-2005>
0.813941478729248

$$$$
39
                    3D
 Structure written by MMmdl.
175183  0  0  1  0            999 V2000
  -31.1141  -13.9864   20.6378 C   0  0  0  0  0  0
  -30.3605  -12.1154   19.3517 C   0  0  0  0  0  0
  -29.4706  -12.5325   18.1812 C   0  0  0  0  0  0
  -27.9984  -12.4249   18.6074 C   0  0  0  0  0  0
  -27.6955  -13.2338   19.8967 C   0  0  2  0  0  0
  -28.7717  -12.9989   20.9992 C   0  0  0  0  0  0
  -25.2709  -13.8255   20.5783 C   0  0  0  0  0  0
  -24.1959  -13.0518   20.9192 C   0  0  0  0  0  0
  -24.6556  -11.6983   20.8824 C   0  0  0  0  0  0
  -23.9207  -10.4329   21.0430 C   0  0  0  0  0  0
  -24.3709   -9.4220   21.9216 C   0  0  0  0  0  0
  -23.6372   -8.2274   22.0784 C   0  0  0  0  0  0
  -22.4344   -8.0331   21.3583 C   0  0  0  0  0  0
  -22.0024   -9.0312   20.4659 C   0  0  0  0  0  0
  -22.7381  -10.2180   20.3058 C   0  0  0  0  0  0
  -21.6863   -6.0841   22.5341 C   0  0  0  0  0  0
  -21.4014   -6.5712   23.8292 C   0  0  0  0  0  0
  -21.3633   -5.6829   24.9230 C   0  0  0  0  0  0
  -21.6025   -4.3096   24.7244 C   0  0  0  0  0  0
  -21.8802   -3.8225   23.4342 C   0  0  0  0  0  0
  -21.9183   -4.7073   22.3423 C   0  0  0  0  0  0
  -22.7906  -13.5271   21.1739 C   0  0  0  0  0  0
  -22.1638   -4.2283   21.1002 F   0  0  0  0  0  0
  -21.5599   -3.4534   25.7720 F   0  0  0  0  0  0
  -30.1491  -13.0528   20.4531 N   0  0  0  0  0  0
  -26.3278  -12.9520   20.3630 N   0  0  0  0  0  0
  -25.9520  -11.6641   20.5965 N   0  0  0  0  0  0
  -22.0458  -12.8334   22.0254 N   0  0  0  0  0  0
  -25.4345  -15.2008   20.4171 N   0  0  0  0  0  0
  -31.1637  -15.0686   20.0794 O   0  0  0  0  0  0
  -21.6644   -6.8972   21.4302 O   0  0  0  0  0  0
  -22.3567  -14.5545   20.6493 O   0  0  0  0  0  0
  -24.6154  -31.8712   23.2049 C   0  0  0  0  0  0
  -25.9050  -32.4870   23.8337 C   0  0  1  0  0  0
  -27.2204  -27.4368   20.0926 C   0  0  0  0  0  0
  -25.5922  -33.8660   24.2282 N   0  0  0  0  0  0
  -23.4021  -30.4947   21.5463 C   0  0  2  0  0  0
  -24.8408  -28.9580   20.1256 C   0  0  0  0  0  0
  -22.7371  -29.4703   22.4931 C   0  0  0  0  0  0
  -18.0266  -28.1392   22.8508 C   0  0  0  0  0  0
  -24.1485  -36.7303   23.2611 C   0  0  0  0  0  0
  -25.9284  -30.8392   21.3571 C   0  0  0  0  0  0
  -26.0037  -29.4683   20.7158 C   0  0  0  0  0  0
  -27.1952  -28.7095   20.7050 C   0  0  0  0  0  0
  -26.0289  -26.9391   19.5107 C   0  0  0  0  0  0
  -24.8420  -27.6869   19.5360 C   0  0  0  0  0  0
  -23.6134  -29.8298   20.1604 C   0  0  0  0  0  0
  -25.4109  -36.3136   24.0324 C   0  0  1  0  0  0
  -20.5859  -28.3701   23.1315 C   0  0  2  0  0  0
  -20.6807  -26.9447   22.5422 C   0  0  0  0  0  0
  -19.5794  -26.6432   21.5210 C   0  0  0  0  0  0
  -18.1958  -26.7964   22.1610 C   0  0  0  0  0  0
  -19.1517  -28.8850   23.2913 C   0  0  0  0  0  0
  -18.9465  -30.1460   23.8929 C   0  0  0  0  0  0
  -17.6462  -30.6615   24.0584 C   0  0  0  0  0  0
  -25.9049  -34.9514   23.5099 C   0  0  0  0  0  0
  -16.5352  -29.9136   23.6333 C   0  0  0  0  0  0
  -16.7262  -28.6555   23.0360 C   0  0  0  0  0  0
  -26.4476  -31.6644   25.0657 C   0  0  0  0  0  0
  -25.3702  -31.3816   26.1371 C   0  0  0  0  0  0
  -27.0305  -30.3087   24.6055 C   0  0  0  0  0  0
  -27.6062  -32.4339   25.7431 C   0  0  0  0  0  0
  -27.5577  -37.1763   24.8432 C   0  0  0  0  0  0
  -21.4105  -29.3070   22.3690 N   0  0  0  0  0  0
  -26.4283  -37.3836   23.9416 N   0  0  0  0  0  0
  -24.6682  -31.0801   22.0979 N   0  0  0  0  0  0
  -23.4119  -28.8225   23.2991 O   0  0  0  0  0  0
  -28.4085  -26.7334   20.0612 O   0  0  0  0  0  0
  -26.5577  -34.8991   22.4640 O   0  0  0  0  0  0
  -23.5338  -32.1427   23.7457 O   0  0  0  0  0  0
  -33.7339  -14.1156   19.0767 C   0  0  0  0  0  0
  -33.9021  -12.2487   22.3411 C   0  0  0  0  0  0
  -34.6002  -12.8838   21.1443 C   0  0  0  0  0  0
  -32.4046  -12.3757   22.0527 C   0  0  0  0  0  0
  -33.6138  -13.9366   20.6169 C   0  0  2  0  0  0
  -31.8584  -20.2156   18.6060 C   0  0  0  0  0  0
  -30.5777  -20.9448   19.0402 C   0  0  0  0  0  0
  -31.5844  -18.8430   17.9755 C   0  0  0  0  0  0
  -30.8408  -22.4320   19.3329 C   0  0  0  0  0  0
  -32.8872  -18.0884   17.6606 C   0  0  0  0  0  0
  -29.6582  -23.1455   20.0095 C   0  0  0  0  0  0
  -32.6755  -16.6998   17.0203 C   0  0  0  0  0  0
  -29.7201  -24.6848   19.8884 C   0  0  0  0  0  0
  -33.8924  -15.7714   17.2124 C   0  0  0  0  0  0
  -28.3246  -25.3066   20.0050 C   0  0  0  0  0  0
  -32.2849  -13.4561   21.0695 N   0  0  0  0  0  0
  -33.9950  -15.3442   18.6118 N   0  0  0  0  0  0
  -33.5527  -13.1581   18.3207 O   0  0  0  0  0  0
  -31.3994  -12.0532   19.0204 H   0  0  0  0  0  0
  -30.1195  -11.1043   19.6932 H   0  0  0  0  0  0
  -29.6742  -11.9082   17.3135 H   0  0  0  0  0  0
  -29.7052  -13.5591   17.8875 H   0  0  0  0  0  0
  -27.7852  -11.3690   18.7733 H   0  0  0  0  0  0
  -27.3414  -12.7495   17.7996 H   0  0  0  0  0  0
  -27.7492  -14.2881   19.6337 H   0  0  0  0  0  0
  -28.6299  -12.0028   21.4261 H   0  0  0  0  0  0
  -28.6464  -13.7063   21.8189 H   0  0  0  0  0  0
  -25.2835   -9.5701   22.4822 H   0  0  0  0  0  0
  -24.0069   -7.4664   22.7507 H   0  0  0  0  0  0
  -21.0959   -8.8845   19.8955 H   0  0  0  0  0  0
  -22.3857  -10.9726   19.6156 H   0  0  0  0  0  0
  -21.2001   -7.6220   23.9861 H   0  0  0  0  0  0
  -21.1443   -6.0532   25.9164 H   0  0  0  0  0  0
  -22.0579   -2.7697   23.2796 H   0  0  0  0  0  0
  -22.3999  -12.0036   22.4790 H   0  0  0  0  0  0
  -21.1057  -13.1420   22.2285 H   0  0  0  0  0  0
  -24.6756  -15.8642   20.5283 H   0  0  0  0  0  0
  -26.3032  -15.6418   20.1418 H   0  0  0  0  0  0
  -26.7118  -32.5612   23.1073 H   0  0  0  0  0  0
  -25.0274  -33.9859   25.0582 H   0  0  0  0  0  0
  -22.6991  -31.3149   21.4006 H   0  0  0  0  0  0
  -23.3818  -35.9550   23.3242 H   0  0  0  0  0  0
  -24.3628  -36.8964   22.2039 H   0  0  0  0  0  0
  -23.7160  -37.6449   23.6678 H   0  0  0  0  0  0
  -26.0317  -31.6029   20.5847 H   0  0  0  0  0  0
  -26.8177  -30.8964   21.9704 H   0  0  0  0  0  0
  -28.0926  -29.0969   21.1670 H   0  0  0  0  0  0
  -25.9841  -25.9828   19.0170 H   0  0  0  0  0  0
  -23.9419  -27.2801   19.0945 H   0  0  0  0  0  0
  -23.7438  -30.5981   19.3981 H   0  0  0  0  0  0
  -22.7417  -29.2492   19.8483 H   0  0  0  0  0  0
  -25.1317  -36.1958   25.0815 H   0  0  0  0  0  0
  -20.9951  -28.3244   24.1420 H   0  0  0  0  0  0
  -20.5784  -26.2276   23.3573 H   0  0  0  0  0  0
  -21.6680  -26.7558   22.1166 H   0  0  0  0  0  0
  -19.6972  -25.6339   21.1251 H   0  0  0  0  0  0
  -19.6768  -27.3230   20.6723 H   0  0  0  0  0  0
  -17.4240  -26.6710   21.3989 H   0  0  0  0  0  0
  -18.0342  -26.0107   22.9008 H   0  0  0  0  0  0
  -19.7948  -30.7266   24.2301 H   0  0  0  0  0  0
  -17.5055  -31.6283   24.5165 H   0  0  0  0  0  0
  -15.5375  -30.3048   23.7673 H   0  0  0  0  0  0
  -15.8664  -28.0885   22.7043 H   0  0  0  0  0  0
  -24.5854  -30.7230   25.7630 H   0  0  0  0  0  0
  -24.8953  -32.3039   26.4723 H   0  0  0  0  0  0
  -25.7991  -30.8979   27.0155 H   0  0  0  0  0  0
  -26.2853  -29.6864   24.1099 H   0  0  0  0  0  0
  -27.4064  -29.7312   25.4496 H   0  0  0  0  0  0
  -27.8694  -30.4432   23.9231 H   0  0  0  0  0  0
  -27.2681  -33.3636   26.2021 H   0  0  0  0  0  0
  -28.3869  -32.6872   25.0242 H   0  0  0  0  0  0
  -28.0713  -31.8464   26.5343 H   0  0  0  0  0  0
  -28.2521  -38.0134   24.7650 H   0  0  0  0  0  0
  -28.1164  -36.2695   24.6079 H   0  0  0  0  0  0
  -27.2336  -37.1152   25.8832 H   0  0  0  0  0  0
  -20.9202  -29.8764   21.6935 H   0  0  0  0  0  0
  -26.0171  -38.2887   24.1525 H   0  0  0  0  0  0
  -34.1275  -12.8216   23.2409 H   0  0  0  0  0  0
  -34.2101  -11.2129   22.5113 H   0  0  0  0  0  0
  -34.7859  -12.1062   20.4009 H   0  0  0  0  0  0
  -35.5694  -13.3175   21.3989 H   0  0  0  0  0  0
  -31.8222  -12.5653   22.9570 H   0  0  0  0  0  0
  -32.0341  -11.4515   21.6088 H   0  0  0  0  0  0
  -33.7953  -14.8958   21.1064 H   0  0  0  0  0  0
  -32.5034  -20.0933   19.4787 H   0  0  0  0  0  0
  -32.4164  -20.8343   17.9005 H   0  0  0  0  0  0
  -30.1714  -20.4506   19.9256 H   0  0  0  0  0  0
  -29.8138  -20.8541   18.2611 H   0  0  0  0  0  0
  -30.9959  -18.9746   17.0646 H   0  0  0  0  0  0
  -30.9782  -18.2440   18.6573 H   0  0  0  0  0  0
  -31.0853  -22.9199   18.3879 H   0  0  0  0  0  0
  -31.7247  -22.5326   19.9638 H   0  0  0  0  0  0
  -33.4352  -17.9794   18.5946 H   0  0  0  0  0  0
  -33.5210  -18.6955   17.0110 H   0  0  0  0  0  0
  -29.6242  -22.8749   21.0644 H   0  0  0  0  0  0
  -28.7217  -22.7750   19.5902 H   0  0  0  0  0  0
  -32.4589  -16.8119   15.9560 H   0  0  0  0  0  0
  -31.7930  -16.2161   17.4428 H   0  0  0  0  0  0
  -30.1358  -24.9736   18.9228 H   0  0  0  0  0  0
  -30.3859  -25.0982   20.6494 H   0  0  0  0  0  0
  -34.8119  -16.2839   16.9338 H   0  0  0  0  0  0
  -33.8060  -14.9149   16.5410 H   0  0  0  0  0  0
  -27.8248  -24.9295   20.8969 H   0  0  0  0  0  0
  -27.7547  -24.9549   19.1451 H   0  0  0  0  0  0
  -34.1602  -16.0755   19.2918 H   0  0  0  0  0  0
  1 25  1  0  0  0
  1 30  2  0  0  0
  1 86  1  0  0  0
  2  3  1  0  0  0
  2 25  1  0  0  0
  2 89  1  0  0  0
  2 90  1  0  0  0
  3  4  1  0  0  0
  3 91  1  0  0  0
  3 92  1  0  0  0
  4  5  1  0  0  0
  4 93  1  0  0  0
  4 94  1  0  0  0
  5  6  1  0  0  0
  5 26  1  0  0  0
  5 95  1  0  0  0
  6 25  1  0  0  0
  6 96  1  0  0  0
  6 97  1  0  0  0
  7  8  2  0  0  0
  7 26  1  0  0  0
  7 29  1  0  0  0
  8  9  1  0  0  0
  8 22  1  0  0  0
  9 10  1  0  0  0
  9 27  2  0  0  0
 10 11  2  0  0  0
 10 15  1  0  0  0
 11 12  1  0  0  0
 11 98  1  0  0  0
 12 13  2  0  0  0
 12 99  1  0  0  0
 13 14  1  0  0  0
 13 31  1  0  0  0
 14 15  2  0  0  0
 14100  1  0  0  0
 15101  1  0  0  0
 16 17  2  0  0  0
 16 21  1  0  0  0
 16 31  1  0  0  0
 17 18  1  0  0  0
 17102  1  0  0  0
 18 19  2  0  0  0
 18103  1  0  0  0
 19 20  1  0  0  0
 19 24  1  0  0  0
 20 21  2  0  0  0
 20104  1  0  0  0
 21 23  1  0  0  0
 22 28  1  0  0  0
 22 32  2  0  0  0
 26 27  1  0  0  0
 28105  1  0  0  0
 28106  1  0  0  0
 29107  1  0  0  0
 29108  1  0  0  0
 33 34  1  0  0  0
 33 66  1  0  0  0
 33 70  2  0  0  0
 34 36  1  0  0  0
 34 59  1  0  0  0
 34109  1  0  0  0
 35 44  2  0  0  0
 35 45  1  0  0  0
 35 68  1  0  0  0
 36 56  1  0  0  0
 36110  1  0  0  0
 37 39  1  0  0  0
 37 47  1  0  0  0
 37 66  1  0  0  0
 37111  1  0  0  0
 38 43  2  0  0  0
 38 46  1  0  0  0
 38 47  1  0  0  0
 39 64  1  0  0  0
 39 67  2  0  0  0
 40 52  1  0  0  0
 40 53  2  0  0  0
 40 58  1  0  0  0
 41112  1  0  0  0
 41113  1  0  0  0
 41114  1  0  0  0
 41 48  1  0  0  0
 42 43  1  0  0  0
 42 66  1  0  0  0
 42115  1  0  0  0
 42116  1  0  0  0
 43 44  1  0  0  0
 44117  1  0  0  0
 45 46  2  0  0  0
 45118  1  0  0  0
 46119  1  0  0  0
 47120  1  0  0  0
 47121  1  0  0  0
 48 56  1  0  0  0
 48 65  1  0  0  0
 48122  1  0  0  0
 49 50  1  0  0  0
 49 53  1  0  0  0
 49 64  1  0  0  0
 49123  1  0  0  0
 50 51  1  0  0  0
 50124  1  0  0  0
 50125  1  0  0  0
 51 52  1  0  0  0
 51126  1  0  0  0
 51127  1  0  0  0
 52128  1  0  0  0
 52129  1  0  0  0
 53 54  1  0  0  0
 54 55  2  0  0  0
 54130  1  0  0  0
 55 57  1  0  0  0
 55131  1  0  0  0
 56 69  2  0  0  0
 57 58  2  0  0  0
 57132  1  0  0  0
 58133  1  0  0  0
 59 60  1  0  0  0
 59 61  1  0  0  0
 59 62  1  0  0  0
 60134  1  0  0  0
 60135  1  0  0  0
 60136  1  0  0  0
 61137  1  0  0  0
 61138  1  0  0  0
 61139  1  0  0  0
 62140  1  0  0  0
 62141  1  0  0  0
 62142  1  0  0  0
 63 65  1  0  0  0
 63143  1  0  0  0
 63144  1  0  0  0
 63145  1  0  0  0
 64146  1  0  0  0
 65147  1  0  0  0
 68 85  1  0  0  0
 71 87  1  0  0  0
 71 88  2  0  0  0
 71 75  1  0  0  0
 72 73  1  0  0  0
 72 74  1  0  0  0
 72148  1  0  0  0
 72149  1  0  0  0
 73 75  1  0  0  0
 73150  1  0  0  0
 73151  1  0  0  0
 74 86  1  0  0  0
 74152  1  0  0  0
 74153  1  0  0  0
 75 86  1  0  0  0
 75154  1  0  0  0
 76 77  1  0  0  0
 76 78  1  0  0  0
 76155  1  0  0  0
 76156  1  0  0  0
 77 79  1  0  0  0
 77157  1  0  0  0
 77158  1  0  0  0
 78 80  1  0  0  0
 78159  1  0  0  0
 78160  1  0  0  0
 79 81  1  0  0  0
 79161  1  0  0  0
 79162  1  0  0  0
 80 82  1  0  0  0
 80163  1  0  0  0
 80164  1  0  0  0
 81 83  1  0  0  0
 81165  1  0  0  0
 81166  1  0  0  0
 82 84  1  0  0  0
 82167  1  0  0  0
 82168  1  0  0  0
 83 85  1  0  0  0
 83169  1  0  0  0
 83170  1  0  0  0
 84 87  1  0  0  0
 84171  1  0  0  0
 84172  1  0  0  0
 85173  1  0  0  0
 85174  1  0  0  0
 87175  1  0  0  0
M  ISO  4   1 100  68 101  85 101  86 100
M  END
> <chiral flag>
0

> <version>
0

> <s_m_source_file>
/data/baiqing/PycharmProjects/Reinvent-master-3.2/result/LINK_invent/BTK/process_docking_weight1_custom_sum_contain_oxygen_bond_distance_aromatic_linkinvent_7_9_3/rearranged_h_0010.sdf

> <i_m_source_file_index>
40

> <r_mmod_Potential_Energy-OPLS-2005>
108.580169677734

> <r_mmod_Stretch_Energy-OPLS-2005>
38.0869903564453

> <r_mmod_Bend_Energy-OPLS-2005>
115.444602966309

> <r_mmod_Torsional_Energy-OPLS-2005>
318.191375732422

> <r_mmod_Improper_Torsional_Energy-OPLS-2005>
14.8810873031616

> <r_mmod_Van_der_Waal_Energy-OPLS-2005>
138.592376708984

> <r_mmod_Electrostatic_Energy-OPLS-2005>
-409.146392822266

> <r_mmod_Solvation_Energy-OPLS-2005>
-204.242828369141

> <b_mmod_Minimization_Converged-OPLS-2005>
0

> <r_mmod_RMS_Derivative-OPLS-2005>
6.22121572494507

$$$$
40
                    3D
 Structure written by MMmdl.
159167  0  0  1  0            999 V2000
  -30.5071  -15.0289   20.4148 C   0  0  0  0  0  0
  -30.4487  -12.6484   19.4896 C   0  0  0  0  0  0
  -29.5278  -12.5353   18.2533 C   0  0  0  0  0  0
  -28.0620  -12.3119   18.6744 C   0  0  0  0  0  0
  -27.6255  -13.2505   19.8301 C   0  0  2  0  0  0
  -28.6723  -13.3166   20.9585 C   0  0  0  0  0  0
  -25.2462  -13.8219   20.5706 C   0  0  0  0  0  0
  -24.1786  -13.0433   20.9225 C   0  0  0  0  0  0
  -24.6405  -11.6918   20.8761 C   0  0  0  0  0  0
  -23.9095  -10.4290   21.0418 C   0  0  0  0  0  0
  -24.3643   -9.4201   21.9190 C   0  0  0  0  0  0
  -23.6300   -8.2245   22.0765 C   0  0  0  0  0  0
  -22.4275   -8.0294   21.3559 C   0  0  0  0  0  0
  -21.9928   -9.0275   20.4659 C   0  0  0  0  0  0
  -22.7273  -10.2139   20.3063 C   0  0  0  0  0  0
  -21.6864   -6.0739   22.5275 C   0  0  0  0  0  0
  -21.4016   -6.5636   23.8208 C   0  0  0  0  0  0
  -21.3658   -5.6791   24.9175 C   0  0  0  0  0  0
  -21.6045   -4.3054   24.7222 C   0  0  0  0  0  0
  -21.8823   -3.8143   23.4342 C   0  0  0  0  0  0
  -21.9186   -4.6963   22.3398 C   0  0  0  0  0  0
  -22.7795  -13.5207   21.1865 C   0  0  0  0  0  0
  -22.1653   -4.2135   21.0981 F   0  0  0  0  0  0
  -21.5636   -3.4544   25.7742 F   0  0  0  0  0  0
  -29.9247  -13.7592   20.3352 N   0  0  0  0  0  0
  -26.2886  -12.9443   20.3240 N   0  0  0  0  0  0
  -25.9345  -11.6567   20.5740 N   0  0  0  0  0  0
  -22.0456  -12.8199   22.0416 N   0  0  0  0  0  0
  -25.4119  -15.1955   20.4126 N   0  0  0  0  0  0
  -31.7328  -15.0762   20.2543 O   0  0  0  0  0  0
  -21.6644   -6.8889   21.4234 O   0  0  0  0  0  0
  -22.3480  -14.5512   20.6708 O   0  0  0  0  0  0
  -24.6508  -31.8379   23.1827 C   0  0  0  0  0  0
  -25.9254  -32.4657   23.8235 C   0  0  1  0  0  0
  -27.2077  -27.0780   20.1583 C   0  0  0  0  0  0
  -25.5973  -33.8464   24.2144 N   0  0  0  0  0  0
  -23.4577  -30.4564   21.5291 C   0  0  2  0  0  0
  -24.9050  -28.8749   20.1079 C   0  0  0  0  0  0
  -22.7624  -29.4510   22.4819 C   0  0  0  0  0  0
  -18.0329  -28.1399   22.8461 C   0  0  0  0  0  0
  -24.1496  -36.7237   23.2644 C   0  0  0  0  0  0
  -26.0185  -30.6933   21.3913 C   0  0  0  0  0  0
  -26.0861  -29.3004   20.7300 C   0  0  0  0  0  0
  -27.2394  -28.4200   20.7318 C   0  0  0  0  0  0
  -25.9999  -26.7668   19.4962 C   0  0  0  0  0  0
  -24.8775  -27.6252   19.4712 C   0  0  0  0  0  0
  -23.6881  -29.7879   20.1472 C   0  0  0  0  0  0
  -25.4134  -36.2999   24.0307 C   0  0  1  0  0  0
  -20.5948  -28.3716   23.1198 C   0  0  2  0  0  0
  -20.6805  -26.9408   22.5386 C   0  0  0  0  0  0
  -19.5775  -26.6364   21.5198 C   0  0  0  0  0  0
  -18.1958  -26.7930   22.1610 C   0  0  0  0  0  0
  -19.1589  -28.8878   23.2816 C   0  0  0  0  0  0
  -18.9500  -30.1476   23.8842 C   0  0  0  0  0  0
  -17.6498  -30.6578   24.0549 C   0  0  0  0  0  0
  -25.9091  -34.9374   23.5036 C   0  0  0  0  0  0
  -16.5386  -29.9070   23.6334 C   0  0  0  0  0  0
  -16.7313  -28.6501   23.0331 C   0  0  0  0  0  0
  -26.4538  -31.6553   25.0716 C   0  0  0  0  0  0
  -25.3699  -31.3755   26.1387 C   0  0  0  0  0  0
  -27.0434  -30.2941   24.6377 C   0  0  0  0  0  0
  -27.6056  -32.4338   25.7505 C   0  0  0  0  0  0
  -27.5572  -37.1777   24.8466 C   0  0  0  0  0  0
  -21.4309  -29.3040   22.3573 N   0  0  0  0  0  0
  -26.4286  -37.3719   23.9403 N   0  0  0  0  0  0
  -24.7294  -31.0182   22.0895 N   0  0  0  0  0  0
  -23.4243  -28.8054   23.2982 O   0  0  0  0  0  0
  -28.2465  -26.0631   20.2172 O   0  0  0  0  0  0
  -26.5680  -34.8881   22.4612 O   0  0  0  0  0  0
  -23.5611  -32.1274   23.7010 O   0  0  0  0  0  0
  -29.3104  -18.9781   20.1866 C   0  0  0  0  0  0
  -30.2399  -19.1280   22.7549 C   0  0  0  0  0  0
  -29.8015  -17.6906   20.8077 C   0  0  0  0  0  0
  -29.2859  -20.3552   20.8059 C   0  0  0  0  0  0
  -30.2359  -17.8530   22.1415 C   0  0  0  0  0  0
  -29.7674  -20.3098   22.1425 C   0  0  0  0  0  0
  -28.4008  -16.4601   24.0078 C   0  0  0  0  0  0
  -30.0149  -23.5918   21.4671 C   0  0  0  0  0  0
  -29.9292  -16.5666   24.1375 C   0  0  0  0  0  0
  -27.9541  -24.5077   20.1952 C   0  0  0  0  0  0
  -29.0678  -23.2115   20.3313 C   0  0  2  0  0  0
  -29.7027  -16.2189   20.3176 N   0  0  0  0  0  0
  -28.7142  -21.6509   20.2590 N   0  0  0  0  0  0
  -30.5642  -16.7258   22.8656 O   0  0  0  0  0  0
  -29.6848  -21.3905   22.9475 F   0  0  0  0  0  0
  -31.4762  -12.8352   19.1708 H   0  0  0  0  0  0
  -30.4740  -11.7122   20.0501 H   0  0  0  0  0  0
  -29.8627  -11.7266   17.6044 H   0  0  0  0  0  0
  -29.6022  -13.4506   17.6649 H   0  0  0  0  0  0
  -27.9659  -11.2726   18.9888 H   0  0  0  0  0  0
  -27.4002  -12.4370   17.8152 H   0  0  0  0  0  0
  -27.5750  -14.2443   19.3857 H   0  0  0  0  0  0
  -28.7900  -12.3535   21.4570 H   0  0  0  0  0  0
  -28.3618  -14.0282   21.7236 H   0  0  0  0  0  0
  -25.2793   -9.5656   22.4761 H   0  0  0  0  0  0
  -23.9996   -7.4635   22.7487 H   0  0  0  0  0  0
  -21.0866   -8.8819   19.8962 H   0  0  0  0  0  0
  -22.3761  -10.9687   19.6169 H   0  0  0  0  0  0
  -21.2017   -7.6144   23.9709 H   0  0  0  0  0  0
  -21.1476   -6.0527   25.9081 H   0  0  0  0  0  0
  -22.0599   -2.7598   23.2859 H   0  0  0  0  0  0
  -22.4072  -11.9847   22.4781 H   0  0  0  0  0  0
  -21.1077  -13.1219   22.2627 H   0  0  0  0  0  0
  -24.6439  -15.8462   20.5344 H   0  0  0  0  0  0
  -26.2577  -15.6418   20.0853 H   0  0  0  0  0  0
  -26.7340  -32.5234   23.0973 H   0  0  0  0  0  0
  -25.0070  -33.9545   25.0264 H   0  0  0  0  0  0
  -22.7637  -31.2847   21.3726 H   0  0  0  0  0  0
  -23.3744  -35.9571   23.3290 H   0  0  0  0  0  0
  -24.3585  -36.8903   22.2060 H   0  0  0  0  0  0
  -23.7275  -37.6436   23.6710 H   0  0  0  0  0  0
  -26.1919  -31.4469   20.6224 H   0  0  0  0  0  0
  -26.8799  -30.7352   22.0456 H   0  0  0  0  0  0
  -28.1424  -28.7391   21.2332 H   0  0  0  0  0  0
  -25.8867  -25.8135   19.0031 H   0  0  0  0  0  0
  -23.9785  -27.3012   18.9634 H   0  0  0  0  0  0
  -23.8392  -30.5639   19.3943 H   0  0  0  0  0  0
  -22.7988  -29.2392   19.8286 H   0  0  0  0  0  0
  -25.1327  -36.1793   25.0799 H   0  0  0  0  0  0
  -21.0048  -28.3313   24.1315 H   0  0  0  0  0  0
  -20.5692  -26.2340   23.3618 H   0  0  0  0  0  0
  -21.6669  -26.7394   22.1189 H   0  0  0  0  0  0
  -19.6925  -25.6266   21.1248 H   0  0  0  0  0  0
  -19.6707  -27.3154   20.6708 H   0  0  0  0  0  0
  -17.4230  -26.6665   21.4012 H   0  0  0  0  0  0
  -18.0353  -26.0072   22.9008 H   0  0  0  0  0  0
  -19.7978  -30.7294   24.2183 H   0  0  0  0  0  0
  -17.5049  -31.6247   24.5166 H   0  0  0  0  0  0
  -15.5383  -30.2942   23.7687 H   0  0  0  0  0  0
  -15.8719  -28.0805   22.7041 H   0  0  0  0  0  0
  -24.5899  -30.7094   25.7693 H   0  0  0  0  0  0
  -24.8856  -32.2933   26.4723 H   0  0  0  0  0  0
  -25.7939  -30.8982   27.0231 H   0  0  0  0  0  0
  -26.3084  -29.6630   24.1379 H   0  0  0  0  0  0
  -27.4012  -29.7284   25.4989 H   0  0  0  0  0  0
  -27.8996  -30.4153   23.9744 H   0  0  0  0  0  0
  -27.2662  -33.3680   26.1973 H   0  0  0  0  0  0
  -28.3911  -32.6835   25.0371 H   0  0  0  0  0  0
  -28.0672  -31.8549   26.5509 H   0  0  0  0  0  0
  -28.2565  -38.0094   24.7507 H   0  0  0  0  0  0
  -28.1092  -36.2620   24.6291 H   0  0  0  0  0  0
  -27.2290  -37.1420   25.8870 H   0  0  0  0  0  0
  -20.9551  -29.8771   21.6752 H   0  0  0  0  0  0
  -26.0129  -38.2774   24.1409 H   0  0  0  0  0  0
  -28.9058  -18.8999   19.1884 H   0  0  0  0  0  0
  -30.5636  -19.2167   23.7795 H   0  0  0  0  0  0
  -27.9471  -16.2538   24.9777 H   0  0  0  0  0  0
  -28.1126  -15.6581   23.3291 H   0  0  0  0  0  0
  -27.9661  -17.3867   23.6343 H   0  0  0  0  0  0
  -30.3907  -24.6040   21.3158 H   0  0  0  0  0  0
  -30.8848  -22.9377   21.5186 H   0  0  0  0  0  0
  -29.4960  -23.6083   22.4246 H   0  0  0  0  0  0
  -30.3086  -15.6460   24.5837 H   0  0  0  0  0  0
  -30.2029  -17.3598   24.8328 H   0  0  0  0  0  0
  -27.4043  -24.3119   19.2772 H   0  0  0  0  0  0
  -27.2245  -24.3570   20.9918 H   0  0  0  0  0  0
  -29.6746  -23.3272   19.4324 H   0  0  0  0  0  0
  -28.7735  -15.9938   20.0019 H   0  0  0  0  0  0
  -28.0687  -21.4724   19.4934 H   0  0  0  0  0  0
  1 25  1  0  0  0
  1 30  2  0  0  0
  1 82  1  0  0  0
  2  3  1  0  0  0
  2 25  1  0  0  0
  2 86  1  0  0  0
  2 87  1  0  0  0
  3  4  1  0  0  0
  3 88  1  0  0  0
  3 89  1  0  0  0
  4  5  1  0  0  0
  4 90  1  0  0  0
  4 91  1  0  0  0
  5  6  1  0  0  0
  5 26  1  0  0  0
  5 92  1  0  0  0
  6 25  1  0  0  0
  6 93  1  0  0  0
  6 94  1  0  0  0
  7  8  2  0  0  0
  7 26  1  0  0  0
  7 29  1  0  0  0
  8  9  1  0  0  0
  8 22  1  0  0  0
  9 10  1  0  0  0
  9 27  2  0  0  0
 10 11  2  0  0  0
 10 15  1  0  0  0
 11 12  1  0  0  0
 11 95  1  0  0  0
 12 13  2  0  0  0
 12 96  1  0  0  0
 13 14  1  0  0  0
 13 31  1  0  0  0
 14 15  2  0  0  0
 14 97  1  0  0  0
 15 98  1  0  0  0
 16 17  2  0  0  0
 16 21  1  0  0  0
 16 31  1  0  0  0
 17 18  1  0  0  0
 17 99  1  0  0  0
 18 19  2  0  0  0
 18100  1  0  0  0
 19 20  1  0  0  0
 19 24  1  0  0  0
 20 21  2  0  0  0
 20101  1  0  0  0
 21 23  1  0  0  0
 22 28  1  0  0  0
 22 32  2  0  0  0
 26 27  1  0  0  0
 28102  1  0  0  0
 28103  1  0  0  0
 29104  1  0  0  0
 29105  1  0  0  0
 33 34  1  0  0  0
 33 66  1  0  0  0
 33 70  2  0  0  0
 34 36  1  0  0  0
 34 59  1  0  0  0
 34106  1  0  0  0
 35 44  2  0  0  0
 35 45  1  0  0  0
 35 68  1  0  0  0
 36 56  1  0  0  0
 36107  1  0  0  0
 37 39  1  0  0  0
 37 47  1  0  0  0
 37 66  1  0  0  0
 37108  1  0  0  0
 38 43  2  0  0  0
 38 46  1  0  0  0
 38 47  1  0  0  0
 39 64  1  0  0  0
 39 67  2  0  0  0
 40 52  1  0  0  0
 40 53  2  0  0  0
 40 58  1  0  0  0
 41109  1  0  0  0
 41110  1  0  0  0
 41111  1  0  0  0
 41 48  1  0  0  0
 42 43  1  0  0  0
 42 66  1  0  0  0
 42112  1  0  0  0
 42113  1  0  0  0
 43 44  1  0  0  0
 44114  1  0  0  0
 45 46  2  0  0  0
 45115  1  0  0  0
 46116  1  0  0  0
 47117  1  0  0  0
 47118  1  0  0  0
 48 56  1  0  0  0
 48 65  1  0  0  0
 48119  1  0  0  0
 49 50  1  0  0  0
 49 53  1  0  0  0
 49 64  1  0  0  0
 49120  1  0  0  0
 50 51  1  0  0  0
 50121  1  0  0  0
 50122  1  0  0  0
 51 52  1  0  0  0
 51123  1  0  0  0
 51124  1  0  0  0
 52125  1  0  0  0
 52126  1  0  0  0
 53 54  1  0  0  0
 54 55  2  0  0  0
 54127  1  0  0  0
 55 57  1  0  0  0
 55128  1  0  0  0
 56 69  2  0  0  0
 57 58  2  0  0  0
 57129  1  0  0  0
 58130  1  0  0  0
 59 60  1  0  0  0
 59 61  1  0  0  0
 59 62  1  0  0  0
 60131  1  0  0  0
 60132  1  0  0  0
 60133  1  0  0  0
 61134  1  0  0  0
 61135  1  0  0  0
 61136  1  0  0  0
 62137  1  0  0  0
 62138  1  0  0  0
 62139  1  0  0  0
 63 65  1  0  0  0
 63140  1  0  0  0
 63141  1  0  0  0
 63142  1  0  0  0
 64143  1  0  0  0
 65144  1  0  0  0
 68 80  1  0  0  0
 71 73  2  0  0  0
 71 74  1  0  0  0
 71145  1  0  0  0
 72 75  2  0  0  0
 72 76  1  0  0  0
 72146  1  0  0  0
 73 75  1  0  0  0
 73 82  1  0  0  0
 74 76  2  0  0  0
 74 83  1  0  0  0
 75 84  1  0  0  0
 76 85  1  0  0  0
 77 79  1  0  0  0
 77147  1  0  0  0
 77148  1  0  0  0
 77149  1  0  0  0
 78150  1  0  0  0
 78151  1  0  0  0
 78152  1  0  0  0
 78 81  1  0  0  0
 79 84  1  0  0  0
 79153  1  0  0  0
 79154  1  0  0  0
 80 81  1  0  0  0
 80155  1  0  0  0
 80156  1  0  0  0
 81 83  1  0  0  0
 81157  1  0  0  0
 82158  1  0  0  0
 83159  1  0  0  0
M  ISO  4   1 100  68 101  80 101  82 100
M  END
> <chiral flag>
0

> <version>
0

> <s_m_source_file>
/data/baiqing/PycharmProjects/Reinvent-master-3.2/result/LINK_invent/BTK/process_docking_weight1_custom_sum_contain_oxygen_bond_distance_aromatic_linkinvent_7_9_3/rearranged_h_0010.sdf

> <i_m_source_file_index>
41

> <r_mmod_Potential_Energy-OPLS-2005>
691.433471679688

> <r_mmod_Stretch_Energy-OPLS-2005>
325.464385986328

> <r_mmod_Bend_Energy-OPLS-2005>
306.634979248047

> <r_mmod_Torsional_Energy-OPLS-2005>
265.988800048828

> <r_mmod_Improper_Torsional_Energy-OPLS-2005>
12.5808973312378

> <r_mmod_Van_der_Waal_Energy-OPLS-2005>
137.314788818359

> <r_mmod_Electrostatic_Energy-OPLS-2005>
-380.280090332031

> <r_mmod_Solvation_Energy-OPLS-2005>
-230.611755371094

> <b_mmod_Minimization_Converged-OPLS-2005>
0

> <r_mmod_RMS_Derivative-OPLS-2005>
2.95528292655945

$$$$
41
                    3D
 Structure written by MMmdl.
148156  0  0  1  0            999 V2000
  -30.5122  -14.9218   20.4210 C   0  0  0  0  0  0
  -30.4531  -12.5665   19.4870 C   0  0  0  0  0  0
  -29.5248  -12.5329   18.2489 C   0  0  0  0  0  0
  -28.0554  -12.3215   18.6638 C   0  0  0  0  0  0
  -27.6372  -13.2379   19.8425 C   0  0  2  0  0  0
  -28.6832  -13.2237   20.9788 C   0  0  0  0  0  0
  -25.2494  -13.8187   20.5681 C   0  0  0  0  0  0
  -24.1803  -13.0433   20.9229 C   0  0  0  0  0  0
  -24.6403  -11.6915   20.8752 C   0  0  0  0  0  0
  -23.9077  -10.4290   21.0406 C   0  0  0  0  0  0
  -24.3623   -9.4205   21.9184 C   0  0  0  0  0  0
  -23.6292   -8.2244   22.0754 C   0  0  0  0  0  0
  -22.4273   -8.0285   21.3544 C   0  0  0  0  0  0
  -21.9912   -9.0261   20.4649 C   0  0  0  0  0  0
  -22.7246  -10.2135   20.3058 C   0  0  0  0  0  0
  -21.6854   -6.0731   22.5275 C   0  0  0  0  0  0
  -21.4015   -6.5633   23.8208 C   0  0  0  0  0  0
  -21.3662   -5.6786   24.9171 C   0  0  0  0  0  0
  -21.6044   -4.3049   24.7222 C   0  0  0  0  0  0
  -21.8820   -3.8140   23.4345 C   0  0  0  0  0  0
  -21.9192   -4.6957   22.3399 C   0  0  0  0  0  0
  -22.7822  -13.5216   21.1875 C   0  0  0  0  0  0
  -22.1662   -4.2142   21.0977 F   0  0  0  0  0  0
  -21.5629   -3.4536   25.7739 F   0  0  0  0  0  0
  -29.9663  -13.6413   20.3934 N   0  0  0  0  0  0
  -26.2920  -12.9402   20.3233 N   0  0  0  0  0  0
  -25.9333  -11.6544   20.5726 N   0  0  0  0  0  0
  -22.0461  -12.8217   22.0433 N   0  0  0  0  0  0
  -25.4154  -15.1905   20.4032 N   0  0  0  0  0  0
  -31.7048  -15.0554   20.1240 O   0  0  0  0  0  0
  -21.6639   -6.8880   21.4240 O   0  0  0  0  0  0
  -22.3514  -14.5518   20.6710 O   0  0  0  0  0  0
  -24.6443  -31.8448   23.1896 C   0  0  0  0  0  0
  -25.9216  -32.4698   23.8287 C   0  0  1  0  0  0
  -27.2194  -27.1412   20.1396 C   0  0  0  0  0  0
  -25.5963  -33.8505   24.2200 N   0  0  0  0  0  0
  -23.4478  -30.4658   21.5355 C   0  0  2  0  0  0
  -24.8972  -28.8971   20.1102 C   0  0  0  0  0  0
  -22.7577  -29.4550   22.4860 C   0  0  0  0  0  0
  -18.0311  -28.1393   22.8478 C   0  0  0  0  0  0
  -24.1495  -36.7256   23.2642 C   0  0  0  0  0  0
  -26.0052  -30.7192   21.3896 C   0  0  0  0  0  0
  -26.0767  -29.3319   20.7282 C   0  0  0  0  0  0
  -27.2386  -28.4703   20.7274 C   0  0  0  0  0  0
  -26.0107  -26.8123   19.4826 C   0  0  0  0  0  0
  -24.8768  -27.6494   19.4737 C   0  0  0  0  0  0
  -23.6743  -29.7989   20.1540 C   0  0  0  0  0  0
  -25.4127  -36.3034   24.0315 C   0  0  1  0  0  0
  -20.5925  -28.3720   23.1235 C   0  0  2  0  0  0
  -20.6794  -26.9423   22.5404 C   0  0  0  0  0  0
  -19.5763  -26.6377   21.5215 C   0  0  0  0  0  0
  -18.1947  -26.7930   22.1628 C   0  0  0  0  0  0
  -19.1569  -28.8877   23.2847 C   0  0  0  0  0  0
  -18.9480  -30.1472   23.8872 C   0  0  0  0  0  0
  -17.6474  -30.6587   24.0560 C   0  0  0  0  0  0
  -25.9076  -34.9406   23.5066 C   0  0  0  0  0  0
  -16.5368  -29.9079   23.6333 C   0  0  0  0  0  0
  -16.7296  -28.6499   23.0353 C   0  0  0  0  0  0
  -26.4529  -31.6564   25.0728 C   0  0  0  0  0  0
  -25.3706  -31.3765   26.1420 C   0  0  0  0  0  0
  -27.0385  -30.2951   24.6320 C   0  0  0  0  0  0
  -27.6061  -32.4328   25.7511 C   0  0  0  0  0  0
  -27.5573  -37.1796   24.8471 C   0  0  0  0  0  0
  -21.4268  -29.3048   22.3606 N   0  0  0  0  0  0
  -26.4295  -37.3739   23.9395 N   0  0  0  0  0  0
  -24.7189  -31.0306   22.0930 N   0  0  0  0  0  0
  -23.4222  -28.8090   23.3003 O   0  0  0  0  0  0
  -28.2628  -26.1435   20.2061 O   0  0  0  0  0  0
  -26.5660  -34.8903   22.4643 O   0  0  0  0  0  0
  -23.5560  -32.1329   23.7109 O   0  0  0  0  0  0
  -30.5556  -18.5556   20.3651 C   0  0  0  0  0  0
  -30.2820  -19.9982   20.2907 C   0  0  0  0  0  0
  -28.2396  -18.1427   20.4896 C   0  0  0  0  0  0
  -29.5376  -17.5370   20.4734 C   0  0  0  0  0  0
  -28.9593  -20.5786   20.3041 C   0  0  0  0  0  0
  -27.9644  -19.5572   20.3992 C   0  0  0  0  0  0
  -28.9304  -23.3609   20.2667 C   0  0  0  0  0  0
  -27.9099  -24.6404   20.0006 C   0  0  0  0  0  0
  -28.4680  -22.0258   20.1786 N   0  0  0  0  0  0
  -29.6243  -16.0086   20.6072 N   0  0  0  0  0  0
  -30.1122  -23.5927   20.5350 O   0  0  0  0  0  0
  -26.6671  -19.9507   20.4038 F   0  0  0  0  0  0
  -31.4844  -12.7383   19.1752 H   0  0  0  0  0  0
  -30.4520  -11.6030   19.9989 H   0  0  0  0  0  0
  -29.8366  -11.7451   17.5617 H   0  0  0  0  0  0
  -29.6166  -13.4710   17.6997 H   0  0  0  0  0  0
  -27.9406  -11.2757   18.9515 H   0  0  0  0  0  0
  -27.3953  -12.4769   17.8097 H   0  0  0  0  0  0
  -27.6101  -14.2476   19.4324 H   0  0  0  0  0  0
  -28.7617  -12.2309   21.4245 H   0  0  0  0  0  0
  -28.3859  -13.8962   21.7849 H   0  0  0  0  0  0
  -25.2767   -9.5674   22.4762 H   0  0  0  0  0  0
  -23.9995   -7.4633   22.7476 H   0  0  0  0  0  0
  -21.0839   -8.8784   19.8959 H   0  0  0  0  0  0
  -22.3705  -10.9676   19.6171 H   0  0  0  0  0  0
  -21.2010   -7.6141   23.9709 H   0  0  0  0  0  0
  -21.1483   -6.0517   25.9072 H   0  0  0  0  0  0
  -22.0596   -2.7603   23.2848 H   0  0  0  0  0  0
  -22.4073  -11.9888   22.4838 H   0  0  0  0  0  0
  -21.1080  -13.1251   22.2629 H   0  0  0  0  0  0
  -24.6299  -15.8279   20.4806 H   0  0  0  0  0  0
  -26.2201  -15.6099   19.9582 H   0  0  0  0  0  0
  -26.7284  -32.5304   23.1019 H   0  0  0  0  0  0
  -25.0087  -33.9620   25.0332 H   0  0  0  0  0  0
  -22.7507  -31.2922   21.3828 H   0  0  0  0  0  0
  -23.3749  -35.9597   23.3319 H   0  0  0  0  0  0
  -24.3573  -36.8871   22.2053 H   0  0  0  0  0  0
  -23.7267  -37.6465   23.6669 H   0  0  0  0  0  0
  -26.1638  -31.4760   20.6202 H   0  0  0  0  0  0
  -26.8746  -30.7664   22.0337 H   0  0  0  0  0  0
  -28.1353  -28.7977   21.2346 H   0  0  0  0  0  0
  -25.8960  -25.8642   18.9812 H   0  0  0  0  0  0
  -23.9771  -27.3112   18.9782 H   0  0  0  0  0  0
  -23.8123  -30.5751   19.4004 H   0  0  0  0  0  0
  -22.7889  -29.2427   19.8418 H   0  0  0  0  0  0
  -25.1316  -36.1868   25.0809 H   0  0  0  0  0  0
  -21.0023  -28.3313   24.1353 H   0  0  0  0  0  0
  -20.5685  -26.2336   23.3623 H   0  0  0  0  0  0
  -21.6660  -26.7422   22.1202 H   0  0  0  0  0  0
  -19.6920  -25.6282   21.1257 H   0  0  0  0  0  0
  -19.6691  -27.3176   20.6736 H   0  0  0  0  0  0
  -17.4212  -26.6677   21.4036 H   0  0  0  0  0  0
  -18.0343  -26.0079   22.9031 H   0  0  0  0  0  0
  -19.7955  -30.7300   24.2228 H   0  0  0  0  0  0
  -17.5024  -31.6263   24.5165 H   0  0  0  0  0  0
  -15.5366  -30.2968   23.7664 H   0  0  0  0  0  0
  -15.8700  -28.0805   22.7076 H   0  0  0  0  0  0
  -24.5890  -30.7107   25.7742 H   0  0  0  0  0  0
  -24.8890  -32.2951   26.4780 H   0  0  0  0  0  0
  -25.7980  -30.8981   27.0239 H   0  0  0  0  0  0
  -26.3004  -29.6679   24.1307 H   0  0  0  0  0  0
  -27.3959  -29.7249   25.4905 H   0  0  0  0  0  0
  -27.8931  -30.4168   23.9663 H   0  0  0  0  0  0
  -27.2655  -33.3642   26.2046 H   0  0  0  0  0  0
  -28.3893  -32.6869   25.0356 H   0  0  0  0  0  0
  -28.0707  -31.8484   26.5461 H   0  0  0  0  0  0
  -28.2614  -38.0066   24.7468 H   0  0  0  0  0  0
  -28.1045  -36.2596   24.6362 H   0  0  0  0  0  0
  -27.2283  -37.1523   25.8873 H   0  0  0  0  0  0
  -20.9479  -29.8766   21.6786 H   0  0  0  0  0  0
  -26.0164  -38.2816   24.1359 H   0  0  0  0  0  0
  -31.5893  -18.2394   20.3456 H   0  0  0  0  0  0
  -31.1257  -20.6684   20.2073 H   0  0  0  0  0  0
  -27.3790  -17.4966   20.5727 H   0  0  0  0  0  0
  -27.0217  -24.4352   20.5988 H   0  0  0  0  0  0
  -27.6067  -24.5279   18.9598 H   0  0  0  0  0  0
  -27.4699  -22.0293   20.0105 H   0  0  0  0  0  0
  -28.7206  -15.6158   20.8204 H   0  0  0  0  0  0
  1 25  1  0  0  0
  1 30  2  0  0  0
  1 80  1  0  0  0
  2  3  1  0  0  0
  2 25  1  0  0  0
  2 83  1  0  0  0
  2 84  1  0  0  0
  3  4  1  0  0  0
  3 85  1  0  0  0
  3 86  1  0  0  0
  4  5  1  0  0  0
  4 87  1  0  0  0
  4 88  1  0  0  0
  5  6  1  0  0  0
  5 26  1  0  0  0
  5 89  1  0  0  0
  6 25  1  0  0  0
  6 90  1  0  0  0
  6 91  1  0  0  0
  7  8  2  0  0  0
  7 26  1  0  0  0
  7 29  1  0  0  0
  8  9  1  0  0  0
  8 22  1  0  0  0
  9 10  1  0  0  0
  9 27  2  0  0  0
 10 11  2  0  0  0
 10 15  1  0  0  0
 11 12  1  0  0  0
 11 92  1  0  0  0
 12 13  2  0  0  0
 12 93  1  0  0  0
 13 14  1  0  0  0
 13 31  1  0  0  0
 14 15  2  0  0  0
 14 94  1  0  0  0
 15 95  1  0  0  0
 16 17  2  0  0  0
 16 21  1  0  0  0
 16 31  1  0  0  0
 17 18  1  0  0  0
 17 96  1  0  0  0
 18 19  2  0  0  0
 18 97  1  0  0  0
 19 20  1  0  0  0
 19 24  1  0  0  0
 20 21  2  0  0  0
 20 98  1  0  0  0
 21 23  1  0  0  0
 22 28  1  0  0  0
 22 32  2  0  0  0
 26 27  1  0  0  0
 28 99  1  0  0  0
 28100  1  0  0  0
 29101  1  0  0  0
 29102  1  0  0  0
 33 34  1  0  0  0
 33 66  1  0  0  0
 33 70  2  0  0  0
 34 36  1  0  0  0
 34 59  1  0  0  0
 34103  1  0  0  0
 35 44  2  0  0  0
 35 45  1  0  0  0
 35 68  1  0  0  0
 36 56  1  0  0  0
 36104  1  0  0  0
 37 39  1  0  0  0
 37 47  1  0  0  0
 37 66  1  0  0  0
 37105  1  0  0  0
 38 43  2  0  0  0
 38 46  1  0  0  0
 38 47  1  0  0  0
 39 64  1  0  0  0
 39 67  2  0  0  0
 40 52  1  0  0  0
 40 53  2  0  0  0
 40 58  1  0  0  0
 41106  1  0  0  0
 41107  1  0  0  0
 41108  1  0  0  0
 41 48  1  0  0  0
 42 43  1  0  0  0
 42 66  1  0  0  0
 42109  1  0  0  0
 42110  1  0  0  0
 43 44  1  0  0  0
 44111  1  0  0  0
 45 46  2  0  0  0
 45112  1  0  0  0
 46113  1  0  0  0
 47114  1  0  0  0
 47115  1  0  0  0
 48 56  1  0  0  0
 48 65  1  0  0  0
 48116  1  0  0  0
 49 50  1  0  0  0
 49 53  1  0  0  0
 49 64  1  0  0  0
 49117  1  0  0  0
 50 51  1  0  0  0
 50118  1  0  0  0
 50119  1  0  0  0
 51 52  1  0  0  0
 51120  1  0  0  0
 51121  1  0  0  0
 52122  1  0  0  0
 52123  1  0  0  0
 53 54  1  0  0  0
 54 55  2  0  0  0
 54124  1  0  0  0
 55 57  1  0  0  0
 55125  1  0  0  0
 56 69  2  0  0  0
 57 58  2  0  0  0
 57126  1  0  0  0
 58127  1  0  0  0
 59 60  1  0  0  0
 59 61  1  0  0  0
 59 62  1  0  0  0
 60128  1  0  0  0
 60129  1  0  0  0
 60130  1  0  0  0
 61131  1  0  0  0
 61132  1  0  0  0
 61133  1  0  0  0
 62134  1  0  0  0
 62135  1  0  0  0
 62136  1  0  0  0
 63 65  1  0  0  0
 63137  1  0  0  0
 63138  1  0  0  0
 63139  1  0  0  0
 64140  1  0  0  0
 65141  1  0  0  0
 68 78  1  0  0  0
 71 72  2  0  0  0
 71 74  1  0  0  0
 71142  1  0  0  0
 72 75  1  0  0  0
 72143  1  0  0  0
 73 74  2  0  0  0
 73 76  1  0  0  0
 73144  1  0  0  0
 74 80  1  0  0  0
 75 76  2  0  0  0
 75 79  1  0  0  0
 76 82  1  0  0  0
 77 78  1  0  0  0
 77 79  1  0  0  0
 77 81  2  0  0  0
 78145  1  0  0  0
 78146  1  0  0  0
 79147  1  0  0  0
 80148  1  0  0  0
M  ISO  4   1 100  68 101  78 101  80 100
M  END
> <chiral flag>
0

> <version>
0

> <s_m_source_file>
/data/baiqing/PycharmProjects/Reinvent-master-3.2/result/LINK_invent/BTK/process_docking_weight1_custom_sum_contain_oxygen_bond_distance_aromatic_linkinvent_7_9_3/rearranged_h_0010.sdf

> <i_m_source_file_index>
42

> <r_mmod_Potential_Energy-OPLS-2005>
408.086791992188

> <r_mmod_Stretch_Energy-OPLS-2005>
218.79460144043

> <r_mmod_Bend_Energy-OPLS-2005>
281.798767089844

> <r_mmod_Torsional_Energy-OPLS-2005>
220.497772216797

> <r_mmod_Improper_Torsional_Energy-OPLS-2005>
5.07187652587891

> <r_mmod_Van_der_Waal_Energy-OPLS-2005>
130.193206787109

> <r_mmod_Electrostatic_Energy-OPLS-2005>
-389.395721435547

> <r_mmod_Solvation_Energy-OPLS-2005>
-242.372695922852

> <b_mmod_Minimization_Converged-OPLS-2005>
0

> <r_mmod_RMS_Derivative-OPLS-2005>
0.813941478729248

$$$$
42
                    3D
 Structure written by MMmdl.
152160  0  0  1  0            999 V2000
  -30.5259  -15.0194   20.4072 C   0  0  0  0  0  0
  -30.4381  -12.6369   19.5029 C   0  0  0  0  0  0
  -29.5221  -12.5344   18.2612 C   0  0  0  0  0  0
  -28.0591  -12.3072   18.6839 C   0  0  0  0  0  0
  -27.6237  -13.2548   19.8321 C   0  0  2  0  0  0
  -28.6655  -13.3238   20.9683 C   0  0  0  0  0  0
  -25.2437  -13.8225   20.5715 C   0  0  0  0  0  0
  -24.1766  -13.0441   20.9237 C   0  0  0  0  0  0
  -24.6393  -11.6930   20.8758 C   0  0  0  0  0  0
  -23.9081  -10.4295   21.0409 C   0  0  0  0  0  0
  -24.3629   -9.4207   21.9183 C   0  0  0  0  0  0
  -23.6298   -8.2246   22.0755 C   0  0  0  0  0  0
  -22.4281   -8.0284   21.3546 C   0  0  0  0  0  0
  -21.9921   -9.0258   20.4648 C   0  0  0  0  0  0
  -22.7256  -10.2135   20.3055 C   0  0  0  0  0  0
  -21.6854   -6.0738   22.5278 C   0  0  0  0  0  0
  -21.4016   -6.5640   23.8211 C   0  0  0  0  0  0
  -21.3658   -5.6794   24.9172 C   0  0  0  0  0  0
  -21.6040   -4.3056   24.7225 C   0  0  0  0  0  0
  -21.8822   -3.8148   23.4346 C   0  0  0  0  0  0
  -21.9192   -4.6965   22.3400 C   0  0  0  0  0  0
  -22.7786  -13.5204   21.1891 C   0  0  0  0  0  0
  -22.1662   -4.2150   21.0979 F   0  0  0  0  0  0
  -21.5626   -3.4539   25.7737 F   0  0  0  0  0  0
  -29.9303  -13.7526   20.3583 N   0  0  0  0  0  0
  -26.2860  -12.9466   20.3228 N   0  0  0  0  0  0
  -25.9325  -11.6588   20.5735 N   0  0  0  0  0  0
  -22.0440  -12.8187   22.0447 N   0  0  0  0  0  0
  -25.4080  -15.1956   20.4149 N   0  0  0  0  0  0
  -31.7391  -15.0449   20.1697 O   0  0  0  0  0  0
  -21.6644   -6.8883   21.4242 O   0  0  0  0  0  0
  -22.3464  -14.5505   20.6736 O   0  0  0  0  0  0
  -24.6492  -31.8384   23.1836 C   0  0  0  0  0  0
  -25.9240  -32.4663   23.8238 C   0  0  1  0  0  0
  -27.2161  -27.0818   20.1624 C   0  0  0  0  0  0
  -25.5966  -33.8472   24.2152 N   0  0  0  0  0  0
  -23.4547  -30.4561   21.5308 C   0  0  2  0  0  0
  -24.9044  -28.8727   20.1102 C   0  0  0  0  0  0
  -22.7590  -29.4516   22.4843 C   0  0  0  0  0  0
  -18.0308  -28.1400   22.8466 C   0  0  0  0  0  0
  -24.1495  -36.7243   23.2645 C   0  0  0  0  0  0
  -26.0145  -30.6954   21.3890 C   0  0  0  0  0  0
  -26.0848  -29.3014   20.7309 C   0  0  0  0  0  0
  -27.2410  -28.4249   20.7346 C   0  0  0  0  0  0
  -26.0066  -26.7652   19.5048 C   0  0  0  0  0  0
  -24.8821  -27.6200   19.4787 C   0  0  0  0  0  0
  -23.6840  -29.7823   20.1513 C   0  0  0  0  0  0
  -25.4125  -36.3011   24.0316 C   0  0  1  0  0  0
  -20.5926  -28.3723   23.1227 C   0  0  2  0  0  0
  -20.6792  -26.9419   22.5410 C   0  0  0  0  0  0
  -19.5767  -26.6375   21.5219 C   0  0  0  0  0  0
  -18.1943  -26.7935   22.1622 C   0  0  0  0  0  0
  -19.1568  -28.8879   23.2831 C   0  0  0  0  0  0
  -18.9485  -30.1471   23.8858 C   0  0  0  0  0  0
  -17.6480  -30.6587   24.0558 C   0  0  0  0  0  0
  -25.9081  -34.9390   23.5039 C   0  0  0  0  0  0
  -16.5369  -29.9080   23.6344 C   0  0  0  0  0  0
  -16.7292  -28.6506   23.0351 C   0  0  0  0  0  0
  -26.4538  -31.6555   25.0701 C   0  0  0  0  0  0
  -25.3710  -31.3770   26.1388 C   0  0  0  0  0  0
  -27.0411  -30.2946   24.6322 C   0  0  0  0  0  0
  -27.6054  -32.4337   25.7496 C   0  0  0  0  0  0
  -27.5571  -37.1773   24.8466 C   0  0  0  0  0  0
  -21.4277  -29.3040   22.3592 N   0  0  0  0  0  0
  -26.4283  -37.3736   23.9413 N   0  0  0  0  0  0
  -24.7266  -31.0187   22.0900 N   0  0  0  0  0  0
  -23.4208  -28.8067   23.3013 O   0  0  0  0  0  0
  -28.2577  -26.0676   20.2327 O   0  0  0  0  0  0
  -26.5672  -34.8900   22.4622 O   0  0  0  0  0  0
  -23.5599  -32.1292   23.7025 O   0  0  0  0  0  0
  -31.4106  -18.1523   20.6359 C   0  0  0  0  0  0
  -30.9041  -20.5868   20.5533 C   0  0  0  0  0  0
  -31.8174  -19.5088   20.6687 C   0  0  0  0  0  0
  -30.0625  -17.7577   20.4852 C   0  0  0  0  0  0
  -29.5151  -20.3974   20.3972 C   0  0  0  0  0  0
  -29.1315  -18.9366   20.3722 C   0  0  0  0  0  0
  -33.2923  -19.8168   20.8450 C   0  0  0  0  0  0
  -29.0476  -23.1818   20.3519 C   0  0  0  0  0  0
  -27.9790  -24.5120   20.1400 C   0  0  0  0  0  0
  -29.7478  -16.2295   20.4927 N   0  0  0  0  0  0
  -28.6681  -21.6401   20.2838 N   0  0  0  0  0  0
  -27.4526  -18.5727   20.1934 Cl  0  0  0  0  0  0
  -31.4686  -12.8021   19.1849 H   0  0  0  0  0  0
  -30.4470  -11.6980   20.0582 H   0  0  0  0  0  0
  -29.8548  -11.7253   17.6092 H   0  0  0  0  0  0
  -29.5965  -13.4516   17.6749 H   0  0  0  0  0  0
  -27.9713  -11.2704   19.0105 H   0  0  0  0  0  0
  -27.3936  -12.4140   17.8268 H   0  0  0  0  0  0
  -27.5736  -14.2470   19.3829 H   0  0  0  0  0  0
  -28.7715  -12.3607   21.4695 H   0  0  0  0  0  0
  -28.3524  -14.0391   21.7309 H   0  0  0  0  0  0
  -25.2771   -9.5681   22.4764 H   0  0  0  0  0  0
  -24.0003   -7.4636   22.7478 H   0  0  0  0  0  0
  -21.0848   -8.8778   19.8953 H   0  0  0  0  0  0
  -22.3710  -10.9673   19.6166 H   0  0  0  0  0  0
  -21.2013   -7.6149   23.9714 H   0  0  0  0  0  0
  -21.1475   -6.0523   25.9074 H   0  0  0  0  0  0
  -22.0602   -2.7610   23.2844 H   0  0  0  0  0  0
  -22.4069  -11.9850   22.4826 H   0  0  0  0  0  0
  -21.1055  -13.1198   22.2659 H   0  0  0  0  0  0
  -24.6366  -15.8431   20.5343 H   0  0  0  0  0  0
  -26.2457  -15.6442   20.0690 H   0  0  0  0  0  0
  -26.7298  -32.5248   23.0953 H   0  0  0  0  0  0
  -25.0093  -33.9580   25.0287 H   0  0  0  0  0  0
  -22.7607  -31.2841   21.3721 H   0  0  0  0  0  0
  -23.3761  -35.9571   23.3298 H   0  0  0  0  0  0
  -24.3574  -36.8891   22.2059 H   0  0  0  0  0  0
  -23.7247  -37.6433   23.6695 H   0  0  0  0  0  0
  -26.1737  -31.4475   20.6149 H   0  0  0  0  0  0
  -26.8837  -30.7474   22.0334 H   0  0  0  0  0  0
  -28.1387  -28.7498   21.2418 H   0  0  0  0  0  0
  -25.8945  -25.8058   19.0233 H   0  0  0  0  0  0
  -23.9824  -27.2852   18.9804 H   0  0  0  0  0  0
  -23.8250  -30.5560   19.3955 H   0  0  0  0  0  0
  -22.7972  -29.2283   19.8387 H   0  0  0  0  0  0
  -25.1316  -36.1828   25.0810 H   0  0  0  0  0  0
  -21.0006  -28.3321   24.1355 H   0  0  0  0  0  0
  -20.5698  -26.2334   23.3635 H   0  0  0  0  0  0
  -21.6653  -26.7427   22.1200 H   0  0  0  0  0  0
  -19.6939  -25.6282   21.1259 H   0  0  0  0  0  0
  -19.6714  -27.3179   20.6747 H   0  0  0  0  0  0
  -17.4218  -26.6683   21.4014 H   0  0  0  0  0  0
  -18.0321  -26.0086   22.9027 H   0  0  0  0  0  0
  -19.7963  -30.7289   24.2211 H   0  0  0  0  0  0
  -17.5041  -31.6271   24.5153 H   0  0  0  0  0  0
  -15.5369  -30.2967   23.7697 H   0  0  0  0  0  0
  -15.8695  -28.0817   22.7080 H   0  0  0  0  0  0
  -24.5903  -30.7103   25.7711 H   0  0  0  0  0  0
  -24.8884  -32.2963   26.4718 H   0  0  0  0  0  0
  -25.7977  -30.9007   27.0223 H   0  0  0  0  0  0
  -26.3044  -29.6654   24.1317 H   0  0  0  0  0  0
  -27.3995  -29.7260   25.4911 H   0  0  0  0  0  0
  -27.8962  -30.4170   23.9672 H   0  0  0  0  0  0
  -27.2638  -33.3675   26.1977 H   0  0  0  0  0  0
  -28.3913  -32.6840   25.0357 H   0  0  0  0  0  0
  -28.0669  -31.8527   26.5491 H   0  0  0  0  0  0
  -28.2572  -38.0082   24.7498 H   0  0  0  0  0  0
  -28.1075  -36.2604   24.6303 H   0  0  0  0  0  0
  -27.2285  -37.1433   25.8867 H   0  0  0  0  0  0
  -20.9501  -29.8750   21.6759 H   0  0  0  0  0  0
  -26.0142  -38.2801   24.1418 H   0  0  0  0  0  0
  -32.1775  -17.4002   20.7456 H   0  0  0  0  0  0
  -31.2966  -21.5932   20.5887 H   0  0  0  0  0  0
  -33.9109  -19.0314   20.4084 H   0  0  0  0  0  0
  -33.5413  -19.8929   21.9038 H   0  0  0  0  0  0
  -33.5601  -20.7579   20.3638 H   0  0  0  0  0  0
  -29.5241  -23.3236   21.3229 H   0  0  0  0  0  0
  -29.8524  -23.3211   19.6289 H   0  0  0  0  0  0
  -27.1588  -24.3422   20.8382 H   0  0  0  0  0  0
  -27.5420  -24.3596   19.1538 H   0  0  0  0  0  0
  -28.7605  -16.0350   20.5573 H   0  0  0  0  0  0
  -27.6733  -21.4571   20.1726 H   0  0  0  0  0  0
  1 25  1  0  0  0
  1 30  2  0  0  0
  1 80  1  0  0  0
  2  3  1  0  0  0
  2 25  1  0  0  0
  2 83  1  0  0  0
  2 84  1  0  0  0
  3  4  1  0  0  0
  3 85  1  0  0  0
  3 86  1  0  0  0
  4  5  1  0  0  0
  4 87  1  0  0  0
  4 88  1  0  0  0
  5  6  1  0  0  0
  5 26  1  0  0  0
  5 89  1  0  0  0
  6 25  1  0  0  0
  6 90  1  0  0  0
  6 91  1  0  0  0
  7  8  2  0  0  0
  7 26  1  0  0  0
  7 29  1  0  0  0
  8  9  1  0  0  0
  8 22  1  0  0  0
  9 10  1  0  0  0
  9 27  2  0  0  0
 10 11  2  0  0  0
 10 15  1  0  0  0
 11 12  1  0  0  0
 11 92  1  0  0  0
 12 13  2  0  0  0
 12 93  1  0  0  0
 13 14  1  0  0  0
 13 31  1  0  0  0
 14 15  2  0  0  0
 14 94  1  0  0  0
 15 95  1  0  0  0
 16 17  2  0  0  0
 16 21  1  0  0  0
 16 31  1  0  0  0
 17 18  1  0  0  0
 17 96  1  0  0  0
 18 19  2  0  0  0
 18 97  1  0  0  0
 19 20  1  0  0  0
 19 24  1  0  0  0
 20 21  2  0  0  0
 20 98  1  0  0  0
 21 23  1  0  0  0
 22 28  1  0  0  0
 22 32  2  0  0  0
 26 27  1  0  0  0
 28 99  1  0  0  0
 28100  1  0  0  0
 29101  1  0  0  0
 29102  1  0  0  0
 33 34  1  0  0  0
 33 66  1  0  0  0
 33 70  2  0  0  0
 34 36  1  0  0  0
 34 59  1  0  0  0
 34103  1  0  0  0
 35 44  2  0  0  0
 35 45  1  0  0  0
 35 68  1  0  0  0
 36 56  1  0  0  0
 36104  1  0  0  0
 37 39  1  0  0  0
 37 47  1  0  0  0
 37 66  1  0  0  0
 37105  1  0  0  0
 38 43  2  0  0  0
 38 46  1  0  0  0
 38 47  1  0  0  0
 39 64  1  0  0  0
 39 67  2  0  0  0
 40 52  1  0  0  0
 40 53  2  0  0  0
 40 58  1  0  0  0
 41106  1  0  0  0
 41107  1  0  0  0
 41108  1  0  0  0
 41 48  1  0  0  0
 42 43  1  0  0  0
 42 66  1  0  0  0
 42109  1  0  0  0
 42110  1  0  0  0
 43 44  1  0  0  0
 44111  1  0  0  0
 45 46  2  0  0  0
 45112  1  0  0  0
 46113  1  0  0  0
 47114  1  0  0  0
 47115  1  0  0  0
 48 56  1  0  0  0
 48 65  1  0  0  0
 48116  1  0  0  0
 49 50  1  0  0  0
 49 53  1  0  0  0
 49 64  1  0  0  0
 49117  1  0  0  0
 50 51  1  0  0  0
 50118  1  0  0  0
 50119  1  0  0  0
 51 52  1  0  0  0
 51120  1  0  0  0
 51121  1  0  0  0
 52122  1  0  0  0
 52123  1  0  0  0
 53 54  1  0  0  0
 54 55  2  0  0  0
 54124  1  0  0  0
 55 57  1  0  0  0
 55125  1  0  0  0
 56 69  2  0  0  0
 57 58  2  0  0  0
 57126  1  0  0  0
 58127  1  0  0  0
 59 60  1  0  0  0
 59 61  1  0  0  0
 59 62  1  0  0  0
 60128  1  0  0  0
 60129  1  0  0  0
 60130  1  0  0  0
 61131  1  0  0  0
 61132  1  0  0  0
 61133  1  0  0  0
 62134  1  0  0  0
 62135  1  0  0  0
 62136  1  0  0  0
 63 65  1  0  0  0
 63137  1  0  0  0
 63138  1  0  0  0
 63139  1  0  0  0
 64140  1  0  0  0
 65141  1  0  0  0
 68 79  1  0  0  0
 71 73  2  0  0  0
 71 74  1  0  0  0
 71142  1  0  0  0
 72 73  1  0  0  0
 72 75  2  0  0  0
 72143  1  0  0  0
 73 77  1  0  0  0
 74 76  2  0  0  0
 74 80  1  0  0  0
 75 76  1  0  0  0
 75 81  1  0  0  0
 76 82  1  0  0  0
 77144  1  0  0  0
 77145  1  0  0  0
 77146  1  0  0  0
 78 79  1  0  0  0
 78 81  1  0  0  0
 78147  1  0  0  0
 78148  1  0  0  0
 79149  1  0  0  0
 79150  1  0  0  0
 80151  1  0  0  0
 81152  1  0  0  0
M  ISO  4   1 100  68 101  79 101  80 100
M  END
> <chiral flag>
0

> <version>
0

> <s_m_source_file>
/data/baiqing/PycharmProjects/Reinvent-master-3.2/result/LINK_invent/BTK/process_docking_weight1_custom_sum_contain_oxygen_bond_distance_aromatic_linkinvent_7_9_3/rearranged_h_0010.sdf

> <i_m_source_file_index>
43

> <r_mmod_Potential_Energy-OPLS-2005>
638.000305175781

> <r_mmod_Stretch_Energy-OPLS-2005>
318.502990722656

> <r_mmod_Bend_Energy-OPLS-2005>
275.947296142578

> <r_mmod_Torsional_Energy-OPLS-2005>
202.048965454102

> <r_mmod_Improper_Torsional_Energy-OPLS-2005>
4.85027074813843

> <r_mmod_Van_der_Waal_Energy-OPLS-2005>
128.602600097656

> <r_mmod_Electrostatic_Energy-OPLS-2005>
-327.050384521484

> <r_mmod_Solvation_Energy-OPLS-2005>
-209.3876953125

> <b_mmod_Minimization_Converged-OPLS-2005>
0

> <r_mmod_RMS_Derivative-OPLS-2005>
1.05984687805176

$$$$
43
                    3D
 Structure written by MMmdl.
152160  0  0  1  0            999 V2000
  -30.6277  -14.6294   20.4980 C   0  0  0  0  0  0
  -30.4393  -12.3863   19.4469 C   0  0  0  0  0  0
  -29.5055  -12.5053   18.2216 C   0  0  0  0  0  0
  -28.0285  -12.3459   18.6359 C   0  0  0  0  0  0
  -27.6541  -13.2160   19.8655 C   0  0  2  0  0  0
  -28.7016  -13.0646   20.9922 C   0  0  0  0  0  0
  -25.2555  -13.8160   20.5693 C   0  0  0  0  0  0
  -24.1817  -13.0421   20.9157 C   0  0  0  0  0  0
  -24.6395  -11.6897   20.8725 C   0  0  0  0  0  0
  -23.9064  -10.4284   21.0397 C   0  0  0  0  0  0
  -24.3615   -9.4204   21.9180 C   0  0  0  0  0  0
  -23.6289   -8.2240   22.0753 C   0  0  0  0  0  0
  -22.4272   -8.0276   21.3542 C   0  0  0  0  0  0
  -21.9905   -9.0249   20.4644 C   0  0  0  0  0  0
  -22.7234  -10.2127   20.3051 C   0  0  0  0  0  0
  -21.6852   -6.0733   22.5278 C   0  0  0  0  0  0
  -21.4014   -6.5638   23.8210 C   0  0  0  0  0  0
  -21.3659   -5.6792   24.9172 C   0  0  0  0  0  0
  -21.6044   -4.3054   24.7225 C   0  0  0  0  0  0
  -21.8821   -3.8146   23.4346 C   0  0  0  0  0  0
  -21.9193   -4.6961   22.3401 C   0  0  0  0  0  0
  -22.7841  -13.5216   21.1834 C   0  0  0  0  0  0
  -22.1661   -4.2147   21.0979 F   0  0  0  0  0  0
  -21.5628   -3.4539   25.7739 F   0  0  0  0  0  0
  -30.0177  -13.4048   20.4273 N   0  0  0  0  0  0
  -26.3000  -12.9352   20.3351 N   0  0  0  0  0  0
  -25.9331  -11.6503   20.5768 N   0  0  0  0  0  0
  -22.0496  -12.8212   22.0402 N   0  0  0  0  0  0
  -25.4226  -15.1887   20.4187 N   0  0  0  0  0  0
  -31.7924  -14.7913   20.1228 O   0  0  0  0  0  0
  -21.6635   -6.8875   21.4240 O   0  0  0  0  0  0
  -22.3519  -14.5526   20.6692 O   0  0  0  0  0  0
  -24.6256  -31.8613   23.2042 C   0  0  0  0  0  0
  -25.9109  -32.4785   23.8365 C   0  0  1  0  0  0
  -27.2232  -27.3290   20.1086 C   0  0  0  0  0  0
  -25.5933  -33.8586   24.2291 N   0  0  0  0  0  0
  -23.4180  -30.4863   21.5473 C   0  0  2  0  0  0
  -24.8629  -28.9457   20.1112 C   0  0  0  0  0  0
  -22.7474  -29.4628   22.4946 C   0  0  0  0  0  0
  -18.0285  -28.1374   22.8480 C   0  0  0  0  0  0
  -24.1490  -36.7293   23.2640 C   0  0  0  0  0  0
  -25.9589  -30.7951   21.3736 C   0  0  0  0  0  0
  -26.0329  -29.4238   20.7145 C   0  0  0  0  0  0
  -27.2164  -28.6275   20.7037 C   0  0  0  0  0  0
  -26.0263  -26.9047   19.4828 C   0  0  0  0  0  0
  -24.8609  -27.6905   19.4878 C   0  0  0  0  0  0
  -23.6312  -29.8251   20.1612 C   0  0  0  0  0  0
  -25.4113  -36.3087   24.0330 C   0  0  1  0  0  0
  -20.5885  -28.3682   23.1280 C   0  0  2  0  0  0
  -20.6774  -26.9406   22.5402 C   0  0  0  0  0  0
  -19.5751  -26.6379   21.5201 C   0  0  0  0  0  0
  -18.1932  -26.7917   22.1615 C   0  0  0  0  0  0
  -19.1536  -28.8844   23.2874 C   0  0  0  0  0  0
  -18.9464  -30.1446   23.8892 C   0  0  0  0  0  0
  -17.6467  -30.6582   24.0558 C   0  0  0  0  0  0
  -25.9051  -34.9457   23.5108 C   0  0  0  0  0  0
  -16.5356  -29.9082   23.6326 C   0  0  0  0  0  0
  -16.7273  -28.6496   23.0348 C   0  0  0  0  0  0
  -26.4501  -31.6587   25.0726 C   0  0  0  0  0  0
  -25.3739  -31.3713   26.1458 C   0  0  0  0  0  0
  -27.0345  -30.3016   24.6159 C   0  0  0  0  0  0
  -27.6067  -32.4318   25.7496 C   0  0  0  0  0  0
  -27.5579  -37.1803   24.8467 C   0  0  0  0  0  0
  -21.4188  -29.3043   22.3685 N   0  0  0  0  0  0
  -26.4293  -37.3780   23.9410 N   0  0  0  0  0  0
  -24.6864  -31.0636   22.0986 N   0  0  0  0  0  0
  -23.4203  -28.8165   23.3020 O   0  0  0  0  0  0
  -28.3431  -26.4819   20.1555 O   0  0  0  0  0  0
  -26.5619  -34.8922   22.4674 O   0  0  0  0  0  0
  -23.5423  -32.1409   23.7375 O   0  0  0  0  0  0
  -31.1103  -19.2766   20.4270 C   0  0  0  0  0  0
  -31.1197  -17.8533   20.5200 C   0  0  0  0  0  0
  -28.7132  -19.3054   20.6227 C   0  0  0  0  0  0
  -29.9150  -20.0452   20.4791 C   0  0  0  0  0  0
  -29.9168  -17.1190   20.6787 C   0  0  0  0  0  0
  -28.7196  -17.8819   20.7251 C   0  0  0  0  0  0
  -29.2531  -23.9849   20.3327 C   0  0  0  0  0  0
  -28.8666  -22.4388   20.2474 C   0  0  0  0  0  0
  -28.1050  -25.0290   20.0068 C   0  0  0  0  0  0
  -29.8093  -15.6712   20.8318 N   0  0  0  0  0  0
  -29.9954  -21.4759   20.4049 N   0  0  0  0  0  0
  -27.5437  -17.2241   20.8723 F   0  0  0  0  0  0
  -31.4799  -12.5120   19.1429 H   0  0  0  0  0  0
  -30.3743  -11.3902   19.8869 H   0  0  0  0  0  0
  -29.7662  -11.7539   17.4750 H   0  0  0  0  0  0
  -29.6483  -13.4750   17.7417 H   0  0  0  0  0  0
  -27.8644  -11.2928   18.8671 H   0  0  0  0  0  0
  -27.3725  -12.5775   17.7959 H   0  0  0  0  0  0
  -27.6710  -14.2517   19.5258 H   0  0  0  0  0  0
  -28.7123  -12.0412   21.3706 H   0  0  0  0  0  0
  -28.4518  -13.6935   21.8479 H   0  0  0  0  0  0
  -25.2763   -9.5681   22.4751 H   0  0  0  0  0  0
  -23.9996   -7.4636   22.7478 H   0  0  0  0  0  0
  -21.0833   -8.8769   19.8954 H   0  0  0  0  0  0
  -22.3693  -10.9665   19.6158 H   0  0  0  0  0  0
  -21.2008   -7.6149   23.9713 H   0  0  0  0  0  0
  -21.1478   -6.0523   25.9076 H   0  0  0  0  0  0
  -22.0601   -2.7609   23.2847 H   0  0  0  0  0  0
  -22.4116  -11.9870   22.4781 H   0  0  0  0  0  0
  -21.1120  -13.1242   22.2625 H   0  0  0  0  0  0
  -24.6604  -15.8384   20.5728 H   0  0  0  0  0  0
  -26.2973  -15.6603   20.2196 H   0  0  0  0  0  0
  -26.7179  -32.5458   23.1117 H   0  0  0  0  0  0
  -25.0095  -33.9729   25.0447 H   0  0  0  0  0  0
  -22.7109  -31.3064   21.4068 H   0  0  0  0  0  0
  -23.3753  -35.9627   23.3306 H   0  0  0  0  0  0
  -24.3582  -36.8908   22.2055 H   0  0  0  0  0  0
  -23.7242  -37.6495   23.6658 H   0  0  0  0  0  0
  -26.0889  -31.5599   20.6067 H   0  0  0  0  0  0
  -26.8400  -30.8430   22.0016 H   0  0  0  0  0  0
  -28.1140  -28.9900   21.1854 H   0  0  0  0  0  0
  -25.9544  -25.9489   18.9873 H   0  0  0  0  0  0
  -23.9646  -27.3180   19.0110 H   0  0  0  0  0  0
  -23.7505  -30.6036   19.4066 H   0  0  0  0  0  0
  -22.7508  -29.2556   19.8578 H   0  0  0  0  0  0
  -25.1291  -36.1944   25.0822 H   0  0  0  0  0  0
  -20.9971  -28.3255   24.1404 H   0  0  0  0  0  0
  -20.5668  -26.2296   23.3603 H   0  0  0  0  0  0
  -21.6645  -26.7435   22.1199 H   0  0  0  0  0  0
  -19.6917  -25.6290   21.1229 H   0  0  0  0  0  0
  -19.6684  -27.3194   20.6733 H   0  0  0  0  0  0
  -17.4198  -26.6658   21.4021 H   0  0  0  0  0  0
  -18.0337  -26.0057   22.9010 H   0  0  0  0  0  0
  -19.7946  -30.7253   24.2264 H   0  0  0  0  0  0
  -17.5028  -31.6262   24.5162 H   0  0  0  0  0  0
  -15.5356  -30.2986   23.7653 H   0  0  0  0  0  0
  -15.8670  -28.0816   22.7070 H   0  0  0  0  0  0
  -24.5922  -30.7050   25.7791 H   0  0  0  0  0  0
  -24.8919  -32.2874   26.4884 H   0  0  0  0  0  0
  -25.8072  -30.8897   27.0232 H   0  0  0  0  0  0
  -26.2909  -29.6764   24.1201 H   0  0  0  0  0  0
  -27.4083  -29.7271   25.4645 H   0  0  0  0  0  0
  -27.8763  -30.4318   23.9352 H   0  0  0  0  0  0
  -27.2684  -33.3624   26.2068 H   0  0  0  0  0  0
  -28.3882  -32.6867   25.0323 H   0  0  0  0  0  0
  -28.0732  -31.8443   26.5415 H   0  0  0  0  0  0
  -28.2600  -38.0099   24.7512 H   0  0  0  0  0  0
  -28.1070  -36.2628   24.6294 H   0  0  0  0  0  0
  -27.2294  -37.1454   25.8870 H   0  0  0  0  0  0
  -20.9367  -29.8783   21.6908 H   0  0  0  0  0  0
  -26.0173  -38.2855   24.1415 H   0  0  0  0  0  0
  -32.0603  -19.7811   20.3182 H   0  0  0  0  0  0
  -32.0688  -17.3390   20.4825 H   0  0  0  0  0  0
  -27.7649  -19.8187   20.6717 H   0  0  0  0  0  0
  -30.0827  -24.1818   19.6530 H   0  0  0  0  0  0
  -29.6322  -24.1934   21.3336 H   0  0  0  0  0  0
  -28.3951  -22.2470   19.2820 H   0  0  0  0  0  0
  -28.1087  -22.2219   21.0019 H   0  0  0  0  0  0
  -27.8088  -24.8426   18.9741 H   0  0  0  0  0  0
  -27.2483  -24.7622   20.6286 H   0  0  0  0  0  0
  -28.8812  -15.3714   21.0895 H   0  0  0  0  0  0
  -30.9277  -21.8702   20.2977 H   0  0  0  0  0  0
  1 25  1  0  0  0
  1 30  2  0  0  0
  1 80  1  0  0  0
  2  3  1  0  0  0
  2 25  1  0  0  0
  2 83  1  0  0  0
  2 84  1  0  0  0
  3  4  1  0  0  0
  3 85  1  0  0  0
  3 86  1  0  0  0
  4  5  1  0  0  0
  4 87  1  0  0  0
  4 88  1  0  0  0
  5  6  1  0  0  0
  5 26  1  0  0  0
  5 89  1  0  0  0
  6 25  1  0  0  0
  6 90  1  0  0  0
  6 91  1  0  0  0
  7  8  2  0  0  0
  7 26  1  0  0  0
  7 29  1  0  0  0
  8  9  1  0  0  0
  8 22  1  0  0  0
  9 10  1  0  0  0
  9 27  2  0  0  0
 10 11  2  0  0  0
 10 15  1  0  0  0
 11 12  1  0  0  0
 11 92  1  0  0  0
 12 13  2  0  0  0
 12 93  1  0  0  0
 13 14  1  0  0  0
 13 31  1  0  0  0
 14 15  2  0  0  0
 14 94  1  0  0  0
 15 95  1  0  0  0
 16 17  2  0  0  0
 16 21  1  0  0  0
 16 31  1  0  0  0
 17 18  1  0  0  0
 17 96  1  0  0  0
 18 19  2  0  0  0
 18 97  1  0  0  0
 19 20  1  0  0  0
 19 24  1  0  0  0
 20 21  2  0  0  0
 20 98  1  0  0  0
 21 23  1  0  0  0
 22 28  1  0  0  0
 22 32  2  0  0  0
 26 27  1  0  0  0
 28 99  1  0  0  0
 28100  1  0  0  0
 29101  1  0  0  0
 29102  1  0  0  0
 33 34  1  0  0  0
 33 66  1  0  0  0
 33 70  2  0  0  0
 34 36  1  0  0  0
 34 59  1  0  0  0
 34103  1  0  0  0
 35 44  2  0  0  0
 35 45  1  0  0  0
 35 68  1  0  0  0
 36 56  1  0  0  0
 36104  1  0  0  0
 37 39  1  0  0  0
 37 47  1  0  0  0
 37 66  1  0  0  0
 37105  1  0  0  0
 38 43  2  0  0  0
 38 46  1  0  0  0
 38 47  1  0  0  0
 39 64  1  0  0  0
 39 67  2  0  0  0
 40 52  1  0  0  0
 40 53  2  0  0  0
 40 58  1  0  0  0
 41106  1  0  0  0
 41107  1  0  0  0
 41108  1  0  0  0
 41 48  1  0  0  0
 42 43  1  0  0  0
 42 66  1  0  0  0
 42109  1  0  0  0
 42110  1  0  0  0
 43 44  1  0  0  0
 44111  1  0  0  0
 45 46  2  0  0  0
 45112  1  0  0  0
 46113  1  0  0  0
 47114  1  0  0  0
 47115  1  0  0  0
 48 56  1  0  0  0
 48 65  1  0  0  0
 48116  1  0  0  0
 49 50  1  0  0  0
 49 53  1  0  0  0
 49 64  1  0  0  0
 49117  1  0  0  0
 50 51  1  0  0  0
 50118  1  0  0  0
 50119  1  0  0  0
 51 52  1  0  0  0
 51120  1  0  0  0
 51121  1  0  0  0
 52122  1  0  0  0
 52123  1  0  0  0
 53 54  1  0  0  0
 54 55  2  0  0  0
 54124  1  0  0  0
 55 57  1  0  0  0
 55125  1  0  0  0
 56 69  2  0  0  0
 57 58  2  0  0  0
 57126  1  0  0  0
 58127  1  0  0  0
 59 60  1  0  0  0
 59 61  1  0  0  0
 59 62  1  0  0  0
 60128  1  0  0  0
 60129  1  0  0  0
 60130  1  0  0  0
 61131  1  0  0  0
 61132  1  0  0  0
 61133  1  0  0  0
 62134  1  0  0  0
 62135  1  0  0  0
 62136  1  0  0  0
 63 65  1  0  0  0
 63137  1  0  0  0
 63138  1  0  0  0
 63139  1  0  0  0
 64140  1  0  0  0
 65141  1  0  0  0
 68 79  1  0  0  0
 71 72  2  0  0  0
 71 74  1  0  0  0
 71142  1  0  0  0
 72 75  1  0  0  0
 72143  1  0  0  0
 73 74  2  0  0  0
 73 76  1  0  0  0
 73144  1  0  0  0
 74 81  1  0  0  0
 75 76  2  0  0  0
 75 80  1  0  0  0
 76 82  1  0  0  0
 77 78  1  0  0  0
 77 79  1  0  0  0
 77145  1  0  0  0
 77146  1  0  0  0
 78 81  1  0  0  0
 78147  1  0  0  0
 78148  1  0  0  0
 79149  1  0  0  0
 79150  1  0  0  0
 80151  1  0  0  0
 81152  1  0  0  0
M  ISO  4   1 100  68 101  79 101  80 100
M  END
> <chiral flag>
0

> <version>
0

> <s_m_source_file>
/data/baiqing/PycharmProjects/Reinvent-master-3.2/result/LINK_invent/BTK/process_docking_weight1_custom_sum_contain_oxygen_bond_distance_aromatic_linkinvent_7_9_3/rearranged_h_0010.sdf

> <i_m_source_file_index>
44

> <r_mmod_Potential_Energy-OPLS-2005>
-1.59744024276733

> <r_mmod_Stretch_Energy-OPLS-2005>
71.6558456420898

> <r_mmod_Bend_Energy-OPLS-2005>
143.812271118164

> <r_mmod_Torsional_Energy-OPLS-2005>
200.10888671875

> <r_mmod_Improper_Torsional_Energy-OPLS-2005>
4.6348934173584

> <r_mmod_Van_der_Waal_Energy-OPLS-2005>
145.609085083008

> <r_mmod_Electrostatic_Energy-OPLS-2005>
-403.753173828125

> <r_mmod_Solvation_Energy-OPLS-2005>
-208.76188659668

> <b_mmod_Minimization_Converged-OPLS-2005>
0

> <r_mmod_RMS_Derivative-OPLS-2005>
0.584842085838318

$$$$
44
                    3D
 Structure written by MMmdl.
154162  0  0  1  0            999 V2000
  -30.5931  -14.7403   20.4546 C   0  0  0  0  0  0
  -30.4399  -12.4494   19.4502 C   0  0  0  0  0  0
  -29.5002  -12.4757   18.2259 C   0  0  0  0  0  0
  -28.0347  -12.2885   18.6639 C   0  0  0  0  0  0
  -27.6383  -13.2141   19.8422 C   0  0  2  0  0  0
  -28.6918  -13.1561   20.9703 C   0  0  0  0  0  0
  -25.2522  -13.8194   20.5715 C   0  0  0  0  0  0
  -24.1802  -13.0454   20.9231 C   0  0  0  0  0  0
  -24.6371  -11.6913   20.8786 C   0  0  0  0  0  0
  -23.9058  -10.4298   21.0440 C   0  0  0  0  0  0
  -24.3618   -9.4217   21.9198 C   0  0  0  0  0  0
  -23.6286   -8.2257   22.0746 C   0  0  0  0  0  0
  -22.4262   -8.0301   21.3553 C   0  0  0  0  0  0
  -21.9913   -9.0279   20.4656 C   0  0  0  0  0  0
  -22.7236  -10.2160   20.3079 C   0  0  0  0  0  0
  -21.6856   -6.0754   22.5275 C   0  0  0  0  0  0
  -21.4008   -6.5640   23.8213 C   0  0  0  0  0  0
  -21.3651   -5.6782   24.9167 C   0  0  0  0  0  0
  -21.6048   -4.3048   24.7208 C   0  0  0  0  0  0
  -21.8818   -3.8155   23.4316 C   0  0  0  0  0  0
  -21.9196   -4.6985   22.3384 C   0  0  0  0  0  0
  -22.7846  -13.5258   21.1871 C   0  0  0  0  0  0
  -22.1682   -4.2178   21.0959 F   0  0  0  0  0  0
  -21.5623   -3.4518   25.7723 F   0  0  0  0  0  0
  -29.9826  -13.5123   20.3691 N   0  0  0  0  0  0
  -26.2915  -12.9345   20.3285 N   0  0  0  0  0  0
  -25.9289  -11.6513   20.5800 N   0  0  0  0  0  0
  -22.0472  -12.8265   22.0423 N   0  0  0  0  0  0
  -25.4200  -15.1926   20.4155 N   0  0  0  0  0  0
  -31.8037  -14.8516   20.2477 O   0  0  0  0  0  0
  -21.6625   -6.8901   21.4243 O   0  0  0  0  0  0
  -22.3560  -14.5580   20.6717 O   0  0  0  0  0  0
  -24.6298  -31.8544   23.1937 C   0  0  0  0  0  0
  -25.9139  -32.4747   23.8292 C   0  0  1  0  0  0
  -27.2361  -27.2780   20.1448 C   0  0  0  0  0  0
  -25.5943  -33.8537   24.2236 N   0  0  0  0  0  0
  -23.4250  -30.4725   21.5374 C   0  0  2  0  0  0
  -24.8776  -28.9107   20.1177 C   0  0  0  0  0  0
  -22.7502  -29.4582   22.4909 C   0  0  0  0  0  0
  -18.0290  -28.1370   22.8481 C   0  0  0  0  0  0
  -24.1486  -36.7281   23.2631 C   0  0  0  0  0  0
  -25.9674  -30.7767   21.3671 C   0  0  0  0  0  0
  -26.0449  -29.3944   20.7201 C   0  0  0  0  0  0
  -27.2285  -28.5915   20.7170 C   0  0  0  0  0  0
  -26.0463  -26.8447   19.5236 C   0  0  0  0  0  0
  -24.8820  -27.6428   19.5095 C   0  0  0  0  0  0
  -23.6454  -29.7953   20.1565 C   0  0  0  0  0  0
  -25.4112  -36.3056   24.0317 C   0  0  1  0  0  0
  -20.5887  -28.3696   23.1262 C   0  0  2  0  0  0
  -20.6779  -26.9395   22.5418 C   0  0  0  0  0  0
  -19.5756  -26.6345   21.5240 C   0  0  0  0  0  0
  -18.1929  -26.7896   22.1635 C   0  0  0  0  0  0
  -19.1536  -28.8847   23.2848 C   0  0  0  0  0  0
  -18.9464  -30.1444   23.8877 C   0  0  0  0  0  0
  -17.6468  -30.6580   24.0536 C   0  0  0  0  0  0
  -25.9060  -34.9431   23.5086 C   0  0  0  0  0  0
  -16.5356  -29.9084   23.6322 C   0  0  0  0  0  0
  -16.7273  -28.6482   23.0361 C   0  0  0  0  0  0
  -26.4513  -31.6556   25.0670 C   0  0  0  0  0  0
  -25.3750  -31.3718   26.1413 C   0  0  0  0  0  0
  -27.0351  -30.2972   24.6123 C   0  0  0  0  0  0
  -27.6060  -32.4310   25.7461 C   0  0  0  0  0  0
  -27.5566  -37.1797   24.8462 C   0  0  0  0  0  0
  -21.4202  -29.3045   22.3655 N   0  0  0  0  0  0
  -26.4277  -37.3762   23.9408 N   0  0  0  0  0  0
  -24.6927  -31.0529   22.0899 N   0  0  0  0  0  0
  -23.4202  -28.8134   23.3013 O   0  0  0  0  0  0
  -28.3604  -26.4271   20.1293 O   0  0  0  0  0  0
  -26.5632  -34.8920   22.4652 O   0  0  0  0  0  0
  -23.5455  -32.1339   23.7263 O   0  0  0  0  0  0
  -30.2269  -17.3503   22.3052 C   0  0  0  0  0  0
  -30.0943  -18.5848   22.9618 C   0  0  0  0  0  0
  -29.5151  -18.4577   20.2566 C   0  0  0  0  0  0
  -29.8970  -17.2262   20.9437 C   0  0  0  0  0  0
  -29.4048  -19.7757   20.8978 C   0  0  0  0  0  0
  -29.6563  -19.7509   22.2985 C   0  0  0  0  0  0
  -29.2442  -22.3894   20.5899 C   0  0  0  0  0  0
  -28.1416  -20.9169   19.0063 C   0  0  0  0  0  0
  -28.6267  -23.7033   19.8763 C   0  0  0  0  0  0
  -28.2866  -25.0475   20.7175 C   0  0  0  0  0  0
  -29.7611  -15.8501   20.4125 N   0  0  0  0  0  0
  -28.9558  -21.0562   20.2206 N   0  0  0  0  0  0
  -30.0936  -22.6339   21.4496 O   0  0  0  0  0  0
  -29.3986  -20.8229   23.0829 F   0  0  0  0  0  0
  -31.4752  -12.5913   19.1372 H   0  0  0  0  0  0
  -30.4036  -11.4765   19.9435 H   0  0  0  0  0  0
  -29.7752  -11.6915   17.5205 H   0  0  0  0  0  0
  -29.6076  -13.4201   17.6898 H   0  0  0  0  0  0
  -27.9244  -11.2505   18.9824 H   0  0  0  0  0  0
  -27.3584  -12.4184   17.8184 H   0  0  0  0  0  0
  -27.6284  -14.2262   19.4406 H   0  0  0  0  0  0
  -28.7373  -12.1596   21.4142 H   0  0  0  0  0  0
  -28.4346  -13.8406   21.7794 H   0  0  0  0  0  0
  -25.2772   -9.5697   22.4759 H   0  0  0  0  0  0
  -24.0010   -7.4641   22.7451 H   0  0  0  0  0  0
  -21.0845   -8.8798   19.8954 H   0  0  0  0  0  0
  -22.3695  -10.9710   19.6181 H   0  0  0  0  0  0
  -21.1994   -7.6141   23.9735 H   0  0  0  0  0  0
  -21.1476   -6.0495   25.9078 H   0  0  0  0  0  0
  -22.0606   -2.7620   23.2793 H   0  0  0  0  0  0
  -22.4060  -11.9931   22.4871 H   0  0  0  0  0  0
  -21.1110  -13.1338   22.2636 H   0  0  0  0  0  0
  -24.6492  -15.8395   20.5429 H   0  0  0  0  0  0
  -26.2596  -15.6490   20.0819 H   0  0  0  0  0  0
  -26.7205  -32.5420   23.1036 H   0  0  0  0  0  0
  -25.0090  -33.9655   25.0382 H   0  0  0  0  0  0
  -22.7206  -31.2923   21.3861 H   0  0  0  0  0  0
  -23.3731  -35.9623   23.3291 H   0  0  0  0  0  0
  -24.3569  -36.8909   22.2041 H   0  0  0  0  0  0
  -23.7265  -37.6490   23.6671 H   0  0  0  0  0  0
  -26.0953  -31.5301   20.5883 H   0  0  0  0  0  0
  -26.8483  -30.8360   21.9955 H   0  0  0  0  0  0
  -28.1272  -28.9636   21.1865 H   0  0  0  0  0  0
  -26.0177  -25.8726   19.0525 H   0  0  0  0  0  0
  -23.9888  -27.2651   19.0347 H   0  0  0  0  0  0
  -23.7714  -30.5644   19.3946 H   0  0  0  0  0  0
  -22.7667  -29.2243   19.8554 H   0  0  0  0  0  0
  -25.1301  -36.1883   25.0805 H   0  0  0  0  0  0
  -20.9958  -28.3290   24.1389 H   0  0  0  0  0  0
  -20.5702  -26.2284   23.3622 H   0  0  0  0  0  0
  -21.6634  -26.7422   22.1198 H   0  0  0  0  0  0
  -19.6914  -25.6240   21.1301 H   0  0  0  0  0  0
  -19.6688  -27.3118   20.6750 H   0  0  0  0  0  0
  -17.4191  -26.6593   21.4060 H   0  0  0  0  0  0
  -18.0345  -26.0071   22.9066 H   0  0  0  0  0  0
  -19.7946  -30.7254   24.2240 H   0  0  0  0  0  0
  -17.5032  -31.6275   24.5114 H   0  0  0  0  0  0
  -15.5353  -30.2993   23.7615 H   0  0  0  0  0  0
  -15.8676  -28.0782   22.7109 H   0  0  0  0  0  0
  -24.5924  -30.7058   25.7760 H   0  0  0  0  0  0
  -24.8949  -32.2898   26.4821 H   0  0  0  0  0  0
  -25.8094  -30.8921   27.0192 H   0  0  0  0  0  0
  -26.2907  -29.6722   24.1175 H   0  0  0  0  0  0
  -27.4069  -29.7242   25.4624 H   0  0  0  0  0  0
  -27.8772  -30.4234   23.9309 H   0  0  0  0  0  0
  -27.2634  -33.3600   26.2028 H   0  0  0  0  0  0
  -28.3881  -32.6884   25.0305 H   0  0  0  0  0  0
  -28.0711  -31.8440   26.5390 H   0  0  0  0  0  0
  -28.2601  -38.0077   24.7500 H   0  0  0  0  0  0
  -28.1050  -36.2620   24.6308 H   0  0  0  0  0  0
  -27.2287  -37.1466   25.8862 H   0  0  0  0  0  0
  -20.9380  -29.8780   21.6879 H   0  0  0  0  0  0
  -26.0149  -38.2821   24.1433 H   0  0  0  0  0  0
  -30.4971  -16.4792   22.8871 H   0  0  0  0  0  0
  -30.2721  -18.6325   24.0262 H   0  0  0  0  0  0
  -29.2809  -18.3621   19.2084 H   0  0  0  0  0  0
  -27.1454  -21.3317   19.1696 H   0  0  0  0  0  0
  -27.9791  -19.8911   18.6913 H   0  0  0  0  0  0
  -28.6042  -21.4396   18.1668 H   0  0  0  0  0  0
  -27.7410  -23.4547   19.2969 H   0  0  0  0  0  0
  -29.3765  -23.9867   19.1375 H   0  0  0  0  0  0
  -28.9656  -25.0772   21.5682 H   0  0  0  0  0  0
  -27.3054  -24.9162   21.1711 H   0  0  0  0  0  0
  -28.8086  -15.5966   20.1952 H   0  0  0  0  0  0
  1 25  1  0  0  0
  1 30  2  0  0  0
  1 81  1  0  0  0
  2  3  1  0  0  0
  2 25  1  0  0  0
  2 85  1  0  0  0
  2 86  1  0  0  0
  3  4  1  0  0  0
  3 87  1  0  0  0
  3 88  1  0  0  0
  4  5  1  0  0  0
  4 89  1  0  0  0
  4 90  1  0  0  0
  5  6  1  0  0  0
  5 26  1  0  0  0
  5 91  1  0  0  0
  6 25  1  0  0  0
  6 92  1  0  0  0
  6 93  1  0  0  0
  7  8  2  0  0  0
  7 26  1  0  0  0
  7 29  1  0  0  0
  8  9  1  0  0  0
  8 22  1  0  0  0
  9 10  1  0  0  0
  9 27  2  0  0  0
 10 11  2  0  0  0
 10 15  1  0  0  0
 11 12  1  0  0  0
 11 94  1  0  0  0
 12 13  2  0  0  0
 12 95  1  0  0  0
 13 14  1  0  0  0
 13 31  1  0  0  0
 14 15  2  0  0  0
 14 96  1  0  0  0
 15 97  1  0  0  0
 16 17  2  0  0  0
 16 21  1  0  0  0
 16 31  1  0  0  0
 17 18  1  0  0  0
 17 98  1  0  0  0
 18 19  2  0  0  0
 18 99  1  0  0  0
 19 20  1  0  0  0
 19 24  1  0  0  0
 20 21  2  0  0  0
 20100  1  0  0  0
 21 23  1  0  0  0
 22 28  1  0  0  0
 22 32  2  0  0  0
 26 27  1  0  0  0
 28101  1  0  0  0
 28102  1  0  0  0
 29103  1  0  0  0
 29104  1  0  0  0
 33 34  1  0  0  0
 33 66  1  0  0  0
 33 70  2  0  0  0
 34 36  1  0  0  0
 34 59  1  0  0  0
 34105  1  0  0  0
 35 44  2  0  0  0
 35 45  1  0  0  0
 35 68  1  0  0  0
 36 56  1  0  0  0
 36106  1  0  0  0
 37 39  1  0  0  0
 37 47  1  0  0  0
 37 66  1  0  0  0
 37107  1  0  0  0
 38 43  2  0  0  0
 38 46  1  0  0  0
 38 47  1  0  0  0
 39 64  1  0  0  0
 39 67  2  0  0  0
 40 52  1  0  0  0
 40 53  2  0  0  0
 40 58  1  0  0  0
 41108  1  0  0  0
 41109  1  0  0  0
 41110  1  0  0  0
 41 48  1  0  0  0
 42 43  1  0  0  0
 42 66  1  0  0  0
 42111  1  0  0  0
 42112  1  0  0  0
 43 44  1  0  0  0
 44113  1  0  0  0
 45 46  2  0  0  0
 45114  1  0  0  0
 46115  1  0  0  0
 47116  1  0  0  0
 47117  1  0  0  0
 48 56  1  0  0  0
 48 65  1  0  0  0
 48118  1  0  0  0
 49 50  1  0  0  0
 49 53  1  0  0  0
 49 64  1  0  0  0
 49119  1  0  0  0
 50 51  1  0  0  0
 50120  1  0  0  0
 50121  1  0  0  0
 51 52  1  0  0  0
 51122  1  0  0  0
 51123  1  0  0  0
 52124  1  0  0  0
 52125  1  0  0  0
 53 54  1  0  0  0
 54 55  2  0  0  0
 54126  1  0  0  0
 55 57  1  0  0  0
 55127  1  0  0  0
 56 69  2  0  0  0
 57 58  2  0  0  0
 57128  1  0  0  0
 58129  1  0  0  0
 59 60  1  0  0  0
 59 61  1  0  0  0
 59 62  1  0  0  0
 60130  1  0  0  0
 60131  1  0  0  0
 60132  1  0  0  0
 61133  1  0  0  0
 61134  1  0  0  0
 61135  1  0  0  0
 62136  1  0  0  0
 62137  1  0  0  0
 62138  1  0  0  0
 63 65  1  0  0  0
 63139  1  0  0  0
 63140  1  0  0  0
 63141  1  0  0  0
 64142  1  0  0  0
 65143  1  0  0  0
 68 80  1  0  0  0
 71 72  2  0  0  0
 71 74  1  0  0  0
 71144  1  0  0  0
 72 76  1  0  0  0
 72145  1  0  0  0
 73 74  2  0  0  0
 73 75  1  0  0  0
 73146  1  0  0  0
 74 81  1  0  0  0
 75 76  2  0  0  0
 75 82  1  0  0  0
 76 84  1  0  0  0
 77 79  1  0  0  0
 77 82  1  0  0  0
 77 83  2  0  0  0
 78 82  1  0  0  0
 78147  1  0  0  0
 78148  1  0  0  0
 78149  1  0  0  0
 79 80  1  0  0  0
 79150  1  0  0  0
 79151  1  0  0  0
 80152  1  0  0  0
 80153  1  0  0  0
 81154  1  0  0  0
M  ISO  4   1 100  68 101  80 101  81 100
M  END
> <chiral flag>
0

> <version>
0

> <s_m_source_file>
/data/baiqing/PycharmProjects/Reinvent-master-3.2/result/LINK_invent/BTK/process_docking_weight1_custom_sum_contain_oxygen_bond_distance_aromatic_linkinvent_7_9_3/rearranged_h_0010.sdf

> <i_m_source_file_index>
45

> <r_mmod_Potential_Energy-OPLS-2005>
246.051300048828

> <r_mmod_Stretch_Energy-OPLS-2005>
138.354598999023

> <r_mmod_Bend_Energy-OPLS-2005>
171.449325561523

> <r_mmod_Torsional_Energy-OPLS-2005>
303.566955566406

> <r_mmod_Improper_Torsional_Energy-OPLS-2005>
12.6818256378174

> <r_mmod_Van_der_Waal_Energy-OPLS-2005>
150.650527954102

> <r_mmod_Electrostatic_Energy-OPLS-2005>
-380.245788574219

> <r_mmod_Solvation_Energy-OPLS-2005>
-231.937042236328

> <b_mmod_Minimization_Converged-OPLS-2005>
0

> <r_mmod_RMS_Derivative-OPLS-2005>
3.68725538253784

$$$$
45
                    3D
 Structure written by MMmdl.
152160  0  0  1  0            999 V2000
  -30.5388  -14.8995   20.4296 C   0  0  0  0  0  0
  -30.4536  -12.5553   19.4850 C   0  0  0  0  0  0
  -29.5333  -12.5383   18.2450 C   0  0  0  0  0  0
  -28.0547  -12.3482   18.6469 C   0  0  0  0  0  0
  -27.6357  -13.2543   19.8381 C   0  0  2  0  0  0
  -28.6827  -13.2280   20.9713 C   0  0  0  0  0  0
  -25.2447  -13.8199   20.5707 C   0  0  0  0  0  0
  -24.1772  -13.0423   20.9251 C   0  0  0  0  0  0
  -24.6409  -11.6925   20.8758 C   0  0  0  0  0  0
  -23.9119  -10.4291   21.0423 C   0  0  0  0  0  0
  -24.3660   -9.4175   21.9187 C   0  0  0  0  0  0
  -23.6294   -8.2236   22.0761 C   0  0  0  0  0  0
  -22.4244   -8.0297   21.3594 C   0  0  0  0  0  0
  -21.9939   -9.0289   20.4672 C   0  0  0  0  0  0
  -22.7303  -10.2143   20.3066 C   0  0  0  0  0  0
  -21.6838   -6.0754   22.5286 C   0  0  0  0  0  0
  -21.4038   -6.5645   23.8228 C   0  0  0  0  0  0
  -21.3670   -5.6770   24.9170 C   0  0  0  0  0  0
  -21.6025   -4.3040   24.7214 C   0  0  0  0  0  0
  -21.8799   -3.8159   23.4333 C   0  0  0  0  0  0
  -21.9181   -4.6994   22.3398 C   0  0  0  0  0  0
  -22.7773  -13.5184   21.1840 C   0  0  0  0  0  0
  -22.1629   -4.2193   21.0983 F   0  0  0  0  0  0
  -21.5626   -3.4496   25.7730 F   0  0  0  0  0  0
  -29.9724  -13.6325   20.3874 N   0  0  0  0  0  0
  -26.2904  -12.9466   20.3204 N   0  0  0  0  0  0
  -25.9326  -11.6583   20.5636 N   0  0  0  0  0  0
  -22.0392  -12.8239   22.0403 N   0  0  0  0  0  0
  -25.3954  -15.1950   20.4154 N   0  0  0  0  0  0
  -31.7440  -15.0112   20.1652 O   0  0  0  0  0  0
  -21.6606   -6.8904   21.4247 O   0  0  0  0  0  0
  -22.3469  -14.5452   20.6610 O   0  0  0  0  0  0
  -24.6412  -31.8417   23.1817 C   0  0  0  0  0  0
  -25.9187  -32.4665   23.8239 C   0  0  1  0  0  0
  -27.2451  -27.1442   20.1852 C   0  0  0  0  0  0
  -25.5909  -33.8476   24.2132 N   0  0  0  0  0  0
  -23.4469  -30.4541   21.5290 C   0  0  2  0  0  0
  -24.9062  -28.8711   20.1167 C   0  0  0  0  0  0
  -22.7563  -29.4508   22.4840 C   0  0  0  0  0  0
  -18.0314  -28.1354   22.8467 C   0  0  0  0  0  0
  -24.1487  -36.7270   23.2644 C   0  0  0  0  0  0
  -26.0003  -30.7230   21.3766 C   0  0  0  0  0  0
  -26.0774  -29.3290   20.7336 C   0  0  0  0  0  0
  -27.2465  -28.4832   20.7439 C   0  0  0  0  0  0
  -26.0450  -26.7750   19.5398 C   0  0  0  0  0  0
  -24.9013  -27.6063   19.5033 C   0  0  0  0  0  0
  -23.6778  -29.7691   20.1533 C   0  0  0  0  0  0
  -25.4099  -36.3002   24.0313 C   0  0  1  0  0  0
  -20.5926  -28.3695   23.1219 C   0  0  2  0  0  0
  -20.6784  -26.9381   22.5410 C   0  0  0  0  0  0
  -19.5764  -26.6345   21.5195 C   0  0  0  0  0  0
  -18.1944  -26.7889   22.1601 C   0  0  0  0  0  0
  -19.1571  -28.8837   23.2834 C   0  0  0  0  0  0
  -18.9486  -30.1444   23.8852 C   0  0  0  0  0  0
  -17.6476  -30.6558   24.0537 C   0  0  0  0  0  0
  -25.9049  -34.9389   23.5026 C   0  0  0  0  0  0
  -16.5368  -29.9050   23.6325 C   0  0  0  0  0  0
  -16.7294  -28.6466   23.0346 C   0  0  0  0  0  0
  -26.4507  -31.6536   25.0692 C   0  0  0  0  0  0
  -25.3698  -31.3775   26.1400 C   0  0  0  0  0  0
  -27.0357  -30.2909   24.6276 C   0  0  0  0  0  0
  -27.5985  -32.4322   25.7521 C   0  0  0  0  0  0
  -27.5568  -37.1764   24.8440 C   0  0  0  0  0  0
  -21.4255  -29.3027   22.3604 N   0  0  0  0  0  0
  -26.4247  -37.3723   23.9419 N   0  0  0  0  0  0
  -24.7163  -31.0284   22.0843 N   0  0  0  0  0  0
  -23.4193  -28.8079   23.3011 O   0  0  0  0  0  0
  -28.3428  -26.2101   20.1830 O   0  0  0  0  0  0
  -26.5691  -34.8899   22.4630 O   0  0  0  0  0  0
  -23.5533  -32.1318   23.7027 O   0  0  0  0  0  0
  -30.8406  -18.4178   20.6683 C   0  0  0  0  0  0
  -28.5082  -18.2934   20.3621 C   0  0  0  0  0  0
  -30.7218  -19.8706   20.7365 C   0  0  0  0  0  0
  -28.3978  -19.7402   20.4181 C   0  0  0  0  0  0
  -29.7205  -17.5354   20.5085 C   0  0  0  0  0  0
  -29.4927  -20.6324   20.6380 C   0  0  0  0  0  0
  -30.2109  -22.4141   22.0940 C   0  0  0  0  0  0
  -28.9653  -23.3383   20.0886 C   0  0  0  0  0  0
  -28.2434  -24.7478   20.7072 C   0  0  0  0  0  0
  -29.6737  -16.0107   20.5343 N   0  0  0  0  0  0
  -29.3435  -22.0898   20.9558 N   0  0  0  0  0  0
  -31.4890  -12.7204   19.1809 H   0  0  0  0  0  0
  -30.4430  -11.5926   19.9958 H   0  0  0  0  0  0
  -29.8508  -11.7568   17.5519 H   0  0  0  0  0  0
  -29.6424  -13.4797   17.7044 H   0  0  0  0  0  0
  -27.9127  -11.2990   18.9055 H   0  0  0  0  0  0
  -27.4111  -12.5385   17.7893 H   0  0  0  0  0  0
  -27.6085  -14.2692   19.4400 H   0  0  0  0  0  0
  -28.7411  -12.2340   21.4174 H   0  0  0  0  0  0
  -28.4020  -13.9097   21.7775 H   0  0  0  0  0  0
  -25.2823   -9.5603   22.4746 H   0  0  0  0  0  0
  -24.0010   -7.4592   22.7465 H   0  0  0  0  0  0
  -21.0875   -8.8833   19.8975 H   0  0  0  0  0  0
  -22.3804  -10.9685   19.6167 H   0  0  0  0  0  0
  -21.2042   -7.6152   23.9765 H   0  0  0  0  0  0
  -21.1511   -6.0488   25.9082 H   0  0  0  0  0  0
  -22.0577   -2.7629   23.2785 H   0  0  0  0  0  0
  -22.3961  -12.0033   22.5039 H   0  0  0  0  0  0
  -21.0992  -13.1346   22.2465 H   0  0  0  0  0  0
  -24.6027  -15.8167   20.5403 H   0  0  0  0  0  0
  -26.2053  -15.6648   20.0380 H   0  0  0  0  0  0
  -26.7261  -32.5313   23.0990 H   0  0  0  0  0  0
  -24.9969  -33.9578   25.0223 H   0  0  0  0  0  0
  -22.7481  -31.2762   21.3652 H   0  0  0  0  0  0
  -23.3716  -35.9629   23.3246 H   0  0  0  0  0  0
  -24.3610  -36.8975   22.2077 H   0  0  0  0  0  0
  -23.7284  -37.6454   23.6747 H   0  0  0  0  0  0
  -26.1507  -31.4705   20.5958 H   0  0  0  0  0  0
  -26.8725  -30.7872   22.0149 H   0  0  0  0  0  0
  -28.1447  -28.8375   21.2282 H   0  0  0  0  0  0
  -25.9911  -25.8079   19.0611 H   0  0  0  0  0  0
  -24.0088  -27.2480   19.0103 H   0  0  0  0  0  0
  -23.8152  -30.5381   19.3924 H   0  0  0  0  0  0
  -22.7927  -29.2069   19.8462 H   0  0  0  0  0  0
  -25.1277  -36.1796   25.0801 H   0  0  0  0  0  0
  -21.0028  -28.3301   24.1327 H   0  0  0  0  0  0
  -20.5614  -26.2293   23.3633 H   0  0  0  0  0  0
  -21.6659  -26.7338   22.1243 H   0  0  0  0  0  0
  -19.6919  -25.6257   21.1221 H   0  0  0  0  0  0
  -19.6681  -27.3150   20.6722 H   0  0  0  0  0  0
  -17.4193  -26.6645   21.4019 H   0  0  0  0  0  0
  -18.0327  -26.0052   22.9015 H   0  0  0  0  0  0
  -19.7979  -30.7273   24.2168 H   0  0  0  0  0  0
  -17.5040  -31.6225   24.5172 H   0  0  0  0  0  0
  -15.5369  -30.2915   23.7672 H   0  0  0  0  0  0
  -15.8711  -28.0768   22.7044 H   0  0  0  0  0  0
  -24.5765  -30.7247   25.7761 H   0  0  0  0  0  0
  -24.9017  -32.3004   26.4839 H   0  0  0  0  0  0
  -25.7968  -30.8917   27.0186 H   0  0  0  0  0  0
  -26.2988  -29.6636   24.1243 H   0  0  0  0  0  0
  -27.3925  -29.7196   25.4866 H   0  0  0  0  0  0
  -27.8909  -30.4115   23.9615 H   0  0  0  0  0  0
  -27.2471  -33.3562   26.2133 H   0  0  0  0  0  0
  -28.3800  -32.7007   25.0404 H   0  0  0  0  0  0
  -28.0667  -31.8462   26.5448 H   0  0  0  0  0  0
  -28.2493  -38.0143   24.7505 H   0  0  0  0  0  0
  -28.1134  -36.2652   24.6174 H   0  0  0  0  0  0
  -27.2316  -37.1320   25.8851 H   0  0  0  0  0  0
  -20.9443  -29.8720   21.6790 H   0  0  0  0  0  0
  -26.0083  -38.2766   24.1448 H   0  0  0  0  0  0
  -31.8229  -17.9811   20.7817 H   0  0  0  0  0  0
  -27.5857  -17.7435   20.2380 H   0  0  0  0  0  0
  -31.6470  -20.3962   20.9157 H   0  0  0  0  0  0
  -27.4061  -20.1656   20.3685 H   0  0  0  0  0  0
  -31.2651  -22.4140   21.8096 H   0  0  0  0  0  0
  -30.0829  -21.6853   22.8974 H   0  0  0  0  0  0
  -29.9933  -23.3883   22.5272 H   0  0  0  0  0  0
  -29.9127  -23.6508   19.6485 H   0  0  0  0  0  0
  -28.3703  -22.9914   19.2413 H   0  0  0  0  0  0
  -28.6258  -24.8610   21.7208 H   0  0  0  0  0  0
  -27.1895  -24.5140   20.8642 H   0  0  0  0  0  0
  -28.7249  -15.6725   20.5901 H   0  0  0  0  0  0
  1 25  1  0  0  0
  1 30  2  0  0  0
  1 80  1  0  0  0
  2  3  1  0  0  0
  2 25  1  0  0  0
  2 82  1  0  0  0
  2 83  1  0  0  0
  3  4  1  0  0  0
  3 84  1  0  0  0
  3 85  1  0  0  0
  4  5  1  0  0  0
  4 86  1  0  0  0
  4 87  1  0  0  0
  5  6  1  0  0  0
  5 26  1  0  0  0
  5 88  1  0  0  0
  6 25  1  0  0  0
  6 89  1  0  0  0
  6 90  1  0  0  0
  7  8  2  0  0  0
  7 26  1  0  0  0
  7 29  1  0  0  0
  8  9  1  0  0  0
  8 22  1  0  0  0
  9 10  1  0  0  0
  9 27  2  0  0  0
 10 11  2  0  0  0
 10 15  1  0  0  0
 11 12  1  0  0  0
 11 91  1  0  0  0
 12 13  2  0  0  0
 12 92  1  0  0  0
 13 14  1  0  0  0
 13 31  1  0  0  0
 14 15  2  0  0  0
 14 93  1  0  0  0
 15 94  1  0  0  0
 16 17  2  0  0  0
 16 21  1  0  0  0
 16 31  1  0  0  0
 17 18  1  0  0  0
 17 95  1  0  0  0
 18 19  2  0  0  0
 18 96  1  0  0  0
 19 20  1  0  0  0
 19 24  1  0  0  0
 20 21  2  0  0  0
 20 97  1  0  0  0
 21 23  1  0  0  0
 22 28  1  0  0  0
 22 32  2  0  0  0
 26 27  1  0  0  0
 28 98  1  0  0  0
 28 99  1  0  0  0
 29100  1  0  0  0
 29101  1  0  0  0
 33 34  1  0  0  0
 33 66  1  0  0  0
 33 70  2  0  0  0
 34 36  1  0  0  0
 34 59  1  0  0  0
 34102  1  0  0  0
 35 44  2  0  0  0
 35 45  1  0  0  0
 35 68  1  0  0  0
 36 56  1  0  0  0
 36103  1  0  0  0
 37 39  1  0  0  0
 37 47  1  0  0  0
 37 66  1  0  0  0
 37104  1  0  0  0
 38 43  2  0  0  0
 38 46  1  0  0  0
 38 47  1  0  0  0
 39 64  1  0  0  0
 39 67  2  0  0  0
 40 52  1  0  0  0
 40 53  2  0  0  0
 40 58  1  0  0  0
 41105  1  0  0  0
 41106  1  0  0  0
 41107  1  0  0  0
 41 48  1  0  0  0
 42 43  1  0  0  0
 42 66  1  0  0  0
 42108  1  0  0  0
 42109  1  0  0  0
 43 44  1  0  0  0
 44110  1  0  0  0
 45 46  2  0  0  0
 45111  1  0  0  0
 46112  1  0  0  0
 47113  1  0  0  0
 47114  1  0  0  0
 48 56  1  0  0  0
 48 65  1  0  0  0
 48115  1  0  0  0
 49 50  1  0  0  0
 49 53  1  0  0  0
 49 64  1  0  0  0
 49116  1  0  0  0
 50 51  1  0  0  0
 50117  1  0  0  0
 50118  1  0  0  0
 51 52  1  0  0  0
 51119  1  0  0  0
 51120  1  0  0  0
 52121  1  0  0  0
 52122  1  0  0  0
 53 54  1  0  0  0
 54 55  2  0  0  0
 54123  1  0  0  0
 55 57  1  0  0  0
 55124  1  0  0  0
 56 69  2  0  0  0
 57 58  2  0  0  0
 57125  1  0  0  0
 58126  1  0  0  0
 59 60  1  0  0  0
 59 61  1  0  0  0
 59 62  1  0  0  0
 60127  1  0  0  0
 60128  1  0  0  0
 60129  1  0  0  0
 61130  1  0  0  0
 61131  1  0  0  0
 61132  1  0  0  0
 62133  1  0  0  0
 62134  1  0  0  0
 62135  1  0  0  0
 63 65  1  0  0  0
 63136  1  0  0  0
 63137  1  0  0  0
 63138  1  0  0  0
 64139  1  0  0  0
 65140  1  0  0  0
 68 79  1  0  0  0
 71 73  2  0  0  0
 71 75  1  0  0  0
 71141  1  0  0  0
 72 74  1  0  0  0
 72 75  2  0  0  0
 72142  1  0  0  0
 73 76  1  0  0  0
 73143  1  0  0  0
 74 76  2  0  0  0
 74144  1  0  0  0
 75 80  1  0  0  0
 76 81  1  0  0  0
 77 81  1  0  0  0
 77145  1  0  0  0
 77146  1  0  0  0
 77147  1  0  0  0
 78 79  1  0  0  0
 78 81  1  0  0  0
 78148  1  0  0  0
 78149  1  0  0  0
 79150  1  0  0  0
 79151  1  0  0  0
 80152  1  0  0  0
M  ISO  4   1 100  68 101  79 101  80 100
M  END
> <chiral flag>
0

> <version>
0

> <s_m_source_file>
/data/baiqing/PycharmProjects/Reinvent-master-3.2/result/LINK_invent/BTK/process_docking_weight1_custom_sum_contain_oxygen_bond_distance_aromatic_linkinvent_7_9_3/rearranged_h_0010.sdf

> <i_m_source_file_index>
46

> <r_mmod_Potential_Energy-OPLS-2005>
459.378814697266

> <r_mmod_Stretch_Energy-OPLS-2005>
224.822845458984

> <r_mmod_Bend_Energy-OPLS-2005>
272.590911865234

> <r_mmod_Torsional_Energy-OPLS-2005>
252.424453735352

> <r_mmod_Improper_Torsional_Energy-OPLS-2005>
9.02254772186279

> <r_mmod_Van_der_Waal_Energy-OPLS-2005>
130.40478515625

> <r_mmod_Electrostatic_Energy-OPLS-2005>
-368.973266601562

> <r_mmod_Solvation_Energy-OPLS-2005>
-227.432510375977

> <b_mmod_Minimization_Converged-OPLS-2005>
0

> <r_mmod_RMS_Derivative-OPLS-2005>
5.62550830841064

$$$$
46
                    3D
 Structure written by MMmdl.
166174  0  0  1  0            999 V2000
  -30.7626  -14.4036   20.5441 C   0  0  0  0  0  0
  -30.4218  -12.2714   19.3915 C   0  0  0  0  0  0
  -29.4915  -12.4813   18.1817 C   0  0  0  0  0  0
  -28.0098  -12.3728   18.5934 C   0  0  0  0  0  0
  -27.6683  -13.1991   19.8639 C   0  0  2  0  0  0
  -28.7170  -12.9769   20.9777 C   0  0  0  0  0  0
  -25.2658  -13.8196   20.5598 C   0  0  0  0  0  0
  -24.1907  -13.0472   20.9160 C   0  0  0  0  0  0
  -24.6435  -11.6909   20.8685 C   0  0  0  0  0  0
  -23.9075  -10.4305   21.0352 C   0  0  0  0  0  0
  -24.3649   -9.4223   21.9140 C   0  0  0  0  0  0
  -23.6340   -8.2234   22.0718 C   0  0  0  0  0  0
  -22.4314   -8.0263   21.3493 C   0  0  0  0  0  0
  -21.9912   -9.0238   20.4595 C   0  0  0  0  0  0
  -22.7234  -10.2133   20.3010 C   0  0  0  0  0  0
  -21.6848   -6.0712   22.5265 C   0  0  0  0  0  0
  -21.3996   -6.5620   23.8197 C   0  0  0  0  0  0
  -21.3688   -5.6771   24.9165 C   0  0  0  0  0  0
  -21.6062   -4.3036   24.7212 C   0  0  0  0  0  0
  -21.8837   -3.8127   23.4339 C   0  0  0  0  0  0
  -21.9207   -4.6939   22.3392 C   0  0  0  0  0  0
  -22.7937  -13.5234   21.1837 C   0  0  0  0  0  0
  -22.1656   -4.2130   21.0955 F   0  0  0  0  0  0
  -21.5670   -3.4528   25.7723 F   0  0  0  0  0  0
  -30.0528  -13.2559   20.4192 N   0  0  0  0  0  0
  -26.3067  -12.9313   20.3286 N   0  0  0  0  0  0
  -25.9366  -11.6477   20.5730 N   0  0  0  0  0  0
  -22.0552  -12.8228   22.0384 N   0  0  0  0  0  0
  -25.4487  -15.1911   20.3989 N   0  0  0  0  0  0
  -31.9074  -14.5412   20.0962 O   0  0  0  0  0  0
  -21.6643   -6.8870   21.4222 O   0  0  0  0  0  0
  -22.3581  -14.5508   20.6648 O   0  0  0  0  0  0
  -24.6164  -31.8716   23.2189 C   0  0  0  0  0  0
  -25.9050  -32.4881   23.8452 C   0  0  1  0  0  0
  -27.2154  -27.4459   20.0722 C   0  0  0  0  0  0
  -25.5893  -33.8671   24.2359 N   0  0  0  0  0  0
  -23.3985  -30.5017   21.5622 C   0  0  2  0  0  0
  -24.8324  -28.9646   20.1172 C   0  0  0  0  0  0
  -22.7392  -29.4703   22.5061 C   0  0  0  0  0  0
  -18.0249  -28.1412   22.8539 C   0  0  0  0  0  0
  -24.1452  -36.7328   23.2644 C   0  0  0  0  0  0
  -25.9266  -30.8378   21.3659 C   0  0  0  0  0  0
  -25.9937  -29.4706   20.7152 C   0  0  0  0  0  0
  -27.1833  -28.7138   20.6960 C   0  0  0  0  0  0
  -26.0276  -26.9426   19.4882 C   0  0  0  0  0  0
  -24.8419  -27.6979   19.5091 C   0  0  0  0  0  0
  -23.5982  -29.8374   20.1753 C   0  0  0  0  0  0
  -25.4093  -36.3154   24.0345 C   0  0  1  0  0  0
  -20.5856  -28.3677   23.1359 C   0  0  2  0  0  0
  -20.6771  -26.9426   22.5458 C   0  0  0  0  0  0
  -19.5721  -26.6408   21.5285 C   0  0  0  0  0  0
  -18.1888  -26.7975   22.1674 C   0  0  0  0  0  0
  -19.1504  -28.8855   23.2941 C   0  0  0  0  0  0
  -18.9449  -30.1483   23.8924 C   0  0  0  0  0  0
  -17.6444  -30.6614   24.0587 C   0  0  0  0  0  0
  -25.9011  -34.9512   23.5148 C   0  0  0  0  0  0
  -16.5327  -29.9129   23.6342 C   0  0  0  0  0  0
  -16.7227  -28.6545   23.0354 C   0  0  0  0  0  0
  -26.4469  -31.6673   25.0769 C   0  0  0  0  0  0
  -25.3749  -31.3784   26.1523 C   0  0  0  0  0  0
  -27.0314  -30.3129   24.6158 C   0  0  0  0  0  0
  -27.6061  -32.4403   25.7491 C   0  0  0  0  0  0
  -27.5583  -37.1801   24.8448 C   0  0  0  0  0  0
  -21.4113  -29.3054   22.3766 N   0  0  0  0  0  0
  -26.4280  -37.3841   23.9419 N   0  0  0  0  0  0
  -24.6666  -31.0836   22.1081 N   0  0  0  0  0  0
  -23.4181  -28.8186   23.3042 O   0  0  0  0  0  0
  -28.4087  -26.7587   20.0603 O   0  0  0  0  0  0
  -26.5574  -34.8928   22.4708 O   0  0  0  0  0  0
  -23.5342  -32.1407   23.7614 O   0  0  0  0  0  0
  -31.7024  -18.8265   20.6416 C   0  0  0  0  0  0
  -30.1722  -18.4440   18.7864 C   0  0  0  0  0  0
  -31.3421  -17.5809   21.1994 C   0  0  0  0  0  0
  -29.8056  -17.2054   19.3426 C   0  0  0  0  0  0
  -31.1352  -19.2669   19.4218 C   0  0  0  0  0  0
  -30.4001  -16.7630   20.5420 C   0  0  0  0  0  0
  -31.4114  -21.0081   17.6531 C   0  0  0  0  0  0
  -29.3561  -23.0332   16.9917 C   0  0  0  0  0  0
  -31.0396  -24.7571   17.0034 C   0  0  0  0  0  0
  -31.7347  -22.4911   17.3973 C   0  0  0  0  0  0
  -29.9408  -25.0347   19.6593 C   0  0  0  0  0  0
  -30.3960  -23.6455   19.1245 C   0  0  0  0  0  0
  -28.4843  -25.4736   19.4432 C   0  0  0  0  0  0
  -31.5324  -20.5381   18.9130 N   0  0  0  0  0  0
  -30.1008  -15.4649   21.0228 N   0  0  0  0  0  0
  -30.6204  -23.4777   17.6408 N   0  3  0  0  0  0
  -31.0972  -20.3067   16.6908 O   0  0  0  0  0  0
  -31.4593  -12.3693   19.0644 H   0  0  0  0  0  0
  -30.3329  -11.2563   19.7826 H   0  0  0  0  0  0
  -29.7169  -11.7366   17.4158 H   0  0  0  0  0  0
  -29.6867  -13.4553   17.7256 H   0  0  0  0  0  0
  -27.7952  -11.3194   18.7690 H   0  0  0  0  0  0
  -27.3663  -12.6664   17.7640 H   0  0  0  0  0  0
  -27.7178  -14.2491   19.5811 H   0  0  0  0  0  0
  -28.6820  -11.9410   21.3210 H   0  0  0  0  0  0
  -28.4911  -13.5897   21.8508 H   0  0  0  0  0  0
  -25.2813   -9.5703   22.4703 H   0  0  0  0  0  0
  -24.0065   -7.4607   22.7427 H   0  0  0  0  0  0
  -21.0844   -8.8749   19.8902 H   0  0  0  0  0  0
  -22.3690  -10.9666   19.6119 H   0  0  0  0  0  0
  -21.1929   -7.6111   23.9711 H   0  0  0  0  0  0
  -21.1515   -6.0461   25.9072 H   0  0  0  0  0  0
  -22.0607   -2.7581   23.2827 H   0  0  0  0  0  0
  -22.4161  -11.9942   22.4874 H   0  0  0  0  0  0
  -21.1134  -13.1200   22.2470 H   0  0  0  0  0  0
  -24.6999  -15.8649   20.5170 H   0  0  0  0  0  0
  -26.3036  -15.6120   20.0589 H   0  0  0  0  0  0
  -26.7121  -32.5552   23.1215 H   0  0  0  0  0  0
  -25.0106  -33.9872   25.0535 H   0  0  0  0  0  0
  -22.6840  -31.3174   21.4324 H   0  0  0  0  0  0
  -23.3737  -35.9631   23.3303 H   0  0  0  0  0  0
  -24.3549  -36.8936   22.2060 H   0  0  0  0  0  0
  -23.7147  -37.6506   23.6664 H   0  0  0  0  0  0
  -26.0261  -31.5982   20.5906 H   0  0  0  0  0  0
  -26.8279  -30.9028   21.9664 H   0  0  0  0  0  0
  -28.0794  -29.1029   21.1621 H   0  0  0  0  0  0
  -25.9918  -25.9772   19.0065 H   0  0  0  0  0  0
  -23.9479  -27.2959   19.0511 H   0  0  0  0  0  0
  -23.7083  -30.6147   19.4188 H   0  0  0  0  0  0
  -22.7196  -29.2639   19.8747 H   0  0  0  0  0  0
  -25.1244  -36.2063   25.0833 H   0  0  0  0  0  0
  -20.9966  -28.3275   24.1477 H   0  0  0  0  0  0
  -20.5755  -26.2298   23.3648 H   0  0  0  0  0  0
  -21.6637  -26.7532   22.1210 H   0  0  0  0  0  0
  -19.6861  -25.6327   21.1291 H   0  0  0  0  0  0
  -19.6659  -27.3270   20.6861 H   0  0  0  0  0  0
  -17.4203  -26.6783   21.4025 H   0  0  0  0  0  0
  -18.0188  -26.0095   22.9029 H   0  0  0  0  0  0
  -19.7900  -30.7326   24.2285 H   0  0  0  0  0  0
  -17.4968  -31.6282   24.5237 H   0  0  0  0  0  0
  -15.5323  -30.3032   23.7655 H   0  0  0  0  0  0
  -15.8616  -28.0878   22.7030 H   0  0  0  0  0  0
  -24.5931  -30.7100   25.7917 H   0  0  0  0  0  0
  -24.8916  -32.2914   26.4969 H   0  0  0  0  0  0
  -25.8093  -30.9000   27.0291 H   0  0  0  0  0  0
  -26.2861  -29.6883   24.1232 H   0  0  0  0  0  0
  -27.4074  -29.7387   25.4631 H   0  0  0  0  0  0
  -27.8685  -30.4430   23.9297 H   0  0  0  0  0  0
  -27.2720  -33.3736   26.2030 H   0  0  0  0  0  0
  -28.3894  -32.6940   25.0330 H   0  0  0  0  0  0
  -28.0705  -31.8546   26.5419 H   0  0  0  0  0  0
  -28.2627  -38.0092   24.7581 H   0  0  0  0  0  0
  -28.1063  -36.2636   24.6190 H   0  0  0  0  0  0
  -27.2301  -37.1361   25.8848 H   0  0  0  0  0  0
  -20.9236  -29.8786   21.7010 H   0  0  0  0  0  0
  -26.0171  -38.2909   24.1475 H   0  0  0  0  0  0
  -32.4422  -19.4267   21.1526 H   0  0  0  0  0  0
  -29.6975  -18.7271   17.8597 H   0  0  0  0  0  0
  -31.8208  -17.2384   22.1086 H   0  0  0  0  0  0
  -29.0936  -16.5839   18.8149 H   0  0  0  0  0  0
  -29.5135  -22.7965   15.9391 H   0  0  0  0  0  0
  -28.5844  -23.7996   17.0375 H   0  0  0  0  0  0
  -28.9335  -22.1462   17.4661 H   0  0  0  0  0  0
  -31.2155  -24.6339   15.9325 H   0  0  0  0  0  0
  -31.9663  -25.1257   17.4465 H   0  0  0  0  0  0
  -30.2834  -25.5373   17.0930 H   0  0  0  0  0  0
  -32.0334  -22.5586   16.3487 H   0  0  0  0  0  0
  -32.6329  -22.7658   17.9514 H   0  0  0  0  0  0
  -30.6101  -25.8341   19.3372 H   0  0  0  0  0  0
  -30.0712  -24.9984   20.7407 H   0  0  0  0  0  0
  -29.7340  -22.8667   19.5040 H   0  0  0  0  0  0
  -31.3495  -23.4721   19.6226 H   0  0  0  0  0  0
  -27.7917  -24.7662   19.9071 H   0  0  0  0  0  0
  -28.2414  -25.5521   18.3824 H   0  0  0  0  0  0
  -31.9698  -21.1565   19.5861 H   0  0  0  0  0  0
  -29.1621  -15.2898   21.3525 H   0  0  0  0  0  0
  1 25  1  0  0  0
  1 30  2  0  0  0
  1 85  1  0  0  0
  2  3  1  0  0  0
  2 25  1  0  0  0
  2 88  1  0  0  0
  2 89  1  0  0  0
  3  4  1  0  0  0
  3 90  1  0  0  0
  3 91  1  0  0  0
  4  5  1  0  0  0
  4 92  1  0  0  0
  4 93  1  0  0  0
  5  6  1  0  0  0
  5 26  1  0  0  0
  5 94  1  0  0  0
  6 25  1  0  0  0
  6 95  1  0  0  0
  6 96  1  0  0  0
  7  8  2  0  0  0
  7 26  1  0  0  0
  7 29  1  0  0  0
  8  9  1  0  0  0
  8 22  1  0  0  0
  9 10  1  0  0  0
  9 27  2  0  0  0
 10 11  2  0  0  0
 10 15  1  0  0  0
 11 12  1  0  0  0
 11 97  1  0  0  0
 12 13  2  0  0  0
 12 98  1  0  0  0
 13 14  1  0  0  0
 13 31  1  0  0  0
 14 15  2  0  0  0
 14 99  1  0  0  0
 15100  1  0  0  0
 16 17  2  0  0  0
 16 21  1  0  0  0
 16 31  1  0  0  0
 17 18  1  0  0  0
 17101  1  0  0  0
 18 19  2  0  0  0
 18102  1  0  0  0
 19 20  1  0  0  0
 19 24  1  0  0  0
 20 21  2  0  0  0
 20103  1  0  0  0
 21 23  1  0  0  0
 22 28  1  0  0  0
 22 32  2  0  0  0
 26 27  1  0  0  0
 28104  1  0  0  0
 28105  1  0  0  0
 29106  1  0  0  0
 29107  1  0  0  0
 33 34  1  0  0  0
 33 66  1  0  0  0
 33 70  2  0  0  0
 34 36  1  0  0  0
 34 59  1  0  0  0
 34108  1  0  0  0
 35 44  2  0  0  0
 35 45  1  0  0  0
 35 68  1  0  0  0
 36 56  1  0  0  0
 36109  1  0  0  0
 37 39  1  0  0  0
 37 47  1  0  0  0
 37 66  1  0  0  0
 37110  1  0  0  0
 38 43  2  0  0  0
 38 46  1  0  0  0
 38 47  1  0  0  0
 39 64  1  0  0  0
 39 67  2  0  0  0
 40 52  1  0  0  0
 40 53  2  0  0  0
 40 58  1  0  0  0
 41111  1  0  0  0
 41112  1  0  0  0
 41113  1  0  0  0
 41 48  1  0  0  0
 42 43  1  0  0  0
 42 66  1  0  0  0
 42114  1  0  0  0
 42115  1  0  0  0
 43 44  1  0  0  0
 44116  1  0  0  0
 45 46  2  0  0  0
 45117  1  0  0  0
 46118  1  0  0  0
 47119  1  0  0  0
 47120  1  0  0  0
 48 56  1  0  0  0
 48 65  1  0  0  0
 48121  1  0  0  0
 49 50  1  0  0  0
 49 53  1  0  0  0
 49 64  1  0  0  0
 49122  1  0  0  0
 50 51  1  0  0  0
 50123  1  0  0  0
 50124  1  0  0  0
 51 52  1  0  0  0
 51125  1  0  0  0
 51126  1  0  0  0
 52127  1  0  0  0
 52128  1  0  0  0
 53 54  1  0  0  0
 54 55  2  0  0  0
 54129  1  0  0  0
 55 57  1  0  0  0
 55130  1  0  0  0
 56 69  2  0  0  0
 57 58  2  0  0  0
 57131  1  0  0  0
 58132  1  0  0  0
 59 60  1  0  0  0
 59 61  1  0  0  0
 59 62  1  0  0  0
 60133  1  0  0  0
 60134  1  0  0  0
 60135  1  0  0  0
 61136  1  0  0  0
 61137  1  0  0  0
 61138  1  0  0  0
 62139  1  0  0  0
 62140  1  0  0  0
 62141  1  0  0  0
 63 65  1  0  0  0
 63142  1  0  0  0
 63143  1  0  0  0
 63144  1  0  0  0
 64145  1  0  0  0
 65146  1  0  0  0
 68 83  1  0  0  0
 71 73  2  0  0  0
 71 75  1  0  0  0
 71147  1  0  0  0
 72 74  1  0  0  0
 72 75  2  0  0  0
 72148  1  0  0  0
 73 76  1  0  0  0
 73149  1  0  0  0
 74 76  2  0  0  0
 74150  1  0  0  0
 75 84  1  0  0  0
 76 85  1  0  0  0
 77 80  1  0  0  0
 77 84  1  0  0  0
 77 87  2  0  0  0
 78151  1  0  0  0
 78152  1  0  0  0
 78153  1  0  0  0
 78 86  1  0  0  0
 79 86  1  0  0  0
 79154  1  0  0  0
 79155  1  0  0  0
 79156  1  0  0  0
 80 86  1  0  0  0
 80157  1  0  0  0
 80158  1  0  0  0
 81 82  1  0  0  0
 81 83  1  0  0  0
 81159  1  0  0  0
 81160  1  0  0  0
 82 86  1  0  0  0
 82161  1  0  0  0
 82162  1  0  0  0
 83163  1  0  0  0
 83164  1  0  0  0
 84165  1  0  0  0
 85166  1  0  0  0
M  CHG  1  86   1
M  ISO  4   1 100  68 101  83 101  85 100
M  END
> <chiral flag>
0

> <version>
0

> <s_m_source_file>
/data/baiqing/PycharmProjects/Reinvent-master-3.2/result/LINK_invent/BTK/process_docking_weight1_custom_sum_contain_oxygen_bond_distance_aromatic_linkinvent_7_9_3/rearranged_h_0010.sdf

> <i_m_source_file_index>
47

> <r_mmod_Potential_Energy-OPLS-2005>
-141.858642578125

> <r_mmod_Stretch_Energy-OPLS-2005>
39.7380905151367

> <r_mmod_Bend_Energy-OPLS-2005>
128.740158081055

> <r_mmod_Torsional_Energy-OPLS-2005>
277.437530517578

> <r_mmod_Improper_Torsional_Energy-OPLS-2005>
6.01669216156006

> <r_mmod_Van_der_Waal_Energy-OPLS-2005>
175.671249389648

> <r_mmod_Electrostatic_Energy-OPLS-2005>
-359.448211669922

> <r_mmod_Solvation_Energy-OPLS-2005>
-424.361297607422

> <b_mmod_Minimization_Converged-OPLS-2005>
0

> <r_mmod_RMS_Derivative-OPLS-2005>
6.0528450012207

$$$$
47
                    3D
 Structure written by MMmdl.
155163  0  0  1  0            999 V2000
  -30.6115  -14.7809   20.4860 C   0  0  0  0  0  0
  -30.4432  -12.4902   19.4729 C   0  0  0  0  0  0
  -29.5135  -12.5021   18.2402 C   0  0  0  0  0  0
  -28.0424  -12.3208   18.6631 C   0  0  0  0  0  0
  -27.6411  -13.2325   19.8497 C   0  0  2  0  0  0
  -28.6882  -13.1935   20.9844 C   0  0  0  0  0  0
  -25.2506  -13.8182   20.5670 C   0  0  0  0  0  0
  -24.1795  -13.0458   20.9213 C   0  0  0  0  0  0
  -24.6375  -11.6938   20.8779 C   0  0  0  0  0  0
  -23.9048  -10.4331   21.0448 C   0  0  0  0  0  0
  -24.3593   -9.4239   21.9230 C   0  0  0  0  0  0
  -23.6247   -8.2273   22.0789 C   0  0  0  0  0  0
  -22.4228   -8.0318   21.3569 C   0  0  0  0  0  0
  -21.9876   -9.0303   20.4685 C   0  0  0  0  0  0
  -22.7220  -10.2168   20.3113 C   0  0  0  0  0  0
  -21.6874   -6.0744   22.5266 C   0  0  0  0  0  0
  -21.4014   -6.5649   23.8201 C   0  0  0  0  0  0
  -21.3660   -5.6783   24.9174 C   0  0  0  0  0  0
  -21.6040   -4.3036   24.7203 C   0  0  0  0  0  0
  -21.8835   -3.8153   23.4319 C   0  0  0  0  0  0
  -21.9170   -4.6973   22.3393 C   0  0  0  0  0  0
  -22.7823  -13.5280   21.1847 C   0  0  0  0  0  0
  -22.1669   -4.2158   21.0968 F   0  0  0  0  0  0
  -21.5598   -3.4539   25.7723 F   0  0  0  0  0  0
  -29.9822  -13.5568   20.3902 N   0  0  0  0  0  0
  -26.2907  -12.9384   20.3285 N   0  0  0  0  0  0
  -25.9286  -11.6542   20.5746 N   0  0  0  0  0  0
  -22.0405  -12.8341   22.0410 N   0  0  0  0  0  0
  -25.4227  -15.1911   20.4090 N   0  0  0  0  0  0
  -31.8140  -14.8690   20.2219 O   0  0  0  0  0  0
  -21.6634   -6.8882   21.4233 O   0  0  0  0  0  0
  -22.3531  -14.5596   20.6677 O   0  0  0  0  0  0
  -24.6310  -31.8535   23.1948 C   0  0  0  0  0  0
  -25.9130  -32.4733   23.8291 C   0  0  1  0  0  0
  -27.2281  -27.2678   20.1373 C   0  0  0  0  0  0
  -25.5922  -33.8537   24.2231 N   0  0  0  0  0  0
  -23.4285  -30.4749   21.5384 C   0  0  2  0  0  0
  -24.8787  -28.9151   20.1125 C   0  0  0  0  0  0
  -22.7503  -29.4592   22.4904 C   0  0  0  0  0  0
  -18.0308  -28.1388   22.8496 C   0  0  0  0  0  0
  -24.1482  -36.7287   23.2625 C   0  0  0  0  0  0
  -25.9731  -30.7702   21.3722 C   0  0  0  0  0  0
  -26.0486  -29.3903   20.7204 C   0  0  0  0  0  0
  -27.2306  -28.5816   20.7152 C   0  0  0  0  0  0
  -26.0363  -26.8498   19.5121 C   0  0  0  0  0  0
  -24.8785  -27.6530   19.4967 C   0  0  0  0  0  0
  -23.6467  -29.8021   20.1557 C   0  0  0  0  0  0
  -25.4086  -36.3057   24.0317 C   0  0  1  0  0  0
  -20.5906  -28.3688   23.1266 C   0  0  2  0  0  0
  -20.6786  -26.9408   22.5406 C   0  0  0  0  0  0
  -19.5755  -26.6375   21.5215 C   0  0  0  0  0  0
  -18.1940  -26.7927   22.1634 C   0  0  0  0  0  0
  -19.1557  -28.8852   23.2883 C   0  0  0  0  0  0
  -18.9480  -30.1452   23.8888 C   0  0  0  0  0  0
  -17.6474  -30.6585   24.0561 C   0  0  0  0  0  0
  -25.9050  -34.9420   23.5088 C   0  0  0  0  0  0
  -16.5361  -29.9075   23.6324 C   0  0  0  0  0  0
  -16.7288  -28.6489   23.0343 C   0  0  0  0  0  0
  -26.4474  -31.6568   25.0688 C   0  0  0  0  0  0
  -25.3697  -31.3767   26.1430 C   0  0  0  0  0  0
  -27.0304  -30.2965   24.6187 C   0  0  0  0  0  0
  -27.6019  -32.4314   25.7468 C   0  0  0  0  0  0
  -27.5585  -37.1766   24.8436 C   0  0  0  0  0  0
  -21.4206  -29.3043   22.3659 N   0  0  0  0  0  0
  -26.4252  -37.3762   23.9442 N   0  0  0  0  0  0
  -24.6967  -31.0522   22.0912 N   0  0  0  0  0  0
  -23.4226  -28.8144   23.2989 O   0  0  0  0  0  0
  -28.3300  -26.3893   20.1288 O   0  0  0  0  0  0
  -26.5635  -34.8917   22.4670 O   0  0  0  0  0  0
  -23.5464  -32.1368   23.7235 O   0  0  0  0  0  0
  -29.4047  -18.4779   20.2722 C   0  0  0  0  0  0
  -30.6643  -20.1133   21.5708 C   0  0  0  0  0  0
  -31.1318  -17.6990   21.7858 C   0  0  0  0  0  0
  -29.6627  -19.8745   20.6026 C   0  0  0  0  0  0
  -30.1367  -17.3547   20.8423 C   0  0  0  0  0  0
  -31.3847  -19.0404   22.1695 C   0  0  0  0  0  0
  -28.6232  -23.7268   19.8887 C   0  0  0  0  0  0
  -32.4903  -20.4557   23.8025 C   0  0  0  0  0  0
  -28.9218  -21.1010   19.8887 C   0  0  0  0  0  0
  -28.1636  -25.0156   20.7219 C   0  0  0  0  0  0
  -29.8178  -15.9205   20.5878 N   0  0  0  0  0  0
  -28.7972  -22.4935   20.5078 N   0  0  0  0  0  0
  -28.7737  -23.8371   18.6683 O   0  0  0  0  0  0
  -32.3571  -19.2027   23.1374 O   0  0  0  0  0  0
  -31.4791  -12.6392   19.1660 H   0  0  0  0  0  0
  -30.4090  -11.5211   19.9741 H   0  0  0  0  0  0
  -29.8022  -11.7188   17.5400 H   0  0  0  0  0  0
  -29.6308  -13.4407   17.7002 H   0  0  0  0  0  0
  -27.9056  -11.2757   18.9446 H   0  0  0  0  0  0
  -27.3828  -12.4981   17.8142 H   0  0  0  0  0  0
  -27.6327  -14.2477   19.4543 H   0  0  0  0  0  0
  -28.7367  -12.2008   21.4348 H   0  0  0  0  0  0
  -28.4173  -13.8785   21.7864 H   0  0  0  0  0  0
  -25.2729   -9.5696   22.4800 H   0  0  0  0  0  0
  -23.9966   -7.4658   22.7474 H   0  0  0  0  0  0
  -21.0801   -8.8832   19.8968 H   0  0  0  0  0  0
  -22.3680  -10.9725   19.6234 H   0  0  0  0  0  0
  -21.2057   -7.6165   23.9717 H   0  0  0  0  0  0
  -21.1449   -6.0520   25.9067 H   0  0  0  0  0  0
  -22.0591   -2.7613   23.2835 H   0  0  0  0  0  0
  -22.3949  -12.0025   22.4888 H   0  0  0  0  0  0
  -21.1052  -13.1468   22.2587 H   0  0  0  0  0  0
  -24.6518  -15.8399   20.5084 H   0  0  0  0  0  0
  -26.2506  -15.6220   20.0186 H   0  0  0  0  0  0
  -26.7204  -32.5393   23.1049 H   0  0  0  0  0  0
  -25.0044  -33.9659   25.0355 H   0  0  0  0  0  0
  -22.7246  -31.2962   21.3879 H   0  0  0  0  0  0
  -23.3751  -35.9620   23.3220 H   0  0  0  0  0  0
  -24.3607  -36.8979   22.2067 H   0  0  0  0  0  0
  -23.7226  -37.6451   23.6698 H   0  0  0  0  0  0
  -26.1122  -31.5241   20.5964 H   0  0  0  0  0  0
  -26.8493  -30.8216   22.0058 H   0  0  0  0  0  0
  -28.1286  -28.9456   21.1944 H   0  0  0  0  0  0
  -25.9971  -25.8784   19.0391 H   0  0  0  0  0  0
  -23.9837  -27.2824   19.0162 H   0  0  0  0  0  0
  -23.7686  -30.5743   19.3933 H   0  0  0  0  0  0
  -22.7654  -29.2309   19.8563 H   0  0  0  0  0  0
  -25.1263  -36.1879   25.0799 H   0  0  0  0  0  0
  -21.0008  -28.3267   24.1374 H   0  0  0  0  0  0
  -20.5683  -26.2299   23.3610 H   0  0  0  0  0  0
  -21.6663  -26.7428   22.1195 H   0  0  0  0  0  0
  -19.6908  -25.6279   21.1251 H   0  0  0  0  0  0
  -19.6666  -27.3181   20.6740 H   0  0  0  0  0  0
  -17.4204  -26.6666   21.4050 H   0  0  0  0  0  0
  -18.0340  -26.0076   22.9029 H   0  0  0  0  0  0
  -19.7942  -30.7292   24.2249 H   0  0  0  0  0  0
  -17.5008  -31.6254   24.5160 H   0  0  0  0  0  0
  -15.5363  -30.2965   23.7623 H   0  0  0  0  0  0
  -15.8688  -28.0790   22.7049 H   0  0  0  0  0  0
  -24.5835  -30.7151   25.7789 H   0  0  0  0  0  0
  -24.8940  -32.2971   26.4823 H   0  0  0  0  0  0
  -25.8001  -30.8964   27.0232 H   0  0  0  0  0  0
  -26.2888  -29.6732   24.1183 H   0  0  0  0  0  0
  -27.3945  -29.7204   25.4709 H   0  0  0  0  0  0
  -27.8785  -30.4210   23.9450 H   0  0  0  0  0  0
  -27.2592  -33.3614   26.2023 H   0  0  0  0  0  0
  -28.3828  -32.6889   25.0296 H   0  0  0  0  0  0
  -28.0692  -31.8467   26.5412 H   0  0  0  0  0  0
  -28.2511  -38.0154   24.7613 H   0  0  0  0  0  0
  -28.1183  -36.2703   24.6077 H   0  0  0  0  0  0
  -27.2355  -37.1185   25.8843 H   0  0  0  0  0  0
  -20.9396  -29.8784   21.6870 H   0  0  0  0  0  0
  -26.0130  -38.2819   24.1507 H   0  0  0  0  0  0
  -28.6255  -18.2658   19.5530 H   0  0  0  0  0  0
  -30.8819  -21.1385   21.8384 H   0  0  0  0  0  0
  -31.7035  -16.9200   22.2733 H   0  0  0  0  0  0
  -33.0649  -20.3077   24.7213 H   0  0  0  0  0  0
  -31.5268  -20.8806   24.0962 H   0  0  0  0  0  0
  -33.0386  -21.1792   23.1933 H   0  0  0  0  0  0
  -27.9013  -20.7717   19.6905 H   0  0  0  0  0  0
  -29.3759  -21.2141   18.9027 H   0  0  0  0  0  0
  -28.7340  -25.0073   21.6492 H   0  0  0  0  0  0
  -27.1297  -24.8518   21.0242 H   0  0  0  0  0  0
  -28.8329  -15.7221   20.4941 H   0  0  0  0  0  0
  -28.6515  -22.4972   21.5078 H   0  0  0  0  0  0
  1 25  1  0  0  0
  1 30  2  0  0  0
  1 81  1  0  0  0
  2  3  1  0  0  0
  2 25  1  0  0  0
  2 85  1  0  0  0
  2 86  1  0  0  0
  3  4  1  0  0  0
  3 87  1  0  0  0
  3 88  1  0  0  0
  4  5  1  0  0  0
  4 89  1  0  0  0
  4 90  1  0  0  0
  5  6  1  0  0  0
  5 26  1  0  0  0
  5 91  1  0  0  0
  6 25  1  0  0  0
  6 92  1  0  0  0
  6 93  1  0  0  0
  7  8  2  0  0  0
  7 26  1  0  0  0
  7 29  1  0  0  0
  8  9  1  0  0  0
  8 22  1  0  0  0
  9 10  1  0  0  0
  9 27  2  0  0  0
 10 11  2  0  0  0
 10 15  1  0  0  0
 11 12  1  0  0  0
 11 94  1  0  0  0
 12 13  2  0  0  0
 12 95  1  0  0  0
 13 14  1  0  0  0
 13 31  1  0  0  0
 14 15  2  0  0  0
 14 96  1  0  0  0
 15 97  1  0  0  0
 16 17  2  0  0  0
 16 21  1  0  0  0
 16 31  1  0  0  0
 17 18  1  0  0  0
 17 98  1  0  0  0
 18 19  2  0  0  0
 18 99  1  0  0  0
 19 20  1  0  0  0
 19 24  1  0  0  0
 20 21  2  0  0  0
 20100  1  0  0  0
 21 23  1  0  0  0
 22 28  1  0  0  0
 22 32  2  0  0  0
 26 27  1  0  0  0
 28101  1  0  0  0
 28102  1  0  0  0
 29103  1  0  0  0
 29104  1  0  0  0
 33 34  1  0  0  0
 33 66  1  0  0  0
 33 70  2  0  0  0
 34 36  1  0  0  0
 34 59  1  0  0  0
 34105  1  0  0  0
 35 44  2  0  0  0
 35 45  1  0  0  0
 35 68  1  0  0  0
 36 56  1  0  0  0
 36106  1  0  0  0
 37 39  1  0  0  0
 37 47  1  0  0  0
 37 66  1  0  0  0
 37107  1  0  0  0
 38 43  2  0  0  0
 38 46  1  0  0  0
 38 47  1  0  0  0
 39 64  1  0  0  0
 39 67  2  0  0  0
 40 52  1  0  0  0
 40 53  2  0  0  0
 40 58  1  0  0  0
 41108  1  0  0  0
 41109  1  0  0  0
 41110  1  0  0  0
 41 48  1  0  0  0
 42 43  1  0  0  0
 42 66  1  0  0  0
 42111  1  0  0  0
 42112  1  0  0  0
 43 44  1  0  0  0
 44113  1  0  0  0
 45 46  2  0  0  0
 45114  1  0  0  0
 46115  1  0  0  0
 47116  1  0  0  0
 47117  1  0  0  0
 48 56  1  0  0  0
 48 65  1  0  0  0
 48118  1  0  0  0
 49 50  1  0  0  0
 49 53  1  0  0  0
 49 64  1  0  0  0
 49119  1  0  0  0
 50 51  1  0  0  0
 50120  1  0  0  0
 50121  1  0  0  0
 51 52  1  0  0  0
 51122  1  0  0  0
 51123  1  0  0  0
 52124  1  0  0  0
 52125  1  0  0  0
 53 54  1  0  0  0
 54 55  2  0  0  0
 54126  1  0  0  0
 55 57  1  0  0  0
 55127  1  0  0  0
 56 69  2  0  0  0
 57 58  2  0  0  0
 57128  1  0  0  0
 58129  1  0  0  0
 59 60  1  0  0  0
 59 61  1  0  0  0
 59 62  1  0  0  0
 60130  1  0  0  0
 60131  1  0  0  0
 60132  1  0  0  0
 61133  1  0  0  0
 61134  1  0  0  0
 61135  1  0  0  0
 62136  1  0  0  0
 62137  1  0  0  0
 62138  1  0  0  0
 63 65  1  0  0  0
 63139  1  0  0  0
 63140  1  0  0  0
 63141  1  0  0  0
 64142  1  0  0  0
 65143  1  0  0  0
 68 80  1  0  0  0
 71 74  2  0  0  0
 71 75  1  0  0  0
 71144  1  0  0  0
 72 74  1  0  0  0
 72 76  2  0  0  0
 72145  1  0  0  0
 73 75  2  0  0  0
 73 76  1  0  0  0
 73146  1  0  0  0
 74 79  1  0  0  0
 75 81  1  0  0  0
 76 84  1  0  0  0
 77 80  1  0  0  0
 77 82  1  0  0  0
 77 83  2  0  0  0
 78 84  1  0  0  0
 78147  1  0  0  0
 78148  1  0  0  0
 78149  1  0  0  0
 79 82  1  0  0  0
 79150  1  0  0  0
 79151  1  0  0  0
 80152  1  0  0  0
 80153  1  0  0  0
 81154  1  0  0  0
 82155  1  0  0  0
M  ISO  4   1 100  68 101  80 101  81 100
M  END
> <chiral flag>
0

> <version>
0

> <s_m_source_file>
/data/baiqing/PycharmProjects/Reinvent-master-3.2/result/LINK_invent/BTK/process_docking_weight1_custom_sum_contain_oxygen_bond_distance_aromatic_linkinvent_7_9_3/rearranged_h_0010.sdf

> <i_m_source_file_index>
48

> <r_mmod_Potential_Energy-OPLS-2005>
107.45906829834

> <r_mmod_Stretch_Energy-OPLS-2005>
123.654281616211

> <r_mmod_Bend_Energy-OPLS-2005>
164.537734985352

> <r_mmod_Torsional_Energy-OPLS-2005>
244.755752563477

> <r_mmod_Improper_Torsional_Energy-OPLS-2005>
8.19042205810547

> <r_mmod_Van_der_Waal_Energy-OPLS-2005>
133.028594970703

> <r_mmod_Electrostatic_Energy-OPLS-2005>
-400.57373046875

> <r_mmod_Solvation_Energy-OPLS-2005>
-259.023956298828

> <b_mmod_Minimization_Converged-OPLS-2005>
0

> <r_mmod_RMS_Derivative-OPLS-2005>
5.9608097076416

$$$$
48
                    3D
 Structure written by MMmdl.
151159  0  0  1  0            999 V2000
  -30.5077  -14.9207   20.4377 C   0  0  0  0  0  0
  -30.4533  -12.5666   19.5005 C   0  0  0  0  0  0
  -29.5289  -12.5331   18.2591 C   0  0  0  0  0  0
  -28.0606  -12.3140   18.6743 C   0  0  0  0  0  0
  -27.6378  -13.2361   19.8465 C   0  0  2  0  0  0
  -28.6782  -13.2234   20.9875 C   0  0  0  0  0  0
  -25.2485  -13.8194   20.5664 C   0  0  0  0  0  0
  -24.1797  -13.0431   20.9212 C   0  0  0  0  0  0
  -24.6400  -11.6914   20.8755 C   0  0  0  0  0  0
  -23.9079  -10.4286   21.0417 C   0  0  0  0  0  0
  -24.3626   -9.4194   21.9192 C   0  0  0  0  0  0
  -23.6297   -8.2227   22.0749 C   0  0  0  0  0  0
  -22.4280   -8.0272   21.3539 C   0  0  0  0  0  0
  -21.9917   -9.0249   20.4643 C   0  0  0  0  0  0
  -22.7249  -10.2127   20.3058 C   0  0  0  0  0  0
  -21.6847   -6.0735   22.5283 C   0  0  0  0  0  0
  -21.4013   -6.5643   23.8217 C   0  0  0  0  0  0
  -21.3658   -5.6796   24.9182 C   0  0  0  0  0  0
  -21.6041   -4.3059   24.7233 C   0  0  0  0  0  0
  -21.8820   -3.8148   23.4357 C   0  0  0  0  0  0
  -21.9194   -4.6962   22.3413 C   0  0  0  0  0  0
  -22.7818  -13.5201   21.1889 C   0  0  0  0  0  0
  -22.1661   -4.2145   21.0987 F   0  0  0  0  0  0
  -21.5631   -3.4545   25.7747 F   0  0  0  0  0  0
  -29.9635  -13.6409   20.4066 N   0  0  0  0  0  0
  -26.2910  -12.9400   20.3246 N   0  0  0  0  0  0
  -25.9323  -11.6541   20.5737 N   0  0  0  0  0  0
  -22.0484  -12.8168   22.0453 N   0  0  0  0  0  0
  -25.4153  -15.1914   20.4026 N   0  0  0  0  0  0
  -31.6960  -15.0604   20.1264 O   0  0  0  0  0  0
  -21.6634   -6.8875   21.4241 O   0  0  0  0  0  0
  -22.3484  -14.5507   20.6748 O   0  0  0  0  0  0
  -24.6424  -31.8443   23.1890 C   0  0  0  0  0  0
  -25.9192  -32.4702   23.8284 C   0  0  1  0  0  0
  -27.2249  -27.1427   20.1567 C   0  0  0  0  0  0
  -25.5938  -33.8507   24.2202 N   0  0  0  0  0  0
  -23.4467  -30.4649   21.5332 C   0  0  2  0  0  0
  -24.8999  -28.8909   20.1128 C   0  0  0  0  0  0
  -22.7557  -29.4572   22.4862 C   0  0  0  0  0  0
  -18.0307  -28.1362   22.8458 C   0  0  0  0  0  0
  -24.1491  -36.7257   23.2641 C   0  0  0  0  0  0
  -26.0030  -30.7229   21.3865 C   0  0  0  0  0  0
  -26.0769  -29.3341   20.7283 C   0  0  0  0  0  0
  -27.2404  -28.4762   20.7317 C   0  0  0  0  0  0
  -26.0201  -26.7997   19.5023 C   0  0  0  0  0  0
  -24.8835  -27.6363   19.4861 C   0  0  0  0  0  0
  -23.6749  -29.7910   20.1543 C   0  0  0  0  0  0
  -25.4125  -36.3038   24.0314 C   0  0  1  0  0  0
  -20.5920  -28.3727   23.1244 C   0  0  2  0  0  0
  -20.6818  -26.9448   22.5372 C   0  0  0  0  0  0
  -19.5808  -26.6458   21.5144 C   0  0  0  0  0  0
  -18.1985  -26.7919   22.1572 C   0  0  0  0  0  0
  -19.1549  -28.8855   23.2858 C   0  0  0  0  0  0
  -18.9454  -30.1444   23.8892 C   0  0  0  0  0  0
  -17.6444  -30.6550   24.0555 C   0  0  0  0  0  0
  -25.9069  -34.9411   23.5068 C   0  0  0  0  0  0
  -16.5345  -29.9037   23.6322 C   0  0  0  0  0  0
  -16.7281  -28.6457   23.0333 C   0  0  0  0  0  0
  -26.4515  -31.6572   25.0724 C   0  0  0  0  0  0
  -25.3698  -31.3764   26.1420 C   0  0  0  0  0  0
  -27.0381  -30.2967   24.6306 C   0  0  0  0  0  0
  -27.6040  -32.4348   25.7507 C   0  0  0  0  0  0
  -27.5576  -37.1792   24.8464 C   0  0  0  0  0  0
  -21.4243  -29.3094   22.3642 N   0  0  0  0  0  0
  -26.4295  -37.3749   23.9399 N   0  0  0  0  0  0
  -24.7173  -31.0309   22.0922 N   0  0  0  0  0  0
  -23.4194  -28.8094   23.2991 O   0  0  0  0  0  0
  -28.2825  -26.1630   20.2353 O   0  0  0  0  0  0
  -26.5654  -34.8904   22.4644 O   0  0  0  0  0  0
  -23.5540  -32.1313   23.7114 O   0  0  0  0  0  0
  -28.5306  -18.0938   19.6430 C   0  0  0  0  0  0
  -28.2423  -19.5045   19.5967 C   0  0  0  0  0  0
  -30.2942  -18.5801   21.1058 C   0  0  0  0  0  0
  -29.5774  -17.5253   20.4298 C   0  0  0  0  0  0
  -28.9711  -20.4841   20.3306 C   0  0  0  0  0  0
  -27.1855  -21.7635   21.2596 C   0  0  0  0  0  0
  -28.9908  -23.3106   20.4465 C   0  0  0  0  0  0
  -27.9992  -24.6372   20.1016 C   0  0  0  0  0  0
  -30.0097  -19.9593   21.0656 N   0  0  0  0  0  0
  -29.6331  -16.0104   20.6574 N   0  0  0  0  0  0
  -28.4205  -21.8592   20.4820 N   0  0  0  0  0  0
  -31.4868  -12.7382   19.1953 H   0  0  0  0  0  0
  -30.4481  -11.6032   20.0126 H   0  0  0  0  0  0
  -29.8447  -11.7478   17.5711 H   0  0  0  0  0  0
  -29.6173  -13.4734   17.7123 H   0  0  0  0  0  0
  -27.9586  -11.2705   18.9756 H   0  0  0  0  0  0
  -27.3956  -12.4515   17.8212 H   0  0  0  0  0  0
  -27.6142  -14.2451   19.4338 H   0  0  0  0  0  0
  -28.7542  -12.2315   21.4350 H   0  0  0  0  0  0
  -28.3753  -13.8949   21.7929 H   0  0  0  0  0  0
  -25.2773   -9.5662   22.4767 H   0  0  0  0  0  0
  -24.0013   -7.4604   22.7448 H   0  0  0  0  0  0
  -21.0859   -8.8766   19.8937 H   0  0  0  0  0  0
  -22.3715  -10.9667   19.6167 H   0  0  0  0  0  0
  -21.1999   -7.6148   23.9722 H   0  0  0  0  0  0
  -21.1479   -6.0527   25.9085 H   0  0  0  0  0  0
  -22.0600   -2.7607   23.2861 H   0  0  0  0  0  0
  -22.4135  -11.9822   22.4803 H   0  0  0  0  0  0
  -21.1096  -13.1159   22.2693 H   0  0  0  0  0  0
  -24.6366  -15.8363   20.4854 H   0  0  0  0  0  0
  -26.2421  -15.6225   20.0121 H   0  0  0  0  0  0
  -26.7261  -32.5318   23.1019 H   0  0  0  0  0  0
  -25.0059  -33.9634   25.0331 H   0  0  0  0  0  0
  -22.7502  -31.2907   21.3755 H   0  0  0  0  0  0
  -23.3759  -35.9582   23.3297 H   0  0  0  0  0  0
  -24.3570  -36.8895   22.2055 H   0  0  0  0  0  0
  -23.7246  -37.6452   23.6681 H   0  0  0  0  0  0
  -26.1548  -31.4808   20.6164 H   0  0  0  0  0  0
  -26.8737  -30.7754   22.0286 H   0  0  0  0  0  0
  -28.1367  -28.8104   21.2357 H   0  0  0  0  0  0
  -25.9215  -25.8407   19.0174 H   0  0  0  0  0  0
  -23.9825  -27.2903   18.9986 H   0  0  0  0  0  0
  -23.8101  -30.5628   19.3952 H   0  0  0  0  0  0
  -22.7916  -29.2298   19.8459 H   0  0  0  0  0  0
  -25.1317  -36.1866   25.0808 H   0  0  0  0  0  0
  -21.0010  -28.3308   24.1369 H   0  0  0  0  0  0
  -20.5692  -26.2319   23.3561 H   0  0  0  0  0  0
  -21.6693  -26.7479   22.1187 H   0  0  0  0  0  0
  -19.7025  -25.6414   21.1066 H   0  0  0  0  0  0
  -19.6730  -27.3365   20.6748 H   0  0  0  0  0  0
  -17.4255  -26.6660   21.3977 H   0  0  0  0  0  0
  -18.0430  -26.0018   22.8943 H   0  0  0  0  0  0
  -19.7920  -30.7263   24.2278 H   0  0  0  0  0  0
  -17.4982  -31.6209   24.5191 H   0  0  0  0  0  0
  -15.5333  -30.2916   23.7661 H   0  0  0  0  0  0
  -15.8695  -28.0748   22.7047 H   0  0  0  0  0  0
  -24.5878  -30.7110   25.7748 H   0  0  0  0  0  0
  -24.8885  -32.2949   26.4791 H   0  0  0  0  0  0
  -25.7977  -30.8977   27.0235 H   0  0  0  0  0  0
  -26.3002  -29.6687   24.1304 H   0  0  0  0  0  0
  -27.3980  -29.7272   25.4886 H   0  0  0  0  0  0
  -27.8911  -30.4205   23.9628 H   0  0  0  0  0  0
  -27.2620  -33.3665   26.2025 H   0  0  0  0  0  0
  -28.3872  -32.6886   25.0352 H   0  0  0  0  0  0
  -28.0673  -31.8515   26.5476 H   0  0  0  0  0  0
  -28.2597  -38.0087   24.7494 H   0  0  0  0  0  0
  -28.1071  -36.2614   24.6317 H   0  0  0  0  0  0
  -27.2279  -37.1461   25.8866 H   0  0  0  0  0  0
  -20.9439  -29.8849   21.6858 H   0  0  0  0  0  0
  -26.0157  -38.2812   24.1417 H   0  0  0  0  0  0
  -27.8757  -17.4293   19.0975 H   0  0  0  0  0  0
  -27.3851  -19.8240   19.0206 H   0  0  0  0  0  0
  -31.0822  -18.3075   21.7922 H   0  0  0  0  0  0
  -26.3167  -21.8713   20.6096 H   0  0  0  0  0  0
  -27.1386  -22.5411   22.0229 H   0  0  0  0  0  0
  -27.0961  -20.8114   21.7864 H   0  0  0  0  0  0
  -29.4292  -23.4808   21.4301 H   0  0  0  0  0  0
  -29.8334  -23.3166   19.7549 H   0  0  0  0  0  0
  -27.0883  -24.4797   20.6779 H   0  0  0  0  0  0
  -27.7075  -24.4908   19.0615 H   0  0  0  0  0  0
  -28.7185  -15.6369   20.8640 H   0  0  0  0  0  0
  1 25  1  0  0  0
  1 30  2  0  0  0
  1 80  1  0  0  0
  2  3  1  0  0  0
  2 25  1  0  0  0
  2 82  1  0  0  0
  2 83  1  0  0  0
  3  4  1  0  0  0
  3 84  1  0  0  0
  3 85  1  0  0  0
  4  5  1  0  0  0
  4 86  1  0  0  0
  4 87  1  0  0  0
  5  6  1  0  0  0
  5 26  1  0  0  0
  5 88  1  0  0  0
  6 25  1  0  0  0
  6 89  1  0  0  0
  6 90  1  0  0  0
  7  8  2  0  0  0
  7 26  1  0  0  0
  7 29  1  0  0  0
  8  9  1  0  0  0
  8 22  1  0  0  0
  9 10  1  0  0  0
  9 27  2  0  0  0
 10 11  2  0  0  0
 10 15  1  0  0  0
 11 12  1  0  0  0
 11 91  1  0  0  0
 12 13  2  0  0  0
 12 92  1  0  0  0
 13 14  1  0  0  0
 13 31  1  0  0  0
 14 15  2  0  0  0
 14 93  1  0  0  0
 15 94  1  0  0  0
 16 17  2  0  0  0
 16 21  1  0  0  0
 16 31  1  0  0  0
 17 18  1  0  0  0
 17 95  1  0  0  0
 18 19  2  0  0  0
 18 96  1  0  0  0
 19 20  1  0  0  0
 19 24  1  0  0  0
 20 21  2  0  0  0
 20 97  1  0  0  0
 21 23  1  0  0  0
 22 28  1  0  0  0
 22 32  2  0  0  0
 26 27  1  0  0  0
 28 98  1  0  0  0
 28 99  1  0  0  0
 29100  1  0  0  0
 29101  1  0  0  0
 33 34  1  0  0  0
 33 66  1  0  0  0
 33 70  2  0  0  0
 34 36  1  0  0  0
 34 59  1  0  0  0
 34102  1  0  0  0
 35 44  2  0  0  0
 35 45  1  0  0  0
 35 68  1  0  0  0
 36 56  1  0  0  0
 36103  1  0  0  0
 37 39  1  0  0  0
 37 47  1  0  0  0
 37 66  1  0  0  0
 37104  1  0  0  0
 38 43  2  0  0  0
 38 46  1  0  0  0
 38 47  1  0  0  0
 39 64  1  0  0  0
 39 67  2  0  0  0
 40 52  1  0  0  0
 40 53  2  0  0  0
 40 58  1  0  0  0
 41105  1  0  0  0
 41106  1  0  0  0
 41107  1  0  0  0
 41 48  1  0  0  0
 42 43  1  0  0  0
 42 66  1  0  0  0
 42108  1  0  0  0
 42109  1  0  0  0
 43 44  1  0  0  0
 44110  1  0  0  0
 45 46  2  0  0  0
 45111  1  0  0  0
 46112  1  0  0  0
 47113  1  0  0  0
 47114  1  0  0  0
 48 56  1  0  0  0
 48 65  1  0  0  0
 48115  1  0  0  0
 49 50  1  0  0  0
 49 53  1  0  0  0
 49 64  1  0  0  0
 49116  1  0  0  0
 50 51  1  0  0  0
 50117  1  0  0  0
 50118  1  0  0  0
 51 52  1  0  0  0
 51119  1  0  0  0
 51120  1  0  0  0
 52121  1  0  0  0
 52122  1  0  0  0
 53 54  1  0  0  0
 54 55  2  0  0  0
 54123  1  0  0  0
 55 57  1  0  0  0
 55124  1  0  0  0
 56 69  2  0  0  0
 57 58  2  0  0  0
 57125  1  0  0  0
 58126  1  0  0  0
 59 60  1  0  0  0
 59 61  1  0  0  0
 59 62  1  0  0  0
 60127  1  0  0  0
 60128  1  0  0  0
 60129  1  0  0  0
 61130  1  0  0  0
 61131  1  0  0  0
 61132  1  0  0  0
 62133  1  0  0  0
 62134  1  0  0  0
 62135  1  0  0  0
 63 65  1  0  0  0
 63136  1  0  0  0
 63137  1  0  0  0
 63138  1  0  0  0
 64139  1  0  0  0
 65140  1  0  0  0
 68 78  1  0  0  0
 71 72  2  0  0  0
 71 74  1  0  0  0
 71141  1  0  0  0
 72 75  1  0  0  0
 72142  1  0  0  0
 73 74  2  0  0  0
 73 79  1  0  0  0
 73143  1  0  0  0
 74 80  1  0  0  0
 75 79  2  0  0  0
 75 81  1  0  0  0
 76 81  1  0  0  0
 76144  1  0  0  0
 76145  1  0  0  0
 76146  1  0  0  0
 77 78  1  0  0  0
 77 81  1  0  0  0
 77147  1  0  0  0
 77148  1  0  0  0
 78149  1  0  0  0
 78150  1  0  0  0
 80151  1  0  0  0
M  ISO  4   1 100  68 101  78 101  80 100
M  END
> <chiral flag>
0

> <version>
0

> <s_m_source_file>
/data/baiqing/PycharmProjects/Reinvent-master-3.2/result/LINK_invent/BTK/process_docking_weight1_custom_sum_contain_oxygen_bond_distance_aromatic_linkinvent_7_9_3/rearranged_h_0010.sdf

> <i_m_source_file_index>
49

> <r_mmod_Potential_Energy-OPLS-2005>
239.760482788086

> <r_mmod_Stretch_Energy-OPLS-2005>
218.893936157227

> <r_mmod_Bend_Energy-OPLS-2005>
270.252899169922

> <r_mmod_Torsional_Energy-OPLS-2005>
258.032867431641

> <r_mmod_Improper_Torsional_Energy-OPLS-2005>
9.98287391662598

> <r_mmod_Van_der_Waal_Energy-OPLS-2005>
136.69416809082

> <r_mmod_Electrostatic_Energy-OPLS-2005>
-590.511901855469

> <r_mmod_Solvation_Energy-OPLS-2005>
-245.554107666016

> <b_mmod_Minimization_Converged-OPLS-2005>
0

> <r_mmod_RMS_Derivative-OPLS-2005>
1.63108575344086

$$$$
49
                    3D
 Structure written by MMmdl.
154162  0  0  1  0            999 V2000
  -30.6863  -14.4547   20.6094 C   0  0  0  0  0  0
  -30.4268  -12.3041   19.4225 C   0  0  0  0  0  0
  -29.5003  -12.5293   18.2087 C   0  0  0  0  0  0
  -28.0180  -12.3907   18.6112 C   0  0  0  0  0  0
  -27.6675  -13.2062   19.8836 C   0  0  2  0  0  0
  -28.7022  -12.9459   21.0006 C   0  0  0  0  0  0
  -25.2608  -13.8159   20.5675 C   0  0  0  0  0  0
  -24.1849  -13.0442   20.9153 C   0  0  0  0  0  0
  -24.6386  -11.6908   20.8712 C   0  0  0  0  0  0
  -23.9054  -10.4294   21.0398 C   0  0  0  0  0  0
  -24.3609   -9.4216   21.9180 C   0  0  0  0  0  0
  -23.6286   -8.2251   22.0755 C   0  0  0  0  0  0
  -22.4265   -8.0285   21.3549 C   0  0  0  0  0  0
  -21.9896   -9.0259   20.4648 C   0  0  0  0  0  0
  -22.7226  -10.2137   20.3054 C   0  0  0  0  0  0
  -21.6854   -6.0732   22.5280 C   0  0  0  0  0  0
  -21.4020   -6.5635   23.8213 C   0  0  0  0  0  0
  -21.3667   -5.6791   24.9175 C   0  0  0  0  0  0
  -21.6047   -4.3054   24.7225 C   0  0  0  0  0  0
  -21.8820   -3.8143   23.4346 C   0  0  0  0  0  0
  -21.9194   -4.6960   22.3406 C   0  0  0  0  0  0
  -22.7873  -13.5251   21.1824 C   0  0  0  0  0  0
  -22.1662   -4.2146   21.0982 F   0  0  0  0  0  0
  -21.5628   -3.4539   25.7736 F   0  0  0  0  0  0
  -30.0425  -13.2627   20.4706 N   0  0  0  0  0  0
  -26.3048  -12.9331   20.3375 N   0  0  0  0  0  0
  -25.9307  -11.6492   20.5737 N   0  0  0  0  0  0
  -22.0514  -12.8261   22.0397 N   0  0  0  0  0  0
  -25.4325  -15.1880   20.4127 N   0  0  0  0  0  0
  -31.7731  -14.7010   20.0774 O   0  0  0  0  0  0
  -21.6638   -6.8877   21.4243 O   0  0  0  0  0  0
  -22.3556  -14.5559   20.6679 O   0  0  0  0  0  0
  -24.6153  -31.8688   23.2093 C   0  0  0  0  0  0
  -25.9051  -32.4822   23.8394 C   0  0  1  0  0  0
  -27.2390  -27.4512   20.0949 C   0  0  0  0  0  0
  -25.5913  -33.8620   24.2338 N   0  0  0  0  0  0
  -23.4022  -30.4914   21.5500 C   0  0  2  0  0  0
  -24.8508  -28.9576   20.1132 C   0  0  0  0  0  0
  -22.7422  -29.4663   22.4997 C   0  0  0  0  0  0
  -18.0290  -28.1385   22.8506 C   0  0  0  0  0  0
  -24.1492  -36.7320   23.2629 C   0  0  0  0  0  0
  -25.9285  -30.8398   21.3574 C   0  0  0  0  0  0
  -26.0100  -29.4758   20.7050 C   0  0  0  0  0  0
  -27.2111  -28.7313   20.6887 C   0  0  0  0  0  0
  -26.0672  -26.9425   19.4985 C   0  0  0  0  0  0
  -24.8739  -27.6900   19.5047 C   0  0  0  0  0  0
  -23.6104  -29.8211   20.1645 C   0  0  0  0  0  0
  -25.4104  -36.3107   24.0335 C   0  0  1  0  0  0
  -20.5874  -28.3652   23.1318 C   0  0  2  0  0  0
  -20.6764  -26.9379   22.5435 C   0  0  0  0  0  0
  -19.5745  -26.6374   21.5227 C   0  0  0  0  0  0
  -18.1939  -26.7908   22.1674 C   0  0  0  0  0  0
  -19.1544  -28.8837   23.2898 C   0  0  0  0  0  0
  -18.9498  -30.1444   23.8926 C   0  0  0  0  0  0
  -17.6512  -30.6580   24.0619 C   0  0  0  0  0  0
  -25.9030  -34.9472   23.5131 C   0  0  0  0  0  0
  -16.5391  -29.9095   23.6388 C   0  0  0  0  0  0
  -16.7291  -28.6522   23.0374 C   0  0  0  0  0  0
  -26.4476  -31.6583   25.0707 C   0  0  0  0  0  0
  -25.3760  -31.3677   26.1469 C   0  0  0  0  0  0
  -27.0289  -30.3035   24.6035 C   0  0  0  0  0  0
  -27.6062  -32.4276   25.7468 C   0  0  0  0  0  0
  -27.5582  -37.1809   24.8460 C   0  0  0  0  0  0
  -21.4150  -29.3007   22.3722 N   0  0  0  0  0  0
  -26.4297  -37.3780   23.9400 N   0  0  0  0  0  0
  -24.6668  -31.0793   22.0984 N   0  0  0  0  0  0
  -23.4198  -28.8230   23.3045 O   0  0  0  0  0  0
  -28.3920  -26.6999   20.1052 O   0  0  0  0  0  0
  -26.5576  -34.8922   22.4683 O   0  0  0  0  0  0
  -23.5352  -32.1436   23.7506 O   0  0  0  0  0  0
  -28.4030  -18.6617   21.8517 C   0  0  0  0  0  0
  -28.9773  -17.3979   22.1021 C   0  0  0  0  0  0
  -29.2639  -18.5987   19.5834 C   0  0  0  0  0  0
  -28.5092  -19.2573   20.5774 C   0  0  0  0  0  0
  -29.6680  -16.6944   21.0886 C   0  0  0  0  0  0
  -29.8290  -17.3249   19.8236 C   0  0  0  0  0  0
  -28.2080  -22.8886   20.6826 C   0  0  0  0  0  0
  -27.6839  -20.5009   20.2437 C   0  0  0  0  0  0
  -28.6189  -24.2147   20.0091 C   0  0  0  0  0  0
  -28.2932  -25.4747   20.8510 C   0  0  0  0  0  0
  -30.0495  -15.3470   21.3901 N   0  0  0  0  0  0
  -28.4168  -21.7481   20.0020 N   0  0  0  0  0  0
  -27.6503  -22.8955   21.7829 O   0  0  0  0  0  0
  -30.4492  -16.7017   18.7959 F   0  0  0  0  0  0
  -31.4729  -12.4081   19.1284 H   0  0  0  0  0  0
  -30.3243  -11.2845   19.7967 H   0  0  0  0  0  0
  -29.7399  -11.8234   17.4123 H   0  0  0  0  0  0
  -29.6754  -13.5245   17.7965 H   0  0  0  0  0  0
  -27.8138  -11.3325   18.7801 H   0  0  0  0  0  0
  -27.3760  -12.6969   17.7849 H   0  0  0  0  0  0
  -27.7240  -14.2621   19.6149 H   0  0  0  0  0  0
  -28.6730  -11.8979   21.3056 H   0  0  0  0  0  0
  -28.4460  -13.5086   21.8991 H   0  0  0  0  0  0
  -25.2756   -9.5695   22.4750 H   0  0  0  0  0  0
  -23.9997   -7.4644   22.7473 H   0  0  0  0  0  0
  -21.0830   -8.8786   19.8949 H   0  0  0  0  0  0
  -22.3692  -10.9678   19.6166 H   0  0  0  0  0  0
  -21.2019   -7.6141   23.9720 H   0  0  0  0  0  0
  -21.1485   -6.0514   25.9078 H   0  0  0  0  0  0
  -22.0585   -2.7602   23.2849 H   0  0  0  0  0  0
  -22.4115  -11.9928   22.4813 H   0  0  0  0  0  0
  -21.1138  -13.1307   22.2599 H   0  0  0  0  0  0
  -24.6699  -15.8460   20.5328 H   0  0  0  0  0  0
  -26.2963  -15.6305   20.1256 H   0  0  0  0  0  0
  -26.7132  -32.5524   23.1171 H   0  0  0  0  0  0
  -25.0116  -33.9779   25.0520 H   0  0  0  0  0  0
  -22.6893  -31.3063   21.4099 H   0  0  0  0  0  0
  -23.3738  -35.9669   23.3298 H   0  0  0  0  0  0
  -24.3607  -36.8924   22.2044 H   0  0  0  0  0  0
  -23.7263  -37.6534   23.6642 H   0  0  0  0  0  0
  -26.0312  -31.6050   20.5871 H   0  0  0  0  0  0
  -26.8193  -30.8984   21.9710 H   0  0  0  0  0  0
  -28.1077  -29.1275   21.1452 H   0  0  0  0  0  0
  -26.0785  -25.9680   19.0326 H   0  0  0  0  0  0
  -23.9864  -27.2841   19.0389 H   0  0  0  0  0  0
  -23.7131  -30.5933   19.4009 H   0  0  0  0  0  0
  -22.7371  -29.2366   19.8728 H   0  0  0  0  0  0
  -25.1279  -36.1990   25.0829 H   0  0  0  0  0  0
  -20.9948  -28.3242   24.1442 H   0  0  0  0  0  0
  -20.5624  -26.2268   23.3626 H   0  0  0  0  0  0
  -21.6645  -26.7392   22.1265 H   0  0  0  0  0  0
  -19.6902  -25.6290   21.1244 H   0  0  0  0  0  0
  -19.6672  -27.3198   20.6762 H   0  0  0  0  0  0
  -17.4181  -26.6591   21.4114 H   0  0  0  0  0  0
  -18.0399  -26.0073   22.9112 H   0  0  0  0  0  0
  -19.7995  -30.7231   24.2294 H   0  0  0  0  0  0
  -17.5094  -31.6246   24.5248 H   0  0  0  0  0  0
  -15.5407  -30.3003   23.7754 H   0  0  0  0  0  0
  -15.8677  -28.0863   22.7083 H   0  0  0  0  0  0
  -24.5948  -30.7000   25.7819 H   0  0  0  0  0  0
  -24.8936  -32.2823   26.4927 H   0  0  0  0  0  0
  -25.8140  -30.8860   27.0223 H   0  0  0  0  0  0
  -26.2819  -29.6811   24.1098 H   0  0  0  0  0  0
  -27.4091  -29.7242   25.4457 H   0  0  0  0  0  0
  -27.8640  -30.4354   23.9150 H   0  0  0  0  0  0
  -27.2706  -33.3563   26.2091 H   0  0  0  0  0  0
  -28.3860  -32.6852   25.0288 H   0  0  0  0  0  0
  -28.0749  -31.8369   26.5349 H   0  0  0  0  0  0
  -28.2595  -38.0105   24.7496 H   0  0  0  0  0  0
  -28.1079  -36.2637   24.6298 H   0  0  0  0  0  0
  -27.2306  -37.1472   25.8862 H   0  0  0  0  0  0
  -20.9330  -29.8705   21.6915 H   0  0  0  0  0  0
  -26.0194  -38.2869   24.1367 H   0  0  0  0  0  0
  -27.8274  -19.1473   22.6291 H   0  0  0  0  0  0
  -28.8349  -16.9495   23.0753 H   0  0  0  0  0  0
  -29.3514  -19.0359   18.5989 H   0  0  0  0  0  0
  -26.9108  -20.6311   21.0046 H   0  0  0  0  0  0
  -27.1309  -20.2814   19.3292 H   0  0  0  0  0  0
  -28.0878  -24.2760   19.0596 H   0  0  0  0  0  0
  -29.6825  -24.1890   19.7714 H   0  0  0  0  0  0
  -28.9988  -25.5386   21.6804 H   0  0  0  0  0  0
  -27.3113  -25.3772   21.3182 H   0  0  0  0  0  0
  -29.4465  -14.9074   22.0677 H   0  0  0  0  0  0
  -28.9195  -21.8124   19.1267 H   0  0  0  0  0  0
  1 25  1  0  0  0
  1 30  2  0  0  0
  1 81  1  0  0  0
  2  3  1  0  0  0
  2 25  1  0  0  0
  2 85  1  0  0  0
  2 86  1  0  0  0
  3  4  1  0  0  0
  3 87  1  0  0  0
  3 88  1  0  0  0
  4  5  1  0  0  0
  4 89  1  0  0  0
  4 90  1  0  0  0
  5  6  1  0  0  0
  5 26  1  0  0  0
  5 91  1  0  0  0
  6 25  1  0  0  0
  6 92  1  0  0  0
  6 93  1  0  0  0
  7  8  2  0  0  0
  7 26  1  0  0  0
  7 29  1  0  0  0
  8  9  1  0  0  0
  8 22  1  0  0  0
  9 10  1  0  0  0
  9 27  2  0  0  0
 10 11  2  0  0  0
 10 15  1  0  0  0
 11 12  1  0  0  0
 11 94  1  0  0  0
 12 13  2  0  0  0
 12 95  1  0  0  0
 13 14  1  0  0  0
 13 31  1  0  0  0
 14 15  2  0  0  0
 14 96  1  0  0  0
 15 97  1  0  0  0
 16 17  2  0  0  0
 16 21  1  0  0  0
 16 31  1  0  0  0
 17 18  1  0  0  0
 17 98  1  0  0  0
 18 19  2  0  0  0
 18 99  1  0  0  0
 19 20  1  0  0  0
 19 24  1  0  0  0
 20 21  2  0  0  0
 20100  1  0  0  0
 21 23  1  0  0  0
 22 28  1  0  0  0
 22 32  2  0  0  0
 26 27  1  0  0  0
 28101  1  0  0  0
 28102  1  0  0  0
 29103  1  0  0  0
 29104  1  0  0  0
 33 34  1  0  0  0
 33 66  1  0  0  0
 33 70  2  0  0  0
 34 36  1  0  0  0
 34 59  1  0  0  0
 34105  1  0  0  0
 35 44  2  0  0  0
 35 45  1  0  0  0
 35 68  1  0  0  0
 36 56  1  0  0  0
 36106  1  0  0  0
 37 39  1  0  0  0
 37 47  1  0  0  0
 37 66  1  0  0  0
 37107  1  0  0  0
 38 43  2  0  0  0
 38 46  1  0  0  0
 38 47  1  0  0  0
 39 64  1  0  0  0
 39 67  2  0  0  0
 40 52  1  0  0  0
 40 53  2  0  0  0
 40 58  1  0  0  0
 41108  1  0  0  0
 41109  1  0  0  0
 41110  1  0  0  0
 41 48  1  0  0  0
 42 43  1  0  0  0
 42 66  1  0  0  0
 42111  1  0  0  0
 42112  1  0  0  0
 43 44  1  0  0  0
 44113  1  0  0  0
 45 46  2  0  0  0
 45114  1  0  0  0
 46115  1  0  0  0
 47116  1  0  0  0
 47117  1  0  0  0
 48 56  1  0  0  0
 48 65  1  0  0  0
 48118  1  0  0  0
 49 50  1  0  0  0
 49 53  1  0  0  0
 49 64  1  0  0  0
 49119  1  0  0  0
 50 51  1  0  0  0
 50120  1  0  0  0
 50121  1  0  0  0
 51 52  1  0  0  0
 51122  1  0  0  0
 51123  1  0  0  0
 52124  1  0  0  0
 52125  1  0  0  0
 53 54  1  0  0  0
 54 55  2  0  0  0
 54126  1  0  0  0
 55 57  1  0  0  0
 55127  1  0  0  0
 56 69  2  0  0  0
 57 58  2  0  0  0
 57128  1  0  0  0
 58129  1  0  0  0
 59 60  1  0  0  0
 59 61  1  0  0  0
 59 62  1  0  0  0
 60130  1  0  0  0
 60131  1  0  0  0
 60132  1  0  0  0
 61133  1  0  0  0
 61134  1  0  0  0
 61135  1  0  0  0
 62136  1  0  0  0
 62137  1  0  0  0
 62138  1  0  0  0
 63 65  1  0  0  0
 63139  1  0  0  0
 63140  1  0  0  0
 63141  1  0  0  0
 64142  1  0  0  0
 65143  1  0  0  0
 68 80  1  0  0  0
 71 72  2  0  0  0
 71 74  1  0  0  0
 71144  1  0  0  0
 72 75  1  0  0  0
 72145  1  0  0  0
 73 74  2  0  0  0
 73 76  1  0  0  0
 73146  1  0  0  0
 74 78  1  0  0  0
 75 76  2  0  0  0
 75 81  1  0  0  0
 76 84  1  0  0  0
 77 79  1  0  0  0
 77 82  1  0  0  0
 77 83  2  0  0  0
 78 82  1  0  0  0
 78147  1  0  0  0
 78148  1  0  0  0
 79 80  1  0  0  0
 79149  1  0  0  0
 79150  1  0  0  0
 80151  1  0  0  0
 80152  1  0  0  0
 81153  1  0  0  0
 82154  1  0  0  0
M  ISO  4   1 100  68 101  80 101  81 100
M  END
> <chiral flag>
0

> <version>
0

> <s_m_source_file>
/data/baiqing/PycharmProjects/Reinvent-master-3.2/result/LINK_invent/BTK/process_docking_weight1_custom_sum_contain_oxygen_bond_distance_aromatic_linkinvent_7_9_3/rearranged_h_0010.sdf

> <i_m_source_file_index>
50

> <r_mmod_Potential_Energy-OPLS-2005>
-147.363967895508

> <r_mmod_Stretch_Energy-OPLS-2005>
36.5288619995117

> <r_mmod_Bend_Energy-OPLS-2005>
97.2977066040039

> <r_mmod_Torsional_Energy-OPLS-2005>
257.606018066406

> <r_mmod_Improper_Torsional_Energy-OPLS-2005>
6.08925580978394

> <r_mmod_Van_der_Waal_Energy-OPLS-2005>
153.309143066406

> <r_mmod_Electrostatic_Energy-OPLS-2005>
-466.442565917969

> <r_mmod_Solvation_Energy-OPLS-2005>
-242.020217895508

> <b_mmod_Minimization_Converged-OPLS-2005>
0

> <r_mmod_RMS_Derivative-OPLS-2005>
1.86675834655762

$$$$
50
                    3D
 Structure written by MMmdl.
158166  0  0  1  0            999 V2000
  -30.6322  -14.6163   20.5055 C   0  0  0  0  0  0
  -30.4376  -12.3874   19.4296 C   0  0  0  0  0  0
  -29.4961  -12.5153   18.2113 C   0  0  0  0  0  0
  -28.0215  -12.3553   18.6315 C   0  0  0  0  0  0
  -27.6553  -13.2156   19.8695 C   0  0  2  0  0  0
  -28.7066  -13.0446   20.9902 C   0  0  0  0  0  0
  -25.2559  -13.8159   20.5706 C   0  0  0  0  0  0
  -24.1818  -13.0415   20.9169 C   0  0  0  0  0  0
  -24.6395  -11.6893   20.8720 C   0  0  0  0  0  0
  -23.9059  -10.4277   21.0390 C   0  0  0  0  0  0
  -24.3607   -9.4198   21.9177 C   0  0  0  0  0  0
  -23.6285   -8.2233   22.0750 C   0  0  0  0  0  0
  -22.4269   -8.0270   21.3539 C   0  0  0  0  0  0
  -21.9903   -9.0239   20.4640 C   0  0  0  0  0  0
  -22.7225  -10.2122   20.3051 C   0  0  0  0  0  0
  -21.6853   -6.0732   22.5274 C   0  0  0  0  0  0
  -21.4009   -6.5636   23.8204 C   0  0  0  0  0  0
  -21.3655   -5.6790   24.9165 C   0  0  0  0  0  0
  -21.6044   -4.3052   24.7220 C   0  0  0  0  0  0
  -21.8828   -3.8144   23.4341 C   0  0  0  0  0  0
  -21.9190   -4.6961   22.3393 C   0  0  0  0  0  0
  -22.7837  -13.5207   21.1832 C   0  0  0  0  0  0
  -22.1662   -4.2146   21.0972 F   0  0  0  0  0  0
  -21.5628   -3.4540   25.7734 F   0  0  0  0  0  0
  -30.0216  -13.3928   20.4265 N   0  0  0  0  0  0
  -26.3006  -12.9353   20.3384 N   0  0  0  0  0  0
  -25.9336  -11.6504   20.5780 N   0  0  0  0  0  0
  -22.0493  -12.8196   22.0397 N   0  0  0  0  0  0
  -25.4251  -15.1884   20.4201 N   0  0  0  0  0  0
  -31.7899  -14.7811   20.1091 O   0  0  0  0  0  0
  -21.6631   -6.8870   21.4235 O   0  0  0  0  0  0
  -22.3517  -14.5518   20.6688 O   0  0  0  0  0  0
  -24.6264  -31.8587   23.2044 C   0  0  0  0  0  0
  -25.9130  -32.4756   23.8343 C   0  0  1  0  0  0
  -27.2232  -27.3213   20.1072 C   0  0  0  0  0  0
  -25.5974  -33.8557   24.2283 N   0  0  0  0  0  0
  -23.4185  -30.4859   21.5452 C   0  0  2  0  0  0
  -24.8649  -28.9422   20.1071 C   0  0  0  0  0  0
  -22.7467  -29.4619   22.4907 C   0  0  0  0  0  0
  -18.0286  -28.1377   22.8453 C   0  0  0  0  0  0
  -24.1491  -36.7260   23.2652 C   0  0  0  0  0  0
  -25.9622  -30.7861   21.3794 C   0  0  0  0  0  0
  -26.0349  -29.4178   20.7135 C   0  0  0  0  0  0
  -27.2163  -28.6189   20.7042 C   0  0  0  0  0  0
  -26.0279  -26.9003   19.4765 C   0  0  0  0  0  0
  -24.8624  -27.6879   19.4810 C   0  0  0  0  0  0
  -23.6362  -29.8274   20.1569 C   0  0  0  0  0  0
  -25.4116  -36.3053   24.0347 C   0  0  1  0  0  0
  -20.5884  -28.3666   23.1252 C   0  0  2  0  0  0
  -20.6782  -26.9390   22.5390 C   0  0  0  0  0  0
  -19.5762  -26.6371   21.5189 C   0  0  0  0  0  0
  -18.1925  -26.7913   22.1596 C   0  0  0  0  0  0
  -19.1540  -28.8838   23.2832 C   0  0  0  0  0  0
  -18.9494  -30.1442   23.8854 C   0  0  0  0  0  0
  -17.6507  -30.6585   24.0554 C   0  0  0  0  0  0
  -25.9071  -34.9431   23.5096 C   0  0  0  0  0  0
  -16.5380  -29.9083   23.6341 C   0  0  0  0  0  0
  -16.7274  -28.6510   23.0342 C   0  0  0  0  0  0
  -26.4546  -31.6574   25.0705 C   0  0  0  0  0  0
  -25.3810  -31.3684   26.1446 C   0  0  0  0  0  0
  -27.0425  -30.3011   24.6161 C   0  0  0  0  0  0
  -27.6093  -32.4322   25.7485 C   0  0  0  0  0  0
  -27.5564  -37.1778   24.8478 C   0  0  0  0  0  0
  -21.4192  -29.3021   22.3647 N   0  0  0  0  0  0
  -26.4279  -37.3764   23.9435 N   0  0  0  0  0  0
  -24.6869  -31.0611   22.0992 N   0  0  0  0  0  0
  -23.4192  -28.8155   23.2974 O   0  0  0  0  0  0
  -28.3434  -26.4739   20.1554 O   0  0  0  0  0  0
  -26.5615  -34.8908   22.4641 O   0  0  0  0  0  0
  -23.5445  -32.1399   23.7406 O   0  0  0  0  0  0
  -31.0526  -19.2396   20.2337 C   0  0  0  0  0  0
  -31.0545  -17.8181   20.3074 C   0  0  0  0  0  0
  -28.7917  -19.3097   21.0326 C   0  0  0  0  0  0
  -29.9324  -20.0452   20.6043 C   0  0  0  0  0  0
  -29.9207  -17.1011   20.7598 C   0  0  0  0  0  0
  -28.7859  -17.8783   21.1237 C   0  0  0  0  0  0
  -29.0091  -22.4455   20.3620 C   0  0  0  0  0  0
  -31.3816  -22.0771   20.7962 C   0  0  0  0  0  0
  -27.0628  -17.6318   22.7438 C   0  0  0  0  0  0
  -29.2896  -24.0126   20.3752 C   0  0  0  0  0  0
  -28.1209  -25.0172   19.9948 C   0  0  0  0  0  0
  -29.8296  -15.6504   20.8952 N   0  0  0  0  0  0
  -30.0278  -21.5280   20.5951 N   0  0  0  0  0  0
  -27.8525  -22.0812   20.1324 O   0  0  0  0  0  0
  -27.6706  -17.1843   21.5361 O   0  0  0  0  0  0
  -31.4742  -12.5183   19.1159 H   0  0  0  0  0  0
  -30.3806  -11.3852   19.8563 H   0  0  0  0  0  0
  -29.7503  -11.7706   17.4557 H   0  0  0  0  0  0
  -29.6360  -13.4878   17.7373 H   0  0  0  0  0  0
  -27.8551  -11.3001   18.8542 H   0  0  0  0  0  0
  -27.3621  -12.5977   17.7967 H   0  0  0  0  0  0
  -27.6785  -14.2549   19.5420 H   0  0  0  0  0  0
  -28.7202  -12.0121   21.3456 H   0  0  0  0  0  0
  -28.4618  -13.6550   21.8594 H   0  0  0  0  0  0
  -25.2765   -9.5676   22.4738 H   0  0  0  0  0  0
  -23.9993   -7.4633   22.7482 H   0  0  0  0  0  0
  -21.0830   -8.8761   19.8952 H   0  0  0  0  0  0
  -22.3688  -10.9656   19.6154 H   0  0  0  0  0  0
  -21.2008   -7.6144   23.9705 H   0  0  0  0  0  0
  -21.1465   -6.0519   25.9066 H   0  0  0  0  0  0
  -22.0613   -2.7608   23.2841 H   0  0  0  0  0  0
  -22.4118  -11.9855   22.4760 H   0  0  0  0  0  0
  -21.1118  -13.1220   22.2610 H   0  0  0  0  0  0
  -24.6663  -15.8438   20.5732 H   0  0  0  0  0  0
  -26.3023  -15.6493   20.2084 H   0  0  0  0  0  0
  -26.7175  -32.5431   23.1072 H   0  0  0  0  0  0
  -25.0179  -33.9692   25.0468 H   0  0  0  0  0  0
  -22.7114  -31.3057   21.4039 H   0  0  0  0  0  0
  -23.3760  -35.9580   23.3308 H   0  0  0  0  0  0
  -24.3577  -36.8893   22.2065 H   0  0  0  0  0  0
  -23.7226  -37.6452   23.6682 H   0  0  0  0  0  0
  -26.1047  -31.5573   20.6212 H   0  0  0  0  0  0
  -26.8380  -30.8222   22.0159 H   0  0  0  0  0  0
  -28.1114  -28.9778   21.1929 H   0  0  0  0  0  0
  -25.9609  -25.9454   18.9773 H   0  0  0  0  0  0
  -23.9662  -27.3165   19.0022 H   0  0  0  0  0  0
  -23.7635  -30.6114   19.4076 H   0  0  0  0  0  0
  -22.7535  -29.2658   19.8464 H   0  0  0  0  0  0
  -25.1278  -36.1890   25.0840 H   0  0  0  0  0  0
  -20.9968  -28.3271   24.1380 H   0  0  0  0  0  0
  -20.5698  -26.2293   23.3602 H   0  0  0  0  0  0
  -21.6644  -26.7431   22.1179 H   0  0  0  0  0  0
  -19.6948  -25.6289   21.1212 H   0  0  0  0  0  0
  -19.6718  -27.3197   20.6727 H   0  0  0  0  0  0
  -17.4206  -26.6658   21.3985 H   0  0  0  0  0  0
  -18.0305  -26.0056   22.8998 H   0  0  0  0  0  0
  -19.7996  -30.7219   24.2223 H   0  0  0  0  0  0
  -17.5097  -31.6277   24.5135 H   0  0  0  0  0  0
  -15.5390  -30.2987   23.7721 H   0  0  0  0  0  0
  -15.8665  -28.0847   22.7056 H   0  0  0  0  0  0
  -24.5994  -30.7016   25.7787 H   0  0  0  0  0  0
  -24.9004  -32.2851   26.4872 H   0  0  0  0  0  0
  -25.8167  -30.8869   27.0209 H   0  0  0  0  0  0
  -26.2986  -29.6673   24.1326 H   0  0  0  0  0  0
  -27.4311  -29.7326   25.4617 H   0  0  0  0  0  0
  -27.8768  -30.4305   23.9260 H   0  0  0  0  0  0
  -27.2691  -33.3661   26.1958 H   0  0  0  0  0  0
  -28.3956  -32.6811   25.0349 H   0  0  0  0  0  0
  -28.0692  -31.8513   26.5492 H   0  0  0  0  0  0
  -28.2559  -38.0094   24.7518 H   0  0  0  0  0  0
  -28.1067  -36.2614   24.6292 H   0  0  0  0  0  0
  -27.2278  -37.1404   25.8881 H   0  0  0  0  0  0
  -20.9388  -29.8733   21.6834 H   0  0  0  0  0  0
  -26.0143  -38.2818   24.1488 H   0  0  0  0  0  0
  -31.9595  -19.7057   19.8784 H   0  0  0  0  0  0
  -31.9538  -17.2936   20.0173 H   0  0  0  0  0  0
  -27.8985  -19.8524   21.3012 H   0  0  0  0  0  0
  -32.0382  -21.3845   21.3221 H   0  0  0  0  0  0
  -31.3999  -22.9726   21.4161 H   0  0  0  0  0  0
  -31.8402  -22.3151   19.8350 H   0  0  0  0  0  0
  -26.1598  -17.0521   22.9353 H   0  0  0  0  0  0
  -26.7673  -18.6799   22.7227 H   0  0  0  0  0  0
  -27.7367  -17.4753   23.5880 H   0  0  0  0  0  0
  -30.1254  -24.2064   19.7032 H   0  0  0  0  0  0
  -29.6250  -24.2742   21.3777 H   0  0  0  0  0  0
  -27.2466  -24.7372   20.5852 H   0  0  0  0  0  0
  -27.8619  -24.8297   18.9511 H   0  0  0  0  0  0
  -28.9288  -15.3427   21.2298 H   0  0  0  0  0  0
  1 25  1  0  0  0
  1 30  2  0  0  0
  1 82  1  0  0  0
  2  3  1  0  0  0
  2 25  1  0  0  0
  2 86  1  0  0  0
  2 87  1  0  0  0
  3  4  1  0  0  0
  3 88  1  0  0  0
  3 89  1  0  0  0
  4  5  1  0  0  0
  4 90  1  0  0  0
  4 91  1  0  0  0
  5  6  1  0  0  0
  5 26  1  0  0  0
  5 92  1  0  0  0
  6 25  1  0  0  0
  6 93  1  0  0  0
  6 94  1  0  0  0
  7  8  2  0  0  0
  7 26  1  0  0  0
  7 29  1  0  0  0
  8  9  1  0  0  0
  8 22  1  0  0  0
  9 10  1  0  0  0
  9 27  2  0  0  0
 10 11  2  0  0  0
 10 15  1  0  0  0
 11 12  1  0  0  0
 11 95  1  0  0  0
 12 13  2  0  0  0
 12 96  1  0  0  0
 13 14  1  0  0  0
 13 31  1  0  0  0
 14 15  2  0  0  0
 14 97  1  0  0  0
 15 98  1  0  0  0
 16 17  2  0  0  0
 16 21  1  0  0  0
 16 31  1  0  0  0
 17 18  1  0  0  0
 17 99  1  0  0  0
 18 19  2  0  0  0
 18100  1  0  0  0
 19 20  1  0  0  0
 19 24  1  0  0  0
 20 21  2  0  0  0
 20101  1  0  0  0
 21 23  1  0  0  0
 22 28  1  0  0  0
 22 32  2  0  0  0
 26 27  1  0  0  0
 28102  1  0  0  0
 28103  1  0  0  0
 29104  1  0  0  0
 29105  1  0  0  0
 33 34  1  0  0  0
 33 66  1  0  0  0
 33 70  2  0  0  0
 34 36  1  0  0  0
 34 59  1  0  0  0
 34106  1  0  0  0
 35 44  2  0  0  0
 35 45  1  0  0  0
 35 68  1  0  0  0
 36 56  1  0  0  0
 36107  1  0  0  0
 37 39  1  0  0  0
 37 47  1  0  0  0
 37 66  1  0  0  0
 37108  1  0  0  0
 38 43  2  0  0  0
 38 46  1  0  0  0
 38 47  1  0  0  0
 39 64  1  0  0  0
 39 67  2  0  0  0
 40 52  1  0  0  0
 40 53  2  0  0  0
 40 58  1  0  0  0
 41109  1  0  0  0
 41110  1  0  0  0
 41111  1  0  0  0
 41 48  1  0  0  0
 42 43  1  0  0  0
 42 66  1  0  0  0
 42112  1  0  0  0
 42113  1  0  0  0
 43 44  1  0  0  0
 44114  1  0  0  0
 45 46  2  0  0  0
 45115  1  0  0  0
 46116  1  0  0  0
 47117  1  0  0  0
 47118  1  0  0  0
 48 56  1  0  0  0
 48 65  1  0  0  0
 48119  1  0  0  0
 49 50  1  0  0  0
 49 53  1  0  0  0
 49 64  1  0  0  0
 49120  1  0  0  0
 50 51  1  0  0  0
 50121  1  0  0  0
 50122  1  0  0  0
 51 52  1  0  0  0
 51123  1  0  0  0
 51124  1  0  0  0
 52125  1  0  0  0
 52126  1  0  0  0
 53 54  1  0  0  0
 54 55  2  0  0  0
 54127  1  0  0  0
 55 57  1  0  0  0
 55128  1  0  0  0
 56 69  2  0  0  0
 57 58  2  0  0  0
 57129  1  0  0  0
 58130  1  0  0  0
 59 60  1  0  0  0
 59 61  1  0  0  0
 59 62  1  0  0  0
 60131  1  0  0  0
 60132  1  0  0  0
 60133  1  0  0  0
 61134  1  0  0  0
 61135  1  0  0  0
 61136  1  0  0  0
 62137  1  0  0  0
 62138  1  0  0  0
 62139  1  0  0  0
 63 65  1  0  0  0
 63140  1  0  0  0
 63141  1  0  0  0
 63142  1  0  0  0
 64143  1  0  0  0
 65144  1  0  0  0
 68 81  1  0  0  0
 71 72  2  0  0  0
 71 74  1  0  0  0
 71145  1  0  0  0
 72 75  1  0  0  0
 72146  1  0  0  0
 73 74  2  0  0  0
 73 76  1  0  0  0
 73147  1  0  0  0
 74 83  1  0  0  0
 75 76  2  0  0  0
 75 82  1  0  0  0
 76 85  1  0  0  0
 77 80  1  0  0  0
 77 83  1  0  0  0
 77 84  2  0  0  0
 78 83  1  0  0  0
 78148  1  0  0  0
 78149  1  0  0  0
 78150  1  0  0  0
 79 85  1  0  0  0
 79151  1  0  0  0
 79152  1  0  0  0
 79153  1  0  0  0
 80 81  1  0  0  0
 80154  1  0  0  0
 80155  1  0  0  0
 81156  1  0  0  0
 81157  1  0  0  0
 82158  1  0  0  0
M  ISO  4   1 100  68 101  81 101  82 100
M  END
> <chiral flag>
0

> <version>
0

> <s_m_source_file>
/data/baiqing/PycharmProjects/Reinvent-master-3.2/result/LINK_invent/BTK/process_docking_weight1_custom_sum_contain_oxygen_bond_distance_aromatic_linkinvent_7_9_3/rearranged_h_0010.sdf

> <i_m_source_file_index>
51

> <r_mmod_Potential_Energy-OPLS-2005>
66.2804870605469

> <r_mmod_Stretch_Energy-OPLS-2005>
86.8629455566406

> <r_mmod_Bend_Energy-OPLS-2005>
143.294662475586

> <r_mmod_Torsional_Energy-OPLS-2005>
262.255218505859

> <r_mmod_Improper_Torsional_Energy-OPLS-2005>
3.90873265266418

> <r_mmod_Van_der_Waal_Energy-OPLS-2005>
164.3740234375

> <r_mmod_Electrostatic_Energy-OPLS-2005>
-425.054779052734

> <r_mmod_Solvation_Energy-OPLS-2005>
-213.33610534668

> <b_mmod_Minimization_Converged-OPLS-2005>
0

> <r_mmod_RMS_Derivative-OPLS-2005>
3.01515746116638

$$$$
51
                    3D
 Structure written by MMmdl.
149157  0  0  1  0            999 V2000
  -30.5170  -14.9006   20.4185 C   0  0  0  0  0  0
  -30.4522  -12.5532   19.4807 C   0  0  0  0  0  0
  -29.5226  -12.5332   18.2436 C   0  0  0  0  0  0
  -28.0516  -12.3254   18.6598 C   0  0  0  0  0  0
  -27.6360  -13.2358   19.8441 C   0  0  2  0  0  0
  -28.6836  -13.2117   20.9784 C   0  0  0  0  0  0
  -25.2476  -13.8152   20.5751 C   0  0  0  0  0  0
  -24.1783  -13.0392   20.9252 C   0  0  0  0  0  0
  -24.6386  -11.6882   20.8747 C   0  0  0  0  0  0
  -23.9062  -10.4261   21.0404 C   0  0  0  0  0  0
  -24.3605   -9.4187   21.9186 C   0  0  0  0  0  0
  -23.6280   -8.2227   22.0753 C   0  0  0  0  0  0
  -22.4268   -8.0262   21.3542 C   0  0  0  0  0  0
  -21.9898   -9.0241   20.4647 C   0  0  0  0  0  0
  -22.7227  -10.2115   20.3055 C   0  0  0  0  0  0
  -21.6847   -6.0726   22.5279 C   0  0  0  0  0  0
  -21.4009   -6.5632   23.8213 C   0  0  0  0  0  0
  -21.3661   -5.6783   24.9178 C   0  0  0  0  0  0
  -21.6042   -4.3045   24.7228 C   0  0  0  0  0  0
  -21.8819   -3.8139   23.4351 C   0  0  0  0  0  0
  -21.9193   -4.6954   22.3407 C   0  0  0  0  0  0
  -22.7805  -13.5191   21.1905 C   0  0  0  0  0  0
  -22.1660   -4.2143   21.0983 F   0  0  0  0  0  0
  -21.5636   -3.4527   25.7743 F   0  0  0  0  0  0
  -29.9667  -13.6246   20.3895 N   0  0  0  0  0  0
  -26.2904  -12.9386   20.3243 N   0  0  0  0  0  0
  -25.9316  -11.6522   20.5708 N   0  0  0  0  0  0
  -22.0434  -12.8187   22.0447 N   0  0  0  0  0  0
  -25.4041  -15.1875   20.4235 N   0  0  0  0  0  0
  -31.7128  -15.0343   20.1374 O   0  0  0  0  0  0
  -21.6626   -6.8866   21.4244 O   0  0  0  0  0  0
  -22.3495  -14.5495   20.6734 O   0  0  0  0  0  0
  -24.6415  -31.8463   23.1888 C   0  0  0  0  0  0
  -25.9203  -32.4705   23.8267 C   0  0  1  0  0  0
  -27.2261  -27.1625   20.1455 C   0  0  0  0  0  0
  -25.5961  -33.8507   24.2189 N   0  0  0  0  0  0
  -23.4437  -30.4653   21.5341 C   0  0  2  0  0  0
  -24.8943  -28.8959   20.1091 C   0  0  0  0  0  0
  -22.7561  -29.4557   22.4865 C   0  0  0  0  0  0
  -18.0310  -28.1388   22.8476 C   0  0  0  0  0  0
  -24.1499  -36.7257   23.2637 C   0  0  0  0  0  0
  -25.9972  -30.7292   21.3834 C   0  0  0  0  0  0
  -26.0708  -29.3428   20.7239 C   0  0  0  0  0  0
  -27.2376  -28.4922   20.7246 C   0  0  0  0  0  0
  -26.0205  -26.8106   19.4977 C   0  0  0  0  0  0
  -24.8812  -27.6419   19.4808 C   0  0  0  0  0  0
  -23.6680  -29.7924   20.1538 C   0  0  0  0  0  0
  -25.4129  -36.3027   24.0307 C   0  0  1  0  0  0
  -20.5920  -28.3716   23.1239 C   0  0  2  0  0  0
  -20.6795  -26.9423   22.5398 C   0  0  0  0  0  0
  -19.5766  -26.6380   21.5208 C   0  0  0  0  0  0
  -18.1951  -26.7933   22.1621 C   0  0  0  0  0  0
  -19.1563  -28.8872   23.2850 C   0  0  0  0  0  0
  -18.9476  -30.1474   23.8869 C   0  0  0  0  0  0
  -17.6468  -30.6587   24.0555 C   0  0  0  0  0  0
  -25.9074  -34.9405   23.5050 C   0  0  0  0  0  0
  -16.5364  -29.9073   23.6335 C   0  0  0  0  0  0
  -16.7295  -28.6491   23.0360 C   0  0  0  0  0  0
  -26.4522  -31.6567   25.0706 C   0  0  0  0  0  0
  -25.3703  -31.3767   26.1396 C   0  0  0  0  0  0
  -27.0380  -30.2960   24.6287 C   0  0  0  0  0  0
  -27.6053  -32.4331   25.7503 C   0  0  0  0  0  0
  -27.5578  -37.1786   24.8459 C   0  0  0  0  0  0
  -21.4256  -29.3044   22.3616 N   0  0  0  0  0  0
  -26.4288  -37.3741   23.9402 N   0  0  0  0  0  0
  -24.7137  -31.0347   22.0911 N   0  0  0  0  0  0
  -23.4211  -28.8116   23.3019 O   0  0  0  0  0  0
  -28.2901  -26.1941   20.2184 O   0  0  0  0  0  0
  -26.5650  -34.8908   22.4625 O   0  0  0  0  0  0
  -23.5543  -32.1325   23.7129 O   0  0  0  0  0  0
  -30.3845  -18.5321   20.9836 C   0  0  0  0  0  0
  -28.2450  -19.4899   19.5261 C   0  0  0  0  0  0
  -29.5920  -17.5009   20.3614 C   0  0  0  0  0  0
  -28.9996  -20.5300   20.1553 C   0  0  0  0  0  0
  -30.1133  -19.9696   20.8853 C   0  0  0  0  0  0
  -28.5148  -18.0750   19.6145 C   0  0  0  0  0  0
  -29.0058  -23.3651   20.3668 C   0  0  0  0  0  0
  -28.0210  -24.6821   20.0157 C   0  0  0  0  0  0
  -29.6336  -15.9886   20.5786 N   0  0  0  0  0  0
  -28.5423  -21.9371   19.9824 N   0  0  0  0  0  0
  -30.9436  -20.8202   21.5363 F   0  0  0  0  0  0
  -27.4510  -17.0159   18.7603 Cl  0  0  0  0  0  0
  -31.4846  -12.7233   19.1711 H   0  0  0  0  0  0
  -30.4452  -11.5862   19.9869 H   0  0  0  0  0  0
  -29.8319  -11.7504   17.5491 H   0  0  0  0  0  0
  -29.6178  -13.4762   17.7032 H   0  0  0  0  0  0
  -27.9324  -11.2785   18.9420 H   0  0  0  0  0  0
  -27.3910  -12.4882   17.8076 H   0  0  0  0  0  0
  -27.6109  -14.2464   19.4408 H   0  0  0  0  0  0
  -28.7600  -12.2143   21.4143 H   0  0  0  0  0  0
  -28.3929  -13.8773   21.7928 H   0  0  0  0  0  0
  -25.2748   -9.5673   22.4763 H   0  0  0  0  0  0
  -23.9990   -7.4618   22.7460 H   0  0  0  0  0  0
  -21.0838   -8.8757   19.8951 H   0  0  0  0  0  0
  -22.3682  -10.9658   19.6163 H   0  0  0  0  0  0
  -21.1991   -7.6135   23.9716 H   0  0  0  0  0  0
  -21.1487   -6.0511   25.9080 H   0  0  0  0  0  0
  -22.0598   -2.7603   23.2849 H   0  0  0  0  0  0
  -22.4036  -11.9852   22.4852 H   0  0  0  0  0  0
  -21.1049  -13.1226   22.2636 H   0  0  0  0  0  0
  -24.6127  -15.8126   20.5225 H   0  0  0  0  0  0
  -26.1933  -15.6302   19.9686 H   0  0  0  0  0  0
  -26.7274  -32.5323   23.1002 H   0  0  0  0  0  0
  -25.0100  -33.9624   25.0328 H   0  0  0  0  0  0
  -22.7438  -31.2890   21.3801 H   0  0  0  0  0  0
  -23.3760  -35.9590   23.3283 H   0  0  0  0  0  0
  -24.3578  -36.8906   22.2054 H   0  0  0  0  0  0
  -23.7270  -37.6457   23.6684 H   0  0  0  0  0  0
  -26.1492  -31.4888   20.6153 H   0  0  0  0  0  0
  -26.8679  -30.7780   22.0250 H   0  0  0  0  0  0
  -28.1341  -28.8317   21.2241 H   0  0  0  0  0  0
  -25.9228  -25.8503   19.0143 H   0  0  0  0  0  0
  -23.9823  -27.2937   18.9899 H   0  0  0  0  0  0
  -23.7954  -30.5646   19.3944 H   0  0  0  0  0  0
  -22.7857  -29.2270   19.8490 H   0  0  0  0  0  0
  -25.1325  -36.1837   25.0799 H   0  0  0  0  0  0
  -21.0008  -28.3307   24.1362 H   0  0  0  0  0  0
  -20.5696  -26.2332   23.3615 H   0  0  0  0  0  0
  -21.6663  -26.7442   22.1193 H   0  0  0  0  0  0
  -19.6929  -25.6283   21.1265 H   0  0  0  0  0  0
  -19.6707  -27.3167   20.6719 H   0  0  0  0  0  0
  -17.4222  -26.6676   21.4026 H   0  0  0  0  0  0
  -18.0351  -26.0081   22.9022 H   0  0  0  0  0  0
  -19.7952  -30.7303   24.2220 H   0  0  0  0  0  0
  -17.5022  -31.6269   24.5161 H   0  0  0  0  0  0
  -15.5362  -30.2957   23.7685 H   0  0  0  0  0  0
  -15.8699  -28.0800   22.7087 H   0  0  0  0  0  0
  -24.5880  -30.7127   25.7706 H   0  0  0  0  0  0
  -24.8895  -32.2954   26.4762 H   0  0  0  0  0  0
  -25.7969  -30.8969   27.0211 H   0  0  0  0  0  0
  -26.2989  -29.6695   24.1285 H   0  0  0  0  0  0
  -27.3972  -29.7262   25.4866 H   0  0  0  0  0  0
  -27.8908  -30.4186   23.9608 H   0  0  0  0  0  0
  -27.2637  -33.3640   26.2040 H   0  0  0  0  0  0
  -28.3891  -32.6881   25.0358 H   0  0  0  0  0  0
  -28.0690  -31.8487   26.5458 H   0  0  0  0  0  0
  -28.2581  -38.0096   24.7502 H   0  0  0  0  0  0
  -28.1091  -36.2622   24.6287 H   0  0  0  0  0  0
  -27.2290  -37.1433   25.8860 H   0  0  0  0  0  0
  -20.9464  -29.8741   21.6784 H   0  0  0  0  0  0
  -26.0150  -38.2811   24.1393 H   0  0  0  0  0  0
  -31.2145  -18.2244   21.6019 H   0  0  0  0  0  0
  -27.3839  -19.7757   18.9412 H   0  0  0  0  0  0
  -29.2216  -23.3694   21.4362 H   0  0  0  0  0  0
  -29.9685  -23.5255   19.8785 H   0  0  0  0  0  0
  -27.0893  -24.4831   20.5458 H   0  0  0  0  0  0
  -27.7770  -24.5797   18.9577 H   0  0  0  0  0  0
  -28.7008  -15.6206   20.6825 H   0  0  0  0  0  0
  -27.7083  -21.9875   19.4032 H   0  0  0  0  0  0
  1 25  1  0  0  0
  1 30  2  0  0  0
  1 79  1  0  0  0
  2  3  1  0  0  0
  2 25  1  0  0  0
  2 83  1  0  0  0
  2 84  1  0  0  0
  3  4  1  0  0  0
  3 85  1  0  0  0
  3 86  1  0  0  0
  4  5  1  0  0  0
  4 87  1  0  0  0
  4 88  1  0  0  0
  5  6  1  0  0  0
  5 26  1  0  0  0
  5 89  1  0  0  0
  6 25  1  0  0  0
  6 90  1  0  0  0
  6 91  1  0  0  0
  7  8  2  0  0  0
  7 26  1  0  0  0
  7 29  1  0  0  0
  8  9  1  0  0  0
  8 22  1  0  0  0
  9 10  1  0  0  0
  9 27  2  0  0  0
 10 11  2  0  0  0
 10 15  1  0  0  0
 11 12  1  0  0  0
 11 92  1  0  0  0
 12 13  2  0  0  0
 12 93  1  0  0  0
 13 14  1  0  0  0
 13 31  1  0  0  0
 14 15  2  0  0  0
 14 94  1  0  0  0
 15 95  1  0  0  0
 16 17  2  0  0  0
 16 21  1  0  0  0
 16 31  1  0  0  0
 17 18  1  0  0  0
 17 96  1  0  0  0
 18 19  2  0  0  0
 18 97  1  0  0  0
 19 20  1  0  0  0
 19 24  1  0  0  0
 20 21  2  0  0  0
 20 98  1  0  0  0
 21 23  1  0  0  0
 22 28  1  0  0  0
 22 32  2  0  0  0
 26 27  1  0  0  0
 28 99  1  0  0  0
 28100  1  0  0  0
 29101  1  0  0  0
 29102  1  0  0  0
 33 34  1  0  0  0
 33 66  1  0  0  0
 33 70  2  0  0  0
 34 36  1  0  0  0
 34 59  1  0  0  0
 34103  1  0  0  0
 35 44  2  0  0  0
 35 45  1  0  0  0
 35 68  1  0  0  0
 36 56  1  0  0  0
 36104  1  0  0  0
 37 39  1  0  0  0
 37 47  1  0  0  0
 37 66  1  0  0  0
 37105  1  0  0  0
 38 43  2  0  0  0
 38 46  1  0  0  0
 38 47  1  0  0  0
 39 64  1  0  0  0
 39 67  2  0  0  0
 40 52  1  0  0  0
 40 53  2  0  0  0
 40 58  1  0  0  0
 41106  1  0  0  0
 41107  1  0  0  0
 41108  1  0  0  0
 41 48  1  0  0  0
 42 43  1  0  0  0
 42 66  1  0  0  0
 42109  1  0  0  0
 42110  1  0  0  0
 43 44  1  0  0  0
 44111  1  0  0  0
 45 46  2  0  0  0
 45112  1  0  0  0
 46113  1  0  0  0
 47114  1  0  0  0
 47115  1  0  0  0
 48 56  1  0  0  0
 48 65  1  0  0  0
 48116  1  0  0  0
 49 50  1  0  0  0
 49 53  1  0  0  0
 49 64  1  0  0  0
 49117  1  0  0  0
 50 51  1  0  0  0
 50118  1  0  0  0
 50119  1  0  0  0
 51 52  1  0  0  0
 51120  1  0  0  0
 51121  1  0  0  0
 52122  1  0  0  0
 52123  1  0  0  0
 53 54  1  0  0  0
 54 55  2  0  0  0
 54124  1  0  0  0
 55 57  1  0  0  0
 55125  1  0  0  0
 56 69  2  0  0  0
 57 58  2  0  0  0
 57126  1  0  0  0
 58127  1  0  0  0
 59 60  1  0  0  0
 59 61  1  0  0  0
 59 62  1  0  0  0
 60128  1  0  0  0
 60129  1  0  0  0
 60130  1  0  0  0
 61131  1  0  0  0
 61132  1  0  0  0
 61133  1  0  0  0
 62134  1  0  0  0
 62135  1  0  0  0
 62136  1  0  0  0
 63 65  1  0  0  0
 63137  1  0  0  0
 63138  1  0  0  0
 63139  1  0  0  0
 64140  1  0  0  0
 65141  1  0  0  0
 68 78  1  0  0  0
 71 73  2  0  0  0
 71 75  1  0  0  0
 71142  1  0  0  0
 72 74  1  0  0  0
 72 76  2  0  0  0
 72143  1  0  0  0
 73 76  1  0  0  0
 73 79  1  0  0  0
 74 75  2  0  0  0
 74 80  1  0  0  0
 75 81  1  0  0  0
 76 82  1  0  0  0
 77 78  1  0  0  0
 77 80  1  0  0  0
 77144  1  0  0  0
 77145  1  0  0  0
 78146  1  0  0  0
 78147  1  0  0  0
 79148  1  0  0  0
 80149  1  0  0  0
M  ISO  4   1 100  68 101  78 101  79 100
M  END
> <chiral flag>
0

> <version>
0

> <s_m_source_file>
/data/baiqing/PycharmProjects/Reinvent-master-3.2/result/LINK_invent/BTK/process_docking_weight1_custom_sum_contain_oxygen_bond_distance_aromatic_linkinvent_7_9_3/rearranged_h_0010.sdf

> <i_m_source_file_index>
52

> <r_mmod_Potential_Energy-OPLS-2005>
423.627593994141

> <r_mmod_Stretch_Energy-OPLS-2005>
203.806121826172

> <r_mmod_Bend_Energy-OPLS-2005>
275.020599365234

> <r_mmod_Torsional_Energy-OPLS-2005>
221.817474365234

> <r_mmod_Improper_Torsional_Energy-OPLS-2005>
6.89699363708496

> <r_mmod_Van_der_Waal_Energy-OPLS-2005>
129.538711547852

> <r_mmod_Electrostatic_Energy-OPLS-2005>
-358.318756103516

> <r_mmod_Solvation_Energy-OPLS-2005>
-221.377883911133

> <b_mmod_Minimization_Converged-OPLS-2005>
0

> <r_mmod_RMS_Derivative-OPLS-2005>
1.78038763999939

$$$$
52
                    3D
 Structure written by MMmdl.
144152  0  0  1  0            999 V2000
  -30.3850  -15.3277   20.3658 C   0  0  0  0  0  0
  -30.4456  -12.8510   19.5301 C   0  0  0  0  0  0
  -29.5427  -12.5927   18.2947 C   0  0  0  0  0  0
  -28.0931  -12.3018   18.7218 C   0  0  0  0  0  0
  -27.6123  -13.2769   19.8239 C   0  0  2  0  0  0
  -28.6438  -13.4601   20.9581 C   0  0  0  0  0  0
  -25.2390  -13.8244   20.5741 C   0  0  0  0  0  0
  -24.1748  -13.0433   20.9266 C   0  0  0  0  0  0
  -24.6404  -11.6931   20.8762 C   0  0  0  0  0  0
  -23.9097  -10.4291   21.0406 C   0  0  0  0  0  0
  -24.3639   -9.4204   21.9185 C   0  0  0  0  0  0
  -23.6305   -8.2243   22.0755 C   0  0  0  0  0  0
  -22.4286   -8.0284   21.3545 C   0  0  0  0  0  0
  -21.9929   -9.0259   20.4645 C   0  0  0  0  0  0
  -22.7267  -10.2134   20.3055 C   0  0  0  0  0  0
  -21.6856   -6.0738   22.5279 C   0  0  0  0  0  0
  -21.4017   -6.5641   23.8212 C   0  0  0  0  0  0
  -21.3660   -5.6793   24.9174 C   0  0  0  0  0  0
  -21.6044   -4.3056   24.7224 C   0  0  0  0  0  0
  -21.8819   -3.8148   23.4345 C   0  0  0  0  0  0
  -21.9194   -4.6965   22.3402 C   0  0  0  0  0  0
  -22.7764  -13.5186   21.1909 C   0  0  0  0  0  0
  -22.1662   -4.2151   21.0979 F   0  0  0  0  0  0
  -21.5628   -3.4539   25.7737 F   0  0  0  0  0  0
  -29.8683  -13.9935   20.3350 N   0  0  0  0  0  0
  -26.2820  -12.9520   20.3210 N   0  0  0  0  0  0
  -25.9341  -11.6625   20.5712 N   0  0  0  0  0  0
  -22.0420  -12.8166   22.0460 N   0  0  0  0  0  0
  -25.4006  -15.1980   20.4151 N   0  0  0  0  0  0
  -31.6059  -15.3616   20.1430 O   0  0  0  0  0  0
  -21.6645   -6.8884   21.4242 O   0  0  0  0  0  0
  -22.3444  -14.5486   20.6745 O   0  0  0  0  0  0
  -24.6663  -31.8194   23.1674 C   0  0  0  0  0  0
  -25.9328  -32.4566   23.8152 C   0  0  1  0  0  0
  -27.2215  -26.8829   20.1950 C   0  0  0  0  0  0
  -25.5980  -33.8383   24.2052 N   0  0  0  0  0  0
  -23.4834  -30.4286   21.5174 C   0  0  2  0  0  0
  -24.9381  -28.8049   20.1166 C   0  0  0  0  0  0
  -22.7683  -29.4417   22.4772 C   0  0  0  0  0  0
  -18.0325  -28.1410   22.8464 C   0  0  0  0  0  0
  -24.1495  -36.7198   23.2647 C   0  0  0  0  0  0
  -26.0545  -30.6099   21.4065 C   0  0  0  0  0  0
  -26.1213  -29.1931   20.7569 C   0  0  0  0  0  0
  -27.2539  -28.2536   20.7730 C   0  0  0  0  0  0
  -26.0107  -26.6628   19.4964 C   0  0  0  0  0  0
  -24.9101  -27.5605   19.4665 C   0  0  0  0  0  0
  -23.7268  -29.7391   20.1462 C   0  0  0  0  0  0
  -25.4137  -36.2954   24.0295 C   0  0  1  0  0  0
  -20.5951  -28.3758   23.1180 C   0  0  2  0  0  0
  -20.6799  -26.9435   22.5402 C   0  0  0  0  0  0
  -19.5774  -26.6376   21.5214 C   0  0  0  0  0  0
  -18.1956  -26.7942   22.1621 C   0  0  0  0  0  0
  -19.1587  -28.8906   23.2808 C   0  0  0  0  0  0
  -18.9496  -30.1494   23.8846 C   0  0  0  0  0  0
  -17.6488  -30.6598   24.0554 C   0  0  0  0  0  0
  -25.9105  -34.9338   23.4999 C   0  0  0  0  0  0
  -16.5379  -29.9084   23.6344 C   0  0  0  0  0  0
  -16.7306  -28.6505   23.0363 C   0  0  0  0  0  0
  -26.4566  -31.6528   25.0699 C   0  0  0  0  0  0
  -25.3679  -31.3791   26.1346 C   0  0  0  0  0  0
  -27.0472  -30.2888   24.6469 C   0  0  0  0  0  0
  -27.6047  -32.4350   25.7505 C   0  0  0  0  0  0
  -27.5572  -37.1753   24.8463 C   0  0  0  0  0  0
  -21.4349  -29.3040   22.3523 N   0  0  0  0  0  0
  -26.4277  -37.3696   23.9410 N   0  0  0  0  0  0
  -24.7563  -30.9812   22.0837 N   0  0  0  0  0  0
  -23.4211  -28.7992   23.3033 O   0  0  0  0  0  0
  -28.2339  -25.7689   20.2338 O   0  0  0  0  0  0
  -26.5723  -34.8882   22.4600 O   0  0  0  0  0  0
  -23.5723  -32.1189   23.6737 O   0  0  0  0  0  0
  -30.2471  -20.7342   20.1900 C   0  0  0  0  0  0
  -30.4608  -19.2482   20.2280 C   0  0  0  0  0  0
  -28.2190  -18.9933   20.5086 C   0  0  0  0  0  0
  -29.0093  -21.5278   20.3028 C   0  0  0  0  0  0
  -29.4573  -18.1982   20.3956 C   0  0  0  0  0  0
  -27.9984  -20.4800   20.4681 C   0  0  0  0  0  0
  -28.0440  -24.2280   20.2686 C   0  0  0  0  0  0
  -28.9478  -23.1307   20.2587 N   0  0  0  0  0  0
  -29.5309  -16.5528   20.4654 N   0  0  0  0  0  0
  -26.7182  -20.9031   20.6051 F   0  0  0  0  0  0
  -31.4583  -13.0777   19.1941 H   0  0  0  0  0  0
  -30.5357  -11.9507   20.1402 H   0  0  0  0  0  0
  -29.9342  -11.7650   17.7018 H   0  0  0  0  0  0
  -29.5606  -13.4699   17.6462 H   0  0  0  0  0  0
  -28.0589  -11.2792   19.0995 H   0  0  0  0  0  0
  -27.4252  -12.3332   17.8601 H   0  0  0  0  0  0
  -27.5234  -14.2407   19.3214 H   0  0  0  0  0  0
  -28.8261  -12.5246   21.4892 H   0  0  0  0  0  0
  -28.2712  -14.1688   21.6993 H   0  0  0  0  0  0
  -25.2780   -9.5679   22.4766 H   0  0  0  0  0  0
  -24.0009   -7.4635   22.7477 H   0  0  0  0  0  0
  -21.0860   -8.8784   19.8951 H   0  0  0  0  0  0
  -22.3726  -10.9675   19.6166 H   0  0  0  0  0  0
  -21.2011   -7.6150   23.9716 H   0  0  0  0  0  0
  -21.1482   -6.0523   25.9077 H   0  0  0  0  0  0
  -22.0597   -2.7610   23.2845 H   0  0  0  0  0  0
  -22.4054  -11.9838   22.4854 H   0  0  0  0  0  0
  -21.1030  -13.1171   22.2658 H   0  0  0  0  0  0
  -24.6210  -15.8393   20.5148 H   0  0  0  0  0  0
  -26.2203  -15.6337   20.0151 H   0  0  0  0  0  0
  -26.7398  -32.5092   23.0864 H   0  0  0  0  0  0
  -25.0065  -33.9455   25.0161 H   0  0  0  0  0  0
  -22.7990  -31.2612   21.3421 H   0  0  0  0  0  0
  -23.3774  -35.9509   23.3262 H   0  0  0  0  0  0
  -24.3573  -36.8896   22.2071 H   0  0  0  0  0  0
  -23.7233  -37.6362   23.6739 H   0  0  0  0  0  0
  -26.2387  -31.3454   20.6224 H   0  0  0  0  0  0
  -26.9132  -30.6713   22.0630 H   0  0  0  0  0  0
  -28.1507  -28.5525   21.2972 H   0  0  0  0  0  0
  -25.8816  -25.7193   18.9859 H   0  0  0  0  0  0
  -24.0144  -27.2590   18.9410 H   0  0  0  0  0  0
  -23.8874  -30.5050   19.3866 H   0  0  0  0  0  0
  -22.8356  -29.1958   19.8270 H   0  0  0  0  0  0
  -25.1336  -36.1742   25.0786 H   0  0  0  0  0  0
  -21.0037  -28.3369   24.1305 H   0  0  0  0  0  0
  -20.5676  -26.2378   23.3647 H   0  0  0  0  0  0
  -21.6663  -26.7405   22.1212 H   0  0  0  0  0  0
  -19.6933  -25.6273   21.1278 H   0  0  0  0  0  0
  -19.6713  -27.3157   20.6721 H   0  0  0  0  0  0
  -17.4225  -26.6683   21.4026 H   0  0  0  0  0  0
  -18.0351  -26.0097   22.9030 H   0  0  0  0  0  0
  -19.7971  -30.7324   24.2193 H   0  0  0  0  0  0
  -17.5039  -31.6273   24.5166 H   0  0  0  0  0  0
  -15.5376  -30.2969   23.7698 H   0  0  0  0  0  0
  -15.8707  -28.0805   22.7108 H   0  0  0  0  0  0
  -24.5881  -30.7120   25.7653 H   0  0  0  0  0  0
  -24.8847  -32.2995   26.4631 H   0  0  0  0  0  0
  -25.7899  -30.9051   27.0216 H   0  0  0  0  0  0
  -26.3151  -29.6548   24.1457 H   0  0  0  0  0  0
  -27.3963  -29.7274   25.5146 H   0  0  0  0  0  0
  -27.9109  -30.4056   23.9921 H   0  0  0  0  0  0
  -27.2607  -33.3700   26.1940 H   0  0  0  0  0  0
  -28.3932  -32.6832   25.0389 H   0  0  0  0  0  0
  -28.0633  -31.8573   26.5541 H   0  0  0  0  0  0
  -28.2556  -38.0081   24.7527 H   0  0  0  0  0  0
  -28.1101  -36.2607   24.6270 H   0  0  0  0  0  0
  -27.2289  -37.1367   25.8865 H   0  0  0  0  0  0
  -20.9613  -29.8721   21.6637 H   0  0  0  0  0  0
  -26.0120  -38.2750   24.1428 H   0  0  0  0  0  0
  -31.1488  -21.3152   20.0606 H   0  0  0  0  0  0
  -31.4836  -18.9146   20.1215 H   0  0  0  0  0  0
  -27.3155  -18.4181   20.6442 H   0  0  0  0  0  0
  -26.9811  -23.9774   20.3176 H   0  0  0  0  0  0
  -28.5998  -16.1965   20.6193 H   0  0  0  0  0  0
  1 25  1  0  0  0
  1 30  2  0  0  0
  1 79  1  0  0  0
  2  3  1  0  0  0
  2 25  1  0  0  0
  2 81  1  0  0  0
  2 82  1  0  0  0
  3  4  1  0  0  0
  3 83  1  0  0  0
  3 84  1  0  0  0
  4  5  1  0  0  0
  4 85  1  0  0  0
  4 86  1  0  0  0
  5  6  1  0  0  0
  5 26  1  0  0  0
  5 87  1  0  0  0
  6 25  1  0  0  0
  6 88  1  0  0  0
  6 89  1  0  0  0
  7  8  2  0  0  0
  7 26  1  0  0  0
  7 29  1  0  0  0
  8  9  1  0  0  0
  8 22  1  0  0  0
  9 10  1  0  0  0
  9 27  2  0  0  0
 10 11  2  0  0  0
 10 15  1  0  0  0
 11 12  1  0  0  0
 11 90  1  0  0  0
 12 13  2  0  0  0
 12 91  1  0  0  0
 13 14  1  0  0  0
 13 31  1  0  0  0
 14 15  2  0  0  0
 14 92  1  0  0  0
 15 93  1  0  0  0
 16 17  2  0  0  0
 16 21  1  0  0  0
 16 31  1  0  0  0
 17 18  1  0  0  0
 17 94  1  0  0  0
 18 19  2  0  0  0
 18 95  1  0  0  0
 19 20  1  0  0  0
 19 24  1  0  0  0
 20 21  2  0  0  0
 20 96  1  0  0  0
 21 23  1  0  0  0
 22 28  1  0  0  0
 22 32  2  0  0  0
 26 27  1  0  0  0
 28 97  1  0  0  0
 28 98  1  0  0  0
 29 99  1  0  0  0
 29100  1  0  0  0
 33 34  1  0  0  0
 33 66  1  0  0  0
 33 70  2  0  0  0
 34 36  1  0  0  0
 34 59  1  0  0  0
 34101  1  0  0  0
 35 44  2  0  0  0
 35 45  1  0  0  0
 35 68  1  0  0  0
 36 56  1  0  0  0
 36102  1  0  0  0
 37 39  1  0  0  0
 37 47  1  0  0  0
 37 66  1  0  0  0
 37103  1  0  0  0
 38 43  2  0  0  0
 38 46  1  0  0  0
 38 47  1  0  0  0
 39 64  1  0  0  0
 39 67  2  0  0  0
 40 52  1  0  0  0
 40 53  2  0  0  0
 40 58  1  0  0  0
 41104  1  0  0  0
 41105  1  0  0  0
 41106  1  0  0  0
 41 48  1  0  0  0
 42 43  1  0  0  0
 42 66  1  0  0  0
 42107  1  0  0  0
 42108  1  0  0  0
 43 44  1  0  0  0
 44109  1  0  0  0
 45 46  2  0  0  0
 45110  1  0  0  0
 46111  1  0  0  0
 47112  1  0  0  0
 47113  1  0  0  0
 48 56  1  0  0  0
 48 65  1  0  0  0
 48114  1  0  0  0
 49 50  1  0  0  0
 49 53  1  0  0  0
 49 64  1  0  0  0
 49115  1  0  0  0
 50 51  1  0  0  0
 50116  1  0  0  0
 50117  1  0  0  0
 51 52  1  0  0  0
 51118  1  0  0  0
 51119  1  0  0  0
 52120  1  0  0  0
 52121  1  0  0  0
 53 54  1  0  0  0
 54 55  2  0  0  0
 54122  1  0  0  0
 55 57  1  0  0  0
 55123  1  0  0  0
 56 69  2  0  0  0
 57 58  2  0  0  0
 57124  1  0  0  0
 58125  1  0  0  0
 59 60  1  0  0  0
 59 61  1  0  0  0
 59 62  1  0  0  0
 60126  1  0  0  0
 60127  1  0  0  0
 60128  1  0  0  0
 61129  1  0  0  0
 61130  1  0  0  0
 61131  1  0  0  0
 62132  1  0  0  0
 62133  1  0  0  0
 62134  1  0  0  0
 63 65  1  0  0  0
 63135  1  0  0  0
 63136  1  0  0  0
 63137  1  0  0  0
 64138  1  0  0  0
 65139  1  0  0  0
 68 77  1  0  0  0
 71 72  2  0  0  0
 71 74  1  0  0  0
 71140  1  0  0  0
 72 75  1  0  0  0
 72141  1  0  0  0
 73 75  2  0  0  0
 73 76  1  0  0  0
 73142  1  0  0  0
 74 76  2  0  0  0
 74 78  1  0  0  0
 75 79  1  0  0  0
 76 80  1  0  0  0
 77 78  2  0  0  0
 77143  1  0  0  0
 79144  1  0  0  0
M  ISO  4   1 100  68 101  77 101  79 100
M  END
> <chiral flag>
0

> <version>
0

> <s_m_source_file>
/data/baiqing/PycharmProjects/Reinvent-master-3.2/result/LINK_invent/BTK/process_docking_weight1_custom_sum_contain_oxygen_bond_distance_aromatic_linkinvent_7_9_3/rearranged_h_0010.sdf

> <i_m_source_file_index>
53

> <r_mmod_Potential_Energy-OPLS-2005>
1328.33984375

> <r_mmod_Stretch_Energy-OPLS-2005>
552.092163085938

> <r_mmod_Bend_Energy-OPLS-2005>
466.1328125

> <r_mmod_Torsional_Energy-OPLS-2005>
207.135925292969

> <r_mmod_Improper_Torsional_Energy-OPLS-2005>
3.78154039382935

> <r_mmod_Van_der_Waal_Energy-OPLS-2005>
127.768630981445

> <r_mmod_Electrostatic_Energy-OPLS-2005>
-340.98193359375

> <r_mmod_Solvation_Energy-OPLS-2005>
-212.15315246582

> <b_mmod_Minimization_Converged-OPLS-2005>
0

> <r_mmod_RMS_Derivative-OPLS-2005>
0.0730783492326736

$$$$
53
                    3D
 Structure written by MMmdl.
148156  0  0  1  0            999 V2000
  -30.5074  -14.9406   20.4238 C   0  0  0  0  0  0
  -30.4519  -12.5825   19.4868 C   0  0  0  0  0  0
  -29.5241  -12.5319   18.2492 C   0  0  0  0  0  0
  -28.0557  -12.3164   18.6670 C   0  0  0  0  0  0
  -27.6330  -13.2402   19.8385 C   0  0  2  0  0  0
  -28.6782  -13.2418   20.9743 C   0  0  0  0  0  0
  -25.2480  -13.8195   20.5691 C   0  0  0  0  0  0
  -24.1794  -13.0430   20.9232 C   0  0  0  0  0  0
  -24.6399  -11.6913   20.8753 C   0  0  0  0  0  0
  -23.9077  -10.4288   21.0408 C   0  0  0  0  0  0
  -24.3624   -9.4202   21.9187 C   0  0  0  0  0  0
  -23.6295   -8.2239   22.0755 C   0  0  0  0  0  0
  -22.4277   -8.0279   21.3545 C   0  0  0  0  0  0
  -21.9916   -9.0254   20.4647 C   0  0  0  0  0  0
  -22.7248  -10.2131   20.3057 C   0  0  0  0  0  0
  -21.6853   -6.0735   22.5279 C   0  0  0  0  0  0
  -21.4015   -6.5640   23.8213 C   0  0  0  0  0  0
  -21.3659   -5.6792   24.9175 C   0  0  0  0  0  0
  -21.6045   -4.3055   24.7226 C   0  0  0  0  0  0
  -21.8818   -3.8146   23.4347 C   0  0  0  0  0  0
  -21.9193   -4.6962   22.3403 C   0  0  0  0  0  0
  -22.7814  -13.5209   21.1885 C   0  0  0  0  0  0
  -22.1660   -4.2149   21.0980 F   0  0  0  0  0  0
  -21.5628   -3.4538   25.7738 F   0  0  0  0  0  0
  -29.9550  -13.6631   20.3810 N   0  0  0  0  0  0
  -26.2900  -12.9411   20.3221 N   0  0  0  0  0  0
  -25.9327  -11.6550   20.5725 N   0  0  0  0  0  0
  -22.0458  -12.8199   22.0438 N   0  0  0  0  0  0
  -25.4110  -15.1924   20.4086 N   0  0  0  0  0  0
  -31.7128  -15.0578   20.1758 O   0  0  0  0  0  0
  -21.6639   -6.8878   21.4241 O   0  0  0  0  0  0
  -22.3499  -14.5513   20.6727 O   0  0  0  0  0  0
  -24.6435  -31.8438   23.1874 C   0  0  0  0  0  0
  -25.9206  -32.4693   23.8267 C   0  0  1  0  0  0
  -27.2213  -27.1386   20.1615 C   0  0  0  0  0  0
  -25.5953  -33.8499   24.2186 N   0  0  0  0  0  0
  -23.4474  -30.4613   21.5333 C   0  0  2  0  0  0
  -24.8980  -28.8819   20.1170 C   0  0  0  0  0  0
  -22.7567  -29.4545   22.4869 C   0  0  0  0  0  0
  -18.0304  -28.1396   22.8479 C   0  0  0  0  0  0
  -24.1492  -36.7254   23.2643 C   0  0  0  0  0  0
  -26.0027  -30.7190   21.3846 C   0  0  0  0  0  0
  -26.0761  -29.3279   20.7313 C   0  0  0  0  0  0
  -27.2425  -28.4743   20.7309 C   0  0  0  0  0  0
  -26.0179  -26.7865   19.5172 C   0  0  0  0  0  0
  -24.8808  -27.6238   19.4944 C   0  0  0  0  0  0
  -23.6747  -29.7853   20.1550 C   0  0  0  0  0  0
  -25.4125  -36.3031   24.0316 C   0  0  1  0  0  0
  -20.5917  -28.3721   23.1239 C   0  0  2  0  0  0
  -20.6789  -26.9425   22.5406 C   0  0  0  0  0  0
  -19.5762  -26.6382   21.5214 C   0  0  0  0  0  0
  -18.1944  -26.7935   22.1624 C   0  0  0  0  0  0
  -19.1561  -28.8877   23.2849 C   0  0  0  0  0  0
  -18.9477  -30.1474   23.8874 C   0  0  0  0  0  0
  -17.6473  -30.6593   24.0559 C   0  0  0  0  0  0
  -25.9075  -34.9406   23.5062 C   0  0  0  0  0  0
  -16.5364  -29.9084   23.6337 C   0  0  0  0  0  0
  -16.7289  -28.6503   23.0358 C   0  0  0  0  0  0
  -26.4528  -31.6561   25.0709 C   0  0  0  0  0  0
  -25.3711  -31.3747   26.1402 C   0  0  0  0  0  0
  -27.0395  -30.2959   24.6286 C   0  0  0  0  0  0
  -27.6059  -32.4324   25.7494 C   0  0  0  0  0  0
  -27.5577  -37.1784   24.8465 C   0  0  0  0  0  0
  -21.4260  -29.3047   22.3612 N   0  0  0  0  0  0
  -26.4288  -37.3745   23.9408 N   0  0  0  0  0  0
  -24.7177  -31.0294   22.0905 N   0  0  0  0  0  0
  -23.4206  -28.8100   23.3027 O   0  0  0  0  0  0
  -28.2798  -26.1627   20.1577 O   0  0  0  0  0  0
  -26.5663  -34.8905   22.4642 O   0  0  0  0  0  0
  -23.5554  -32.1310   23.7096 O   0  0  0  0  0  0
  -28.4919  -19.7598   19.6728 C   0  0  0  0  0  0
  -30.3973  -18.4907   21.2536 C   0  0  0  0  0  0
  -29.2136  -20.6625   20.5243 C   0  0  0  0  0  0
  -29.6425  -17.5837   20.4369 C   0  0  0  0  0  0
  -30.1833  -19.9333   21.3081 C   0  0  0  0  0  0
  -28.6789  -18.3130   19.6475 C   0  0  0  0  0  0
  -28.5884  -23.3189   20.0341 C   0  0  0  0  0  0
  -28.0652  -24.7340   20.7357 C   0  0  0  0  0  0
  -28.9027  -22.1509   20.7782 N   0  0  0  0  0  0
  -29.6253  -16.0472   20.5189 N   0  0  0  0  0  0
  -28.6746  -23.2904   18.8039 O   0  0  0  0  0  0
  -31.1373  -20.8275   22.4375 Cl  0  0  0  0  0  0
  -27.6262  -17.3956   18.6293 Cl  0  0  0  0  0  0
  -31.4817  -12.7614   19.1737 H   0  0  0  0  0  0
  -30.4586  -11.6240   20.0081 H   0  0  0  0  0  0
  -29.8411  -11.7395   17.5699 H   0  0  0  0  0  0
  -29.6105  -13.4654   17.6908 H   0  0  0  0  0  0
  -27.9491  -11.2730   18.9661 H   0  0  0  0  0  0
  -27.3926  -12.4572   17.8126 H   0  0  0  0  0  0
  -27.6007  -14.2460   19.4195 H   0  0  0  0  0  0
  -28.7647  -12.2542   21.4299 H   0  0  0  0  0  0
  -28.3801  -13.9229   21.7731 H   0  0  0  0  0  0
  -25.2766   -9.5676   22.4765 H   0  0  0  0  0  0
  -24.0001   -7.4630   22.7475 H   0  0  0  0  0  0
  -21.0846   -8.8772   19.8954 H   0  0  0  0  0  0
  -22.3704  -10.9671   19.6168 H   0  0  0  0  0  0
  -21.2010   -7.6148   23.9717 H   0  0  0  0  0  0
  -21.1482   -6.0523   25.9078 H   0  0  0  0  0  0
  -22.0599   -2.7609   23.2848 H   0  0  0  0  0  0
  -22.4075  -11.9866   22.4836 H   0  0  0  0  0  0
  -21.1073  -13.1222   22.2635 H   0  0  0  0  0  0
  -24.6248  -15.8256   20.5030 H   0  0  0  0  0  0
  -26.2166  -15.6329   19.9845 H   0  0  0  0  0  0
  -26.7273  -32.5304   23.0998 H   0  0  0  0  0  0
  -25.0074  -33.9611   25.0317 H   0  0  0  0  0  0
  -22.7503  -31.2870   21.3761 H   0  0  0  0  0  0
  -23.3761  -35.9578   23.3290 H   0  0  0  0  0  0
  -24.3577  -36.8901   22.2060 H   0  0  0  0  0  0
  -23.7239  -37.6443   23.6689 H   0  0  0  0  0  0
  -26.1559  -31.4715   20.6099 H   0  0  0  0  0  0
  -26.8737  -30.7726   22.0260 H   0  0  0  0  0  0
  -28.1456  -28.8166   21.2165 H   0  0  0  0  0  0
  -25.9460  -25.8205   19.0374 H   0  0  0  0  0  0
  -23.9818  -27.2766   19.0039 H   0  0  0  0  0  0
  -23.8126  -30.5568   19.3966 H   0  0  0  0  0  0
  -22.7897  -29.2266   19.8454 H   0  0  0  0  0  0
  -25.1315  -36.1860   25.0808 H   0  0  0  0  0  0
  -21.0007  -28.3310   24.1361 H   0  0  0  0  0  0
  -20.5685  -26.2335   23.3625 H   0  0  0  0  0  0
  -21.6654  -26.7433   22.1202 H   0  0  0  0  0  0
  -19.6924  -25.6288   21.1258 H   0  0  0  0  0  0
  -19.6700  -27.3181   20.6735 H   0  0  0  0  0  0
  -17.4214  -26.6682   21.4026 H   0  0  0  0  0  0
  -18.0340  -26.0080   22.9024 H   0  0  0  0  0  0
  -19.7953  -30.7299   24.2229 H   0  0  0  0  0  0
  -17.5026  -31.6271   24.5164 H   0  0  0  0  0  0
  -15.5363  -30.2978   23.7674 H   0  0  0  0  0  0
  -15.8689  -28.0813   22.7086 H   0  0  0  0  0  0
  -24.5898  -30.7089   25.7718 H   0  0  0  0  0  0
  -24.8891  -32.2927   26.4774 H   0  0  0  0  0  0
  -25.7992  -30.8953   27.0214 H   0  0  0  0  0  0
  -26.3013  -29.6676   24.1289 H   0  0  0  0  0  0
  -27.4007  -29.7263   25.4859 H   0  0  0  0  0  0
  -27.8919  -30.4197   23.9603 H   0  0  0  0  0  0
  -27.2656  -33.3646   26.2016 H   0  0  0  0  0  0
  -28.3900  -32.6849   25.0343 H   0  0  0  0  0  0
  -28.0693  -31.8483   26.5455 H   0  0  0  0  0  0
  -28.2587  -38.0088   24.7515 H   0  0  0  0  0  0
  -28.1081  -36.2618   24.6291 H   0  0  0  0  0  0
  -27.2293  -37.1427   25.8868 H   0  0  0  0  0  0
  -20.9475  -29.8747   21.6778 H   0  0  0  0  0  0
  -26.0155  -38.2814   24.1409 H   0  0  0  0  0  0
  -27.7070  -20.1714   19.0561 H   0  0  0  0  0  0
  -31.1300  -18.0706   21.9263 H   0  0  0  0  0  0
  -28.5019  -24.7541   21.7341 H   0  0  0  0  0  0
  -26.9976  -24.5986   20.9086 H   0  0  0  0  0  0
  -28.9663  -22.3755   21.7623 H   0  0  0  0  0  0
  -28.6794  -15.7004   20.5317 H   0  0  0  0  0  0
  1 25  1  0  0  0
  1 30  2  0  0  0
  1 80  1  0  0  0
  2  3  1  0  0  0
  2 25  1  0  0  0
  2 84  1  0  0  0
  2 85  1  0  0  0
  3  4  1  0  0  0
  3 86  1  0  0  0
  3 87  1  0  0  0
  4  5  1  0  0  0
  4 88  1  0  0  0
  4 89  1  0  0  0
  5  6  1  0  0  0
  5 26  1  0  0  0
  5 90  1  0  0  0
  6 25  1  0  0  0
  6 91  1  0  0  0
  6 92  1  0  0  0
  7  8  2  0  0  0
  7 26  1  0  0  0
  7 29  1  0  0  0
  8  9  1  0  0  0
  8 22  1  0  0  0
  9 10  1  0  0  0
  9 27  2  0  0  0
 10 11  2  0  0  0
 10 15  1  0  0  0
 11 12  1  0  0  0
 11 93  1  0  0  0
 12 13  2  0  0  0
 12 94  1  0  0  0
 13 14  1  0  0  0
 13 31  1  0  0  0
 14 15  2  0  0  0
 14 95  1  0  0  0
 15 96  1  0  0  0
 16 17  2  0  0  0
 16 21  1  0  0  0
 16 31  1  0  0  0
 17 18  1  0  0  0
 17 97  1  0  0  0
 18 19  2  0  0  0
 18 98  1  0  0  0
 19 20  1  0  0  0
 19 24  1  0  0  0
 20 21  2  0  0  0
 20 99  1  0  0  0
 21 23  1  0  0  0
 22 28  1  0  0  0
 22 32  2  0  0  0
 26 27  1  0  0  0
 28100  1  0  0  0
 28101  1  0  0  0
 29102  1  0  0  0
 29103  1  0  0  0
 33 34  1  0  0  0
 33 66  1  0  0  0
 33 70  2  0  0  0
 34 36  1  0  0  0
 34 59  1  0  0  0
 34104  1  0  0  0
 35 44  2  0  0  0
 35 45  1  0  0  0
 35 68  1  0  0  0
 36 56  1  0  0  0
 36105  1  0  0  0
 37 39  1  0  0  0
 37 47  1  0  0  0
 37 66  1  0  0  0
 37106  1  0  0  0
 38 43  2  0  0  0
 38 46  1  0  0  0
 38 47  1  0  0  0
 39 64  1  0  0  0
 39 67  2  0  0  0
 40 52  1  0  0  0
 40 53  2  0  0  0
 40 58  1  0  0  0
 41107  1  0  0  0
 41108  1  0  0  0
 41109  1  0  0  0
 41 48  1  0  0  0
 42 43  1  0  0  0
 42 66  1  0  0  0
 42110  1  0  0  0
 42111  1  0  0  0
 43 44  1  0  0  0
 44112  1  0  0  0
 45 46  2  0  0  0
 45113  1  0  0  0
 46114  1  0  0  0
 47115  1  0  0  0
 47116  1  0  0  0
 48 56  1  0  0  0
 48 65  1  0  0  0
 48117  1  0  0  0
 49 50  1  0  0  0
 49 53  1  0  0  0
 49 64  1  0  0  0
 49118  1  0  0  0
 50 51  1  0  0  0
 50119  1  0  0  0
 50120  1  0  0  0
 51 52  1  0  0  0
 51121  1  0  0  0
 51122  1  0  0  0
 52123  1  0  0  0
 52124  1  0  0  0
 53 54  1  0  0  0
 54 55  2  0  0  0
 54125  1  0  0  0
 55 57  1  0  0  0
 55126  1  0  0  0
 56 69  2  0  0  0
 57 58  2  0  0  0
 57127  1  0  0  0
 58128  1  0  0  0
 59 60  1  0  0  0
 59 61  1  0  0  0
 59 62  1  0  0  0
 60129  1  0  0  0
 60130  1  0  0  0
 60131  1  0  0  0
 61132  1  0  0  0
 61133  1  0  0  0
 61134  1  0  0  0
 62135  1  0  0  0
 62136  1  0  0  0
 62137  1  0  0  0
 63 65  1  0  0  0
 63138  1  0  0  0
 63139  1  0  0  0
 63140  1  0  0  0
 64141  1  0  0  0
 65142  1  0  0  0
 68 78  1  0  0  0
 71 73  2  0  0  0
 71 76  1  0  0  0
 71143  1  0  0  0
 72 74  1  0  0  0
 72 75  2  0  0  0
 72144  1  0  0  0
 73 75  1  0  0  0
 73 79  1  0  0  0
 74 76  2  0  0  0
 74 80  1  0  0  0
 75 82  1  0  0  0
 76 83  1  0  0  0
 77 78  1  0  0  0
 77 79  1  0  0  0
 77 81  2  0  0  0
 78145  1  0  0  0
 78146  1  0  0  0
 79147  1  0  0  0
 80148  1  0  0  0
M  ISO  4   1 100  68 101  78 101  80 100
M  END
> <chiral flag>
0

> <version>
0

> <s_m_source_file>
/data/baiqing/PycharmProjects/Reinvent-master-3.2/result/LINK_invent/BTK/process_docking_weight1_custom_sum_contain_oxygen_bond_distance_aromatic_linkinvent_7_9_3/rearranged_h_0010.sdf

> <i_m_source_file_index>
54

> <r_mmod_Potential_Energy-OPLS-2005>
410.041046142578

> <r_mmod_Stretch_Energy-OPLS-2005>
226.123168945312

> <r_mmod_Bend_Energy-OPLS-2005>
256.242065429688

> <r_mmod_Torsional_Energy-OPLS-2005>
275.638000488281

> <r_mmod_Improper_Torsional_Energy-OPLS-2005>
8.42012691497803

> <r_mmod_Van_der_Waal_Energy-OPLS-2005>
119.286598205566

> <r_mmod_Electrostatic_Energy-OPLS-2005>
-423.302917480469

> <r_mmod_Solvation_Energy-OPLS-2005>
-240.626251220703

> <b_mmod_Minimization_Converged-OPLS-2005>
0

> <r_mmod_RMS_Derivative-OPLS-2005>
0.221788197755814

$$$$
54
                    3D
 Structure written by MMmdl.
155163  0  0  1  0            999 V2000
  -30.6401  -14.6123   20.4997 C   0  0  0  0  0  0
  -30.4424  -12.3746   19.4435 C   0  0  0  0  0  0
  -29.5118  -12.5081   18.2161 C   0  0  0  0  0  0
  -28.0300  -12.3578   18.6242 C   0  0  0  0  0  0
  -27.6577  -13.2149   19.8639 C   0  0  2  0  0  0
  -28.7054  -13.0454   20.9882 C   0  0  0  0  0  0
  -25.2573  -13.8144   20.5654 C   0  0  0  0  0  0
  -24.1840  -13.0435   20.9179 C   0  0  0  0  0  0
  -24.6408  -11.6901   20.8740 C   0  0  0  0  0  0
  -23.9056  -10.4301   21.0415 C   0  0  0  0  0  0
  -24.3615   -9.4212   21.9181 C   0  0  0  0  0  0
  -23.6301   -8.2241   22.0752 C   0  0  0  0  0  0
  -22.4273   -8.0281   21.3543 C   0  0  0  0  0  0
  -21.9909   -9.0251   20.4638 C   0  0  0  0  0  0
  -22.7239  -10.2134   20.3056 C   0  0  0  0  0  0
  -21.6840   -6.0741   22.5298 C   0  0  0  0  0  0
  -21.4003   -6.5647   23.8226 C   0  0  0  0  0  0
  -21.3659   -5.6790   24.9178 C   0  0  0  0  0  0
  -21.6048   -4.3051   24.7225 C   0  0  0  0  0  0
  -21.8817   -3.8150   23.4338 C   0  0  0  0  0  0
  -21.9187   -4.6970   22.3404 C   0  0  0  0  0  0
  -22.7867  -13.5243   21.1855 C   0  0  0  0  0  0
  -22.1660   -4.2153   21.0983 F   0  0  0  0  0  0
  -21.5632   -3.4524   25.7747 F   0  0  0  0  0  0
  -30.0261  -13.3888   20.4315 N   0  0  0  0  0  0
  -26.3017  -12.9340   20.3306 N   0  0  0  0  0  0
  -25.9333  -11.6494   20.5741 N   0  0  0  0  0  0
  -22.0481  -12.8248   22.0409 N   0  0  0  0  0  0
  -25.4242  -15.1868   20.4054 N   0  0  0  0  0  0
  -31.7982  -14.7761   20.1081 O   0  0  0  0  0  0
  -21.6640   -6.8875   21.4257 O   0  0  0  0  0  0
  -22.3571  -14.5547   20.6699 O   0  0  0  0  0  0
  -24.6251  -31.8612   23.2038 C   0  0  0  0  0  0
  -25.9097  -32.4795   23.8391 C   0  0  1  0  0  0
  -27.2236  -27.3206   20.1194 C   0  0  0  0  0  0
  -25.5923  -33.8585   24.2343 N   0  0  0  0  0  0
  -23.4199  -30.4876   21.5451 C   0  0  2  0  0  0
  -24.8663  -28.9434   20.1108 C   0  0  0  0  0  0
  -22.7479  -29.4664   22.4926 C   0  0  0  0  0  0
  -18.0295  -28.1367   22.8489 C   0  0  0  0  0  0
  -24.1474  -36.7250   23.2649 C   0  0  0  0  0  0
  -25.9619  -30.7928   21.3729 C   0  0  0  0  0  0
  -26.0364  -29.4192   20.7176 C   0  0  0  0  0  0
  -27.2172  -28.6197   20.7128 C   0  0  0  0  0  0
  -26.0269  -26.8978   19.4916 C   0  0  0  0  0  0
  -24.8639  -27.6865   19.4896 C   0  0  0  0  0  0
  -23.6335  -29.8208   20.1602 C   0  0  0  0  0  0
  -25.4101  -36.3080   24.0360 C   0  0  1  0  0  0
  -20.5906  -28.3688   23.1254 C   0  0  2  0  0  0
  -20.6798  -26.9408   22.5395 C   0  0  0  0  0  0
  -19.5762  -26.6373   21.5202 C   0  0  0  0  0  0
  -18.1942  -26.7922   22.1615 C   0  0  0  0  0  0
  -19.1548  -28.8843   23.2876 C   0  0  0  0  0  0
  -18.9472  -30.1444   23.8894 C   0  0  0  0  0  0
  -17.6481  -30.6586   24.0561 C   0  0  0  0  0  0
  -25.9037  -34.9453   23.5150 C   0  0  0  0  0  0
  -16.5368  -29.9090   23.6334 C   0  0  0  0  0  0
  -16.7288  -28.6497   23.0366 C   0  0  0  0  0  0
  -26.4482  -31.6567   25.0737 C   0  0  0  0  0  0
  -25.3730  -31.3736   26.1494 C   0  0  0  0  0  0
  -27.0295  -30.3000   24.6145 C   0  0  0  0  0  0
  -27.6120  -32.4227   25.7460 C   0  0  0  0  0  0
  -27.5567  -37.1790   24.8489 C   0  0  0  0  0  0
  -21.4194  -29.3043   22.3645 N   0  0  0  0  0  0
  -26.4283  -37.3768   23.9426 N   0  0  0  0  0  0
  -24.6879  -31.0650   22.0970 N   0  0  0  0  0  0
  -23.4210  -28.8215   23.3006 O   0  0  0  0  0  0
  -28.3416  -26.4692   20.1684 O   0  0  0  0  0  0
  -26.5585  -34.8918   22.4706 O   0  0  0  0  0  0
  -23.5416  -32.1398   23.7364 O   0  0  0  0  0  0
  -28.8079  -17.8812   21.1369 C   0  0  0  0  0  0
  -28.7677  -19.2958   21.0058 C   0  0  0  0  0  0
  -30.9991  -17.8322   20.1448 C   0  0  0  0  0  0
  -29.9165  -17.1048   20.7114 C   0  0  0  0  0  0
  -29.8455  -20.0265   20.4420 C   0  0  0  0  0  0
  -30.9777  -19.2669   20.0214 C   0  0  0  0  0  0
  -28.8938  -22.4387   20.4028 C   0  0  0  0  0  0
  -33.2719  -19.3385   19.2739 C   0  0  0  0  0  0
  -29.2733  -23.9740   20.3599 C   0  0  0  0  0  0
  -28.0892  -25.0082   20.1195 C   0  0  0  0  0  0
  -29.8803  -21.4880   20.3250 N   0  0  0  0  0  0
  -29.8357  -15.6519   20.8760 N   0  0  0  0  0  0
  -27.7033  -22.1275   20.4899 O   0  0  0  0  0  0
  -32.0241  -19.9933   19.4859 O   0  0  0  0  0  0
  -31.4851  -12.4924   19.1424 H   0  0  0  0  0  0
  -30.3713  -11.3718   19.8711 H   0  0  0  0  0  0
  -29.7726  -11.7584   17.4661 H   0  0  0  0  0  0
  -29.6617  -13.4781   17.7418 H   0  0  0  0  0  0
  -27.8544  -11.3024   18.8380 H   0  0  0  0  0  0
  -27.3784  -12.6021   17.7833 H   0  0  0  0  0  0
  -27.6834  -14.2552   19.5408 H   0  0  0  0  0  0
  -28.7073  -12.0148   21.3468 H   0  0  0  0  0  0
  -28.4555  -13.6550   21.8576 H   0  0  0  0  0  0
  -25.2760   -9.5691   22.4757 H   0  0  0  0  0  0
  -24.0017   -7.4624   22.7469 H   0  0  0  0  0  0
  -21.0830   -8.8747   19.8954 H   0  0  0  0  0  0
  -22.3682  -10.9654   19.6169 H   0  0  0  0  0  0
  -21.1987   -7.6149   23.9736 H   0  0  0  0  0  0
  -21.1489   -6.0514   25.9089 H   0  0  0  0  0  0
  -22.0596   -2.7613   23.2836 H   0  0  0  0  0  0
  -22.4074  -11.9915   22.4818 H   0  0  0  0  0  0
  -21.1103  -13.1305   22.2582 H   0  0  0  0  0  0
  -24.6445  -15.8279   20.5012 H   0  0  0  0  0  0
  -26.2539  -15.6258   20.0295 H   0  0  0  0  0  0
  -26.7180  -32.5476   23.1155 H   0  0  0  0  0  0
  -25.0138  -33.9737   25.0544 H   0  0  0  0  0  0
  -22.7137  -31.3089   21.4028 H   0  0  0  0  0  0
  -23.3765  -35.9542   23.3280 H   0  0  0  0  0  0
  -24.3596  -36.8882   22.2070 H   0  0  0  0  0  0
  -23.7160  -37.6434   23.6651 H   0  0  0  0  0  0
  -26.0964  -31.5534   20.6024 H   0  0  0  0  0  0
  -26.8429  -30.8451   22.0012 H   0  0  0  0  0  0
  -28.1146  -28.9807   21.1967 H   0  0  0  0  0  0
  -25.9534  -25.9422   18.9949 H   0  0  0  0  0  0
  -23.9703  -27.3181   19.0063 H   0  0  0  0  0  0
  -23.7508  -30.5954   19.4012 H   0  0  0  0  0  0
  -22.7540  -29.2475   19.8626 H   0  0  0  0  0  0
  -25.1279  -36.1943   25.0849 H   0  0  0  0  0  0
  -21.0016  -28.3253   24.1369 H   0  0  0  0  0  0
  -20.5686  -26.2305   23.3600 H   0  0  0  0  0  0
  -21.6662  -26.7438   22.1178 H   0  0  0  0  0  0
  -19.6934  -25.6281   21.1225 H   0  0  0  0  0  0
  -19.6698  -27.3194   20.6733 H   0  0  0  0  0  0
  -17.4222  -26.6643   21.4011 H   0  0  0  0  0  0
  -18.0366  -26.0078   22.9017 H   0  0  0  0  0  0
  -19.7959  -30.7239   24.2262 H   0  0  0  0  0  0
  -17.5051  -31.6274   24.5138 H   0  0  0  0  0  0
  -15.5371  -30.2995   23.7663 H   0  0  0  0  0  0
  -15.8676  -28.0808   22.7094 H   0  0  0  0  0  0
  -24.5850  -30.7155   25.7814 H   0  0  0  0  0  0
  -24.8992  -32.2924   26.4956 H   0  0  0  0  0  0
  -25.8051  -30.8854   27.0240 H   0  0  0  0  0  0
  -26.2847  -29.6754   24.1202 H   0  0  0  0  0  0
  -27.4082  -29.7245   25.4601 H   0  0  0  0  0  0
  -27.8680  -30.4333   23.9310 H   0  0  0  0  0  0
  -27.2881  -33.3618   26.1942 H   0  0  0  0  0  0
  -28.3959  -32.6582   25.0250 H   0  0  0  0  0  0
  -28.0714  -31.8350   26.5423 H   0  0  0  0  0  0
  -28.2618  -38.0052   24.7499 H   0  0  0  0  0  0
  -28.1029  -36.2594   24.6349 H   0  0  0  0  0  0
  -27.2299  -37.1464   25.8899 H   0  0  0  0  0  0
  -20.9358  -29.8747   21.6836 H   0  0  0  0  0  0
  -26.0173  -38.2847   24.1415 H   0  0  0  0  0  0
  -27.9526  -17.3878   21.5786 H   0  0  0  0  0  0
  -27.8911  -19.8123   21.3630 H   0  0  0  0  0  0
  -31.8523  -17.2734   19.7969 H   0  0  0  0  0  0
  -33.9785  -20.0363   18.8238 H   0  0  0  0  0  0
  -33.1863  -18.4929   18.5909 H   0  0  0  0  0  0
  -33.7037  -19.0023   20.2181 H   0  0  0  0  0  0
  -30.0278  -24.1165   19.5864 H   0  0  0  0  0  0
  -29.7594  -24.2155   21.3068 H   0  0  0  0  0  0
  -27.3068  -24.7916   20.8497 H   0  0  0  0  0  0
  -27.6804  -24.7531   19.1417 H   0  0  0  0  0  0
  -30.8053  -21.8568   20.1370 H   0  0  0  0  0  0
  -28.9509  -15.3248   21.2329 H   0  0  0  0  0  0
  1 25  1  0  0  0
  1 30  2  0  0  0
  1 82  1  0  0  0
  2  3  1  0  0  0
  2 25  1  0  0  0
  2 85  1  0  0  0
  2 86  1  0  0  0
  3  4  1  0  0  0
  3 87  1  0  0  0
  3 88  1  0  0  0
  4  5  1  0  0  0
  4 89  1  0  0  0
  4 90  1  0  0  0
  5  6  1  0  0  0
  5 26  1  0  0  0
  5 91  1  0  0  0
  6 25  1  0  0  0
  6 92  1  0  0  0
  6 93  1  0  0  0
  7  8  2  0  0  0
  7 26  1  0  0  0
  7 29  1  0  0  0
  8  9  1  0  0  0
  8 22  1  0  0  0
  9 10  1  0  0  0
  9 27  2  0  0  0
 10 11  2  0  0  0
 10 15  1  0  0  0
 11 12  1  0  0  0
 11 94  1  0  0  0
 12 13  2  0  0  0
 12 95  1  0  0  0
 13 14  1  0  0  0
 13 31  1  0  0  0
 14 15  2  0  0  0
 14 96  1  0  0  0
 15 97  1  0  0  0
 16 17  2  0  0  0
 16 21  1  0  0  0
 16 31  1  0  0  0
 17 18  1  0  0  0
 17 98  1  0  0  0
 18 19  2  0  0  0
 18 99  1  0  0  0
 19 20  1  0  0  0
 19 24  1  0  0  0
 20 21  2  0  0  0
 20100  1  0  0  0
 21 23  1  0  0  0
 22 28  1  0  0  0
 22 32  2  0  0  0
 26 27  1  0  0  0
 28101  1  0  0  0
 28102  1  0  0  0
 29103  1  0  0  0
 29104  1  0  0  0
 33 34  1  0  0  0
 33 66  1  0  0  0
 33 70  2  0  0  0
 34 36  1  0  0  0
 34 59  1  0  0  0
 34105  1  0  0  0
 35 44  2  0  0  0
 35 45  1  0  0  0
 35 68  1  0  0  0
 36 56  1  0  0  0
 36106  1  0  0  0
 37 39  1  0  0  0
 37 47  1  0  0  0
 37 66  1  0  0  0
 37107  1  0  0  0
 38 43  2  0  0  0
 38 46  1  0  0  0
 38 47  1  0  0  0
 39 64  1  0  0  0
 39 67  2  0  0  0
 40 52  1  0  0  0
 40 53  2  0  0  0
 40 58  1  0  0  0
 41108  1  0  0  0
 41109  1  0  0  0
 41110  1  0  0  0
 41 48  1  0  0  0
 42 43  1  0  0  0
 42 66  1  0  0  0
 42111  1  0  0  0
 42112  1  0  0  0
 43 44  1  0  0  0
 44113  1  0  0  0
 45 46  2  0  0  0
 45114  1  0  0  0
 46115  1  0  0  0
 47116  1  0  0  0
 47117  1  0  0  0
 48 56  1  0  0  0
 48 65  1  0  0  0
 48118  1  0  0  0
 49 50  1  0  0  0
 49 53  1  0  0  0
 49 64  1  0  0  0
 49119  1  0  0  0
 50 51  1  0  0  0
 50120  1  0  0  0
 50121  1  0  0  0
 51 52  1  0  0  0
 51122  1  0  0  0
 51123  1  0  0  0
 52124  1  0  0  0
 52125  1  0  0  0
 53 54  1  0  0  0
 54 55  2  0  0  0
 54126  1  0  0  0
 55 57  1  0  0  0
 55127  1  0  0  0
 56 69  2  0  0  0
 57 58  2  0  0  0
 57128  1  0  0  0
 58129  1  0  0  0
 59 60  1  0  0  0
 59 61  1  0  0  0
 59 62  1  0  0  0
 60130  1  0  0  0
 60131  1  0  0  0
 60132  1  0  0  0
 61133  1  0  0  0
 61134  1  0  0  0
 61135  1  0  0  0
 62136  1  0  0  0
 62137  1  0  0  0
 62138  1  0  0  0
 63 65  1  0  0  0
 63139  1  0  0  0
 63140  1  0  0  0
 63141  1  0  0  0
 64142  1  0  0  0
 65143  1  0  0  0
 68 80  1  0  0  0
 71 72  2  0  0  0
 71 74  1  0  0  0
 71144  1  0  0  0
 72 75  1  0  0  0
 72145  1  0  0  0
 73 74  2  0  0  0
 73 76  1  0  0  0
 73146  1  0  0  0
 74 82  1  0  0  0
 75 76  2  0  0  0
 75 81  1  0  0  0
 76 84  1  0  0  0
 77 79  1  0  0  0
 77 81  1  0  0  0
 77 83  2  0  0  0
 78 84  1  0  0  0
 78147  1  0  0  0
 78148  1  0  0  0
 78149  1  0  0  0
 79 80  1  0  0  0
 79150  1  0  0  0
 79151  1  0  0  0
 80152  1  0  0  0
 80153  1  0  0  0
 81154  1  0  0  0
 82155  1  0  0  0
M  ISO  4   1 100  68 101  80 101  82 100
M  END
> <chiral flag>
0

> <version>
0

> <s_m_source_file>
/data/baiqing/PycharmProjects/Reinvent-master-3.2/result/LINK_invent/BTK/process_docking_weight1_custom_sum_contain_oxygen_bond_distance_aromatic_linkinvent_7_9_3/rearranged_h_0010.sdf

> <i_m_source_file_index>
55

> <r_mmod_Potential_Energy-OPLS-2005>
-25.9284553527832

> <r_mmod_Stretch_Energy-OPLS-2005>
79.4208450317383

> <r_mmod_Bend_Energy-OPLS-2005>
145.451324462891

> <r_mmod_Torsional_Energy-OPLS-2005>
220.200073242188

> <r_mmod_Improper_Torsional_Energy-OPLS-2005>
4.12980985641479

> <r_mmod_Van_der_Waal_Energy-OPLS-2005>
155.122482299805

> <r_mmod_Electrostatic_Energy-OPLS-2005>
-447.077758789062

> <r_mmod_Solvation_Energy-OPLS-2005>
-226.884292602539

> <b_mmod_Minimization_Converged-OPLS-2005>
0

> <r_mmod_RMS_Derivative-OPLS-2005>
3.60782170295715

$$$$
55
                    3D
 Structure written by MMmdl.
159167  0  0  1  0            999 V2000
  -30.5991  -14.6810   20.4507 C   0  0  0  0  0  0
  -30.4473  -12.4067   19.4454 C   0  0  0  0  0  0
  -29.5074  -12.4989   18.2202 C   0  0  0  0  0  0
  -28.0301  -12.3419   18.6360 C   0  0  0  0  0  0
  -27.6559  -13.2140   19.8629 C   0  0  2  0  0  0
  -28.7105  -13.0751   20.9863 C   0  0  0  0  0  0
  -25.2563  -13.8159   20.5626 C   0  0  0  0  0  0
  -24.1838  -13.0430   20.9189 C   0  0  0  0  0  0
  -24.6414  -11.6905   20.8782 C   0  0  0  0  0  0
  -23.9077  -10.4291   21.0438 C   0  0  0  0  0  0
  -24.3624   -9.4203   21.9212 C   0  0  0  0  0  0
  -23.6299   -8.2237   22.0761 C   0  0  0  0  0  0
  -22.4281   -8.0284   21.3542 C   0  0  0  0  0  0
  -21.9929   -9.0259   20.4643 C   0  0  0  0  0  0
  -22.7261  -10.2144   20.3072 C   0  0  0  0  0  0
  -21.6851   -6.0743   22.5278 C   0  0  0  0  0  0
  -21.4005   -6.5646   23.8209 C   0  0  0  0  0  0
  -21.3658   -5.6799   24.9172 C   0  0  0  0  0  0
  -21.6048   -4.3058   24.7224 C   0  0  0  0  0  0
  -21.8819   -3.8155   23.4341 C   0  0  0  0  0  0
  -21.9188   -4.6975   22.3396 C   0  0  0  0  0  0
  -22.7864  -13.5234   21.1852 C   0  0  0  0  0  0
  -22.1661   -4.2159   21.0978 F   0  0  0  0  0  0
  -21.5633   -3.4540   25.7735 F   0  0  0  0  0  0
  -30.0206  -13.4343   20.4133 N   0  0  0  0  0  0
  -26.3017  -12.9339   20.3361 N   0  0  0  0  0  0
  -25.9355  -11.6502   20.5820 N   0  0  0  0  0  0
  -22.0503  -12.8222   22.0405 N   0  0  0  0  0  0
  -25.4258  -15.1836   20.3842 N   0  0  0  0  0  0
  -31.7621  -14.8681   20.0834 O   0  0  0  0  0  0
  -21.6631   -6.8891   21.4244 O   0  0  0  0  0  0
  -22.3554  -14.5544   20.6714 O   0  0  0  0  0  0
  -24.6252  -31.8601   23.1997 C   0  0  0  0  0  0
  -25.9102  -32.4775   23.8339 C   0  0  1  0  0  0
  -27.2441  -27.3307   20.1217 C   0  0  0  0  0  0
  -25.5938  -33.8572   24.2269 N   0  0  0  0  0  0
  -23.4197  -30.4746   21.5441 C   0  0  2  0  0  0
  -24.8693  -28.9215   20.1187 C   0  0  0  0  0  0
  -22.7483  -29.4574   22.4962 C   0  0  0  0  0  0
  -18.0271  -28.1352   22.8456 C   0  0  0  0  0  0
  -24.1500  -36.7294   23.2638 C   0  0  0  0  0  0
  -25.9525  -30.7953   21.3652 C   0  0  0  0  0  0
  -26.0353  -29.4192   20.7151 C   0  0  0  0  0  0
  -27.2254  -28.6357   20.7033 C   0  0  0  0  0  0
  -26.0517  -26.8666   19.5242 C   0  0  0  0  0  0
  -24.8779  -27.6500   19.5160 C   0  0  0  0  0  0
  -23.6348  -29.8007   20.1624 C   0  0  0  0  0  0
  -25.4123  -36.3071   24.0314 C   0  0  1  0  0  0
  -20.5872  -28.3654   23.1286 C   0  0  2  0  0  0
  -20.6778  -26.9374   22.5412 C   0  0  0  0  0  0
  -19.5764  -26.6364   21.5184 C   0  0  0  0  0  0
  -18.1928  -26.7895   22.1580 C   0  0  0  0  0  0
  -19.1529  -28.8820   23.2862 C   0  0  0  0  0  0
  -18.9463  -30.1431   23.8874 C   0  0  0  0  0  0
  -17.6480  -30.6578   24.0525 C   0  0  0  0  0  0
  -25.9063  -34.9449   23.5098 C   0  0  0  0  0  0
  -16.5357  -29.9061   23.6317 C   0  0  0  0  0  0
  -16.7268  -28.6473   23.0329 C   0  0  0  0  0  0
  -26.4501  -31.6575   25.0705 C   0  0  0  0  0  0
  -25.3733  -31.3703   26.1441 C   0  0  0  0  0  0
  -27.0329  -30.3012   24.6091 C   0  0  0  0  0  0
  -27.6084  -32.4298   25.7465 C   0  0  0  0  0  0
  -27.5582  -37.1786   24.8446 C   0  0  0  0  0  0
  -21.4191  -29.3005   22.3700 N   0  0  0  0  0  0
  -26.4293  -37.3772   23.9407 N   0  0  0  0  0  0
  -24.6834  -31.0608   22.0951 N   0  0  0  0  0  0
  -23.4193  -28.8127   23.3054 O   0  0  0  0  0  0
  -28.3983  -26.5436   20.0754 O   0  0  0  0  0  0
  -26.5623  -34.8917   22.4659 O   0  0  0  0  0  0
  -23.5424  -32.1401   23.7336 O   0  0  0  0  0  0
  -30.1931  -19.5094   20.0192 C   0  0  0  0  0  0
  -30.4722  -18.0941   19.9964 C   0  0  0  0  0  0
  -28.3520  -19.1146   21.4929 C   0  0  0  0  0  0
  -29.1188  -20.0785   20.7751 C   0  0  0  0  0  0
  -29.6782  -17.1615   20.7280 C   0  0  0  0  0  0
  -28.6078  -17.7093   21.4727 C   0  0  0  0  0  0
  -27.9075  -21.8893   21.9673 C   0  0  0  0  0  0
  -26.7877  -17.2192   22.9880 C   0  0  0  0  0  0
  -28.6116  -23.9154   19.7131 C   0  0  0  0  0  0
  -29.4688  -22.6348   20.1830 C   0  0  0  0  0  0
  -28.4016  -25.1841   20.6571 C   0  0  0  0  0  0
  -29.7315  -15.6939   20.7582 N   0  0  0  0  0  0
  -28.7657  -21.4927   20.8462 N   0  0  0  0  0  0
  -27.8349  -16.7784   22.1388 O   0  0  0  0  0  0
  -31.4868  -12.5406   19.1392 H   0  0  0  0  0  0
  -30.3920  -11.4156   19.8974 H   0  0  0  0  0  0
  -29.7667  -11.7318   17.4889 H   0  0  0  0  0  0
  -29.6484  -13.4574   17.7190 H   0  0  0  0  0  0
  -27.8643  -11.2905   18.8707 H   0  0  0  0  0  0
  -27.3743  -12.5726   17.7962 H   0  0  0  0  0  0
  -27.6690  -14.2469   19.5169 H   0  0  0  0  0  0
  -28.7318  -12.0514   21.3628 H   0  0  0  0  0  0
  -28.4578  -13.7006   21.8445 H   0  0  0  0  0  0
  -25.2761   -9.5671   22.4791 H   0  0  0  0  0  0
  -24.0001   -7.4625   22.7479 H   0  0  0  0  0  0
  -21.0866   -8.8789   19.8940 H   0  0  0  0  0  0
  -22.3729  -10.9693   19.6175 H   0  0  0  0  0  0
  -21.1992   -7.6148   23.9716 H   0  0  0  0  0  0
  -21.1483   -6.0524   25.9077 H   0  0  0  0  0  0
  -22.0600   -2.7615   23.2834 H   0  0  0  0  0  0
  -22.4120  -11.9869   22.4771 H   0  0  0  0  0  0
  -21.1128  -13.1263   22.2626 H   0  0  0  0  0  0
  -24.6464  -15.8305   20.4212 H   0  0  0  0  0  0
  -26.2706  -15.6050   20.0210 H   0  0  0  0  0  0
  -26.7175  -32.5470   23.1084 H   0  0  0  0  0  0
  -25.0065  -33.9693   25.0397 H   0  0  0  0  0  0
  -22.7111  -31.2919   21.3991 H   0  0  0  0  0  0
  -23.3758  -35.9631   23.3265 H   0  0  0  0  0  0
  -24.3593  -36.8952   22.2063 H   0  0  0  0  0  0
  -23.7232  -37.6466   23.6697 H   0  0  0  0  0  0
  -26.0685  -31.5567   20.5927 H   0  0  0  0  0  0
  -26.8373  -30.8556   21.9866 H   0  0  0  0  0  0
  -28.1296  -29.0194   21.1574 H   0  0  0  0  0  0
  -26.0313  -25.8926   19.0545 H   0  0  0  0  0  0
  -23.9825  -27.2596   19.0491 H   0  0  0  0  0  0
  -23.7450  -30.5743   19.4002 H   0  0  0  0  0  0
  -22.7568  -29.2224   19.8681 H   0  0  0  0  0  0
  -25.1283  -36.1927   25.0796 H   0  0  0  0  0  0
  -20.9916  -28.3247   24.1426 H   0  0  0  0  0  0
  -20.5662  -26.2260   23.3613 H   0  0  0  0  0  0
  -21.6663  -26.7429   22.1218 H   0  0  0  0  0  0
  -19.6945  -25.6267   21.1224 H   0  0  0  0  0  0
  -19.6731  -27.3182   20.6716 H   0  0  0  0  0  0
  -17.4207  -26.6626   21.3962 H   0  0  0  0  0  0
  -18.0321  -26.0035   22.8982 H   0  0  0  0  0  0
  -19.7968  -30.7198   24.2269 H   0  0  0  0  0  0
  -17.5052  -31.6257   24.5131 H   0  0  0  0  0  0
  -15.5357  -30.2952   23.7684 H   0  0  0  0  0  0
  -15.8656  -28.0798   22.7056 H   0  0  0  0  0  0
  -24.5932  -30.7010   25.7765 H   0  0  0  0  0  0
  -24.8901  -32.2873   26.4851 H   0  0  0  0  0  0
  -25.8083  -30.8910   27.0223 H   0  0  0  0  0  0
  -26.2859  -29.6755   24.1193 H   0  0  0  0  0  0
  -27.4114  -29.7272   25.4547 H   0  0  0  0  0  0
  -27.8697  -30.4283   23.9214 H   0  0  0  0  0  0
  -27.2720  -33.3638   26.1979 H   0  0  0  0  0  0
  -28.3940  -32.6780   25.0306 H   0  0  0  0  0  0
  -28.0684  -31.8438   26.5421 H   0  0  0  0  0  0
  -28.2564  -38.0126   24.7552 H   0  0  0  0  0  0
  -28.1115  -36.2647   24.6212 H   0  0  0  0  0  0
  -27.2307  -37.1355   25.8851 H   0  0  0  0  0  0
  -20.9394  -29.8726   21.6894 H   0  0  0  0  0  0
  -26.0171  -38.2824   24.1478 H   0  0  0  0  0  0
  -30.8275  -20.1543   19.4296 H   0  0  0  0  0  0
  -31.2841  -17.7350   19.3807 H   0  0  0  0  0  0
  -27.5148  -19.4586   22.0707 H   0  0  0  0  0  0
  -28.1530  -21.3478   22.8826 H   0  0  0  0  0  0
  -26.8605  -21.7059   21.7206 H   0  0  0  0  0  0
  -28.0067  -22.9474   22.2095 H   0  0  0  0  0  0
  -26.2091  -16.3517   23.3062 H   0  0  0  0  0  0
  -26.0962  -17.8930   22.4835 H   0  0  0  0  0  0
  -27.1941  -17.6993   23.8785 H   0  0  0  0  0  0
  -27.6497  -23.5914   19.3180 H   0  0  0  0  0  0
  -29.1432  -24.3040   18.8445 H   0  0  0  0  0  0
  -30.2845  -22.9719   20.8256 H   0  0  0  0  0  0
  -29.9552  -22.2333   19.2924 H   0  0  0  0  0  0
  -29.2332  -25.1937   21.3622 H   0  0  0  0  0  0
  -27.5099  -25.0393   21.2700 H   0  0  0  0  0  0
  -28.8613  -15.3198   21.1024 H   0  0  0  0  0  0
  1 25  1  0  0  0
  1 30  2  0  0  0
  1 82  1  0  0  0
  2  3  1  0  0  0
  2 25  1  0  0  0
  2 85  1  0  0  0
  2 86  1  0  0  0
  3  4  1  0  0  0
  3 87  1  0  0  0
  3 88  1  0  0  0
  4  5  1  0  0  0
  4 89  1  0  0  0
  4 90  1  0  0  0
  5  6  1  0  0  0
  5 26  1  0  0  0
  5 91  1  0  0  0
  6 25  1  0  0  0
  6 92  1  0  0  0
  6 93  1  0  0  0
  7  8  2  0  0  0
  7 26  1  0  0  0
  7 29  1  0  0  0
  8  9  1  0  0  0
  8 22  1  0  0  0
  9 10  1  0  0  0
  9 27  2  0  0  0
 10 11  2  0  0  0
 10 15  1  0  0  0
 11 12  1  0  0  0
 11 94  1  0  0  0
 12 13  2  0  0  0
 12 95  1  0  0  0
 13 14  1  0  0  0
 13 31  1  0  0  0
 14 15  2  0  0  0
 14 96  1  0  0  0
 15 97  1  0  0  0
 16 17  2  0  0  0
 16 21  1  0  0  0
 16 31  1  0  0  0
 17 18  1  0  0  0
 17 98  1  0  0  0
 18 19  2  0  0  0
 18 99  1  0  0  0
 19 20  1  0  0  0
 19 24  1  0  0  0
 20 21  2  0  0  0
 20100  1  0  0  0
 21 23  1  0  0  0
 22 28  1  0  0  0
 22 32  2  0  0  0
 26 27  1  0  0  0
 28101  1  0  0  0
 28102  1  0  0  0
 29103  1  0  0  0
 29104  1  0  0  0
 33 34  1  0  0  0
 33 66  1  0  0  0
 33 70  2  0  0  0
 34 36  1  0  0  0
 34 59  1  0  0  0
 34105  1  0  0  0
 35 44  2  0  0  0
 35 45  1  0  0  0
 35 68  1  0  0  0
 36 56  1  0  0  0
 36106  1  0  0  0
 37 39  1  0  0  0
 37 47  1  0  0  0
 37 66  1  0  0  0
 37107  1  0  0  0
 38 43  2  0  0  0
 38 46  1  0  0  0
 38 47  1  0  0  0
 39 64  1  0  0  0
 39 67  2  0  0  0
 40 52  1  0  0  0
 40 53  2  0  0  0
 40 58  1  0  0  0
 41108  1  0  0  0
 41109  1  0  0  0
 41110  1  0  0  0
 41 48  1  0  0  0
 42 43  1  0  0  0
 42 66  1  0  0  0
 42111  1  0  0  0
 42112  1  0  0  0
 43 44  1  0  0  0
 44113  1  0  0  0
 45 46  2  0  0  0
 45114  1  0  0  0
 46115  1  0  0  0
 47116  1  0  0  0
 47117  1  0  0  0
 48 56  1  0  0  0
 48 65  1  0  0  0
 48118  1  0  0  0
 49 50  1  0  0  0
 49 53  1  0  0  0
 49 64  1  0  0  0
 49119  1  0  0  0
 50 51  1  0  0  0
 50120  1  0  0  0
 50121  1  0  0  0
 51 52  1  0  0  0
 51122  1  0  0  0
 51123  1  0  0  0
 52124  1  0  0  0
 52125  1  0  0  0
 53 54  1  0  0  0
 54 55  2  0  0  0
 54126  1  0  0  0
 55 57  1  0  0  0
 55127  1  0  0  0
 56 69  2  0  0  0
 57 58  2  0  0  0
 57128  1  0  0  0
 58129  1  0  0  0
 59 60  1  0  0  0
 59 61  1  0  0  0
 59 62  1  0  0  0
 60130  1  0  0  0
 60131  1  0  0  0
 60132  1  0  0  0
 61133  1  0  0  0
 61134  1  0  0  0
 61135  1  0  0  0
 62136  1  0  0  0
 62137  1  0  0  0
 62138  1  0  0  0
 63 65  1  0  0  0
 63139  1  0  0  0
 63140  1  0  0  0
 63141  1  0  0  0
 64142  1  0  0  0
 65143  1  0  0  0
 68 81  1  0  0  0
 71 72  2  0  0  0
 71 74  1  0  0  0
 71144  1  0  0  0
 72 75  1  0  0  0
 72145  1  0  0  0
 73 74  2  0  0  0
 73 76  1  0  0  0
 73146  1  0  0  0
 74 83  1  0  0  0
 75 76  2  0  0  0
 75 82  1  0  0  0
 76 84  1  0  0  0
 77 83  1  0  0  0
 77147  1  0  0  0
 77148  1  0  0  0
 77149  1  0  0  0
 78 84  1  0  0  0
 78150  1  0  0  0
 78151  1  0  0  0
 78152  1  0  0  0
 79 80  1  0  0  0
 79 81  1  0  0  0
 79153  1  0  0  0
 79154  1  0  0  0
 80 83  1  0  0  0
 80155  1  0  0  0
 80156  1  0  0  0
 81157  1  0  0  0
 81158  1  0  0  0
 82159  1  0  0  0
M  ISO  4   1 100  68 101  81 101  82 100
M  END
> <chiral flag>
0

> <version>
0

> <s_m_source_file>
/data/baiqing/PycharmProjects/Reinvent-master-3.2/result/LINK_invent/BTK/process_docking_weight1_custom_sum_contain_oxygen_bond_distance_aromatic_linkinvent_7_9_3/rearranged_h_0010.sdf

> <i_m_source_file_index>
56

> <r_mmod_Potential_Energy-OPLS-2005>
92.2716445922852

> <r_mmod_Stretch_Energy-OPLS-2005>
88.6486053466797

> <r_mmod_Bend_Energy-OPLS-2005>
203.446563720703

> <r_mmod_Torsional_Energy-OPLS-2005>
236.319488525391

> <r_mmod_Improper_Torsional_Energy-OPLS-2005>
5.55431795120239

> <r_mmod_Van_der_Waal_Energy-OPLS-2005>
149.039611816406

> <r_mmod_Electrostatic_Energy-OPLS-2005>
-420.338745117188

> <r_mmod_Solvation_Energy-OPLS-2005>
-221.159698486328

> <b_mmod_Minimization_Converged-OPLS-2005>
0

> <r_mmod_RMS_Derivative-OPLS-2005>
3.75266933441162

$$$$
56
                    3D
 Structure written by MMmdl.
162170  0  0  1  0            999 V2000
  -30.6271  -14.7062   20.4478 C   0  0  0  0  0  0
  -30.4285  -12.4230   19.4812 C   0  0  0  0  0  0
  -29.5132  -12.5003   18.2392 C   0  0  0  0  0  0
  -28.0367  -12.3335   18.6475 C   0  0  0  0  0  0
  -27.6457  -13.2295   19.8540 C   0  0  2  0  0  0
  -28.6874  -13.1516   20.9932 C   0  0  0  0  0  0
  -25.2523  -13.8196   20.5685 C   0  0  0  0  0  0
  -24.1807  -13.0444   20.9198 C   0  0  0  0  0  0
  -24.6393  -11.6919   20.8740 C   0  0  0  0  0  0
  -23.9071  -10.4296   21.0406 C   0  0  0  0  0  0
  -24.3623   -9.4209   21.9183 C   0  0  0  0  0  0
  -23.6297   -8.2246   22.0753 C   0  0  0  0  0  0
  -22.4276   -8.0287   21.3548 C   0  0  0  0  0  0
  -21.9916   -9.0261   20.4649 C   0  0  0  0  0  0
  -22.7245  -10.2139   20.3055 C   0  0  0  0  0  0
  -21.6854   -6.0738   22.5280 C   0  0  0  0  0  0
  -21.4016   -6.5642   23.8214 C   0  0  0  0  0  0
  -21.3656   -5.6790   24.9176 C   0  0  0  0  0  0
  -21.6043   -4.3055   24.7222 C   0  0  0  0  0  0
  -21.8816   -3.8149   23.4344 C   0  0  0  0  0  0
  -21.9191   -4.6967   22.3400 C   0  0  0  0  0  0
  -22.7828  -13.5231   21.1854 C   0  0  0  0  0  0
  -22.1659   -4.2151   21.0977 F   0  0  0  0  0  0
  -21.5630   -3.4538   25.7737 F   0  0  0  0  0  0
  -29.9971  -13.4844   20.4200 N   0  0  0  0  0  0
  -26.2953  -12.9402   20.3282 N   0  0  0  0  0  0
  -25.9326  -11.6543   20.5744 N   0  0  0  0  0  0
  -22.0465  -12.8230   22.0413 N   0  0  0  0  0  0
  -25.4221  -15.1922   20.4112 N   0  0  0  0  0  0
  -31.8109  -14.7878   20.1104 O   0  0  0  0  0  0
  -21.6640   -6.8885   21.4242 O   0  0  0  0  0  0
  -22.3512  -14.5532   20.6695 O   0  0  0  0  0  0
  -24.6284  -31.8556   23.1977 C   0  0  0  0  0  0
  -25.9112  -32.4756   23.8325 C   0  0  1  0  0  0
  -27.2293  -27.2842   20.1178 C   0  0  0  0  0  0
  -25.5915  -33.8560   24.2253 N   0  0  0  0  0  0
  -23.4240  -30.4759   21.5409 C   0  0  2  0  0  0
  -24.8706  -28.9215   20.1106 C   0  0  0  0  0  0
  -22.7488  -29.4595   22.4922 C   0  0  0  0  0  0
  -18.0288  -28.1393   22.8480 C   0  0  0  0  0  0
  -24.1490  -36.7289   23.2640 C   0  0  0  0  0  0
  -25.9661  -30.7759   21.3717 C   0  0  0  0  0  0
  -26.0388  -29.3986   20.7156 C   0  0  0  0  0  0
  -27.2162  -28.5908   20.7084 C   0  0  0  0  0  0
  -26.0314  -26.8584   19.5010 C   0  0  0  0  0  0
  -24.8701  -27.6586   19.4967 C   0  0  0  0  0  0
  -23.6400  -29.8053   20.1579 C   0  0  0  0  0  0
  -25.4112  -36.3066   24.0327 C   0  0  1  0  0  0
  -20.5889  -28.3692   23.1278 C   0  0  2  0  0  0
  -20.6771  -26.9413   22.5408 C   0  0  0  0  0  0
  -19.5747  -26.6384   21.5210 C   0  0  0  0  0  0
  -18.1930  -26.7931   22.1626 C   0  0  0  0  0  0
  -19.1540  -28.8860   23.2873 C   0  0  0  0  0  0
  -18.9464  -30.1462   23.8890 C   0  0  0  0  0  0
  -17.6463  -30.6592   24.0560 C   0  0  0  0  0  0
  -25.9051  -34.9438   23.5094 C   0  0  0  0  0  0
  -16.5355  -29.9090   23.6328 C   0  0  0  0  0  0
  -16.7276  -28.6511   23.0345 C   0  0  0  0  0  0
  -26.4490  -31.6580   25.0710 C   0  0  0  0  0  0
  -25.3713  -31.3734   26.1434 C   0  0  0  0  0  0
  -27.0333  -30.2997   24.6184 C   0  0  0  0  0  0
  -27.6048  -32.4316   25.7485 C   0  0  0  0  0  0
  -27.5573  -37.1794   24.8462 C   0  0  0  0  0  0
  -21.4198  -29.3034   22.3667 N   0  0  0  0  0  0
  -26.4287  -37.3760   23.9406 N   0  0  0  0  0  0
  -24.6919  -31.0534   22.0941 N   0  0  0  0  0  0
  -23.4196  -28.8144   23.3021 O   0  0  0  0  0  0
  -28.3688  -26.4576   20.1910 O   0  0  0  0  0  0
  -26.5626  -34.8914   22.4665 O   0  0  0  0  0  0
  -23.5436  -32.1376   23.7278 O   0  0  0  0  0  0
  -30.7935  -17.4012   19.0022 C   0  0  0  0  0  0
  -30.3420  -19.7547   18.9603 C   0  0  0  0  0  0
  -30.9469  -18.7021   18.3792 C   0  0  0  0  0  0
  -30.0593  -17.1945   20.1213 C   0  0  0  0  0  0
  -29.3822  -18.4055   20.7316 C   0  0  0  0  0  0
  -33.2345  -18.5756   17.3135 C   0  0  0  0  0  0
  -31.1574  -18.0123   15.9545 C   0  0  0  0  0  0
  -29.0300  -22.3696   19.8821 C   0  0  0  0  0  0
  -28.5053  -23.7565   20.5295 C   0  0  0  0  0  0
  -29.0039  -20.9730   20.7118 C   0  0  0  0  0  0
  -28.4727  -25.0833   19.6136 C   0  0  0  0  0  0
  -31.7429  -18.8654   17.0917 C   0  0  0  0  0  0
  -29.5689  -19.6640   20.1345 N   0  0  0  0  0  0
  -29.8591  -15.8434   20.6399 N   0  0  0  0  0  0
  -28.6805  -18.2934   21.7424 O   0  0  0  0  0  0
  -31.4738  -12.5261   19.1849 H   0  0  0  0  0  0
  -30.3515  -11.4433   19.9554 H   0  0  0  0  0  0
  -29.7919  -11.7311   17.5176 H   0  0  0  0  0  0
  -29.6513  -13.4579   17.7344 H   0  0  0  0  0  0
  -27.8855  -11.2845   18.9046 H   0  0  0  0  0  0
  -27.3828  -12.5335   17.7975 H   0  0  0  0  0  0
  -27.6461  -14.2537   19.4801 H   0  0  0  0  0  0
  -28.7075  -12.1534   21.4328 H   0  0  0  0  0  0
  -28.4287  -13.8363   21.8026 H   0  0  0  0  0  0
  -25.2773   -9.5688   22.4752 H   0  0  0  0  0  0
  -24.0010   -7.4634   22.7472 H   0  0  0  0  0  0
  -21.0847   -8.8783   19.8952 H   0  0  0  0  0  0
  -22.3710  -10.9677   19.6160 H   0  0  0  0  0  0
  -21.2014   -7.6153   23.9721 H   0  0  0  0  0  0
  -21.1479   -6.0521   25.9078 H   0  0  0  0  0  0
  -22.0599   -2.7612   23.2839 H   0  0  0  0  0  0
  -22.4081  -11.9911   22.4837 H   0  0  0  0  0  0
  -21.1077  -13.1255   22.2588 H   0  0  0  0  0  0
  -24.6566  -15.8470   20.5305 H   0  0  0  0  0  0
  -26.2727  -15.6334   20.0856 H   0  0  0  0  0  0
  -26.7175  -32.5412   23.1065 H   0  0  0  0  0  0
  -25.0024  -33.9698   25.0372 H   0  0  0  0  0  0
  -22.7183  -31.2962   21.3932 H   0  0  0  0  0  0
  -23.3745  -35.9628   23.3306 H   0  0  0  0  0  0
  -24.3575  -36.8909   22.2053 H   0  0  0  0  0  0
  -23.7261  -37.6499   23.6665 H   0  0  0  0  0  0
  -26.0971  -31.5363   20.6007 H   0  0  0  0  0  0
  -26.8473  -30.8279   21.9998 H   0  0  0  0  0  0
  -28.1145  -28.9542   21.1876 H   0  0  0  0  0  0
  -25.9501  -25.8868   19.0405 H   0  0  0  0  0  0
  -23.9701  -27.2837   19.0289 H   0  0  0  0  0  0
  -23.7620  -30.5799   19.4001 H   0  0  0  0  0  0
  -22.7604  -29.2343   19.8552 H   0  0  0  0  0  0
  -25.1293  -36.1910   25.0819 H   0  0  0  0  0  0
  -20.9978  -28.3276   24.1400 H   0  0  0  0  0  0
  -20.5672  -26.2306   23.3611 H   0  0  0  0  0  0
  -21.6638  -26.7436   22.1202 H   0  0  0  0  0  0
  -19.6908  -25.6293   21.1246 H   0  0  0  0  0  0
  -19.6692  -27.3187   20.6737 H   0  0  0  0  0  0
  -17.4195  -26.6673   21.4035 H   0  0  0  0  0  0
  -18.0341  -26.0086   22.9039 H   0  0  0  0  0  0
  -19.7940  -30.7277   24.2264 H   0  0  0  0  0  0
  -17.5018  -31.6272   24.5162 H   0  0  0  0  0  0
  -15.5354  -30.2986   23.7657 H   0  0  0  0  0  0
  -15.8679  -28.0826   22.7057 H   0  0  0  0  0  0
  -24.5884  -30.7090   25.7762 H   0  0  0  0  0  0
  -24.8910  -32.2908   26.4846 H   0  0  0  0  0  0
  -25.8023  -30.8917   27.0220 H   0  0  0  0  0  0
  -26.2911  -29.6749   24.1202 H   0  0  0  0  0  0
  -27.4015  -29.7252   25.4695 H   0  0  0  0  0  0
  -27.8788  -30.4276   23.9419 H   0  0  0  0  0  0
  -27.2661  -33.3618   26.2060 H   0  0  0  0  0  0
  -28.3864  -32.6872   25.0318 H   0  0  0  0  0  0
  -28.0714  -31.8444   26.5407 H   0  0  0  0  0  0
  -28.2587  -38.0090   24.7488 H   0  0  0  0  0  0
  -28.1072  -36.2619   24.6310 H   0  0  0  0  0  0
  -27.2289  -37.1467   25.8864 H   0  0  0  0  0  0
  -20.9389  -29.8759   21.6869 H   0  0  0  0  0  0
  -26.0168  -38.2835   24.1400 H   0  0  0  0  0  0
  -31.2628  -16.5679   18.5022 H   0  0  0  0  0  0
  -30.4161  -20.7404   18.5335 H   0  0  0  0  0  0
  -33.6521  -19.2336   18.0763 H   0  0  0  0  0  0
  -33.8046  -18.7352   16.3979 H   0  0  0  0  0  0
  -33.4067  -17.5472   17.6325 H   0  0  0  0  0  0
  -30.1013  -18.2349   15.7991 H   0  0  0  0  0  0
  -31.2440  -16.9445   16.1572 H   0  0  0  0  0  0
  -31.6724  -18.2068   15.0134 H   0  0  0  0  0  0
  -30.0596  -22.5647   19.5817 H   0  0  0  0  0  0
  -28.4790  -22.2100   18.9549 H   0  0  0  0  0  0
  -29.1335  -23.9694   21.3952 H   0  0  0  0  0  0
  -27.5047  -23.6007   20.9331 H   0  0  0  0  0  0
  -27.9677  -20.7771   20.9898 H   0  0  0  0  0  0
  -29.5246  -21.1375   21.6560 H   0  0  0  0  0  0
  -27.7764  -24.9341   18.7916 H   0  0  0  0  0  0
  -29.4382  -25.1052   19.1084 H   0  0  0  0  0  0
  -31.6606  -19.9078   16.7784 H   0  0  0  0  0  0
  -28.9690  -15.7040   21.0946 H   0  0  0  0  0  0
  1 25  1  0  0  0
  1 30  2  0  0  0
  1 84  1  0  0  0
  2  3  1  0  0  0
  2 25  1  0  0  0
  2 86  1  0  0  0
  2 87  1  0  0  0
  3  4  1  0  0  0
  3 88  1  0  0  0
  3 89  1  0  0  0
  4  5  1  0  0  0
  4 90  1  0  0  0
  4 91  1  0  0  0
  5  6  1  0  0  0
  5 26  1  0  0  0
  5 92  1  0  0  0
  6 25  1  0  0  0
  6 93  1  0  0  0
  6 94  1  0  0  0
  7  8  2  0  0  0
  7 26  1  0  0  0
  7 29  1  0  0  0
  8  9  1  0  0  0
  8 22  1  0  0  0
  9 10  1  0  0  0
  9 27  2  0  0  0
 10 11  2  0  0  0
 10 15  1  0  0  0
 11 12  1  0  0  0
 11 95  1  0  0  0
 12 13  2  0  0  0
 12 96  1  0  0  0
 13 14  1  0  0  0
 13 31  1  0  0  0
 14 15  2  0  0  0
 14 97  1  0  0  0
 15 98  1  0  0  0
 16 17  2  0  0  0
 16 21  1  0  0  0
 16 31  1  0  0  0
 17 18  1  0  0  0
 17 99  1  0  0  0
 18 19  2  0  0  0
 18100  1  0  0  0
 19 20  1  0  0  0
 19 24  1  0  0  0
 20 21  2  0  0  0
 20101  1  0  0  0
 21 23  1  0  0  0
 22 28  1  0  0  0
 22 32  2  0  0  0
 26 27  1  0  0  0
 28102  1  0  0  0
 28103  1  0  0  0
 29104  1  0  0  0
 29105  1  0  0  0
 33 34  1  0  0  0
 33 66  1  0  0  0
 33 70  2  0  0  0
 34 36  1  0  0  0
 34 59  1  0  0  0
 34106  1  0  0  0
 35 44  2  0  0  0
 35 45  1  0  0  0
 35 68  1  0  0  0
 36 56  1  0  0  0
 36107  1  0  0  0
 37 39  1  0  0  0
 37 47  1  0  0  0
 37 66  1  0  0  0
 37108  1  0  0  0
 38 43  2  0  0  0
 38 46  1  0  0  0
 38 47  1  0  0  0
 39 64  1  0  0  0
 39 67  2  0  0  0
 40 52  1  0  0  0
 40 53  2  0  0  0
 40 58  1  0  0  0
 41109  1  0  0  0
 41110  1  0  0  0
 41111  1  0  0  0
 41 48  1  0  0  0
 42 43  1  0  0  0
 42 66  1  0  0  0
 42112  1  0  0  0
 42113  1  0  0  0
 43 44  1  0  0  0
 44114  1  0  0  0
 45 46  2  0  0  0
 45115  1  0  0  0
 46116  1  0  0  0
 47117  1  0  0  0
 47118  1  0  0  0
 48 56  1  0  0  0
 48 65  1  0  0  0
 48119  1  0  0  0
 49 50  1  0  0  0
 49 53  1  0  0  0
 49 64  1  0  0  0
 49120  1  0  0  0
 50 51  1  0  0  0
 50121  1  0  0  0
 50122  1  0  0  0
 51 52  1  0  0  0
 51123  1  0  0  0
 51124  1  0  0  0
 52125  1  0  0  0
 52126  1  0  0  0
 53 54  1  0  0  0
 54 55  2  0  0  0
 54127  1  0  0  0
 55 57  1  0  0  0
 55128  1  0  0  0
 56 69  2  0  0  0
 57 58  2  0  0  0
 57129  1  0  0  0
 58130  1  0  0  0
 59 60  1  0  0  0
 59 61  1  0  0  0
 59 62  1  0  0  0
 60131  1  0  0  0
 60132  1  0  0  0
 60133  1  0  0  0
 61134  1  0  0  0
 61135  1  0  0  0
 61136  1  0  0  0
 62137  1  0  0  0
 62138  1  0  0  0
 62139  1  0  0  0
 63 65  1  0  0  0
 63140  1  0  0  0
 63141  1  0  0  0
 63142  1  0  0  0
 64143  1  0  0  0
 65144  1  0  0  0
 68 81  1  0  0  0
 71 73  1  0  0  0
 71 74  2  0  0  0
 71145  1  0  0  0
 72 73  2  0  0  0
 72 83  1  0  0  0
 72146  1  0  0  0
 73 82  1  0  0  0
 74 75  1  0  0  0
 74 84  1  0  0  0
 75 83  1  0  0  0
 75 85  2  0  0  0
 76147  1  0  0  0
 76148  1  0  0  0
 76149  1  0  0  0
 76 82  1  0  0  0
 77 82  1  0  0  0
 77150  1  0  0  0
 77151  1  0  0  0
 77152  1  0  0  0
 78 79  1  0  0  0
 78 80  1  0  0  0
 78153  1  0  0  0
 78154  1  0  0  0
 79 81  1  0  0  0
 79155  1  0  0  0
 79156  1  0  0  0
 80 83  1  0  0  0
 80157  1  0  0  0
 80158  1  0  0  0
 81159  1  0  0  0
 81160  1  0  0  0
 82161  1  0  0  0
 84162  1  0  0  0
M  ISO  4   1 100  68 101  81 101  84 100
M  END
> <chiral flag>
0

> <version>
0

> <s_m_source_file>
/data/baiqing/PycharmProjects/Reinvent-master-3.2/result/LINK_invent/BTK/process_docking_weight1_custom_sum_contain_oxygen_bond_distance_aromatic_linkinvent_7_9_3/rearranged_h_0010.sdf

> <i_m_source_file_index>
57

> <r_mmod_Potential_Energy-OPLS-2005>
141.4013671875

> <r_mmod_Stretch_Energy-OPLS-2005>
124.442718505859

> <r_mmod_Bend_Energy-OPLS-2005>
175.780700683594

> <r_mmod_Torsional_Energy-OPLS-2005>
221.571304321289

> <r_mmod_Improper_Torsional_Energy-OPLS-2005>
5.28956031799316

> <r_mmod_Van_der_Waal_Energy-OPLS-2005>
149.989181518555

> <r_mmod_Electrostatic_Energy-OPLS-2005>
-399.665740966797

> <r_mmod_Solvation_Energy-OPLS-2005>
-203.941375732422

> <b_mmod_Minimization_Converged-OPLS-2005>
0

> <r_mmod_RMS_Derivative-OPLS-2005>
0.985558569431305

$$$$
57
                    3D
 Structure written by MMmdl.
151159  0  0  1  0            999 V2000
  -30.6214  -14.6226   20.5089 C   0  0  0  0  0  0
  -30.4420  -12.3823   19.4487 C   0  0  0  0  0  0
  -29.5095  -12.5064   18.2226 C   0  0  0  0  0  0
  -28.0321  -12.3446   18.6340 C   0  0  0  0  0  0
  -27.6569  -13.2118   19.8658 C   0  0  2  0  0  0
  -28.7008  -13.0489   20.9942 C   0  0  0  0  0  0
  -25.2581  -13.8161   20.5680 C   0  0  0  0  0  0
  -24.1841  -13.0435   20.9190 C   0  0  0  0  0  0
  -24.6396  -11.6904   20.8738 C   0  0  0  0  0  0
  -23.9061  -10.4290   21.0411 C   0  0  0  0  0  0
  -24.3611   -9.4208   21.9189 C   0  0  0  0  0  0
  -23.6291   -8.2242   22.0753 C   0  0  0  0  0  0
  -22.4274   -8.0276   21.3542 C   0  0  0  0  0  0
  -21.9904   -9.0253   20.4648 C   0  0  0  0  0  0
  -22.7231  -10.2137   20.3062 C   0  0  0  0  0  0
  -21.6850   -6.0737   22.5283 C   0  0  0  0  0  0
  -21.4010   -6.5640   23.8217 C   0  0  0  0  0  0
  -21.3660   -5.6790   24.9177 C   0  0  0  0  0  0
  -21.6042   -4.3053   24.7226 C   0  0  0  0  0  0
  -21.8819   -3.8147   23.4348 C   0  0  0  0  0  0
  -21.9191   -4.6965   22.3406 C   0  0  0  0  0  0
  -22.7863  -13.5236   21.1852 C   0  0  0  0  0  0
  -22.1662   -4.2154   21.0983 F   0  0  0  0  0  0
  -21.5630   -3.4533   25.7735 F   0  0  0  0  0  0
  -30.0197  -13.3940   20.4372 N   0  0  0  0  0  0
  -26.3003  -12.9333   20.3313 N   0  0  0  0  0  0
  -25.9321  -11.6492   20.5748 N   0  0  0  0  0  0
  -22.0495  -12.8239   22.0406 N   0  0  0  0  0  0
  -25.4296  -15.1883   20.4094 N   0  0  0  0  0  0
  -31.7757  -14.7995   20.1067 O   0  0  0  0  0  0
  -21.6634   -6.8878   21.4243 O   0  0  0  0  0  0
  -22.3557  -14.5544   20.6697 O   0  0  0  0  0  0
  -24.6259  -31.8614   23.2046 C   0  0  0  0  0  0
  -25.9110  -32.4785   23.8371 C   0  0  1  0  0  0
  -27.2181  -27.3261   20.1082 C   0  0  0  0  0  0
  -25.5928  -33.8584   24.2301 N   0  0  0  0  0  0
  -23.4184  -30.4887   21.5475 C   0  0  2  0  0  0
  -24.8623  -28.9485   20.1103 C   0  0  0  0  0  0
  -22.7471  -29.4639   22.4935 C   0  0  0  0  0  0
  -18.0289  -28.1387   22.8492 C   0  0  0  0  0  0
  -24.1488  -36.7292   23.2637 C   0  0  0  0  0  0
  -25.9609  -30.7947   21.3747 C   0  0  0  0  0  0
  -26.0332  -29.4240   20.7143 C   0  0  0  0  0  0
  -27.2147  -28.6248   20.7036 C   0  0  0  0  0  0
  -26.0214  -26.9067   19.4787 C   0  0  0  0  0  0
  -24.8583  -27.6951   19.4837 C   0  0  0  0  0  0
  -23.6316  -29.8294   20.1609 C   0  0  0  0  0  0
  -25.4108  -36.3086   24.0338 C   0  0  1  0  0  0
  -20.5892  -28.3687   23.1286 C   0  0  2  0  0  0
  -20.6777  -26.9413   22.5409 C   0  0  0  0  0  0
  -19.5751  -26.6392   21.5214 C   0  0  0  0  0  0
  -18.1934  -26.7931   22.1633 C   0  0  0  0  0  0
  -19.1543  -28.8853   23.2888 C   0  0  0  0  0  0
  -18.9461  -30.1456   23.8905 C   0  0  0  0  0  0
  -17.6461  -30.6590   24.0566 C   0  0  0  0  0  0
  -25.9049  -34.9454   23.5121 C   0  0  0  0  0  0
  -16.5352  -29.9090   23.6330 C   0  0  0  0  0  0
  -16.7277  -28.6507   23.0355 C   0  0  0  0  0  0
  -26.4493  -31.6584   25.0732 C   0  0  0  0  0  0
  -25.3729  -31.3727   26.1464 C   0  0  0  0  0  0
  -27.0317  -30.3005   24.6168 C   0  0  0  0  0  0
  -27.6077  -32.4292   25.7486 C   0  0  0  0  0  0
  -27.5581  -37.1800   24.8467 C   0  0  0  0  0  0
  -21.4188  -29.3045   22.3680 N   0  0  0  0  0  0
  -26.4287  -37.3780   23.9417 N   0  0  0  0  0  0
  -24.6874  -31.0639   22.0992 N   0  0  0  0  0  0
  -23.4200  -28.8170   23.3002 O   0  0  0  0  0  0
  -28.3327  -26.4734   20.1570 O   0  0  0  0  0  0
  -26.5611  -34.8914   22.4683 O   0  0  0  0  0  0
  -23.5424  -32.1407   23.7376 O   0  0  0  0  0  0
  -28.7305  -17.8634   21.1601 C   0  0  0  0  0  0
  -28.6707  -19.2816   21.0333 C   0  0  0  0  0  0
  -30.9332  -17.8455   20.1907 C   0  0  0  0  0  0
  -29.8562  -17.1013   20.7439 C   0  0  0  0  0  0
  -29.7473  -20.0241   20.4828 C   0  0  0  0  0  0
  -30.8789  -19.2677   20.0719 C   0  0  0  0  0  0
  -28.8178  -22.4385   20.3875 C   0  0  0  0  0  0
  -29.2167  -23.9686   20.3736 C   0  0  0  0  0  0
  -28.0824  -25.0201   20.0146 C   0  0  0  0  0  0
  -29.7973  -21.4832   20.3770 N   0  0  0  0  0  0
  -29.8094  -15.6481   20.9110 N   0  0  0  0  0  0
  -27.6224  -22.1364   20.3994 O   0  0  0  0  0  0
  -31.9442  -19.9247   19.5515 F   0  0  0  0  0  0
  -31.4830  -12.5107   19.1468 H   0  0  0  0  0  0
  -30.3783  -11.3830   19.8816 H   0  0  0  0  0  0
  -29.7728  -11.7590   17.4731 H   0  0  0  0  0  0
  -29.6531  -13.4780   17.7468 H   0  0  0  0  0  0
  -27.8677  -11.2910   18.8634 H   0  0  0  0  0  0
  -27.3772  -12.5773   17.7936 H   0  0  0  0  0  0
  -27.6808  -14.2498   19.5327 H   0  0  0  0  0  0
  -28.7081  -12.0211   21.3601 H   0  0  0  0  0  0
  -28.4451  -13.6650   21.8574 H   0  0  0  0  0  0
  -25.2760   -9.5683   22.4758 H   0  0  0  0  0  0
  -24.0005   -7.4629   22.7466 H   0  0  0  0  0  0
  -21.0837   -8.8770   19.8954 H   0  0  0  0  0  0
  -22.3691  -10.9673   19.6166 H   0  0  0  0  0  0
  -21.1999   -7.6148   23.9721 H   0  0  0  0  0  0
  -21.1483   -6.0519   25.9081 H   0  0  0  0  0  0
  -22.0598   -2.7608   23.2841 H   0  0  0  0  0  0
  -22.4096  -11.9900   22.4808 H   0  0  0  0  0  0
  -21.1114  -13.1279   22.2607 H   0  0  0  0  0  0
  -24.6570  -15.8375   20.5101 H   0  0  0  0  0  0
  -26.2688  -15.6244   20.0492 H   0  0  0  0  0  0
  -26.7178  -32.5455   23.1121 H   0  0  0  0  0  0
  -25.0073  -33.9729   25.0444 H   0  0  0  0  0  0
  -22.7131  -31.3108   21.4090 H   0  0  0  0  0  0
  -23.3755  -35.9618   23.3290 H   0  0  0  0  0  0
  -24.3591  -36.8915   22.2055 H   0  0  0  0  0  0
  -23.7228  -37.6490   23.6656 H   0  0  0  0  0  0
  -26.0939  -31.5601   20.6086 H   0  0  0  0  0  0
  -26.8411  -30.8407   22.0040 H   0  0  0  0  0  0
  -28.1130  -28.9845   21.1860 H   0  0  0  0  0  0
  -25.9476  -25.9523   18.9804 H   0  0  0  0  0  0
  -23.9615  -27.3276   19.0038 H   0  0  0  0  0  0
  -23.7526  -30.6094   19.4083 H   0  0  0  0  0  0
  -22.7496  -29.2630   19.8559 H   0  0  0  0  0  0
  -25.1284  -36.1945   25.0829 H   0  0  0  0  0  0
  -20.9998  -28.3259   24.1401 H   0  0  0  0  0  0
  -20.5694  -26.2293   23.3604 H   0  0  0  0  0  0
  -21.6646  -26.7453   22.1192 H   0  0  0  0  0  0
  -19.6909  -25.6305   21.1243 H   0  0  0  0  0  0
  -19.6685  -27.3206   20.6747 H   0  0  0  0  0  0
  -17.4201  -26.6678   21.4038 H   0  0  0  0  0  0
  -18.0338  -26.0075   22.9034 H   0  0  0  0  0  0
  -19.7933  -30.7273   24.2278 H   0  0  0  0  0  0
  -17.5014  -31.6272   24.5165 H   0  0  0  0  0  0
  -15.5353  -30.2996   23.7647 H   0  0  0  0  0  0
  -15.8678  -28.0831   22.7064 H   0  0  0  0  0  0
  -24.5874  -30.7117   25.7787 H   0  0  0  0  0  0
  -24.8954  -32.2897   26.4924 H   0  0  0  0  0  0
  -25.8047  -30.8864   27.0219 H   0  0  0  0  0  0
  -26.2878  -29.6763   24.1203 H   0  0  0  0  0  0
  -27.4032  -29.7254   25.4660 H   0  0  0  0  0  0
  -27.8748  -30.4295   23.9377 H   0  0  0  0  0  0
  -27.2734  -33.3615   26.2051 H   0  0  0  0  0  0
  -28.3891  -32.6807   25.0301 H   0  0  0  0  0  0
  -28.0733  -31.8406   26.5400 H   0  0  0  0  0  0
  -28.2601  -38.0099   24.7519 H   0  0  0  0  0  0
  -28.1078  -36.2630   24.6285 H   0  0  0  0  0  0
  -27.2303  -37.1436   25.8872 H   0  0  0  0  0  0
  -20.9358  -29.8774   21.6900 H   0  0  0  0  0  0
  -26.0174  -38.2857   24.1415 H   0  0  0  0  0  0
  -27.8801  -17.3577   21.5963 H   0  0  0  0  0  0
  -27.7872  -19.7931   21.3870 H   0  0  0  0  0  0
  -31.8249  -17.3413   19.8505 H   0  0  0  0  0  0
  -30.0537  -24.1015   19.6883 H   0  0  0  0  0  0
  -29.5987  -24.2018   21.3670 H   0  0  0  0  0  0
  -27.2117  -24.7730   20.6250 H   0  0  0  0  0  0
  -27.7983  -24.8275   18.9793 H   0  0  0  0  0  0
  -30.7331  -21.8453   20.2498 H   0  0  0  0  0  0
  -28.9345  -15.3048   21.2770 H   0  0  0  0  0  0
  1 25  1  0  0  0
  1 30  2  0  0  0
  1 81  1  0  0  0
  2  3  1  0  0  0
  2 25  1  0  0  0
  2 84  1  0  0  0
  2 85  1  0  0  0
  3  4  1  0  0  0
  3 86  1  0  0  0
  3 87  1  0  0  0
  4  5  1  0  0  0
  4 88  1  0  0  0
  4 89  1  0  0  0
  5  6  1  0  0  0
  5 26  1  0  0  0
  5 90  1  0  0  0
  6 25  1  0  0  0
  6 91  1  0  0  0
  6 92  1  0  0  0
  7  8  2  0  0  0
  7 26  1  0  0  0
  7 29  1  0  0  0
  8  9  1  0  0  0
  8 22  1  0  0  0
  9 10  1  0  0  0
  9 27  2  0  0  0
 10 11  2  0  0  0
 10 15  1  0  0  0
 11 12  1  0  0  0
 11 93  1  0  0  0
 12 13  2  0  0  0
 12 94  1  0  0  0
 13 14  1  0  0  0
 13 31  1  0  0  0
 14 15  2  0  0  0
 14 95  1  0  0  0
 15 96  1  0  0  0
 16 17  2  0  0  0
 16 21  1  0  0  0
 16 31  1  0  0  0
 17 18  1  0  0  0
 17 97  1  0  0  0
 18 19  2  0  0  0
 18 98  1  0  0  0
 19 20  1  0  0  0
 19 24  1  0  0  0
 20 21  2  0  0  0
 20 99  1  0  0  0
 21 23  1  0  0  0
 22 28  1  0  0  0
 22 32  2  0  0  0
 26 27  1  0  0  0
 28100  1  0  0  0
 28101  1  0  0  0
 29102  1  0  0  0
 29103  1  0  0  0
 33 34  1  0  0  0
 33 66  1  0  0  0
 33 70  2  0  0  0
 34 36  1  0  0  0
 34 59  1  0  0  0
 34104  1  0  0  0
 35 44  2  0  0  0
 35 45  1  0  0  0
 35 68  1  0  0  0
 36 56  1  0  0  0
 36105  1  0  0  0
 37 39  1  0  0  0
 37 47  1  0  0  0
 37 66  1  0  0  0
 37106  1  0  0  0
 38 43  2  0  0  0
 38 46  1  0  0  0
 38 47  1  0  0  0
 39 64  1  0  0  0
 39 67  2  0  0  0
 40 52  1  0  0  0
 40 53  2  0  0  0
 40 58  1  0  0  0
 41107  1  0  0  0
 41108  1  0  0  0
 41109  1  0  0  0
 41 48  1  0  0  0
 42 43  1  0  0  0
 42 66  1  0  0  0
 42110  1  0  0  0
 42111  1  0  0  0
 43 44  1  0  0  0
 44112  1  0  0  0
 45 46  2  0  0  0
 45113  1  0  0  0
 46114  1  0  0  0
 47115  1  0  0  0
 47116  1  0  0  0
 48 56  1  0  0  0
 48 65  1  0  0  0
 48117  1  0  0  0
 49 50  1  0  0  0
 49 53  1  0  0  0
 49 64  1  0  0  0
 49118  1  0  0  0
 50 51  1  0  0  0
 50119  1  0  0  0
 50120  1  0  0  0
 51 52  1  0  0  0
 51121  1  0  0  0
 51122  1  0  0  0
 52123  1  0  0  0
 52124  1  0  0  0
 53 54  1  0  0  0
 54 55  2  0  0  0
 54125  1  0  0  0
 55 57  1  0  0  0
 55126  1  0  0  0
 56 69  2  0  0  0
 57 58  2  0  0  0
 57127  1  0  0  0
 58128  1  0  0  0
 59 60  1  0  0  0
 59 61  1  0  0  0
 59 62  1  0  0  0
 60129  1  0  0  0
 60130  1  0  0  0
 60131  1  0  0  0
 61132  1  0  0  0
 61133  1  0  0  0
 61134  1  0  0  0
 62135  1  0  0  0
 62136  1  0  0  0
 62137  1  0  0  0
 63 65  1  0  0  0
 63138  1  0  0  0
 63139  1  0  0  0
 63140  1  0  0  0
 64141  1  0  0  0
 65142  1  0  0  0
 68 79  1  0  0  0
 71 72  2  0  0  0
 71 74  1  0  0  0
 71143  1  0  0  0
 72 75  1  0  0  0
 72144  1  0  0  0
 73 74  2  0  0  0
 73 76  1  0  0  0
 73145  1  0  0  0
 74 81  1  0  0  0
 75 76  2  0  0  0
 75 80  1  0  0  0
 76 83  1  0  0  0
 77 78  1  0  0  0
 77 80  1  0  0  0
 77 82  2  0  0  0
 78 79  1  0  0  0
 78146  1  0  0  0
 78147  1  0  0  0
 79148  1  0  0  0
 79149  1  0  0  0
 80150  1  0  0  0
 81151  1  0  0  0
M  ISO  4   1 100  68 101  79 101  81 100
M  END
> <chiral flag>
0

> <version>
0

> <s_m_source_file>
/data/baiqing/PycharmProjects/Reinvent-master-3.2/result/LINK_invent/BTK/process_docking_weight1_custom_sum_contain_oxygen_bond_distance_aromatic_linkinvent_7_9_3/rearranged_h_0010.sdf

> <i_m_source_file_index>
58

> <r_mmod_Potential_Energy-OPLS-2005>
-27.2396717071533

> <r_mmod_Stretch_Energy-OPLS-2005>
74.1498413085938

> <r_mmod_Bend_Energy-OPLS-2005>
137.099090576172

> <r_mmod_Torsional_Energy-OPLS-2005>
218.325881958008

> <r_mmod_Improper_Torsional_Energy-OPLS-2005>
3.98355317115784

> <r_mmod_Van_der_Waal_Energy-OPLS-2005>
149.183334350586

> <r_mmod_Electrostatic_Energy-OPLS-2005>
-431.605224609375

> <r_mmod_Solvation_Energy-OPLS-2005>
-223.176300048828

> <b_mmod_Minimization_Converged-OPLS-2005>
0

> <r_mmod_RMS_Derivative-OPLS-2005>
0.949476361274719

$$$$
58
                    3D
 Structure written by MMmdl.
154162  0  0  1  0            999 V2000
  -30.5955  -14.6824   20.4816 C   0  0  0  0  0  0
  -30.4507  -12.4159   19.4688 C   0  0  0  0  0  0
  -29.5153  -12.4807   18.2398 C   0  0  0  0  0  0
  -28.0413  -12.3063   18.6567 C   0  0  0  0  0  0
  -27.6529  -13.2067   19.8570 C   0  0  2  0  0  0
  -28.6935  -13.0898   20.9931 C   0  0  0  0  0  0
  -25.2565  -13.8174   20.5644 C   0  0  0  0  0  0
  -24.1814  -13.0464   20.9165 C   0  0  0  0  0  0
  -24.6357  -11.6926   20.8725 C   0  0  0  0  0  0
  -23.9026  -10.4309   21.0408 C   0  0  0  0  0  0
  -24.3594   -9.4226   21.9171 C   0  0  0  0  0  0
  -23.6298   -8.2242   22.0726 C   0  0  0  0  0  0
  -22.4270   -8.0283   21.3533 C   0  0  0  0  0  0
  -21.9889   -9.0259   20.4653 C   0  0  0  0  0  0
  -22.7192  -10.2152   20.3074 C   0  0  0  0  0  0
  -21.6863   -6.0743   22.5288 C   0  0  0  0  0  0
  -21.4019   -6.5641   23.8221 C   0  0  0  0  0  0
  -21.3633   -5.6781   24.9172 C   0  0  0  0  0  0
  -21.6048   -4.3049   24.7227 C   0  0  0  0  0  0
  -21.8809   -3.8150   23.4346 C   0  0  0  0  0  0
  -21.9191   -4.6971   22.3406 C   0  0  0  0  0  0
  -22.7842  -13.5280   21.1830 C   0  0  0  0  0  0
  -22.1664   -4.2156   21.0983 F   0  0  0  0  0  0
  -21.5617   -3.4526   25.7740 F   0  0  0  0  0  0
  -30.0080  -13.4425   20.4343 N   0  0  0  0  0  0
  -26.2970  -12.9327   20.3280 N   0  0  0  0  0  0
  -25.9275  -11.6506   20.5738 N   0  0  0  0  0  0
  -22.0466  -12.8334   22.0423 N   0  0  0  0  0  0
  -25.4326  -15.1878   20.3997 N   0  0  0  0  0  0
  -31.7456  -14.8540   20.0643 O   0  0  0  0  0  0
  -21.6634   -6.8885   21.4250 O   0  0  0  0  0  0
  -22.3531  -14.5562   20.6630 O   0  0  0  0  0  0
  -24.6292  -31.8619   23.1989 C   0  0  0  0  0  0
  -25.9140  -32.4803   23.8320 C   0  0  1  0  0  0
  -27.2256  -27.3290   20.1023 C   0  0  0  0  0  0
  -25.5951  -33.8597   24.2269 N   0  0  0  0  0  0
  -23.4217  -30.4850   21.5429 C   0  0  2  0  0  0
  -24.8637  -28.9283   20.1167 C   0  0  0  0  0  0
  -22.7487  -29.4666   22.4929 C   0  0  0  0  0  0
  -18.0311  -28.1409   22.8489 C   0  0  0  0  0  0
  -24.1484  -36.7275   23.2635 C   0  0  0  0  0  0
  -25.9614  -30.7954   21.3618 C   0  0  0  0  0  0
  -26.0347  -29.4205   20.7072 C   0  0  0  0  0  0
  -27.2235  -28.6352   20.6789 C   0  0  0  0  0  0
  -26.0301  -26.8726   19.5106 C   0  0  0  0  0  0
  -24.8591  -27.6580   19.5148 C   0  0  0  0  0  0
  -23.6342  -29.8127   20.1614 C   0  0  0  0  0  0
  -25.4115  -36.3097   24.0329 C   0  0  1  0  0  0
  -20.5911  -28.3725   23.1274 C   0  0  2  0  0  0
  -20.6809  -26.9444   22.5407 C   0  0  0  0  0  0
  -19.5780  -26.6397   21.5222 C   0  0  0  0  0  0
  -18.1956  -26.7953   22.1620 C   0  0  0  0  0  0
  -19.1570  -28.8884   23.2882 C   0  0  0  0  0  0
  -18.9485  -30.1478   23.8907 C   0  0  0  0  0  0
  -17.6493  -30.6616   24.0569 C   0  0  0  0  0  0
  -25.9064  -34.9479   23.5104 C   0  0  0  0  0  0
  -16.5384  -29.9120   23.6318 C   0  0  0  0  0  0
  -16.7305  -28.6528   23.0358 C   0  0  0  0  0  0
  -26.4529  -31.6628   25.0693 C   0  0  0  0  0  0
  -25.3782  -31.3787   26.1442 C   0  0  0  0  0  0
  -27.0365  -30.3072   24.6108 C   0  0  0  0  0  0
  -27.6120  -32.4362   25.7422 C   0  0  0  0  0  0
  -27.5601  -37.1758   24.8455 C   0  0  0  0  0  0
  -21.4218  -29.3066   22.3658 N   0  0  0  0  0  0
  -26.4283  -37.3810   23.9460 N   0  0  0  0  0  0
  -24.6912  -31.0631   22.0923 N   0  0  0  0  0  0
  -23.4218  -28.8227   23.3030 O   0  0  0  0  0  0
  -28.3561  -26.5060   20.0717 O   0  0  0  0  0  0
  -26.5631  -34.8958   22.4657 O   0  0  0  0  0  0
  -23.5455  -32.1402   23.7325 O   0  0  0  0  0  0
  -29.2879  -18.0974   21.5435 C   0  0  0  0  0  0
  -29.1256  -19.4876   21.2495 C   0  0  0  0  0  0
  -30.1308  -17.7028   19.3333 C   0  0  0  0  0  0
  -29.9300  -19.0859   19.0154 C   0  0  0  0  0  0
  -29.7941  -17.1595   20.5998 C   0  0  0  0  0  0
  -29.4259  -20.0239   19.9701 C   0  0  0  0  0  0
  -28.6057  -23.8604   19.7654 C   0  0  0  0  0  0
  -28.2597  -25.1469   20.6441 C   0  0  0  0  0  0
  -28.8965  -22.4693   20.5032 C   0  0  0  0  0  0
  -30.2624  -19.5344   17.5990 C   0  0  0  0  0  0
  -29.8101  -15.7232   20.9110 N   0  0  0  0  0  0
  -29.2313  -21.3721   19.5880 O   0  0  0  0  0  0
  -31.4195  -20.1933   17.5771 F   0  0  0  0  0  0
  -29.2995  -20.2979   17.0804 F   0  0  0  0  0  0
  -31.4864  -12.5651   19.1614 H   0  0  0  0  0  0
  -30.4208  -11.4285   19.9340 H   0  0  0  0  0  0
  -29.7932  -11.7049   17.5238 H   0  0  0  0  0  0
  -29.6409  -13.4342   17.7227 H   0  0  0  0  0  0
  -27.9016  -11.2602   18.9331 H   0  0  0  0  0  0
  -27.3802  -12.4819   17.8084 H   0  0  0  0  0  0
  -27.6669  -14.2319   19.4855 H   0  0  0  0  0  0
  -28.7118  -12.0715   21.3858 H   0  0  0  0  0  0
  -28.4222  -13.7252   21.8376 H   0  0  0  0  0  0
  -25.2765   -9.5712   22.4705 H   0  0  0  0  0  0
  -24.0032   -7.4631   22.7425 H   0  0  0  0  0  0
  -21.0808   -8.8790   19.8972 H   0  0  0  0  0  0
  -22.3655  -10.9684   19.6175 H   0  0  0  0  0  0
  -21.2024   -7.6151   23.9739 H   0  0  0  0  0  0
  -21.1446   -6.0502   25.9076 H   0  0  0  0  0  0
  -22.0609   -2.7613   23.2842 H   0  0  0  0  0  0
  -22.4113  -12.0109   22.5004 H   0  0  0  0  0  0
  -21.1062  -13.1375   22.2539 H   0  0  0  0  0  0
  -24.6710  -15.8504   20.5007 H   0  0  0  0  0  0
  -26.2852  -15.6127   20.0570 H   0  0  0  0  0  0
  -26.7207  -32.5474   23.1068 H   0  0  0  0  0  0
  -25.0141  -33.9725   25.0447 H   0  0  0  0  0  0
  -22.7143  -31.3060   21.3989 H   0  0  0  0  0  0
  -23.3799  -35.9546   23.3245 H   0  0  0  0  0  0
  -24.3585  -36.8949   22.2057 H   0  0  0  0  0  0
  -23.7156  -37.6424   23.6691 H   0  0  0  0  0  0
  -26.0819  -31.5572   20.5911 H   0  0  0  0  0  0
  -26.8461  -30.8499   21.9842 H   0  0  0  0  0  0
  -28.1336  -29.0176   21.1196 H   0  0  0  0  0  0
  -25.9966  -25.8996   19.0406 H   0  0  0  0  0  0
  -23.9544  -27.2708   19.0684 H   0  0  0  0  0  0
  -23.7592  -30.5852   19.4019 H   0  0  0  0  0  0
  -22.7514  -29.2479   19.8588 H   0  0  0  0  0  0
  -25.1279  -36.1921   25.0810 H   0  0  0  0  0  0
  -21.0007  -28.3320   24.1403 H   0  0  0  0  0  0
  -20.5740  -26.2345   23.3624 H   0  0  0  0  0  0
  -21.6682  -26.7502   22.1201 H   0  0  0  0  0  0
  -19.6944  -25.6306   21.1269 H   0  0  0  0  0  0
  -19.6718  -27.3197   20.6746 H   0  0  0  0  0  0
  -17.4233  -26.6734   21.4003 H   0  0  0  0  0  0
  -18.0336  -26.0102   22.9020 H   0  0  0  0  0  0
  -19.7977  -30.7282   24.2280 H   0  0  0  0  0  0
  -17.5068  -31.6288   24.5192 H   0  0  0  0  0  0
  -15.5397  -30.3041   23.7633 H   0  0  0  0  0  0
  -15.8704  -28.0853   22.7074 H   0  0  0  0  0  0
  -24.5813  -30.7334   25.7736 H   0  0  0  0  0  0
  -24.9162  -32.2989   26.5026 H   0  0  0  0  0  0
  -25.8075  -30.8767   27.0119 H   0  0  0  0  0  0
  -26.2902  -29.6803   24.1216 H   0  0  0  0  0  0
  -27.4203  -29.7352   25.4564 H   0  0  0  0  0  0
  -27.8714  -30.4410   23.9228 H   0  0  0  0  0  0
  -27.2747  -33.3612   26.2110 H   0  0  0  0  0  0
  -28.3837  -32.7026   25.0189 H   0  0  0  0  0  0
  -28.0922  -31.8447   26.5226 H   0  0  0  0  0  0
  -28.2583  -38.0103   24.7633 H   0  0  0  0  0  0
  -28.1139  -36.2649   24.6111 H   0  0  0  0  0  0
  -27.2350  -37.1201   25.8863 H   0  0  0  0  0  0
  -20.9414  -29.8742   21.6814 H   0  0  0  0  0  0
  -26.0158  -38.2855   24.1587 H   0  0  0  0  0  0
  -28.9997  -17.7492   22.5243 H   0  0  0  0  0  0
  -28.7377  -20.1398   22.0180 H   0  0  0  0  0  0
  -30.5068  -17.0439   18.5636 H   0  0  0  0  0  0
  -29.4739  -24.0860   19.1465 H   0  0  0  0  0  0
  -27.7837  -23.7003   19.0649 H   0  0  0  0  0  0
  -28.9600  -25.1573   21.4781 H   0  0  0  0  0  0
  -27.2803  -25.0025   21.1022 H   0  0  0  0  0  0
  -28.0399  -22.2008   21.1243 H   0  0  0  0  0  0
  -29.7419  -22.6032   21.1806 H   0  0  0  0  0  0
  -30.3640  -18.6794   16.9295 H   0  0  0  0  0  0
  -29.0049  -15.4120   21.4344 H   0  0  0  0  0  0
  1 25  1  0  0  0
  1 30  2  0  0  0
  1 81  1  0  0  0
  2  3  1  0  0  0
  2 25  1  0  0  0
  2 85  1  0  0  0
  2 86  1  0  0  0
  3  4  1  0  0  0
  3 87  1  0  0  0
  3 88  1  0  0  0
  4  5  1  0  0  0
  4 89  1  0  0  0
  4 90  1  0  0  0
  5  6  1  0  0  0
  5 26  1  0  0  0
  5 91  1  0  0  0
  6 25  1  0  0  0
  6 92  1  0  0  0
  6 93  1  0  0  0
  7  8  2  0  0  0
  7 26  1  0  0  0
  7 29  1  0  0  0
  8  9  1  0  0  0
  8 22  1  0  0  0
  9 10  1  0  0  0
  9 27  2  0  0  0
 10 11  2  0  0  0
 10 15  1  0  0  0
 11 12  1  0  0  0
 11 94  1  0  0  0
 12 13  2  0  0  0
 12 95  1  0  0  0
 13 14  1  0  0  0
 13 31  1  0  0  0
 14 15  2  0  0  0
 14 96  1  0  0  0
 15 97  1  0  0  0
 16 17  2  0  0  0
 16 21  1  0  0  0
 16 31  1  0  0  0
 17 18  1  0  0  0
 17 98  1  0  0  0
 18 19  2  0  0  0
 18 99  1  0  0  0
 19 20  1  0  0  0
 19 24  1  0  0  0
 20 21  2  0  0  0
 20100  1  0  0  0
 21 23  1  0  0  0
 22 28  1  0  0  0
 22 32  2  0  0  0
 26 27  1  0  0  0
 28101  1  0  0  0
 28102  1  0  0  0
 29103  1  0  0  0
 29104  1  0  0  0
 33 34  1  0  0  0
 33 66  1  0  0  0
 33 70  2  0  0  0
 34 36  1  0  0  0
 34 59  1  0  0  0
 34105  1  0  0  0
 35 44  2  0  0  0
 35 45  1  0  0  0
 35 68  1  0  0  0
 36 56  1  0  0  0
 36106  1  0  0  0
 37 39  1  0  0  0
 37 47  1  0  0  0
 37 66  1  0  0  0
 37107  1  0  0  0
 38 43  2  0  0  0
 38 46  1  0  0  0
 38 47  1  0  0  0
 39 64  1  0  0  0
 39 67  2  0  0  0
 40 52  1  0  0  0
 40 53  2  0  0  0
 40 58  1  0  0  0
 41108  1  0  0  0
 41109  1  0  0  0
 41110  1  0  0  0
 41 48  1  0  0  0
 42 43  1  0  0  0
 42 66  1  0  0  0
 42111  1  0  0  0
 42112  1  0  0  0
 43 44  1  0  0  0
 44113  1  0  0  0
 45 46  2  0  0  0
 45114  1  0  0  0
 46115  1  0  0  0
 47116  1  0  0  0
 47117  1  0  0  0
 48 56  1  0  0  0
 48 65  1  0  0  0
 48118  1  0  0  0
 49 50  1  0  0  0
 49 53  1  0  0  0
 49 64  1  0  0  0
 49119  1  0  0  0
 50 51  1  0  0  0
 50120  1  0  0  0
 50121  1  0  0  0
 51 52  1  0  0  0
 51122  1  0  0  0
 51123  1  0  0  0
 52124  1  0  0  0
 52125  1  0  0  0
 53 54  1  0  0  0
 54 55  2  0  0  0
 54126  1  0  0  0
 55 57  1  0  0  0
 55127  1  0  0  0
 56 69  2  0  0  0
 57 58  2  0  0  0
 57128  1  0  0  0
 58129  1  0  0  0
 59 60  1  0  0  0
 59 61  1  0  0  0
 59 62  1  0  0  0
 60130  1  0  0  0
 60131  1  0  0  0
 60132  1  0  0  0
 61133  1  0  0  0
 61134  1  0  0  0
 61135  1  0  0  0
 62136  1  0  0  0
 62137  1  0  0  0
 62138  1  0  0  0
 63 65  1  0  0  0
 63139  1  0  0  0
 63140  1  0  0  0
 63141  1  0  0  0
 64142  1  0  0  0
 65143  1  0  0  0
 68 78  1  0  0  0
 71 72  2  0  0  0
 71 75  1  0  0  0
 71144  1  0  0  0
 72 76  1  0  0  0
 72145  1  0  0  0
 73 74  1  0  0  0
 73 75  2  0  0  0
 73146  1  0  0  0
 74 76  2  0  0  0
 74 80  1  0  0  0
 75 81  1  0  0  0
 76 82  1  0  0  0
 77 78  1  0  0  0
 77 79  1  0  0  0
 77147  1  0  0  0
 77148  1  0  0  0
 78149  1  0  0  0
 78150  1  0  0  0
 79 82  1  0  0  0
 79151  1  0  0  0
 79152  1  0  0  0
 80 83  1  0  0  0
 80 84  1  0  0  0
 80153  1  0  0  0
 81154  1  0  0  0
M  ISO  4   1 100  68 101  78 101  81 100
M  END
> <chiral flag>
0

> <version>
0

> <s_m_source_file>
/data/baiqing/PycharmProjects/Reinvent-master-3.2/result/LINK_invent/BTK/process_docking_weight1_custom_sum_contain_oxygen_bond_distance_aromatic_linkinvent_7_9_3/rearranged_h_0010.sdf

> <i_m_source_file_index>
59

> <r_mmod_Potential_Energy-OPLS-2005>
70.6577682495117

> <r_mmod_Stretch_Energy-OPLS-2005>
80.8342819213867

> <r_mmod_Bend_Energy-OPLS-2005>
147.542922973633

> <r_mmod_Torsional_Energy-OPLS-2005>
242.158264160156

> <r_mmod_Improper_Torsional_Energy-OPLS-2005>
3.63659858703613

> <r_mmod_Van_der_Waal_Energy-OPLS-2005>
135.730178833008

> <r_mmod_Electrostatic_Energy-OPLS-2005>
-380.081909179688

> <r_mmod_Solvation_Energy-OPLS-2005>
-213.527908325195

> <b_mmod_Minimization_Converged-OPLS-2005>
0

> <r_mmod_RMS_Derivative-OPLS-2005>
4.20764589309692

$$$$
59
                    3D
 Structure written by MMmdl.
156164  0  0  1  0            999 V2000
  -30.5145  -14.9053   20.4324 C   0  0  0  0  0  0
  -30.4480  -12.5559   19.4968 C   0  0  0  0  0  0
  -29.5225  -12.5262   18.2565 C   0  0  0  0  0  0
  -28.0525  -12.3187   18.6708 C   0  0  0  0  0  0
  -27.6357  -13.2384   19.8480 C   0  0  2  0  0  0
  -28.6774  -13.2149   20.9872 C   0  0  0  0  0  0
  -25.2478  -13.8203   20.5714 C   0  0  0  0  0  0
  -24.1778  -13.0433   20.9213 C   0  0  0  0  0  0
  -24.6383  -11.6917   20.8750 C   0  0  0  0  0  0
  -23.9067  -10.4288   21.0405 C   0  0  0  0  0  0
  -24.3615   -9.4203   21.9183 C   0  0  0  0  0  0
  -23.6287   -8.2239   22.0750 C   0  0  0  0  0  0
  -22.4268   -8.0278   21.3540 C   0  0  0  0  0  0
  -21.9909   -9.0252   20.4644 C   0  0  0  0  0  0
  -22.7239  -10.2130   20.3053 C   0  0  0  0  0  0
  -21.6849   -6.0733   22.5276 C   0  0  0  0  0  0
  -21.4013   -6.5635   23.8213 C   0  0  0  0  0  0
  -21.3660   -5.6788   24.9175 C   0  0  0  0  0  0
  -21.6043   -4.3051   24.7227 C   0  0  0  0  0  0
  -21.8820   -3.8142   23.4345 C   0  0  0  0  0  0
  -21.9190   -4.6961   22.3401 C   0  0  0  0  0  0
  -22.7801  -13.5214   21.1878 C   0  0  0  0  0  0
  -22.1658   -4.2146   21.0979 F   0  0  0  0  0  0
  -21.5628   -3.4533   25.7741 F   0  0  0  0  0  0
  -29.9624  -13.6291   20.4068 N   0  0  0  0  0  0
  -26.2903  -12.9415   20.3273 N   0  0  0  0  0  0
  -25.9314  -11.6553   20.5746 N   0  0  0  0  0  0
  -22.0448  -12.8200   22.0436 N   0  0  0  0  0  0
  -25.4157  -15.1932   20.4175 N   0  0  0  0  0  0
  -31.6982  -15.0323   20.0975 O   0  0  0  0  0  0
  -21.6629   -6.8876   21.4239 O   0  0  0  0  0  0
  -22.3482  -14.5518   20.6730 O   0  0  0  0  0  0
  -24.6441  -31.8427   23.1870 C   0  0  0  0  0  0
  -25.9213  -32.4682   23.8258 C   0  0  1  0  0  0
  -27.2162  -27.1386   20.1368 C   0  0  0  0  0  0
  -25.5964  -33.8487   24.2177 N   0  0  0  0  0  0
  -23.4466  -30.4625   21.5321 C   0  0  2  0  0  0
  -24.8934  -28.8901   20.1055 C   0  0  0  0  0  0
  -22.7570  -29.4533   22.4841 C   0  0  0  0  0  0
  -18.0308  -28.1390   22.8463 C   0  0  0  0  0  0
  -24.1489  -36.7253   23.2640 C   0  0  0  0  0  0
  -26.0014  -30.7160   21.3849 C   0  0  0  0  0  0
  -26.0697  -29.3284   20.7245 C   0  0  0  0  0  0
  -27.2277  -28.4666   20.7255 C   0  0  0  0  0  0
  -26.0121  -26.8008   19.4782 C   0  0  0  0  0  0
  -24.8772  -27.6402   19.4691 C   0  0  0  0  0  0
  -23.6723  -29.7934   20.1501 C   0  0  0  0  0  0
  -25.4115  -36.3018   24.0315 C   0  0  1  0  0  0
  -20.5918  -28.3711   23.1228 C   0  0  2  0  0  0
  -20.6785  -26.9412   22.5402 C   0  0  0  0  0  0
  -19.5761  -26.6372   21.5202 C   0  0  0  0  0  0
  -18.1939  -26.7923   22.1611 C   0  0  0  0  0  0
  -19.1565  -28.8866   23.2836 C   0  0  0  0  0  0
  -18.9485  -30.1457   23.8869 C   0  0  0  0  0  0
  -17.6484  -30.6586   24.0553 C   0  0  0  0  0  0
  -25.9072  -34.9397   23.5050 C   0  0  0  0  0  0
  -16.5373  -29.9083   23.6331 C   0  0  0  0  0  0
  -16.7293  -28.6500   23.0354 C   0  0  0  0  0  0
  -26.4540  -31.6559   25.0706 C   0  0  0  0  0  0
  -25.3735  -31.3756   26.1412 C   0  0  0  0  0  0
  -27.0407  -30.2957   24.6281 C   0  0  0  0  0  0
  -27.6056  -32.4338   25.7503 C   0  0  0  0  0  0
  -27.5573  -37.1768   24.8460 C   0  0  0  0  0  0
  -21.4263  -29.3037   22.3601 N   0  0  0  0  0  0
  -26.4271  -37.3742   23.9423 N   0  0  0  0  0  0
  -24.7173  -31.0289   22.0898 N   0  0  0  0  0  0
  -23.4218  -28.8073   23.2981 O   0  0  0  0  0  0
  -28.2891  -26.1830   20.2480 O   0  0  0  0  0  0
  -26.5658  -34.8900   22.4632 O   0  0  0  0  0  0
  -23.5564  -32.1307   23.7099 O   0  0  0  0  0  0
  -30.4911  -19.7529   19.6377 C   0  0  0  0  0  0
  -30.6070  -18.3172   19.7976 C   0  0  0  0  0  0
  -28.5188  -19.7956   20.9110 C   0  0  0  0  0  0
  -29.4560  -20.6075   20.1846 C   0  0  0  0  0  0
  -29.6718  -17.5254   20.5240 C   0  0  0  0  0  0
  -28.6082  -18.3364   21.0674 C   0  0  0  0  0  0
  -30.7207  -22.5827   19.4845 C   0  0  0  0  0  0
  -26.4993  -18.2673   22.2398 C   0  0  0  0  0  0
  -28.5990  -23.2783   20.5718 C   0  0  0  0  0  0
  -28.3066  -24.7163   19.7278 C   0  0  0  0  0  0
  -29.6692  -16.0064   20.6966 N   0  0  0  0  0  0
  -29.4253  -22.0964   19.9700 N   0  0  0  0  0  0
  -27.6604  -17.6046   21.7559 O   0  0  0  0  0  0
  -31.4804  -12.7231   19.1865 H   0  0  0  0  0  0
  -30.4437  -11.5919   20.0079 H   0  0  0  0  0  0
  -29.8342  -11.7372   17.5710 H   0  0  0  0  0  0
  -29.6161  -13.4638   17.7063 H   0  0  0  0  0  0
  -27.9391  -11.2742   18.9643 H   0  0  0  0  0  0
  -27.3907  -12.4681   17.8165 H   0  0  0  0  0  0
  -27.6140  -14.2502   19.4422 H   0  0  0  0  0  0
  -28.7516  -12.2182   21.4245 H   0  0  0  0  0  0
  -28.3815  -13.8831   21.7970 H   0  0  0  0  0  0
  -25.2761   -9.5671   22.4760 H   0  0  0  0  0  0
  -23.9993   -7.4625   22.7463 H   0  0  0  0  0  0
  -21.0842   -8.8772   19.8947 H   0  0  0  0  0  0
  -22.3699  -10.9669   19.6160 H   0  0  0  0  0  0
  -21.2007   -7.6143   23.9716 H   0  0  0  0  0  0
  -21.1482   -6.0517   25.9079 H   0  0  0  0  0  0
  -22.0601   -2.7602   23.2847 H   0  0  0  0  0  0
  -22.4066  -11.9861   22.4822 H   0  0  0  0  0  0
  -21.1067  -13.1220   22.2650 H   0  0  0  0  0  0
  -24.6465  -15.8429   20.5353 H   0  0  0  0  0  0
  -26.2716  -15.6439   20.1207 H   0  0  0  0  0  0
  -26.7270  -32.5284   23.0981 H   0  0  0  0  0  0
  -25.0098  -33.9592   25.0317 H   0  0  0  0  0  0
  -22.7488  -31.2887   21.3778 H   0  0  0  0  0  0
  -23.3753  -35.9582   23.3280 H   0  0  0  0  0  0
  -24.3578  -36.8919   22.2059 H   0  0  0  0  0  0
  -23.7235  -37.6438   23.6700 H   0  0  0  0  0  0
  -26.1561  -31.4697   20.6121 H   0  0  0  0  0  0
  -26.8729  -30.7660   22.0265 H   0  0  0  0  0  0
  -28.1254  -28.7924   21.2322 H   0  0  0  0  0  0
  -25.8900  -25.8499   18.9875 H   0  0  0  0  0  0
  -23.9772  -27.2983   18.9755 H   0  0  0  0  0  0
  -23.8143  -30.5696   19.3965 H   0  0  0  0  0  0
  -22.7862  -29.2398   19.8353 H   0  0  0  0  0  0
  -25.1295  -36.1839   25.0803 H   0  0  0  0  0  0
  -21.0000  -28.3305   24.1355 H   0  0  0  0  0  0
  -20.5665  -26.2328   23.3623 H   0  0  0  0  0  0
  -21.6652  -26.7410   22.1206 H   0  0  0  0  0  0
  -19.6923  -25.6279   21.1245 H   0  0  0  0  0  0
  -19.6704  -27.3166   20.6715 H   0  0  0  0  0  0
  -17.4208  -26.6672   21.4015 H   0  0  0  0  0  0
  -18.0341  -26.0073   22.9013 H   0  0  0  0  0  0
  -19.7967  -30.7261   24.2247 H   0  0  0  0  0  0
  -17.5048  -31.6269   24.5150 H   0  0  0  0  0  0
  -15.5374  -30.2977   23.7672 H   0  0  0  0  0  0
  -15.8694  -28.0807   22.7093 H   0  0  0  0  0  0
  -24.5914  -30.7096   25.7753 H   0  0  0  0  0  0
  -24.8925  -32.2943   26.4779 H   0  0  0  0  0  0
  -25.8027  -30.8980   27.0231 H   0  0  0  0  0  0
  -26.3022  -29.6671   24.1290 H   0  0  0  0  0  0
  -27.4036  -29.7261   25.4849 H   0  0  0  0  0  0
  -27.8925  -30.4203   23.9589 H   0  0  0  0  0  0
  -27.2632  -33.3658   26.2015 H   0  0  0  0  0  0
  -28.3906  -32.6870   25.0364 H   0  0  0  0  0  0
  -28.0686  -31.8515   26.5484 H   0  0  0  0  0  0
  -28.2544  -38.0106   24.7533 H   0  0  0  0  0  0
  -28.1109  -36.2632   24.6243 H   0  0  0  0  0  0
  -27.2304  -37.1365   25.8865 H   0  0  0  0  0  0
  -20.9480  -29.8792   21.6813 H   0  0  0  0  0  0
  -26.0136  -38.2798   24.1469 H   0  0  0  0  0  0
  -31.2731  -20.1878   19.0350 H   0  0  0  0  0  0
  -31.4386  -17.8190   19.3195 H   0  0  0  0  0  0
  -27.6935  -20.3274   21.3578 H   0  0  0  0  0  0
  -30.8820  -22.3016   18.4430 H   0  0  0  0  0  0
  -31.5401  -22.1828   20.0846 H   0  0  0  0  0  0
  -30.8194  -23.6661   19.5425 H   0  0  0  0  0  0
  -25.8415  -17.5344   22.7081 H   0  0  0  0  0  0
  -25.9397  -18.7389   21.4306 H   0  0  0  0  0  0
  -26.7457  -19.0137   22.9958 H   0  0  0  0  0  0
  -27.6399  -22.8842   20.9106 H   0  0  0  0  0  0
  -29.1164  -23.5583   21.4905 H   0  0  0  0  0  0
  -27.4203  -24.5213   19.1323 H   0  0  0  0  0  0
  -29.0756  -24.7734   18.9592 H   0  0  0  0  0  0
  -28.7848  -15.6858   21.0624 H   0  0  0  0  0  0
  1 25  1  0  0  0
  1 30  2  0  0  0
  1 81  1  0  0  0
  2  3  1  0  0  0
  2 25  1  0  0  0
  2 84  1  0  0  0
  2 85  1  0  0  0
  3  4  1  0  0  0
  3 86  1  0  0  0
  3 87  1  0  0  0
  4  5  1  0  0  0
  4 88  1  0  0  0
  4 89  1  0  0  0
  5  6  1  0  0  0
  5 26  1  0  0  0
  5 90  1  0  0  0
  6 25  1  0  0  0
  6 91  1  0  0  0
  6 92  1  0  0  0
  7  8  2  0  0  0
  7 26  1  0  0  0
  7 29  1  0  0  0
  8  9  1  0  0  0
  8 22  1  0  0  0
  9 10  1  0  0  0
  9 27  2  0  0  0
 10 11  2  0  0  0
 10 15  1  0  0  0
 11 12  1  0  0  0
 11 93  1  0  0  0
 12 13  2  0  0  0
 12 94  1  0  0  0
 13 14  1  0  0  0
 13 31  1  0  0  0
 14 15  2  0  0  0
 14 95  1  0  0  0
 15 96  1  0  0  0
 16 17  2  0  0  0
 16 21  1  0  0  0
 16 31  1  0  0  0
 17 18  1  0  0  0
 17 97  1  0  0  0
 18 19  2  0  0  0
 18 98  1  0  0  0
 19 20  1  0  0  0
 19 24  1  0  0  0
 20 21  2  0  0  0
 20 99  1  0  0  0
 21 23  1  0  0  0
 22 28  1  0  0  0
 22 32  2  0  0  0
 26 27  1  0  0  0
 28100  1  0  0  0
 28101  1  0  0  0
 29102  1  0  0  0
 29103  1  0  0  0
 33 34  1  0  0  0
 33 66  1  0  0  0
 33 70  2  0  0  0
 34 36  1  0  0  0
 34 59  1  0  0  0
 34104  1  0  0  0
 35 44  2  0  0  0
 35 45  1  0  0  0
 35 68  1  0  0  0
 36 56  1  0  0  0
 36105  1  0  0  0
 37 39  1  0  0  0
 37 47  1  0  0  0
 37 66  1  0  0  0
 37106  1  0  0  0
 38 43  2  0  0  0
 38 46  1  0  0  0
 38 47  1  0  0  0
 39 64  1  0  0  0
 39 67  2  0  0  0
 40 52  1  0  0  0
 40 53  2  0  0  0
 40 58  1  0  0  0
 41107  1  0  0  0
 41108  1  0  0  0
 41109  1  0  0  0
 41 48  1  0  0  0
 42 43  1  0  0  0
 42 66  1  0  0  0
 42110  1  0  0  0
 42111  1  0  0  0
 43 44  1  0  0  0
 44112  1  0  0  0
 45 46  2  0  0  0
 45113  1  0  0  0
 46114  1  0  0  0
 47115  1  0  0  0
 47116  1  0  0  0
 48 56  1  0  0  0
 48 65  1  0  0  0
 48117  1  0  0  0
 49 50  1  0  0  0
 49 53  1  0  0  0
 49 64  1  0  0  0
 49118  1  0  0  0
 50 51  1  0  0  0
 50119  1  0  0  0
 50120  1  0  0  0
 51 52  1  0  0  0
 51121  1  0  0  0
 51122  1  0  0  0
 52123  1  0  0  0
 52124  1  0  0  0
 53 54  1  0  0  0
 54 55  2  0  0  0
 54125  1  0  0  0
 55 57  1  0  0  0
 55126  1  0  0  0
 56 69  2  0  0  0
 57 58  2  0  0  0
 57127  1  0  0  0
 58128  1  0  0  0
 59 60  1  0  0  0
 59 61  1  0  0  0
 59 62  1  0  0  0
 60129  1  0  0  0
 60130  1  0  0  0
 60131  1  0  0  0
 61132  1  0  0  0
 61133  1  0  0  0
 61134  1  0  0  0
 62135  1  0  0  0
 62136  1  0  0  0
 62137  1  0  0  0
 63 65  1  0  0  0
 63138  1  0  0  0
 63139  1  0  0  0
 63140  1  0  0  0
 64141  1  0  0  0
 65142  1  0  0  0
 68 80  1  0  0  0
 71 72  2  0  0  0
 71 74  1  0  0  0
 71143  1  0  0  0
 72 75  1  0  0  0
 72144  1  0  0  0
 73 74  2  0  0  0
 73 76  1  0  0  0
 73145  1  0  0  0
 74 82  1  0  0  0
 75 76  2  0  0  0
 75 81  1  0  0  0
 76 83  1  0  0  0
 77 82  1  0  0  0
 77146  1  0  0  0
 77147  1  0  0  0
 77148  1  0  0  0
 78 83  1  0  0  0
 78149  1  0  0  0
 78150  1  0  0  0
 78151  1  0  0  0
 79 80  1  0  0  0
 79 82  1  0  0  0
 79152  1  0  0  0
 79153  1  0  0  0
 80154  1  0  0  0
 80155  1  0  0  0
 81156  1  0  0  0
M  ISO  4   1 100  68 101  80 101  81 100
M  END
> <chiral flag>
0

> <version>
0

> <s_m_source_file>
/data/baiqing/PycharmProjects/Reinvent-master-3.2/result/LINK_invent/BTK/process_docking_weight1_custom_sum_contain_oxygen_bond_distance_aromatic_linkinvent_7_9_3/rearranged_h_0010.sdf

> <i_m_source_file_index>
60

> <r_mmod_Potential_Energy-OPLS-2005>
424.484832763672

> <r_mmod_Stretch_Energy-OPLS-2005>
228.331268310547

> <r_mmod_Bend_Energy-OPLS-2005>
292.592132568359

> <r_mmod_Torsional_Energy-OPLS-2005>
204.113418579102

> <r_mmod_Improper_Torsional_Energy-OPLS-2005>
4.99237012863159

> <r_mmod_Van_der_Waal_Energy-OPLS-2005>
147.752883911133

> <r_mmod_Electrostatic_Energy-OPLS-2005>
-400.192108154297

> <r_mmod_Solvation_Energy-OPLS-2005>
-227.937301635742

> <b_mmod_Minimization_Converged-OPLS-2005>
0

> <r_mmod_RMS_Derivative-OPLS-2005>
1.31793749332428

$$$$
60
                    3D
 Structure written by MMmdl.
171179  0  0  1  0            999 V2000
  -30.8084  -14.3044   20.7148 C   0  0  0  0  0  0
  -30.4051  -12.2747   19.3757 C   0  0  0  0  0  0
  -29.4736  -12.5317   18.1794 C   0  0  0  0  0  0
  -28.0004  -12.3867   18.5994 C   0  0  0  0  0  0
  -27.6655  -13.2030   19.8743 C   0  0  2  0  0  0
  -28.7031  -12.9413   20.9883 C   0  0  0  0  0  0
  -25.2597  -13.8169   20.5663 C   0  0  0  0  0  0
  -24.1836  -13.0439   20.9155 C   0  0  0  0  0  0
  -24.6386  -11.6912   20.8709 C   0  0  0  0  0  0
  -23.9055  -10.4292   21.0391 C   0  0  0  0  0  0
  -24.3606   -9.4209   21.9173 C   0  0  0  0  0  0
  -23.6284   -8.2251   22.0752 C   0  0  0  0  0  0
  -22.4268   -8.0285   21.3545 C   0  0  0  0  0  0
  -21.9901   -9.0252   20.4644 C   0  0  0  0  0  0
  -22.7229  -10.2132   20.3045 C   0  0  0  0  0  0
  -21.6846   -6.0736   22.5280 C   0  0  0  0  0  0
  -21.4015   -6.5639   23.8212 C   0  0  0  0  0  0
  -21.3658   -5.6793   24.9174 C   0  0  0  0  0  0
  -21.6048   -4.3056   24.7224 C   0  0  0  0  0  0
  -21.8816   -3.8148   23.4347 C   0  0  0  0  0  0
  -21.9192   -4.6963   22.3402 C   0  0  0  0  0  0
  -22.7865  -13.5245   21.1827 C   0  0  0  0  0  0
  -22.1658   -4.2152   21.0981 F   0  0  0  0  0  0
  -21.5628   -3.4541   25.7738 F   0  0  0  0  0  0
  -30.0529  -13.2084   20.4547 N   0  0  0  0  0  0
  -26.3036  -12.9325   20.3345 N   0  0  0  0  0  0
  -25.9307  -11.6483   20.5725 N   0  0  0  0  0  0
  -22.0505  -12.8239   22.0386 N   0  0  0  0  0  0
  -25.4329  -15.1880   20.4087 N   0  0  0  0  0  0
  -31.7609  -14.6464   20.0070 O   0  0  0  0  0  0
  -21.6638   -6.8880   21.4245 O   0  0  0  0  0  0
  -22.3557  -14.5544   20.6672 O   0  0  0  0  0  0
  -24.6092  -31.8721   23.2104 C   0  0  0  0  0  0
  -25.9023  -32.4843   23.8388 C   0  0  1  0  0  0
  -27.2633  -27.4944   20.0940 C   0  0  0  0  0  0
  -25.5918  -33.8637   24.2371 N   0  0  0  0  0  0
  -23.3955  -30.4926   21.5499 C   0  0  2  0  0  0
  -24.8458  -28.9589   20.1175 C   0  0  0  0  0  0
  -22.7390  -29.4682   22.5017 C   0  0  0  0  0  0
  -18.0281  -28.1408   22.8493 C   0  0  0  0  0  0
  -24.1524  -36.7237   23.2645 C   0  0  0  0  0  0
  -25.9149  -30.8604   21.3513 C   0  0  0  0  0  0
  -25.9962  -29.4986   20.7006 C   0  0  0  0  0  0
  -27.2051  -28.7827   20.6771 C   0  0  0  0  0  0
  -26.0995  -26.9626   19.5017 C   0  0  0  0  0  0
  -24.8895  -27.6872   19.5146 C   0  0  0  0  0  0
  -23.6003  -29.8135   20.1674 C   0  0  0  0  0  0
  -25.4149  -36.3124   24.0373 C   0  0  1  0  0  0
  -20.5860  -28.3691   23.1340 C   0  0  2  0  0  0
  -20.6781  -26.9436   22.5441 C   0  0  0  0  0  0
  -19.5771  -26.6410   21.5235 C   0  0  0  0  0  0
  -18.1936  -26.7964   22.1617 C   0  0  0  0  0  0
  -19.1525  -28.8860   23.2925 C   0  0  0  0  0  0
  -18.9452  -30.1457   23.8953 C   0  0  0  0  0  0
  -17.6458  -30.6611   24.0590 C   0  0  0  0  0  0
  -25.9062  -34.9488   23.5170 C   0  0  0  0  0  0
  -16.5350  -29.9132   23.6318 C   0  0  0  0  0  0
  -16.7272  -28.6549   23.0337 C   0  0  0  0  0  0
  -26.4498  -31.6586   25.0665 C   0  0  0  0  0  0
  -25.3794  -31.3640   26.1424 C   0  0  0  0  0  0
  -27.0294  -30.3031   24.5970 C   0  0  0  0  0  0
  -27.6108  -32.4287   25.7422 C   0  0  0  0  0  0
  -27.5645  -37.1786   24.8484 C   0  0  0  0  0  0
  -21.4125  -29.3040   22.3736 N   0  0  0  0  0  0
  -26.4341  -37.3799   23.9432 N   0  0  0  0  0  0
  -24.6575  -31.0880   22.0962 N   0  0  0  0  0  0
  -23.4178  -28.8249   23.3070 O   0  0  0  0  0  0
  -28.4079  -26.7293   20.0749 O   0  0  0  0  0  0
  -26.5612  -34.8929   22.4726 O   0  0  0  0  0  0
  -23.5302  -32.1441   23.7548 O   0  0  0  0  0  0
  -31.2521  -15.9407   23.9443 C   0  0  0  0  0  0
  -31.9325  -16.9544   21.8373 C   0  0  0  0  0  0
  -31.9642  -16.9292   24.6478 C   0  0  0  0  0  0
  -32.6468  -17.9399   22.5408 C   0  0  0  0  0  0
  -31.2482  -15.9315   22.5344 C   0  0  0  0  0  0
  -32.6824  -17.9249   23.9554 C   0  0  0  0  0  0
  -34.2985  -19.7736   24.3519 C   0  0  0  0  0  0
  -32.5182  -24.2189   23.2631 C   0  0  0  0  0  0
  -31.0751  -24.5513   23.6661 C   0  0  0  0  0  0
  -33.1183  -23.1732   24.2101 C   0  0  0  0  0  0
  -30.5365  -25.8355   23.0280 C   0  0  0  0  0  0
  -34.6050  -22.8843   23.9447 C   0  0  0  0  0  0
  -29.9538  -25.6549   21.6183 C   0  0  0  0  0  0
  -35.2357  -21.9742   25.0207 C   0  0  0  0  0  0
  -29.3422  -26.9697   21.1265 C   0  0  0  0  0  0
  -30.5225  -14.9031   21.8809 N   0  0  0  0  0  0
  -33.3604  -18.8990   24.7337 N   0  0  0  0  0  0
  -34.4540  -20.7594   25.2385 N   0  0  0  0  0  0
  -34.9506  -19.7006   23.3085 O   0  0  0  0  0  0
  -31.4490  -12.3642   19.0679 H   0  0  0  0  0  0
  -30.2895  -11.2483   19.7292 H   0  0  0  0  0  0
  -29.6996  -11.8366   17.3696 H   0  0  0  0  0  0
  -29.6476  -13.5327   17.7809 H   0  0  0  0  0  0
  -27.8033  -11.3282   18.7718 H   0  0  0  0  0  0
  -27.3454  -12.6849   17.7797 H   0  0  0  0  0  0
  -27.7250  -14.2580   19.6048 H   0  0  0  0  0  0
  -28.6496  -11.9014   21.3129 H   0  0  0  0  0  0
  -28.4501  -13.5352   21.8663 H   0  0  0  0  0  0
  -25.2749   -9.5697   22.4743 H   0  0  0  0  0  0
  -23.9995   -7.4652   22.7471 H   0  0  0  0  0  0
  -21.0831   -8.8762   19.8951 H   0  0  0  0  0  0
  -22.3676  -10.9663   19.6150 H   0  0  0  0  0  0
  -21.2005   -7.6149   23.9718 H   0  0  0  0  0  0
  -21.1483   -6.0523   25.9079 H   0  0  0  0  0  0
  -22.0595   -2.7612   23.2844 H   0  0  0  0  0  0
  -22.4118  -11.9911   22.4788 H   0  0  0  0  0  0
  -21.1121  -13.1266   22.2568 H   0  0  0  0  0  0
  -24.6714  -15.8484   20.5226 H   0  0  0  0  0  0
  -26.2976  -15.6268   20.1158 H   0  0  0  0  0  0
  -26.7107  -32.5587   23.1171 H   0  0  0  0  0  0
  -25.0158  -33.9817   25.0582 H   0  0  0  0  0  0
  -22.6832  -31.3081   21.4089 H   0  0  0  0  0  0
  -23.3861  -35.9500   23.3300 H   0  0  0  0  0  0
  -24.3643  -36.8825   22.2058 H   0  0  0  0  0  0
  -23.7177  -37.6405   23.6639 H   0  0  0  0  0  0
  -26.0263  -31.6300   20.5856 H   0  0  0  0  0  0
  -26.8009  -30.9088   21.9719 H   0  0  0  0  0  0
  -28.0839  -29.2405   21.1075 H   0  0  0  0  0  0
  -26.1359  -25.9831   19.0444 H   0  0  0  0  0  0
  -24.0050  -27.2631   19.0603 H   0  0  0  0  0  0
  -23.7015  -30.5839   19.4024 H   0  0  0  0  0  0
  -22.7298  -29.2206   19.8803 H   0  0  0  0  0  0
  -25.1327  -36.2012   25.0871 H   0  0  0  0  0  0
  -20.9976  -28.3289   24.1456 H   0  0  0  0  0  0
  -20.5736  -26.2305   23.3627 H   0  0  0  0  0  0
  -21.6649  -26.7526   22.1222 H   0  0  0  0  0  0
  -19.6954  -25.6335   21.1260 H   0  0  0  0  0  0
  -19.6724  -27.3215   20.6770 H   0  0  0  0  0  0
  -17.4226  -26.6728   21.4001 H   0  0  0  0  0  0
  -18.0314  -26.0092   22.8995 H   0  0  0  0  0  0
  -19.7917  -30.7256   24.2360 H   0  0  0  0  0  0
  -17.5011  -31.6295   24.5194 H   0  0  0  0  0  0
  -15.5352  -30.3068   23.7591 H   0  0  0  0  0  0
  -15.8669  -28.0898   22.7016 H   0  0  0  0  0  0
  -24.5945  -30.7015   25.7732 H   0  0  0  0  0  0
  -24.9023  -32.2779   26.4960 H   0  0  0  0  0  0
  -25.8166  -30.8727   27.0121 H   0  0  0  0  0  0
  -26.2769  -29.6788   24.1140 H   0  0  0  0  0  0
  -27.4192  -29.7277   25.4367 H   0  0  0  0  0  0
  -27.8567  -30.4343   23.8987 H   0  0  0  0  0  0
  -27.2725  -33.3541   26.2092 H   0  0  0  0  0  0
  -28.3869  -32.6946   25.0221 H   0  0  0  0  0  0
  -28.0853  -31.8378   26.5256 H   0  0  0  0  0  0
  -28.2661  -38.0092   24.7606 H   0  0  0  0  0  0
  -28.1159  -36.2639   24.6253 H   0  0  0  0  0  0
  -27.2378  -37.1351   25.8888 H   0  0  0  0  0  0
  -20.9303  -29.8710   21.6905 H   0  0  0  0  0  0
  -26.0246  -38.2886   24.1419 H   0  0  0  0  0  0
  -30.7207  -15.1812   24.5004 H   0  0  0  0  0  0
  -31.9203  -17.0029   20.7580 H   0  0  0  0  0  0
  -31.9581  -16.9109   25.7285 H   0  0  0  0  0  0
  -33.1501  -18.7047   21.9686 H   0  0  0  0  0  0
  -33.1270  -25.1231   23.3037 H   0  0  0  0  0  0
  -32.5533  -23.8650   22.2310 H   0  0  0  0  0  0
  -31.0408  -24.6881   24.7474 H   0  0  0  0  0  0
  -30.4128  -23.7097   23.4556 H   0  0  0  0  0  0
  -32.5348  -22.2546   24.1297 H   0  0  0  0  0  0
  -33.0101  -23.5198   25.2394 H   0  0  0  0  0  0
  -31.3045  -26.6102   23.0202 H   0  0  0  0  0  0
  -29.7459  -26.2125   23.6790 H   0  0  0  0  0  0
  -35.1604  -23.8220   23.9063 H   0  0  0  0  0  0
  -34.7141  -22.4317   22.9581 H   0  0  0  0  0  0
  -29.1768  -24.8898   21.6499 H   0  0  0  0  0  0
  -30.7160  -25.3051   20.9214 H   0  0  0  0  0  0
  -35.2852  -22.5110   25.9694 H   0  0  0  0  0  0
  -36.2627  -21.7209   24.7557 H   0  0  0  0  0  0
  -30.1203  -27.6567   20.7918 H   0  0  0  0  0  0
  -28.8611  -27.4281   21.9918 H   0  0  0  0  0  0
  -29.8021  -14.4478   22.4203 H   0  0  0  0  0  0
  -33.0315  -18.9894   25.6833 H   0  0  0  0  0  0
  -33.9069  -20.7263   26.0878 H   0  0  0  0  0  0
  1 25  1  0  0  0
  1 30  2  0  0  0
  1 86  1  0  0  0
  2  3  1  0  0  0
  2 25  1  0  0  0
  2 90  1  0  0  0
  2 91  1  0  0  0
  3  4  1  0  0  0
  3 92  1  0  0  0
  3 93  1  0  0  0
  4  5  1  0  0  0
  4 94  1  0  0  0
  4 95  1  0  0  0
  5  6  1  0  0  0
  5 26  1  0  0  0
  5 96  1  0  0  0
  6 25  1  0  0  0
  6 97  1  0  0  0
  6 98  1  0  0  0
  7  8  2  0  0  0
  7 26  1  0  0  0
  7 29  1  0  0  0
  8  9  1  0  0  0
  8 22  1  0  0  0
  9 10  1  0  0  0
  9 27  2  0  0  0
 10 11  2  0  0  0
 10 15  1  0  0  0
 11 12  1  0  0  0
 11 99  1  0  0  0
 12 13  2  0  0  0
 12100  1  0  0  0
 13 14  1  0  0  0
 13 31  1  0  0  0
 14 15  2  0  0  0
 14101  1  0  0  0
 15102  1  0  0  0
 16 17  2  0  0  0
 16 21  1  0  0  0
 16 31  1  0  0  0
 17 18  1  0  0  0
 17103  1  0  0  0
 18 19  2  0  0  0
 18104  1  0  0  0
 19 20  1  0  0  0
 19 24  1  0  0  0
 20 21  2  0  0  0
 20105  1  0  0  0
 21 23  1  0  0  0
 22 28  1  0  0  0
 22 32  2  0  0  0
 26 27  1  0  0  0
 28106  1  0  0  0
 28107  1  0  0  0
 29108  1  0  0  0
 29109  1  0  0  0
 33 34  1  0  0  0
 33 66  1  0  0  0
 33 70  2  0  0  0
 34 36  1  0  0  0
 34 59  1  0  0  0
 34110  1  0  0  0
 35 44  2  0  0  0
 35 45  1  0  0  0
 35 68  1  0  0  0
 36 56  1  0  0  0
 36111  1  0  0  0
 37 39  1  0  0  0
 37 47  1  0  0  0
 37 66  1  0  0  0
 37112  1  0  0  0
 38 43  2  0  0  0
 38 46  1  0  0  0
 38 47  1  0  0  0
 39 64  1  0  0  0
 39 67  2  0  0  0
 40 52  1  0  0  0
 40 53  2  0  0  0
 40 58  1  0  0  0
 41113  1  0  0  0
 41114  1  0  0  0
 41115  1  0  0  0
 41 48  1  0  0  0
 42 43  1  0  0  0
 42 66  1  0  0  0
 42116  1  0  0  0
 42117  1  0  0  0
 43 44  1  0  0  0
 44118  1  0  0  0
 45 46  2  0  0  0
 45119  1  0  0  0
 46120  1  0  0  0
 47121  1  0  0  0
 47122  1  0  0  0
 48 56  1  0  0  0
 48 65  1  0  0  0
 48123  1  0  0  0
 49 50  1  0  0  0
 49 53  1  0  0  0
 49 64  1  0  0  0
 49124  1  0  0  0
 50 51  1  0  0  0
 50125  1  0  0  0
 50126  1  0  0  0
 51 52  1  0  0  0
 51127  1  0  0  0
 51128  1  0  0  0
 52129  1  0  0  0
 52130  1  0  0  0
 53 54  1  0  0  0
 54 55  2  0  0  0
 54131  1  0  0  0
 55 57  1  0  0  0
 55132  1  0  0  0
 56 69  2  0  0  0
 57 58  2  0  0  0
 57133  1  0  0  0
 58134  1  0  0  0
 59 60  1  0  0  0
 59 61  1  0  0  0
 59 62  1  0  0  0
 60135  1  0  0  0
 60136  1  0  0  0
 60137  1  0  0  0
 61138  1  0  0  0
 61139  1  0  0  0
 61140  1  0  0  0
 62141  1  0  0  0
 62142  1  0  0  0
 62143  1  0  0  0
 63 65  1  0  0  0
 63144  1  0  0  0
 63145  1  0  0  0
 63146  1  0  0  0
 64147  1  0  0  0
 65148  1  0  0  0
 68 85  1  0  0  0
 71 73  2  0  0  0
 71 75  1  0  0  0
 71149  1  0  0  0
 72 74  1  0  0  0
 72 75  2  0  0  0
 72150  1  0  0  0
 73 76  1  0  0  0
 73151  1  0  0  0
 74 76  2  0  0  0
 74152  1  0  0  0
 75 86  1  0  0  0
 76 87  1  0  0  0
 77 87  1  0  0  0
 77 88  1  0  0  0
 77 89  2  0  0  0
 78 79  1  0  0  0
 78 80  1  0  0  0
 78153  1  0  0  0
 78154  1  0  0  0
 79 81  1  0  0  0
 79155  1  0  0  0
 79156  1  0  0  0
 80 82  1  0  0  0
 80157  1  0  0  0
 80158  1  0  0  0
 81 83  1  0  0  0
 81159  1  0  0  0
 81160  1  0  0  0
 82 84  1  0  0  0
 82161  1  0  0  0
 82162  1  0  0  0
 83 85  1  0  0  0
 83163  1  0  0  0
 83164  1  0  0  0
 84 88  1  0  0  0
 84165  1  0  0  0
 84166  1  0  0  0
 85167  1  0  0  0
 85168  1  0  0  0
 86169  1  0  0  0
 87170  1  0  0  0
 88171  1  0  0  0
M  ISO  4   1 100  68 101  85 101  86 100
M  END
> <chiral flag>
0

> <version>
0

> <s_m_source_file>
/data/baiqing/PycharmProjects/Reinvent-master-3.2/result/LINK_invent/BTK/process_docking_weight1_custom_sum_contain_oxygen_bond_distance_aromatic_linkinvent_7_9_3/rearranged_h_0010.sdf

> <i_m_source_file_index>
61

> <r_mmod_Potential_Energy-OPLS-2005>
-173.334564208984

> <r_mmod_Stretch_Energy-OPLS-2005>
31.6320552825928

> <r_mmod_Bend_Energy-OPLS-2005>
100.03044128418

> <r_mmod_Torsional_Energy-OPLS-2005>
236.712966918945

> <r_mmod_Improper_Torsional_Energy-OPLS-2005>
3.34958100318909

> <r_mmod_Van_der_Waal_Energy-OPLS-2005>
173.318328857422

> <r_mmod_Electrostatic_Energy-OPLS-2005>
-472.178070068359

> <r_mmod_Solvation_Energy-OPLS-2005>
-253.278839111328

> <b_mmod_Minimization_Converged-OPLS-2005>
0

> <r_mmod_RMS_Derivative-OPLS-2005>
2.28250432014465

$$$$
61
                    3D
 Structure written by MMmdl.
154162  0  0  1  0            999 V2000
  -30.4828  -15.0845   20.3666 C   0  0  0  0  0  0
  -30.4399  -12.6684   19.5312 C   0  0  0  0  0  0
  -29.5310  -12.5470   18.2835 C   0  0  0  0  0  0
  -28.0683  -12.3113   18.6996 C   0  0  0  0  0  0
  -27.6259  -13.2513   19.8502 C   0  0  2  0  0  0
  -28.6647  -13.3394   20.9890 C   0  0  0  0  0  0
  -25.2447  -13.8214   20.5760 C   0  0  0  0  0  0
  -24.1758  -13.0437   20.9239 C   0  0  0  0  0  0
  -24.6382  -11.6923   20.8778 C   0  0  0  0  0  0
  -23.9070  -10.4293   21.0423 C   0  0  0  0  0  0
  -24.3621   -9.4205   21.9197 C   0  0  0  0  0  0
  -23.6293   -8.2244   22.0759 C   0  0  0  0  0  0
  -22.4275   -8.0289   21.3550 C   0  0  0  0  0  0
  -21.9913   -9.0263   20.4652 C   0  0  0  0  0  0
  -22.7245  -10.2139   20.3065 C   0  0  0  0  0  0
  -21.6856   -6.0741   22.5283 C   0  0  0  0  0  0
  -21.4014   -6.5643   23.8216 C   0  0  0  0  0  0
  -21.3653   -5.6796   24.9177 C   0  0  0  0  0  0
  -21.6039   -4.3058   24.7227 C   0  0  0  0  0  0
  -21.8818   -3.8149   23.4348 C   0  0  0  0  0  0
  -21.9191   -4.6968   22.3404 C   0  0  0  0  0  0
  -22.7778  -13.5216   21.1877 C   0  0  0  0  0  0
  -22.1663   -4.2156   21.0982 F   0  0  0  0  0  0
  -21.5621   -3.4540   25.7736 F   0  0  0  0  0  0
  -29.9284  -13.7901   20.3878 N   0  0  0  0  0  0
  -26.2873  -12.9438   20.3330 N   0  0  0  0  0  0
  -25.9322  -11.6566   20.5792 N   0  0  0  0  0  0
  -22.0419  -12.8213   22.0435 N   0  0  0  0  0  0
  -25.4119  -15.1948   20.4199 N   0  0  0  0  0  0
  -31.6712  -15.1372   20.0252 O   0  0  0  0  0  0
  -21.6642   -6.8886   21.4246 O   0  0  0  0  0  0
  -22.3472  -14.5519   20.6709 O   0  0  0  0  0  0
  -24.6496  -31.8331   23.1781 C   0  0  0  0  0  0
  -25.9234  -32.4633   23.8205 C   0  0  1  0  0  0
  -27.2262  -27.0521   20.1605 C   0  0  0  0  0  0
  -25.5948  -33.8445   24.2117 N   0  0  0  0  0  0
  -23.4594  -30.4454   21.5234 C   0  0  2  0  0  0
  -24.9138  -28.8540   20.0995 C   0  0  0  0  0  0
  -22.7604  -29.4474   22.4810 C   0  0  0  0  0  0
  -18.0310  -28.1401   22.8473 C   0  0  0  0  0  0
  -24.1492  -36.7234   23.2645 C   0  0  0  0  0  0
  -26.0177  -30.6776   21.3908 C   0  0  0  0  0  0
  -26.0870  -29.2805   20.7320 C   0  0  0  0  0  0
  -27.2342  -28.3918   20.7509 C   0  0  0  0  0  0
  -26.0332  -26.7450   19.4730 C   0  0  0  0  0  0
  -24.9044  -27.6040   19.4537 C   0  0  0  0  0  0
  -23.6913  -29.7644   20.1449 C   0  0  0  0  0  0
  -25.4128  -36.2996   24.0304 C   0  0  1  0  0  0
  -20.5928  -28.3728   23.1219 C   0  0  2  0  0  0
  -20.6788  -26.9421   22.5409 C   0  0  0  0  0  0
  -19.5765  -26.6375   21.5216 C   0  0  0  0  0  0
  -18.1947  -26.7938   22.1622 C   0  0  0  0  0  0
  -19.1570  -28.8884   23.2836 C   0  0  0  0  0  0
  -18.9483  -30.1478   23.8863 C   0  0  0  0  0  0
  -17.6478  -30.6593   24.0557 C   0  0  0  0  0  0
  -25.9082  -34.9374   23.5026 C   0  0  0  0  0  0
  -16.5370  -29.9084   23.6338 C   0  0  0  0  0  0
  -16.7295  -28.6504   23.0357 C   0  0  0  0  0  0
  -26.4530  -31.6549   25.0695 C   0  0  0  0  0  0
  -25.3689  -31.3779   26.1377 C   0  0  0  0  0  0
  -27.0415  -30.2930   24.6356 C   0  0  0  0  0  0
  -27.6037  -32.4344   25.7493 C   0  0  0  0  0  0
  -27.5572  -37.1774   24.8463 C   0  0  0  0  0  0
  -21.4286  -29.3030   22.3573 N   0  0  0  0  0  0
  -26.4283  -37.3719   23.9403 N   0  0  0  0  0  0
  -24.7288  -31.0103   22.0852 N   0  0  0  0  0  0
  -23.4207  -28.8042   23.3010 O   0  0  0  0  0  0
  -28.2563  -26.0343   20.3429 O   0  0  0  0  0  0
  -26.5687  -34.8893   22.4620 O   0  0  0  0  0  0
  -23.5598  -32.1249   23.6950 O   0  0  0  0  0  0
  -28.5529  -18.9048   18.0215 C   0  0  0  0  0  0
  -28.5059  -20.1709   18.6420 C   0  0  0  0  0  0
  -29.4704  -19.1056   20.5930 C   0  0  0  0  0  0
  -29.0438  -17.7262   18.6379 C   0  0  0  0  0  0
  -28.9982  -20.3955   19.9407 C   0  0  0  0  0  0
  -29.4960  -17.7098   19.9901 C   0  0  0  0  0  0
  -28.1890  -23.0411   20.1799 C   0  0  0  0  0  0
  -29.0158  -16.4691   17.7833 C   0  0  0  0  0  0
  -30.4252  -22.2997   20.8313 C   0  0  0  0  0  0
  -28.5039  -24.6268   19.6426 C   0  0  0  0  0  0
  -29.7230  -16.2909   20.6420 N   0  0  0  0  0  0
  -29.1098  -21.9193   20.3256 N   0  0  0  0  0  0
  -26.9957  -22.8118   20.4014 O   0  0  0  0  0  0
  -31.4722  -12.8315   19.2181 H   0  0  0  0  0  0
  -30.4524  -11.7324   20.0920 H   0  0  0  0  0  0
  -29.8720  -11.7336   17.6420 H   0  0  0  0  0  0
  -29.6030  -13.4568   17.6866 H   0  0  0  0  0  0
  -27.9842  -11.2733   19.0236 H   0  0  0  0  0  0
  -27.4037  -12.4176   17.8416 H   0  0  0  0  0  0
  -27.5638  -14.2401   19.4074 H   0  0  0  0  0  0
  -28.7820  -12.3791   21.4932 H   0  0  0  0  0  0
  -28.3371  -14.0494   21.7499 H   0  0  0  0  0  0
  -25.2764   -9.5676   22.4778 H   0  0  0  0  0  0
  -23.9997   -7.4633   22.7476 H   0  0  0  0  0  0
  -21.0843   -8.8784   19.8965 H   0  0  0  0  0  0
  -22.3704  -10.9681   19.6177 H   0  0  0  0  0  0
  -21.2016   -7.6155   23.9718 H   0  0  0  0  0  0
  -21.1472   -6.0530   25.9077 H   0  0  0  0  0  0
  -22.0601   -2.7614   23.2848 H   0  0  0  0  0  0
  -22.4030  -11.9884   22.4842 H   0  0  0  0  0  0
  -21.1033  -13.1242   22.2627 H   0  0  0  0  0  0
  -24.6420  -15.8457   20.5325 H   0  0  0  0  0  0
  -26.2598  -15.6402   20.0937 H   0  0  0  0  0  0
  -26.7296  -32.5206   23.0922 H   0  0  0  0  0  0
  -25.0051  -33.9537   25.0235 H   0  0  0  0  0  0
  -22.7659  -31.2729   21.3600 H   0  0  0  0  0  0
  -23.3756  -35.9563   23.3287 H   0  0  0  0  0  0
  -24.3565  -36.8896   22.2062 H   0  0  0  0  0  0
  -23.7250  -37.6422   23.6707 H   0  0  0  0  0  0
  -26.1848  -31.4269   20.6160 H   0  0  0  0  0  0
  -26.8829  -30.7296   22.0401 H   0  0  0  0  0  0
  -28.1187  -28.7041   21.2881 H   0  0  0  0  0  0
  -25.9346  -25.7776   19.0020 H   0  0  0  0  0  0
  -24.0077  -27.2721   18.9487 H   0  0  0  0  0  0
  -23.8304  -30.5350   19.3858 H   0  0  0  0  0  0
  -22.8051  -29.2077   19.8351 H   0  0  0  0  0  0
  -25.1323  -36.1805   25.0796 H   0  0  0  0  0  0
  -21.0015  -28.3329   24.1343 H   0  0  0  0  0  0
  -20.5671  -26.2342   23.3635 H   0  0  0  0  0  0
  -21.6655  -26.7408   22.1218 H   0  0  0  0  0  0
  -19.6924  -25.6277   21.1270 H   0  0  0  0  0  0
  -19.6711  -27.3164   20.6729 H   0  0  0  0  0  0
  -17.4217  -26.6681   21.4027 H   0  0  0  0  0  0
  -18.0342  -26.0089   22.9025 H   0  0  0  0  0  0
  -19.7956  -30.7308   24.2218 H   0  0  0  0  0  0
  -17.5027  -31.6267   24.5167 H   0  0  0  0  0  0
  -15.5370  -30.2974   23.7678 H   0  0  0  0  0  0
  -15.8696  -28.0811   22.7091 H   0  0  0  0  0  0
  -24.5868  -30.7128   25.7696 H   0  0  0  0  0  0
  -24.8884  -32.2981   26.4712 H   0  0  0  0  0  0
  -25.7945  -30.9007   27.0213 H   0  0  0  0  0  0
  -26.3056  -29.6628   24.1351 H   0  0  0  0  0  0
  -27.3974  -29.7264   25.4972 H   0  0  0  0  0  0
  -27.8983  -30.4138   23.9724 H   0  0  0  0  0  0
  -27.2603  -33.3665   26.1992 H   0  0  0  0  0  0
  -28.3891  -32.6877   25.0361 H   0  0  0  0  0  0
  -28.0658  -31.8532   26.5482 H   0  0  0  0  0  0
  -28.2578  -38.0080   24.7499 H   0  0  0  0  0  0
  -28.1080  -36.2607   24.6301 H   0  0  0  0  0  0
  -27.2285  -37.1427   25.8865 H   0  0  0  0  0  0
  -20.9511  -29.8726   21.6725 H   0  0  0  0  0  0
  -26.0142  -38.2782   24.1406 H   0  0  0  0  0  0
  -28.1908  -18.8480   17.0039 H   0  0  0  0  0  0
  -28.1417  -21.0051   18.0583 H   0  0  0  0  0  0
  -29.8273  -19.1907   21.6097 H   0  0  0  0  0  0
  -28.8128  -16.7010   16.7372 H   0  0  0  0  0  0
  -28.2300  -15.7984   18.1161 H   0  0  0  0  0  0
  -29.9730  -15.9512   17.8028 H   0  0  0  0  0  0
  -30.9178  -21.4595   21.3200 H   0  0  0  0  0  0
  -30.3666  -23.1065   21.5636 H   0  0  0  0  0  0
  -31.0636  -22.6275   20.0105 H   0  0  0  0  0  0
  -28.0229  -24.6925   18.6669 H   0  0  0  0  0  0
  -29.5671  -24.6319   19.4056 H   0  0  0  0  0  0
  -28.9427  -16.0487   21.2347 H   0  0  0  0  0  0
  1 25  1  0  0  0
  1 30  2  0  0  0
  1 81  1  0  0  0
  2  3  1  0  0  0
  2 25  1  0  0  0
  2 84  1  0  0  0
  2 85  1  0  0  0
  3  4  1  0  0  0
  3 86  1  0  0  0
  3 87  1  0  0  0
  4  5  1  0  0  0
  4 88  1  0  0  0
  4 89  1  0  0  0
  5  6  1  0  0  0
  5 26  1  0  0  0
  5 90  1  0  0  0
  6 25  1  0  0  0
  6 91  1  0  0  0
  6 92  1  0  0  0
  7  8  2  0  0  0
  7 26  1  0  0  0
  7 29  1  0  0  0
  8  9  1  0  0  0
  8 22  1  0  0  0
  9 10  1  0  0  0
  9 27  2  0  0  0
 10 11  2  0  0  0
 10 15  1  0  0  0
 11 12  1  0  0  0
 11 93  1  0  0  0
 12 13  2  0  0  0
 12 94  1  0  0  0
 13 14  1  0  0  0
 13 31  1  0  0  0
 14 15  2  0  0  0
 14 95  1  0  0  0
 15 96  1  0  0  0
 16 17  2  0  0  0
 16 21  1  0  0  0
 16 31  1  0  0  0
 17 18  1  0  0  0
 17 97  1  0  0  0
 18 19  2  0  0  0
 18 98  1  0  0  0
 19 20  1  0  0  0
 19 24  1  0  0  0
 20 21  2  0  0  0
 20 99  1  0  0  0
 21 23  1  0  0  0
 22 28  1  0  0  0
 22 32  2  0  0  0
 26 27  1  0  0  0
 28100  1  0  0  0
 28101  1  0  0  0
 29102  1  0  0  0
 29103  1  0  0  0
 33 34  1  0  0  0
 33 66  1  0  0  0
 33 70  2  0  0  0
 34 36  1  0  0  0
 34 59  1  0  0  0
 34104  1  0  0  0
 35 44  2  0  0  0
 35 45  1  0  0  0
 35 68  1  0  0  0
 36 56  1  0  0  0
 36105  1  0  0  0
 37 39  1  0  0  0
 37 47  1  0  0  0
 37 66  1  0  0  0
 37106  1  0  0  0
 38 43  2  0  0  0
 38 46  1  0  0  0
 38 47  1  0  0  0
 39 64  1  0  0  0
 39 67  2  0  0  0
 40 52  1  0  0  0
 40 53  2  0  0  0
 40 58  1  0  0  0
 41107  1  0  0  0
 41108  1  0  0  0
 41109  1  0  0  0
 41 48  1  0  0  0
 42 43  1  0  0  0
 42 66  1  0  0  0
 42110  1  0  0  0
 42111  1  0  0  0
 43 44  1  0  0  0
 44112  1  0  0  0
 45 46  2  0  0  0
 45113  1  0  0  0
 46114  1  0  0  0
 47115  1  0  0  0
 47116  1  0  0  0
 48 56  1  0  0  0
 48 65  1  0  0  0
 48117  1  0  0  0
 49 50  1  0  0  0
 49 53  1  0  0  0
 49 64  1  0  0  0
 49118  1  0  0  0
 50 51  1  0  0  0
 50119  1  0  0  0
 50120  1  0  0  0
 51 52  1  0  0  0
 51121  1  0  0  0
 51122  1  0  0  0
 52123  1  0  0  0
 52124  1  0  0  0
 53 54  1  0  0  0
 54 55  2  0  0  0
 54125  1  0  0  0
 55 57  1  0  0  0
 55126  1  0  0  0
 56 69  2  0  0  0
 57 58  2  0  0  0
 57127  1  0  0  0
 58128  1  0  0  0
 59 60  1  0  0  0
 59 61  1  0  0  0
 59 62  1  0  0  0
 60129  1  0  0  0
 60130  1  0  0  0
 60131  1  0  0  0
 61132  1  0  0  0
 61133  1  0  0  0
 61134  1  0  0  0
 62135  1  0  0  0
 62136  1  0  0  0
 62137  1  0  0  0
 63 65  1  0  0  0
 63138  1  0  0  0
 63139  1  0  0  0
 63140  1  0  0  0
 64141  1  0  0  0
 65142  1  0  0  0
 68 80  1  0  0  0
 71 72  2  0  0  0
 71 74  1  0  0  0
 71143  1  0  0  0
 72 75  1  0  0  0
 72144  1  0  0  0
 73 75  2  0  0  0
 73 76  1  0  0  0
 73145  1  0  0  0
 74 76  2  0  0  0
 74 78  1  0  0  0
 75 82  1  0  0  0
 76 81  1  0  0  0
 77 80  1  0  0  0
 77 82  1  0  0  0
 77 83  2  0  0  0
 78146  1  0  0  0
 78147  1  0  0  0
 78148  1  0  0  0
 79 82  1  0  0  0
 79149  1  0  0  0
 79150  1  0  0  0
 79151  1  0  0  0
 80152  1  0  0  0
 80153  1  0  0  0
 81154  1  0  0  0
M  ISO  4   1 100  68 101  80 101  81 100
M  END
> <chiral flag>
0

> <version>
0

> <s_m_source_file>
/data/baiqing/PycharmProjects/Reinvent-master-3.2/result/LINK_invent/BTK/process_docking_weight1_custom_sum_contain_oxygen_bond_distance_aromatic_linkinvent_7_9_3/rearranged_h_0010.sdf

> <i_m_source_file_index>
62

> <r_mmod_Potential_Energy-OPLS-2005>
918.765747070312

> <r_mmod_Stretch_Energy-OPLS-2005>
375.138214111328

> <r_mmod_Bend_Energy-OPLS-2005>
354.323913574219

> <r_mmod_Torsional_Energy-OPLS-2005>
332.014465332031

> <r_mmod_Improper_Torsional_Energy-OPLS-2005>
6.54196739196777

> <r_mmod_Van_der_Waal_Energy-OPLS-2005>
123.703750610352

> <r_mmod_Electrostatic_Energy-OPLS-2005>
-337.23974609375

> <r_mmod_Solvation_Energy-OPLS-2005>
-229.926559448242

> <b_mmod_Minimization_Converged-OPLS-2005>
0

> <r_mmod_RMS_Derivative-OPLS-2005>
0.84701406955719

$$$$
62
                    3D
 Structure written by MMmdl.
152160  0  0  1  0            999 V2000
  -30.5171  -14.9223   20.4360 C   0  0  0  0  0  0
  -30.4520  -12.5703   19.4897 C   0  0  0  0  0  0
  -29.5266  -12.5391   18.2496 C   0  0  0  0  0  0
  -28.0565  -12.3240   18.6615 C   0  0  0  0  0  0
  -27.6363  -13.2399   19.8408 C   0  0  2  0  0  0
  -28.6799  -13.2263   20.9797 C   0  0  0  0  0  0
  -25.2494  -13.8208   20.5690 C   0  0  0  0  0  0
  -24.1794  -13.0447   20.9215 C   0  0  0  0  0  0
  -24.6388  -11.6930   20.8728 C   0  0  0  0  0  0
  -23.9060  -10.4304   21.0395 C   0  0  0  0  0  0
  -24.3604   -9.4225   21.9181 C   0  0  0  0  0  0
  -23.6274   -8.2263   22.0763 C   0  0  0  0  0  0
  -22.4262   -8.0289   21.3547 C   0  0  0  0  0  0
  -21.9887   -9.0262   20.4656 C   0  0  0  0  0  0
  -22.7220  -10.2140   20.3057 C   0  0  0  0  0  0
  -21.6858   -6.0721   22.5267 C   0  0  0  0  0  0
  -21.4019   -6.5624   23.8198 C   0  0  0  0  0  0
  -21.3657   -5.6782   24.9162 C   0  0  0  0  0  0
  -21.6045   -4.3043   24.7223 C   0  0  0  0  0  0
  -21.8820   -3.8131   23.4342 C   0  0  0  0  0  0
  -21.9193   -4.6946   22.3394 C   0  0  0  0  0  0
  -22.7814  -13.5243   21.1866 C   0  0  0  0  0  0
  -22.1663   -4.2129   21.0972 F   0  0  0  0  0  0
  -21.5627   -3.4534   25.7739 F   0  0  0  0  0  0
  -29.9661  -13.6437   20.4000 N   0  0  0  0  0  0
  -26.2908  -12.9414   20.3207 N   0  0  0  0  0  0
  -25.9315  -11.6554   20.5689 N   0  0  0  0  0  0
  -22.0427  -12.8262   22.0414 N   0  0  0  0  0  0
  -25.4177  -15.1939   20.4103 N   0  0  0  0  0  0
  -31.7032  -15.0559   20.1129 O   0  0  0  0  0  0
  -21.6642   -6.8870   21.4235 O   0  0  0  0  0  0
  -22.3522  -14.5544   20.6697 O   0  0  0  0  0  0
  -24.6443  -31.8445   23.1907 C   0  0  0  0  0  0
  -25.9226  -32.4694   23.8288 C   0  0  1  0  0  0
  -27.2184  -27.1380   20.1482 C   0  0  0  0  0  0
  -25.5992  -33.8497   24.2222 N   0  0  0  0  0  0
  -23.4468  -30.4646   21.5375 C   0  0  2  0  0  0
  -24.8975  -28.8972   20.1107 C   0  0  0  0  0  0
  -22.7572  -29.4534   22.4878 C   0  0  0  0  0  0
  -18.0313  -28.1374   22.8486 C   0  0  0  0  0  0
  -24.1490  -36.7239   23.2636 C   0  0  0  0  0  0
  -26.0030  -30.7171   21.3907 C   0  0  0  0  0  0
  -26.0751  -29.3290   20.7340 C   0  0  0  0  0  0
  -27.2354  -28.4653   20.7408 C   0  0  0  0  0  0
  -26.0160  -26.8169   19.4762 C   0  0  0  0  0  0
  -24.8818  -27.6542   19.4654 C   0  0  0  0  0  0
  -23.6734  -29.7975   20.1554 C   0  0  0  0  0  0
  -25.4121  -36.3023   24.0318 C   0  0  1  0  0  0
  -20.5927  -28.3696   23.1244 C   0  0  2  0  0  0
  -20.6794  -26.9401   22.5401 C   0  0  0  0  0  0
  -19.5755  -26.6365   21.5216 C   0  0  0  0  0  0
  -18.1944  -26.7909   22.1631 C   0  0  0  0  0  0
  -19.1573  -28.8855   23.2849 C   0  0  0  0  0  0
  -18.9483  -30.1457   23.8855 C   0  0  0  0  0  0
  -17.6478  -30.6571   24.0554 C   0  0  0  0  0  0
  -25.9079  -34.9402   23.5075 C   0  0  0  0  0  0
  -16.5369  -29.9055   23.6333 C   0  0  0  0  0  0
  -16.7302  -28.6479   23.0349 C   0  0  0  0  0  0
  -26.4555  -31.6535   25.0707 C   0  0  0  0  0  0
  -25.3753  -31.3722   26.1409 C   0  0  0  0  0  0
  -27.0420  -30.2933   24.6263 C   0  0  0  0  0  0
  -27.6094  -32.4292   25.7497 C   0  0  0  0  0  0
  -27.5576  -37.1776   24.8469 C   0  0  0  0  0  0
  -21.4271  -29.3030   22.3620 N   0  0  0  0  0  0
  -26.4282  -37.3737   23.9416 N   0  0  0  0  0  0
  -24.7175  -31.0300   22.0948 N   0  0  0  0  0  0
  -23.4230  -28.8079   23.3018 O   0  0  0  0  0  0
  -28.2612  -26.1389   20.2145 O   0  0  0  0  0  0
  -26.5643  -34.8901   22.4638 O   0  0  0  0  0  0
  -23.5564  -32.1339   23.7123 O   0  0  0  0  0  0
  -30.4998  -18.5344   20.1306 C   0  0  0  0  0  0
  -30.2184  -19.9741   20.0783 C   0  0  0  0  0  0
  -28.3552  -18.1689   21.0376 C   0  0  0  0  0  0
  -29.5658  -17.5413   20.6035 C   0  0  0  0  0  0
  -28.9785  -20.5796   20.5054 C   0  0  0  0  0  0
  -28.0716  -19.5948   21.0173 C   0  0  0  0  0  0
  -28.9402  -23.3555   20.2736 C   0  0  0  0  0  0
  -26.0460  -19.2801   22.2961 C   0  0  0  0  0  0
  -27.8822  -24.6275   20.1619 C   0  0  0  0  0  0
  -28.4762  -22.0273   20.4336 N   0  0  0  0  0  0
  -29.6463  -16.0096   20.6877 N   0  0  0  0  0  0
  -30.1498  -23.5854   20.1945 O   0  0  0  0  0  0
  -26.8831  -20.1110   21.4978 O   0  0  0  0  0  0
  -31.4836  -12.7392   19.1817 H   0  0  0  0  0  0
  -30.4456  -11.6063   19.9999 H   0  0  0  0  0  0
  -29.8410  -11.7551   17.5588 H   0  0  0  0  0  0
  -29.6171  -13.4800   17.7047 H   0  0  0  0  0  0
  -27.9426  -11.2770   18.9470 H   0  0  0  0  0  0
  -27.3985  -12.4783   17.8059 H   0  0  0  0  0  0
  -27.6091  -14.2502   19.4312 H   0  0  0  0  0  0
  -28.7553  -12.2340   21.4270 H   0  0  0  0  0  0
  -28.3766  -13.8982   21.7834 H   0  0  0  0  0  0
  -25.2741   -9.5706   22.4761 H   0  0  0  0  0  0
  -23.9971   -7.4665   22.7503 H   0  0  0  0  0  0
  -21.0802   -8.8780   19.8979 H   0  0  0  0  0  0
  -22.3659  -10.9673   19.6172 H   0  0  0  0  0  0
  -21.2015   -7.6132   23.9687 H   0  0  0  0  0  0
  -21.1477   -6.0518   25.9058 H   0  0  0  0  0  0
  -22.0597   -2.7596   23.2855 H   0  0  0  0  0  0
  -22.3995  -11.9925   22.4843 H   0  0  0  0  0  0
  -21.1051  -13.1334   22.2580 H   0  0  0  0  0  0
  -24.6387  -15.8359   20.5053 H   0  0  0  0  0  0
  -26.2333  -15.6225   19.9945 H   0  0  0  0  0  0
  -26.7281  -32.5308   23.1007 H   0  0  0  0  0  0
  -25.0171  -33.9619   25.0391 H   0  0  0  0  0  0
  -22.7485  -31.2902   21.3864 H   0  0  0  0  0  0
  -23.3759  -35.9564   23.3294 H   0  0  0  0  0  0
  -24.3577  -36.8867   22.2050 H   0  0  0  0  0  0
  -23.7245  -37.6438   23.6667 H   0  0  0  0  0  0
  -26.1565  -31.4703   20.6168 H   0  0  0  0  0  0
  -26.8740  -30.7701   22.0315 H   0  0  0  0  0  0
  -28.1260  -28.7879   21.2607 H   0  0  0  0  0  0
  -25.9059  -25.8808   18.9537 H   0  0  0  0  0  0
  -23.9884  -27.3229   18.9550 H   0  0  0  0  0  0
  -23.8075  -30.5744   19.4014 H   0  0  0  0  0  0
  -22.7880  -29.2398   19.8452 H   0  0  0  0  0  0
  -25.1300  -36.1847   25.0808 H   0  0  0  0  0  0
  -21.0025  -28.3274   24.1362 H   0  0  0  0  0  0
  -20.5690  -26.2306   23.3615 H   0  0  0  0  0  0
  -21.6656  -26.7395   22.1194 H   0  0  0  0  0  0
  -19.6908  -25.6276   21.1239 H   0  0  0  0  0  0
  -19.6673  -27.3180   20.6749 H   0  0  0  0  0  0
  -17.4213  -26.6668   21.4038 H   0  0  0  0  0  0
  -18.0331  -26.0050   22.9023 H   0  0  0  0  0  0
  -19.7958  -30.7297   24.2197 H   0  0  0  0  0  0
  -17.5022  -31.6249   24.5149 H   0  0  0  0  0  0
  -15.5365  -30.2934   23.7666 H   0  0  0  0  0  0
  -15.8709  -28.0778   22.7066 H   0  0  0  0  0  0
  -24.5935  -30.7061   25.7738 H   0  0  0  0  0  0
  -24.8945  -32.2903   26.4789 H   0  0  0  0  0  0
  -25.8049  -30.8928   27.0212 H   0  0  0  0  0  0
  -26.3032  -29.6654   24.1266 H   0  0  0  0  0  0
  -27.4049  -29.7218   25.4817 H   0  0  0  0  0  0
  -27.8934  -30.4175   23.9569 H   0  0  0  0  0  0
  -27.2691  -33.3602   26.2038 H   0  0  0  0  0  0
  -28.3930  -32.6827   25.0346 H   0  0  0  0  0  0
  -28.0729  -31.8435   26.5445 H   0  0  0  0  0  0
  -28.2577  -38.0085   24.7532 H   0  0  0  0  0  0
  -28.1089  -36.2625   24.6271 H   0  0  0  0  0  0
  -27.2302  -37.1390   25.8871 H   0  0  0  0  0  0
  -20.9477  -29.8755   21.6808 H   0  0  0  0  0  0
  -26.0146  -38.2804   24.1421 H   0  0  0  0  0  0
  -31.4625  -18.1965   19.7748 H   0  0  0  0  0  0
  -30.9856  -20.6221   19.6790 H   0  0  0  0  0  0
  -27.5930  -17.4977   21.4000 H   0  0  0  0  0  0
  -25.4001  -19.9122   22.9060 H   0  0  0  0  0  0
  -26.6019  -18.6467   22.9901 H   0  0  0  0  0  0
  -25.4068  -18.6543   21.6730 H   0  0  0  0  0  0
  -27.1225  -24.4648   20.9269 H   0  0  0  0  0  0
  -27.3915  -24.4452   19.2081 H   0  0  0  0  0  0
  -27.4736  -22.0431   20.5729 H   0  0  0  0  0  0
  -28.7618  -15.6196   20.9720 H   0  0  0  0  0  0
  1 25  1  0  0  0
  1 30  2  0  0  0
  1 81  1  0  0  0
  2  3  1  0  0  0
  2 25  1  0  0  0
  2 84  1  0  0  0
  2 85  1  0  0  0
  3  4  1  0  0  0
  3 86  1  0  0  0
  3 87  1  0  0  0
  4  5  1  0  0  0
  4 88  1  0  0  0
  4 89  1  0  0  0
  5  6  1  0  0  0
  5 26  1  0  0  0
  5 90  1  0  0  0
  6 25  1  0  0  0
  6 91  1  0  0  0
  6 92  1  0  0  0
  7  8  2  0  0  0
  7 26  1  0  0  0
  7 29  1  0  0  0
  8  9  1  0  0  0
  8 22  1  0  0  0
  9 10  1  0  0  0
  9 27  2  0  0  0
 10 11  2  0  0  0
 10 15  1  0  0  0
 11 12  1  0  0  0
 11 93  1  0  0  0
 12 13  2  0  0  0
 12 94  1  0  0  0
 13 14  1  0  0  0
 13 31  1  0  0  0
 14 15  2  0  0  0
 14 95  1  0  0  0
 15 96  1  0  0  0
 16 17  2  0  0  0
 16 21  1  0  0  0
 16 31  1  0  0  0
 17 18  1  0  0  0
 17 97  1  0  0  0
 18 19  2  0  0  0
 18 98  1  0  0  0
 19 20  1  0  0  0
 19 24  1  0  0  0
 20 21  2  0  0  0
 20 99  1  0  0  0
 21 23  1  0  0  0
 22 28  1  0  0  0
 22 32  2  0  0  0
 26 27  1  0  0  0
 28100  1  0  0  0
 28101  1  0  0  0
 29102  1  0  0  0
 29103  1  0  0  0
 33 34  1  0  0  0
 33 66  1  0  0  0
 33 70  2  0  0  0
 34 36  1  0  0  0
 34 59  1  0  0  0
 34104  1  0  0  0
 35 44  2  0  0  0
 35 45  1  0  0  0
 35 68  1  0  0  0
 36 56  1  0  0  0
 36105  1  0  0  0
 37 39  1  0  0  0
 37 47  1  0  0  0
 37 66  1  0  0  0
 37106  1  0  0  0
 38 43  2  0  0  0
 38 46  1  0  0  0
 38 47  1  0  0  0
 39 64  1  0  0  0
 39 67  2  0  0  0
 40 52  1  0  0  0
 40 53  2  0  0  0
 40 58  1  0  0  0
 41107  1  0  0  0
 41108  1  0  0  0
 41109  1  0  0  0
 41 48  1  0  0  0
 42 43  1  0  0  0
 42 66  1  0  0  0
 42110  1  0  0  0
 42111  1  0  0  0
 43 44  1  0  0  0
 44112  1  0  0  0
 45 46  2  0  0  0
 45113  1  0  0  0
 46114  1  0  0  0
 47115  1  0  0  0
 47116  1  0  0  0
 48 56  1  0  0  0
 48 65  1  0  0  0
 48117  1  0  0  0
 49 50  1  0  0  0
 49 53  1  0  0  0
 49 64  1  0  0  0
 49118  1  0  0  0
 50 51  1  0  0  0
 50119  1  0  0  0
 50120  1  0  0  0
 51 52  1  0  0  0
 51121  1  0  0  0
 51122  1  0  0  0
 52123  1  0  0  0
 52124  1  0  0  0
 53 54  1  0  0  0
 54 55  2  0  0  0
 54125  1  0  0  0
 55 57  1  0  0  0
 55126  1  0  0  0
 56 69  2  0  0  0
 57 58  2  0  0  0
 57127  1  0  0  0
 58128  1  0  0  0
 59 60  1  0  0  0
 59 61  1  0  0  0
 59 62  1  0  0  0
 60129  1  0  0  0
 60130  1  0  0  0
 60131  1  0  0  0
 61132  1  0  0  0
 61133  1  0  0  0
 61134  1  0  0  0
 62135  1  0  0  0
 62136  1  0  0  0
 62137  1  0  0  0
 63 65  1  0  0  0
 63138  1  0  0  0
 63139  1  0  0  0
 63140  1  0  0  0
 64141  1  0  0  0
 65142  1  0  0  0
 68 79  1  0  0  0
 71 72  2  0  0  0
 71 74  1  0  0  0
 71143  1  0  0  0
 72 75  1  0  0  0
 72144  1  0  0  0
 73 74  2  0  0  0
 73 76  1  0  0  0
 73145  1  0  0  0
 74 81  1  0  0  0
 75 76  2  0  0  0
 75 80  1  0  0  0
 76 83  1  0  0  0
 77 79  1  0  0  0
 77 80  1  0  0  0
 77 82  2  0  0  0
 78 83  1  0  0  0
 78146  1  0  0  0
 78147  1  0  0  0
 78148  1  0  0  0
 79149  1  0  0  0
 79150  1  0  0  0
 80151  1  0  0  0
 81152  1  0  0  0
M  ISO  4   1 100  68 101  79 101  81 100
M  END
> <chiral flag>
0

> <version>
0

> <s_m_source_file>
/data/baiqing/PycharmProjects/Reinvent-master-3.2/result/LINK_invent/BTK/process_docking_weight1_custom_sum_contain_oxygen_bond_distance_aromatic_linkinvent_7_9_3/rearranged_h_0010.sdf

> <i_m_source_file_index>
63

> <r_mmod_Potential_Energy-OPLS-2005>
413.437133789062

> <r_mmod_Stretch_Energy-OPLS-2005>
222.322525024414

> <r_mmod_Bend_Energy-OPLS-2005>
291.070159912109

> <r_mmod_Torsional_Energy-OPLS-2005>
225.746246337891

> <r_mmod_Improper_Torsional_Energy-OPLS-2005>
4.11361169815063

> <r_mmod_Van_der_Waal_Energy-OPLS-2005>
137.370330810547

> <r_mmod_Electrostatic_Energy-OPLS-2005>
-402.479919433594

> <r_mmod_Solvation_Energy-OPLS-2005>
-249.173736572266

> <b_mmod_Minimization_Converged-OPLS-2005>
0

> <r_mmod_RMS_Derivative-OPLS-2005>
1.95702016353607

$$$$
63
                    3D
 Structure written by MMmdl.
148156  0  0  1  0            999 V2000
  -30.5114  -14.9205   20.4353 C   0  0  0  0  0  0
  -30.4549  -12.5673   19.4922 C   0  0  0  0  0  0
  -29.5268  -12.5346   18.2535 C   0  0  0  0  0  0
  -28.0572  -12.3215   18.6680 C   0  0  0  0  0  0
  -27.6390  -13.2376   19.8470 C   0  0  2  0  0  0
  -28.6835  -13.2190   20.9848 C   0  0  0  0  0  0
  -25.2503  -13.8190   20.5691 C   0  0  0  0  0  0
  -24.1807  -13.0434   20.9226 C   0  0  0  0  0  0
  -24.6405  -11.6914   20.8755 C   0  0  0  0  0  0
  -23.9078  -10.4290   21.0412 C   0  0  0  0  0  0
  -24.3625   -9.4204   21.9188 C   0  0  0  0  0  0
  -23.6297   -8.2241   22.0756 C   0  0  0  0  0  0
  -22.4279   -8.0282   21.3545 C   0  0  0  0  0  0
  -21.9918   -9.0256   20.4646 C   0  0  0  0  0  0
  -22.7250  -10.2133   20.3058 C   0  0  0  0  0  0
  -21.6852   -6.0736   22.5280 C   0  0  0  0  0  0
  -21.4014   -6.5640   23.8213 C   0  0  0  0  0  0
  -21.3661   -5.6793   24.9175 C   0  0  0  0  0  0
  -21.6046   -4.3055   24.7225 C   0  0  0  0  0  0
  -21.8819   -3.8147   23.4346 C   0  0  0  0  0  0
  -21.9192   -4.6964   22.3403 C   0  0  0  0  0  0
  -22.7826  -13.5215   21.1878 C   0  0  0  0  0  0
  -22.1661   -4.2152   21.0980 F   0  0  0  0  0  0
  -21.5630   -3.4538   25.7737 F   0  0  0  0  0  0
  -29.9672  -13.6392   20.4024 N   0  0  0  0  0  0
  -26.2929  -12.9403   20.3256 N   0  0  0  0  0  0
  -25.9336  -11.6544   20.5741 N   0  0  0  0  0  0
  -22.0467  -12.8206   22.0429 N   0  0  0  0  0  0
  -25.4169  -15.1913   20.4062 N   0  0  0  0  0  0
  -31.6995  -15.0581   20.1214 O   0  0  0  0  0  0
  -21.6640   -6.8880   21.4242 O   0  0  0  0  0  0
  -22.3514  -14.5520   20.6719 O   0  0  0  0  0  0
  -24.6438  -31.8449   23.1897 C   0  0  0  0  0  0
  -25.9212  -32.4699   23.8283 C   0  0  1  0  0  0
  -27.2193  -27.1419   20.1447 C   0  0  0  0  0  0
  -25.5962  -33.8505   24.2199 N   0  0  0  0  0  0
  -23.4471  -30.4658   21.5355 C   0  0  2  0  0  0
  -24.8972  -28.8971   20.1103 C   0  0  0  0  0  0
  -22.7569  -29.4554   22.4861 C   0  0  0  0  0  0
  -18.0306  -28.1397   22.8477 C   0  0  0  0  0  0
  -24.1494  -36.7255   23.2641 C   0  0  0  0  0  0
  -26.0043  -30.7201   21.3890 C   0  0  0  0  0  0
  -26.0760  -29.3328   20.7288 C   0  0  0  0  0  0
  -27.2382  -28.4719   20.7298 C   0  0  0  0  0  0
  -26.0119  -26.8124   19.4852 C   0  0  0  0  0  0
  -24.8781  -27.6496   19.4735 C   0  0  0  0  0  0
  -23.6735  -29.7979   20.1543 C   0  0  0  0  0  0
  -25.4126  -36.3034   24.0315 C   0  0  1  0  0  0
  -20.5919  -28.3725   23.1233 C   0  0  2  0  0  0
  -20.6792  -26.9428   22.5402 C   0  0  0  0  0  0
  -19.5764  -26.6384   21.5212 C   0  0  0  0  0  0
  -18.1946  -26.7935   22.1624 C   0  0  0  0  0  0
  -19.1563  -28.8879   23.2847 C   0  0  0  0  0  0
  -18.9478  -30.1475   23.8873 C   0  0  0  0  0  0
  -17.6474  -30.6593   24.0560 C   0  0  0  0  0  0
  -25.9074  -34.9409   23.5064 C   0  0  0  0  0  0
  -16.5366  -29.9085   23.6337 C   0  0  0  0  0  0
  -16.7290  -28.6504   23.0357 C   0  0  0  0  0  0
  -26.4533  -31.6563   25.0721 C   0  0  0  0  0  0
  -25.3718  -31.3750   26.1415 C   0  0  0  0  0  0
  -27.0398  -30.2959   24.6302 C   0  0  0  0  0  0
  -27.6062  -32.4328   25.7508 C   0  0  0  0  0  0
  -27.5577  -37.1786   24.8466 C   0  0  0  0  0  0
  -21.4262  -29.3051   22.3605 N   0  0  0  0  0  0
  -26.4290  -37.3746   23.9406 N   0  0  0  0  0  0
  -24.7182  -31.0309   22.0931 N   0  0  0  0  0  0
  -23.4211  -28.8097   23.3008 O   0  0  0  0  0  0
  -28.2625  -26.1444   20.2158 O   0  0  0  0  0  0
  -26.5654  -34.8904   22.4638 O   0  0  0  0  0  0
  -23.5557  -32.1324   23.7117 O   0  0  0  0  0  0
  -27.9747  -19.5529   20.6422 C   0  0  0  0  0  0
  -30.2517  -19.9892   20.2292 C   0  0  0  0  0  0
  -28.2527  -18.1388   20.7224 C   0  0  0  0  0  0
  -30.5328  -18.5470   20.2971 C   0  0  0  0  0  0
  -28.9418  -20.5772   20.3930 C   0  0  0  0  0  0
  -29.5365  -17.5311   20.5470 C   0  0  0  0  0  0
  -28.9267  -23.3605   20.2937 C   0  0  0  0  0  0
  -27.9013  -24.6395   20.0445 C   0  0  0  0  0  0
  -28.4495  -22.0266   20.2703 N   0  0  0  0  0  0
  -29.6297  -16.0040   20.6635 N   0  0  0  0  0  0
  -30.1229  -23.5910   20.4895 O   0  0  0  0  0  0
  -31.4864  -12.7415   19.1813 H   0  0  0  0  0  0
  -30.4554  -11.6027   20.0023 H   0  0  0  0  0  0
  -29.8401  -11.7482   17.5656 H   0  0  0  0  0  0
  -29.6180  -13.4738   17.7054 H   0  0  0  0  0  0
  -27.9451  -11.2762   18.9579 H   0  0  0  0  0  0
  -27.3957  -12.4733   17.8143 H   0  0  0  0  0  0
  -27.6148  -14.2484   19.4398 H   0  0  0  0  0  0
  -28.7626  -12.2241   21.4257 H   0  0  0  0  0  0
  -28.3856  -13.8864   21.7950 H   0  0  0  0  0  0
  -25.2770   -9.5679   22.4764 H   0  0  0  0  0  0
  -24.0004   -7.4632   22.7476 H   0  0  0  0  0  0
  -21.0850   -8.8777   19.8951 H   0  0  0  0  0  0
  -22.3712  -10.9674   19.6168 H   0  0  0  0  0  0
  -21.2005   -7.6149   23.9718 H   0  0  0  0  0  0
  -21.1485   -6.0523   25.9079 H   0  0  0  0  0  0
  -22.0597   -2.7609   23.2845 H   0  0  0  0  0  0
  -22.4083  -11.9868   22.4820 H   0  0  0  0  0  0
  -21.1082  -13.1231   22.2628 H   0  0  0  0  0  0
  -24.6348  -15.8318   20.4896 H   0  0  0  0  0  0
  -26.2317  -15.6172   19.9853 H   0  0  0  0  0  0
  -26.7277  -32.5307   23.1011 H   0  0  0  0  0  0
  -25.0101  -33.9623   25.0342 H   0  0  0  0  0  0
  -22.7496  -31.2920   21.3822 H   0  0  0  0  0  0
  -23.3760  -35.9583   23.3294 H   0  0  0  0  0  0
  -24.3578  -36.8897   22.2058 H   0  0  0  0  0  0
  -23.7246  -37.6448   23.6682 H   0  0  0  0  0  0
  -26.1607  -31.4756   20.6179 H   0  0  0  0  0  0
  -26.8743  -30.7686   22.0321 H   0  0  0  0  0  0
  -28.1343  -28.8006   21.2370 H   0  0  0  0  0  0
  -25.8980  -25.8642   18.9841 H   0  0  0  0  0  0
  -23.9793  -27.3113   18.9762 H   0  0  0  0  0  0
  -23.8099  -30.5737   19.4000 H   0  0  0  0  0  0
  -22.7884  -29.2404   19.8425 H   0  0  0  0  0  0
  -25.1314  -36.1864   25.0807 H   0  0  0  0  0  0
  -21.0012  -28.3317   24.1353 H   0  0  0  0  0  0
  -20.5691  -26.2338   23.3621 H   0  0  0  0  0  0
  -21.6656  -26.7436   22.1197 H   0  0  0  0  0  0
  -19.6926  -25.6289   21.1256 H   0  0  0  0  0  0
  -19.6700  -27.3182   20.6732 H   0  0  0  0  0  0
  -17.4214  -26.6680   21.4028 H   0  0  0  0  0  0
  -18.0346  -26.0083   22.9026 H   0  0  0  0  0  0
  -19.7954  -30.7301   24.2231 H   0  0  0  0  0  0
  -17.5025  -31.6269   24.5167 H   0  0  0  0  0  0
  -15.5364  -30.2977   23.7675 H   0  0  0  0  0  0
  -15.8692  -28.0813   22.7085 H   0  0  0  0  0  0
  -24.5907  -30.7087   25.7737 H   0  0  0  0  0  0
  -24.8897  -32.2931   26.4783 H   0  0  0  0  0  0
  -25.8004  -30.8964   27.0230 H   0  0  0  0  0  0
  -26.3018  -29.6679   24.1299 H   0  0  0  0  0  0
  -27.4000  -29.7258   25.4876 H   0  0  0  0  0  0
  -27.8931  -30.4193   23.9629 H   0  0  0  0  0  0
  -27.2656  -33.3649   26.2029 H   0  0  0  0  0  0
  -28.3906  -32.6854   25.0361 H   0  0  0  0  0  0
  -28.0694  -31.8490   26.5473 H   0  0  0  0  0  0
  -28.2587  -38.0090   24.7509 H   0  0  0  0  0  0
  -28.1082  -36.2617   24.6299 H   0  0  0  0  0  0
  -27.2290  -37.1441   25.8868 H   0  0  0  0  0  0
  -20.9473  -29.8764   21.6784 H   0  0  0  0  0  0
  -26.0157  -38.2815   24.1407 H   0  0  0  0  0  0
  -26.9454  -19.8521   20.7809 H   0  0  0  0  0  0
  -31.0796  -20.6531   20.0229 H   0  0  0  0  0  0
  -27.4098  -17.4937   20.9252 H   0  0  0  0  0  0
  -31.5547  -18.2269   20.1490 H   0  0  0  0  0  0
  -27.0275  -24.4465   20.6678 H   0  0  0  0  0  0
  -27.5723  -24.5107   19.0136 H   0  0  0  0  0  0
  -27.4446  -22.0564   20.1609 H   0  0  0  0  0  0
  -28.7368  -15.6100   20.9166 H   0  0  0  0  0  0
  1 25  1  0  0  0
  1 30  2  0  0  0
  1 80  1  0  0  0
  2  3  1  0  0  0
  2 25  1  0  0  0
  2 82  1  0  0  0
  2 83  1  0  0  0
  3  4  1  0  0  0
  3 84  1  0  0  0
  3 85  1  0  0  0
  4  5  1  0  0  0
  4 86  1  0  0  0
  4 87  1  0  0  0
  5  6  1  0  0  0
  5 26  1  0  0  0
  5 88  1  0  0  0
  6 25  1  0  0  0
  6 89  1  0  0  0
  6 90  1  0  0  0
  7  8  2  0  0  0
  7 26  1  0  0  0
  7 29  1  0  0  0
  8  9  1  0  0  0
  8 22  1  0  0  0
  9 10  1  0  0  0
  9 27  2  0  0  0
 10 11  2  0  0  0
 10 15  1  0  0  0
 11 12  1  0  0  0
 11 91  1  0  0  0
 12 13  2  0  0  0
 12 92  1  0  0  0
 13 14  1  0  0  0
 13 31  1  0  0  0
 14 15  2  0  0  0
 14 93  1  0  0  0
 15 94  1  0  0  0
 16 17  2  0  0  0
 16 21  1  0  0  0
 16 31  1  0  0  0
 17 18  1  0  0  0
 17 95  1  0  0  0
 18 19  2  0  0  0
 18 96  1  0  0  0
 19 20  1  0  0  0
 19 24  1  0  0  0
 20 21  2  0  0  0
 20 97  1  0  0  0
 21 23  1  0  0  0
 22 28  1  0  0  0
 22 32  2  0  0  0
 26 27  1  0  0  0
 28 98  1  0  0  0
 28 99  1  0  0  0
 29100  1  0  0  0
 29101  1  0  0  0
 33 34  1  0  0  0
 33 66  1  0  0  0
 33 70  2  0  0  0
 34 36  1  0  0  0
 34 59  1  0  0  0
 34102  1  0  0  0
 35 44  2  0  0  0
 35 45  1  0  0  0
 35 68  1  0  0  0
 36 56  1  0  0  0
 36103  1  0  0  0
 37 39  1  0  0  0
 37 47  1  0  0  0
 37 66  1  0  0  0
 37104  1  0  0  0
 38 43  2  0  0  0
 38 46  1  0  0  0
 38 47  1  0  0  0
 39 64  1  0  0  0
 39 67  2  0  0  0
 40 52  1  0  0  0
 40 53  2  0  0  0
 40 58  1  0  0  0
 41105  1  0  0  0
 41106  1  0  0  0
 41107  1  0  0  0
 41 48  1  0  0  0
 42 43  1  0  0  0
 42 66  1  0  0  0
 42108  1  0  0  0
 42109  1  0  0  0
 43 44  1  0  0  0
 44110  1  0  0  0
 45 46  2  0  0  0
 45111  1  0  0  0
 46112  1  0  0  0
 47113  1  0  0  0
 47114  1  0  0  0
 48 56  1  0  0  0
 48 65  1  0  0  0
 48115  1  0  0  0
 49 50  1  0  0  0
 49 53  1  0  0  0
 49 64  1  0  0  0
 49116  1  0  0  0
 50 51  1  0  0  0
 50117  1  0  0  0
 50118  1  0  0  0
 51 52  1  0  0  0
 51119  1  0  0  0
 51120  1  0  0  0
 52121  1  0  0  0
 52122  1  0  0  0
 53 54  1  0  0  0
 54 55  2  0  0  0
 54123  1  0  0  0
 55 57  1  0  0  0
 55124  1  0  0  0
 56 69  2  0  0  0
 57 58  2  0  0  0
 57125  1  0  0  0
 58126  1  0  0  0
 59 60  1  0  0  0
 59 61  1  0  0  0
 59 62  1  0  0  0
 60127  1  0  0  0
 60128  1  0  0  0
 60129  1  0  0  0
 61130  1  0  0  0
 61131  1  0  0  0
 61132  1  0  0  0
 62133  1  0  0  0
 62134  1  0  0  0
 62135  1  0  0  0
 63 65  1  0  0  0
 63136  1  0  0  0
 63137  1  0  0  0
 63138  1  0  0  0
 64139  1  0  0  0
 65140  1  0  0  0
 68 78  1  0  0  0
 71 73  2  0  0  0
 71 75  1  0  0  0
 71141  1  0  0  0
 72 74  1  0  0  0
 72 75  2  0  0  0
 72142  1  0  0  0
 73 76  1  0  0  0
 73143  1  0  0  0
 74 76  2  0  0  0
 74144  1  0  0  0
 75 79  1  0  0  0
 76 80  1  0  0  0
 77 78  1  0  0  0
 77 79  1  0  0  0
 77 81  2  0  0  0
 78145  1  0  0  0
 78146  1  0  0  0
 79147  1  0  0  0
 80148  1  0  0  0
M  ISO  4   1 100  68 101  78 101  80 100
M  END
> <chiral flag>
0

> <version>
0

> <s_m_source_file>
/data/baiqing/PycharmProjects/Reinvent-master-3.2/result/LINK_invent/BTK/process_docking_weight1_custom_sum_contain_oxygen_bond_distance_aromatic_linkinvent_7_9_3/rearranged_h_0010.sdf

> <i_m_source_file_index>
64

> <r_mmod_Potential_Energy-OPLS-2005>
411.609313964844

> <r_mmod_Stretch_Energy-OPLS-2005>
219.232482910156

> <r_mmod_Bend_Energy-OPLS-2005>
281.814636230469

> <r_mmod_Torsional_Energy-OPLS-2005>
220.372116088867

> <r_mmod_Improper_Torsional_Energy-OPLS-2005>
4.48748207092285

> <r_mmod_Van_der_Waal_Energy-OPLS-2005>
130.148376464844

> <r_mmod_Electrostatic_Energy-OPLS-2005>
-374.771942138672

> <r_mmod_Solvation_Energy-OPLS-2005>
-252.214736938477

> <b_mmod_Minimization_Converged-OPLS-2005>
0

> <r_mmod_RMS_Derivative-OPLS-2005>
0.218703597784042

$$$$
64
                    3D
 Structure written by MMmdl.
151159  0  0  1  0            999 V2000
  -30.6225  -14.6233   20.5083 C   0  0  0  0  0  0
  -30.4418  -12.3822   19.4494 C   0  0  0  0  0  0
  -29.5096  -12.5061   18.2229 C   0  0  0  0  0  0
  -28.0318  -12.3445   18.6342 C   0  0  0  0  0  0
  -27.6567  -13.2123   19.8657 C   0  0  2  0  0  0
  -28.7008  -13.0502   20.9940 C   0  0  0  0  0  0
  -25.2577  -13.8162   20.5679 C   0  0  0  0  0  0
  -24.1839  -13.0434   20.9190 C   0  0  0  0  0  0
  -24.6398  -11.6903   20.8739 C   0  0  0  0  0  0
  -23.9060  -10.4291   21.0410 C   0  0  0  0  0  0
  -24.3613   -9.4210   21.9188 C   0  0  0  0  0  0
  -23.6292   -8.2241   22.0754 C   0  0  0  0  0  0
  -22.4275   -8.0276   21.3542 C   0  0  0  0  0  0
  -21.9906   -9.0253   20.4649 C   0  0  0  0  0  0
  -22.7232  -10.2135   20.3062 C   0  0  0  0  0  0
  -21.6848   -6.0738   22.5282 C   0  0  0  0  0  0
  -21.4009   -6.5641   23.8217 C   0  0  0  0  0  0
  -21.3661   -5.6789   24.9178 C   0  0  0  0  0  0
  -21.6043   -4.3053   24.7224 C   0  0  0  0  0  0
  -21.8819   -3.8147   23.4347 C   0  0  0  0  0  0
  -21.9191   -4.6965   22.3405 C   0  0  0  0  0  0
  -22.7863  -13.5237   21.1853 C   0  0  0  0  0  0
  -22.1662   -4.2155   21.0982 F   0  0  0  0  0  0
  -21.5630   -3.4532   25.7736 F   0  0  0  0  0  0
  -30.0198  -13.3948   20.4368 N   0  0  0  0  0  0
  -26.3004  -12.9336   20.3314 N   0  0  0  0  0  0
  -25.9321  -11.6495   20.5748 N   0  0  0  0  0  0
  -22.0494  -12.8238   22.0409 N   0  0  0  0  0  0
  -25.4295  -15.1884   20.4095 N   0  0  0  0  0  0
  -31.7781  -14.7966   20.1076 O   0  0  0  0  0  0
  -21.6635   -6.8879   21.4244 O   0  0  0  0  0  0
  -22.3554  -14.5543   20.6698 O   0  0  0  0  0  0
  -24.6259  -31.8615   23.2045 C   0  0  0  0  0  0
  -25.9110  -32.4786   23.8371 C   0  0  1  0  0  0
  -27.2178  -27.3267   20.1079 C   0  0  0  0  0  0
  -25.5929  -33.8586   24.2300 N   0  0  0  0  0  0
  -23.4182  -30.4886   21.5476 C   0  0  2  0  0  0
  -24.8621  -28.9486   20.1097 C   0  0  0  0  0  0
  -22.7472  -29.4639   22.4933 C   0  0  0  0  0  0
  -18.0289  -28.1385   22.8491 C   0  0  0  0  0  0
  -24.1488  -36.7292   23.2638 C   0  0  0  0  0  0
  -25.9606  -30.7946   21.3745 C   0  0  0  0  0  0
  -26.0329  -29.4239   20.7142 C   0  0  0  0  0  0
  -27.2142  -28.6248   20.7038 C   0  0  0  0  0  0
  -26.0216  -26.9067   19.4781 C   0  0  0  0  0  0
  -24.8583  -27.6951   19.4830 C   0  0  0  0  0  0
  -23.6315  -29.8295   20.1609 C   0  0  0  0  0  0
  -25.4110  -36.3087   24.0338 C   0  0  1  0  0  0
  -20.5892  -28.3687   23.1285 C   0  0  2  0  0  0
  -20.6777  -26.9412   22.5408 C   0  0  0  0  0  0
  -19.5752  -26.6390   21.5213 C   0  0  0  0  0  0
  -18.1934  -26.7929   22.1632 C   0  0  0  0  0  0
  -19.1541  -28.8851   23.2887 C   0  0  0  0  0  0
  -18.9462  -30.1455   23.8904 C   0  0  0  0  0  0
  -17.6461  -30.6589   24.0565 C   0  0  0  0  0  0
  -25.9050  -34.9454   23.5121 C   0  0  0  0  0  0
  -16.5353  -29.9089   23.6329 C   0  0  0  0  0  0
  -16.7276  -28.6505   23.0355 C   0  0  0  0  0  0
  -26.4492  -31.6584   25.0730 C   0  0  0  0  0  0
  -25.3730  -31.3730   26.1464 C   0  0  0  0  0  0
  -27.0317  -30.3006   24.6169 C   0  0  0  0  0  0
  -27.6076  -32.4293   25.7487 C   0  0  0  0  0  0
  -27.5581  -37.1800   24.8467 C   0  0  0  0  0  0
  -21.4186  -29.3045   22.3679 N   0  0  0  0  0  0
  -26.4289  -37.3779   23.9418 N   0  0  0  0  0  0
  -24.6875  -31.0639   22.0992 N   0  0  0  0  0  0
  -23.4198  -28.8169   23.3001 O   0  0  0  0  0  0
  -28.3324  -26.4737   20.1583 O   0  0  0  0  0  0
  -26.5610  -34.8915   22.4682 O   0  0  0  0  0  0
  -23.5422  -32.1408   23.7377 O   0  0  0  0  0  0
  -30.8900  -19.2621   20.0720 C   0  0  0  0  0  0
  -28.6856  -19.2877   21.0333 C   0  0  0  0  0  0
  -30.9401  -17.8400   20.1881 C   0  0  0  0  0  0
  -28.7393  -17.8687   21.1589 C   0  0  0  0  0  0
  -29.7645  -20.0285   20.4845 C   0  0  0  0  0  0
  -29.8612  -17.1018   20.7420 C   0  0  0  0  0  0
  -28.8226  -22.4378   20.3658 C   0  0  0  0  0  0
  -29.2124  -23.9702   20.3851 C   0  0  0  0  0  0
  -28.0842  -25.0211   20.0070 C   0  0  0  0  0  0
  -29.8105  -21.4895   20.3935 N   0  0  0  0  0  0
  -29.8109  -15.6499   20.9078 N   0  0  0  0  0  0
  -27.6301  -22.1276   20.3149 O   0  0  0  0  0  0
  -31.4830  -12.5093   19.1474 H   0  0  0  0  0  0
  -30.3772  -11.3830   19.8827 H   0  0  0  0  0  0
  -29.7730  -11.7585   17.4735 H   0  0  0  0  0  0
  -29.6529  -13.4779   17.7470 H   0  0  0  0  0  0
  -27.8679  -11.2908   18.8638 H   0  0  0  0  0  0
  -27.3769  -12.5764   17.7937 H   0  0  0  0  0  0
  -27.6803  -14.2501   19.5320 H   0  0  0  0  0  0
  -28.7081  -12.0226   21.3613 H   0  0  0  0  0  0
  -28.4453  -13.6671   21.8566 H   0  0  0  0  0  0
  -25.2760   -9.5681   22.4757 H   0  0  0  0  0  0
  -24.0004   -7.4629   22.7464 H   0  0  0  0  0  0
  -21.0837   -8.8770   19.8953 H   0  0  0  0  0  0
  -22.3692  -10.9671   19.6166 H   0  0  0  0  0  0
  -21.1999   -7.6149   23.9722 H   0  0  0  0  0  0
  -21.1484   -6.0519   25.9081 H   0  0  0  0  0  0
  -22.0598   -2.7608   23.2840 H   0  0  0  0  0  0
  -22.4096  -11.9898   22.4808 H   0  0  0  0  0  0
  -21.1113  -13.1276   22.2610 H   0  0  0  0  0  0
  -24.6577  -15.8384   20.5118 H   0  0  0  0  0  0
  -26.2703  -15.6250   20.0532 H   0  0  0  0  0  0
  -26.7178  -32.5454   23.1120 H   0  0  0  0  0  0
  -25.0075  -33.9729   25.0445 H   0  0  0  0  0  0
  -22.7129  -31.3109   21.4093 H   0  0  0  0  0  0
  -23.3756  -35.9617   23.3289 H   0  0  0  0  0  0
  -24.3591  -36.8916   22.2055 H   0  0  0  0  0  0
  -23.7228  -37.6490   23.6655 H   0  0  0  0  0  0
  -26.0939  -31.5600   20.6084 H   0  0  0  0  0  0
  -26.8407  -30.8406   22.0039 H   0  0  0  0  0  0
  -28.1123  -28.9845   21.1866 H   0  0  0  0  0  0
  -25.9485  -25.9523   18.9794 H   0  0  0  0  0  0
  -23.9617  -27.3275   19.0026 H   0  0  0  0  0  0
  -23.7517  -30.6094   19.4082 H   0  0  0  0  0  0
  -22.7492  -29.2629   19.8564 H   0  0  0  0  0  0
  -25.1285  -36.1945   25.0829 H   0  0  0  0  0  0
  -20.9999  -28.3257   24.1400 H   0  0  0  0  0  0
  -20.5692  -26.2292   23.3604 H   0  0  0  0  0  0
  -21.6646  -26.7449   22.1191 H   0  0  0  0  0  0
  -19.6909  -25.6303   21.1242 H   0  0  0  0  0  0
  -19.6685  -27.3204   20.6747 H   0  0  0  0  0  0
  -17.4201  -26.6676   21.4037 H   0  0  0  0  0  0
  -18.0338  -26.0074   22.9034 H   0  0  0  0  0  0
  -19.7934  -30.7271   24.2277 H   0  0  0  0  0  0
  -17.5015  -31.6271   24.5164 H   0  0  0  0  0  0
  -15.5352  -30.2994   23.7647 H   0  0  0  0  0  0
  -15.8680  -28.0829   22.7065 H   0  0  0  0  0  0
  -24.5873  -30.7121   25.7786 H   0  0  0  0  0  0
  -24.8955  -32.2901   26.4923 H   0  0  0  0  0  0
  -25.8046  -30.8865   27.0220 H   0  0  0  0  0  0
  -26.2877  -29.6765   24.1202 H   0  0  0  0  0  0
  -27.4031  -29.7254   25.4659 H   0  0  0  0  0  0
  -27.8747  -30.4296   23.9378 H   0  0  0  0  0  0
  -27.2732  -33.3616   26.2052 H   0  0  0  0  0  0
  -28.3890  -32.6809   25.0302 H   0  0  0  0  0  0
  -28.0733  -31.8408   26.5402 H   0  0  0  0  0  0
  -28.2599  -38.0098   24.7520 H   0  0  0  0  0  0
  -28.1079  -36.2633   24.6283 H   0  0  0  0  0  0
  -27.2303  -37.1432   25.8870 H   0  0  0  0  0  0
  -20.9357  -29.8774   21.6902 H   0  0  0  0  0  0
  -26.0175  -38.2857   24.1416 H   0  0  0  0  0  0
  -31.7477  -19.7682   19.6520 H   0  0  0  0  0  0
  -27.8046  -19.8023   21.3894 H   0  0  0  0  0  0
  -31.8293  -17.3304   19.8462 H   0  0  0  0  0  0
  -27.8869  -17.3668   21.5952 H   0  0  0  0  0  0
  -30.0681  -24.1163   19.7263 H   0  0  0  0  0  0
  -29.5639  -24.1927   21.3921 H   0  0  0  0  0  0
  -27.2039  -24.7700   20.6018 H   0  0  0  0  0  0
  -27.8172  -24.8330   18.9663 H   0  0  0  0  0  0
  -30.7424  -21.8769   20.3285 H   0  0  0  0  0  0
  -28.9344  -15.3091   21.2715 H   0  0  0  0  0  0
  1 25  1  0  0  0
  1 30  2  0  0  0
  1 81  1  0  0  0
  2  3  1  0  0  0
  2 25  1  0  0  0
  2 83  1  0  0  0
  2 84  1  0  0  0
  3  4  1  0  0  0
  3 85  1  0  0  0
  3 86  1  0  0  0
  4  5  1  0  0  0
  4 87  1  0  0  0
  4 88  1  0  0  0
  5  6  1  0  0  0
  5 26  1  0  0  0
  5 89  1  0  0  0
  6 25  1  0  0  0
  6 90  1  0  0  0
  6 91  1  0  0  0
  7  8  2  0  0  0
  7 26  1  0  0  0
  7 29  1  0  0  0
  8  9  1  0  0  0
  8 22  1  0  0  0
  9 10  1  0  0  0
  9 27  2  0  0  0
 10 11  2  0  0  0
 10 15  1  0  0  0
 11 12  1  0  0  0
 11 92  1  0  0  0
 12 13  2  0  0  0
 12 93  1  0  0  0
 13 14  1  0  0  0
 13 31  1  0  0  0
 14 15  2  0  0  0
 14 94  1  0  0  0
 15 95  1  0  0  0
 16 17  2  0  0  0
 16 21  1  0  0  0
 16 31  1  0  0  0
 17 18  1  0  0  0
 17 96  1  0  0  0
 18 19  2  0  0  0
 18 97  1  0  0  0
 19 20  1  0  0  0
 19 24  1  0  0  0
 20 21  2  0  0  0
 20 98  1  0  0  0
 21 23  1  0  0  0
 22 28  1  0  0  0
 22 32  2  0  0  0
 26 27  1  0  0  0
 28 99  1  0  0  0
 28100  1  0  0  0
 29101  1  0  0  0
 29102  1  0  0  0
 33 34  1  0  0  0
 33 66  1  0  0  0
 33 70  2  0  0  0
 34 36  1  0  0  0
 34 59  1  0  0  0
 34103  1  0  0  0
 35 44  2  0  0  0
 35 45  1  0  0  0
 35 68  1  0  0  0
 36 56  1  0  0  0
 36104  1  0  0  0
 37 39  1  0  0  0
 37 47  1  0  0  0
 37 66  1  0  0  0
 37105  1  0  0  0
 38 43  2  0  0  0
 38 46  1  0  0  0
 38 47  1  0  0  0
 39 64  1  0  0  0
 39 67  2  0  0  0
 40 52  1  0  0  0
 40 53  2  0  0  0
 40 58  1  0  0  0
 41106  1  0  0  0
 41107  1  0  0  0
 41108  1  0  0  0
 41 48  1  0  0  0
 42 43  1  0  0  0
 42 66  1  0  0  0
 42109  1  0  0  0
 42110  1  0  0  0
 43 44  1  0  0  0
 44111  1  0  0  0
 45 46  2  0  0  0
 45112  1  0  0  0
 46113  1  0  0  0
 47114  1  0  0  0
 47115  1  0  0  0
 48 56  1  0  0  0
 48 65  1  0  0  0
 48116  1  0  0  0
 49 50  1  0  0  0
 49 53  1  0  0  0
 49 64  1  0  0  0
 49117  1  0  0  0
 50 51  1  0  0  0
 50118  1  0  0  0
 50119  1  0  0  0
 51 52  1  0  0  0
 51120  1  0  0  0
 51121  1  0  0  0
 52122  1  0  0  0
 52123  1  0  0  0
 53 54  1  0  0  0
 54 55  2  0  0  0
 54124  1  0  0  0
 55 57  1  0  0  0
 55125  1  0  0  0
 56 69  2  0  0  0
 57 58  2  0  0  0
 57126  1  0  0  0
 58127  1  0  0  0
 59 60  1  0  0  0
 59 61  1  0  0  0
 59 62  1  0  0  0
 60128  1  0  0  0
 60129  1  0  0  0
 60130  1  0  0  0
 61131  1  0  0  0
 61132  1  0  0  0
 61133  1  0  0  0
 62134  1  0  0  0
 62135  1  0  0  0
 62136  1  0  0  0
 63 65  1  0  0  0
 63137  1  0  0  0
 63138  1  0  0  0
 63139  1  0  0  0
 64140  1  0  0  0
 65141  1  0  0  0
 68 79  1  0  0  0
 71 73  2  0  0  0
 71 75  1  0  0  0
 71142  1  0  0  0
 72 74  1  0  0  0
 72 75  2  0  0  0
 72143  1  0  0  0
 73 76  1  0  0  0
 73144  1  0  0  0
 74 76  2  0  0  0
 74145  1  0  0  0
 75 80  1  0  0  0
 76 81  1  0  0  0
 77 78  1  0  0  0
 77 80  1  0  0  0
 77 82  2  0  0  0
 78 79  1  0  0  0
 78146  1  0  0  0
 78147  1  0  0  0
 79148  1  0  0  0
 79149  1  0  0  0
 80150  1  0  0  0
 81151  1  0  0  0
M  ISO  4   1 100  68 101  79 101  81 100
M  END
> <chiral flag>
0

> <version>
0

> <s_m_source_file>
/data/baiqing/PycharmProjects/Reinvent-master-3.2/result/LINK_invent/BTK/process_docking_weight1_custom_sum_contain_oxygen_bond_distance_aromatic_linkinvent_7_9_3/rearranged_h_0010.sdf

> <i_m_source_file_index>
65

> <r_mmod_Potential_Energy-OPLS-2005>
-22.6337127685547

> <r_mmod_Stretch_Energy-OPLS-2005>
74.1388244628906

> <r_mmod_Bend_Energy-OPLS-2005>
136.268478393555

> <r_mmod_Torsional_Energy-OPLS-2005>
219.131301879883

> <r_mmod_Improper_Torsional_Energy-OPLS-2005>
3.96359419822693

> <r_mmod_Van_der_Waal_Energy-OPLS-2005>
148.799301147461

> <r_mmod_Electrostatic_Energy-OPLS-2005>
-419.957763671875

> <r_mmod_Solvation_Energy-OPLS-2005>
-229.819793701172

> <b_mmod_Minimization_Converged-OPLS-2005>
0

> <r_mmod_RMS_Derivative-OPLS-2005>
0.986919105052948

$$$$
65
                    3D
 Structure written by MMmdl.
151159  0  0  1  0            999 V2000
  -30.5124  -15.0506   20.4092 C   0  0  0  0  0  0
  -30.4401  -12.6608   19.5000 C   0  0  0  0  0  0
  -29.5247  -12.5403   18.2597 C   0  0  0  0  0  0
  -28.0639  -12.3039   18.6867 C   0  0  0  0  0  0
  -27.6220  -13.2552   19.8292 C   0  0  2  0  0  0
  -28.6643  -13.3374   20.9632 C   0  0  0  0  0  0
  -25.2439  -13.8221   20.5719 C   0  0  0  0  0  0
  -24.1769  -13.0432   20.9243 C   0  0  0  0  0  0
  -24.6396  -11.6922   20.8759 C   0  0  0  0  0  0
  -23.9083  -10.4289   21.0411 C   0  0  0  0  0  0
  -24.3629   -9.4205   21.9190 C   0  0  0  0  0  0
  -23.6297   -8.2244   22.0760 C   0  0  0  0  0  0
  -22.4280   -8.0284   21.3547 C   0  0  0  0  0  0
  -21.9919   -9.0260   20.4651 C   0  0  0  0  0  0
  -22.7252  -10.2137   20.3062 C   0  0  0  0  0  0
  -21.6852   -6.0737   22.5276 C   0  0  0  0  0  0
  -21.4013   -6.5640   23.8209 C   0  0  0  0  0  0
  -21.3653   -5.6793   24.9171 C   0  0  0  0  0  0
  -21.6046   -4.3056   24.7222 C   0  0  0  0  0  0
  -21.8816   -3.8148   23.4342 C   0  0  0  0  0  0
  -21.9195   -4.6965   22.3399 C   0  0  0  0  0  0
  -22.7790  -13.5208   21.1885 C   0  0  0  0  0  0
  -22.1663   -4.2153   21.0976 F   0  0  0  0  0  0
  -21.5627   -3.4534   25.7733 F   0  0  0  0  0  0
  -29.9212  -13.7803   20.3458 N   0  0  0  0  0  0
  -26.2855  -12.9459   20.3221 N   0  0  0  0  0  0
  -25.9328  -11.6582   20.5729 N   0  0  0  0  0  0
  -22.0435  -12.8201   22.0441 N   0  0  0  0  0  0
  -25.4069  -15.1949   20.4135 N   0  0  0  0  0  0
  -31.7316  -15.0763   20.2011 O   0  0  0  0  0  0
  -21.6640   -6.8883   21.4241 O   0  0  0  0  0  0
  -22.3478  -14.5511   20.6723 O   0  0  0  0  0  0
  -24.6504  -31.8367   23.1839 C   0  0  0  0  0  0
  -25.9244  -32.4653   23.8253 C   0  0  1  0  0  0
  -27.2123  -27.0624   20.1615 C   0  0  0  0  0  0
  -25.5970  -33.8462   24.2164 N   0  0  0  0  0  0
  -23.4584  -30.4558   21.5286 C   0  0  2  0  0  0
  -24.9092  -28.8708   20.1101 C   0  0  0  0  0  0
  -22.7592  -29.4518   22.4802 C   0  0  0  0  0  0
  -18.0316  -28.1388   22.8456 C   0  0  0  0  0  0
  -24.1500  -36.7245   23.2646 C   0  0  0  0  0  0
  -26.0196  -30.6871   21.3947 C   0  0  0  0  0  0
  -26.0898  -29.2917   20.7355 C   0  0  0  0  0  0
  -27.2421  -28.4056   20.7417 C   0  0  0  0  0  0
  -26.0053  -26.7660   19.4897 C   0  0  0  0  0  0
  -24.8837  -27.6240   19.4702 C   0  0  0  0  0  0
  -23.6913  -29.7837   20.1495 C   0  0  0  0  0  0
  -25.4129  -36.3007   24.0314 C   0  0  1  0  0  0
  -20.5928  -28.3740   23.1184 C   0  0  2  0  0  0
  -20.6794  -26.9428   22.5384 C   0  0  0  0  0  0
  -19.5775  -26.6371   21.5187 C   0  0  0  0  0  0
  -18.1957  -26.7924   22.1600 C   0  0  0  0  0  0
  -19.1572  -28.8877   23.2813 C   0  0  0  0  0  0
  -18.9492  -30.1463   23.8858 C   0  0  0  0  0  0
  -17.6490  -30.6586   24.0551 C   0  0  0  0  0  0
  -25.9079  -34.9381   23.5048 C   0  0  0  0  0  0
  -16.5379  -29.9079   23.6333 C   0  0  0  0  0  0
  -16.7300  -28.6492   23.0355 C   0  0  0  0  0  0
  -26.4547  -31.6544   25.0724 C   0  0  0  0  0  0
  -25.3721  -31.3732   26.1410 C   0  0  0  0  0  0
  -27.0433  -30.2933   24.6358 C   0  0  0  0  0  0
  -27.6062  -32.4330   25.7504 C   0  0  0  0  0  0
  -27.5574  -37.1777   24.8463 C   0  0  0  0  0  0
  -21.4275  -29.3061   22.3548 N   0  0  0  0  0  0
  -26.4289  -37.3724   23.9403 N   0  0  0  0  0  0
  -24.7298  -31.0157   22.0908 N   0  0  0  0  0  0
  -23.4193  -28.8053   23.2980 O   0  0  0  0  0  0
  -28.2360  -26.0228   20.2250 O   0  0  0  0  0  0
  -26.5672  -34.8893   22.4630 O   0  0  0  0  0  0
  -23.5604  -32.1272   23.7013 O   0  0  0  0  0  0
  -31.6271  -19.4119   21.5895 C   0  0  0  0  0  0
  -31.2755  -18.0988   21.2196 C   0  0  0  0  0  0
  -29.2197  -19.0365   20.3499 C   0  0  0  0  0  0
  -30.8088  -20.5510   21.3820 C   0  0  0  0  0  0
  -30.0392  -17.7917   20.6251 C   0  0  0  0  0  0
  -29.5755  -20.4780   20.6598 C   0  0  0  0  0  0
  -29.0028  -23.2120   20.2552 C   0  0  0  0  0  0
  -31.3066  -21.8164   22.0646 C   0  0  0  0  0  0
  -27.8817  -24.4694   20.1957 C   0  0  0  0  0  0
  -28.7373  -21.7896   20.4063 N   0  0  0  0  0  0
  -29.7299  -16.2691   20.4398 N   0  0  0  0  0  0
  -30.1644  -23.5787   20.0717 O   0  0  0  0  0  0
  -31.4691  -12.8349   19.1823 H   0  0  0  0  0  0
  -30.4573  -11.7258   20.0622 H   0  0  0  0  0  0
  -29.8638  -11.7292   17.6138 H   0  0  0  0  0  0
  -29.5898  -13.4531   17.6655 H   0  0  0  0  0  0
  -27.9877  -11.2696   19.0244 H   0  0  0  0  0  0
  -27.3949  -12.3948   17.8302 H   0  0  0  0  0  0
  -27.5671  -14.2439   19.3735 H   0  0  0  0  0  0
  -28.7815  -12.3773   21.4679 H   0  0  0  0  0  0
  -28.3470  -14.0523   21.7240 H   0  0  0  0  0  0
  -25.2767   -9.5681   22.4771 H   0  0  0  0  0  0
  -23.9995   -7.4640   22.7485 H   0  0  0  0  0  0
  -21.0845   -8.8787   19.8962 H   0  0  0  0  0  0
  -22.3707  -10.9682   19.6176 H   0  0  0  0  0  0
  -21.2004   -7.6146   23.9715 H   0  0  0  0  0  0
  -21.1475   -6.0520   25.9075 H   0  0  0  0  0  0
  -22.0600   -2.7609   23.2839 H   0  0  0  0  0  0
  -22.4052  -11.9867   22.4836 H   0  0  0  0  0  0
  -21.1052  -13.1230   22.2637 H   0  0  0  0  0  0
  -24.6327  -15.8405   20.5270 H   0  0  0  0  0  0
  -26.2396  -15.6388   20.0497 H   0  0  0  0  0  0
  -26.7306  -32.5234   23.0965 H   0  0  0  0  0  0
  -25.0092  -33.9564   25.0296 H   0  0  0  0  0  0
  -22.7674  -31.2857   21.3682 H   0  0  0  0  0  0
  -23.3767  -35.9571   23.3280 H   0  0  0  0  0  0
  -24.3589  -36.8912   22.2067 H   0  0  0  0  0  0
  -23.7254  -37.6428   23.6711 H   0  0  0  0  0  0
  -26.1848  -31.4389   20.6224 H   0  0  0  0  0  0
  -26.8865  -30.7387   22.0418 H   0  0  0  0  0  0
  -28.1390  -28.7218   21.2562 H   0  0  0  0  0  0
  -25.8872  -25.8210   18.9837 H   0  0  0  0  0  0
  -23.9855  -27.2978   18.9640 H   0  0  0  0  0  0
  -23.8394  -30.5586   19.3965 H   0  0  0  0  0  0
  -22.8046  -29.2326   19.8317 H   0  0  0  0  0  0
  -25.1316  -36.1830   25.0808 H   0  0  0  0  0  0
  -21.0022  -28.3358   24.1304 H   0  0  0  0  0  0
  -20.5666  -26.2359   23.3618 H   0  0  0  0  0  0
  -21.6663  -26.7413   22.1197 H   0  0  0  0  0  0
  -19.6949  -25.6269   21.1249 H   0  0  0  0  0  0
  -19.6725  -27.3150   20.6691 H   0  0  0  0  0  0
  -17.4219  -26.6645   21.4016 H   0  0  0  0  0  0
  -18.0379  -26.0076   22.9010 H   0  0  0  0  0  0
  -19.7979  -30.7263   24.2225 H   0  0  0  0  0  0
  -17.5063  -31.6267   24.5154 H   0  0  0  0  0  0
  -15.5382  -30.2977   23.7685 H   0  0  0  0  0  0
  -15.8694  -28.0803   22.7104 H   0  0  0  0  0  0
  -24.5927  -30.7049   25.7720 H   0  0  0  0  0  0
  -24.8878  -32.2904   26.4773 H   0  0  0  0  0  0
  -25.8004  -30.8949   27.0229 H   0  0  0  0  0  0
  -26.3067  -29.6621   24.1371 H   0  0  0  0  0  0
  -27.4021  -29.7272   25.4962 H   0  0  0  0  0  0
  -27.8986  -30.4144   23.9709 H   0  0  0  0  0  0
  -27.2661  -33.3678   26.1971 H   0  0  0  0  0  0
  -28.3926  -32.6811   25.0363 H   0  0  0  0  0  0
  -28.0672  -31.8529   26.5509 H   0  0  0  0  0  0
  -28.2564  -38.0099   24.7512 H   0  0  0  0  0  0
  -28.1103  -36.2620   24.6289 H   0  0  0  0  0  0
  -27.2289  -37.1411   25.8868 H   0  0  0  0  0  0
  -20.9495  -29.8794   21.6734 H   0  0  0  0  0  0
  -26.0152  -38.2791   24.1417 H   0  0  0  0  0  0
  -32.5675  -19.5366   22.1078 H   0  0  0  0  0  0
  -31.9683  -17.3084   21.4677 H   0  0  0  0  0  0
  -28.2578  -18.8782   19.8837 H   0  0  0  0  0  0
  -31.9223  -21.5754   22.9319 H   0  0  0  0  0  0
  -30.4871  -22.4240   22.4467 H   0  0  0  0  0  0
  -31.9250  -22.4073   21.3899 H   0  0  0  0  0  0
  -27.1785  -24.2905   21.0098 H   0  0  0  0  0  0
  -27.3251  -24.2762   19.2798 H   0  0  0  0  0  0
  -27.7447  -21.6071   20.3357 H   0  0  0  0  0  0
  -28.7433  -16.0709   20.3703 H   0  0  0  0  0  0
  1 25  1  0  0  0
  1 30  2  0  0  0
  1 81  1  0  0  0
  2  3  1  0  0  0
  2 25  1  0  0  0
  2 83  1  0  0  0
  2 84  1  0  0  0
  3  4  1  0  0  0
  3 85  1  0  0  0
  3 86  1  0  0  0
  4  5  1  0  0  0
  4 87  1  0  0  0
  4 88  1  0  0  0
  5  6  1  0  0  0
  5 26  1  0  0  0
  5 89  1  0  0  0
  6 25  1  0  0  0
  6 90  1  0  0  0
  6 91  1  0  0  0
  7  8  2  0  0  0
  7 26  1  0  0  0
  7 29  1  0  0  0
  8  9  1  0  0  0
  8 22  1  0  0  0
  9 10  1  0  0  0
  9 27  2  0  0  0
 10 11  2  0  0  0
 10 15  1  0  0  0
 11 12  1  0  0  0
 11 92  1  0  0  0
 12 13  2  0  0  0
 12 93  1  0  0  0
 13 14  1  0  0  0
 13 31  1  0  0  0
 14 15  2  0  0  0
 14 94  1  0  0  0
 15 95  1  0  0  0
 16 17  2  0  0  0
 16 21  1  0  0  0
 16 31  1  0  0  0
 17 18  1  0  0  0
 17 96  1  0  0  0
 18 19  2  0  0  0
 18 97  1  0  0  0
 19 20  1  0  0  0
 19 24  1  0  0  0
 20 21  2  0  0  0
 20 98  1  0  0  0
 21 23  1  0  0  0
 22 28  1  0  0  0
 22 32  2  0  0  0
 26 27  1  0  0  0
 28 99  1  0  0  0
 28100  1  0  0  0
 29101  1  0  0  0
 29102  1  0  0  0
 33 34  1  0  0  0
 33 66  1  0  0  0
 33 70  2  0  0  0
 34 36  1  0  0  0
 34 59  1  0  0  0
 34103  1  0  0  0
 35 44  2  0  0  0
 35 45  1  0  0  0
 35 68  1  0  0  0
 36 56  1  0  0  0
 36104  1  0  0  0
 37 39  1  0  0  0
 37 47  1  0  0  0
 37 66  1  0  0  0
 37105  1  0  0  0
 38 43  2  0  0  0
 38 46  1  0  0  0
 38 47  1  0  0  0
 39 64  1  0  0  0
 39 67  2  0  0  0
 40 52  1  0  0  0
 40 53  2  0  0  0
 40 58  1  0  0  0
 41106  1  0  0  0
 41107  1  0  0  0
 41108  1  0  0  0
 41 48  1  0  0  0
 42 43  1  0  0  0
 42 66  1  0  0  0
 42109  1  0  0  0
 42110  1  0  0  0
 43 44  1  0  0  0
 44111  1  0  0  0
 45 46  2  0  0  0
 45112  1  0  0  0
 46113  1  0  0  0
 47114  1  0  0  0
 47115  1  0  0  0
 48 56  1  0  0  0
 48 65  1  0  0  0
 48116  1  0  0  0
 49 50  1  0  0  0
 49 53  1  0  0  0
 49 64  1  0  0  0
 49117  1  0  0  0
 50 51  1  0  0  0
 50118  1  0  0  0
 50119  1  0  0  0
 51 52  1  0  0  0
 51120  1  0  0  0
 51121  1  0  0  0
 52122  1  0  0  0
 52123  1  0  0  0
 53 54  1  0  0  0
 54 55  2  0  0  0
 54124  1  0  0  0
 55 57  1  0  0  0
 55125  1  0  0  0
 56 69  2  0  0  0
 57 58  2  0  0  0
 57126  1  0  0  0
 58127  1  0  0  0
 59 60  1  0  0  0
 59 61  1  0  0  0
 59 62  1  0  0  0
 60128  1  0  0  0
 60129  1  0  0  0
 60130  1  0  0  0
 61131  1  0  0  0
 61132  1  0  0  0
 61133  1  0  0  0
 62134  1  0  0  0
 62135  1  0  0  0
 62136  1  0  0  0
 63 65  1  0  0  0
 63137  1  0  0  0
 63138  1  0  0  0
 63139  1  0  0  0
 64140  1  0  0  0
 65141  1  0  0  0
 68 79  1  0  0  0
 71 72  2  0  0  0
 71 74  1  0  0  0
 71142  1  0  0  0
 72 75  1  0  0  0
 72143  1  0  0  0
 73 75  2  0  0  0
 73 76  1  0  0  0
 73144  1  0  0  0
 74 76  2  0  0  0
 74 78  1  0  0  0
 75 81  1  0  0  0
 76 80  1  0  0  0
 77 79  1  0  0  0
 77 80  1  0  0  0
 77 82  2  0  0  0
 78145  1  0  0  0
 78146  1  0  0  0
 78147  1  0  0  0
 79148  1  0  0  0
 79149  1  0  0  0
 80150  1  0  0  0
 81151  1  0  0  0
M  ISO  4   1 100  68 101  79 101  81 100
M  END
> <chiral flag>
0

> <version>
0

> <s_m_source_file>
/data/baiqing/PycharmProjects/Reinvent-master-3.2/result/LINK_invent/BTK/process_docking_weight1_custom_sum_contain_oxygen_bond_distance_aromatic_linkinvent_7_9_3/rearranged_h_0010.sdf

> <i_m_source_file_index>
66

> <r_mmod_Potential_Energy-OPLS-2005>
672.253173828125

> <r_mmod_Stretch_Energy-OPLS-2005>
351.696807861328

> <r_mmod_Bend_Energy-OPLS-2005>
278.612426757812

> <r_mmod_Torsional_Energy-OPLS-2005>
238.690216064453

> <r_mmod_Improper_Torsional_Energy-OPLS-2005>
7.22449827194214

> <r_mmod_Van_der_Waal_Energy-OPLS-2005>
139.931900024414

> <r_mmod_Electrostatic_Energy-OPLS-2005>
-367.038391113281

> <r_mmod_Solvation_Energy-OPLS-2005>
-247.221771240234

> <b_mmod_Minimization_Converged-OPLS-2005>
0

> <r_mmod_RMS_Derivative-OPLS-2005>
1.25241470336914

$$$$
66
                    3D
 Structure written by MMmdl.
151159  0  0  1  0            999 V2000
  -30.4343  -15.3633   20.2506 C   0  0  0  0  0  0
  -30.4138  -12.8530   19.5510 C   0  0  0  0  0  0
  -29.5311  -12.5816   18.3041 C   0  0  0  0  0  0
  -28.0903  -12.2799   18.7381 C   0  0  0  0  0  0
  -27.6022  -13.2794   19.8179 C   0  0  2  0  0  0
  -28.6288  -13.5357   20.9475 C   0  0  0  0  0  0
  -25.2380  -13.8274   20.5780 C   0  0  0  0  0  0
  -24.1721  -13.0421   20.9332 C   0  0  0  0  0  0
  -24.6393  -11.6937   20.8761 C   0  0  0  0  0  0
  -23.9088  -10.4277   21.0394 C   0  0  0  0  0  0
  -24.3607   -9.4204   21.9165 C   0  0  0  0  0  0
  -23.6259   -8.2253   22.0769 C   0  0  0  0  0  0
  -22.4237   -8.0284   21.3578 C   0  0  0  0  0  0
  -21.9875   -9.0273   20.4672 C   0  0  0  0  0  0
  -22.7260  -10.2119   20.3046 C   0  0  0  0  0  0
  -21.6838   -6.0716   22.5286 C   0  0  0  0  0  0
  -21.4036   -6.5605   23.8228 C   0  0  0  0  0  0
  -21.3717   -5.6738   24.9147 C   0  0  0  0  0  0
  -21.6045   -4.3016   24.7174 C   0  0  0  0  0  0
  -21.8805   -3.8135   23.4297 C   0  0  0  0  0  0
  -21.9190   -4.6961   22.3359 C   0  0  0  0  0  0
  -22.7768  -13.5208   21.2009 C   0  0  0  0  0  0
  -22.1623   -4.2142   21.0938 F   0  0  0  0  0  0
  -21.5645   -3.4518   25.7708 F   0  0  0  0  0  0
  -29.8664  -14.0431   20.3084 N   0  0  0  0  0  0
  -26.2758  -12.9529   20.3250 N   0  0  0  0  0  0
  -25.9332  -11.6635   20.5696 N   0  0  0  0  0  0
  -22.0371  -12.8175   22.0543 N   0  0  0  0  0  0
  -25.4079  -15.1980   20.4198 N   0  0  0  0  0  0
  -31.6425  -15.3176   19.9736 O   0  0  0  0  0  0
  -21.6599   -6.8900   21.4266 O   0  0  0  0  0  0
  -22.3442  -14.5477   20.6842 O   0  0  0  0  0  0
  -24.6750  -31.8013   23.1553 C   0  0  0  0  0  0
  -25.9366  -32.4474   23.8067 C   0  0  1  0  0  0
  -27.2830  -26.8294   20.1504 C   0  0  0  0  0  0
  -25.5986  -33.8301   24.1953 N   0  0  0  0  0  0
  -23.5102  -30.3969   21.5005 C   0  0  2  0  0  0
  -24.9905  -28.7678   20.1048 C   0  0  0  0  0  0
  -22.7790  -29.4253   22.4666 C   0  0  0  0  0  0
  -18.0283  -28.1471   22.8395 C   0  0  0  0  0  0
  -24.1490  -36.7150   23.2638 C   0  0  0  0  0  0
  -26.0859  -30.5666   21.4192 C   0  0  0  0  0  0
  -26.1664  -29.1506   20.7535 C   0  0  0  0  0  0
  -27.2982  -28.1970   20.7560 C   0  0  0  0  0  0
  -26.0531  -26.6130   19.4892 C   0  0  0  0  0  0
  -24.9648  -27.5269   19.4492 C   0  0  0  0  0  0
  -23.7779  -29.6950   20.1361 C   0  0  0  0  0  0
  -25.4155  -36.2906   24.0244 C   0  0  1  0  0  0
  -20.5943  -28.3809   23.1158 C   0  0  2  0  0  0
  -20.6816  -26.9487   22.5406 C   0  0  0  0  0  0
  -19.5815  -26.6413   21.5204 C   0  0  0  0  0  0
  -18.1982  -26.7985   22.1586 C   0  0  0  0  0  0
  -19.1574  -28.8978   23.2738 C   0  0  0  0  0  0
  -18.9489  -30.1533   23.8811 C   0  0  0  0  0  0
  -17.6479  -30.6647   24.0571 C   0  0  0  0  0  0
  -25.9105  -34.9282   23.4912 C   0  0  0  0  0  0
  -16.5368  -29.9165   23.6381 C   0  0  0  0  0  0
  -16.7283  -28.6583   23.0343 C   0  0  0  0  0  0
  -26.4597  -31.6509   25.0651 C   0  0  0  0  0  0
  -25.3670  -31.3857   26.1260 C   0  0  0  0  0  0
  -27.0541  -30.2852   24.6562 C   0  0  0  0  0  0
  -27.6046  -32.4367   25.7475 C   0  0  0  0  0  0
  -27.5549  -37.1758   24.8467 C   0  0  0  0  0  0
  -21.4419  -29.3027   22.3463 N   0  0  0  0  0  0
  -26.4299  -37.3657   23.9349 N   0  0  0  0  0  0
  -24.7773  -30.9528   22.0767 N   0  0  0  0  0  0
  -23.4242  -28.7831   23.2995 O   0  0  0  0  0  0
  -28.2972  -25.6985   20.2388 O   0  0  0  0  0  0
  -26.5730  -34.8861   22.4510 O   0  0  0  0  0  0
  -23.5759  -32.0999   23.6539 O   0  0  0  0  0  0
  -29.2809  -17.8599   18.3891 C   0  0  0  0  0  0
  -27.6623  -19.4964   20.0638 C   0  0  0  0  0  0
  -29.6916  -18.1853   19.7048 C   0  0  0  0  0  0
  -29.0659  -19.6066   20.0943 C   0  0  0  0  0  0
  -27.9334  -18.1344   18.0478 C   0  0  0  0  0  0
  -27.1056  -18.8409   18.9482 C   0  0  0  0  0  0
  -28.7529  -22.5225   20.2801 C   0  0  0  0  0  0
  -30.3628  -21.4092   18.7132 C   0  0  0  0  0  0
  -28.4021  -24.1408   19.5714 C   0  0  0  0  0  0
  -29.7232  -16.6849   20.3925 N   0  0  0  0  0  0
  -29.3164  -21.2118   19.7380 N   0  0  0  0  0  0
  -28.4557  -22.4844   21.4783 O   0  0  0  0  0  0
  -27.4079  -17.6302   16.9058 F   0  0  0  0  0  0
  -25.7862  -18.9949   18.6812 F   0  0  0  0  0  0
  -31.4491  -13.0057   19.2508 H   0  0  0  0  0  0
  -30.4323  -11.9702   20.1935 H   0  0  0  0  0  0
  -29.9323  -11.7429   17.7314 H   0  0  0  0  0  0
  -29.5476  -13.4493   17.6453 H   0  0  0  0  0  0
  -28.0786  -11.2634   19.1396 H   0  0  0  0  0  0
  -27.4166  -12.2862   17.8806 H   0  0  0  0  0  0
  -27.4964  -14.2193   19.2819 H   0  0  0  0  0  0
  -28.7991  -12.6271   21.5287 H   0  0  0  0  0  0
  -28.2328  -14.2765   21.6476 H   0  0  0  0  0  0
  -25.2762   -9.5613   22.4701 H   0  0  0  0  0  0
  -23.9967   -7.4617   22.7468 H   0  0  0  0  0  0
  -21.0828   -8.8832   19.8934 H   0  0  0  0  0  0
  -22.3819  -10.9609   19.6098 H   0  0  0  0  0  0
  -21.2034   -7.6130   23.9717 H   0  0  0  0  0  0
  -21.1565   -6.0466   25.9058 H   0  0  0  0  0  0
  -22.0530   -2.7610   23.2759 H   0  0  0  0  0  0
  -22.3894  -11.9844   22.4991 H   0  0  0  0  0  0
  -21.0978  -13.1251   22.2674 H   0  0  0  0  0  0
  -24.6604  -15.8621   20.5805 H   0  0  0  0  0  0
  -26.2664  -15.6329   20.1132 H   0  0  0  0  0  0
  -26.7384  -32.5031   23.0736 H   0  0  0  0  0  0
  -25.0156  -33.9337   25.0124 H   0  0  0  0  0  0
  -22.8249  -31.2193   21.2941 H   0  0  0  0  0  0
  -23.3749  -35.9491   23.3342 H   0  0  0  0  0  0
  -24.3503  -36.8776   22.2043 H   0  0  0  0  0  0
  -23.7294  -37.6348   23.6693 H   0  0  0  0  0  0
  -26.2810  -31.2996   20.6377 H   0  0  0  0  0  0
  -26.9314  -30.6354   22.0896 H   0  0  0  0  0  0
  -28.1911  -28.4717   21.2981 H   0  0  0  0  0  0
  -25.8832  -25.6396   19.0492 H   0  0  0  0  0  0
  -24.0645  -27.2349   18.9298 H   0  0  0  0  0  0
  -23.9611  -30.4390   19.3640 H   0  0  0  0  0  0
  -22.9018  -29.1364   19.8114 H   0  0  0  0  0  0
  -25.1388  -36.1654   25.0738 H   0  0  0  0  0  0
  -20.9901  -28.3442   24.1331 H   0  0  0  0  0  0
  -20.5765  -26.2387   23.3628 H   0  0  0  0  0  0
  -21.6691  -26.7541   22.1188 H   0  0  0  0  0  0
  -19.7014  -25.6311   21.1308 H   0  0  0  0  0  0
  -19.6834  -27.3164   20.6697 H   0  0  0  0  0  0
  -17.4258  -26.6620   21.3995 H   0  0  0  0  0  0
  -18.0424  -26.0179   22.9042 H   0  0  0  0  0  0
  -19.7962  -30.7342   24.2189 H   0  0  0  0  0  0
  -17.5067  -31.6328   24.5180 H   0  0  0  0  0  0
  -15.5389  -30.3067   23.7785 H   0  0  0  0  0  0
  -15.8628  -28.0936   22.7116 H   0  0  0  0  0  0
  -24.5824  -30.7250   25.7536 H   0  0  0  0  0  0
  -24.8914  -32.3121   26.4515 H   0  0  0  0  0  0
  -25.7830  -30.9104   27.0158 H   0  0  0  0  0  0
  -26.3277  -29.6424   24.1595 H   0  0  0  0  0  0
  -27.3978  -29.7344   25.5326 H   0  0  0  0  0  0
  -27.9244  -30.3917   24.0087 H   0  0  0  0  0  0
  -27.2568  -33.3697   26.1931 H   0  0  0  0  0  0
  -28.3970  -32.6900   25.0406 H   0  0  0  0  0  0
  -28.0610  -31.8598   26.5528 H   0  0  0  0  0  0
  -28.2614  -38.0012   24.7429 H   0  0  0  0  0  0
  -28.1018  -36.2528   24.6460 H   0  0  0  0  0  0
  -27.2215  -37.1593   25.8865 H   0  0  0  0  0  0
  -20.9727  -29.8687   21.6549 H   0  0  0  0  0  0
  -26.0117  -38.2682   24.1418 H   0  0  0  0  0  0
  -29.7448  -17.0633   17.8181 H   0  0  0  0  0  0
  -27.0396  -20.2505   20.5205 H   0  0  0  0  0  0
  -31.2486  -20.8416   18.9984 H   0  0  0  0  0  0
  -30.6939  -22.4444   18.6051 H   0  0  0  0  0  0
  -30.0595  -21.0591   17.7238 H   0  0  0  0  0  0
  -29.1094  -24.2396   18.7434 H   0  0  0  0  0  0
  -27.4566  -23.9964   19.0519 H   0  0  0  0  0  0
  -28.8986  -16.5403   20.9517 H   0  0  0  0  0  0
  1 25  1  0  0  0
  1 30  2  0  0  0
  1 80  1  0  0  0
  2  3  1  0  0  0
  2 25  1  0  0  0
  2 85  1  0  0  0
  2 86  1  0  0  0
  3  4  1  0  0  0
  3 87  1  0  0  0
  3 88  1  0  0  0
  4  5  1  0  0  0
  4 89  1  0  0  0
  4 90  1  0  0  0
  5  6  1  0  0  0
  5 26  1  0  0  0
  5 91  1  0  0  0
  6 25  1  0  0  0
  6 92  1  0  0  0
  6 93  1  0  0  0
  7  8  2  0  0  0
  7 26  1  0  0  0
  7 29  1  0  0  0
  8  9  1  0  0  0
  8 22  1  0  0  0
  9 10  1  0  0  0
  9 27  2  0  0  0
 10 11  2  0  0  0
 10 15  1  0  0  0
 11 12  1  0  0  0
 11 94  1  0  0  0
 12 13  2  0  0  0
 12 95  1  0  0  0
 13 14  1  0  0  0
 13 31  1  0  0  0
 14 15  2  0  0  0
 14 96  1  0  0  0
 15 97  1  0  0  0
 16 17  2  0  0  0
 16 21  1  0  0  0
 16 31  1  0  0  0
 17 18  1  0  0  0
 17 98  1  0  0  0
 18 19  2  0  0  0
 18 99  1  0  0  0
 19 20  1  0  0  0
 19 24  1  0  0  0
 20 21  2  0  0  0
 20100  1  0  0  0
 21 23  1  0  0  0
 22 28  1  0  0  0
 22 32  2  0  0  0
 26 27  1  0  0  0
 28101  1  0  0  0
 28102  1  0  0  0
 29103  1  0  0  0
 29104  1  0  0  0
 33 34  1  0  0  0
 33 66  1  0  0  0
 33 70  2  0  0  0
 34 36  1  0  0  0
 34 59  1  0  0  0
 34105  1  0  0  0
 35 44  2  0  0  0
 35 45  1  0  0  0
 35 68  1  0  0  0
 36 56  1  0  0  0
 36106  1  0  0  0
 37 39  1  0  0  0
 37 47  1  0  0  0
 37 66  1  0  0  0
 37107  1  0  0  0
 38 43  2  0  0  0
 38 46  1  0  0  0
 38 47  1  0  0  0
 39 64  1  0  0  0
 39 67  2  0  0  0
 40 52  1  0  0  0
 40 53  2  0  0  0
 40 58  1  0  0  0
 41108  1  0  0  0
 41109  1  0  0  0
 41110  1  0  0  0
 41 48  1  0  0  0
 42 43  1  0  0  0
 42 66  1  0  0  0
 42111  1  0  0  0
 42112  1  0  0  0
 43 44  1  0  0  0
 44113  1  0  0  0
 45 46  2  0  0  0
 45114  1  0  0  0
 46115  1  0  0  0
 47116  1  0  0  0
 47117  1  0  0  0
 48 56  1  0  0  0
 48 65  1  0  0  0
 48118  1  0  0  0
 49 50  1  0  0  0
 49 53  1  0  0  0
 49 64  1  0  0  0
 49119  1  0  0  0
 50 51  1  0  0  0
 50120  1  0  0  0
 50121  1  0  0  0
 51 52  1  0  0  0
 51122  1  0  0  0
 51123  1  0  0  0
 52124  1  0  0  0
 52125  1  0  0  0
 53 54  1  0  0  0
 54 55  2  0  0  0
 54126  1  0  0  0
 55 57  1  0  0  0
 55127  1  0  0  0
 56 69  2  0  0  0
 57 58  2  0  0  0
 57128  1  0  0  0
 58129  1  0  0  0
 59 60  1  0  0  0
 59 61  1  0  0  0
 59 62  1  0  0  0
 60130  1  0  0  0
 60131  1  0  0  0
 60132  1  0  0  0
 61133  1  0  0  0
 61134  1  0  0  0
 61135  1  0  0  0
 62136  1  0  0  0
 62137  1  0  0  0
 62138  1  0  0  0
 63 65  1  0  0  0
 63139  1  0  0  0
 63140  1  0  0  0
 63141  1  0  0  0
 64142  1  0  0  0
 65143  1  0  0  0
 68 79  1  0  0  0
 71 73  2  0  0  0
 71 75  1  0  0  0
 71144  1  0  0  0
 72 74  2  0  0  0
 72 76  1  0  0  0
 72145  1  0  0  0
 73 74  1  0  0  0
 73 80  1  0  0  0
 74 81  1  0  0  0
 75 76  2  0  0  0
 75 83  1  0  0  0
 76 84  1  0  0  0
 77 79  1  0  0  0
 77 81  1  0  0  0
 77 82  2  0  0  0
 78 81  1  0  0  0
 78146  1  0  0  0
 78147  1  0  0  0
 78148  1  0  0  0
 79149  1  0  0  0
 79150  1  0  0  0
 80151  1  0  0  0
M  ISO  4   1 100  68 101  79 101  80 100
M  END
> <chiral flag>
0

> <version>
0

> <s_m_source_file>
/data/baiqing/PycharmProjects/Reinvent-master-3.2/result/LINK_invent/BTK/process_docking_weight1_custom_sum_contain_oxygen_bond_distance_aromatic_linkinvent_7_9_3/rearranged_h_0010.sdf

> <i_m_source_file_index>
67

> <r_mmod_Potential_Energy-OPLS-2005>
2030.94067382812

> <r_mmod_Stretch_Energy-OPLS-2005>
772.157592773438

> <r_mmod_Bend_Energy-OPLS-2005>
542.291931152344

> <r_mmod_Torsional_Energy-OPLS-2005>
512.925170898438

> <r_mmod_Improper_Torsional_Energy-OPLS-2005>
42.3246269226074

> <r_mmod_Van_der_Waal_Energy-OPLS-2005>
125.711380004883

> <r_mmod_Electrostatic_Energy-OPLS-2005>
-328.966156005859

> <r_mmod_Solvation_Energy-OPLS-2005>
-231.77392578125

> <b_mmod_Minimization_Converged-OPLS-2005>
0

> <r_mmod_RMS_Derivative-OPLS-2005>
10.4381465911865

$$$$
67
                    3D
 Structure written by MMmdl.
152160  0  0  1  0            999 V2000
  -30.5245  -14.8946   20.4330 C   0  0  0  0  0  0
  -30.4517  -12.5471   19.4968 C   0  0  0  0  0  0
  -29.5266  -12.5221   18.2563 C   0  0  0  0  0  0
  -28.0571  -12.3123   18.6707 C   0  0  0  0  0  0
  -27.6390  -13.2339   19.8456 C   0  0  2  0  0  0
  -28.6808  -13.2179   20.9860 C   0  0  0  0  0  0
  -25.2507  -13.8191   20.5695 C   0  0  0  0  0  0
  -24.1800  -13.0439   20.9210 C   0  0  0  0  0  0
  -24.6391  -11.6920   20.8752 C   0  0  0  0  0  0
  -23.9066  -10.4297   21.0421 C   0  0  0  0  0  0
  -24.3616   -9.4208   21.9199 C   0  0  0  0  0  0
  -23.6290   -8.2240   22.0759 C   0  0  0  0  0  0
  -22.4274   -8.0278   21.3545 C   0  0  0  0  0  0
  -21.9910   -9.0255   20.4649 C   0  0  0  0  0  0
  -22.7239  -10.2138   20.3065 C   0  0  0  0  0  0
  -21.6852   -6.0735   22.5277 C   0  0  0  0  0  0
  -21.4017   -6.5639   23.8212 C   0  0  0  0  0  0
  -21.3661   -5.6791   24.9174 C   0  0  0  0  0  0
  -21.6042   -4.3052   24.7227 C   0  0  0  0  0  0
  -21.8815   -3.8144   23.4347 C   0  0  0  0  0  0
  -21.9193   -4.6962   22.3404 C   0  0  0  0  0  0
  -22.7820  -13.5228   21.1858 C   0  0  0  0  0  0
  -22.1659   -4.2146   21.0982 F   0  0  0  0  0  0
  -21.5626   -3.4536   25.7742 F   0  0  0  0  0  0
  -29.9700  -13.6211   20.4042 N   0  0  0  0  0  0
  -26.2924  -12.9394   20.3247 N   0  0  0  0  0  0
  -25.9321  -11.6540   20.5744 N   0  0  0  0  0  0
  -22.0464  -12.8230   22.0421 N   0  0  0  0  0  0
  -25.4188  -15.1919   20.4113 N   0  0  0  0  0  0
  -31.7135  -15.0284   20.1202 O   0  0  0  0  0  0
  -21.6633   -6.8877   21.4240 O   0  0  0  0  0  0
  -22.3513  -14.5536   20.6705 O   0  0  0  0  0  0
  -24.6413  -31.8455   23.1903 C   0  0  0  0  0  0
  -25.9201  -32.4701   23.8276 C   0  0  1  0  0  0
  -27.2193  -27.1605   20.1446 C   0  0  0  0  0  0
  -25.5963  -33.8508   24.2200 N   0  0  0  0  0  0
  -23.4434  -30.4660   21.5359 C   0  0  2  0  0  0
  -24.8934  -28.8982   20.1102 C   0  0  0  0  0  0
  -22.7562  -29.4550   22.4869 C   0  0  0  0  0  0
  -18.0300  -28.1396   22.8473 C   0  0  0  0  0  0
  -24.1496  -36.7260   23.2635 C   0  0  0  0  0  0
  -25.9980  -30.7263   21.3867 C   0  0  0  0  0  0
  -26.0695  -29.3400   20.7286 C   0  0  0  0  0  0
  -27.2336  -28.4866   20.7303 C   0  0  0  0  0  0
  -26.0169  -26.8173   19.4852 C   0  0  0  0  0  0
  -24.8785  -27.6492   19.4734 C   0  0  0  0  0  0
  -23.6689  -29.7972   20.1541 C   0  0  0  0  0  0
  -25.4125  -36.3033   24.0308 C   0  0  1  0  0  0
  -20.5913  -28.3719   23.1255 C   0  0  2  0  0  0
  -20.6787  -26.9432   22.5394 C   0  0  0  0  0  0
  -19.5770  -26.6401   21.5200 C   0  0  0  0  0  0
  -18.1951  -26.7934   22.1618 C   0  0  0  0  0  0
  -19.1557  -28.8875   23.2857 C   0  0  0  0  0  0
  -18.9471  -30.1470   23.8879 C   0  0  0  0  0  0
  -17.6470  -30.6588   24.0561 C   0  0  0  0  0  0
  -25.9072  -34.9410   23.5057 C   0  0  0  0  0  0
  -16.5361  -29.9081   23.6338 C   0  0  0  0  0  0
  -16.7288  -28.6504   23.0350 C   0  0  0  0  0  0
  -26.4536  -31.6555   25.0702 C   0  0  0  0  0  0
  -25.3733  -31.3735   26.1403 C   0  0  0  0  0  0
  -27.0400  -30.2955   24.6260 C   0  0  0  0  0  0
  -27.6066  -32.4317   25.7487 C   0  0  0  0  0  0
  -27.5577  -37.1788   24.8463 C   0  0  0  0  0  0
  -21.4252  -29.3057   22.3634 N   0  0  0  0  0  0
  -26.4291  -37.3741   23.9403 N   0  0  0  0  0  0
  -24.7140  -31.0331   22.0930 N   0  0  0  0  0  0
  -23.4217  -28.8084   23.2997 O   0  0  0  0  0  0
  -28.2758  -26.1859   20.2196 O   0  0  0  0  0  0
  -26.5646  -34.8908   22.4628 O   0  0  0  0  0  0
  -23.5539  -32.1314   23.7144 O   0  0  0  0  0  0
  -28.5684  -18.0450   19.5958 C   0  0  0  0  0  0
  -30.3138  -18.5373   21.0971 C   0  0  0  0  0  0
  -29.5997  -17.4906   20.4116 C   0  0  0  0  0  0
  -28.8994  -20.5038   20.2357 C   0  0  0  0  0  0
  -28.2476  -19.4494   19.4979 C   0  0  0  0  0  0
  -29.9897  -19.9632   21.0144 C   0  0  0  0  0  0
  -26.9205  -21.8517   20.5968 C   0  0  0  0  0  0
  -28.9220  -23.3294   20.4060 C   0  0  0  0  0  0
  -27.9753  -24.6773   20.0462 C   0  0  0  0  0  0
  -29.6551  -15.9832   20.6535 N   0  0  0  0  0  0
  -28.3403  -21.8959   20.2363 N   0  0  0  0  0  0
  -27.2205  -19.7770   18.6736 F   0  0  0  0  0  0
  -30.7185  -20.8197   21.7728 F   0  0  0  0  0  0
  -31.4864  -12.7106   19.1910 H   0  0  0  0  0  0
  -30.4390  -11.5840   20.0099 H   0  0  0  0  0  0
  -29.8373  -11.7339   17.5685 H   0  0  0  0  0  0
  -29.6225  -13.4615   17.7094 H   0  0  0  0  0  0
  -27.9480  -11.2685   18.9683 H   0  0  0  0  0  0
  -27.3943  -12.4566   17.8165 H   0  0  0  0  0  0
  -27.6155  -14.2424   19.4326 H   0  0  0  0  0  0
  -28.7507  -12.2287   21.4412 H   0  0  0  0  0  0
  -28.3833  -13.8991   21.7855 H   0  0  0  0  0  0
  -25.2763   -9.5679   22.4775 H   0  0  0  0  0  0
  -23.9988   -7.4631   22.7486 H   0  0  0  0  0  0
  -21.0833   -8.8784   19.8964 H   0  0  0  0  0  0
  -22.3702  -10.9676   19.6172 H   0  0  0  0  0  0
  -21.2020   -7.6150   23.9717 H   0  0  0  0  0  0
  -21.1480   -6.0522   25.9075 H   0  0  0  0  0  0
  -22.0596   -2.7605   23.2851 H   0  0  0  0  0  0
  -22.4060  -11.9886   22.4817 H   0  0  0  0  0  0
  -21.1091  -13.1278   22.2640 H   0  0  0  0  0  0
  -24.6463  -15.8408   20.5156 H   0  0  0  0  0  0
  -26.2515  -15.6292   20.0423 H   0  0  0  0  0  0
  -26.7252  -32.5314   23.0993 H   0  0  0  0  0  0
  -25.0125  -33.9627   25.0358 H   0  0  0  0  0  0
  -22.7438  -31.2909   21.3850 H   0  0  0  0  0  0
  -23.3760  -35.9591   23.3283 H   0  0  0  0  0  0
  -24.3581  -36.8906   22.2053 H   0  0  0  0  0  0
  -23.7263  -37.6456   23.6679 H   0  0  0  0  0  0
  -26.1505  -31.4814   20.6147 H   0  0  0  0  0  0
  -26.8702  -30.7751   22.0270 H   0  0  0  0  0  0
  -28.1291  -28.8185   21.2367 H   0  0  0  0  0  0
  -25.9187  -25.8645   18.9877 H   0  0  0  0  0  0
  -23.9819  -27.3085   18.9755 H   0  0  0  0  0  0
  -23.8068  -30.5736   19.4008 H   0  0  0  0  0  0
  -22.7848  -29.2389   19.8412 H   0  0  0  0  0  0
  -25.1321  -36.1850   25.0800 H   0  0  0  0  0  0
  -20.9997  -28.3286   24.1382 H   0  0  0  0  0  0
  -20.5693  -26.2314   23.3591 H   0  0  0  0  0  0
  -21.6647  -26.7454   22.1172 H   0  0  0  0  0  0
  -19.6934  -25.6314   21.1229 H   0  0  0  0  0  0
  -19.6712  -27.3212   20.6729 H   0  0  0  0  0  0
  -17.4213  -26.6665   21.4030 H   0  0  0  0  0  0
  -18.0368  -26.0078   22.9025 H   0  0  0  0  0  0
  -19.7947  -30.7294   24.2241 H   0  0  0  0  0  0
  -17.5027  -31.6264   24.5179 H   0  0  0  0  0  0
  -15.5363  -30.2979   23.7680 H   0  0  0  0  0  0
  -15.8687  -28.0820   22.7075 H   0  0  0  0  0  0
  -24.5910  -30.7087   25.7722 H   0  0  0  0  0  0
  -24.8932  -32.2918   26.4792 H   0  0  0  0  0  0
  -25.8029  -30.8929   27.0202 H   0  0  0  0  0  0
  -26.3006  -29.6673   24.1279 H   0  0  0  0  0  0
  -27.4039  -29.7253   25.4817 H   0  0  0  0  0  0
  -27.8906  -30.4197   23.9553 H   0  0  0  0  0  0
  -27.2653  -33.3623   26.2034 H   0  0  0  0  0  0
  -28.3899  -32.6868   25.0335 H   0  0  0  0  0  0
  -28.0710  -31.8463   26.5434 H   0  0  0  0  0  0
  -28.2587  -38.0091   24.7508 H   0  0  0  0  0  0
  -28.1085  -36.2624   24.6295 H   0  0  0  0  0  0
  -27.2291  -37.1439   25.8864 H   0  0  0  0  0  0
  -20.9453  -29.8795   21.6841 H   0  0  0  0  0  0
  -26.0155  -38.2806   24.1414 H   0  0  0  0  0  0
  -27.9452  -17.3662   19.0332 H   0  0  0  0  0  0
  -31.1018  -18.2485   21.7765 H   0  0  0  0  0  0
  -26.5517  -20.8544   20.8398 H   0  0  0  0  0  0
  -26.3089  -22.2352   19.7782 H   0  0  0  0  0  0
  -26.7294  -22.4643   21.4796 H   0  0  0  0  0  0
  -29.2477  -23.4203   21.4433 H   0  0  0  0  0  0
  -29.8347  -23.3865   19.8118 H   0  0  0  0  0  0
  -27.0498  -24.5350   20.6028 H   0  0  0  0  0  0
  -27.7033  -24.5590   18.9977 H   0  0  0  0  0  0
  -28.7412  -15.6094   20.8592 H   0  0  0  0  0  0
  1 25  1  0  0  0
  1 30  2  0  0  0
  1 80  1  0  0  0
  2  3  1  0  0  0
  2 25  1  0  0  0
  2 84  1  0  0  0
  2 85  1  0  0  0
  3  4  1  0  0  0
  3 86  1  0  0  0
  3 87  1  0  0  0
  4  5  1  0  0  0
  4 88  1  0  0  0
  4 89  1  0  0  0
  5  6  1  0  0  0
  5 26  1  0  0  0
  5 90  1  0  0  0
  6 25  1  0  0  0
  6 91  1  0  0  0
  6 92  1  0  0  0
  7  8  2  0  0  0
  7 26  1  0  0  0
  7 29  1  0  0  0
  8  9  1  0  0  0
  8 22  1  0  0  0
  9 10  1  0  0  0
  9 27  2  0  0  0
 10 11  2  0  0  0
 10 15  1  0  0  0
 11 12  1  0  0  0
 11 93  1  0  0  0
 12 13  2  0  0  0
 12 94  1  0  0  0
 13 14  1  0  0  0
 13 31  1  0  0  0
 14 15  2  0  0  0
 14 95  1  0  0  0
 15 96  1  0  0  0
 16 17  2  0  0  0
 16 21  1  0  0  0
 16 31  1  0  0  0
 17 18  1  0  0  0
 17 97  1  0  0  0
 18 19  2  0  0  0
 18 98  1  0  0  0
 19 20  1  0  0  0
 19 24  1  0  0  0
 20 21  2  0  0  0
 20 99  1  0  0  0
 21 23  1  0  0  0
 22 28  1  0  0  0
 22 32  2  0  0  0
 26 27  1  0  0  0
 28100  1  0  0  0
 28101  1  0  0  0
 29102  1  0  0  0
 29103  1  0  0  0
 33 34  1  0  0  0
 33 66  1  0  0  0
 33 70  2  0  0  0
 34 36  1  0  0  0
 34 59  1  0  0  0
 34104  1  0  0  0
 35 44  2  0  0  0
 35 45  1  0  0  0
 35 68  1  0  0  0
 36 56  1  0  0  0
 36105  1  0  0  0
 37 39  1  0  0  0
 37 47  1  0  0  0
 37 66  1  0  0  0
 37106  1  0  0  0
 38 43  2  0  0  0
 38 46  1  0  0  0
 38 47  1  0  0  0
 39 64  1  0  0  0
 39 67  2  0  0  0
 40 52  1  0  0  0
 40 53  2  0  0  0
 40 58  1  0  0  0
 41107  1  0  0  0
 41108  1  0  0  0
 41109  1  0  0  0
 41 48  1  0  0  0
 42 43  1  0  0  0
 42 66  1  0  0  0
 42110  1  0  0  0
 42111  1  0  0  0
 43 44  1  0  0  0
 44112  1  0  0  0
 45 46  2  0  0  0
 45113  1  0  0  0
 46114  1  0  0  0
 47115  1  0  0  0
 47116  1  0  0  0
 48 56  1  0  0  0
 48 65  1  0  0  0
 48117  1  0  0  0
 49 50  1  0  0  0
 49 53  1  0  0  0
 49 64  1  0  0  0
 49118  1  0  0  0
 50 51  1  0  0  0
 50119  1  0  0  0
 50120  1  0  0  0
 51 52  1  0  0  0
 51121  1  0  0  0
 51122  1  0  0  0
 52123  1  0  0  0
 52124  1  0  0  0
 53 54  1  0  0  0
 54 55  2  0  0  0
 54125  1  0  0  0
 55 57  1  0  0  0
 55126  1  0  0  0
 56 69  2  0  0  0
 57 58  2  0  0  0
 57127  1  0  0  0
 58128  1  0  0  0
 59 60  1  0  0  0
 59 61  1  0  0  0
 59 62  1  0  0  0
 60129  1  0  0  0
 60130  1  0  0  0
 60131  1  0  0  0
 61132  1  0  0  0
 61133  1  0  0  0
 61134  1  0  0  0
 62135  1  0  0  0
 62136  1  0  0  0
 62137  1  0  0  0
 63 65  1  0  0  0
 63138  1  0  0  0
 63139  1  0  0  0
 63140  1  0  0  0
 64141  1  0  0  0
 65142  1  0  0  0
 68 79  1  0  0  0
 71 73  2  0  0  0
 71 75  1  0  0  0
 71143  1  0  0  0
 72 73  1  0  0  0
 72 76  2  0  0  0
 72144  1  0  0  0
 73 80  1  0  0  0
 74 75  2  0  0  0
 74 76  1  0  0  0
 74 81  1  0  0  0
 75 82  1  0  0  0
 76 83  1  0  0  0
 77 81  1  0  0  0
 77145  1  0  0  0
 77146  1  0  0  0
 77147  1  0  0  0
 78 79  1  0  0  0
 78 81  1  0  0  0
 78148  1  0  0  0
 78149  1  0  0  0
 79150  1  0  0  0
 79151  1  0  0  0
 80152  1  0  0  0
M  ISO  4   1 100  68 101  79 101  80 100
M  END
> <chiral flag>
0

> <version>
0

> <s_m_source_file>
/data/baiqing/PycharmProjects/Reinvent-master-3.2/result/LINK_invent/BTK/process_docking_weight1_custom_sum_contain_oxygen_bond_distance_aromatic_linkinvent_7_9_3/rearranged_h_0010.sdf

> <i_m_source_file_index>
68

> <r_mmod_Potential_Energy-OPLS-2005>
558.98681640625

> <r_mmod_Stretch_Energy-OPLS-2005>
211.742034912109

> <r_mmod_Bend_Energy-OPLS-2005>
263.417236328125

> <r_mmod_Torsional_Energy-OPLS-2005>
248.606018066406

> <r_mmod_Improper_Torsional_Energy-OPLS-2005>
8.34066486358643

> <r_mmod_Van_der_Waal_Energy-OPLS-2005>
140.711380004883

> <r_mmod_Electrostatic_Energy-OPLS-2005>
-254.058441162109

> <r_mmod_Solvation_Energy-OPLS-2005>
-225.473663330078

> <b_mmod_Minimization_Converged-OPLS-2005>
0

> <r_mmod_RMS_Derivative-OPLS-2005>
1.21564936637878

$$$$
68
                    3D
 Structure written by MMmdl.
154162  0  0  1  0            999 V2000
  -30.4846  -15.0814   20.3842 C   0  0  0  0  0  0
  -30.4409  -12.6683   19.5377 C   0  0  0  0  0  0
  -29.5358  -12.5565   18.2865 C   0  0  0  0  0  0
  -28.0722  -12.3189   18.6975 C   0  0  0  0  0  0
  -27.6272  -13.2633   19.8434 C   0  0  2  0  0  0
  -28.6609  -13.3399   20.9893 C   0  0  0  0  0  0
  -25.2444  -13.8246   20.5742 C   0  0  0  0  0  0
  -24.1766  -13.0451   20.9233 C   0  0  0  0  0  0
  -24.6403  -11.6940   20.8754 C   0  0  0  0  0  0
  -23.9088  -10.4301   21.0405 C   0  0  0  0  0  0
  -24.3630   -9.4213   21.9186 C   0  0  0  0  0  0
  -23.6297   -8.2253   22.0755 C   0  0  0  0  0  0
  -22.4279   -8.0294   21.3548 C   0  0  0  0  0  0
  -21.9919   -9.0268   20.4652 C   0  0  0  0  0  0
  -22.7256  -10.2142   20.3058 C   0  0  0  0  0  0
  -21.6862   -6.0743   22.5284 C   0  0  0  0  0  0
  -21.4019   -6.5644   23.8218 C   0  0  0  0  0  0
  -21.3654   -5.6795   24.9178 C   0  0  0  0  0  0
  -21.6041   -4.3059   24.7227 C   0  0  0  0  0  0
  -21.8815   -3.8151   23.4348 C   0  0  0  0  0  0
  -21.9193   -4.6968   22.3406 C   0  0  0  0  0  0
  -22.7783  -13.5216   21.1881 C   0  0  0  0  0  0
  -22.1662   -4.2154   21.0981 F   0  0  0  0  0  0
  -21.5621   -3.4540   25.7737 F   0  0  0  0  0  0
  -29.9308  -13.7864   20.4002 N   0  0  0  0  0  0
  -26.2875  -12.9502   20.3264 N   0  0  0  0  0  0
  -25.9343  -11.6616   20.5741 N   0  0  0  0  0  0
  -22.0430  -12.8208   22.0437 N   0  0  0  0  0  0
  -25.4112  -15.1981   20.4205 N   0  0  0  0  0  0
  -31.6652  -15.1391   20.0162 O   0  0  0  0  0  0
  -21.6645   -6.8889   21.4248 O   0  0  0  0  0  0
  -22.3465  -14.5518   20.6717 O   0  0  0  0  0  0
  -24.6501  -31.8327   23.1781 C   0  0  0  0  0  0
  -25.9236  -32.4631   23.8208 C   0  0  1  0  0  0
  -27.2265  -27.0482   20.1606 C   0  0  0  0  0  0
  -25.5950  -33.8443   24.2115 N   0  0  0  0  0  0
  -23.4601  -30.4452   21.5229 C   0  0  2  0  0  0
  -24.9146  -28.8531   20.0990 C   0  0  0  0  0  0
  -22.7610  -29.4471   22.4806 C   0  0  0  0  0  0
  -18.0313  -28.1403   22.8471 C   0  0  0  0  0  0
  -24.1491  -36.7234   23.2646 C   0  0  0  0  0  0
  -26.0188  -30.6760   21.3912 C   0  0  0  0  0  0
  -26.0879  -29.2785   20.7322 C   0  0  0  0  0  0
  -27.2345  -28.3883   20.7513 C   0  0  0  0  0  0
  -26.0338  -26.7428   19.4721 C   0  0  0  0  0  0
  -24.9054  -27.6032   19.4524 C   0  0  0  0  0  0
  -23.6921  -29.7639   20.1445 C   0  0  0  0  0  0
  -25.4128  -36.2995   24.0303 C   0  0  1  0  0  0
  -20.5928  -28.3729   23.1217 C   0  0  2  0  0  0
  -20.6789  -26.9419   22.5410 C   0  0  0  0  0  0
  -19.5767  -26.6375   21.5216 C   0  0  0  0  0  0
  -18.1948  -26.7940   22.1622 C   0  0  0  0  0  0
  -19.1572  -28.8887   23.2833 C   0  0  0  0  0  0
  -18.9485  -30.1482   23.8861 C   0  0  0  0  0  0
  -17.6478  -30.6592   24.0557 C   0  0  0  0  0  0
  -25.9081  -34.9373   23.5027 C   0  0  0  0  0  0
  -16.5370  -29.9083   23.6340 C   0  0  0  0  0  0
  -16.7295  -28.6505   23.0355 C   0  0  0  0  0  0
  -26.4530  -31.6552   25.0703 C   0  0  0  0  0  0
  -25.3687  -31.3783   26.1383 C   0  0  0  0  0  0
  -27.0412  -30.2933   24.6368 C   0  0  0  0  0  0
  -27.6040  -32.4346   25.7498 C   0  0  0  0  0  0
  -27.5569  -37.1773   24.8461 C   0  0  0  0  0  0
  -21.4288  -29.3030   22.3566 N   0  0  0  0  0  0
  -26.4284  -37.3717   23.9400 N   0  0  0  0  0  0
  -24.7296  -31.0095   22.0852 N   0  0  0  0  0  0
  -23.4211  -28.8040   23.3005 O   0  0  0  0  0  0
  -28.2548  -26.0276   20.3453 O   0  0  0  0  0  0
  -26.5688  -34.8891   22.4617 O   0  0  0  0  0  0
  -23.5601  -32.1244   23.6950 O   0  0  0  0  0  0
  -29.1001  -17.6773   18.7347 C   0  0  0  0  0  0
  -28.5851  -20.1165   18.6435 C   0  0  0  0  0  0
  -29.4700  -19.1049   20.6588 C   0  0  0  0  0  0
  -28.6444  -18.8313   18.0464 C   0  0  0  0  0  0
  -29.5177  -17.7015   20.0823 C   0  0  0  0  0  0
  -29.0167  -20.3767   19.9622 C   0  0  0  0  0  0
  -28.1859  -23.0275   20.1577 C   0  0  0  0  0  0
  -28.2100  -18.6953   16.5991 C   0  0  0  0  0  0
  -30.3871  -22.2955   20.9185 C   0  0  0  0  0  0
  -28.5132  -24.6206   19.6425 C   0  0  0  0  0  0
  -29.7466  -16.2832   20.7186 N   0  0  0  0  0  0
  -29.1051  -21.9080   20.3374 N   0  0  0  0  0  0
  -26.9857  -22.7903   20.3258 O   0  0  0  0  0  0
  -31.4745  -12.8293   19.2292 H   0  0  0  0  0  0
  -30.4487  -11.7292   20.0931 H   0  0  0  0  0  0
  -29.8792  -11.7498   17.6380 H   0  0  0  0  0  0
  -29.6090  -13.4739   17.7004 H   0  0  0  0  0  0
  -27.9884  -11.2815   19.0236 H   0  0  0  0  0  0
  -27.4113  -12.4224   17.8368 H   0  0  0  0  0  0
  -27.5759  -14.2556   19.3938 H   0  0  0  0  0  0
  -28.7721  -12.3748   21.4857 H   0  0  0  0  0  0
  -28.3315  -14.0443   21.7544 H   0  0  0  0  0  0
  -25.2770   -9.5687   22.4769 H   0  0  0  0  0  0
  -24.0004   -7.4642   22.7472 H   0  0  0  0  0  0
  -21.0849   -8.8791   19.8960 H   0  0  0  0  0  0
  -22.3714  -10.9683   19.6170 H   0  0  0  0  0  0
  -21.2019   -7.6151   23.9721 H   0  0  0  0  0  0
  -21.1479   -6.0527   25.9081 H   0  0  0  0  0  0
  -22.0595   -2.7613   23.2848 H   0  0  0  0  0  0
  -22.4045  -11.9886   22.4853 H   0  0  0  0  0  0
  -21.1043  -13.1229   22.2624 H   0  0  0  0  0  0
  -24.6437  -15.8504   20.5387 H   0  0  0  0  0  0
  -26.2585  -15.6422   20.0902 H   0  0  0  0  0  0
  -26.7302  -32.5199   23.0927 H   0  0  0  0  0  0
  -25.0048  -33.9535   25.0233 H   0  0  0  0  0  0
  -22.7666  -31.2727   21.3597 H   0  0  0  0  0  0
  -23.3754  -35.9564   23.3289 H   0  0  0  0  0  0
  -24.3568  -36.8896   22.2064 H   0  0  0  0  0  0
  -23.7250  -37.6422   23.6708 H   0  0  0  0  0  0
  -26.1864  -31.4252   20.6163 H   0  0  0  0  0  0
  -26.8841  -30.7283   22.0404 H   0  0  0  0  0  0
  -28.1182  -28.6999   21.2903 H   0  0  0  0  0  0
  -25.9351  -25.7752   19.0015 H   0  0  0  0  0  0
  -24.0084  -27.2722   18.9470 H   0  0  0  0  0  0
  -23.8307  -30.5347   19.3856 H   0  0  0  0  0  0
  -22.8059  -29.2074   19.8346 H   0  0  0  0  0  0
  -25.1323  -36.1804   25.0795 H   0  0  0  0  0  0
  -21.0021  -28.3334   24.1339 H   0  0  0  0  0  0
  -20.5672  -26.2342   23.3638 H   0  0  0  0  0  0
  -21.6652  -26.7404   22.1215 H   0  0  0  0  0  0
  -19.6920  -25.6276   21.1271 H   0  0  0  0  0  0
  -19.6713  -27.3163   20.6730 H   0  0  0  0  0  0
  -17.4215  -26.6684   21.4028 H   0  0  0  0  0  0
  -18.0341  -26.0093   22.9028 H   0  0  0  0  0  0
  -19.7956  -30.7312   24.2214 H   0  0  0  0  0  0
  -17.5026  -31.6267   24.5166 H   0  0  0  0  0  0
  -15.5367  -30.2970   23.7681 H   0  0  0  0  0  0
  -15.8699  -28.0811   22.7086 H   0  0  0  0  0  0
  -24.5868  -30.7129   25.7702 H   0  0  0  0  0  0
  -24.8878  -32.2983   26.4720 H   0  0  0  0  0  0
  -25.7943  -30.9012   27.0219 H   0  0  0  0  0  0
  -26.3052  -29.6633   24.1361 H   0  0  0  0  0  0
  -27.3962  -29.7269   25.4988 H   0  0  0  0  0  0
  -27.8985  -30.4139   23.9742 H   0  0  0  0  0  0
  -27.2613  -33.3671   26.1992 H   0  0  0  0  0  0
  -28.3896  -32.6870   25.0364 H   0  0  0  0  0  0
  -28.0657  -31.8534   26.5489 H   0  0  0  0  0  0
  -28.2576  -38.0079   24.7495 H   0  0  0  0  0  0
  -28.1079  -36.2604   24.6304 H   0  0  0  0  0  0
  -27.2283  -37.1431   25.8864 H   0  0  0  0  0  0
  -20.9518  -29.8725   21.6717 H   0  0  0  0  0  0
  -26.0140  -38.2780   24.1405 H   0  0  0  0  0  0
  -29.0837  -16.7295   18.2148 H   0  0  0  0  0  0
  -28.2535  -20.9457   18.0330 H   0  0  0  0  0  0
  -29.7930  -19.2128   21.6843 H   0  0  0  0  0  0
  -28.1287  -17.6513   16.2946 H   0  0  0  0  0  0
  -28.9326  -19.1804   15.9417 H   0  0  0  0  0  0
  -27.2377  -19.1639   16.4438 H   0  0  0  0  0  0
  -30.8432  -21.4659   21.4581 H   0  0  0  0  0  0
  -30.2874  -23.1193   21.6279 H   0  0  0  0  0  0
  -31.0787  -22.6031   20.1339 H   0  0  0  0  0  0
  -28.0550  -24.6958   18.6564 H   0  0  0  0  0  0
  -29.5815  -24.6235   19.4285 H   0  0  0  0  0  0
  -28.9858  -16.0418   21.3372 H   0  0  0  0  0  0
  1 25  1  0  0  0
  1 30  2  0  0  0
  1 81  1  0  0  0
  2  3  1  0  0  0
  2 25  1  0  0  0
  2 84  1  0  0  0
  2 85  1  0  0  0
  3  4  1  0  0  0
  3 86  1  0  0  0
  3 87  1  0  0  0
  4  5  1  0  0  0
  4 88  1  0  0  0
  4 89  1  0  0  0
  5  6  1  0  0  0
  5 26  1  0  0  0
  5 90  1  0  0  0
  6 25  1  0  0  0
  6 91  1  0  0  0
  6 92  1  0  0  0
  7  8  2  0  0  0
  7 26  1  0  0  0
  7 29  1  0  0  0
  8  9  1  0  0  0
  8 22  1  0  0  0
  9 10  1  0  0  0
  9 27  2  0  0  0
 10 11  2  0  0  0
 10 15  1  0  0  0
 11 12  1  0  0  0
 11 93  1  0  0  0
 12 13  2  0  0  0
 12 94  1  0  0  0
 13 14  1  0  0  0
 13 31  1  0  0  0
 14 15  2  0  0  0
 14 95  1  0  0  0
 15 96  1  0  0  0
 16 17  2  0  0  0
 16 21  1  0  0  0
 16 31  1  0  0  0
 17 18  1  0  0  0
 17 97  1  0  0  0
 18 19  2  0  0  0
 18 98  1  0  0  0
 19 20  1  0  0  0
 19 24  1  0  0  0
 20 21  2  0  0  0
 20 99  1  0  0  0
 21 23  1  0  0  0
 22 28  1  0  0  0
 22 32  2  0  0  0
 26 27  1  0  0  0
 28100  1  0  0  0
 28101  1  0  0  0
 29102  1  0  0  0
 29103  1  0  0  0
 33 34  1  0  0  0
 33 66  1  0  0  0
 33 70  2  0  0  0
 34 36  1  0  0  0
 34 59  1  0  0  0
 34104  1  0  0  0
 35 44  2  0  0  0
 35 45  1  0  0  0
 35 68  1  0  0  0
 36 56  1  0  0  0
 36105  1  0  0  0
 37 39  1  0  0  0
 37 47  1  0  0  0
 37 66  1  0  0  0
 37106  1  0  0  0
 38 43  2  0  0  0
 38 46  1  0  0  0
 38 47  1  0  0  0
 39 64  1  0  0  0
 39 67  2  0  0  0
 40 52  1  0  0  0
 40 53  2  0  0  0
 40 58  1  0  0  0
 41107  1  0  0  0
 41108  1  0  0  0
 41109  1  0  0  0
 41 48  1  0  0  0
 42 43  1  0  0  0
 42 66  1  0  0  0
 42110  1  0  0  0
 42111  1  0  0  0
 43 44  1  0  0  0
 44112  1  0  0  0
 45 46  2  0  0  0
 45113  1  0  0  0
 46114  1  0  0  0
 47115  1  0  0  0
 47116  1  0  0  0
 48 56  1  0  0  0
 48 65  1  0  0  0
 48117  1  0  0  0
 49 50  1  0  0  0
 49 53  1  0  0  0
 49 64  1  0  0  0
 49118  1  0  0  0
 50 51  1  0  0  0
 50119  1  0  0  0
 50120  1  0  0  0
 51 52  1  0  0  0
 51121  1  0  0  0
 51122  1  0  0  0
 52123  1  0  0  0
 52124  1  0  0  0
 53 54  1  0  0  0
 54 55  2  0  0  0
 54125  1  0  0  0
 55 57  1  0  0  0
 55126  1  0  0  0
 56 69  2  0  0  0
 57 58  2  0  0  0
 57127  1  0  0  0
 58128  1  0  0  0
 59 60  1  0  0  0
 59 61  1  0  0  0
 59 62  1  0  0  0
 60129  1  0  0  0
 60130  1  0  0  0
 60131  1  0  0  0
 61132  1  0  0  0
 61133  1  0  0  0
 61134  1  0  0  0
 62135  1  0  0  0
 62136  1  0  0  0
 62137  1  0  0  0
 63 65  1  0  0  0
 63138  1  0  0  0
 63139  1  0  0  0
 63140  1  0  0  0
 64141  1  0  0  0
 65142  1  0  0  0
 68 80  1  0  0  0
 71 74  2  0  0  0
 71 75  1  0  0  0
 71143  1  0  0  0
 72 74  1  0  0  0
 72 76  2  0  0  0
 72144  1  0  0  0
 73 75  2  0  0  0
 73 76  1  0  0  0
 73145  1  0  0  0
 74 78  1  0  0  0
 75 81  1  0  0  0
 76 82  1  0  0  0
 77 80  1  0  0  0
 77 82  1  0  0  0
 77 83  2  0  0  0
 78146  1  0  0  0
 78147  1  0  0  0
 78148  1  0  0  0
 79 82  1  0  0  0
 79149  1  0  0  0
 79150  1  0  0  0
 79151  1  0  0  0
 80152  1  0  0  0
 80153  1  0  0  0
 81154  1  0  0  0
M  ISO  4   1 100  68 101  80 101  81 100
M  END
> <chiral flag>
0

> <version>
0

> <s_m_source_file>
/data/baiqing/PycharmProjects/Reinvent-master-3.2/result/LINK_invent/BTK/process_docking_weight1_custom_sum_contain_oxygen_bond_distance_aromatic_linkinvent_7_9_3/rearranged_h_0010.sdf

> <i_m_source_file_index>
69

> <r_mmod_Potential_Energy-OPLS-2005>
933.104187011719

> <r_mmod_Stretch_Energy-OPLS-2005>
373.682159423828

> <r_mmod_Bend_Energy-OPLS-2005>
355.07861328125

> <r_mmod_Torsional_Energy-OPLS-2005>
326.794342041016

> <r_mmod_Improper_Torsional_Energy-OPLS-2005>
6.23913955688477

> <r_mmod_Van_der_Waal_Energy-OPLS-2005>
119.853713989258

> <r_mmod_Electrostatic_Energy-OPLS-2005>
-314.107788085938

> <r_mmod_Solvation_Energy-OPLS-2005>
-229.534790039062

> <b_mmod_Minimization_Converged-OPLS-2005>
0

> <r_mmod_RMS_Derivative-OPLS-2005>
0.860337972640991

$$$$
69
                    3D
 Structure written by MMmdl.
148156  0  0  1  0            999 V2000
  -30.5203  -14.9255   20.4250 C   0  0  0  0  0  0
  -30.4519  -12.5707   19.4896 C   0  0  0  0  0  0
  -29.5242  -12.5323   18.2515 C   0  0  0  0  0  0
  -28.0555  -12.3193   18.6682 C   0  0  0  0  0  0
  -27.6360  -13.2389   19.8440 C   0  0  2  0  0  0
  -28.6821  -13.2334   20.9800 C   0  0  0  0  0  0
  -25.2485  -13.8177   20.5726 C   0  0  0  0  0  0
  -24.1794  -13.0414   20.9242 C   0  0  0  0  0  0
  -24.6402  -11.6901   20.8755 C   0  0  0  0  0  0
  -23.9079  -10.4280   21.0407 C   0  0  0  0  0  0
  -24.3625   -9.4196   21.9186 C   0  0  0  0  0  0
  -23.6294   -8.2235   22.0755 C   0  0  0  0  0  0
  -22.4276   -8.0278   21.3544 C   0  0  0  0  0  0
  -21.9915   -9.0253   20.4646 C   0  0  0  0  0  0
  -22.7250  -10.2128   20.3056 C   0  0  0  0  0  0
  -21.6852   -6.0734   22.5279 C   0  0  0  0  0  0
  -21.4013   -6.5639   23.8212 C   0  0  0  0  0  0
  -21.3659   -5.6792   24.9175 C   0  0  0  0  0  0
  -21.6044   -4.3054   24.7225 C   0  0  0  0  0  0
  -21.8819   -3.8146   23.4346 C   0  0  0  0  0  0
  -21.9192   -4.6962   22.3402 C   0  0  0  0  0  0
  -22.7814  -13.5198   21.1889 C   0  0  0  0  0  0
  -22.1661   -4.2148   21.0980 F   0  0  0  0  0  0
  -21.5629   -3.4538   25.7738 F   0  0  0  0  0  0
  -29.9642  -13.6493   20.3915 N   0  0  0  0  0  0
  -26.2914  -12.9404   20.3253 N   0  0  0  0  0  0
  -25.9332  -11.6540   20.5734 N   0  0  0  0  0  0
  -22.0458  -12.8190   22.0442 N   0  0  0  0  0  0
  -25.4098  -15.1900   20.4164 N   0  0  0  0  0  0
  -31.7158  -15.0466   20.1351 O   0  0  0  0  0  0
  -21.6637   -6.8877   21.4241 O   0  0  0  0  0  0
  -22.3496  -14.5500   20.6727 O   0  0  0  0  0  0
  -24.6433  -31.8448   23.1896 C   0  0  0  0  0  0
  -25.9207  -32.4699   23.8282 C   0  0  1  0  0  0
  -27.2202  -27.1423   20.1444 C   0  0  0  0  0  0
  -25.5955  -33.8506   24.2196 N   0  0  0  0  0  0
  -23.4470  -30.4650   21.5350 C   0  0  2  0  0  0
  -24.8977  -28.8962   20.1088 C   0  0  0  0  0  0
  -22.7569  -29.4550   22.4860 C   0  0  0  0  0  0
  -18.0305  -28.1396   22.8477 C   0  0  0  0  0  0
  -24.1492  -36.7257   23.2642 C   0  0  0  0  0  0
  -26.0037  -30.7191   21.3900 C   0  0  0  0  0  0
  -26.0752  -29.3318   20.7299 C   0  0  0  0  0  0
  -27.2363  -28.4702   20.7339 C   0  0  0  0  0  0
  -26.0173  -26.8151   19.4761 C   0  0  0  0  0  0
  -24.8815  -27.6507   19.4669 C   0  0  0  0  0  0
  -23.6736  -29.7968   20.1536 C   0  0  0  0  0  0
  -25.4124  -36.3035   24.0316 C   0  0  1  0  0  0
  -20.5918  -28.3723   23.1234 C   0  0  2  0  0  0
  -20.6790  -26.9426   22.5403 C   0  0  0  0  0  0
  -19.5762  -26.6382   21.5212 C   0  0  0  0  0  0
  -18.1944  -26.7934   22.1624 C   0  0  0  0  0  0
  -19.1562  -28.8877   23.2847 C   0  0  0  0  0  0
  -18.9478  -30.1473   23.8874 C   0  0  0  0  0  0
  -17.6474  -30.6592   24.0559 C   0  0  0  0  0  0
  -25.9074  -34.9410   23.5064 C   0  0  0  0  0  0
  -16.5365  -29.9084   23.6336 C   0  0  0  0  0  0
  -16.7290  -28.6503   23.0357 C   0  0  0  0  0  0
  -26.4527  -31.6567   25.0724 C   0  0  0  0  0  0
  -25.3709  -31.3756   26.1416 C   0  0  0  0  0  0
  -27.0396  -30.2963   24.6310 C   0  0  0  0  0  0
  -27.6054  -32.4336   25.7510 C   0  0  0  0  0  0
  -27.5576  -37.1786   24.8466 C   0  0  0  0  0  0
  -21.4261  -29.3049   22.3607 N   0  0  0  0  0  0
  -26.4288  -37.3747   23.9407 N   0  0  0  0  0  0
  -24.7177  -31.0305   22.0932 N   0  0  0  0  0  0
  -23.4212  -28.8095   23.3008 O   0  0  0  0  0  0
  -28.2624  -26.1450   20.2266 O   0  0  0  0  0  0
  -26.5659  -34.8905   22.4642 O   0  0  0  0  0  0
  -23.5551  -32.1324   23.7114 O   0  0  0  0  0  0
  -30.0949  -20.0183   20.9457 C   0  0  0  0  0  0
  -30.3753  -18.5812   21.0496 C   0  0  0  0  0  0
  -28.2982  -19.5386   19.5027 C   0  0  0  0  0  0
  -29.0164  -20.5830   20.1727 C   0  0  0  0  0  0
  -29.6174  -17.5438   20.3893 C   0  0  0  0  0  0
  -28.5683  -18.1205   19.6011 C   0  0  0  0  0  0
  -28.8917  -23.3587   20.3695 C   0  0  0  0  0  0
  -27.9382  -24.6483   19.9469 C   0  0  0  0  0  0
  -28.5392  -22.0349   20.0053 N   0  0  0  0  0  0
  -29.6550  -16.0272   20.6184 N   0  0  0  0  0  0
  -29.9204  -23.5725   21.0163 O   0  0  0  0  0  0
  -27.5315  -17.0563   18.7197 Cl  0  0  0  0  0  0
  -31.4833  -12.7416   19.1773 H   0  0  0  0  0  0
  -30.4511  -11.6093   20.0058 H   0  0  0  0  0  0
  -29.8379  -11.7428   17.5673 H   0  0  0  0  0  0
  -29.6139  -13.4692   17.6993 H   0  0  0  0  0  0
  -27.9454  -11.2748   18.9623 H   0  0  0  0  0  0
  -27.3928  -12.4667   17.8146 H   0  0  0  0  0  0
  -27.6065  -14.2459   19.4303 H   0  0  0  0  0  0
  -28.7630  -12.2440   21.4325 H   0  0  0  0  0  0
  -28.3850  -13.9115   21.7817 H   0  0  0  0  0  0
  -25.2769   -9.5670   22.4763 H   0  0  0  0  0  0
  -24.0000   -7.4625   22.7476 H   0  0  0  0  0  0
  -21.0846   -8.8776   19.8952 H   0  0  0  0  0  0
  -22.3712  -10.9670   19.6167 H   0  0  0  0  0  0
  -21.2006   -7.6147   23.9715 H   0  0  0  0  0  0
  -21.1482   -6.0522   25.9078 H   0  0  0  0  0  0
  -22.0599   -2.7608   23.2847 H   0  0  0  0  0  0
  -22.4080  -11.9858   22.4837 H   0  0  0  0  0  0
  -21.1073  -13.1211   22.2642 H   0  0  0  0  0  0
  -24.6223  -15.8218   20.5048 H   0  0  0  0  0  0
  -26.2129  -15.6278   19.9821 H   0  0  0  0  0  0
  -26.7273  -32.5307   23.1011 H   0  0  0  0  0  0
  -25.0080  -33.9622   25.0328 H   0  0  0  0  0  0
  -22.7494  -31.2911   21.3817 H   0  0  0  0  0  0
  -23.3759  -35.9584   23.3293 H   0  0  0  0  0  0
  -24.3576  -36.8900   22.2059 H   0  0  0  0  0  0
  -23.7243  -37.6449   23.6686 H   0  0  0  0  0  0
  -26.1609  -31.4747   20.6190 H   0  0  0  0  0  0
  -26.8734  -30.7675   22.0335 H   0  0  0  0  0  0
  -28.1300  -28.7967   21.2470 H   0  0  0  0  0  0
  -25.9114  -25.8689   18.9682 H   0  0  0  0  0  0
  -23.9846  -27.3138   18.9654 H   0  0  0  0  0  0
  -23.8094  -30.5725   19.3991 H   0  0  0  0  0  0
  -22.7888  -29.2386   19.8424 H   0  0  0  0  0  0
  -25.1312  -36.1864   25.0808 H   0  0  0  0  0  0
  -21.0010  -28.3312   24.1355 H   0  0  0  0  0  0
  -20.5684  -26.2337   23.3622 H   0  0  0  0  0  0
  -21.6655  -26.7432   22.1200 H   0  0  0  0  0  0
  -19.6924  -25.6286   21.1257 H   0  0  0  0  0  0
  -19.6698  -27.3178   20.6731 H   0  0  0  0  0  0
  -17.4212  -26.6676   21.4029 H   0  0  0  0  0  0
  -18.0346  -26.0082   22.9028 H   0  0  0  0  0  0
  -19.7953  -30.7296   24.2233 H   0  0  0  0  0  0
  -17.5027  -31.6270   24.5165 H   0  0  0  0  0  0
  -15.5364  -30.2978   23.7674 H   0  0  0  0  0  0
  -15.8690  -28.0813   22.7086 H   0  0  0  0  0  0
  -24.5896  -30.7096   25.7734 H   0  0  0  0  0  0
  -24.8889  -32.2937   26.4784 H   0  0  0  0  0  0
  -25.7990  -30.8966   27.0231 H   0  0  0  0  0  0
  -26.3019  -29.6682   24.1304 H   0  0  0  0  0  0
  -27.3992  -29.7266   25.4890 H   0  0  0  0  0  0
  -27.8934  -30.4197   23.9644 H   0  0  0  0  0  0
  -27.2644  -33.3655   26.2032 H   0  0  0  0  0  0
  -28.3894  -32.6867   25.0361 H   0  0  0  0  0  0
  -28.0690  -31.8500   26.5473 H   0  0  0  0  0  0
  -28.2587  -38.0089   24.7510 H   0  0  0  0  0  0
  -28.1078  -36.2617   24.6297 H   0  0  0  0  0  0
  -27.2292  -37.1438   25.8868 H   0  0  0  0  0  0
  -20.9472  -29.8764   21.6787 H   0  0  0  0  0  0
  -26.0155  -38.2816   24.1407 H   0  0  0  0  0  0
  -30.7202  -20.6957   21.5105 H   0  0  0  0  0  0
  -31.1776  -18.2768   21.7064 H   0  0  0  0  0  0
  -27.4623  -19.8250   18.8816 H   0  0  0  0  0  0
  -26.9760  -24.4362   20.4142 H   0  0  0  0  0  0
  -27.7778  -24.5562   18.8724 H   0  0  0  0  0  0
  -27.6891  -22.0762   19.4590 H   0  0  0  0  0  0
  -28.7228  -15.6678   20.7529 H   0  0  0  0  0  0
  1 25  1  0  0  0
  1 30  2  0  0  0
  1 80  1  0  0  0
  2  3  1  0  0  0
  2 25  1  0  0  0
  2 83  1  0  0  0
  2 84  1  0  0  0
  3  4  1  0  0  0
  3 85  1  0  0  0
  3 86  1  0  0  0
  4  5  1  0  0  0
  4 87  1  0  0  0
  4 88  1  0  0  0
  5  6  1  0  0  0
  5 26  1  0  0  0
  5 89  1  0  0  0
  6 25  1  0  0  0
  6 90  1  0  0  0
  6 91  1  0  0  0
  7  8  2  0  0  0
  7 26  1  0  0  0
  7 29  1  0  0  0
  8  9  1  0  0  0
  8 22  1  0  0  0
  9 10  1  0  0  0
  9 27  2  0  0  0
 10 11  2  0  0  0
 10 15  1  0  0  0
 11 12  1  0  0  0
 11 92  1  0  0  0
 12 13  2  0  0  0
 12 93  1  0  0  0
 13 14  1  0  0  0
 13 31  1  0  0  0
 14 15  2  0  0  0
 14 94  1  0  0  0
 15 95  1  0  0  0
 16 17  2  0  0  0
 16 21  1  0  0  0
 16 31  1  0  0  0
 17 18  1  0  0  0
 17 96  1  0  0  0
 18 19  2  0  0  0
 18 97  1  0  0  0
 19 20  1  0  0  0
 19 24  1  0  0  0
 20 21  2  0  0  0
 20 98  1  0  0  0
 21 23  1  0  0  0
 22 28  1  0  0  0
 22 32  2  0  0  0
 26 27  1  0  0  0
 28 99  1  0  0  0
 28100  1  0  0  0
 29101  1  0  0  0
 29102  1  0  0  0
 33 34  1  0  0  0
 33 66  1  0  0  0
 33 70  2  0  0  0
 34 36  1  0  0  0
 34 59  1  0  0  0
 34103  1  0  0  0
 35 44  2  0  0  0
 35 45  1  0  0  0
 35 68  1  0  0  0
 36 56  1  0  0  0
 36104  1  0  0  0
 37 39  1  0  0  0
 37 47  1  0  0  0
 37 66  1  0  0  0
 37105  1  0  0  0
 38 43  2  0  0  0
 38 46  1  0  0  0
 38 47  1  0  0  0
 39 64  1  0  0  0
 39 67  2  0  0  0
 40 52  1  0  0  0
 40 53  2  0  0  0
 40 58  1  0  0  0
 41106  1  0  0  0
 41107  1  0  0  0
 41108  1  0  0  0
 41 48  1  0  0  0
 42 43  1  0  0  0
 42 66  1  0  0  0
 42109  1  0  0  0
 42110  1  0  0  0
 43 44  1  0  0  0
 44111  1  0  0  0
 45 46  2  0  0  0
 45112  1  0  0  0
 46113  1  0  0  0
 47114  1  0  0  0
 47115  1  0  0  0
 48 56  1  0  0  0
 48 65  1  0  0  0
 48116  1  0  0  0
 49 50  1  0  0  0
 49 53  1  0  0  0
 49 64  1  0  0  0
 49117  1  0  0  0
 50 51  1  0  0  0
 50118  1  0  0  0
 50119  1  0  0  0
 51 52  1  0  0  0
 51120  1  0  0  0
 51121  1  0  0  0
 52122  1  0  0  0
 52123  1  0  0  0
 53 54  1  0  0  0
 54 55  2  0  0  0
 54124  1  0  0  0
 55 57  1  0  0  0
 55125  1  0  0  0
 56 69  2  0  0  0
 57 58  2  0  0  0
 57126  1  0  0  0
 58127  1  0  0  0
 59 60  1  0  0  0
 59 61  1  0  0  0
 59 62  1  0  0  0
 60128  1  0  0  0
 60129  1  0  0  0
 60130  1  0  0  0
 61131  1  0  0  0
 61132  1  0  0  0
 61133  1  0  0  0
 62134  1  0  0  0
 62135  1  0  0  0
 62136  1  0  0  0
 63 65  1  0  0  0
 63137  1  0  0  0
 63138  1  0  0  0
 63139  1  0  0  0
 64140  1  0  0  0
 65141  1  0  0  0
 68 78  1  0  0  0
 71 72  2  0  0  0
 71 74  1  0  0  0
 71142  1  0  0  0
 72 75  1  0  0  0
 72143  1  0  0  0
 73 74  2  0  0  0
 73 76  1  0  0  0
 73144  1  0  0  0
 74 79  1  0  0  0
 75 76  2  0  0  0
 75 80  1  0  0  0
 76 82  1  0  0  0
 77 78  1  0  0  0
 77 79  1  0  0  0
 77 81  2  0  0  0
 78145  1  0  0  0
 78146  1  0  0  0
 79147  1  0  0  0
 80148  1  0  0  0
M  ISO  4   1 100  68 101  78 101  80 100
M  END
> <chiral flag>
0

> <version>
0

> <s_m_source_file>
/data/baiqing/PycharmProjects/Reinvent-master-3.2/result/LINK_invent/BTK/process_docking_weight1_custom_sum_contain_oxygen_bond_distance_aromatic_linkinvent_7_9_3/rearranged_h_0010.sdf

> <i_m_source_file_index>
70

> <r_mmod_Potential_Energy-OPLS-2005>
400.090301513672

> <r_mmod_Stretch_Energy-OPLS-2005>
219.318695068359

> <r_mmod_Bend_Energy-OPLS-2005>
266.553741455078

> <r_mmod_Torsional_Energy-OPLS-2005>
240.335113525391

> <r_mmod_Improper_Torsional_Energy-OPLS-2005>
6.64368438720703

> <r_mmod_Van_der_Waal_Energy-OPLS-2005>
127.499252319336

> <r_mmod_Electrostatic_Energy-OPLS-2005>
-399.175964355469

> <r_mmod_Solvation_Energy-OPLS-2005>
-245.835098266602

> <b_mmod_Minimization_Converged-OPLS-2005>
1

> <r_mmod_RMS_Derivative-OPLS-2005>
0.0446435287594795

$$$$
70
                    3D
 Structure written by MMmdl.
154162  0  0  1  0            999 V2000
  -30.6013  -14.7400   20.4240 C   0  0  0  0  0  0
  -30.4393  -12.4322   19.4918 C   0  0  0  0  0  0
  -29.5203  -12.4363   18.2495 C   0  0  0  0  0  0
  -28.0356  -12.3236   18.6483 C   0  0  0  0  0  0
  -27.6438  -13.2307   19.8466 C   0  0  2  0  0  0
  -28.6846  -13.1652   20.9841 C   0  0  0  0  0  0
  -25.2520  -13.8204   20.5678 C   0  0  0  0  0  0
  -24.1807  -13.0449   20.9197 C   0  0  0  0  0  0
  -24.6392  -11.6926   20.8742 C   0  0  0  0  0  0
  -23.9072  -10.4301   21.0412 C   0  0  0  0  0  0
  -24.3625   -9.4218   21.9188 C   0  0  0  0  0  0
  -23.6300   -8.2252   22.0759 C   0  0  0  0  0  0
  -22.4281   -8.0286   21.3550 C   0  0  0  0  0  0
  -21.9915   -9.0260   20.4652 C   0  0  0  0  0  0
  -22.7241  -10.2140   20.3065 C   0  0  0  0  0  0
  -21.6858   -6.0734   22.5278 C   0  0  0  0  0  0
  -21.4017   -6.5638   23.8209 C   0  0  0  0  0  0
  -21.3660   -5.6791   24.9170 C   0  0  0  0  0  0
  -21.6044   -4.3053   24.7221 C   0  0  0  0  0  0
  -21.8821   -3.8146   23.4341 C   0  0  0  0  0  0
  -21.9195   -4.6964   22.3400 C   0  0  0  0  0  0
  -22.7829  -13.5232   21.1852 C   0  0  0  0  0  0
  -22.1664   -4.2150   21.0976 F   0  0  0  0  0  0
  -21.5629   -3.4537   25.7736 F   0  0  0  0  0  0
  -29.9878  -13.5083   20.4042 N   0  0  0  0  0  0
  -26.2945  -12.9409   20.3258 N   0  0  0  0  0  0
  -25.9323  -11.6552   20.5755 N   0  0  0  0  0  0
  -22.0476  -12.8229   22.0408 N   0  0  0  0  0  0
  -25.4218  -15.1930   20.4104 N   0  0  0  0  0  0
  -31.7999  -14.8290   20.1426 O   0  0  0  0  0  0
  -21.6646   -6.8881   21.4241 O   0  0  0  0  0  0
  -22.3507  -14.5526   20.6679 O   0  0  0  0  0  0
  -24.6308  -31.8556   23.2002 C   0  0  0  0  0  0
  -25.9142  -32.4750   23.8336 C   0  0  1  0  0  0
  -27.2176  -27.2662   20.1162 C   0  0  0  0  0  0
  -25.5946  -33.8556   24.2254 N   0  0  0  0  0  0
  -23.4253  -30.4811   21.5432 C   0  0  2  0  0  0
  -24.8696  -28.9319   20.1092 C   0  0  0  0  0  0
  -22.7493  -29.4602   22.4909 C   0  0  0  0  0  0
  -18.0286  -28.1380   22.8480 C   0  0  0  0  0  0
  -24.1489  -36.7287   23.2635 C   0  0  0  0  0  0
  -25.9730  -30.7681   21.3817 C   0  0  0  0  0  0
  -26.0411  -29.3934   20.7200 C   0  0  0  0  0  0
  -27.2125  -28.5710   20.7167 C   0  0  0  0  0  0
  -26.0162  -26.8757   19.4771 C   0  0  0  0  0  0
  -24.8626  -27.6807   19.4797 C   0  0  0  0  0  0
  -23.6418  -29.8188   20.1577 C   0  0  0  0  0  0
  -25.4118  -36.3069   24.0322 C   0  0  1  0  0  0
  -20.5890  -28.3683   23.1276 C   0  0  2  0  0  0
  -20.6774  -26.9402   22.5407 C   0  0  0  0  0  0
  -19.5747  -26.6374   21.5214 C   0  0  0  0  0  0
  -18.1929  -26.7917   22.1630 C   0  0  0  0  0  0
  -19.1541  -28.8852   23.2870 C   0  0  0  0  0  0
  -18.9464  -30.1460   23.8873 C   0  0  0  0  0  0
  -17.6462  -30.6581   24.0556 C   0  0  0  0  0  0
  -25.9064  -34.9441   23.5091 C   0  0  0  0  0  0
  -16.5352  -29.9075   23.6330 C   0  0  0  0  0  0
  -16.7275  -28.6500   23.0341 C   0  0  0  0  0  0
  -26.4497  -31.6578   25.0733 C   0  0  0  0  0  0
  -25.3727  -31.3736   26.1460 C   0  0  0  0  0  0
  -27.0343  -30.2981   24.6249 C   0  0  0  0  0  0
  -27.6029  -32.4330   25.7519 C   0  0  0  0  0  0
  -27.5580  -37.1805   24.8461 C   0  0  0  0  0  0
  -21.4202  -29.3035   22.3667 N   0  0  0  0  0  0
  -26.4286  -37.3776   23.9410 N   0  0  0  0  0  0
  -24.6952  -31.0534   22.0970 N   0  0  0  0  0  0
  -23.4203  -28.8140   23.2999 O   0  0  0  0  0  0
  -28.3379  -26.4038   20.1987 O   0  0  0  0  0  0
  -26.5635  -34.8921   22.4658 O   0  0  0  0  0  0
  -23.5466  -32.1370   23.7315 O   0  0  0  0  0  0
  -30.2630  -18.5343   17.8551 C   0  0  0  0  0  0
  -29.9982  -19.7418   18.5141 C   0  0  0  0  0  0
  -29.5675  -18.4853   20.5468 C   0  0  0  0  0  0
  -30.1682  -17.2900   18.5066 C   0  0  0  0  0  0
  -29.5783  -19.7769   19.8608 C   0  0  0  0  0  0
  -29.8927  -17.2106   19.9044 C   0  0  0  0  0  0
  -28.8441  -22.2840   19.8311 C   0  0  0  0  0  0
  -30.2717  -16.0685   17.6120 C   0  0  0  0  0  0
  -28.7695  -23.7050   20.5644 C   0  0  0  0  0  0
  -28.3604  -24.9943   19.6707 C   0  0  0  0  0  0
  -29.2506  -21.1051   20.4560 N   0  0  0  0  0  0
  -29.8103  -15.8755   20.5706 N   0  0  0  0  0  0
  -28.4738  -22.2676   18.6548 O   0  0  0  0  0  0
  -31.4784  -12.5599   19.1847 H   0  0  0  0  0  0
  -30.3957  -11.4678   20.0008 H   0  0  0  0  0  0
  -29.7855  -11.6062   17.5933 H   0  0  0  0  0  0
  -29.6882  -13.3307   17.6575 H   0  0  0  0  0  0
  -27.8543  -11.2799   18.9061 H   0  0  0  0  0  0
  -27.3980  -12.5370   17.7897 H   0  0  0  0  0  0
  -27.6388  -14.2515   19.4632 H   0  0  0  0  0  0
  -28.7132  -12.1696   21.4291 H   0  0  0  0  0  0
  -28.4204  -13.8525   21.7893 H   0  0  0  0  0  0
  -25.2774   -9.5687   22.4758 H   0  0  0  0  0  0
  -24.0010   -7.4640   22.7476 H   0  0  0  0  0  0
  -21.0847   -8.8775   19.8958 H   0  0  0  0  0  0
  -22.3701  -10.9678   19.6171 H   0  0  0  0  0  0
  -21.2012   -7.6150   23.9711 H   0  0  0  0  0  0
  -21.1480   -6.0525   25.9073 H   0  0  0  0  0  0
  -22.0602   -2.7612   23.2843 H   0  0  0  0  0  0
  -22.4090  -11.9898   22.4811 H   0  0  0  0  0  0
  -21.1093  -13.1261   22.2603 H   0  0  0  0  0  0
  -24.6532  -15.8471   20.5158 H   0  0  0  0  0  0
  -26.2689  -15.6326   20.0741 H   0  0  0  0  0  0
  -26.7210  -32.5390   23.1079 H   0  0  0  0  0  0
  -25.0081  -33.9685   25.0390 H   0  0  0  0  0  0
  -22.7221  -31.3046   21.4003 H   0  0  0  0  0  0
  -23.3752  -35.9616   23.3286 H   0  0  0  0  0  0
  -24.3569  -36.8923   22.2050 H   0  0  0  0  0  0
  -23.7250  -37.6488   23.6666 H   0  0  0  0  0  0
  -26.1217  -31.5315   20.6167 H   0  0  0  0  0  0
  -26.8474  -30.8075   22.0195 H   0  0  0  0  0  0
  -28.1081  -28.9179   21.2130 H   0  0  0  0  0  0
  -25.9010  -25.9316   18.9752 H   0  0  0  0  0  0
  -23.9649  -27.3202   18.9969 H   0  0  0  0  0  0
  -23.7710  -30.5965   19.4043 H   0  0  0  0  0  0
  -22.7585  -29.2557   19.8494 H   0  0  0  0  0  0
  -25.1304  -36.1897   25.0815 H   0  0  0  0  0  0
  -20.9985  -28.3250   24.1397 H   0  0  0  0  0  0
  -20.5671  -26.2289   23.3606 H   0  0  0  0  0  0
  -21.6645  -26.7425   22.1208 H   0  0  0  0  0  0
  -19.6901  -25.6284   21.1245 H   0  0  0  0  0  0
  -19.6685  -27.3185   20.6748 H   0  0  0  0  0  0
  -17.4200  -26.6663   21.4030 H   0  0  0  0  0  0
  -18.0326  -26.0059   22.9031 H   0  0  0  0  0  0
  -19.7941  -30.7289   24.2217 H   0  0  0  0  0  0
  -17.5016  -31.6257   24.5166 H   0  0  0  0  0  0
  -15.5354  -30.2972   23.7672 H   0  0  0  0  0  0
  -15.8674  -28.0830   22.7043 H   0  0  0  0  0  0
  -24.5899  -30.7078   25.7806 H   0  0  0  0  0  0
  -24.8933  -32.2913   26.4878 H   0  0  0  0  0  0
  -25.8067  -30.8929   27.0240 H   0  0  0  0  0  0
  -26.2940  -29.6729   24.1244 H   0  0  0  0  0  0
  -27.3953  -29.7249   25.4800 H   0  0  0  0  0  0
  -27.8851  -30.4219   23.9546 H   0  0  0  0  0  0
  -27.2599  -33.3620   26.2090 H   0  0  0  0  0  0
  -28.3858  -32.6911   25.0373 H   0  0  0  0  0  0
  -28.0678  -31.8466   26.5456 H   0  0  0  0  0  0
  -28.2594  -38.0106   24.7519 H   0  0  0  0  0  0
  -28.1087  -36.2642   24.6277 H   0  0  0  0  0  0
  -27.2301  -37.1442   25.8865 H   0  0  0  0  0  0
  -20.9371  -29.8773   21.6896 H   0  0  0  0  0  0
  -26.0157  -38.2845   24.1411 H   0  0  0  0  0  0
  -30.5067  -18.5740   16.8023 H   0  0  0  0  0  0
  -30.1009  -20.6473   17.9354 H   0  0  0  0  0  0
  -29.2870  -18.4701   21.5902 H   0  0  0  0  0  0
  -31.1989  -15.5199   17.7674 H   0  0  0  0  0  0
  -30.2288  -16.3355   16.5557 H   0  0  0  0  0  0
  -29.4151  -15.4258   17.8028 H   0  0  0  0  0  0
  -29.7421  -23.8894   21.0193 H   0  0  0  0  0  0
  -28.0630  -23.6125   21.3891 H   0  0  0  0  0  0
  -27.4403  -24.7181   19.1715 H   0  0  0  0  0  0
  -29.0790  -25.0363   18.8513 H   0  0  0  0  0  0
  -29.3651  -21.1735   21.4588 H   0  0  0  0  0  0
  -28.9321  -15.6950   21.0337 H   0  0  0  0  0  0
  1 25  1  0  0  0
  1 30  2  0  0  0
  1 82  1  0  0  0
  2  3  1  0  0  0
  2 25  1  0  0  0
  2 84  1  0  0  0
  2 85  1  0  0  0
  3  4  1  0  0  0
  3 86  1  0  0  0
  3 87  1  0  0  0
  4  5  1  0  0  0
  4 88  1  0  0  0
  4 89  1  0  0  0
  5  6  1  0  0  0
  5 26  1  0  0  0
  5 90  1  0  0  0
  6 25  1  0  0  0
  6 91  1  0  0  0
  6 92  1  0  0  0
  7  8  2  0  0  0
  7 26  1  0  0  0
  7 29  1  0  0  0
  8  9  1  0  0  0
  8 22  1  0  0  0
  9 10  1  0  0  0
  9 27  2  0  0  0
 10 11  2  0  0  0
 10 15  1  0  0  0
 11 12  1  0  0  0
 11 93  1  0  0  0
 12 13  2  0  0  0
 12 94  1  0  0  0
 13 14  1  0  0  0
 13 31  1  0  0  0
 14 15  2  0  0  0
 14 95  1  0  0  0
 15 96  1  0  0  0
 16 17  2  0  0  0
 16 21  1  0  0  0
 16 31  1  0  0  0
 17 18  1  0  0  0
 17 97  1  0  0  0
 18 19  2  0  0  0
 18 98  1  0  0  0
 19 20  1  0  0  0
 19 24  1  0  0  0
 20 21  2  0  0  0
 20 99  1  0  0  0
 21 23  1  0  0  0
 22 28  1  0  0  0
 22 32  2  0  0  0
 26 27  1  0  0  0
 28100  1  0  0  0
 28101  1  0  0  0
 29102  1  0  0  0
 29103  1  0  0  0
 33 34  1  0  0  0
 33 66  1  0  0  0
 33 70  2  0  0  0
 34 36  1  0  0  0
 34 59  1  0  0  0
 34104  1  0  0  0
 35 44  2  0  0  0
 35 45  1  0  0  0
 35 68  1  0  0  0
 36 56  1  0  0  0
 36105  1  0  0  0
 37 39  1  0  0  0
 37 47  1  0  0  0
 37 66  1  0  0  0
 37106  1  0  0  0
 38 43  2  0  0  0
 38 46  1  0  0  0
 38 47  1  0  0  0
 39 64  1  0  0  0
 39 67  2  0  0  0
 40 52  1  0  0  0
 40 53  2  0  0  0
 40 58  1  0  0  0
 41107  1  0  0  0
 41108  1  0  0  0
 41109  1  0  0  0
 41 48  1  0  0  0
 42 43  1  0  0  0
 42 66  1  0  0  0
 42110  1  0  0  0
 42111  1  0  0  0
 43 44  1  0  0  0
 44112  1  0  0  0
 45 46  2  0  0  0
 45113  1  0  0  0
 46114  1  0  0  0
 47115  1  0  0  0
 47116  1  0  0  0
 48 56  1  0  0  0
 48 65  1  0  0  0
 48117  1  0  0  0
 49 50  1  0  0  0
 49 53  1  0  0  0
 49 64  1  0  0  0
 49118  1  0  0  0
 50 51  1  0  0  0
 50119  1  0  0  0
 50120  1  0  0  0
 51 52  1  0  0  0
 51121  1  0  0  0
 51122  1  0  0  0
 52123  1  0  0  0
 52124  1  0  0  0
 53 54  1  0  0  0
 54 55  2  0  0  0
 54125  1  0  0  0
 55 57  1  0  0  0
 55126  1  0  0  0
 56 69  2  0  0  0
 57 58  2  0  0  0
 57127  1  0  0  0
 58128  1  0  0  0
 59 60  1  0  0  0
 59 61  1  0  0  0
 59 62  1  0  0  0
 60129  1  0  0  0
 60130  1  0  0  0
 60131  1  0  0  0
 61132  1  0  0  0
 61133  1  0  0  0
 61134  1  0  0  0
 62135  1  0  0  0
 62136  1  0  0  0
 62137  1  0  0  0
 63 65  1  0  0  0
 63138  1  0  0  0
 63139  1  0  0  0
 63140  1  0  0  0
 64141  1  0  0  0
 65142  1  0  0  0
 68 80  1  0  0  0
 71 72  2  0  0  0
 71 74  1  0  0  0
 71143  1  0  0  0
 72 75  1  0  0  0
 72144  1  0  0  0
 73 75  2  0  0  0
 73 76  1  0  0  0
 73145  1  0  0  0
 74 76  2  0  0  0
 74 78  1  0  0  0
 75 81  1  0  0  0
 76 82  1  0  0  0
 77 79  1  0  0  0
 77 81  1  0  0  0
 77 83  2  0  0  0
 78146  1  0  0  0
 78147  1  0  0  0
 78148  1  0  0  0
 79 80  1  0  0  0
 79149  1  0  0  0
 79150  1  0  0  0
 80151  1  0  0  0
 80152  1  0  0  0
 81153  1  0  0  0
 82154  1  0  0  0
M  ISO  4   1 100  68 101  80 101  82 100
M  END
> <chiral flag>
0

> <version>
0

> <s_m_source_file>
/data/baiqing/PycharmProjects/Reinvent-master-3.2/result/LINK_invent/BTK/process_docking_weight1_custom_sum_contain_oxygen_bond_distance_aromatic_linkinvent_7_9_3/rearranged_h_0010.sdf

> <i_m_source_file_index>
71

> <r_mmod_Potential_Energy-OPLS-2005>
152.053512573242

> <r_mmod_Stretch_Energy-OPLS-2005>
128.250717163086

> <r_mmod_Bend_Energy-OPLS-2005>
168.087203979492

> <r_mmod_Torsional_Energy-OPLS-2005>
253.717437744141

> <r_mmod_Improper_Torsional_Energy-OPLS-2005>
5.80136156082153

> <r_mmod_Van_der_Waal_Energy-OPLS-2005>
154.388885498047

> <r_mmod_Electrostatic_Energy-OPLS-2005>
-408.297729492188

> <r_mmod_Solvation_Energy-OPLS-2005>
-233.570709228516

> <b_mmod_Minimization_Converged-OPLS-2005>
0

> <r_mmod_RMS_Derivative-OPLS-2005>
1.10052382946014

$$$$
71
                    3D
 Structure written by MMmdl.
148156  0  0  1  0            999 V2000
  -30.5093  -14.9306   20.4171 C   0  0  0  0  0  0
  -30.4550  -12.5719   19.4911 C   0  0  0  0  0  0
  -29.5243  -12.5271   18.2550 C   0  0  0  0  0  0
  -28.0571  -12.3149   18.6759 C   0  0  0  0  0  0
  -27.6379  -13.2392   19.8485 C   0  0  2  0  0  0
  -28.6840  -13.2308   20.9844 C   0  0  0  0  0  0
  -25.2487  -13.8182   20.5712 C   0  0  0  0  0  0
  -24.1785  -13.0410   20.9186 C   0  0  0  0  0  0
  -24.6409  -11.6903   20.8751 C   0  0  0  0  0  0
  -23.9091  -10.4281   21.0419 C   0  0  0  0  0  0
  -24.3632   -9.4195   21.9196 C   0  0  0  0  0  0
  -23.6299   -8.2235   22.0761 C   0  0  0  0  0  0
  -22.4279   -8.0287   21.3552 C   0  0  0  0  0  0
  -21.9925   -9.0261   20.4651 C   0  0  0  0  0  0
  -22.7265  -10.2134   20.3063 C   0  0  0  0  0  0
  -21.6854   -6.0747   22.5282 C   0  0  0  0  0  0
  -21.4009   -6.5646   23.8215 C   0  0  0  0  0  0
  -21.3655   -5.6796   24.9173 C   0  0  0  0  0  0
  -21.6042   -4.3062   24.7222 C   0  0  0  0  0  0
  -21.8818   -3.8155   23.4345 C   0  0  0  0  0  0
  -21.9188   -4.6974   22.3401 C   0  0  0  0  0  0
  -22.7808  -13.5204   21.1853 C   0  0  0  0  0  0
  -22.1659   -4.2163   21.0981 F   0  0  0  0  0  0
  -21.5627   -3.4541   25.7732 F   0  0  0  0  0  0
  -29.9653  -13.6485   20.3956 N   0  0  0  0  0  0
  -26.2936  -12.9409   20.3308 N   0  0  0  0  0  0
  -25.9350  -11.6549   20.5776 N   0  0  0  0  0  0
  -22.0456  -12.8199   22.0423 N   0  0  0  0  0  0
  -25.4094  -15.1906   20.4192 N   0  0  0  0  0  0
  -31.6989  -15.0622   20.1070 O   0  0  0  0  0  0
  -21.6636   -6.8891   21.4248 O   0  0  0  0  0  0
  -22.3491  -14.5512   20.6714 O   0  0  0  0  0  0
  -24.6443  -31.8447   23.1880 C   0  0  0  0  0  0
  -25.9213  -32.4704   23.8266 C   0  0  1  0  0  0
  -27.2247  -27.1451   20.1316 C   0  0  0  0  0  0
  -25.5961  -33.8503   24.2194 N   0  0  0  0  0  0
  -23.4484  -30.4652   21.5339 C   0  0  2  0  0  0
  -24.8991  -28.8950   20.1102 C   0  0  0  0  0  0
  -22.7576  -29.4567   22.4860 C   0  0  0  0  0  0
  -18.0314  -28.1405   22.8477 C   0  0  0  0  0  0
  -24.1491  -36.7244   23.2646 C   0  0  0  0  0  0
  -26.0060  -30.7202   21.3881 C   0  0  0  0  0  0
  -26.0783  -29.3328   20.7271 C   0  0  0  0  0  0
  -27.2409  -28.4724   20.7237 C   0  0  0  0  0  0
  -26.0187  -26.8160   19.4701 C   0  0  0  0  0  0
  -24.8821  -27.6498   19.4678 C   0  0  0  0  0  0
  -23.6743  -29.7944   20.1542 C   0  0  0  0  0  0
  -25.4121  -36.3036   24.0324 C   0  0  1  0  0  0
  -20.5930  -28.3734   23.1232 C   0  0  2  0  0  0
  -20.6803  -26.9434   22.5402 C   0  0  0  0  0  0
  -19.5770  -26.6384   21.5218 C   0  0  0  0  0  0
  -18.1950  -26.7945   22.1625 C   0  0  0  0  0  0
  -19.1571  -28.8884   23.2853 C   0  0  0  0  0  0
  -18.9490  -30.1480   23.8875 C   0  0  0  0  0  0
  -17.6484  -30.6601   24.0566 C   0  0  0  0  0  0
  -25.9073  -34.9412   23.5065 C   0  0  0  0  0  0
  -16.5376  -29.9092   23.6344 C   0  0  0  0  0  0
  -16.7297  -28.6516   23.0358 C   0  0  0  0  0  0
  -26.4535  -31.6567   25.0701 C   0  0  0  0  0  0
  -25.3717  -31.3767   26.1397 C   0  0  0  0  0  0
  -27.0406  -30.2963   24.6285 C   0  0  0  0  0  0
  -27.6061  -32.4341   25.7491 C   0  0  0  0  0  0
  -27.5569  -37.1784   24.8475 C   0  0  0  0  0  0
  -21.4270  -29.3066   22.3600 N   0  0  0  0  0  0
  -26.4291  -37.3739   23.9406 N   0  0  0  0  0  0
  -24.7195  -31.0303   22.0918 N   0  0  0  0  0  0
  -23.4215  -28.8109   23.3011 O   0  0  0  0  0  0
  -28.2710  -26.1517   20.2033 O   0  0  0  0  0  0
  -26.5646  -34.8911   22.4638 O   0  0  0  0  0  0
  -23.5559  -32.1319   23.7091 O   0  0  0  0  0  0
  -28.0301  -19.5887   20.6041 C   0  0  0  0  0  0
  -30.5440  -18.5379   20.1239 C   0  0  0  0  0  0
  -28.9919  -20.5924   20.2570 C   0  0  0  0  0  0
  -29.5577  -17.5485   20.4817 C   0  0  0  0  0  0
  -28.2928  -18.1720   20.7197 C   0  0  0  0  0  0
  -30.2813  -19.9792   20.0128 C   0  0  0  0  0  0
  -28.9234  -23.3724   20.2872 C   0  0  0  0  0  0
  -27.9594  -24.6600   19.8879 C   0  0  0  0  0  0
  -28.5125  -22.0380   20.0380 N   0  0  0  0  0  0
  -29.6343  -16.0221   20.6267 N   0  0  0  0  0  0
  -30.0104  -23.6023   20.8216 O   0  0  0  0  0  0
  -27.2608  -17.3629   21.0579 F   0  0  0  0  0  0
  -31.5862  -20.9789   19.4869 Cl  0  0  0  0  0  0
  -31.4849  -12.7486   19.1754 H   0  0  0  0  0  0
  -30.4621  -11.6110   20.0084 H   0  0  0  0  0  0
  -29.8377  -11.7328   17.5763 H   0  0  0  0  0  0
  -29.6134  -13.4599   17.6954 H   0  0  0  0  0  0
  -27.9524  -11.2727   18.9785 H   0  0  0  0  0  0
  -27.3913  -12.4519   17.8241 H   0  0  0  0  0  0
  -27.6093  -14.2476   19.4356 H   0  0  0  0  0  0
  -28.7663  -12.2398   21.4336 H   0  0  0  0  0  0
  -28.3874  -13.9060   21.7890 H   0  0  0  0  0  0
  -25.2777   -9.5666   22.4776 H   0  0  0  0  0  0
  -24.0001   -7.4628   22.7481 H   0  0  0  0  0  0
  -21.0854   -8.8797   19.8955 H   0  0  0  0  0  0
  -22.3738  -10.9682   19.6173 H   0  0  0  0  0  0
  -21.2003   -7.6153   23.9725 H   0  0  0  0  0  0
  -21.1475   -6.0523   25.9078 H   0  0  0  0  0  0
  -22.0599   -2.7618   23.2837 H   0  0  0  0  0  0
  -22.4061  -11.9850   22.4795 H   0  0  0  0  0  0
  -21.1090  -13.1254   22.2646 H   0  0  0  0  0  0
  -24.6448  -15.8353   20.5814 H   0  0  0  0  0  0
  -26.2784  -15.6703   20.2213 H   0  0  0  0  0  0
  -26.7282  -32.5319   23.0999 H   0  0  0  0  0  0
  -25.0118  -33.9627   25.0349 H   0  0  0  0  0  0
  -22.7516  -31.2912   21.3773 H   0  0  0  0  0  0
  -23.3752  -35.9588   23.3354 H   0  0  0  0  0  0
  -24.3553  -36.8807   22.2049 H   0  0  0  0  0  0
  -23.7267  -37.6463   23.6637 H   0  0  0  0  0  0
  -26.1629  -31.4773   20.6187 H   0  0  0  0  0  0
  -26.8759  -30.7675   22.0303 H   0  0  0  0  0  0
  -28.1389  -28.8023   21.2277 H   0  0  0  0  0  0
  -25.9120  -25.8715   18.9590 H   0  0  0  0  0  0
  -23.9841  -27.3104   18.9709 H   0  0  0  0  0  0
  -23.8069  -30.5670   19.3960 H   0  0  0  0  0  0
  -22.7913  -29.2321   19.8456 H   0  0  0  0  0  0
  -25.1318  -36.1863   25.0817 H   0  0  0  0  0  0
  -21.0031  -28.3327   24.1351 H   0  0  0  0  0  0
  -20.5711  -26.2346   23.3622 H   0  0  0  0  0  0
  -21.6663  -26.7445   22.1182 H   0  0  0  0  0  0
  -19.6931  -25.6288   21.1258 H   0  0  0  0  0  0
  -19.6705  -27.3195   20.6745 H   0  0  0  0  0  0
  -17.4219  -26.6702   21.4030 H   0  0  0  0  0  0
  -18.0338  -26.0093   22.9024 H   0  0  0  0  0  0
  -19.7966  -30.7306   24.2223 H   0  0  0  0  0  0
  -17.5044  -31.6281   24.5171 H   0  0  0  0  0  0
  -15.5379  -30.2990   23.7687 H   0  0  0  0  0  0
  -15.8700  -28.0830   22.7089 H   0  0  0  0  0  0
  -24.5913  -30.7095   25.7714 H   0  0  0  0  0  0
  -24.8898  -32.2963   26.4732 H   0  0  0  0  0  0
  -25.7999  -30.8995   27.0225 H   0  0  0  0  0  0
  -26.3031  -29.6677   24.1284 H   0  0  0  0  0  0
  -27.4019  -29.7258   25.4851 H   0  0  0  0  0  0
  -27.8933  -30.4195   23.9607 H   0  0  0  0  0  0
  -27.2646  -33.3664   26.2000 H   0  0  0  0  0  0
  -28.3908  -32.6859   25.0346 H   0  0  0  0  0  0
  -28.0694  -31.8515   26.5462 H   0  0  0  0  0  0
  -28.2609  -38.0056   24.7473 H   0  0  0  0  0  0
  -28.1041  -36.2580   24.6373 H   0  0  0  0  0  0
  -27.2275  -37.1513   25.8877 H   0  0  0  0  0  0
  -20.9482  -29.8748   21.6747 H   0  0  0  0  0  0
  -26.0161  -38.2816   24.1379 H   0  0  0  0  0  0
  -27.0136  -19.9074   20.7806 H   0  0  0  0  0  0
  -31.5416  -18.1916   19.9009 H   0  0  0  0  0  0
  -26.9921  -24.4261   20.3316 H   0  0  0  0  0  0
  -27.8224  -24.5950   18.8082 H   0  0  0  0  0  0
  -27.5738  -22.0557   19.6635 H   0  0  0  0  0  0
  -28.7305  -15.6614   20.8950 H   0  0  0  0  0  0
  1 25  1  0  0  0
  1 30  2  0  0  0
  1 80  1  0  0  0
  2  3  1  0  0  0
  2 25  1  0  0  0
  2 84  1  0  0  0
  2 85  1  0  0  0
  3  4  1  0  0  0
  3 86  1  0  0  0
  3 87  1  0  0  0
  4  5  1  0  0  0
  4 88  1  0  0  0
  4 89  1  0  0  0
  5  6  1  0  0  0
  5 26  1  0  0  0
  5 90  1  0  0  0
  6 25  1  0  0  0
  6 91  1  0  0  0
  6 92  1  0  0  0
  7  8  2  0  0  0
  7 26  1  0  0  0
  7 29  1  0  0  0
  8  9  1  0  0  0
  8 22  1  0  0  0
  9 10  1  0  0  0
  9 27  2  0  0  0
 10 11  2  0  0  0
 10 15  1  0  0  0
 11 12  1  0  0  0
 11 93  1  0  0  0
 12 13  2  0  0  0
 12 94  1  0  0  0
 13 14  1  0  0  0
 13 31  1  0  0  0
 14 15  2  0  0  0
 14 95  1  0  0  0
 15 96  1  0  0  0
 16 17  2  0  0  0
 16 21  1  0  0  0
 16 31  1  0  0  0
 17 18  1  0  0  0
 17 97  1  0  0  0
 18 19  2  0  0  0
 18 98  1  0  0  0
 19 20  1  0  0  0
 19 24  1  0  0  0
 20 21  2  0  0  0
 20 99  1  0  0  0
 21 23  1  0  0  0
 22 28  1  0  0  0
 22 32  2  0  0  0
 26 27  1  0  0  0
 28100  1  0  0  0
 28101  1  0  0  0
 29102  1  0  0  0
 29103  1  0  0  0
 33 34  1  0  0  0
 33 66  1  0  0  0
 33 70  2  0  0  0
 34 36  1  0  0  0
 34 59  1  0  0  0
 34104  1  0  0  0
 35 44  2  0  0  0
 35 45  1  0  0  0
 35 68  1  0  0  0
 36 56  1  0  0  0
 36105  1  0  0  0
 37 39  1  0  0  0
 37 47  1  0  0  0
 37 66  1  0  0  0
 37106  1  0  0  0
 38 43  2  0  0  0
 38 46  1  0  0  0
 38 47  1  0  0  0
 39 64  1  0  0  0
 39 67  2  0  0  0
 40 52  1  0  0  0
 40 53  2  0  0  0
 40 58  1  0  0  0
 41107  1  0  0  0
 41108  1  0  0  0
 41109  1  0  0  0
 41 48  1  0  0  0
 42 43  1  0  0  0
 42 66  1  0  0  0
 42110  1  0  0  0
 42111  1  0  0  0
 43 44  1  0  0  0
 44112  1  0  0  0
 45 46  2  0  0  0
 45113  1  0  0  0
 46114  1  0  0  0
 47115  1  0  0  0
 47116  1  0  0  0
 48 56  1  0  0  0
 48 65  1  0  0  0
 48117  1  0  0  0
 49 50  1  0  0  0
 49 53  1  0  0  0
 49 64  1  0  0  0
 49118  1  0  0  0
 50 51  1  0  0  0
 50119  1  0  0  0
 50120  1  0  0  0
 51 52  1  0  0  0
 51121  1  0  0  0
 51122  1  0  0  0
 52123  1  0  0  0
 52124  1  0  0  0
 53 54  1  0  0  0
 54 55  2  0  0  0
 54125  1  0  0  0
 55 57  1  0  0  0
 55126  1  0  0  0
 56 69  2  0  0  0
 57 58  2  0  0  0
 57127  1  0  0  0
 58128  1  0  0  0
 59 60  1  0  0  0
 59 61  1  0  0  0
 59 62  1  0  0  0
 60129  1  0  0  0
 60130  1  0  0  0
 60131  1  0  0  0
 61132  1  0  0  0
 61133  1  0  0  0
 61134  1  0  0  0
 62135  1  0  0  0
 62136  1  0  0  0
 62137  1  0  0  0
 63 65  1  0  0  0
 63138  1  0  0  0
 63139  1  0  0  0
 63140  1  0  0  0
 64141  1  0  0  0
 65142  1  0  0  0
 68 78  1  0  0  0
 71 73  2  0  0  0
 71 75  1  0  0  0
 71143  1  0  0  0
 72 74  1  0  0  0
 72 76  2  0  0  0
 72144  1  0  0  0
 73 76  1  0  0  0
 73 79  1  0  0  0
 74 75  2  0  0  0
 74 80  1  0  0  0
 75 82  1  0  0  0
 76 83  1  0  0  0
 77 78  1  0  0  0
 77 79  1  0  0  0
 77 81  2  0  0  0
 78145  1  0  0  0
 78146  1  0  0  0
 79147  1  0  0  0
 80148  1  0  0  0
M  ISO  4   1 100  68 101  78 101  80 100
M  END
> <chiral flag>
0

> <version>
0

> <s_m_source_file>
/data/baiqing/PycharmProjects/Reinvent-master-3.2/result/LINK_invent/BTK/process_docking_weight1_custom_sum_contain_oxygen_bond_distance_aromatic_linkinvent_7_9_3/rearranged_h_0010.sdf

> <i_m_source_file_index>
72

> <r_mmod_Potential_Energy-OPLS-2005>
378.129913330078

> <r_mmod_Stretch_Energy-OPLS-2005>
220.394348144531

> <r_mmod_Bend_Energy-OPLS-2005>
275.210571289062

> <r_mmod_Torsional_Energy-OPLS-2005>
228.608795166016

> <r_mmod_Improper_Torsional_Energy-OPLS-2005>
4.72313451766968

> <r_mmod_Van_der_Waal_Energy-OPLS-2005>
129.196685791016

> <r_mmod_Electrostatic_Energy-OPLS-2005>
-412.935821533203

> <r_mmod_Solvation_Energy-OPLS-2005>
-252.217041015625

> <b_mmod_Minimization_Converged-OPLS-2005>
0

> <r_mmod_RMS_Derivative-OPLS-2005>
1.57839596271515

$$$$
72
                    3D
 Structure written by MMmdl.
148156  0  0  1  0            999 V2000
  -30.5214  -14.9152   20.4322 C   0  0  0  0  0  0
  -30.4560  -12.5613   19.4932 C   0  0  0  0  0  0
  -29.5263  -12.5225   18.2560 C   0  0  0  0  0  0
  -28.0560  -12.3176   18.6734 C   0  0  0  0  0  0
  -27.6385  -13.2396   19.8491 C   0  0  2  0  0  0
  -28.6855  -13.2218   20.9846 C   0  0  0  0  0  0
  -25.2459  -13.8158   20.5697 C   0  0  0  0  0  0
  -24.1765  -13.0390   20.9179 C   0  0  0  0  0  0
  -24.6393  -11.6885   20.8728 C   0  0  0  0  0  0
  -23.9070  -10.4267   21.0393 C   0  0  0  0  0  0
  -24.3618   -9.4189   21.9177 C   0  0  0  0  0  0
  -23.6287   -8.2227   22.0750 C   0  0  0  0  0  0
  -22.4268   -8.0269   21.3541 C   0  0  0  0  0  0
  -21.9903   -9.0243   20.4647 C   0  0  0  0  0  0
  -22.7235  -10.2117   20.3050 C   0  0  0  0  0  0
  -21.6852   -6.0726   22.5279 C   0  0  0  0  0  0
  -21.4012   -6.5629   23.8210 C   0  0  0  0  0  0
  -21.3659   -5.6784   24.9173 C   0  0  0  0  0  0
  -21.6046   -4.3046   24.7225 C   0  0  0  0  0  0
  -21.8819   -3.8139   23.4345 C   0  0  0  0  0  0
  -21.9194   -4.6956   22.3402 C   0  0  0  0  0  0
  -22.7791  -13.5179   21.1863 C   0  0  0  0  0  0
  -22.1663   -4.2144   21.0979 F   0  0  0  0  0  0
  -21.5632   -3.4530   25.7737 F   0  0  0  0  0  0
  -29.9702  -13.6372   20.3996 N   0  0  0  0  0  0
  -26.2930  -12.9409   20.3303 N   0  0  0  0  0  0
  -25.9337  -11.6539   20.5759 N   0  0  0  0  0  0
  -22.0457  -12.8183   22.0447 N   0  0  0  0  0  0
  -25.4009  -15.1882   20.4184 N   0  0  0  0  0  0
  -31.7098  -15.0488   20.1197 O   0  0  0  0  0  0
  -21.6633   -6.8868   21.4238 O   0  0  0  0  0  0
  -22.3464  -14.5487   20.6720 O   0  0  0  0  0  0
  -24.6417  -31.8452   23.1899 C   0  0  0  0  0  0
  -25.9199  -32.4701   23.8276 C   0  0  1  0  0  0
  -27.2222  -27.1526   20.1448 C   0  0  0  0  0  0
  -25.5963  -33.8506   24.2202 N   0  0  0  0  0  0
  -23.4442  -30.4662   21.5348 C   0  0  2  0  0  0
  -24.8945  -28.8965   20.1100 C   0  0  0  0  0  0
  -22.7558  -29.4553   22.4857 C   0  0  0  0  0  0
  -18.0310  -28.1394   22.8468 C   0  0  0  0  0  0
  -24.1494  -36.7248   23.2642 C   0  0  0  0  0  0
  -25.9996  -30.7246   21.3863 C   0  0  0  0  0  0
  -26.0726  -29.3379   20.7264 C   0  0  0  0  0  0
  -27.2371  -28.4831   20.7255 C   0  0  0  0  0  0
  -26.0147  -26.8095   19.4943 C   0  0  0  0  0  0
  -24.8785  -27.6452   19.4787 C   0  0  0  0  0  0
  -23.6702  -29.7971   20.1536 C   0  0  0  0  0  0
  -25.4127  -36.3035   24.0318 C   0  0  1  0  0  0
  -20.5917  -28.3714   23.1234 C   0  0  2  0  0  0
  -20.6791  -26.9415   22.5409 C   0  0  0  0  0  0
  -19.5773  -26.6381   21.5204 C   0  0  0  0  0  0
  -18.1953  -26.7936   22.1610 C   0  0  0  0  0  0
  -19.1564  -28.8872   23.2845 C   0  0  0  0  0  0
  -18.9482  -30.1470   23.8868 C   0  0  0  0  0  0
  -17.6479  -30.6588   24.0559 C   0  0  0  0  0  0
  -25.9072  -34.9408   23.5067 C   0  0  0  0  0  0
  -16.5370  -29.9079   23.6341 C   0  0  0  0  0  0
  -16.7295  -28.6502   23.0351 C   0  0  0  0  0  0
  -26.4528  -31.6562   25.0707 C   0  0  0  0  0  0
  -25.3724  -31.3763   26.1419 C   0  0  0  0  0  0
  -27.0377  -30.2957   24.6274 C   0  0  0  0  0  0
  -27.6085  -32.4306   25.7471 C   0  0  0  0  0  0
  -27.5583  -37.1777   24.8465 C   0  0  0  0  0  0
  -21.4253  -29.3042   22.3607 N   0  0  0  0  0  0
  -26.4289  -37.3751   23.9413 N   0  0  0  0  0  0
  -24.7147  -31.0326   22.0924 N   0  0  0  0  0  0
  -23.4214  -28.8101   23.2998 O   0  0  0  0  0  0
  -28.2831  -26.1774   20.2081 O   0  0  0  0  0  0
  -26.5645  -34.8904   22.4637 O   0  0  0  0  0  0
  -23.5543  -32.1321   23.7134 O   0  0  0  0  0  0
  -30.5390  -18.5592   20.3119 C   0  0  0  0  0  0
  -30.2281  -19.9961   20.2516 C   0  0  0  0  0  0
  -27.9577  -19.5005   20.6233 C   0  0  0  0  0  0
  -29.5558  -17.5246   20.5374 C   0  0  0  0  0  0
  -28.9022  -20.5492   20.4006 C   0  0  0  0  0  0
  -28.2572  -18.0929   20.6946 C   0  0  0  0  0  0
  -27.9882  -24.6555   20.0887 C   0  0  0  0  0  0
  -28.9899  -23.3140   20.2894 C   0  0  0  0  0  0
  -29.6477  -16.0010   20.6557 N   0  0  0  0  0  0
  -28.3721  -21.9139   20.3335 O   0  0  0  0  0  0
  -27.2334  -17.2380   20.9233 F   0  0  0  0  0  0
  -31.4877  -12.7311   19.1805 H   0  0  0  0  0  0
  -30.4555  -11.5990   20.0081 H   0  0  0  0  0  0
  -29.8357  -11.7251   17.5785 H   0  0  0  0  0  0
  -29.6217  -13.4538   17.6962 H   0  0  0  0  0  0
  -27.9448  -11.2745   18.9718 H   0  0  0  0  0  0
  -27.3927  -12.4619   17.8198 H   0  0  0  0  0  0
  -27.6113  -14.2499   19.4400 H   0  0  0  0  0  0
  -28.7627  -12.2279   21.4282 H   0  0  0  0  0  0
  -28.3905  -13.8918   21.7938 H   0  0  0  0  0  0
  -25.2762   -9.5668   22.4749 H   0  0  0  0  0  0
  -23.9997   -7.4619   22.7465 H   0  0  0  0  0  0
  -21.0833   -8.8763   19.8957 H   0  0  0  0  0  0
  -22.3691  -10.9656   19.6162 H   0  0  0  0  0  0
  -21.2000   -7.6137   23.9710 H   0  0  0  0  0  0
  -21.1484   -6.0514   25.9077 H   0  0  0  0  0  0
  -22.0601   -2.7602   23.2845 H   0  0  0  0  0  0
  -22.4080  -11.9854   22.4844 H   0  0  0  0  0  0
  -21.1086  -13.1224   22.2682 H   0  0  0  0  0  0
  -24.6307  -15.8255   20.5832 H   0  0  0  0  0  0
  -26.2721  -15.6785   20.2515 H   0  0  0  0  0  0
  -26.7256  -32.5313   23.0995 H   0  0  0  0  0  0
  -25.0120  -33.9624   25.0359 H   0  0  0  0  0  0
  -22.7457  -31.2916   21.3825 H   0  0  0  0  0  0
  -23.3764  -35.9569   23.3295 H   0  0  0  0  0  0
  -24.3583  -36.8891   22.2059 H   0  0  0  0  0  0
  -23.7234  -37.6438   23.6676 H   0  0  0  0  0  0
  -26.1548  -31.4813   20.6161 H   0  0  0  0  0  0
  -26.8698  -30.7733   22.0286 H   0  0  0  0  0  0
  -28.1339  -28.8182   21.2272 H   0  0  0  0  0  0
  -25.9091  -25.8553   19.0022 H   0  0  0  0  0  0
  -23.9799  -27.3022   18.9846 H   0  0  0  0  0  0
  -23.8050  -30.5726   19.3985 H   0  0  0  0  0  0
  -22.7852  -29.2385   19.8435 H   0  0  0  0  0  0
  -25.1315  -36.1864   25.0809 H   0  0  0  0  0  0
  -21.0014  -28.3306   24.1352 H   0  0  0  0  0  0
  -20.5663  -26.2325   23.3628 H   0  0  0  0  0  0
  -21.6662  -26.7413   22.1223 H   0  0  0  0  0  0
  -19.6932  -25.6283   21.1254 H   0  0  0  0  0  0
  -19.6724  -27.3171   20.6718 H   0  0  0  0  0  0
  -17.4226  -26.6676   21.4011 H   0  0  0  0  0  0
  -18.0354  -26.0083   22.9012 H   0  0  0  0  0  0
  -19.7958  -30.7294   24.2221 H   0  0  0  0  0  0
  -17.5034  -31.6265   24.5168 H   0  0  0  0  0  0
  -15.5369  -30.2970   23.7682 H   0  0  0  0  0  0
  -15.8697  -28.0816   22.7070 H   0  0  0  0  0  0
  -24.5924  -30.7070   25.7768 H   0  0  0  0  0  0
  -24.8877  -32.2943   26.4751 H   0  0  0  0  0  0
  -25.8032  -30.9027   27.0250 H   0  0  0  0  0  0
  -26.2980  -29.6682   24.1288 H   0  0  0  0  0  0
  -27.4006  -29.7261   25.4840 H   0  0  0  0  0  0
  -27.8891  -30.4196   23.9575 H   0  0  0  0  0  0
  -27.2716  -33.3639   26.1992 H   0  0  0  0  0  0
  -28.3918  -32.6809   25.0300 H   0  0  0  0  0  0
  -28.0715  -31.8450   26.5425 H   0  0  0  0  0  0
  -28.2603  -38.0072   24.7516 H   0  0  0  0  0  0
  -28.1080  -36.2606   24.6286 H   0  0  0  0  0  0
  -27.2304  -37.1424   25.8870 H   0  0  0  0  0  0
  -20.9449  -29.8759   21.6797 H   0  0  0  0  0  0
  -26.0160  -38.2818   24.1433 H   0  0  0  0  0  0
  -31.5690  -18.2594   20.1836 H   0  0  0  0  0  0
  -31.0442  -20.6817   20.0723 H   0  0  0  0  0  0
  -26.9238  -19.7840   20.7511 H   0  0  0  0  0  0
  -27.1559  -24.4881   20.7736 H   0  0  0  0  0  0
  -27.5690  -24.5159   19.0932 H   0  0  0  0  0  0
  -29.5433  -23.4398   21.2200 H   0  0  0  0  0  0
  -29.7405  -23.3184   19.4988 H   0  0  0  0  0  0
  -28.7399  -15.6306   20.8942 H   0  0  0  0  0  0
  1 25  1  0  0  0
  1 30  2  0  0  0
  1 79  1  0  0  0
  2  3  1  0  0  0
  2 25  1  0  0  0
  2 82  1  0  0  0
  2 83  1  0  0  0
  3  4  1  0  0  0
  3 84  1  0  0  0
  3 85  1  0  0  0
  4  5  1  0  0  0
  4 86  1  0  0  0
  4 87  1  0  0  0
  5  6  1  0  0  0
  5 26  1  0  0  0
  5 88  1  0  0  0
  6 25  1  0  0  0
  6 89  1  0  0  0
  6 90  1  0  0  0
  7  8  2  0  0  0
  7 26  1  0  0  0
  7 29  1  0  0  0
  8  9  1  0  0  0
  8 22  1  0  0  0
  9 10  1  0  0  0
  9 27  2  0  0  0
 10 11  2  0  0  0
 10 15  1  0  0  0
 11 12  1  0  0  0
 11 91  1  0  0  0
 12 13  2  0  0  0
 12 92  1  0  0  0
 13 14  1  0  0  0
 13 31  1  0  0  0
 14 15  2  0  0  0
 14 93  1  0  0  0
 15 94  1  0  0  0
 16 17  2  0  0  0
 16 21  1  0  0  0
 16 31  1  0  0  0
 17 18  1  0  0  0
 17 95  1  0  0  0
 18 19  2  0  0  0
 18 96  1  0  0  0
 19 20  1  0  0  0
 19 24  1  0  0  0
 20 21  2  0  0  0
 20 97  1  0  0  0
 21 23  1  0  0  0
 22 28  1  0  0  0
 22 32  2  0  0  0
 26 27  1  0  0  0
 28 98  1  0  0  0
 28 99  1  0  0  0
 29100  1  0  0  0
 29101  1  0  0  0
 33 34  1  0  0  0
 33 66  1  0  0  0
 33 70  2  0  0  0
 34 36  1  0  0  0
 34 59  1  0  0  0
 34102  1  0  0  0
 35 44  2  0  0  0
 35 45  1  0  0  0
 35 68  1  0  0  0
 36 56  1  0  0  0
 36103  1  0  0  0
 37 39  1  0  0  0
 37 47  1  0  0  0
 37 66  1  0  0  0
 37104  1  0  0  0
 38 43  2  0  0  0
 38 46  1  0  0  0
 38 47  1  0  0  0
 39 64  1  0  0  0
 39 67  2  0  0  0
 40 52  1  0  0  0
 40 53  2  0  0  0
 40 58  1  0  0  0
 41105  1  0  0  0
 41106  1  0  0  0
 41107  1  0  0  0
 41 48  1  0  0  0
 42 43  1  0  0  0
 42 66  1  0  0  0
 42108  1  0  0  0
 42109  1  0  0  0
 43 44  1  0  0  0
 44110  1  0  0  0
 45 46  2  0  0  0
 45111  1  0  0  0
 46112  1  0  0  0
 47113  1  0  0  0
 47114  1  0  0  0
 48 56  1  0  0  0
 48 65  1  0  0  0
 48115  1  0  0  0
 49 50  1  0  0  0
 49 53  1  0  0  0
 49 64  1  0  0  0
 49116  1  0  0  0
 50 51  1  0  0  0
 50117  1  0  0  0
 50118  1  0  0  0
 51 52  1  0  0  0
 51119  1  0  0  0
 51120  1  0  0  0
 52121  1  0  0  0
 52122  1  0  0  0
 53 54  1  0  0  0
 54 55  2  0  0  0
 54123  1  0  0  0
 55 57  1  0  0  0
 55124  1  0  0  0
 56 69  2  0  0  0
 57 58  2  0  0  0
 57125  1  0  0  0
 58126  1  0  0  0
 59 60  1  0  0  0
 59 61  1  0  0  0
 59 62  1  0  0  0
 60127  1  0  0  0
 60128  1  0  0  0
 60129  1  0  0  0
 61130  1  0  0  0
 61131  1  0  0  0
 61132  1  0  0  0
 62133  1  0  0  0
 62134  1  0  0  0
 62135  1  0  0  0
 63 65  1  0  0  0
 63136  1  0  0  0
 63137  1  0  0  0
 63138  1  0  0  0
 64139  1  0  0  0
 65140  1  0  0  0
 68 77  1  0  0  0
 71 72  2  0  0  0
 71 74  1  0  0  0
 71141  1  0  0  0
 72 75  1  0  0  0
 72142  1  0  0  0
 73 75  2  0  0  0
 73 76  1  0  0  0
 73143  1  0  0  0
 74 76  2  0  0  0
 74 79  1  0  0  0
 75 80  1  0  0  0
 76 81  1  0  0  0
 77 78  1  0  0  0
 77144  1  0  0  0
 77145  1  0  0  0
 78 80  1  0  0  0
 78146  1  0  0  0
 78147  1  0  0  0
 79148  1  0  0  0
M  ISO  4   1 100  68 101  77 101  79 100
M  END
> <chiral flag>
0

> <version>
0

> <s_m_source_file>
/data/baiqing/PycharmProjects/Reinvent-master-3.2/result/LINK_invent/BTK/process_docking_weight1_custom_sum_contain_oxygen_bond_distance_aromatic_linkinvent_7_9_3/rearranged_h_0010.sdf

> <i_m_source_file_index>
73

> <r_mmod_Potential_Energy-OPLS-2005>
429.317779541016

> <r_mmod_Stretch_Energy-OPLS-2005>
215.171890258789

> <r_mmod_Bend_Energy-OPLS-2005>
307.654571533203

> <r_mmod_Torsional_Energy-OPLS-2005>
210.088012695312

> <r_mmod_Improper_Torsional_Energy-OPLS-2005>
3.85878729820251

> <r_mmod_Van_der_Waal_Energy-OPLS-2005>
133.190078735352

> <r_mmod_Electrostatic_Energy-OPLS-2005>
-411.460144042969

> <r_mmod_Solvation_Energy-OPLS-2005>
-203.061370849609

> <b_mmod_Minimization_Converged-OPLS-2005>
0

> <r_mmod_RMS_Derivative-OPLS-2005>
0.840658664703369

$$$$
73
                    3D
 Structure written by MMmdl.
152160  0  0  1  0            999 V2000
  -30.6063  -14.6231   20.5153 C   0  0  0  0  0  0
  -30.4437  -12.3847   19.4495 C   0  0  0  0  0  0
  -29.5129  -12.5168   18.2228 C   0  0  0  0  0  0
  -28.0334  -12.3516   18.6300 C   0  0  0  0  0  0
  -27.6540  -13.2116   19.8652 C   0  0  2  0  0  0
  -28.6958  -13.0417   20.9926 C   0  0  0  0  0  0
  -25.2544  -13.8154   20.5667 C   0  0  0  0  0  0
  -24.1817  -13.0428   20.9194 C   0  0  0  0  0  0
  -24.6382  -11.6896   20.8742 C   0  0  0  0  0  0
  -23.9049  -10.4285   21.0414 C   0  0  0  0  0  0
  -24.3604   -9.4203   21.9190 C   0  0  0  0  0  0
  -23.6281   -8.2245   22.0756 C   0  0  0  0  0  0
  -22.4255   -8.0284   21.3558 C   0  0  0  0  0  0
  -21.9891   -9.0257   20.4653 C   0  0  0  0  0  0
  -22.7219  -10.2132   20.3062 C   0  0  0  0  0  0
  -21.6855   -6.0742   22.5289 C   0  0  0  0  0  0
  -21.4014   -6.5646   23.8220 C   0  0  0  0  0  0
  -21.3654   -5.6793   24.9182 C   0  0  0  0  0  0
  -21.6049   -4.3059   24.7213 C   0  0  0  0  0  0
  -21.8819   -3.8153   23.4332 C   0  0  0  0  0  0
  -21.9182   -4.6976   22.3390 C   0  0  0  0  0  0
  -22.7839  -13.5235   21.1852 C   0  0  0  0  0  0
  -22.1660   -4.2175   21.0964 F   0  0  0  0  0  0
  -21.5612   -3.4526   25.7715 F   0  0  0  0  0  0
  -30.0136  -13.3921   20.4370 N   0  0  0  0  0  0
  -26.2972  -12.9325   20.3288 N   0  0  0  0  0  0
  -25.9302  -11.6488   20.5732 N   0  0  0  0  0  0
  -22.0459  -12.8262   22.0422 N   0  0  0  0  0  0
  -25.4216  -15.1871   20.4051 N   0  0  0  0  0  0
  -31.7697  -14.8057   20.1428 O   0  0  0  0  0  0
  -21.6632   -6.8882   21.4249 O   0  0  0  0  0  0
  -22.3546  -14.5533   20.6670 O   0  0  0  0  0  0
  -24.6260  -31.8622   23.2037 C   0  0  0  0  0  0
  -25.9111  -32.4791   23.8365 C   0  0  1  0  0  0
  -27.2193  -27.3300   20.1164 C   0  0  0  0  0  0
  -25.5934  -33.8592   24.2292 N   0  0  0  0  0  0
  -23.4184  -30.4876   21.5464 C   0  0  2  0  0  0
  -24.8622  -28.9466   20.1113 C   0  0  0  0  0  0
  -22.7480  -29.4636   22.4936 C   0  0  0  0  0  0
  -18.0294  -28.1382   22.8473 C   0  0  0  0  0  0
  -24.1491  -36.7310   23.2639 C   0  0  0  0  0  0
  -25.9592  -30.7975   21.3723 C   0  0  0  0  0  0
  -26.0328  -29.4266   20.7126 C   0  0  0  0  0  0
  -27.2153  -28.6308   20.7040 C   0  0  0  0  0  0
  -26.0218  -26.9015   19.4940 C   0  0  0  0  0  0
  -24.8577  -27.6885   19.4943 C   0  0  0  0  0  0
  -23.6317  -29.8268   20.1603 C   0  0  0  0  0  0
  -25.4108  -36.3092   24.0338 C   0  0  1  0  0  0
  -20.5889  -28.3686   23.1274 C   0  0  2  0  0  0
  -20.6781  -26.9407   22.5400 C   0  0  0  0  0  0
  -19.5756  -26.6379   21.5203 C   0  0  0  0  0  0
  -18.1939  -26.7928   22.1618 C   0  0  0  0  0  0
  -19.1544  -28.8848   23.2876 C   0  0  0  0  0  0
  -18.9474  -30.1447   23.8904 C   0  0  0  0  0  0
  -17.6474  -30.6574   24.0557 C   0  0  0  0  0  0
  -25.9045  -34.9462   23.5111 C   0  0  0  0  0  0
  -16.5364  -29.9074   23.6321 C   0  0  0  0  0  0
  -16.7281  -28.6491   23.0341 C   0  0  0  0  0  0
  -26.4481  -31.6602   25.0741 C   0  0  0  0  0  0
  -25.3716  -31.3763   26.1474 C   0  0  0  0  0  0
  -27.0312  -30.3022   24.6188 C   0  0  0  0  0  0
  -27.6034  -32.4343   25.7520 C   0  0  0  0  0  0
  -27.5583  -37.1808   24.8459 C   0  0  0  0  0  0
  -21.4193  -29.3047   22.3675 N   0  0  0  0  0  0
  -26.4289  -37.3781   23.9408 N   0  0  0  0  0  0
  -24.6865  -31.0652   22.0979 N   0  0  0  0  0  0
  -23.4216  -28.8171   23.3005 O   0  0  0  0  0  0
  -28.3353  -26.4808   20.1731 O   0  0  0  0  0  0
  -26.5597  -34.8925   22.4671 O   0  0  0  0  0  0
  -23.5422  -32.1417   23.7375 O   0  0  0  0  0  0
  -28.6291  -17.8580   20.8148 C   0  0  0  0  0  0
  -31.0274  -17.8556   20.6167 C   0  0  0  0  0  0
  -29.8337  -17.1013   20.7490 C   0  0  0  0  0  0
  -29.8049  -20.0353   20.6381 C   0  0  0  0  0  0
  -28.6042  -19.2836   20.7552 C   0  0  0  0  0  0
  -31.0090  -19.2807   20.5707 C   0  0  0  0  0  0
  -29.2149  -23.9855   20.4371 C   0  0  0  0  0  0
  -28.7972  -22.4496   20.3944 C   0  0  0  0  0  0
  -28.0790  -25.0273   20.0826 C   0  0  0  0  0  0
  -29.7586  -15.6439   20.8547 N   0  0  0  0  0  0
  -29.8985  -21.4701   20.6062 N   0  0  0  0  0  0
  -27.4069  -19.9164   20.8289 F   0  0  0  0  0  0
  -32.1865  -19.9465   20.4642 F   0  0  0  0  0  0
  -31.4866  -12.5175   19.1546 H   0  0  0  0  0  0
  -30.3826  -11.3846   19.8805 H   0  0  0  0  0  0
  -29.7775  -11.7816   17.4619 H   0  0  0  0  0  0
  -29.6586  -13.4967   17.7642 H   0  0  0  0  0  0
  -27.8678  -11.2966   18.8505 H   0  0  0  0  0  0
  -27.3830  -12.5907   17.7885 H   0  0  0  0  0  0
  -27.6746  -14.2502   19.5368 H   0  0  0  0  0  0
  -28.7030  -12.0097   21.3436 H   0  0  0  0  0  0
  -28.4412  -13.6488   21.8636 H   0  0  0  0  0  0
  -25.2752   -9.5679   22.4763 H   0  0  0  0  0  0
  -24.0001   -7.4626   22.7459 H   0  0  0  0  0  0
  -21.0835   -8.8775   19.8941 H   0  0  0  0  0  0
  -22.3694  -10.9675   19.6168 H   0  0  0  0  0  0
  -21.2027   -7.6160   23.9736 H   0  0  0  0  0  0
  -21.1474   -6.0518   25.9088 H   0  0  0  0  0  0
  -22.0596   -2.7617   23.2818 H   0  0  0  0  0  0
  -22.4046  -11.9945   22.4874 H   0  0  0  0  0  0
  -21.1065  -13.1310   22.2558 H   0  0  0  0  0  0
  -24.6353  -15.8223   20.4883 H   0  0  0  0  0  0
  -26.2343  -15.6162   19.9830 H   0  0  0  0  0  0
  -26.7192  -32.5453   23.1125 H   0  0  0  0  0  0
  -25.0099  -33.9740   25.0445 H   0  0  0  0  0  0
  -22.7117  -31.3082   21.4049 H   0  0  0  0  0  0
  -23.3755  -35.9645   23.3291 H   0  0  0  0  0  0
  -24.3587  -36.8929   22.2055 H   0  0  0  0  0  0
  -23.7244  -37.6514   23.6662 H   0  0  0  0  0  0
  -26.0903  -31.5622   20.6059 H   0  0  0  0  0  0
  -26.8425  -30.8463   21.9983 H   0  0  0  0  0  0
  -28.1133  -28.9945   21.1831 H   0  0  0  0  0  0
  -25.9472  -25.9396   19.0098 H   0  0  0  0  0  0
  -23.9590  -27.3139   19.0228 H   0  0  0  0  0  0
  -23.7540  -30.6072   19.4074 H   0  0  0  0  0  0
  -22.7509  -29.2604   19.8520 H   0  0  0  0  0  0
  -25.1275  -36.1951   25.0831 H   0  0  0  0  0  0
  -20.9978  -28.3260   24.1398 H   0  0  0  0  0  0
  -20.5672  -26.2301   23.3606 H   0  0  0  0  0  0
  -21.6650  -26.7429   22.1199 H   0  0  0  0  0  0
  -19.6916  -25.6285   21.1247 H   0  0  0  0  0  0
  -19.6686  -27.3180   20.6725 H   0  0  0  0  0  0
  -17.4198  -26.6661   21.4033 H   0  0  0  0  0  0
  -18.0337  -26.0070   22.9013 H   0  0  0  0  0  0
  -19.7950  -30.7252   24.2293 H   0  0  0  0  0  0
  -17.5026  -31.6256   24.5153 H   0  0  0  0  0  0
  -15.5366  -30.2975   23.7645 H   0  0  0  0  0  0
  -15.8682  -28.0810   22.7063 H   0  0  0  0  0  0
  -24.5866  -30.7129   25.7817 H   0  0  0  0  0  0
  -24.8952  -32.2954   26.4908 H   0  0  0  0  0  0
  -25.8047  -30.8935   27.0244 H   0  0  0  0  0  0
  -26.2880  -29.6797   24.1190 H   0  0  0  0  0  0
  -27.3976  -29.7248   25.4685 H   0  0  0  0  0  0
  -27.8766  -30.4304   23.9425 H   0  0  0  0  0  0
  -27.2620  -33.3625   26.2120 H   0  0  0  0  0  0
  -28.3842  -32.6937   25.0358 H   0  0  0  0  0  0
  -28.0709  -31.8468   26.5430 H   0  0  0  0  0  0
  -28.2582  -38.0119   24.7504 H   0  0  0  0  0  0
  -28.1093  -36.2651   24.6270 H   0  0  0  0  0  0
  -27.2309  -37.1430   25.8862 H   0  0  0  0  0  0
  -20.9374  -29.8799   21.6905 H   0  0  0  0  0  0
  -26.0178  -38.2863   24.1400 H   0  0  0  0  0  0
  -27.6833  -17.3452   20.9164 H   0  0  0  0  0  0
  -31.9827  -17.3562   20.5667 H   0  0  0  0  0  0
  -30.0463  -24.1501   19.7514 H   0  0  0  0  0  0
  -29.5963  -24.2165   21.4315 H   0  0  0  0  0  0
  -28.3352  -22.2344   19.4289 H   0  0  0  0  0  0
  -28.0252  -22.2786   21.1469 H   0  0  0  0  0  0
  -27.2243  -24.7914   20.7214 H   0  0  0  0  0  0
  -27.7748  -24.8028   19.0607 H   0  0  0  0  0  0
  -28.8471  -15.2938   21.1086 H   0  0  0  0  0  0
  -30.8487  -21.8211   20.5313 H   0  0  0  0  0  0
  1 25  1  0  0  0
  1 30  2  0  0  0
  1 80  1  0  0  0
  2  3  1  0  0  0
  2 25  1  0  0  0
  2 84  1  0  0  0
  2 85  1  0  0  0
  3  4  1  0  0  0
  3 86  1  0  0  0
  3 87  1  0  0  0
  4  5  1  0  0  0
  4 88  1  0  0  0
  4 89  1  0  0  0
  5  6  1  0  0  0
  5 26  1  0  0  0
  5 90  1  0  0  0
  6 25  1  0  0  0
  6 91  1  0  0  0
  6 92  1  0  0  0
  7  8  2  0  0  0
  7 26  1  0  0  0
  7 29  1  0  0  0
  8  9  1  0  0  0
  8 22  1  0  0  0
  9 10  1  0  0  0
  9 27  2  0  0  0
 10 11  2  0  0  0
 10 15  1  0  0  0
 11 12  1  0  0  0
 11 93  1  0  0  0
 12 13  2  0  0  0
 12 94  1  0  0  0
 13 14  1  0  0  0
 13 31  1  0  0  0
 14 15  2  0  0  0
 14 95  1  0  0  0
 15 96  1  0  0  0
 16 17  2  0  0  0
 16 21  1  0  0  0
 16 31  1  0  0  0
 17 18  1  0  0  0
 17 97  1  0  0  0
 18 19  2  0  0  0
 18 98  1  0  0  0
 19 20  1  0  0  0
 19 24  1  0  0  0
 20 21  2  0  0  0
 20 99  1  0  0  0
 21 23  1  0  0  0
 22 28  1  0  0  0
 22 32  2  0  0  0
 26 27  1  0  0  0
 28100  1  0  0  0
 28101  1  0  0  0
 29102  1  0  0  0
 29103  1  0  0  0
 33 34  1  0  0  0
 33 66  1  0  0  0
 33 70  2  0  0  0
 34 36  1  0  0  0
 34 59  1  0  0  0
 34104  1  0  0  0
 35 44  2  0  0  0
 35 45  1  0  0  0
 35 68  1  0  0  0
 36 56  1  0  0  0
 36105  1  0  0  0
 37 39  1  0  0  0
 37 47  1  0  0  0
 37 66  1  0  0  0
 37106  1  0  0  0
 38 43  2  0  0  0
 38 46  1  0  0  0
 38 47  1  0  0  0
 39 64  1  0  0  0
 39 67  2  0  0  0
 40 52  1  0  0  0
 40 53  2  0  0  0
 40 58  1  0  0  0
 41107  1  0  0  0
 41108  1  0  0  0
 41109  1  0  0  0
 41 48  1  0  0  0
 42 43  1  0  0  0
 42 66  1  0  0  0
 42110  1  0  0  0
 42111  1  0  0  0
 43 44  1  0  0  0
 44112  1  0  0  0
 45 46  2  0  0  0
 45113  1  0  0  0
 46114  1  0  0  0
 47115  1  0  0  0
 47116  1  0  0  0
 48 56  1  0  0  0
 48 65  1  0  0  0
 48117  1  0  0  0
 49 50  1  0  0  0
 49 53  1  0  0  0
 49 64  1  0  0  0
 49118  1  0  0  0
 50 51  1  0  0  0
 50119  1  0  0  0
 50120  1  0  0  0
 51 52  1  0  0  0
 51121  1  0  0  0
 51122  1  0  0  0
 52123  1  0  0  0
 52124  1  0  0  0
 53 54  1  0  0  0
 54 55  2  0  0  0
 54125  1  0  0  0
 55 57  1  0  0  0
 55126  1  0  0  0
 56 69  2  0  0  0
 57 58  2  0  0  0
 57127  1  0  0  0
 58128  1  0  0  0
 59 60  1  0  0  0
 59 61  1  0  0  0
 59 62  1  0  0  0
 60129  1  0  0  0
 60130  1  0  0  0
 60131  1  0  0  0
 61132  1  0  0  0
 61133  1  0  0  0
 61134  1  0  0  0
 62135  1  0  0  0
 62136  1  0  0  0
 62137  1  0  0  0
 63 65  1  0  0  0
 63138  1  0  0  0
 63139  1  0  0  0
 63140  1  0  0  0
 64141  1  0  0  0
 65142  1  0  0  0
 68 79  1  0  0  0
 71 73  2  0  0  0
 71 75  1  0  0  0
 71143  1  0  0  0
 72 73  1  0  0  0
 72 76  2  0  0  0
 72144  1  0  0  0
 73 80  1  0  0  0
 74 75  2  0  0  0
 74 76  1  0  0  0
 74 81  1  0  0  0
 75 82  1  0  0  0
 76 83  1  0  0  0
 77 78  1  0  0  0
 77 79  1  0  0  0
 77145  1  0  0  0
 77146  1  0  0  0
 78 81  1  0  0  0
 78147  1  0  0  0
 78148  1  0  0  0
 79149  1  0  0  0
 79150  1  0  0  0
 80151  1  0  0  0
 81152  1  0  0  0
M  ISO  4   1 100  68 101  79 101  80 100
M  END
> <chiral flag>
0

> <version>
0

> <s_m_source_file>
/data/baiqing/PycharmProjects/Reinvent-master-3.2/result/LINK_invent/BTK/process_docking_weight1_custom_sum_contain_oxygen_bond_distance_aromatic_linkinvent_7_9_3/rearranged_h_0010.sdf

> <i_m_source_file_index>
74

> <r_mmod_Potential_Energy-OPLS-2005>
103.327980041504

> <r_mmod_Stretch_Energy-OPLS-2005>
71.3842620849609

> <r_mmod_Bend_Energy-OPLS-2005>
144.369171142578

> <r_mmod_Torsional_Energy-OPLS-2005>
201.401962280273

> <r_mmod_Improper_Torsional_Energy-OPLS-2005>
5.45223808288574

> <r_mmod_Van_der_Waal_Energy-OPLS-2005>
147.165420532227

> <r_mmod_Electrostatic_Energy-OPLS-2005>
-300.085418701172

> <r_mmod_Solvation_Energy-OPLS-2005>
-211.568115234375

> <b_mmod_Minimization_Converged-OPLS-2005>
0

> <r_mmod_RMS_Derivative-OPLS-2005>
2.2572910785675

$$$$
74
                    3D
 Structure written by MMmdl.
148156  0  0  1  0            999 V2000
  -30.5204  -14.9199   20.4222 C   0  0  0  0  0  0
  -30.4515  -12.5657   19.4868 C   0  0  0  0  0  0
  -29.5236  -12.5307   18.2487 C   0  0  0  0  0  0
  -28.0538  -12.3214   18.6644 C   0  0  0  0  0  0
  -27.6358  -13.2383   19.8430 C   0  0  2  0  0  0
  -28.6827  -13.2292   20.9784 C   0  0  0  0  0  0
  -25.2489  -13.8181   20.5712 C   0  0  0  0  0  0
  -24.1800  -13.0421   20.9241 C   0  0  0  0  0  0
  -24.6404  -11.6904   20.8754 C   0  0  0  0  0  0
  -23.9080  -10.4284   21.0408 C   0  0  0  0  0  0
  -24.3626   -9.4198   21.9185 C   0  0  0  0  0  0
  -23.6297   -8.2235   22.0755 C   0  0  0  0  0  0
  -22.4278   -8.0277   21.3545 C   0  0  0  0  0  0
  -21.9916   -9.0254   20.4649 C   0  0  0  0  0  0
  -22.7250  -10.2130   20.3057 C   0  0  0  0  0  0
  -21.6851   -6.0737   22.5278 C   0  0  0  0  0  0
  -21.4014   -6.5641   23.8214 C   0  0  0  0  0  0
  -21.3660   -5.6791   24.9176 C   0  0  0  0  0  0
  -21.6043   -4.3055   24.7223 C   0  0  0  0  0  0
  -21.8820   -3.8148   23.4346 C   0  0  0  0  0  0
  -21.9193   -4.6965   22.3403 C   0  0  0  0  0  0
  -22.7820  -13.5206   21.1890 C   0  0  0  0  0  0
  -22.1662   -4.2150   21.0980 F   0  0  0  0  0  0
  -21.5629   -3.4539   25.7736 F   0  0  0  0  0  0
  -29.9649  -13.6441   20.3892 N   0  0  0  0  0  0
  -26.2915  -12.9403   20.3242 N   0  0  0  0  0  0
  -25.9332  -11.6539   20.5729 N   0  0  0  0  0  0
  -22.0461  -12.8197   22.0442 N   0  0  0  0  0  0
  -25.4114  -15.1902   20.4139 N   0  0  0  0  0  0
  -31.7178  -15.0422   20.1410 O   0  0  0  0  0  0
  -21.6639   -6.8879   21.4241 O   0  0  0  0  0  0
  -22.3500  -14.5507   20.6728 O   0  0  0  0  0  0
  -24.6431  -31.8451   23.1896 C   0  0  0  0  0  0
  -25.9206  -32.4699   23.8283 C   0  0  1  0  0  0
  -27.2188  -27.1416   20.1447 C   0  0  0  0  0  0
  -25.5957  -33.8507   24.2196 N   0  0  0  0  0  0
  -23.4468  -30.4657   21.5351 C   0  0  2  0  0  0
  -24.8974  -28.8966   20.1088 C   0  0  0  0  0  0
  -22.7569  -29.4555   22.4859 C   0  0  0  0  0  0
  -18.0306  -28.1397   22.8478 C   0  0  0  0  0  0
  -24.1494  -36.7255   23.2641 C   0  0  0  0  0  0
  -26.0038  -30.7192   21.3905 C   0  0  0  0  0  0
  -26.0752  -29.3319   20.7295 C   0  0  0  0  0  0
  -27.2360  -28.4701   20.7331 C   0  0  0  0  0  0
  -26.0152  -26.8138   19.4783 C   0  0  0  0  0  0
  -24.8803  -27.6505   19.4680 C   0  0  0  0  0  0
  -23.6736  -29.7977   20.1535 C   0  0  0  0  0  0
  -25.4126  -36.3031   24.0313 C   0  0  1  0  0  0
  -20.5922  -28.3723   23.1234 C   0  0  2  0  0  0
  -20.6790  -26.9425   22.5403 C   0  0  0  0  0  0
  -19.5764  -26.6380   21.5214 C   0  0  0  0  0  0
  -18.1946  -26.7932   22.1625 C   0  0  0  0  0  0
  -19.1563  -28.8878   23.2849 C   0  0  0  0  0  0
  -18.9477  -30.1475   23.8873 C   0  0  0  0  0  0
  -17.6473  -30.6592   24.0557 C   0  0  0  0  0  0
  -25.9079  -34.9407   23.5063 C   0  0  0  0  0  0
  -16.5366  -29.9084   23.6335 C   0  0  0  0  0  0
  -16.7290  -28.6504   23.0356 C   0  0  0  0  0  0
  -26.4524  -31.6567   25.0725 C   0  0  0  0  0  0
  -25.3704  -31.3766   26.1417 C   0  0  0  0  0  0
  -27.0384  -30.2955   24.6321 C   0  0  0  0  0  0
  -27.6058  -32.4330   25.7508 C   0  0  0  0  0  0
  -27.5578  -37.1785   24.8463 C   0  0  0  0  0  0
  -21.4261  -29.3050   22.3607 N   0  0  0  0  0  0
  -26.4288  -37.3744   23.9408 N   0  0  0  0  0  0
  -24.7176  -31.0309   22.0932 N   0  0  0  0  0  0
  -23.4213  -28.8097   23.3004 O   0  0  0  0  0  0
  -28.2607  -26.1444   20.2251 O   0  0  0  0  0  0
  -26.5661  -34.8902   22.4641 O   0  0  0  0  0  0
  -23.5549  -32.1327   23.7117 O   0  0  0  0  0  0
  -30.3742  -18.5716   21.0472 C   0  0  0  0  0  0
  -28.3104  -19.5434   19.4964 C   0  0  0  0  0  0
  -29.6173  -17.5396   20.3780 C   0  0  0  0  0  0
  -29.0270  -20.5814   20.1784 C   0  0  0  0  0  0
  -30.1020  -20.0113   20.9566 C   0  0  0  0  0  0
  -28.5751  -18.1237   19.5870 C   0  0  0  0  0  0
  -28.8990  -23.3619   20.3678 C   0  0  0  0  0  0
  -27.9302  -24.6454   19.9634 C   0  0  0  0  0  0
  -28.5429  -22.0341   20.0205 N   0  0  0  0  0  0
  -29.6499  -16.0201   20.5959 N   0  0  0  0  0  0
  -29.9434  -23.5919   20.9810 O   0  0  0  0  0  0
  -30.8881  -20.8451   21.6767 F   0  0  0  0  0  0
  -27.5405  -17.0677   18.6940 Cl  0  0  0  0  0  0
  -31.4837  -12.7359   19.1751 H   0  0  0  0  0  0
  -30.4487  -11.6032   20.0010 H   0  0  0  0  0  0
  -29.8358  -11.7410   17.5638 H   0  0  0  0  0  0
  -29.6165  -13.4680   17.6977 H   0  0  0  0  0  0
  -27.9394  -11.2759   18.9532 H   0  0  0  0  0  0
  -27.3927  -12.4748   17.8108 H   0  0  0  0  0  0
  -27.6078  -14.2465   19.4316 H   0  0  0  0  0  0
  -28.7619  -12.2388   21.4292 H   0  0  0  0  0  0
  -28.3870  -13.9065   21.7810 H   0  0  0  0  0  0
  -25.2772   -9.5671   22.4762 H   0  0  0  0  0  0
  -24.0003   -7.4626   22.7474 H   0  0  0  0  0  0
  -21.0845   -8.8777   19.8956 H   0  0  0  0  0  0
  -22.3711  -10.9672   19.6169 H   0  0  0  0  0  0
  -21.2004   -7.6149   23.9716 H   0  0  0  0  0  0
  -21.1483   -6.0523   25.9077 H   0  0  0  0  0  0
  -22.0598   -2.7610   23.2844 H   0  0  0  0  0  0
  -22.4081  -11.9869   22.4846 H   0  0  0  0  0  0
  -21.1075  -13.1219   22.2640 H   0  0  0  0  0  0
  -24.6243  -15.8231   20.5020 H   0  0  0  0  0  0
  -26.2129  -15.6260   19.9748 H   0  0  0  0  0  0
  -26.7274  -32.5306   23.1016 H   0  0  0  0  0  0
  -25.0077  -33.9628   25.0323 H   0  0  0  0  0  0
  -22.7488  -31.2912   21.3819 H   0  0  0  0  0  0
  -23.3761  -35.9584   23.3290 H   0  0  0  0  0  0
  -24.3577  -36.8901   22.2059 H   0  0  0  0  0  0
  -23.7248  -37.6446   23.6686 H   0  0  0  0  0  0
  -26.1626  -31.4762   20.6213 H   0  0  0  0  0  0
  -26.8728  -30.7664   22.0353 H   0  0  0  0  0  0
  -28.1301  -28.7959   21.2461 H   0  0  0  0  0  0
  -25.9071  -25.8657   18.9743 H   0  0  0  0  0  0
  -23.9823  -27.3132   18.9686 H   0  0  0  0  0  0
  -23.8092  -30.5740   19.3993 H   0  0  0  0  0  0
  -22.7886  -29.2398   19.8415 H   0  0  0  0  0  0
  -25.1319  -36.1857   25.0804 H   0  0  0  0  0  0
  -21.0013  -28.3311   24.1358 H   0  0  0  0  0  0
  -20.5687  -26.2336   23.3625 H   0  0  0  0  0  0
  -21.6655  -26.7433   22.1201 H   0  0  0  0  0  0
  -19.6925  -25.6285   21.1262 H   0  0  0  0  0  0
  -19.6700  -27.3175   20.6734 H   0  0  0  0  0  0
  -17.4215  -26.6675   21.4031 H   0  0  0  0  0  0
  -18.0348  -26.0084   22.9030 H   0  0  0  0  0  0
  -19.7953  -30.7299   24.2228 H   0  0  0  0  0  0
  -17.5025  -31.6270   24.5164 H   0  0  0  0  0  0
  -15.5363  -30.2977   23.7674 H   0  0  0  0  0  0
  -15.8690  -28.0812   22.7084 H   0  0  0  0  0  0
  -24.5887  -30.7113   25.7735 H   0  0  0  0  0  0
  -24.8892  -32.2953   26.4780 H   0  0  0  0  0  0
  -25.7980  -30.8975   27.0235 H   0  0  0  0  0  0
  -26.3006  -29.6679   24.1309 H   0  0  0  0  0  0
  -27.3962  -29.7257   25.4909 H   0  0  0  0  0  0
  -27.8933  -30.4175   23.9664 H   0  0  0  0  0  0
  -27.2650  -33.3641   26.2047 H   0  0  0  0  0  0
  -28.3887  -32.6875   25.0351 H   0  0  0  0  0  0
  -28.0707  -31.8482   26.5456 H   0  0  0  0  0  0
  -28.2587  -38.0087   24.7508 H   0  0  0  0  0  0
  -28.1081  -36.2619   24.6293 H   0  0  0  0  0  0
  -27.2295  -37.1432   25.8864 H   0  0  0  0  0  0
  -20.9470  -29.8755   21.6782 H   0  0  0  0  0  0
  -26.0154  -38.2813   24.1406 H   0  0  0  0  0  0
  -31.1722  -18.2607   21.7043 H   0  0  0  0  0  0
  -27.4796  -19.8367   18.8716 H   0  0  0  0  0  0
  -26.9800  -24.4371   20.4570 H   0  0  0  0  0  0
  -27.7409  -24.5441   18.8946 H   0  0  0  0  0  0
  -27.6810  -22.0689   19.4953 H   0  0  0  0  0  0
  -28.7152  -15.6589   20.7092 H   0  0  0  0  0  0
  1 25  1  0  0  0
  1 30  2  0  0  0
  1 80  1  0  0  0
  2  3  1  0  0  0
  2 25  1  0  0  0
  2 84  1  0  0  0
  2 85  1  0  0  0
  3  4  1  0  0  0
  3 86  1  0  0  0
  3 87  1  0  0  0
  4  5  1  0  0  0
  4 88  1  0  0  0
  4 89  1  0  0  0
  5  6  1  0  0  0
  5 26  1  0  0  0
  5 90  1  0  0  0
  6 25  1  0  0  0
  6 91  1  0  0  0
  6 92  1  0  0  0
  7  8  2  0  0  0
  7 26  1  0  0  0
  7 29  1  0  0  0
  8  9  1  0  0  0
  8 22  1  0  0  0
  9 10  1  0  0  0
  9 27  2  0  0  0
 10 11  2  0  0  0
 10 15  1  0  0  0
 11 12  1  0  0  0
 11 93  1  0  0  0
 12 13  2  0  0  0
 12 94  1  0  0  0
 13 14  1  0  0  0
 13 31  1  0  0  0
 14 15  2  0  0  0
 14 95  1  0  0  0
 15 96  1  0  0  0
 16 17  2  0  0  0
 16 21  1  0  0  0
 16 31  1  0  0  0
 17 18  1  0  0  0
 17 97  1  0  0  0
 18 19  2  0  0  0
 18 98  1  0  0  0
 19 20  1  0  0  0
 19 24  1  0  0  0
 20 21  2  0  0  0
 20 99  1  0  0  0
 21 23  1  0  0  0
 22 28  1  0  0  0
 22 32  2  0  0  0
 26 27  1  0  0  0
 28100  1  0  0  0
 28101  1  0  0  0
 29102  1  0  0  0
 29103  1  0  0  0
 33 34  1  0  0  0
 33 66  1  0  0  0
 33 70  2  0  0  0
 34 36  1  0  0  0
 34 59  1  0  0  0
 34104  1  0  0  0
 35 44  2  0  0  0
 35 45  1  0  0  0
 35 68  1  0  0  0
 36 56  1  0  0  0
 36105  1  0  0  0
 37 39  1  0  0  0
 37 47  1  0  0  0
 37 66  1  0  0  0
 37106  1  0  0  0
 38 43  2  0  0  0
 38 46  1  0  0  0
 38 47  1  0  0  0
 39 64  1  0  0  0
 39 67  2  0  0  0
 40 52  1  0  0  0
 40 53  2  0  0  0
 40 58  1  0  0  0
 41107  1  0  0  0
 41108  1  0  0  0
 41109  1  0  0  0
 41 48  1  0  0  0
 42 43  1  0  0  0
 42 66  1  0  0  0
 42110  1  0  0  0
 42111  1  0  0  0
 43 44  1  0  0  0
 44112  1  0  0  0
 45 46  2  0  0  0
 45113  1  0  0  0
 46114  1  0  0  0
 47115  1  0  0  0
 47116  1  0  0  0
 48 56  1  0  0  0
 48 65  1  0  0  0
 48117  1  0  0  0
 49 50  1  0  0  0
 49 53  1  0  0  0
 49 64  1  0  0  0
 49118  1  0  0  0
 50 51  1  0  0  0
 50119  1  0  0  0
 50120  1  0  0  0
 51 52  1  0  0  0
 51121  1  0  0  0
 51122  1  0  0  0
 52123  1  0  0  0
 52124  1  0  0  0
 53 54  1  0  0  0
 54 55  2  0  0  0
 54125  1  0  0  0
 55 57  1  0  0  0
 55126  1  0  0  0
 56 69  2  0  0  0
 57 58  2  0  0  0
 57127  1  0  0  0
 58128  1  0  0  0
 59 60  1  0  0  0
 59 61  1  0  0  0
 59 62  1  0  0  0
 60129  1  0  0  0
 60130  1  0  0  0
 60131  1  0  0  0
 61132  1  0  0  0
 61133  1  0  0  0
 61134  1  0  0  0
 62135  1  0  0  0
 62136  1  0  0  0
 62137  1  0  0  0
 63 65  1  0  0  0
 63138  1  0  0  0
 63139  1  0  0  0
 63140  1  0  0  0
 64141  1  0  0  0
 65142  1  0  0  0
 68 78  1  0  0  0
 71 73  2  0  0  0
 71 75  1  0  0  0
 71143  1  0  0  0
 72 74  1  0  0  0
 72 76  2  0  0  0
 72144  1  0  0  0
 73 76  1  0  0  0
 73 80  1  0  0  0
 74 75  2  0  0  0
 74 79  1  0  0  0
 75 82  1  0  0  0
 76 83  1  0  0  0
 77 78  1  0  0  0
 77 79  1  0  0  0
 77 81  2  0  0  0
 78145  1  0  0  0
 78146  1  0  0  0
 79147  1  0  0  0
 80148  1  0  0  0
M  ISO  4   1 100  68 101  78 101  80 100
M  END
> <chiral flag>
0

> <version>
0

> <s_m_source_file>
/data/baiqing/PycharmProjects/Reinvent-master-3.2/result/LINK_invent/BTK/process_docking_weight1_custom_sum_contain_oxygen_bond_distance_aromatic_linkinvent_7_9_3/rearranged_h_0010.sdf

> <i_m_source_file_index>
75

> <r_mmod_Potential_Energy-OPLS-2005>
384.859466552734

> <r_mmod_Stretch_Energy-OPLS-2005>
220.520233154297

> <r_mmod_Bend_Energy-OPLS-2005>
267.625915527344

> <r_mmod_Torsional_Energy-OPLS-2005>
240.501495361328

> <r_mmod_Improper_Torsional_Energy-OPLS-2005>
6.81895685195923

> <r_mmod_Van_der_Waal_Energy-OPLS-2005>
126.908294677734

> <r_mmod_Electrostatic_Energy-OPLS-2005>
-404.080993652344

> <r_mmod_Solvation_Energy-OPLS-2005>
-256.457611083984

> <b_mmod_Minimization_Converged-OPLS-2005>
0

> <r_mmod_RMS_Derivative-OPLS-2005>
0.821168065071106

$$$$
75
                    3D
 Structure written by MMmdl.
157166  0  0  1  0            999 V2000
  -30.6227  -14.6201   20.5329 C   0  0  0  0  0  0
  -30.4401  -12.3821   19.4539 C   0  0  0  0  0  0
  -29.5143  -12.5191   18.2255 C   0  0  0  0  0  0
  -28.0313  -12.3741   18.6271 C   0  0  0  0  0  0
  -27.6594  -13.2226   19.8734 C   0  0  2  0  0  0
  -28.7013  -13.0405   21.0003 C   0  0  0  0  0  0
  -25.2558  -13.8173   20.5674 C   0  0  0  0  0  0
  -24.1827  -13.0430   20.9175 C   0  0  0  0  0  0
  -24.6403  -11.6903   20.8714 C   0  0  0  0  0  0
  -23.9064  -10.4287   21.0388 C   0  0  0  0  0  0
  -24.3608   -9.4205   21.9174 C   0  0  0  0  0  0
  -23.6278   -8.2246   22.0751 C   0  0  0  0  0  0
  -22.4263   -8.0281   21.3544 C   0  0  0  0  0  0
  -21.9891   -9.0259   20.4656 C   0  0  0  0  0  0
  -22.7224  -10.2134   20.3053 C   0  0  0  0  0  0
  -21.6853   -6.0729   22.5274 C   0  0  0  0  0  0
  -21.4027   -6.5629   23.8209 C   0  0  0  0  0  0
  -21.3660   -5.6781   24.9171 C   0  0  0  0  0  0
  -21.6049   -4.3046   24.7221 C   0  0  0  0  0  0
  -21.8819   -3.8133   23.4346 C   0  0  0  0  0  0
  -21.9191   -4.6955   22.3403 C   0  0  0  0  0  0
  -22.7845  -13.5228   21.1842 C   0  0  0  0  0  0
  -22.1655   -4.2131   21.0975 F   0  0  0  0  0  0
  -21.5619   -3.4532   25.7742 F   0  0  0  0  0  0
  -30.0242  -13.3891   20.4511 N   0  0  0  0  0  0
  -26.3018  -12.9375   20.3349 N   0  0  0  0  0  0
  -25.9341  -11.6518   20.5745 N   0  0  0  0  0  0
  -22.0475  -12.8256   22.0421 N   0  0  0  0  0  0
  -25.4237  -15.1901   20.4089 N   0  0  0  0  0  0
  -31.7442  -14.8287   20.0577 O   0  0  0  0  0  0
  -21.6638   -6.8875   21.4238 O   0  0  0  0  0  0
  -22.3523  -14.5513   20.6658 O   0  0  0  0  0  0
  -24.6253  -31.8612   23.2037 C   0  0  0  0  0  0
  -25.9090  -32.4783   23.8364 C   0  0  1  0  0  0
  -27.2218  -27.3192   20.1125 C   0  0  0  0  0  0
  -25.5885  -33.8586   24.2274 N   0  0  0  0  0  0
  -23.4188  -30.4873   21.5466 C   0  0  2  0  0  0
  -24.8649  -28.9463   20.1085 C   0  0  0  0  0  0
  -22.7466  -29.4637   22.4927 C   0  0  0  0  0  0
  -18.0283  -28.1400   22.8488 C   0  0  0  0  0  0
  -24.1483  -36.7309   23.2642 C   0  0  0  0  0  0
  -25.9628  -30.7908   21.3776 C   0  0  0  0  0  0
  -26.0352  -29.4202   20.7156 C   0  0  0  0  0  0
  -27.2161  -28.6187   20.7085 C   0  0  0  0  0  0
  -26.0282  -26.9074   19.4720 C   0  0  0  0  0  0
  -24.8645  -27.6955   19.4766 C   0  0  0  0  0  0
  -23.6333  -29.8261   20.1605 C   0  0  0  0  0  0
  -25.4107  -36.3090   24.0324 C   0  0  1  0  0  0
  -20.5885  -28.3702   23.1278 C   0  0  2  0  0  0
  -20.6770  -26.9424   22.5410 C   0  0  0  0  0  0
  -19.5745  -26.6386   21.5220 C   0  0  0  0  0  0
  -18.1924  -26.7938   22.1633 C   0  0  0  0  0  0
  -19.1539  -28.8867   23.2880 C   0  0  0  0  0  0
  -18.9464  -30.1465   23.8899 C   0  0  0  0  0  0
  -17.6469  -30.6601   24.0573 C   0  0  0  0  0  0
  -25.9041  -34.9455   23.5111 C   0  0  0  0  0  0
  -16.5356  -29.9104   23.6331 C   0  0  0  0  0  0
  -16.7271  -28.6524   23.0349 C   0  0  0  0  0  0
  -26.4478  -31.6611   25.0744 C   0  0  0  0  0  0
  -25.3697  -31.3750   26.1455 C   0  0  0  0  0  0
  -27.0340  -30.3030   24.6232 C   0  0  0  0  0  0
  -27.6023  -32.4371   25.7515 C   0  0  0  0  0  0
  -27.5564  -37.1822   24.8469 C   0  0  0  0  0  0
  -21.4179  -29.3059   22.3670 N   0  0  0  0  0  0
  -26.4294  -37.3774   23.9382 N   0  0  0  0  0  0
  -24.6875  -31.0628   22.0984 N   0  0  0  0  0  0
  -23.4199  -28.8173   23.2994 O   0  0  0  0  0  0
  -28.3323  -26.4583   20.1778 O   0  0  0  0  0  0
  -26.5633  -34.8927   22.4694 O   0  0  0  0  0  0
  -23.5410  -32.1409   23.7353 O   0  0  0  0  0  0
  -29.9708  -19.2120   19.7437 C   0  0  0  0  0  0
  -30.2243  -17.8057   19.8435 C   0  0  0  0  0  0
  -29.1849  -17.7922   22.0188 C   0  0  0  0  0  0
  -28.2712  -20.1025   22.8343 C   0  0  0  0  0  0
  -28.9216  -19.1927   21.9489 C   0  0  0  0  0  0
  -29.3041  -19.9226   20.7796 C   0  0  0  0  0  0
  -29.8165  -17.0583   20.9825 C   0  0  0  0  0  0
  -28.1931  -21.3169   22.2051 C   0  0  0  0  0  0
  -27.4641  -22.5075   22.7458 C   0  0  0  0  0  0
  -29.1485  -23.9121   20.4196 C   0  0  0  0  0  0
  -28.8609  -22.4002   19.9658 C   0  0  0  0  0  0
  -28.0963  -25.0114   19.9540 C   0  0  0  0  0  0
  -28.8467  -21.2696   20.9617 N   0  0  0  0  0  0
  -29.8717  -15.6038   21.1151 N   0  0  0  0  0  0
  -31.4835  -12.4994   19.1572 H   0  0  0  0  0  0
  -30.3614  -11.3790   19.8789 H   0  0  0  0  0  0
  -29.7694  -11.7682   17.4760 H   0  0  0  0  0  0
  -29.6763  -13.4892   17.7541 H   0  0  0  0  0  0
  -27.8451  -11.3191   18.8300 H   0  0  0  0  0  0
  -27.3868  -12.6392   17.7878 H   0  0  0  0  0  0
  -27.6887  -14.2677   19.5609 H   0  0  0  0  0  0
  -28.7053  -12.0082   21.3510 H   0  0  0  0  0  0
  -28.4391  -13.6404   21.8729 H   0  0  0  0  0  0
  -25.2753   -9.5689   22.4753 H   0  0  0  0  0  0
  -23.9985   -7.4640   22.7472 H   0  0  0  0  0  0
  -21.0811   -8.8780   19.8980 H   0  0  0  0  0  0
  -22.3662  -10.9671   19.6166 H   0  0  0  0  0  0
  -21.2033   -7.6143   23.9708 H   0  0  0  0  0  0
  -21.1477   -6.0515   25.9070 H   0  0  0  0  0  0
  -22.0596   -2.7597   23.2848 H   0  0  0  0  0  0
  -22.4057  -11.9943   22.4876 H   0  0  0  0  0  0
  -21.1098  -13.1318   22.2601 H   0  0  0  0  0  0
  -24.6564  -15.8432   20.5224 H   0  0  0  0  0  0
  -26.2818  -15.6349   20.1055 H   0  0  0  0  0  0
  -26.7165  -32.5458   23.1123 H   0  0  0  0  0  0
  -24.9952  -33.9733   25.0357 H   0  0  0  0  0  0
  -22.7124  -31.3084   21.4069 H   0  0  0  0  0  0
  -23.3714  -35.9680   23.3357 H   0  0  0  0  0  0
  -24.3554  -36.8873   22.2045 H   0  0  0  0  0  0
  -23.7289  -37.6551   23.6632 H   0  0  0  0  0  0
  -26.1013  -31.5570   20.6128 H   0  0  0  0  0  0
  -26.8394  -30.8324   22.0117 H   0  0  0  0  0  0
  -28.1130  -28.9783   21.1939 H   0  0  0  0  0  0
  -25.9578  -25.9562   18.9666 H   0  0  0  0  0  0
  -23.9707  -27.3297   18.9892 H   0  0  0  0  0  0
  -23.7531  -30.6059   19.4074 H   0  0  0  0  0  0
  -22.7515  -29.2587   19.8568 H   0  0  0  0  0  0
  -25.1299  -36.1947   25.0820 H   0  0  0  0  0  0
  -20.9994  -28.3286   24.1391 H   0  0  0  0  0  0
  -20.5669  -26.2320   23.3616 H   0  0  0  0  0  0
  -21.6639  -26.7447   22.1215 H   0  0  0  0  0  0
  -19.6898  -25.6292   21.1259 H   0  0  0  0  0  0
  -19.6675  -27.3187   20.6743 H   0  0  0  0  0  0
  -17.4190  -26.6674   21.4038 H   0  0  0  0  0  0
  -18.0327  -26.0091   22.9044 H   0  0  0  0  0  0
  -19.7941  -30.7276   24.2269 H   0  0  0  0  0  0
  -17.5026  -31.6279   24.5181 H   0  0  0  0  0  0
  -15.5357  -30.3016   23.7653 H   0  0  0  0  0  0
  -15.8666  -28.0851   22.7055 H   0  0  0  0  0  0
  -24.5895  -30.7078   25.7775 H   0  0  0  0  0  0
  -24.8862  -32.2914   26.4853 H   0  0  0  0  0  0
  -25.8009  -30.8954   27.0249 H   0  0  0  0  0  0
  -26.2943  -29.6778   24.1223 H   0  0  0  0  0  0
  -27.3979  -29.7293   25.4766 H   0  0  0  0  0  0
  -27.8829  -30.4303   23.9508 H   0  0  0  0  0  0
  -27.2617  -33.3661   26.2100 H   0  0  0  0  0  0
  -28.3822  -32.6957   25.0340 H   0  0  0  0  0  0
  -28.0714  -31.8510   26.5425 H   0  0  0  0  0  0
  -28.2639  -38.0065   24.7433 H   0  0  0  0  0  0
  -28.1007  -36.2590   24.6404 H   0  0  0  0  0  0
  -27.2268  -37.1604   25.8877 H   0  0  0  0  0  0
  -20.9337  -29.8792   21.6901 H   0  0  0  0  0  0
  -26.0176  -38.2861   24.1338 H   0  0  0  0  0  0
  -30.2655  -19.7442   18.8501 H   0  0  0  0  0  0
  -30.6962  -17.2987   19.0110 H   0  0  0  0  0  0
  -28.8445  -17.2736   22.9039 H   0  0  0  0  0  0
  -27.8539  -19.8437   23.7984 H   0  0  0  0  0  0
  -26.7274  -22.2037   23.4917 H   0  0  0  0  0  0
  -26.9214  -23.0403   21.9684 H   0  0  0  0  0  0
  -28.1461  -23.1973   23.2413 H   0  0  0  0  0  0
  -30.1136  -24.1904   19.9975 H   0  0  0  0  0  0
  -29.3022  -23.9755   21.4944 H   0  0  0  0  0  0
  -29.5790  -22.1387   19.1873 H   0  0  0  0  0  0
  -27.8938  -22.3727   19.4632 H   0  0  0  0  0  0
  -27.1582  -24.7409   20.4389 H   0  0  0  0  0  0
  -27.9382  -24.8761   18.8832 H   0  0  0  0  0  0
  -29.1072  -15.2127   21.6457 H   0  0  0  0  0  0
  1 25  1  0  0  0
  1 30  2  0  0  0
  1 84  1  0  0  0
  2  3  1  0  0  0
  2 25  1  0  0  0
  2 85  1  0  0  0
  2 86  1  0  0  0
  3  4  1  0  0  0
  3 87  1  0  0  0
  3 88  1  0  0  0
  4  5  1  0  0  0
  4 89  1  0  0  0
  4 90  1  0  0  0
  5  6  1  0  0  0
  5 26  1  0  0  0
  5 91  1  0  0  0
  6 25  1  0  0  0
  6 92  1  0  0  0
  6 93  1  0  0  0
  7  8  2  0  0  0
  7 26  1  0  0  0
  7 29  1  0  0  0
  8  9  1  0  0  0
  8 22  1  0  0  0
  9 10  1  0  0  0
  9 27  2  0  0  0
 10 11  2  0  0  0
 10 15  1  0  0  0
 11 12  1  0  0  0
 11 94  1  0  0  0
 12 13  2  0  0  0
 12 95  1  0  0  0
 13 14  1  0  0  0
 13 31  1  0  0  0
 14 15  2  0  0  0
 14 96  1  0  0  0
 15 97  1  0  0  0
 16 17  2  0  0  0
 16 21  1  0  0  0
 16 31  1  0  0  0
 17 18  1  0  0  0
 17 98  1  0  0  0
 18 19  2  0  0  0
 18 99  1  0  0  0
 19 20  1  0  0  0
 19 24  1  0  0  0
 20 21  2  0  0  0
 20100  1  0  0  0
 21 23  1  0  0  0
 22 28  1  0  0  0
 22 32  2  0  0  0
 26 27  1  0  0  0
 28101  1  0  0  0
 28102  1  0  0  0
 29103  1  0  0  0
 29104  1  0  0  0
 33 34  1  0  0  0
 33 66  1  0  0  0
 33 70  2  0  0  0
 34 36  1  0  0  0
 34 59  1  0  0  0
 34105  1  0  0  0
 35 44  2  0  0  0
 35 45  1  0  0  0
 35 68  1  0  0  0
 36 56  1  0  0  0
 36106  1  0  0  0
 37 39  1  0  0  0
 37 47  1  0  0  0
 37 66  1  0  0  0
 37107  1  0  0  0
 38 43  2  0  0  0
 38 46  1  0  0  0
 38 47  1  0  0  0
 39 64  1  0  0  0
 39 67  2  0  0  0
 40 52  1  0  0  0
 40 53  2  0  0  0
 40 58  1  0  0  0
 41108  1  0  0  0
 41109  1  0  0  0
 41110  1  0  0  0
 41 48  1  0  0  0
 42 43  1  0  0  0
 42 66  1  0  0  0
 42111  1  0  0  0
 42112  1  0  0  0
 43 44  1  0  0  0
 44113  1  0  0  0
 45 46  2  0  0  0
 45114  1  0  0  0
 46115  1  0  0  0
 47116  1  0  0  0
 47117  1  0  0  0
 48 56  1  0  0  0
 48 65  1  0  0  0
 48118  1  0  0  0
 49 50  1  0  0  0
 49 53  1  0  0  0
 49 64  1  0  0  0
 49119  1  0  0  0
 50 51  1  0  0  0
 50120  1  0  0  0
 50121  1  0  0  0
 51 52  1  0  0  0
 51122  1  0  0  0
 51123  1  0  0  0
 52124  1  0  0  0
 52125  1  0  0  0
 53 54  1  0  0  0
 54 55  2  0  0  0
 54126  1  0  0  0
 55 57  1  0  0  0
 55127  1  0  0  0
 56 69  2  0  0  0
 57 58  2  0  0  0
 57128  1  0  0  0
 58129  1  0  0  0
 59 60  1  0  0  0
 59 61  1  0  0  0
 59 62  1  0  0  0
 60130  1  0  0  0
 60131  1  0  0  0
 60132  1  0  0  0
 61133  1  0  0  0
 61134  1  0  0  0
 61135  1  0  0  0
 62136  1  0  0  0
 62137  1  0  0  0
 62138  1  0  0  0
 63 65  1  0  0  0
 63139  1  0  0  0
 63140  1  0  0  0
 63141  1  0  0  0
 64142  1  0  0  0
 65143  1  0  0  0
 68 82  1  0  0  0
 71 72  2  0  0  0
 71 76  1  0  0  0
 71144  1  0  0  0
 72 77  1  0  0  0
 72145  1  0  0  0
 73 75  1  0  0  0
 73 77  2  0  0  0
 73146  1  0  0  0
 74 75  1  0  0  0
 74 78  2  0  0  0
 74147  1  0  0  0
 75 76  2  0  0  0
 76 83  1  0  0  0
 77 84  1  0  0  0
 78 79  1  0  0  0
 78 83  1  0  0  0
 79148  1  0  0  0
 79149  1  0  0  0
 79150  1  0  0  0
 80 81  1  0  0  0
 80 82  1  0  0  0
 80151  1  0  0  0
 80152  1  0  0  0
 81 83  1  0  0  0
 81153  1  0  0  0
 81154  1  0  0  0
 82155  1  0  0  0
 82156  1  0  0  0
 84157  1  0  0  0
M  ISO  4   1 100  68 101  82 101  84 100
M  END
> <chiral flag>
0

> <version>
0

> <s_m_source_file>
/data/baiqing/PycharmProjects/Reinvent-master-3.2/result/LINK_invent/BTK/process_docking_weight1_custom_sum_contain_oxygen_bond_distance_aromatic_linkinvent_7_9_3/rearranged_h_0010.sdf

> <i_m_source_file_index>
76

> <r_mmod_Potential_Energy-OPLS-2005>
102.190063476562

> <r_mmod_Stretch_Energy-OPLS-2005>
81.4874114990234

> <r_mmod_Bend_Energy-OPLS-2005>
146.033020019531

> <r_mmod_Torsional_Energy-OPLS-2005>
239.343978881836

> <r_mmod_Improper_Torsional_Energy-OPLS-2005>
4.1771411895752

> <r_mmod_Van_der_Waal_Energy-OPLS-2005>
141.175964355469

> <r_mmod_Electrostatic_Energy-OPLS-2005>
-346.341217041016

> <r_mmod_Solvation_Energy-OPLS-2005>
-209.853302001953

> <b_mmod_Minimization_Converged-OPLS-2005>
0

> <r_mmod_RMS_Derivative-OPLS-2005>
2.12615275382996

$$$$
76
                    3D
 Structure written by MMmdl.
148156  0  0  1  0            999 V2000
  -30.5203  -14.9255   20.4250 C   0  0  0  0  0  0
  -30.4519  -12.5707   19.4896 C   0  0  0  0  0  0
  -29.5242  -12.5323   18.2515 C   0  0  0  0  0  0
  -28.0555  -12.3193   18.6682 C   0  0  0  0  0  0
  -27.6360  -13.2389   19.8440 C   0  0  2  0  0  0
  -28.6821  -13.2334   20.9800 C   0  0  0  0  0  0
  -25.2485  -13.8177   20.5726 C   0  0  0  0  0  0
  -24.1794  -13.0414   20.9242 C   0  0  0  0  0  0
  -24.6402  -11.6901   20.8755 C   0  0  0  0  0  0
  -23.9079  -10.4280   21.0407 C   0  0  0  0  0  0
  -24.3625   -9.4196   21.9186 C   0  0  0  0  0  0
  -23.6294   -8.2235   22.0755 C   0  0  0  0  0  0
  -22.4276   -8.0278   21.3544 C   0  0  0  0  0  0
  -21.9915   -9.0253   20.4646 C   0  0  0  0  0  0
  -22.7250  -10.2128   20.3056 C   0  0  0  0  0  0
  -21.6852   -6.0734   22.5279 C   0  0  0  0  0  0
  -21.4013   -6.5639   23.8212 C   0  0  0  0  0  0
  -21.3659   -5.6792   24.9175 C   0  0  0  0  0  0
  -21.6044   -4.3054   24.7225 C   0  0  0  0  0  0
  -21.8819   -3.8146   23.4346 C   0  0  0  0  0  0
  -21.9192   -4.6962   22.3402 C   0  0  0  0  0  0
  -22.7814  -13.5198   21.1889 C   0  0  0  0  0  0
  -22.1661   -4.2148   21.0980 F   0  0  0  0  0  0
  -21.5629   -3.4538   25.7738 F   0  0  0  0  0  0
  -29.9642  -13.6493   20.3915 N   0  0  0  0  0  0
  -26.2914  -12.9404   20.3253 N   0  0  0  0  0  0
  -25.9332  -11.6540   20.5734 N   0  0  0  0  0  0
  -22.0458  -12.8190   22.0442 N   0  0  0  0  0  0
  -25.4098  -15.1900   20.4164 N   0  0  0  0  0  0
  -31.7158  -15.0466   20.1351 O   0  0  0  0  0  0
  -21.6637   -6.8877   21.4241 O   0  0  0  0  0  0
  -22.3496  -14.5500   20.6727 O   0  0  0  0  0  0
  -24.6433  -31.8448   23.1896 C   0  0  0  0  0  0
  -25.9207  -32.4699   23.8282 C   0  0  1  0  0  0
  -27.2202  -27.1423   20.1444 C   0  0  0  0  0  0
  -25.5955  -33.8506   24.2196 N   0  0  0  0  0  0
  -23.4470  -30.4650   21.5350 C   0  0  2  0  0  0
  -24.8977  -28.8962   20.1088 C   0  0  0  0  0  0
  -22.7569  -29.4550   22.4860 C   0  0  0  0  0  0
  -18.0305  -28.1396   22.8477 C   0  0  0  0  0  0
  -24.1492  -36.7257   23.2642 C   0  0  0  0  0  0
  -26.0037  -30.7191   21.3900 C   0  0  0  0  0  0
  -26.0752  -29.3318   20.7299 C   0  0  0  0  0  0
  -27.2363  -28.4702   20.7339 C   0  0  0  0  0  0
  -26.0173  -26.8151   19.4761 C   0  0  0  0  0  0
  -24.8815  -27.6507   19.4669 C   0  0  0  0  0  0
  -23.6736  -29.7968   20.1536 C   0  0  0  0  0  0
  -25.4124  -36.3035   24.0316 C   0  0  1  0  0  0
  -20.5918  -28.3723   23.1234 C   0  0  2  0  0  0
  -20.6790  -26.9426   22.5403 C   0  0  0  0  0  0
  -19.5762  -26.6382   21.5212 C   0  0  0  0  0  0
  -18.1944  -26.7934   22.1624 C   0  0  0  0  0  0
  -19.1562  -28.8877   23.2847 C   0  0  0  0  0  0
  -18.9478  -30.1473   23.8874 C   0  0  0  0  0  0
  -17.6474  -30.6592   24.0559 C   0  0  0  0  0  0
  -25.9074  -34.9410   23.5064 C   0  0  0  0  0  0
  -16.5365  -29.9084   23.6336 C   0  0  0  0  0  0
  -16.7290  -28.6503   23.0357 C   0  0  0  0  0  0
  -26.4527  -31.6567   25.0724 C   0  0  0  0  0  0
  -25.3709  -31.3756   26.1416 C   0  0  0  0  0  0
  -27.0396  -30.2963   24.6310 C   0  0  0  0  0  0
  -27.6054  -32.4336   25.7510 C   0  0  0  0  0  0
  -27.5576  -37.1786   24.8466 C   0  0  0  0  0  0
  -21.4261  -29.3049   22.3607 N   0  0  0  0  0  0
  -26.4288  -37.3747   23.9407 N   0  0  0  0  0  0
  -24.7177  -31.0305   22.0932 N   0  0  0  0  0  0
  -23.4212  -28.8095   23.3008 O   0  0  0  0  0  0
  -28.2624  -26.1450   20.2266 O   0  0  0  0  0  0
  -26.5659  -34.8905   22.4642 O   0  0  0  0  0  0
  -23.5551  -32.1324   23.7114 O   0  0  0  0  0  0
  -30.0949  -20.0183   20.9457 C   0  0  0  0  0  0
  -30.3753  -18.5812   21.0496 C   0  0  0  0  0  0
  -28.2982  -19.5386   19.5027 C   0  0  0  0  0  0
  -29.0164  -20.5830   20.1727 C   0  0  0  0  0  0
  -29.6174  -17.5438   20.3893 C   0  0  0  0  0  0
  -28.5683  -18.1205   19.6011 C   0  0  0  0  0  0
  -28.8917  -23.3587   20.3695 C   0  0  0  0  0  0
  -27.9382  -24.6483   19.9469 C   0  0  0  0  0  0
  -28.5392  -22.0349   20.0053 N   0  0  0  0  0  0
  -29.6550  -16.0272   20.6184 N   0  0  0  0  0  0
  -29.9204  -23.5725   21.0163 O   0  0  0  0  0  0
  -27.5315  -17.0563   18.7197 Cl  0  0  0  0  0  0
  -31.4833  -12.7416   19.1773 H   0  0  0  0  0  0
  -30.4511  -11.6093   20.0058 H   0  0  0  0  0  0
  -29.8379  -11.7428   17.5673 H   0  0  0  0  0  0
  -29.6139  -13.4692   17.6993 H   0  0  0  0  0  0
  -27.9454  -11.2748   18.9623 H   0  0  0  0  0  0
  -27.3928  -12.4667   17.8146 H   0  0  0  0  0  0
  -27.6065  -14.2459   19.4303 H   0  0  0  0  0  0
  -28.7630  -12.2440   21.4325 H   0  0  0  0  0  0
  -28.3850  -13.9115   21.7817 H   0  0  0  0  0  0
  -25.2769   -9.5670   22.4763 H   0  0  0  0  0  0
  -24.0000   -7.4625   22.7476 H   0  0  0  0  0  0
  -21.0846   -8.8776   19.8952 H   0  0  0  0  0  0
  -22.3712  -10.9670   19.6167 H   0  0  0  0  0  0
  -21.2006   -7.6147   23.9715 H   0  0  0  0  0  0
  -21.1482   -6.0522   25.9078 H   0  0  0  0  0  0
  -22.0599   -2.7608   23.2847 H   0  0  0  0  0  0
  -22.4080  -11.9858   22.4837 H   0  0  0  0  0  0
  -21.1073  -13.1211   22.2642 H   0  0  0  0  0  0
  -24.6223  -15.8218   20.5048 H   0  0  0  0  0  0
  -26.2129  -15.6278   19.9821 H   0  0  0  0  0  0
  -26.7273  -32.5307   23.1011 H   0  0  0  0  0  0
  -25.0080  -33.9622   25.0328 H   0  0  0  0  0  0
  -22.7494  -31.2911   21.3817 H   0  0  0  0  0  0
  -23.3759  -35.9584   23.3293 H   0  0  0  0  0  0
  -24.3576  -36.8900   22.2059 H   0  0  0  0  0  0
  -23.7243  -37.6449   23.6686 H   0  0  0  0  0  0
  -26.1609  -31.4747   20.6190 H   0  0  0  0  0  0
  -26.8734  -30.7675   22.0335 H   0  0  0  0  0  0
  -28.1300  -28.7967   21.2470 H   0  0  0  0  0  0
  -25.9114  -25.8689   18.9682 H   0  0  0  0  0  0
  -23.9846  -27.3138   18.9654 H   0  0  0  0  0  0
  -23.8094  -30.5725   19.3991 H   0  0  0  0  0  0
  -22.7888  -29.2386   19.8424 H   0  0  0  0  0  0
  -25.1312  -36.1864   25.0808 H   0  0  0  0  0  0
  -21.0010  -28.3312   24.1355 H   0  0  0  0  0  0
  -20.5684  -26.2337   23.3622 H   0  0  0  0  0  0
  -21.6655  -26.7432   22.1200 H   0  0  0  0  0  0
  -19.6924  -25.6286   21.1257 H   0  0  0  0  0  0
  -19.6698  -27.3178   20.6731 H   0  0  0  0  0  0
  -17.4212  -26.6676   21.4029 H   0  0  0  0  0  0
  -18.0346  -26.0082   22.9028 H   0  0  0  0  0  0
  -19.7953  -30.7296   24.2233 H   0  0  0  0  0  0
  -17.5027  -31.6270   24.5165 H   0  0  0  0  0  0
  -15.5364  -30.2978   23.7674 H   0  0  0  0  0  0
  -15.8690  -28.0813   22.7086 H   0  0  0  0  0  0
  -24.5896  -30.7096   25.7734 H   0  0  0  0  0  0
  -24.8889  -32.2937   26.4784 H   0  0  0  0  0  0
  -25.7990  -30.8966   27.0231 H   0  0  0  0  0  0
  -26.3019  -29.6682   24.1304 H   0  0  0  0  0  0
  -27.3992  -29.7266   25.4890 H   0  0  0  0  0  0
  -27.8934  -30.4197   23.9644 H   0  0  0  0  0  0
  -27.2644  -33.3655   26.2032 H   0  0  0  0  0  0
  -28.3894  -32.6867   25.0361 H   0  0  0  0  0  0
  -28.0690  -31.8500   26.5473 H   0  0  0  0  0  0
  -28.2587  -38.0089   24.7510 H   0  0  0  0  0  0
  -28.1078  -36.2617   24.6297 H   0  0  0  0  0  0
  -27.2292  -37.1438   25.8868 H   0  0  0  0  0  0
  -20.9472  -29.8764   21.6787 H   0  0  0  0  0  0
  -26.0155  -38.2816   24.1407 H   0  0  0  0  0  0
  -30.7202  -20.6957   21.5105 H   0  0  0  0  0  0
  -31.1776  -18.2768   21.7064 H   0  0  0  0  0  0
  -27.4623  -19.8250   18.8816 H   0  0  0  0  0  0
  -26.9760  -24.4362   20.4142 H   0  0  0  0  0  0
  -27.7778  -24.5562   18.8724 H   0  0  0  0  0  0
  -27.6891  -22.0762   19.4590 H   0  0  0  0  0  0
  -28.7228  -15.6678   20.7529 H   0  0  0  0  0  0
  1 25  1  0  0  0
  1 30  2  0  0  0
  1 80  1  0  0  0
  2  3  1  0  0  0
  2 25  1  0  0  0
  2 83  1  0  0  0
  2 84  1  0  0  0
  3  4  1  0  0  0
  3 85  1  0  0  0
  3 86  1  0  0  0
  4  5  1  0  0  0
  4 87  1  0  0  0
  4 88  1  0  0  0
  5  6  1  0  0  0
  5 26  1  0  0  0
  5 89  1  0  0  0
  6 25  1  0  0  0
  6 90  1  0  0  0
  6 91  1  0  0  0
  7  8  2  0  0  0
  7 26  1  0  0  0
  7 29  1  0  0  0
  8  9  1  0  0  0
  8 22  1  0  0  0
  9 10  1  0  0  0
  9 27  2  0  0  0
 10 11  2  0  0  0
 10 15  1  0  0  0
 11 12  1  0  0  0
 11 92  1  0  0  0
 12 13  2  0  0  0
 12 93  1  0  0  0
 13 14  1  0  0  0
 13 31  1  0  0  0
 14 15  2  0  0  0
 14 94  1  0  0  0
 15 95  1  0  0  0
 16 17  2  0  0  0
 16 21  1  0  0  0
 16 31  1  0  0  0
 17 18  1  0  0  0
 17 96  1  0  0  0
 18 19  2  0  0  0
 18 97  1  0  0  0
 19 20  1  0  0  0
 19 24  1  0  0  0
 20 21  2  0  0  0
 20 98  1  0  0  0
 21 23  1  0  0  0
 22 28  1  0  0  0
 22 32  2  0  0  0
 26 27  1  0  0  0
 28 99  1  0  0  0
 28100  1  0  0  0
 29101  1  0  0  0
 29102  1  0  0  0
 33 34  1  0  0  0
 33 66  1  0  0  0
 33 70  2  0  0  0
 34 36  1  0  0  0
 34 59  1  0  0  0
 34103  1  0  0  0
 35 44  2  0  0  0
 35 45  1  0  0  0
 35 68  1  0  0  0
 36 56  1  0  0  0
 36104  1  0  0  0
 37 39  1  0  0  0
 37 47  1  0  0  0
 37 66  1  0  0  0
 37105  1  0  0  0
 38 43  2  0  0  0
 38 46  1  0  0  0
 38 47  1  0  0  0
 39 64  1  0  0  0
 39 67  2  0  0  0
 40 52  1  0  0  0
 40 53  2  0  0  0
 40 58  1  0  0  0
 41106  1  0  0  0
 41107  1  0  0  0
 41108  1  0  0  0
 41 48  1  0  0  0
 42 43  1  0  0  0
 42 66  1  0  0  0
 42109  1  0  0  0
 42110  1  0  0  0
 43 44  1  0  0  0
 44111  1  0  0  0
 45 46  2  0  0  0
 45112  1  0  0  0
 46113  1  0  0  0
 47114  1  0  0  0
 47115  1  0  0  0
 48 56  1  0  0  0
 48 65  1  0  0  0
 48116  1  0  0  0
 49 50  1  0  0  0
 49 53  1  0  0  0
 49 64  1  0  0  0
 49117  1  0  0  0
 50 51  1  0  0  0
 50118  1  0  0  0
 50119  1  0  0  0
 51 52  1  0  0  0
 51120  1  0  0  0
 51121  1  0  0  0
 52122  1  0  0  0
 52123  1  0  0  0
 53 54  1  0  0  0
 54 55  2  0  0  0
 54124  1  0  0  0
 55 57  1  0  0  0
 55125  1  0  0  0
 56 69  2  0  0  0
 57 58  2  0  0  0
 57126  1  0  0  0
 58127  1  0  0  0
 59 60  1  0  0  0
 59 61  1  0  0  0
 59 62  1  0  0  0
 60128  1  0  0  0
 60129  1  0  0  0
 60130  1  0  0  0
 61131  1  0  0  0
 61132  1  0  0  0
 61133  1  0  0  0
 62134  1  0  0  0
 62135  1  0  0  0
 62136  1  0  0  0
 63 65  1  0  0  0
 63137  1  0  0  0
 63138  1  0  0  0
 63139  1  0  0  0
 64140  1  0  0  0
 65141  1  0  0  0
 68 78  1  0  0  0
 71 72  2  0  0  0
 71 74  1  0  0  0
 71142  1  0  0  0
 72 75  1  0  0  0
 72143  1  0  0  0
 73 74  2  0  0  0
 73 76  1  0  0  0
 73144  1  0  0  0
 74 79  1  0  0  0
 75 76  2  0  0  0
 75 80  1  0  0  0
 76 82  1  0  0  0
 77 78  1  0  0  0
 77 79  1  0  0  0
 77 81  2  0  0  0
 78145  1  0  0  0
 78146  1  0  0  0
 79147  1  0  0  0
 80148  1  0  0  0
M  ISO  4   1 100  68 101  78 101  80 100
M  END
> <chiral flag>
0

> <version>
0

> <s_m_source_file>
/data/baiqing/PycharmProjects/Reinvent-master-3.2/result/LINK_invent/BTK/process_docking_weight1_custom_sum_contain_oxygen_bond_distance_aromatic_linkinvent_7_9_3/rearranged_h_0010.sdf

> <i_m_source_file_index>
77

> <r_mmod_Potential_Energy-OPLS-2005>
400.090301513672

> <r_mmod_Stretch_Energy-OPLS-2005>
219.318695068359

> <r_mmod_Bend_Energy-OPLS-2005>
266.553741455078

> <r_mmod_Torsional_Energy-OPLS-2005>
240.335113525391

> <r_mmod_Improper_Torsional_Energy-OPLS-2005>
6.64368438720703

> <r_mmod_Van_der_Waal_Energy-OPLS-2005>
127.499252319336

> <r_mmod_Electrostatic_Energy-OPLS-2005>
-399.175964355469

> <r_mmod_Solvation_Energy-OPLS-2005>
-245.835098266602

> <b_mmod_Minimization_Converged-OPLS-2005>
1

> <r_mmod_RMS_Derivative-OPLS-2005>
0.0446435287594795

$$$$
77
                    3D
 Structure written by MMmdl.
154162  0  0  1  0            999 V2000
  -30.7249  -14.4759   20.5726 C   0  0  0  0  0  0
  -30.4145  -12.3115   19.4256 C   0  0  0  0  0  0
  -29.4911  -12.4991   18.2062 C   0  0  0  0  0  0
  -28.0132  -12.3622   18.6199 C   0  0  0  0  0  0
  -27.6577  -13.2118   19.8695 C   0  0  2  0  0  0
  -28.7011  -13.0209   20.9936 C   0  0  0  0  0  0
  -25.2574  -13.8174   20.5682 C   0  0  0  0  0  0
  -24.1835  -13.0443   20.9185 C   0  0  0  0  0  0
  -24.6395  -11.6910   20.8736 C   0  0  0  0  0  0
  -23.9064  -10.4294   21.0409 C   0  0  0  0  0  0
  -24.3616   -9.4209   21.9188 C   0  0  0  0  0  0
  -23.6290   -8.2244   22.0755 C   0  0  0  0  0  0
  -22.4273   -8.0285   21.3545 C   0  0  0  0  0  0
  -21.9914   -9.0257   20.4644 C   0  0  0  0  0  0
  -22.7239  -10.2137   20.3055 C   0  0  0  0  0  0
  -21.6851   -6.0739   22.5279 C   0  0  0  0  0  0
  -21.4012   -6.5642   23.8213 C   0  0  0  0  0  0
  -21.3658   -5.6794   24.9175 C   0  0  0  0  0  0
  -21.6044   -4.3058   24.7225 C   0  0  0  0  0  0
  -21.8820   -3.8151   23.4346 C   0  0  0  0  0  0
  -21.9192   -4.6967   22.3402 C   0  0  0  0  0  0
  -22.7860  -13.5236   21.1854 C   0  0  0  0  0  0
  -22.1662   -4.2152   21.0979 F   0  0  0  0  0  0
  -21.5629   -3.4542   25.7737 F   0  0  0  0  0  0
  -30.0280  -13.3148   20.4309 N   0  0  0  0  0  0
  -26.3007  -12.9352   20.3352 N   0  0  0  0  0  0
  -25.9321  -11.6507   20.5765 N   0  0  0  0  0  0
  -22.0507  -12.8218   22.0405 N   0  0  0  0  0  0
  -25.4294  -15.1894   20.4081 N   0  0  0  0  0  0
  -31.8599  -14.6200   20.1097 O   0  0  0  0  0  0
  -21.6638   -6.8881   21.4241 O   0  0  0  0  0  0
  -22.3544  -14.5547   20.6708 O   0  0  0  0  0  0
  -24.6175  -31.8680   23.2113 C   0  0  0  0  0  0
  -25.9064  -32.4821   23.8408 C   0  0  1  0  0  0
  -27.2230  -27.4091   20.0931 C   0  0  0  0  0  0
  -25.5913  -33.8621   24.2336 N   0  0  0  0  0  0
  -23.4052  -30.4949   21.5532 C   0  0  2  0  0  0
  -24.8485  -28.9664   20.1110 C   0  0  0  0  0  0
  -22.7424  -29.4664   22.4984 C   0  0  0  0  0  0
  -18.0275  -28.1380   22.8497 C   0  0  0  0  0  0
  -24.1487  -36.7309   23.2641 C   0  0  0  0  0  0
  -25.9393  -30.8250   21.3705 C   0  0  0  0  0  0
  -26.0133  -29.4610   20.7110 C   0  0  0  0  0  0
  -27.2031  -28.6908   20.6988 C   0  0  0  0  0  0
  -26.0372  -26.9509   19.4672 C   0  0  0  0  0  0
  -24.8574  -27.7120   19.4846 C   0  0  0  0  0  0
  -23.6127  -29.8351   20.1657 C   0  0  0  0  0  0
  -25.4109  -36.3112   24.0339 C   0  0  1  0  0  0
  -20.5870  -28.3676   23.1310 C   0  0  2  0  0  0
  -20.6766  -26.9410   22.5414 C   0  0  0  0  0  0
  -19.5738  -26.6385   21.5215 C   0  0  0  0  0  0
  -18.1919  -26.7927   22.1626 C   0  0  0  0  0  0
  -19.1527  -28.8845   23.2898 C   0  0  0  0  0  0
  -18.9452  -30.1452   23.8905 C   0  0  0  0  0  0
  -17.6455  -30.6589   24.0564 C   0  0  0  0  0  0
  -25.9038  -34.9476   23.5132 C   0  0  0  0  0  0
  -16.5345  -29.9089   23.6330 C   0  0  0  0  0  0
  -16.7263  -28.6504   23.0355 C   0  0  0  0  0  0
  -26.4481  -31.6598   25.0740 C   0  0  0  0  0  0
  -25.3737  -31.3685   26.1473 C   0  0  0  0  0  0
  -27.0334  -30.3048   24.6131 C   0  0  0  0  0  0
  -27.6052  -32.4324   25.7505 C   0  0  0  0  0  0
  -27.5582  -37.1808   24.8468 C   0  0  0  0  0  0
  -21.4151  -29.3041   22.3718 N   0  0  0  0  0  0
  -26.4298  -37.3797   23.9409 N   0  0  0  0  0  0
  -24.6726  -31.0766   22.1027 N   0  0  0  0  0  0
  -23.4190  -28.8195   23.3023 O   0  0  0  0  0  0
  -28.3698  -26.6268   20.1398 O   0  0  0  0  0  0
  -26.5596  -34.8927   22.4690 O   0  0  0  0  0  0
  -23.5360  -32.1444   23.7492 O   0  0  0  0  0  0
  -32.3618  -18.2138   22.3260 C   0  0  0  0  0  0
  -31.6787  -19.3798   21.9369 C   0  0  0  0  0  0
  -31.8242  -16.9463   22.0475 C   0  0  0  0  0  0
  -29.8919  -18.0102   21.0063 C   0  0  0  0  0  0
  -30.4306  -19.3036   21.2693 C   0  0  0  0  0  0
  -30.5904  -16.8247   21.3706 C   0  0  0  0  0  0
  -29.9674  -21.7907   20.9767 C   0  0  0  0  0  0
  -28.9618  -22.7790   20.3497 C   0  0  0  0  0  0
  -29.2974  -24.2959   20.5163 C   0  0  0  0  0  0
  -28.1820  -25.2051   19.9495 C   0  0  0  0  0  0
  -29.6984  -20.4679   20.8360 N   0  0  0  0  0  0
  -30.0502  -15.5250   21.0947 N   0  0  0  0  0  0
  -30.9474  -22.2404   21.5735 O   0  0  0  0  0  0
  -31.4601  -12.3951   19.1240 H   0  0  0  0  0  0
  -30.3055  -11.3077   19.8391 H   0  0  0  0  0  0
  -29.7316  -11.7660   17.4350 H   0  0  0  0  0  0
  -29.6607  -13.4807   17.7602 H   0  0  0  0  0  0
  -27.8242  -11.3075   18.8235 H   0  0  0  0  0  0
  -27.3627  -12.6302   17.7866 H   0  0  0  0  0  0
  -27.6938  -14.2556   19.5566 H   0  0  0  0  0  0
  -28.6796  -11.9950   21.3645 H   0  0  0  0  0  0
  -28.4660  -13.6492   21.8540 H   0  0  0  0  0  0
  -25.2761   -9.5687   22.4761 H   0  0  0  0  0  0
  -24.0002   -7.4638   22.7476 H   0  0  0  0  0  0
  -21.0849   -8.8774   19.8947 H   0  0  0  0  0  0
  -22.3701  -10.9676   19.6161 H   0  0  0  0  0  0
  -21.2005   -7.6151   23.9716 H   0  0  0  0  0  0
  -21.1479   -6.0526   25.9077 H   0  0  0  0  0  0
  -22.0601   -2.7614   23.2844 H   0  0  0  0  0  0
  -22.4124  -11.9861   22.4760 H   0  0  0  0  0  0
  -21.1129  -13.1243   22.2632 H   0  0  0  0  0  0
  -24.6633  -15.8459   20.5134 H   0  0  0  0  0  0
  -26.2799  -15.6257   20.0751 H   0  0  0  0  0  0
  -26.7130  -32.5527   23.1167 H   0  0  0  0  0  0
  -25.0075  -33.9782   25.0487 H   0  0  0  0  0  0
  -22.6944  -31.3130   21.4179 H   0  0  0  0  0  0
  -23.3758  -35.9633   23.3305 H   0  0  0  0  0  0
  -24.3574  -36.8926   22.2053 H   0  0  0  0  0  0
  -23.7230  -37.6510   23.6655 H   0  0  0  0  0  0
  -26.0600  -31.5943   20.6063 H   0  0  0  0  0  0
  -26.8241  -30.8712   21.9935 H   0  0  0  0  0  0
  -28.0986  -29.0652   21.1752 H   0  0  0  0  0  0
  -25.9925  -25.9991   18.9587 H   0  0  0  0  0  0
  -23.9649  -27.3288   19.0090 H   0  0  0  0  0  0
  -23.7214  -30.6138   19.4097 H   0  0  0  0  0  0
  -22.7348  -29.2583   19.8690 H   0  0  0  0  0  0
  -25.1284  -36.1980   25.0833 H   0  0  0  0  0  0
  -20.9961  -28.3245   24.1430 H   0  0  0  0  0  0
  -20.5684  -26.2279   23.3602 H   0  0  0  0  0  0
  -21.6634  -26.7459   22.1197 H   0  0  0  0  0  0
  -19.6900  -25.6299   21.1235 H   0  0  0  0  0  0
  -19.6675  -27.3198   20.6749 H   0  0  0  0  0  0
  -17.4193  -26.6696   21.4021 H   0  0  0  0  0  0
  -18.0304  -26.0064   22.9015 H   0  0  0  0  0  0
  -19.7930  -30.7267   24.2272 H   0  0  0  0  0  0
  -17.5013  -31.6269   24.5168 H   0  0  0  0  0  0
  -15.5345  -30.2993   23.7650 H   0  0  0  0  0  0
  -15.8665  -28.0822   22.7066 H   0  0  0  0  0  0
  -24.5923  -30.7027   25.7791 H   0  0  0  0  0  0
  -24.8910  -32.2829   26.4934 H   0  0  0  0  0  0
  -25.8086  -30.8839   27.0225 H   0  0  0  0  0  0
  -26.2896  -29.6789   24.1192 H   0  0  0  0  0  0
  -27.4118  -29.7302   25.4596 H   0  0  0  0  0  0
  -27.8719  -30.4377   23.9290 H   0  0  0  0  0  0
  -27.2672  -33.3617   26.2105 H   0  0  0  0  0  0
  -28.3848  -32.6898   25.0322 H   0  0  0  0  0  0
  -28.0738  -31.8438   26.5402 H   0  0  0  0  0  0
  -28.2601  -38.0107   24.7534 H   0  0  0  0  0  0
  -28.1082  -36.2640   24.6284 H   0  0  0  0  0  0
  -27.2295  -37.1449   25.8870 H   0  0  0  0  0  0
  -20.9308  -29.8772   21.6950 H   0  0  0  0  0  0
  -26.0191  -38.2877   24.1413 H   0  0  0  0  0  0
  -33.3101  -18.2927   22.8387 H   0  0  0  0  0  0
  -32.1516  -20.3206   22.1691 H   0  0  0  0  0  0
  -32.3733  -16.0678   22.3580 H   0  0  0  0  0  0
  -28.9424  -17.9244   20.4971 H   0  0  0  0  0  0
  -27.9860  -22.5773   20.7934 H   0  0  0  0  0  0
  -28.8721  -22.5442   19.2886 H   0  0  0  0  0  0
  -30.2427  -24.5241   20.0228 H   0  0  0  0  0  0
  -29.4366  -24.5237   21.5737 H   0  0  0  0  0  0
  -27.2592  -24.8875   20.4387 H   0  0  0  0  0  0
  -28.0679  -25.0057   18.8828 H   0  0  0  0  0  0
  -28.8428  -20.2730   20.3335 H   0  0  0  0  0  0
  -29.0649  -15.3863   21.2601 H   0  0  0  0  0  0
  1 25  1  0  0  0
  1 30  2  0  0  0
  1 82  1  0  0  0
  2  3  1  0  0  0
  2 25  1  0  0  0
  2 84  1  0  0  0
  2 85  1  0  0  0
  3  4  1  0  0  0
  3 86  1  0  0  0
  3 87  1  0  0  0
  4  5  1  0  0  0
  4 88  1  0  0  0
  4 89  1  0  0  0
  5  6  1  0  0  0
  5 26  1  0  0  0
  5 90  1  0  0  0
  6 25  1  0  0  0
  6 91  1  0  0  0
  6 92  1  0  0  0
  7  8  2  0  0  0
  7 26  1  0  0  0
  7 29  1  0  0  0
  8  9  1  0  0  0
  8 22  1  0  0  0
  9 10  1  0  0  0
  9 27  2  0  0  0
 10 11  2  0  0  0
 10 15  1  0  0  0
 11 12  1  0  0  0
 11 93  1  0  0  0
 12 13  2  0  0  0
 12 94  1  0  0  0
 13 14  1  0  0  0
 13 31  1  0  0  0
 14 15  2  0  0  0
 14 95  1  0  0  0
 15 96  1  0  0  0
 16 17  2  0  0  0
 16 21  1  0  0  0
 16 31  1  0  0  0
 17 18  1  0  0  0
 17 97  1  0  0  0
 18 19  2  0  0  0
 18 98  1  0  0  0
 19 20  1  0  0  0
 19 24  1  0  0  0
 20 21  2  0  0  0
 20 99  1  0  0  0
 21 23  1  0  0  0
 22 28  1  0  0  0
 22 32  2  0  0  0
 26 27  1  0  0  0
 28100  1  0  0  0
 28101  1  0  0  0
 29102  1  0  0  0
 29103  1  0  0  0
 33 34  1  0  0  0
 33 66  1  0  0  0
 33 70  2  0  0  0
 34 36  1  0  0  0
 34 59  1  0  0  0
 34104  1  0  0  0
 35 44  2  0  0  0
 35 45  1  0  0  0
 35 68  1  0  0  0
 36 56  1  0  0  0
 36105  1  0  0  0
 37 39  1  0  0  0
 37 47  1  0  0  0
 37 66  1  0  0  0
 37106  1  0  0  0
 38 43  2  0  0  0
 38 46  1  0  0  0
 38 47  1  0  0  0
 39 64  1  0  0  0
 39 67  2  0  0  0
 40 52  1  0  0  0
 40 53  2  0  0  0
 40 58  1  0  0  0
 41107  1  0  0  0
 41108  1  0  0  0
 41109  1  0  0  0
 41 48  1  0  0  0
 42 43  1  0  0  0
 42 66  1  0  0  0
 42110  1  0  0  0
 42111  1  0  0  0
 43 44  1  0  0  0
 44112  1  0  0  0
 45 46  2  0  0  0
 45113  1  0  0  0
 46114  1  0  0  0
 47115  1  0  0  0
 47116  1  0  0  0
 48 56  1  0  0  0
 48 65  1  0  0  0
 48117  1  0  0  0
 49 50  1  0  0  0
 49 53  1  0  0  0
 49 64  1  0  0  0
 49118  1  0  0  0
 50 51  1  0  0  0
 50119  1  0  0  0
 50120  1  0  0  0
 51 52  1  0  0  0
 51121  1  0  0  0
 51122  1  0  0  0
 52123  1  0  0  0
 52124  1  0  0  0
 53 54  1  0  0  0
 54 55  2  0  0  0
 54125  1  0  0  0
 55 57  1  0  0  0
 55126  1  0  0  0
 56 69  2  0  0  0
 57 58  2  0  0  0
 57127  1  0  0  0
 58128  1  0  0  0
 59 60  1  0  0  0
 59 61  1  0  0  0
 59 62  1  0  0  0
 60129  1  0  0  0
 60130  1  0  0  0
 60131  1  0  0  0
 61132  1  0  0  0
 61133  1  0  0  0
 61134  1  0  0  0
 62135  1  0  0  0
 62136  1  0  0  0
 62137  1  0  0  0
 63 65  1  0  0  0
 63138  1  0  0  0
 63139  1  0  0  0
 63140  1  0  0  0
 64141  1  0  0  0
 65142  1  0  0  0
 68 80  1  0  0  0
 71 72  2  0  0  0
 71 73  1  0  0  0
 71143  1  0  0  0
 72 75  1  0  0  0
 72144  1  0  0  0
 73 76  2  0  0  0
 73145  1  0  0  0
 74 75  2  0  0  0
 74 76  1  0  0  0
 74146  1  0  0  0
 75 81  1  0  0  0
 76 82  1  0  0  0
 77 78  1  0  0  0
 77 81  1  0  0  0
 77 83  2  0  0  0
 78 79  1  0  0  0
 78147  1  0  0  0
 78148  1  0  0  0
 79 80  1  0  0  0
 79149  1  0  0  0
 79150  1  0  0  0
 80151  1  0  0  0
 80152  1  0  0  0
 81153  1  0  0  0
 82154  1  0  0  0
M  ISO  4   1 100  68 101  80 101  82 100
M  END
> <chiral flag>
0

> <version>
0

> <s_m_source_file>
/data/baiqing/PycharmProjects/Reinvent-master-3.2/result/LINK_invent/BTK/process_docking_weight1_custom_sum_contain_oxygen_bond_distance_aromatic_linkinvent_7_9_3/rearranged_h_0010.sdf

> <i_m_source_file_index>
78

> <r_mmod_Potential_Energy-OPLS-2005>
-82.9036636352539

> <r_mmod_Stretch_Energy-OPLS-2005>
43.5146064758301

> <r_mmod_Bend_Energy-OPLS-2005>
102.434417724609

> <r_mmod_Torsional_Energy-OPLS-2005>
222.946380615234

> <r_mmod_Improper_Torsional_Energy-OPLS-2005>
3.56133818626404

> <r_mmod_Van_der_Waal_Energy-OPLS-2005>
167.015167236328

> <r_mmod_Electrostatic_Energy-OPLS-2005>
-401.277069091797

> <r_mmod_Solvation_Energy-OPLS-2005>
-238.666366577148

> <b_mmod_Minimization_Converged-OPLS-2005>
0

> <r_mmod_RMS_Derivative-OPLS-2005>
0.538797676563263

$$$$
78
                    3D
 Structure written by MMmdl.
171178  0  0  1  0            999 V2000
  -30.7483  -14.3490   20.6649 C   0  0  0  0  0  0
  -30.4094  -12.2704   19.3782 C   0  0  0  0  0  0
  -29.4650  -12.4995   18.1794 C   0  0  0  0  0  0
  -27.9930  -12.3662   18.6073 C   0  0  0  0  0  0
  -27.6634  -13.1859   19.8826 C   0  0  2  0  0  0
  -28.7031  -12.9074   20.9900 C   0  0  0  0  0  0
  -25.2615  -13.8115   20.5721 C   0  0  0  0  0  0
  -24.1808  -13.0453   20.9203 C   0  0  0  0  0  0
  -24.6312  -11.6901   20.8700 C   0  0  0  0  0  0
  -23.8950  -10.4309   21.0345 C   0  0  0  0  0  0
  -24.3532   -9.4260   21.9181 C   0  0  0  0  0  0
  -23.6267   -8.2248   22.0717 C   0  0  0  0  0  0
  -22.4216   -8.0274   21.3548 C   0  0  0  0  0  0
  -21.9797   -9.0234   20.4671 C   0  0  0  0  0  0
  -22.7086  -10.2124   20.3045 C   0  0  0  0  0  0
  -21.6864   -6.0682   22.5274 C   0  0  0  0  0  0
  -21.3996   -6.5601   23.8193 C   0  0  0  0  0  0
  -21.3666   -5.6746   24.9147 C   0  0  0  0  0  0
  -21.6061   -4.3027   24.7219 C   0  0  0  0  0  0
  -21.8819   -3.8108   23.4350 C   0  0  0  0  0  0
  -21.9184   -4.6918   22.3395 C   0  0  0  0  0  0
  -22.7863  -13.5307   21.1900 C   0  0  0  0  0  0
  -22.1689   -4.2107   21.0983 F   0  0  0  0  0  0
  -21.5672   -3.4516   25.7745 F   0  0  0  0  0  0
  -30.0422  -13.2110   20.4482 N   0  0  0  0  0  0
  -26.3003  -12.9239   20.3418 N   0  0  0  0  0  0
  -25.9221  -11.6411   20.5752 N   0  0  0  0  0  0
  -22.0471  -12.8341   22.0485 N   0  0  0  0  0  0
  -25.4437  -15.1817   20.4198 N   0  0  0  0  0  0
  -31.7809  -14.6435   20.0568 O   0  0  0  0  0  0
  -21.6671   -6.8814   21.4223 O   0  0  0  0  0  0
  -22.3562  -14.5609   20.6771 O   0  0  0  0  0  0
  -24.6112  -31.8729   23.2149 C   0  0  0  0  0  0
  -25.9040  -32.4857   23.8434 C   0  0  1  0  0  0
  -27.2415  -27.4939   20.0728 C   0  0  0  0  0  0
  -25.5918  -33.8648   24.2364 N   0  0  0  0  0  0
  -23.3933  -30.4951   21.5576 C   0  0  2  0  0  0
  -24.8390  -28.9659   20.1150 C   0  0  0  0  0  0
  -22.7391  -29.4671   22.5063 C   0  0  0  0  0  0
  -18.0280  -28.1344   22.8508 C   0  0  0  0  0  0
  -24.1475  -36.7316   23.2637 C   0  0  0  0  0  0
  -25.9163  -30.8498   21.3606 C   0  0  0  0  0  0
  -25.9928  -29.4867   20.7136 C   0  0  0  0  0  0
  -27.1962  -28.7546   20.6967 C   0  0  0  0  0  0
  -26.0768  -26.9753   19.4679 C   0  0  0  0  0  0
  -24.8720  -27.7042   19.4937 C   0  0  0  0  0  0
  -23.5957  -29.8264   20.1711 C   0  0  0  0  0  0
  -25.4094  -36.3132   24.0352 C   0  0  1  0  0  0
  -20.5864  -28.3628   23.1344 C   0  0  2  0  0  0
  -20.6761  -26.9366   22.5429 C   0  0  0  0  0  0
  -19.5742  -26.6354   21.5220 C   0  0  0  0  0  0
  -18.1924  -26.7891   22.1635 C   0  0  0  0  0  0
  -19.1529  -28.8806   23.2914 C   0  0  0  0  0  0
  -18.9451  -30.1418   23.8904 C   0  0  0  0  0  0
  -17.6456  -30.6561   24.0560 C   0  0  0  0  0  0
  -25.9034  -34.9502   23.5149 C   0  0  0  0  0  0
  -16.5347  -29.9063   23.6320 C   0  0  0  0  0  0
  -16.7267  -28.6478   23.0345 C   0  0  0  0  0  0
  -26.4469  -31.6606   25.0737 C   0  0  0  0  0  0
  -25.3769  -31.3704   26.1517 C   0  0  0  0  0  0
  -27.0260  -30.3059   24.6034 C   0  0  0  0  0  0
  -27.6052  -32.4316   25.7495 C   0  0  0  0  0  0
  -27.5578  -37.1818   24.8475 C   0  0  0  0  0  0
  -21.4133  -29.3016   22.3795 N   0  0  0  0  0  0
  -26.4290  -37.3808   23.9424 N   0  0  0  0  0  0
  -24.6581  -31.0865   22.1038 N   0  0  0  0  0  0
  -23.4192  -28.8240   23.3104 O   0  0  0  0  0  0
  -28.4194  -26.7912   20.0446 O   0  0  0  0  0  0
  -26.5573  -34.8938   22.4701 O   0  0  0  0  0  0
  -23.5317  -32.1492   23.7559 O   0  0  0  0  0  0
  -28.8963  -17.8259   23.0253 C   0  0  0  0  0  0
  -27.4838  -16.1291   24.1843 C   0  0  0  0  0  0
  -30.1732  -17.0057   23.2833 C   0  0  0  0  0  0
  -26.1007  -21.5939   22.3691 C   0  0  0  0  0  0
  -24.9135  -20.7679   21.8421 C   0  0  0  0  0  0
  -26.5373  -22.6492   21.3491 C   0  0  0  0  0  0
  -24.5753  -19.4975   22.6477 C   0  0  0  0  0  0
  -27.5244  -23.6887   21.8991 C   0  0  0  0  0  0
  -25.6404  -18.3842   22.5786 C   0  0  0  0  0  0
  -28.1182  -24.5212   20.7568 C   0  0  0  0  0  0
  -30.8392  -16.4228   22.0249 C   0  0  0  0  0  0
  -26.6164  -18.3942   23.7697 C   0  0  0  0  0  0
  -28.5870  -25.9246   21.1594 C   0  0  0  0  0  0
  -30.2441  -15.1541   21.6063 N   0  0  0  0  0  0
  -27.7250  -17.4506   23.5976 N   0  0  0  0  0  0
  -29.0031  -18.8642   22.3652 O   0  0  0  0  0  0
  -31.4490  -12.3782   19.0584 H   0  0  0  0  0  0
  -30.3272  -11.2459   19.7445 H   0  0  0  0  0  0
  -29.6778  -11.7912   17.3753 H   0  0  0  0  0  0
  -29.6361  -13.4932   17.7692 H   0  0  0  0  0  0
  -27.7855  -11.3063   18.7643 H   0  0  0  0  0  0
  -27.3421  -12.6754   17.7922 H   0  0  0  0  0  0
  -27.7303  -14.2415   19.6167 H   0  0  0  0  0  0
  -28.6629  -11.8588   21.2887 H   0  0  0  0  0  0
  -28.4590  -13.4639   21.8951 H   0  0  0  0  0  0
  -25.2642   -9.5847   22.4799 H   0  0  0  0  0  0
  -24.0028   -7.4651   22.7412 H   0  0  0  0  0  0
  -21.0719   -8.8661   19.8991 H   0  0  0  0  0  0
  -22.3439  -10.9647   19.6185 H   0  0  0  0  0  0
  -21.1956   -7.6108   23.9662 H   0  0  0  0  0  0
  -21.1527   -6.0491   25.9048 H   0  0  0  0  0  0
  -22.0577   -2.7573   23.2845 H   0  0  0  0  0  0
  -22.3968  -11.9919   22.4803 H   0  0  0  0  0  0
  -21.1196  -13.1575   22.2825 H   0  0  0  0  0  0
  -24.6908  -15.8406   20.5810 H   0  0  0  0  0  0
  -26.3101  -15.6284   20.1450 H   0  0  0  0  0  0
  -26.7107  -32.5573   23.1194 H   0  0  0  0  0  0
  -25.0147  -33.9805   25.0558 H   0  0  0  0  0  0
  -22.6791  -31.3119   21.4253 H   0  0  0  0  0  0
  -23.3739  -35.9645   23.3316 H   0  0  0  0  0  0
  -24.3576  -36.8897   22.2046 H   0  0  0  0  0  0
  -23.7210  -37.6529   23.6619 H   0  0  0  0  0  0
  -26.0231  -31.6099   20.5841 H   0  0  0  0  0  0
  -26.8084  -30.9038   21.9734 H   0  0  0  0  0  0
  -28.0917  -29.1580   21.1459 H   0  0  0  0  0  0
  -26.0915  -26.0206   18.9638 H   0  0  0  0  0  0
  -23.9892  -27.2971   19.0220 H   0  0  0  0  0  0
  -23.6958  -30.6043   19.4125 H   0  0  0  0  0  0
  -22.7167  -29.2483   19.8832 H   0  0  0  0  0  0
  -25.1252  -36.2016   25.0843 H   0  0  0  0  0  0
  -20.9939  -28.3167   24.1472 H   0  0  0  0  0  0
  -20.5656  -26.2232   23.3607 H   0  0  0  0  0  0
  -21.6634  -26.7413   22.1227 H   0  0  0  0  0  0
  -19.6896  -25.6272   21.1234 H   0  0  0  0  0  0
  -19.6656  -27.3181   20.6759 H   0  0  0  0  0  0
  -17.4188  -26.6650   21.4036 H   0  0  0  0  0  0
  -18.0306  -26.0017   22.9015 H   0  0  0  0  0  0
  -19.7925  -30.7240   24.2252 H   0  0  0  0  0  0
  -17.5008  -31.6236   24.5171 H   0  0  0  0  0  0
  -15.5347  -30.2961   23.7620 H   0  0  0  0  0  0
  -15.8669  -28.0792   22.7042 H   0  0  0  0  0  0
  -24.5908  -30.7074   25.7910 H   0  0  0  0  0  0
  -24.9004  -32.2853   26.5052 H   0  0  0  0  0  0
  -25.8174  -30.8851   27.0234 H   0  0  0  0  0  0
  -26.2770  -29.6869   24.1086 H   0  0  0  0  0  0
  -27.4064  -29.7248   25.4445 H   0  0  0  0  0  0
  -27.8596  -30.4410   23.9134 H   0  0  0  0  0  0
  -27.2666  -33.3598   26.2108 H   0  0  0  0  0  0
  -28.3836  -32.6906   25.0311 H   0  0  0  0  0  0
  -28.0726  -31.8424   26.5380 H   0  0  0  0  0  0
  -28.2622  -38.0096   24.7516 H   0  0  0  0  0  0
  -28.1047  -36.2635   24.6298 H   0  0  0  0  0  0
  -27.2309  -37.1470   25.8884 H   0  0  0  0  0  0
  -20.9293  -29.8780   21.7052 H   0  0  0  0  0  0
  -26.0189  -38.2898   24.1414 H   0  0  0  0  0  0
  -28.0347  -15.3374   23.6740 H   0  0  0  0  0  0
  -26.4271  -15.8571   24.1287 H   0  0  0  0  0  0
  -27.7706  -16.1310   25.2359 H   0  0  0  0  0  0
  -30.0416  -16.2303   24.0369 H   0  0  0  0  0  0
  -30.8749  -17.7026   23.7388 H   0  0  0  0  0  0
  -26.9645  -20.9592   22.5519 H   0  0  0  0  0  0
  -25.8358  -22.0510   23.3232 H   0  0  0  0  0  0
  -25.0846  -20.4971   20.7983 H   0  0  0  0  0  0
  -24.0320  -21.4114   21.8324 H   0  0  0  0  0  0
  -25.6568  -23.1651   20.9673 H   0  0  0  0  0  0
  -26.9825  -22.1355   20.4956 H   0  0  0  0  0  0
  -23.6496  -19.0985   22.2338 H   0  0  0  0  0  0
  -24.3457  -19.7491   23.6853 H   0  0  0  0  0  0
  -28.3273  -23.2128   22.4627 H   0  0  0  0  0  0
  -26.9919  -24.3338   22.5984 H   0  0  0  0  0  0
  -26.1757  -18.4306   21.6298 H   0  0  0  0  0  0
  -25.1320  -17.4196   22.5797 H   0  0  0  0  0  0
  -27.3587  -24.6159   19.9858 H   0  0  0  0  0  0
  -28.9349  -23.9837   20.2749 H   0  0  0  0  0  0
  -31.8981  -16.2626   22.2409 H   0  0  0  0  0  0
  -30.8097  -17.1421   21.2043 H   0  0  0  0  0  0
  -26.0718  -18.1578   24.6871 H   0  0  0  0  0  0
  -27.0200  -19.3875   23.9519 H   0  0  0  0  0  0
  -29.6399  -25.9106   21.4431 H   0  0  0  0  0  0
  -28.0436  -26.3009   22.0288 H   0  0  0  0  0  0
  -29.3992  -14.8355   22.0568 H   0  0  0  0  0  0
  1 25  1  0  0  0
  1 30  2  0  0  0
  1 84  1  0  0  0
  2  3  1  0  0  0
  2 25  1  0  0  0
  2 87  1  0  0  0
  2 88  1  0  0  0
  3  4  1  0  0  0
  3 89  1  0  0  0
  3 90  1  0  0  0
  4  5  1  0  0  0
  4 91  1  0  0  0
  4 92  1  0  0  0
  5  6  1  0  0  0
  5 26  1  0  0  0
  5 93  1  0  0  0
  6 25  1  0  0  0
  6 94  1  0  0  0
  6 95  1  0  0  0
  7  8  2  0  0  0
  7 26  1  0  0  0
  7 29  1  0  0  0
  8  9  1  0  0  0
  8 22  1  0  0  0
  9 10  1  0  0  0
  9 27  2  0  0  0
 10 11  2  0  0  0
 10 15  1  0  0  0
 11 12  1  0  0  0
 11 96  1  0  0  0
 12 13  2  0  0  0
 12 97  1  0  0  0
 13 14  1  0  0  0
 13 31  1  0  0  0
 14 15  2  0  0  0
 14 98  1  0  0  0
 15 99  1  0  0  0
 16 17  2  0  0  0
 16 21  1  0  0  0
 16 31  1  0  0  0
 17 18  1  0  0  0
 17100  1  0  0  0
 18 19  2  0  0  0
 18101  1  0  0  0
 19 20  1  0  0  0
 19 24  1  0  0  0
 20 21  2  0  0  0
 20102  1  0  0  0
 21 23  1  0  0  0
 22 28  1  0  0  0
 22 32  2  0  0  0
 26 27  1  0  0  0
 28103  1  0  0  0
 28104  1  0  0  0
 29105  1  0  0  0
 29106  1  0  0  0
 33 34  1  0  0  0
 33 66  1  0  0  0
 33 70  2  0  0  0
 34 36  1  0  0  0
 34 59  1  0  0  0
 34107  1  0  0  0
 35 44  2  0  0  0
 35 45  1  0  0  0
 35 68  1  0  0  0
 36 56  1  0  0  0
 36108  1  0  0  0
 37 39  1  0  0  0
 37 47  1  0  0  0
 37 66  1  0  0  0
 37109  1  0  0  0
 38 43  2  0  0  0
 38 46  1  0  0  0
 38 47  1  0  0  0
 39 64  1  0  0  0
 39 67  2  0  0  0
 40 52  1  0  0  0
 40 53  2  0  0  0
 40 58  1  0  0  0
 41110  1  0  0  0
 41111  1  0  0  0
 41112  1  0  0  0
 41 48  1  0  0  0
 42 43  1  0  0  0
 42 66  1  0  0  0
 42113  1  0  0  0
 42114  1  0  0  0
 43 44  1  0  0  0
 44115  1  0  0  0
 45 46  2  0  0  0
 45116  1  0  0  0
 46117  1  0  0  0
 47118  1  0  0  0
 47119  1  0  0  0
 48 56  1  0  0  0
 48 65  1  0  0  0
 48120  1  0  0  0
 49 50  1  0  0  0
 49 53  1  0  0  0
 49 64  1  0  0  0
 49121  1  0  0  0
 50 51  1  0  0  0
 50122  1  0  0  0
 50123  1  0  0  0
 51 52  1  0  0  0
 51124  1  0  0  0
 51125  1  0  0  0
 52126  1  0  0  0
 52127  1  0  0  0
 53 54  1  0  0  0
 54 55  2  0  0  0
 54128  1  0  0  0
 55 57  1  0  0  0
 55129  1  0  0  0
 56 69  2  0  0  0
 57 58  2  0  0  0
 57130  1  0  0  0
 58131  1  0  0  0
 59 60  1  0  0  0
 59 61  1  0  0  0
 59 62  1  0  0  0
 60132  1  0  0  0
 60133  1  0  0  0
 60134  1  0  0  0
 61135  1  0  0  0
 61136  1  0  0  0
 61137  1  0  0  0
 62138  1  0  0  0
 62139  1  0  0  0
 62140  1  0  0  0
 63 65  1  0  0  0
 63141  1  0  0  0
 63142  1  0  0  0
 63143  1  0  0  0
 64144  1  0  0  0
 65145  1  0  0  0
 68 83  1  0  0  0
 71 73  1  0  0  0
 71 85  1  0  0  0
 71 86  2  0  0  0
 72 85  1  0  0  0
 72146  1  0  0  0
 72147  1  0  0  0
 72148  1  0  0  0
 73 81  1  0  0  0
 73149  1  0  0  0
 73150  1  0  0  0
 74 75  1  0  0  0
 74 76  1  0  0  0
 74151  1  0  0  0
 74152  1  0  0  0
 75 77  1  0  0  0
 75153  1  0  0  0
 75154  1  0  0  0
 76 78  1  0  0  0
 76155  1  0  0  0
 76156  1  0  0  0
 77 79  1  0  0  0
 77157  1  0  0  0
 77158  1  0  0  0
 78 80  1  0  0  0
 78159  1  0  0  0
 78160  1  0  0  0
 79 82  1  0  0  0
 79161  1  0  0  0
 79162  1  0  0  0
 80 83  1  0  0  0
 80163  1  0  0  0
 80164  1  0  0  0
 81 84  1  0  0  0
 81165  1  0  0  0
 81166  1  0  0  0
 82 85  1  0  0  0
 82167  1  0  0  0
 82168  1  0  0  0
 83169  1  0  0  0
 83170  1  0  0  0
 84171  1  0  0  0
M  ISO  4   1 100  68 101  83 101  84 100
M  END
> <chiral flag>
0

> <version>
0

> <s_m_source_file>
/data/baiqing/PycharmProjects/Reinvent-master-3.2/result/LINK_invent/BTK/process_docking_weight1_custom_sum_contain_oxygen_bond_distance_aromatic_linkinvent_7_9_3/rearranged_h_0010.sdf

> <i_m_source_file_index>
79

> <r_mmod_Potential_Energy-OPLS-2005>
-20.5228538513184

> <r_mmod_Stretch_Energy-OPLS-2005>
31.5893783569336

> <r_mmod_Bend_Energy-OPLS-2005>
96.3701019287109

> <r_mmod_Torsional_Energy-OPLS-2005>
255.374313354492

> <r_mmod_Improper_Torsional_Energy-OPLS-2005>
2.34342288970947

> <r_mmod_Van_der_Waal_Energy-OPLS-2005>
132.167190551758

> <r_mmod_Electrostatic_Energy-OPLS-2005>
-330.031311035156

> <r_mmod_Solvation_Energy-OPLS-2005>
-215.904006958008

> <b_mmod_Minimization_Converged-OPLS-2005>
0

> <r_mmod_RMS_Derivative-OPLS-2005>
5.40584564208984

$$$$
79
                    3D
 Structure written by MMmdl.
148156  0  0  1  0            999 V2000
  -30.5066  -14.9122   20.4364 C   0  0  0  0  0  0
  -30.4572  -12.5594   19.4935 C   0  0  0  0  0  0
  -29.5282  -12.5199   18.2554 C   0  0  0  0  0  0
  -28.0576  -12.3117   18.6710 C   0  0  0  0  0  0
  -27.6394  -13.2328   19.8459 C   0  0  2  0  0  0
  -28.6827  -13.2097   20.9842 C   0  0  0  0  0  0
  -25.2503  -13.8179   20.5680 C   0  0  0  0  0  0
  -24.1804  -13.0432   20.9234 C   0  0  0  0  0  0
  -24.6391  -11.6909   20.8755 C   0  0  0  0  0  0
  -23.9061  -10.4290   21.0411 C   0  0  0  0  0  0
  -24.3611   -9.4205   21.9186 C   0  0  0  0  0  0
  -23.6288   -8.2238   22.0750 C   0  0  0  0  0  0
  -22.4271   -8.0275   21.3541 C   0  0  0  0  0  0
  -21.9904   -9.0252   20.4648 C   0  0  0  0  0  0
  -22.7230  -10.2135   20.3062 C   0  0  0  0  0  0
  -21.6854   -6.0729   22.5277 C   0  0  0  0  0  0
  -21.4013   -6.5632   23.8208 C   0  0  0  0  0  0
  -21.3661   -5.6786   24.9171 C   0  0  0  0  0  0
  -21.6045   -4.3047   24.7224 C   0  0  0  0  0  0
  -21.8820   -3.8140   23.4344 C   0  0  0  0  0  0
  -21.9192   -4.6957   22.3400 C   0  0  0  0  0  0
  -22.7825  -13.5222   21.1889 C   0  0  0  0  0  0
  -22.1662   -4.2144   21.0978 F   0  0  0  0  0  0
  -21.5632   -3.4531   25.7736 F   0  0  0  0  0  0
  -29.9671  -13.6300   20.4031 N   0  0  0  0  0  0
  -26.2923  -12.9383   20.3242 N   0  0  0  0  0  0
  -25.9319  -11.6532   20.5738 N   0  0  0  0  0  0
  -22.0468  -12.8219   22.0447 N   0  0  0  0  0  0
  -25.4177  -15.1897   20.4031 N   0  0  0  0  0  0
  -31.6939  -15.0568   20.1209 O   0  0  0  0  0  0
  -21.6638   -6.8871   21.4237 O   0  0  0  0  0  0
  -22.3514  -14.5527   20.6726 O   0  0  0  0  0  0
  -24.6416  -31.8453   23.1901 C   0  0  0  0  0  0
  -25.9200  -32.4701   23.8277 C   0  0  1  0  0  0
  -27.2194  -27.1518   20.1453 C   0  0  0  0  0  0
  -25.5965  -33.8506   24.2202 N   0  0  0  0  0  0
  -23.4439  -30.4666   21.5351 C   0  0  2  0  0  0
  -24.8937  -28.8974   20.1099 C   0  0  0  0  0  0
  -22.7560  -29.4552   22.4860 C   0  0  0  0  0  0
  -18.0312  -28.1393   22.8469 C   0  0  0  0  0  0
  -24.1494  -36.7247   23.2641 C   0  0  0  0  0  0
  -25.9996  -30.7244   21.3866 C   0  0  0  0  0  0
  -26.0718  -29.3381   20.7263 C   0  0  0  0  0  0
  -27.2360  -28.4820   20.7257 C   0  0  0  0  0  0
  -26.0120  -26.8101   19.4939 C   0  0  0  0  0  0
  -24.8768  -27.6464   19.4781 C   0  0  0  0  0  0
  -23.6696  -29.7981   20.1537 C   0  0  0  0  0  0
  -25.4127  -36.3034   24.0317 C   0  0  1  0  0  0
  -20.5919  -28.3710   23.1237 C   0  0  2  0  0  0
  -20.6792  -26.9413   22.5410 C   0  0  0  0  0  0
  -19.5774  -26.6379   21.5205 C   0  0  0  0  0  0
  -18.1953  -26.7936   22.1610 C   0  0  0  0  0  0
  -19.1566  -28.8871   23.2846 C   0  0  0  0  0  0
  -18.9483  -30.1470   23.8866 C   0  0  0  0  0  0
  -17.6479  -30.6586   24.0558 C   0  0  0  0  0  0
  -25.9073  -34.9409   23.5067 C   0  0  0  0  0  0
  -16.5370  -29.9077   23.6341 C   0  0  0  0  0  0
  -16.7296  -28.6502   23.0351 C   0  0  0  0  0  0
  -26.4529  -31.6562   25.0707 C   0  0  0  0  0  0
  -25.3724  -31.3768   26.1419 C   0  0  0  0  0  0
  -27.0377  -30.2956   24.6276 C   0  0  0  0  0  0
  -27.6086  -32.4308   25.7471 C   0  0  0  0  0  0
  -27.5583  -37.1776   24.8464 C   0  0  0  0  0  0
  -21.4255  -29.3039   22.3609 N   0  0  0  0  0  0
  -26.4289  -37.3749   23.9414 N   0  0  0  0  0  0
  -24.7147  -31.0329   22.0924 N   0  0  0  0  0  0
  -23.4217  -28.8100   23.2999 O   0  0  0  0  0  0
  -28.2775  -26.1735   20.2098 O   0  0  0  0  0  0
  -26.5645  -34.8903   22.4634 O   0  0  0  0  0  0
  -23.5543  -32.1324   23.7138 O   0  0  0  0  0  0
  -28.2153  -18.0953   20.7491 C   0  0  0  0  0  0
  -30.4833  -18.5413   20.2926 C   0  0  0  0  0  0
  -27.9193  -19.5039   20.6778 C   0  0  0  0  0  0
  -30.1796  -19.9799   20.2323 C   0  0  0  0  0  0
  -29.5053  -17.5105   20.5545 C   0  0  0  0  0  0
  -28.8633  -20.5436   20.4177 C   0  0  0  0  0  0
  -28.9684  -23.3056   20.2949 C   0  0  0  0  0  0
  -27.9754  -24.6526   20.0919 C   0  0  0  0  0  0
  -29.6169  -15.9865   20.6674 N   0  0  0  0  0  0
  -28.3409  -21.9105   20.3531 O   0  0  0  0  0  0
  -31.4885  -12.7346   19.1825 H   0  0  0  0  0  0
  -30.4604  -11.5956   20.0058 H   0  0  0  0  0  0
  -29.8405  -11.7242   17.5774 H   0  0  0  0  0  0
  -29.6216  -13.4520   17.6963 H   0  0  0  0  0  0
  -27.9473  -11.2684   18.9696 H   0  0  0  0  0  0
  -27.3947  -12.4547   17.8166 H   0  0  0  0  0  0
  -27.6179  -14.2430   19.4364 H   0  0  0  0  0  0
  -28.7602  -12.2129   21.4208 H   0  0  0  0  0  0
  -28.3848  -13.8728   21.7977 H   0  0  0  0  0  0
  -25.2756   -9.5682   22.4757 H   0  0  0  0  0  0
  -24.0001   -7.4627   22.7461 H   0  0  0  0  0  0
  -21.0838   -8.8770   19.8954 H   0  0  0  0  0  0
  -22.3684  -10.9672   19.6174 H   0  0  0  0  0  0
  -21.2003   -7.6140   23.9709 H   0  0  0  0  0  0
  -21.1487   -6.0516   25.9075 H   0  0  0  0  0  0
  -22.0599   -2.7601   23.2843 H   0  0  0  0  0  0
  -22.4081  -11.9886   22.4849 H   0  0  0  0  0  0
  -21.1085  -13.1247   22.2656 H   0  0  0  0  0  0
  -24.6341  -15.8285   20.4849 H   0  0  0  0  0  0
  -26.2245  -15.6094   19.9608 H   0  0  0  0  0  0
  -26.7255  -32.5312   23.0996 H   0  0  0  0  0  0
  -25.0126  -33.9625   25.0360 H   0  0  0  0  0  0
  -22.7454  -31.2921   21.3833 H   0  0  0  0  0  0
  -23.3765  -35.9568   23.3292 H   0  0  0  0  0  0
  -24.3585  -36.8891   22.2059 H   0  0  0  0  0  0
  -23.7234  -37.6436   23.6677 H   0  0  0  0  0  0
  -26.1556  -31.4817   20.6172 H   0  0  0  0  0  0
  -26.8696  -30.7724   22.0293 H   0  0  0  0  0  0
  -28.1328  -28.8166   21.2280 H   0  0  0  0  0  0
  -25.9048  -25.8561   19.0019 H   0  0  0  0  0  0
  -23.9779  -27.3044   18.9838 H   0  0  0  0  0  0
  -23.8045  -30.5736   19.3988 H   0  0  0  0  0  0
  -22.7847  -29.2399   19.8437 H   0  0  0  0  0  0
  -25.1317  -36.1861   25.0809 H   0  0  0  0  0  0
  -21.0016  -28.3300   24.1354 H   0  0  0  0  0  0
  -20.5666  -26.2323   23.3628 H   0  0  0  0  0  0
  -21.6663  -26.7413   22.1221 H   0  0  0  0  0  0
  -19.6932  -25.6284   21.1253 H   0  0  0  0  0  0
  -19.6722  -27.3173   20.6721 H   0  0  0  0  0  0
  -17.4228  -26.6678   21.4008 H   0  0  0  0  0  0
  -18.0350  -26.0083   22.9011 H   0  0  0  0  0  0
  -19.7958  -30.7296   24.2215 H   0  0  0  0  0  0
  -17.5033  -31.6263   24.5169 H   0  0  0  0  0  0
  -15.5368  -30.2966   23.7685 H   0  0  0  0  0  0
  -15.8700  -28.0816   22.7066 H   0  0  0  0  0  0
  -24.5925  -30.7071   25.7773 H   0  0  0  0  0  0
  -24.8874  -32.2948   26.4746 H   0  0  0  0  0  0
  -25.8030  -30.9039   27.0255 H   0  0  0  0  0  0
  -26.2979  -29.6681   24.1289 H   0  0  0  0  0  0
  -27.4002  -29.7261   25.4844 H   0  0  0  0  0  0
  -27.8892  -30.4194   23.9579 H   0  0  0  0  0  0
  -27.2718  -33.3642   26.1990 H   0  0  0  0  0  0
  -28.3920  -32.6807   25.0300 H   0  0  0  0  0  0
  -28.0715  -31.8451   26.5425 H   0  0  0  0  0  0
  -28.2603  -38.0072   24.7518 H   0  0  0  0  0  0
  -28.1082  -36.2608   24.6283 H   0  0  0  0  0  0
  -27.2305  -37.1418   25.8868 H   0  0  0  0  0  0
  -20.9454  -29.8756   21.6799 H   0  0  0  0  0  0
  -26.0160  -38.2816   24.1435 H   0  0  0  0  0  0
  -27.3841  -17.4389   20.9640 H   0  0  0  0  0  0
  -31.5080  -18.2375   20.1325 H   0  0  0  0  0  0
  -26.8912  -19.7983   20.8356 H   0  0  0  0  0  0
  -30.9941  -20.6580   20.0223 H   0  0  0  0  0  0
  -29.5285  -23.4334   21.2214 H   0  0  0  0  0  0
  -29.7148  -23.2995   19.5002 H   0  0  0  0  0  0
  -27.1411  -24.4904   20.7758 H   0  0  0  0  0  0
  -27.5573  -24.5134   19.0959 H   0  0  0  0  0  0
  -28.7281  -15.5826   20.9203 H   0  0  0  0  0  0
  1 25  1  0  0  0
  1 30  2  0  0  0
  1 79  1  0  0  0
  2  3  1  0  0  0
  2 25  1  0  0  0
  2 81  1  0  0  0
  2 82  1  0  0  0
  3  4  1  0  0  0
  3 83  1  0  0  0
  3 84  1  0  0  0
  4  5  1  0  0  0
  4 85  1  0  0  0
  4 86  1  0  0  0
  5  6  1  0  0  0
  5 26  1  0  0  0
  5 87  1  0  0  0
  6 25  1  0  0  0
  6 88  1  0  0  0
  6 89  1  0  0  0
  7  8  2  0  0  0
  7 26  1  0  0  0
  7 29  1  0  0  0
  8  9  1  0  0  0
  8 22  1  0  0  0
  9 10  1  0  0  0
  9 27  2  0  0  0
 10 11  2  0  0  0
 10 15  1  0  0  0
 11 12  1  0  0  0
 11 90  1  0  0  0
 12 13  2  0  0  0
 12 91  1  0  0  0
 13 14  1  0  0  0
 13 31  1  0  0  0
 14 15  2  0  0  0
 14 92  1  0  0  0
 15 93  1  0  0  0
 16 17  2  0  0  0
 16 21  1  0  0  0
 16 31  1  0  0  0
 17 18  1  0  0  0
 17 94  1  0  0  0
 18 19  2  0  0  0
 18 95  1  0  0  0
 19 20  1  0  0  0
 19 24  1  0  0  0
 20 21  2  0  0  0
 20 96  1  0  0  0
 21 23  1  0  0  0
 22 28  1  0  0  0
 22 32  2  0  0  0
 26 27  1  0  0  0
 28 97  1  0  0  0
 28 98  1  0  0  0
 29 99  1  0  0  0
 29100  1  0  0  0
 33 34  1  0  0  0
 33 66  1  0  0  0
 33 70  2  0  0  0
 34 36  1  0  0  0
 34 59  1  0  0  0
 34101  1  0  0  0
 35 44  2  0  0  0
 35 45  1  0  0  0
 35 68  1  0  0  0
 36 56  1  0  0  0
 36102  1  0  0  0
 37 39  1  0  0  0
 37 47  1  0  0  0
 37 66  1  0  0  0
 37103  1  0  0  0
 38 43  2  0  0  0
 38 46  1  0  0  0
 38 47  1  0  0  0
 39 64  1  0  0  0
 39 67  2  0  0  0
 40 52  1  0  0  0
 40 53  2  0  0  0
 40 58  1  0  0  0
 41104  1  0  0  0
 41105  1  0  0  0
 41106  1  0  0  0
 41 48  1  0  0  0
 42 43  1  0  0  0
 42 66  1  0  0  0
 42107  1  0  0  0
 42108  1  0  0  0
 43 44  1  0  0  0
 44109  1  0  0  0
 45 46  2  0  0  0
 45110  1  0  0  0
 46111  1  0  0  0
 47112  1  0  0  0
 47113  1  0  0  0
 48 56  1  0  0  0
 48 65  1  0  0  0
 48114  1  0  0  0
 49 50  1  0  0  0
 49 53  1  0  0  0
 49 64  1  0  0  0
 49115  1  0  0  0
 50 51  1  0  0  0
 50116  1  0  0  0
 50117  1  0  0  0
 51 52  1  0  0  0
 51118  1  0  0  0
 51119  1  0  0  0
 52120  1  0  0  0
 52121  1  0  0  0
 53 54  1  0  0  0
 54 55  2  0  0  0
 54122  1  0  0  0
 55 57  1  0  0  0
 55123  1  0  0  0
 56 69  2  0  0  0
 57 58  2  0  0  0
 57124  1  0  0  0
 58125  1  0  0  0
 59 60  1  0  0  0
 59 61  1  0  0  0
 59 62  1  0  0  0
 60126  1  0  0  0
 60127  1  0  0  0
 60128  1  0  0  0
 61129  1  0  0  0
 61130  1  0  0  0
 61131  1  0  0  0
 62132  1  0  0  0
 62133  1  0  0  0
 62134  1  0  0  0
 63 65  1  0  0  0
 63135  1  0  0  0
 63136  1  0  0  0
 63137  1  0  0  0
 64138  1  0  0  0
 65139  1  0  0  0
 68 78  1  0  0  0
 71 73  2  0  0  0
 71 75  1  0  0  0
 71140  1  0  0  0
 72 74  1  0  0  0
 72 75  2  0  0  0
 72141  1  0  0  0
 73 76  1  0  0  0
 73142  1  0  0  0
 74 76  2  0  0  0
 74143  1  0  0  0
 75 79  1  0  0  0
 76 80  1  0  0  0
 77 78  1  0  0  0
 77 80  1  0  0  0
 77144  1  0  0  0
 77145  1  0  0  0
 78146  1  0  0  0
 78147  1  0  0  0
 79148  1  0  0  0
M  ISO  4   1 100  68 101  78 101  79 100
M  END
> <chiral flag>
0

> <version>
0

> <s_m_source_file>
/data/baiqing/PycharmProjects/Reinvent-master-3.2/result/LINK_invent/BTK/process_docking_weight1_custom_sum_contain_oxygen_bond_distance_aromatic_linkinvent_7_9_3/rearranged_h_0010.sdf

> <i_m_source_file_index>
80

> <r_mmod_Potential_Energy-OPLS-2005>
453.292022705078

> <r_mmod_Stretch_Energy-OPLS-2005>
216.148208618164

> <r_mmod_Bend_Energy-OPLS-2005>
303.559814453125

> <r_mmod_Torsional_Energy-OPLS-2005>
210.8935546875

> <r_mmod_Improper_Torsional_Energy-OPLS-2005>
4.47378873825073

> <r_mmod_Van_der_Waal_Energy-OPLS-2005>
131.151794433594

> <r_mmod_Electrostatic_Energy-OPLS-2005>
-373.256744384766

> <r_mmod_Solvation_Energy-OPLS-2005>
-214.08235168457

> <b_mmod_Minimization_Converged-OPLS-2005>
0

> <r_mmod_RMS_Derivative-OPLS-2005>
0.848834156990051

$$$$
80
                    3D
 Structure written by MMmdl.
149157  0  0  1  0            999 V2000
  -30.5144  -14.8965   20.4397 C   0  0  0  0  0  0
  -30.4550  -12.5515   19.4882 C   0  0  0  0  0  0
  -29.5256  -12.5304   18.2503 C   0  0  0  0  0  0
  -28.0548  -12.3227   18.6639 C   0  0  0  0  0  0
  -27.6401  -13.2342   19.8477 C   0  0  2  0  0  0
  -28.6846  -13.2018   20.9852 C   0  0  0  0  0  0
  -25.2507  -13.8183   20.5686 C   0  0  0  0  0  0
  -24.1808  -13.0432   20.9228 C   0  0  0  0  0  0
  -24.6401  -11.6911   20.8755 C   0  0  0  0  0  0
  -23.9075  -10.4290   21.0411 C   0  0  0  0  0  0
  -24.3623   -9.4203   21.9188 C   0  0  0  0  0  0
  -23.6294   -8.2241   22.0756 C   0  0  0  0  0  0
  -22.4276   -8.0282   21.3546 C   0  0  0  0  0  0
  -21.9915   -9.0257   20.4649 C   0  0  0  0  0  0
  -22.7248  -10.2135   20.3059 C   0  0  0  0  0  0
  -21.6853   -6.0735   22.5279 C   0  0  0  0  0  0
  -21.4015   -6.5639   23.8212 C   0  0  0  0  0  0
  -21.3660   -5.6792   24.9174 C   0  0  0  0  0  0
  -21.6043   -4.3055   24.7225 C   0  0  0  0  0  0
  -21.8819   -3.8147   23.4346 C   0  0  0  0  0  0
  -21.9193   -4.6963   22.3402 C   0  0  0  0  0  0
  -22.7829  -13.5217   21.1879 C   0  0  0  0  0  0
  -22.1661   -4.2149   21.0980 F   0  0  0  0  0  0
  -21.5628   -3.4538   25.7738 F   0  0  0  0  0  0
  -29.9713  -13.6171   20.4056 N   0  0  0  0  0  0
  -26.2930  -12.9389   20.3251 N   0  0  0  0  0  0
  -25.9330  -11.6534   20.5738 N   0  0  0  0  0  0
  -22.0469  -12.8210   22.0432 N   0  0  0  0  0  0
  -25.4179  -15.1903   20.4047 N   0  0  0  0  0  0
  -31.6999  -15.0434   20.1204 O   0  0  0  0  0  0
  -21.6640   -6.8879   21.4241 O   0  0  0  0  0  0
  -22.3518  -14.5521   20.6718 O   0  0  0  0  0  0
  -24.6418  -31.8462   23.1900 C   0  0  0  0  0  0
  -25.9197  -32.4707   23.8284 C   0  0  1  0  0  0
  -27.2216  -27.1601   20.1448 C   0  0  0  0  0  0
  -25.5951  -33.8511   24.2202 N   0  0  0  0  0  0
  -23.4442  -30.4664   21.5354 C   0  0  2  0  0  0
  -24.8938  -28.8978   20.1110 C   0  0  0  0  0  0
  -22.7559  -29.4559   22.4869 C   0  0  0  0  0  0
  -18.0304  -28.1394   22.8480 C   0  0  0  0  0  0
  -24.1491  -36.7261   23.2642 C   0  0  0  0  0  0
  -25.9991  -30.7278   21.3852 C   0  0  0  0  0  0
  -26.0713  -29.3414   20.7261 C   0  0  0  0  0  0
  -27.2366  -28.4893   20.7251 C   0  0  0  0  0  0
  -26.0151  -26.8126   19.4952 C   0  0  0  0  0  0
  -24.8774  -27.6457   19.4807 C   0  0  0  0  0  0
  -23.6694  -29.7970   20.1544 C   0  0  0  0  0  0
  -25.4122  -36.3039   24.0318 C   0  0  1  0  0  0
  -20.5916  -28.3719   23.1240 C   0  0  2  0  0  0
  -20.6788  -26.9424   22.5404 C   0  0  0  0  0  0
  -19.5761  -26.6382   21.5212 C   0  0  0  0  0  0
  -18.1944  -26.7932   22.1625 C   0  0  0  0  0  0
  -19.1560  -28.8874   23.2853 C   0  0  0  0  0  0
  -18.9476  -30.1470   23.8879 C   0  0  0  0  0  0
  -17.6473  -30.6590   24.0560 C   0  0  0  0  0  0
  -25.9071  -34.9413   23.5067 C   0  0  0  0  0  0
  -16.5365  -29.9084   23.6334 C   0  0  0  0  0  0
  -16.7289  -28.6502   23.0357 C   0  0  0  0  0  0
  -26.4524  -31.6567   25.0717 C   0  0  0  0  0  0
  -25.3713  -31.3749   26.1414 C   0  0  0  0  0  0
  -27.0389  -30.2967   24.6284 C   0  0  0  0  0  0
  -27.6055  -32.4330   25.7504 C   0  0  0  0  0  0
  -27.5575  -37.1788   24.8466 C   0  0  0  0  0  0
  -21.4253  -29.3049   22.3615 N   0  0  0  0  0  0
  -26.4288  -37.3749   23.9407 N   0  0  0  0  0  0
  -24.7147  -31.0339   22.0923 N   0  0  0  0  0  0
  -23.4210  -28.8105   23.3011 O   0  0  0  0  0  0
  -28.2839  -26.1903   20.2094 O   0  0  0  0  0  0
  -26.5655  -34.8907   22.4645 O   0  0  0  0  0  0
  -23.5541  -32.1327   23.7132 O   0  0  0  0  0  0
  -30.5245  -18.5037   20.3139 C   0  0  0  0  0  0
  -30.2398  -19.9424   20.2481 C   0  0  0  0  0  0
  -28.2377  -18.0894   20.7173 C   0  0  0  0  0  0
  -29.5262  -17.4903   20.5538 C   0  0  0  0  0  0
  -28.9265  -20.5197   20.4008 C   0  0  0  0  0  0
  -27.9517  -19.4999   20.6388 C   0  0  0  0  0  0
  -29.0191  -23.3642   20.3287 C   0  0  0  0  0  0
  -27.9896  -24.6730   20.1007 C   0  0  0  0  0  0
  -29.6277  -15.9686   20.6763 N   0  0  0  0  0  0
  -28.4450  -21.9237   20.3189 N   0  0  0  0  0  0
  -26.6635  -19.8926   20.8011 F   0  0  0  0  0  0
  -31.4868  -12.7244   19.1781 H   0  0  0  0  0  0
  -30.4526  -11.5833   19.9915 H   0  0  0  0  0  0
  -29.8344  -11.7457   17.5584 H   0  0  0  0  0  0
  -29.6216  -13.4716   17.7067 H   0  0  0  0  0  0
  -27.9374  -11.2763   18.9482 H   0  0  0  0  0  0
  -27.3942  -12.4821   17.8109 H   0  0  0  0  0  0
  -27.6202  -14.2476   19.4465 H   0  0  0  0  0  0
  -28.7578  -12.2029   21.4179 H   0  0  0  0  0  0
  -28.3902  -13.8635   21.8012 H   0  0  0  0  0  0
  -25.2767   -9.5676   22.4764 H   0  0  0  0  0  0
  -24.0002   -7.4630   22.7473 H   0  0  0  0  0  0
  -21.0846   -8.8779   19.8954 H   0  0  0  0  0  0
  -22.3707  -10.9675   19.6170 H   0  0  0  0  0  0
  -21.2008   -7.6147   23.9715 H   0  0  0  0  0  0
  -21.1481   -6.0522   25.9077 H   0  0  0  0  0  0
  -22.0598   -2.7609   23.2846 H   0  0  0  0  0  0
  -22.4087  -11.9876   22.4827 H   0  0  0  0  0  0
  -21.1085  -13.1234   22.2632 H   0  0  0  0  0  0
  -24.6343  -15.8292   20.4856 H   0  0  0  0  0  0
  -26.2258  -15.6114   19.9669 H   0  0  0  0  0  0
  -26.7265  -32.5322   23.1016 H   0  0  0  0  0  0
  -25.0078  -33.9629   25.0335 H   0  0  0  0  0  0
  -22.7458  -31.2918   21.3824 H   0  0  0  0  0  0
  -23.3756  -35.9590   23.3296 H   0  0  0  0  0  0
  -24.3577  -36.8900   22.2058 H   0  0  0  0  0  0
  -23.7244  -37.6455   23.6683 H   0  0  0  0  0  0
  -26.1521  -31.4837   20.6138 H   0  0  0  0  0  0
  -26.8706  -30.7773   22.0264 H   0  0  0  0  0  0
  -28.1343  -28.8253   21.2249 H   0  0  0  0  0  0
  -25.9120  -25.8576   19.0043 H   0  0  0  0  0  0
  -23.9784  -27.3005   18.9888 H   0  0  0  0  0  0
  -23.8041  -30.5720   19.3989 H   0  0  0  0  0  0
  -22.7849  -29.2378   19.8443 H   0  0  0  0  0  0
  -25.1309  -36.1870   25.0810 H   0  0  0  0  0  0
  -21.0009  -28.3307   24.1360 H   0  0  0  0  0  0
  -20.5682  -26.2332   23.3621 H   0  0  0  0  0  0
  -21.6654  -26.7431   22.1201 H   0  0  0  0  0  0
  -19.6921  -25.6287   21.1255 H   0  0  0  0  0  0
  -19.6695  -27.3180   20.6732 H   0  0  0  0  0  0
  -17.4211  -26.6676   21.4031 H   0  0  0  0  0  0
  -18.0345  -26.0079   22.9027 H   0  0  0  0  0  0
  -19.7951  -30.7292   24.2240 H   0  0  0  0  0  0
  -17.5025  -31.6268   24.5165 H   0  0  0  0  0  0
  -15.5364  -30.2979   23.7667 H   0  0  0  0  0  0
  -15.8690  -28.0811   22.7084 H   0  0  0  0  0  0
  -24.5901  -30.7087   25.7735 H   0  0  0  0  0  0
  -24.8892  -32.2927   26.4787 H   0  0  0  0  0  0
  -25.8000  -30.8958   27.0225 H   0  0  0  0  0  0
  -26.3004  -29.6691   24.1283 H   0  0  0  0  0  0
  -27.4003  -29.7262   25.4851 H   0  0  0  0  0  0
  -27.8910  -30.4210   23.9598 H   0  0  0  0  0  0
  -27.2646  -33.3647   26.2033 H   0  0  0  0  0  0
  -28.3893  -32.6865   25.0354 H   0  0  0  0  0  0
  -28.0693  -31.8489   26.5463 H   0  0  0  0  0  0
  -28.2588  -38.0089   24.7508 H   0  0  0  0  0  0
  -28.1076  -36.2618   24.6299 H   0  0  0  0  0  0
  -27.2293  -37.1442   25.8869 H   0  0  0  0  0  0
  -20.9459  -29.8764   21.6799 H   0  0  0  0  0  0
  -26.0156  -38.2819   24.1406 H   0  0  0  0  0  0
  -31.5487  -18.1858   20.1776 H   0  0  0  0  0  0
  -31.0676  -20.6099   20.0582 H   0  0  0  0  0  0
  -27.3956  -17.4430   20.9126 H   0  0  0  0  0  0
  -29.5195  -23.4980   21.2886 H   0  0  0  0  0  0
  -29.8103  -23.4143   19.5796 H   0  0  0  0  0  0
  -27.1484  -24.5046   20.7742 H   0  0  0  0  0  0
  -27.5896  -24.5248   19.0982 H   0  0  0  0  0  0
  -28.7397  -15.5670   20.9350 H   0  0  0  0  0  0
  -27.4303  -21.9347   20.4063 H   0  0  0  0  0  0
  1 25  1  0  0  0
  1 30  2  0  0  0
  1 79  1  0  0  0
  2  3  1  0  0  0
  2 25  1  0  0  0
  2 82  1  0  0  0
  2 83  1  0  0  0
  3  4  1  0  0  0
  3 84  1  0  0  0
  3 85  1  0  0  0
  4  5  1  0  0  0
  4 86  1  0  0  0
  4 87  1  0  0  0
  5  6  1  0  0  0
  5 26  1  0  0  0
  5 88  1  0  0  0
  6 25  1  0  0  0
  6 89  1  0  0  0
  6 90  1  0  0  0
  7  8  2  0  0  0
  7 26  1  0  0  0
  7 29  1  0  0  0
  8  9  1  0  0  0
  8 22  1  0  0  0
  9 10  1  0  0  0
  9 27  2  0  0  0
 10 11  2  0  0  0
 10 15  1  0  0  0
 11 12  1  0  0  0
 11 91  1  0  0  0
 12 13  2  0  0  0
 12 92  1  0  0  0
 13 14  1  0  0  0
 13 31  1  0  0  0
 14 15  2  0  0  0
 14 93  1  0  0  0
 15 94  1  0  0  0
 16 17  2  0  0  0
 16 21  1  0  0  0
 16 31  1  0  0  0
 17 18  1  0  0  0
 17 95  1  0  0  0
 18 19  2  0  0  0
 18 96  1  0  0  0
 19 20  1  0  0  0
 19 24  1  0  0  0
 20 21  2  0  0  0
 20 97  1  0  0  0
 21 23  1  0  0  0
 22 28  1  0  0  0
 22 32  2  0  0  0
 26 27  1  0  0  0
 28 98  1  0  0  0
 28 99  1  0  0  0
 29100  1  0  0  0
 29101  1  0  0  0
 33 34  1  0  0  0
 33 66  1  0  0  0
 33 70  2  0  0  0
 34 36  1  0  0  0
 34 59  1  0  0  0
 34102  1  0  0  0
 35 44  2  0  0  0
 35 45  1  0  0  0
 35 68  1  0  0  0
 36 56  1  0  0  0
 36103  1  0  0  0
 37 39  1  0  0  0
 37 47  1  0  0  0
 37 66  1  0  0  0
 37104  1  0  0  0
 38 43  2  0  0  0
 38 46  1  0  0  0
 38 47  1  0  0  0
 39 64  1  0  0  0
 39 67  2  0  0  0
 40 52  1  0  0  0
 40 53  2  0  0  0
 40 58  1  0  0  0
 41105  1  0  0  0
 41106  1  0  0  0
 41107  1  0  0  0
 41 48  1  0  0  0
 42 43  1  0  0  0
 42 66  1  0  0  0
 42108  1  0  0  0
 42109  1  0  0  0
 43 44  1  0  0  0
 44110  1  0  0  0
 45 46  2  0  0  0
 45111  1  0  0  0
 46112  1  0  0  0
 47113  1  0  0  0
 47114  1  0  0  0
 48 56  1  0  0  0
 48 65  1  0  0  0
 48115  1  0  0  0
 49 50  1  0  0  0
 49 53  1  0  0  0
 49 64  1  0  0  0
 49116  1  0  0  0
 50 51  1  0  0  0
 50117  1  0  0  0
 50118  1  0  0  0
 51 52  1  0  0  0
 51119  1  0  0  0
 51120  1  0  0  0
 52121  1  0  0  0
 52122  1  0  0  0
 53 54  1  0  0  0
 54 55  2  0  0  0
 54123  1  0  0  0
 55 57  1  0  0  0
 55124  1  0  0  0
 56 69  2  0  0  0
 57 58  2  0  0  0
 57125  1  0  0  0
 58126  1  0  0  0
 59 60  1  0  0  0
 59 61  1  0  0  0
 59 62  1  0  0  0
 60127  1  0  0  0
 60128  1  0  0  0
 60129  1  0  0  0
 61130  1  0  0  0
 61131  1  0  0  0
 61132  1  0  0  0
 62133  1  0  0  0
 62134  1  0  0  0
 62135  1  0  0  0
 63 65  1  0  0  0
 63136  1  0  0  0
 63137  1  0  0  0
 63138  1  0  0  0
 64139  1  0  0  0
 65140  1  0  0  0
 68 78  1  0  0  0
 71 72  2  0  0  0
 71 74  1  0  0  0
 71141  1  0  0  0
 72 75  1  0  0  0
 72142  1  0  0  0
 73 74  2  0  0  0
 73 76  1  0  0  0
 73143  1  0  0  0
 74 79  1  0  0  0
 75 76  2  0  0  0
 75 80  1  0  0  0
 76 81  1  0  0  0
 77 78  1  0  0  0
 77 80  1  0  0  0
 77144  1  0  0  0
 77145  1  0  0  0
 78146  1  0  0  0
 78147  1  0  0  0
 79148  1  0  0  0
 80149  1  0  0  0
M  ISO  4   1 100  68 101  78 101  79 100
M  END
> <chiral flag>
0

> <version>
0

> <s_m_source_file>
/data/baiqing/PycharmProjects/Reinvent-master-3.2/result/LINK_invent/BTK/process_docking_weight1_custom_sum_contain_oxygen_bond_distance_aromatic_linkinvent_7_9_3/rearranged_h_0010.sdf

> <i_m_source_file_index>
81

> <r_mmod_Potential_Energy-OPLS-2005>
439.158630371094

> <r_mmod_Stretch_Energy-OPLS-2005>
203.636749267578

> <r_mmod_Bend_Energy-OPLS-2005>
289.371398925781

> <r_mmod_Torsional_Energy-OPLS-2005>
203.223831176758

> <r_mmod_Improper_Torsional_Energy-OPLS-2005>
4.78017473220825

> <r_mmod_Van_der_Waal_Energy-OPLS-2005>
132.002258300781

> <r_mmod_Electrostatic_Energy-OPLS-2005>
-342.497528076172

> <r_mmod_Solvation_Energy-OPLS-2005>
-216.202575683594

> <b_mmod_Minimization_Converged-OPLS-2005>
0

> <r_mmod_RMS_Derivative-OPLS-2005>
0.15217213332653

$$$$
81
                    3D
 Structure written by MMmdl.
151159  0  0  1  0            999 V2000
  -30.5239  -14.9240   20.4254 C   0  0  0  0  0  0
  -30.4500  -12.5690   19.4926 C   0  0  0  0  0  0
  -29.5239  -12.5344   18.2531 C   0  0  0  0  0  0
  -28.0548  -12.3235   18.6686 C   0  0  0  0  0  0
  -27.6365  -13.2418   19.8461 C   0  0  2  0  0  0
  -28.6820  -13.2341   20.9828 C   0  0  0  0  0  0
  -25.2484  -13.8188   20.5731 C   0  0  0  0  0  0
  -24.1788  -13.0419   20.9219 C   0  0  0  0  0  0
  -24.6401  -11.6906   20.8744 C   0  0  0  0  0  0
  -23.9080  -10.4281   21.0402 C   0  0  0  0  0  0
  -24.3626   -9.4198   21.9183 C   0  0  0  0  0  0
  -23.6296   -8.2237   22.0755 C   0  0  0  0  0  0
  -22.4277   -8.0278   21.3546 C   0  0  0  0  0  0
  -21.9916   -9.0250   20.4645 C   0  0  0  0  0  0
  -22.7250  -10.2126   20.3053 C   0  0  0  0  0  0
  -21.6852   -6.0734   22.5281 C   0  0  0  0  0  0
  -21.4013   -6.5639   23.8214 C   0  0  0  0  0  0
  -21.3660   -5.6793   24.9177 C   0  0  0  0  0  0
  -21.6045   -4.3055   24.7228 C   0  0  0  0  0  0
  -21.8819   -3.8146   23.4349 C   0  0  0  0  0  0
  -21.9192   -4.6962   22.3404 C   0  0  0  0  0  0
  -22.7808  -13.5196   21.1878 C   0  0  0  0  0  0
  -22.1659   -4.2148   21.0982 F   0  0  0  0  0  0
  -21.5632   -3.4539   25.7741 F   0  0  0  0  0  0
  -29.9649  -13.6486   20.3958 N   0  0  0  0  0  0
  -26.2920  -12.9420   20.3275 N   0  0  0  0  0  0
  -25.9336  -11.6552   20.5738 N   0  0  0  0  0  0
  -22.0458  -12.8185   22.0435 N   0  0  0  0  0  0
  -25.4129  -15.1920   20.4212 N   0  0  0  0  0  0
  -31.7160  -15.0405   20.1197 O   0  0  0  0  0  0
  -21.6639   -6.8877   21.4242 O   0  0  0  0  0  0
  -22.3491  -14.5502   20.6726 O   0  0  0  0  0  0
  -24.6433  -31.8445   23.1894 C   0  0  0  0  0  0
  -25.9206  -32.4698   23.8280 C   0  0  1  0  0  0
  -27.2189  -27.1398   20.1449 C   0  0  0  0  0  0
  -25.5956  -33.8505   24.2195 N   0  0  0  0  0  0
  -23.4470  -30.4647   21.5349 C   0  0  2  0  0  0
  -24.8977  -28.8958   20.1084 C   0  0  0  0  0  0
  -22.7568  -29.4548   22.4859 C   0  0  0  0  0  0
  -18.0305  -28.1396   22.8478 C   0  0  0  0  0  0
  -24.1492  -36.7254   23.2642 C   0  0  0  0  0  0
  -26.0039  -30.7178   21.3906 C   0  0  0  0  0  0
  -26.0750  -29.3303   20.7305 C   0  0  0  0  0  0
  -27.2352  -28.4673   20.7356 C   0  0  0  0  0  0
  -26.0175  -26.8151   19.4729 C   0  0  0  0  0  0
  -24.8819  -27.6511   19.4646 C   0  0  0  0  0  0
  -23.6737  -29.7965   20.1535 C   0  0  0  0  0  0
  -25.4125  -36.3034   24.0315 C   0  0  1  0  0  0
  -20.5917  -28.3723   23.1234 C   0  0  2  0  0  0
  -20.6788  -26.9425   22.5404 C   0  0  0  0  0  0
  -19.5761  -26.6382   21.5213 C   0  0  0  0  0  0
  -18.1943  -26.7936   22.1624 C   0  0  0  0  0  0
  -19.1562  -28.8878   23.2848 C   0  0  0  0  0  0
  -18.9478  -30.1474   23.8874 C   0  0  0  0  0  0
  -17.6474  -30.6593   24.0560 C   0  0  0  0  0  0
  -25.9074  -34.9409   23.5062 C   0  0  0  0  0  0
  -16.5365  -29.9085   23.6338 C   0  0  0  0  0  0
  -16.7289  -28.6504   23.0359 C   0  0  0  0  0  0
  -26.4528  -31.6567   25.0722 C   0  0  0  0  0  0
  -25.3709  -31.3758   26.1413 C   0  0  0  0  0  0
  -27.0397  -30.2962   24.6309 C   0  0  0  0  0  0
  -27.6055  -32.4336   25.7508 C   0  0  0  0  0  0
  -27.5577  -37.1785   24.8465 C   0  0  0  0  0  0
  -21.4260  -29.3048   22.3606 N   0  0  0  0  0  0
  -26.4289  -37.3746   23.9407 N   0  0  0  0  0  0
  -24.7177  -31.0299   22.0933 N   0  0  0  0  0  0
  -23.4210  -28.8092   23.3007 O   0  0  0  0  0  0
  -28.2592  -26.1404   20.2313 O   0  0  0  0  0  0
  -26.5657  -34.8904   22.4639 O   0  0  0  0  0  0
  -23.5551  -32.1325   23.7111 O   0  0  0  0  0  0
  -29.9461  -20.0075   21.1177 C   0  0  0  0  0  0
  -30.2205  -18.5730   21.2343 C   0  0  0  0  0  0
  -28.5185  -19.5560   19.3024 C   0  0  0  0  0  0
  -28.7894  -18.1335   19.4050 C   0  0  0  0  0  0
  -29.0512  -20.5847   20.1490 C   0  0  0  0  0  0
  -29.6528  -17.5467   20.3921 C   0  0  0  0  0  0
  -28.8685  -23.3502   20.3991 C   0  0  0  0  0  0
  -28.0804  -17.2196   18.4200 C   0  0  0  0  0  0
  -27.9449  -24.6452   19.9272 C   0  0  0  0  0  0
  -28.5777  -22.0342   19.9577 N   0  0  0  0  0  0
  -29.6718  -16.0339   20.6462 N   0  0  0  0  0  0
  -29.8199  -23.5531   21.1581 O   0  0  0  0  0  0
  -31.4826  -12.7355   19.1813 H   0  0  0  0  0  0
  -30.4452  -11.6071   20.0078 H   0  0  0  0  0  0
  -29.8363  -11.7449   17.5682 H   0  0  0  0  0  0
  -29.6162  -13.4719   17.7024 H   0  0  0  0  0  0
  -27.9429  -11.2786   18.9602 H   0  0  0  0  0  0
  -27.3930  -12.4739   17.8148 H   0  0  0  0  0  0
  -27.6079  -14.2509   19.4353 H   0  0  0  0  0  0
  -28.7611  -12.2442   21.4345 H   0  0  0  0  0  0
  -28.3859  -13.9119   21.7849 H   0  0  0  0  0  0
  -25.2770   -9.5673   22.4759 H   0  0  0  0  0  0
  -24.0001   -7.4628   22.7476 H   0  0  0  0  0  0
  -21.0848   -8.8771   19.8950 H   0  0  0  0  0  0
  -22.3711  -10.9665   19.6161 H   0  0  0  0  0  0
  -21.2004   -7.6147   23.9716 H   0  0  0  0  0  0
  -21.1484   -6.0525   25.9080 H   0  0  0  0  0  0
  -22.0597   -2.7609   23.2852 H   0  0  0  0  0  0
  -22.4078  -11.9847   22.4821 H   0  0  0  0  0  0
  -21.1074  -13.1207   22.2642 H   0  0  0  0  0  0
  -24.6411  -15.8387   20.5438 H   0  0  0  0  0  0
  -26.2586  -15.6432   20.1028 H   0  0  0  0  0  0
  -26.7271  -32.5304   23.1007 H   0  0  0  0  0  0
  -25.0089  -33.9625   25.0332 H   0  0  0  0  0  0
  -22.7495  -31.2907   21.3814 H   0  0  0  0  0  0
  -23.3760  -35.9579   23.3294 H   0  0  0  0  0  0
  -24.3576  -36.8897   22.2059 H   0  0  0  0  0  0
  -23.7241  -37.6445   23.6685 H   0  0  0  0  0  0
  -26.1615  -31.4731   20.6195 H   0  0  0  0  0  0
  -26.8734  -30.7659   22.0342 H   0  0  0  0  0  0
  -28.1284  -28.7923   21.2506 H   0  0  0  0  0  0
  -25.9128  -25.8705   18.9617 H   0  0  0  0  0  0
  -23.9855  -27.3155   18.9614 H   0  0  0  0  0  0
  -23.8094  -30.5722   19.3991 H   0  0  0  0  0  0
  -22.7888  -29.2384   19.8422 H   0  0  0  0  0  0
  -25.1313  -36.1863   25.0807 H   0  0  0  0  0  0
  -21.0011  -28.3315   24.1354 H   0  0  0  0  0  0
  -20.5682  -26.2336   23.3624 H   0  0  0  0  0  0
  -21.6653  -26.7429   22.1202 H   0  0  0  0  0  0
  -19.6921  -25.6287   21.1257 H   0  0  0  0  0  0
  -19.6698  -27.3180   20.6732 H   0  0  0  0  0  0
  -17.4211  -26.6682   21.4028 H   0  0  0  0  0  0
  -18.0340  -26.0083   22.9025 H   0  0  0  0  0  0
  -19.7953  -30.7298   24.2232 H   0  0  0  0  0  0
  -17.5025  -31.6270   24.5166 H   0  0  0  0  0  0
  -15.5364  -30.2978   23.7675 H   0  0  0  0  0  0
  -15.8690  -28.0813   22.7088 H   0  0  0  0  0  0
  -24.5902  -30.7089   25.7735 H   0  0  0  0  0  0
  -24.8882  -32.2939   26.4769 H   0  0  0  0  0  0
  -25.7991  -30.8982   27.0235 H   0  0  0  0  0  0
  -26.3020  -29.6682   24.1303 H   0  0  0  0  0  0
  -27.3992  -29.7265   25.4888 H   0  0  0  0  0  0
  -27.8934  -30.4197   23.9643 H   0  0  0  0  0  0
  -27.2647  -33.3659   26.2023 H   0  0  0  0  0  0
  -28.3899  -32.6862   25.0360 H   0  0  0  0  0  0
  -28.0686  -31.8503   26.5476 H   0  0  0  0  0  0
  -28.2586  -38.0089   24.7512 H   0  0  0  0  0  0
  -28.1082  -36.2617   24.6295 H   0  0  0  0  0  0
  -27.2291  -37.1434   25.8868 H   0  0  0  0  0  0
  -20.9470  -29.8766   21.6789 H   0  0  0  0  0  0
  -26.0155  -38.2813   24.1413 H   0  0  0  0  0  0
  -30.4144  -20.6699   21.8321 H   0  0  0  0  0  0
  -30.8590  -18.2571   22.0472 H   0  0  0  0  0  0
  -27.8285  -19.8678   18.5307 H   0  0  0  0  0  0
  -27.8383  -17.7482   17.4975 H   0  0  0  0  0  0
  -27.1501  -16.8492   18.8476 H   0  0  0  0  0  0
  -28.7019  -16.3660   18.1479 H   0  0  0  0  0  0
  -26.9625  -24.4317   20.3489 H   0  0  0  0  0  0
  -27.8333  -24.5591   18.8460 H   0  0  0  0  0  0
  -27.8063  -22.0811   19.3056 H   0  0  0  0  0  0
  -28.7508  -15.6868   20.8644 H   0  0  0  0  0  0
  1 25  1  0  0  0
  1 30  2  0  0  0
  1 81  1  0  0  0
  2  3  1  0  0  0
  2 25  1  0  0  0
  2 83  1  0  0  0
  2 84  1  0  0  0
  3  4  1  0  0  0
  3 85  1  0  0  0
  3 86  1  0  0  0
  4  5  1  0  0  0
  4 87  1  0  0  0
  4 88  1  0  0  0
  5  6  1  0  0  0
  5 26  1  0  0  0
  5 89  1  0  0  0
  6 25  1  0  0  0
  6 90  1  0  0  0
  6 91  1  0  0  0
  7  8  2  0  0  0
  7 26  1  0  0  0
  7 29  1  0  0  0
  8  9  1  0  0  0
  8 22  1  0  0  0
  9 10  1  0  0  0
  9 27  2  0  0  0
 10 11  2  0  0  0
 10 15  1  0  0  0
 11 12  1  0  0  0
 11 92  1  0  0  0
 12 13  2  0  0  0
 12 93  1  0  0  0
 13 14  1  0  0  0
 13 31  1  0  0  0
 14 15  2  0  0  0
 14 94  1  0  0  0
 15 95  1  0  0  0
 16 17  2  0  0  0
 16 21  1  0  0  0
 16 31  1  0  0  0
 17 18  1  0  0  0
 17 96  1  0  0  0
 18 19  2  0  0  0
 18 97  1  0  0  0
 19 20  1  0  0  0
 19 24  1  0  0  0
 20 21  2  0  0  0
 20 98  1  0  0  0
 21 23  1  0  0  0
 22 28  1  0  0  0
 22 32  2  0  0  0
 26 27  1  0  0  0
 28 99  1  0  0  0
 28100  1  0  0  0
 29101  1  0  0  0
 29102  1  0  0  0
 33 34  1  0  0  0
 33 66  1  0  0  0
 33 70  2  0  0  0
 34 36  1  0  0  0
 34 59  1  0  0  0
 34103  1  0  0  0
 35 44  2  0  0  0
 35 45  1  0  0  0
 35 68  1  0  0  0
 36 56  1  0  0  0
 36104  1  0  0  0
 37 39  1  0  0  0
 37 47  1  0  0  0
 37 66  1  0  0  0
 37105  1  0  0  0
 38 43  2  0  0  0
 38 46  1  0  0  0
 38 47  1  0  0  0
 39 64  1  0  0  0
 39 67  2  0  0  0
 40 52  1  0  0  0
 40 53  2  0  0  0
 40 58  1  0  0  0
 41106  1  0  0  0
 41107  1  0  0  0
 41108  1  0  0  0
 41 48  1  0  0  0
 42 43  1  0  0  0
 42 66  1  0  0  0
 42109  1  0  0  0
 42110  1  0  0  0
 43 44  1  0  0  0
 44111  1  0  0  0
 45 46  2  0  0  0
 45112  1  0  0  0
 46113  1  0  0  0
 47114  1  0  0  0
 47115  1  0  0  0
 48 56  1  0  0  0
 48 65  1  0  0  0
 48116  1  0  0  0
 49 50  1  0  0  0
 49 53  1  0  0  0
 49 64  1  0  0  0
 49117  1  0  0  0
 50 51  1  0  0  0
 50118  1  0  0  0
 50119  1  0  0  0
 51 52  1  0  0  0
 51120  1  0  0  0
 51121  1  0  0  0
 52122  1  0  0  0
 52123  1  0  0  0
 53 54  1  0  0  0
 54 55  2  0  0  0
 54124  1  0  0  0
 55 57  1  0  0  0
 55125  1  0  0  0
 56 69  2  0  0  0
 57 58  2  0  0  0
 57126  1  0  0  0
 58127  1  0  0  0
 59 60  1  0  0  0
 59 61  1  0  0  0
 59 62  1  0  0  0
 60128  1  0  0  0
 60129  1  0  0  0
 60130  1  0  0  0
 61131  1  0  0  0
 61132  1  0  0  0
 61133  1  0  0  0
 62134  1  0  0  0
 62135  1  0  0  0
 62136  1  0  0  0
 63 65  1  0  0  0
 63137  1  0  0  0
 63138  1  0  0  0
 63139  1  0  0  0
 64140  1  0  0  0
 65141  1  0  0  0
 68 79  1  0  0  0
 71 72  2  0  0  0
 71 75  1  0  0  0
 71142  1  0  0  0
 72 76  1  0  0  0
 72143  1  0  0  0
 73 74  1  0  0  0
 73 75  2  0  0  0
 73144  1  0  0  0
 74 76  2  0  0  0
 74 78  1  0  0  0
 75 80  1  0  0  0
 76 81  1  0  0  0
 77 79  1  0  0  0
 77 80  1  0  0  0
 77 82  2  0  0  0
 78145  1  0  0  0
 78146  1  0  0  0
 78147  1  0  0  0
 79148  1  0  0  0
 79149  1  0  0  0
 80150  1  0  0  0
 81151  1  0  0  0
M  ISO  4   1 100  68 101  79 101  81 100
M  END
> <chiral flag>
0

> <version>
0

> <s_m_source_file>
/data/baiqing/PycharmProjects/Reinvent-master-3.2/result/LINK_invent/BTK/process_docking_weight1_custom_sum_contain_oxygen_bond_distance_aromatic_linkinvent_7_9_3/rearranged_h_0010.sdf

> <i_m_source_file_index>
82

> <r_mmod_Potential_Energy-OPLS-2005>
408.473846435547

> <r_mmod_Stretch_Energy-OPLS-2005>
221.40803527832

> <r_mmod_Bend_Energy-OPLS-2005>
260.003326416016

> <r_mmod_Torsional_Energy-OPLS-2005>
248.484390258789

> <r_mmod_Improper_Torsional_Energy-OPLS-2005>
6.22255659103394

> <r_mmod_Van_der_Waal_Energy-OPLS-2005>
127.763702392578

> <r_mmod_Electrostatic_Energy-OPLS-2005>
-387.741668701172

> <r_mmod_Solvation_Energy-OPLS-2005>
-252.530776977539

> <b_mmod_Minimization_Converged-OPLS-2005>
0

> <r_mmod_RMS_Derivative-OPLS-2005>
0.222149834036827

$$$$
82
                    3D
 Structure written by MMmdl.
151159  0  0  1  0            999 V2000
  -30.6183  -14.6884   20.5139 C   0  0  0  0  0  0
  -30.4359  -12.4337   19.4638 C   0  0  0  0  0  0
  -29.5135  -12.5566   18.2311 C   0  0  0  0  0  0
  -28.0372  -12.3840   18.6297 C   0  0  0  0  0  0
  -27.6555  -13.2329   19.8715 C   0  0  2  0  0  0
  -28.6981  -13.0967   21.0054 C   0  0  0  0  0  0
  -25.2556  -13.8210   20.5713 C   0  0  0  0  0  0
  -24.1819  -13.0449   20.9188 C   0  0  0  0  0  0
  -24.6435  -11.6934   20.8744 C   0  0  0  0  0  0
  -23.9092  -10.4291   21.0363 C   0  0  0  0  0  0
  -24.3651   -9.4206   21.9131 C   0  0  0  0  0  0
  -23.6309   -8.2257   22.0720 C   0  0  0  0  0  0
  -22.4288   -8.0293   21.3541 C   0  0  0  0  0  0
  -21.9934   -9.0258   20.4628 C   0  0  0  0  0  0
  -22.7273  -10.2129   20.3016 C   0  0  0  0  0  0
  -21.6874   -6.0737   22.5277 C   0  0  0  0  0  0
  -21.4030   -6.5634   23.8203 C   0  0  0  0  0  0
  -21.3679   -5.6772   24.9165 C   0  0  0  0  0  0
  -21.6040   -4.3054   24.7207 C   0  0  0  0  0  0
  -21.8837   -3.8139   23.4323 C   0  0  0  0  0  0
  -21.9204   -4.6962   22.3389 C   0  0  0  0  0  0
  -22.7831  -13.5241   21.1808 C   0  0  0  0  0  0
  -22.1651   -4.2152   21.0969 F   0  0  0  0  0  0
  -21.5636   -3.4527   25.7714 F   0  0  0  0  0  0
  -30.0159  -13.4528   20.4529 N   0  0  0  0  0  0
  -26.3007  -12.9411   20.3353 N   0  0  0  0  0  0
  -25.9377  -11.6563   20.5761 N   0  0  0  0  0  0
  -22.0454  -12.8264   22.0419 N   0  0  0  0  0  0
  -25.4261  -15.1926   20.4188 N   0  0  0  0  0  0
  -31.7466  -14.8581   20.0396 O   0  0  0  0  0  0
  -21.6664   -6.8882   21.4224 O   0  0  0  0  0  0
  -22.3495  -14.5516   20.6631 O   0  0  0  0  0  0
  -24.6263  -31.8598   23.1996 C   0  0  0  0  0  0
  -25.9118  -32.4779   23.8327 C   0  0  1  0  0  0
  -27.2440  -27.3066   20.1323 C   0  0  0  0  0  0
  -25.5949  -33.8587   24.2276 N   0  0  0  0  0  0
  -23.4204  -30.4782   21.5458 C   0  0  2  0  0  0
  -24.8716  -28.9196   20.1219 C   0  0  0  0  0  0
  -22.7472  -29.4642   22.4998 C   0  0  0  0  0  0
  -18.0303  -28.1373   22.8479 C   0  0  0  0  0  0
  -24.1504  -36.7279   23.2632 C   0  0  0  0  0  0
  -25.9629  -30.7810   21.3774 C   0  0  0  0  0  0
  -26.0393  -29.4068   20.7226 C   0  0  0  0  0  0
  -27.2260  -28.6130   20.7158 C   0  0  0  0  0  0
  -26.0486  -26.8692   19.5151 C   0  0  0  0  0  0
  -24.8787  -27.6550   19.5111 C   0  0  0  0  0  0
  -23.6351  -29.7970   20.1681 C   0  0  0  0  0  0
  -25.4137  -36.3092   24.0332 C   0  0  1  0  0  0
  -20.5892  -28.3685   23.1288 C   0  0  2  0  0  0
  -20.6825  -26.9422   22.5401 C   0  0  0  0  0  0
  -19.5800  -26.6366   21.5226 C   0  0  0  0  0  0
  -18.1971  -26.7919   22.1604 C   0  0  0  0  0  0
  -19.1543  -28.8850   23.2867 C   0  0  0  0  0  0
  -18.9471  -30.1464   23.8859 C   0  0  0  0  0  0
  -17.6464  -30.6574   24.0553 C   0  0  0  0  0  0
  -25.9078  -34.9468   23.5103 C   0  0  0  0  0  0
  -16.5364  -29.9063   23.6332 C   0  0  0  0  0  0
  -16.7285  -28.6480   23.0351 C   0  0  0  0  0  0
  -26.4481  -31.6589   25.0709 C   0  0  0  0  0  0
  -25.3699  -31.3732   26.1424 C   0  0  0  0  0  0
  -27.0354  -30.3025   24.6179 C   0  0  0  0  0  0
  -27.6045  -32.4320   25.7470 C   0  0  0  0  0  0
  -27.5609  -37.1794   24.8455 C   0  0  0  0  0  0
  -21.4202  -29.3019   22.3689 N   0  0  0  0  0  0
  -26.4304  -37.3797   23.9413 N   0  0  0  0  0  0
  -24.6886  -31.0584   22.0967 N   0  0  0  0  0  0
  -23.4166  -28.8224   23.3136 O   0  0  0  0  0  0
  -28.3839  -26.4785   20.1614 O   0  0  0  0  0  0
  -26.5641  -34.8918   22.4668 O   0  0  0  0  0  0
  -23.5438  -32.1430   23.7307 O   0  0  0  0  0  0
  -30.3063  -17.7857   19.5591 C   0  0  0  0  0  0
  -29.3834  -18.0960   21.7608 C   0  0  0  0  0  0
  -30.1503  -19.1846   19.3131 C   0  0  0  0  0  0
  -29.2632  -19.5058   21.5264 C   0  0  0  0  0  0
  -29.9033  -17.1873   20.7885 C   0  0  0  0  0  0
  -29.6223  -20.0930   20.2781 C   0  0  0  0  0  0
  -29.4960  -24.0739   20.3620 C   0  0  0  0  0  0
  -29.4037  -22.5508   20.8796 C   0  0  0  0  0  0
  -28.2090  -25.0020   20.2058 C   0  0  0  0  0  0
  -29.8978  -15.7332   21.0433 N   0  0  0  0  0  0
  -29.4531  -21.4503   19.9079 O   0  0  0  0  0  0
  -31.4753  -12.5568   19.1615 H   0  0  0  0  0  0
  -30.3658  -11.4324   19.8887 H   0  0  0  0  0  0
  -29.7913  -11.8247   17.4695 H   0  0  0  0  0  0
  -29.6525  -13.5380   17.7753 H   0  0  0  0  0  0
  -27.8735  -11.3263   18.8296 H   0  0  0  0  0  0
  -27.3910  -12.6356   17.7882 H   0  0  0  0  0  0
  -27.6693  -14.2727   19.5484 H   0  0  0  0  0  0
  -28.7155  -12.0734   21.3863 H   0  0  0  0  0  0
  -28.4291  -13.7289   21.8511 H   0  0  0  0  0  0
  -25.2775   -9.5720   22.4711 H   0  0  0  0  0  0
  -24.0047   -7.4666   22.7467 H   0  0  0  0  0  0
  -21.0850   -8.8770   19.8950 H   0  0  0  0  0  0
  -22.3685  -10.9673   19.6153 H   0  0  0  0  0  0
  -21.2008   -7.6126   23.9721 H   0  0  0  0  0  0
  -21.1483   -6.0488   25.9079 H   0  0  0  0  0  0
  -22.0594   -2.7597   23.2816 H   0  0  0  0  0  0
  -22.4062  -11.9965   22.4895 H   0  0  0  0  0  0
  -21.1051  -13.1241   22.2523 H   0  0  0  0  0  0
  -24.6665  -15.8532   20.5436 H   0  0  0  0  0  0
  -26.2856  -15.6363   20.1247 H   0  0  0  0  0  0
  -26.7180  -32.5417   23.1067 H   0  0  0  0  0  0
  -25.0177  -33.9724   25.0473 H   0  0  0  0  0  0
  -22.7144  -31.2989   21.3978 H   0  0  0  0  0  0
  -23.3803  -35.9568   23.3274 H   0  0  0  0  0  0
  -24.3602  -36.8921   22.2046 H   0  0  0  0  0  0
  -23.7201  -37.6453   23.6661 H   0  0  0  0  0  0
  -26.1067  -31.5404   20.6075 H   0  0  0  0  0  0
  -26.8363  -30.8237   22.0166 H   0  0  0  0  0  0
  -28.1177  -28.9868   21.2001 H   0  0  0  0  0  0
  -25.9934  -25.9038   19.0360 H   0  0  0  0  0  0
  -23.9843  -27.2690   19.0415 H   0  0  0  0  0  0
  -23.7403  -30.5632   19.4004 H   0  0  0  0  0  0
  -22.7556  -29.2188   19.8770 H   0  0  0  0  0  0
  -25.1316  -36.1953   25.0827 H   0  0  0  0  0  0
  -20.9965  -28.3272   24.1415 H   0  0  0  0  0  0
  -20.5799  -26.2308   23.3595 H   0  0  0  0  0  0
  -21.6692  -26.7520   22.1159 H   0  0  0  0  0  0
  -19.6998  -25.6281   21.1261 H   0  0  0  0  0  0
  -19.6737  -27.3157   20.6745 H   0  0  0  0  0  0
  -17.4273  -26.6667   21.3983 H   0  0  0  0  0  0
  -18.0346  -26.0029   22.8950 H   0  0  0  0  0  0
  -19.7957  -30.7303   24.2150 H   0  0  0  0  0  0
  -17.5032  -31.6249   24.5162 H   0  0  0  0  0  0
  -15.5365  -30.2946   23.7697 H   0  0  0  0  0  0
  -15.8687  -28.0785   22.7088 H   0  0  0  0  0  0
  -24.5841  -30.7139   25.7725 H   0  0  0  0  0  0
  -24.8923  -32.2906   26.4872 H   0  0  0  0  0  0
  -25.7975  -30.8855   27.0188 H   0  0  0  0  0  0
  -26.2957  -29.6747   24.1210 H   0  0  0  0  0  0
  -27.4094  -29.7292   25.4666 H   0  0  0  0  0  0
  -27.8785  -30.4337   23.9399 H   0  0  0  0  0  0
  -27.2672  -33.3616   26.2050 H   0  0  0  0  0  0
  -28.3834  -32.6889   25.0286 H   0  0  0  0  0  0
  -28.0734  -31.8453   26.5370 H   0  0  0  0  0  0
  -28.2593  -38.0129   24.7612 H   0  0  0  0  0  0
  -28.1151  -36.2687   24.6170 H   0  0  0  0  0  0
  -27.2338  -37.1292   25.8850 H   0  0  0  0  0  0
  -20.9436  -29.8639   21.6781 H   0  0  0  0  0  0
  -26.0207  -38.2871   24.1430 H   0  0  0  0  0  0
  -30.7036  -17.1789   18.7545 H   0  0  0  0  0  0
  -29.0400  -17.7192   22.7203 H   0  0  0  0  0  0
  -30.4406  -19.5683   18.3432 H   0  0  0  0  0  0
  -28.8440  -20.1135   22.3196 H   0  0  0  0  0  0
  -30.0759  -24.0950   19.4386 H   0  0  0  0  0  0
  -30.1279  -24.5954   21.0820 H   0  0  0  0  0  0
  -28.5720  -22.4378   21.5775 H   0  0  0  0  0  0
  -30.3014  -22.3971   21.4825 H   0  0  0  0  0  0
  -27.5390  -24.7864   21.0384 H   0  0  0  0  0  0
  -27.7049  -24.6696   19.3012 H   0  0  0  0  0  0
  -29.1493  -15.4223   21.6469 H   0  0  0  0  0  0
  1 25  1  0  0  0
  1 30  2  0  0  0
  1 80  1  0  0  0
  2  3  1  0  0  0
  2 25  1  0  0  0
  2 82  1  0  0  0
  2 83  1  0  0  0
  3  4  1  0  0  0
  3 84  1  0  0  0
  3 85  1  0  0  0
  4  5  1  0  0  0
  4 86  1  0  0  0
  4 87  1  0  0  0
  5  6  1  0  0  0
  5 26  1  0  0  0
  5 88  1  0  0  0
  6 25  1  0  0  0
  6 89  1  0  0  0
  6 90  1  0  0  0
  7  8  2  0  0  0
  7 26  1  0  0  0
  7 29  1  0  0  0
  8  9  1  0  0  0
  8 22  1  0  0  0
  9 10  1  0  0  0
  9 27  2  0  0  0
 10 11  2  0  0  0
 10 15  1  0  0  0
 11 12  1  0  0  0
 11 91  1  0  0  0
 12 13  2  0  0  0
 12 92  1  0  0  0
 13 14  1  0  0  0
 13 31  1  0  0  0
 14 15  2  0  0  0
 14 93  1  0  0  0
 15 94  1  0  0  0
 16 17  2  0  0  0
 16 21  1  0  0  0
 16 31  1  0  0  0
 17 18  1  0  0  0
 17 95  1  0  0  0
 18 19  2  0  0  0
 18 96  1  0  0  0
 19 20  1  0  0  0
 19 24  1  0  0  0
 20 21  2  0  0  0
 20 97  1  0  0  0
 21 23  1  0  0  0
 22 28  1  0  0  0
 22 32  2  0  0  0
 26 27  1  0  0  0
 28 98  1  0  0  0
 28 99  1  0  0  0
 29100  1  0  0  0
 29101  1  0  0  0
 33 34  1  0  0  0
 33 66  1  0  0  0
 33 70  2  0  0  0
 34 36  1  0  0  0
 34 59  1  0  0  0
 34102  1  0  0  0
 35 44  2  0  0  0
 35 45  1  0  0  0
 35 68  1  0  0  0
 36 56  1  0  0  0
 36103  1  0  0  0
 37 39  1  0  0  0
 37 47  1  0  0  0
 37 66  1  0  0  0
 37104  1  0  0  0
 38 43  2  0  0  0
 38 46  1  0  0  0
 38 47  1  0  0  0
 39 64  1  0  0  0
 39 67  2  0  0  0
 40 52  1  0  0  0
 40 53  2  0  0  0
 40 58  1  0  0  0
 41105  1  0  0  0
 41106  1  0  0  0
 41107  1  0  0  0
 41 48  1  0  0  0
 42 43  1  0  0  0
 42 66  1  0  0  0
 42108  1  0  0  0
 42109  1  0  0  0
 43 44  1  0  0  0
 44110  1  0  0  0
 45 46  2  0  0  0
 45111  1  0  0  0
 46112  1  0  0  0
 47113  1  0  0  0
 47114  1  0  0  0
 48 56  1  0  0  0
 48 65  1  0  0  0
 48115  1  0  0  0
 49 50  1  0  0  0
 49 53  1  0  0  0
 49 64  1  0  0  0
 49116  1  0  0  0
 50 51  1  0  0  0
 50117  1  0  0  0
 50118  1  0  0  0
 51 52  1  0  0  0
 51119  1  0  0  0
 51120  1  0  0  0
 52121  1  0  0  0
 52122  1  0  0  0
 53 54  1  0  0  0
 54 55  2  0  0  0
 54123  1  0  0  0
 55 57  1  0  0  0
 55124  1  0  0  0
 56 69  2  0  0  0
 57 58  2  0  0  0
 57125  1  0  0  0
 58126  1  0  0  0
 59 60  1  0  0  0
 59 61  1  0  0  0
 59 62  1  0  0  0
 60127  1  0  0  0
 60128  1  0  0  0
 60129  1  0  0  0
 61130  1  0  0  0
 61131  1  0  0  0
 61132  1  0  0  0
 62133  1  0  0  0
 62134  1  0  0  0
 62135  1  0  0  0
 63 65  1  0  0  0
 63136  1  0  0  0
 63137  1  0  0  0
 63138  1  0  0  0
 64139  1  0  0  0
 65140  1  0  0  0
 68 79  1  0  0  0
 71 73  2  0  0  0
 71 75  1  0  0  0
 71141  1  0  0  0
 72 74  1  0  0  0
 72 75  2  0  0  0
 72142  1  0  0  0
 73 76  1  0  0  0
 73143  1  0  0  0
 74 76  2  0  0  0
 74144  1  0  0  0
 75 80  1  0  0  0
 76 81  1  0  0  0
 77 78  1  0  0  0
 77 79  1  0  0  0
 77145  1  0  0  0
 77146  1  0  0  0
 78 81  1  0  0  0
 78147  1  0  0  0
 78148  1  0  0  0
 79149  1  0  0  0
 79150  1  0  0  0
 80151  1  0  0  0
M  ISO  4   1 100  68 101  79 101  80 100
M  END
> <chiral flag>
0

> <version>
0

> <s_m_source_file>
/data/baiqing/PycharmProjects/Reinvent-master-3.2/result/LINK_invent/BTK/process_docking_weight1_custom_sum_contain_oxygen_bond_distance_aromatic_linkinvent_7_9_3/rearranged_h_0010.sdf

> <i_m_source_file_index>
83

> <r_mmod_Potential_Energy-OPLS-2005>
87.3086853027344

> <r_mmod_Stretch_Energy-OPLS-2005>
91.08984375

> <r_mmod_Bend_Energy-OPLS-2005>
159.319290161133

> <r_mmod_Torsional_Energy-OPLS-2005>
236.013916015625

> <r_mmod_Improper_Torsional_Energy-OPLS-2005>
3.05807876586914

> <r_mmod_Van_der_Waal_Energy-OPLS-2005>
138.714782714844

> <r_mmod_Electrostatic_Energy-OPLS-2005>
-383.976654052734

> <r_mmod_Solvation_Energy-OPLS-2005>
-214.270523071289

> <b_mmod_Minimization_Converged-OPLS-2005>
0

> <r_mmod_RMS_Derivative-OPLS-2005>
5.72391843795776

$$$$
83
                    3D
 Structure written by MMmdl.
158166  0  0  1  0            999 V2000
  -30.7286  -14.4177   20.6367 C   0  0  0  0  0  0
  -30.4245  -12.3004   19.4039 C   0  0  0  0  0  0
  -29.4885  -12.5126   18.1971 C   0  0  0  0  0  0
  -28.0115  -12.3705   18.6146 C   0  0  0  0  0  0
  -27.6654  -13.2011   19.8789 C   0  0  2  0  0  0
  -28.7057  -12.9501   20.9929 C   0  0  0  0  0  0
  -25.2611  -13.8154   20.5684 C   0  0  0  0  0  0
  -24.1850  -13.0440   20.9174 C   0  0  0  0  0  0
  -24.6397  -11.6904   20.8741 C   0  0  0  0  0  0
  -23.9064  -10.4295   21.0415 C   0  0  0  0  0  0
  -24.3615   -9.4209   21.9193 C   0  0  0  0  0  0
  -23.6291   -8.2243   22.0756 C   0  0  0  0  0  0
  -22.4276   -8.0285   21.3541 C   0  0  0  0  0  0
  -21.9914   -9.0262   20.4640 C   0  0  0  0  0  0
  -22.7244  -10.2137   20.3053 C   0  0  0  0  0  0
  -21.6848   -6.0743   22.5284 C   0  0  0  0  0  0
  -21.4006   -6.5646   23.8218 C   0  0  0  0  0  0
  -21.3653   -5.6797   24.9178 C   0  0  0  0  0  0
  -21.6042   -4.3058   24.7228 C   0  0  0  0  0  0
  -21.8822   -3.8150   23.4352 C   0  0  0  0  0  0
  -21.9193   -4.6969   22.3407 C   0  0  0  0  0  0
  -22.7875  -13.5239   21.1835 C   0  0  0  0  0  0
  -22.1662   -4.2151   21.0985 F   0  0  0  0  0  0
  -21.5627   -3.4540   25.7739 F   0  0  0  0  0  0
  -30.0415  -13.2596   20.4494 N   0  0  0  0  0  0
  -26.3047  -12.9309   20.3388 N   0  0  0  0  0  0
  -25.9323  -11.6478   20.5776 N   0  0  0  0  0  0
  -22.0500  -12.8225   22.0376 N   0  0  0  0  0  0
  -25.4368  -15.1869   20.4100 N   0  0  0  0  0  0
  -31.8027  -14.6648   20.0790 O   0  0  0  0  0  0
  -21.6629   -6.8887   21.4247 O   0  0  0  0  0  0
  -22.3575  -14.5558   20.6701 O   0  0  0  0  0  0
  -24.6139  -31.8694   23.2111 C   0  0  0  0  0  0
  -25.9037  -32.4828   23.8401 C   0  0  1  0  0  0
  -27.2295  -27.4383   20.0826 C   0  0  0  0  0  0
  -25.5897  -33.8627   24.2330 N   0  0  0  0  0  0
  -23.4000  -30.4947   21.5530 C   0  0  2  0  0  0
  -24.8430  -28.9641   20.1148 C   0  0  0  0  0  0
  -22.7402  -29.4664   22.5003 C   0  0  0  0  0  0
  -18.0264  -28.1366   22.8486 C   0  0  0  0  0  0
  -24.1478  -36.7306   23.2641 C   0  0  0  0  0  0
  -25.9298  -30.8347   21.3639 C   0  0  0  0  0  0
  -26.0051  -29.4706   20.7088 C   0  0  0  0  0  0
  -27.2004  -28.7153   20.6894 C   0  0  0  0  0  0
  -26.0432  -26.9507   19.4811 C   0  0  0  0  0  0
  -24.8566  -27.7029   19.4993 C   0  0  0  0  0  0
  -23.6058  -29.8301   20.1666 C   0  0  0  0  0  0
  -25.4102  -36.3115   24.0342 C   0  0  1  0  0  0
  -20.5854  -28.3651   23.1316 C   0  0  2  0  0  0
  -20.6749  -26.9395   22.5407 C   0  0  0  0  0  0
  -19.5735  -26.6384   21.5196 C   0  0  0  0  0  0
  -18.1917  -26.7911   22.1613 C   0  0  0  0  0  0
  -19.1515  -28.8824   23.2898 C   0  0  0  0  0  0
  -18.9450  -30.1426   23.8916 C   0  0  0  0  0  0
  -17.6458  -30.6578   24.0557 C   0  0  0  0  0  0
  -25.9034  -34.9482   23.5134 C   0  0  0  0  0  0
  -16.5344  -29.9082   23.6325 C   0  0  0  0  0  0
  -16.7256  -28.6492   23.0351 C   0  0  0  0  0  0
  -26.4465  -31.6605   25.0727 C   0  0  0  0  0  0
  -25.3729  -31.3695   26.1472 C   0  0  0  0  0  0
  -27.0301  -30.3054   24.6086 C   0  0  0  0  0  0
  -27.6031  -32.4323   25.7504 C   0  0  0  0  0  0
  -27.5573  -37.1818   24.8470 C   0  0  0  0  0  0
  -21.4132  -29.3026   22.3735 N   0  0  0  0  0  0
  -26.4286  -37.3802   23.9412 N   0  0  0  0  0  0
  -24.6664  -31.0800   22.1011 N   0  0  0  0  0  0
  -23.4183  -28.8204   23.3036 O   0  0  0  0  0  0
  -28.4042  -26.7091   20.0974 O   0  0  0  0  0  0
  -26.5601  -34.8936   22.4699 O   0  0  0  0  0  0
  -23.5333  -32.1447   23.7508 O   0  0  0  0  0  0
  -31.9776  -18.6863   23.1740 C   0  0  0  0  0  0
  -31.8535  -17.4774   23.8858 C   0  0  0  0  0  0
  -30.8281  -17.6873   21.2663 C   0  0  0  0  0  0
  -31.4631  -18.8034   21.8661 C   0  0  0  0  0  0
  -30.7345  -16.4616   21.9738 C   0  0  0  0  0  0
  -31.2314  -16.3685   23.2885 C   0  0  0  0  0  0
  -29.3929  -23.0056   20.1870 C   0  0  0  0  0  0
  -30.6336  -22.2196   20.6512 C   0  0  0  0  0  0
  -29.5593  -24.5394   20.2960 C   0  0  0  0  0  0
  -30.4238  -20.6910   20.7064 C   0  0  0  0  0  0
  -28.2970  -25.3006   19.8552 C   0  0  0  0  0  0
  -30.1118  -15.3201   21.4119 N   0  0  0  0  0  0
  -31.6266  -20.0254   21.1969 N   0  0  0  0  0  0
  -31.1194  -15.2049   23.9750 F   0  0  0  0  0  0
  -31.4671  -12.4098   19.0988 H   0  0  0  0  0  0
  -30.3342  -11.2825   19.7858 H   0  0  0  0  0  0
  -29.7224  -11.7955   17.4088 H   0  0  0  0  0  0
  -29.6575  -13.5021   17.7699 H   0  0  0  0  0  0
  -27.8209  -11.3133   18.8051 H   0  0  0  0  0  0
  -27.3577  -12.6509   17.7882 H   0  0  0  0  0  0
  -27.7206  -14.2532   19.5991 H   0  0  0  0  0  0
  -28.6765  -11.9045   21.3028 H   0  0  0  0  0  0
  -28.4571  -13.5181   21.8897 H   0  0  0  0  0  0
  -25.2758   -9.5680   22.4768 H   0  0  0  0  0  0
  -23.9992   -7.4635   22.7481 H   0  0  0  0  0  0
  -21.0841   -8.8796   19.8948 H   0  0  0  0  0  0
  -22.3725  -10.9678   19.6155 H   0  0  0  0  0  0
  -21.1996   -7.6152   23.9721 H   0  0  0  0  0  0
  -21.1464   -6.0523   25.9080 H   0  0  0  0  0  0
  -22.0604   -2.7615   23.2851 H   0  0  0  0  0  0
  -22.4086  -11.9852   22.4724 H   0  0  0  0  0  0
  -21.1128  -13.1271   22.2592 H   0  0  0  0  0  0
  -24.6758  -15.8483   20.5204 H   0  0  0  0  0  0
  -26.2998  -15.6213   20.1051 H   0  0  0  0  0  0
  -26.7104  -32.5540   23.1162 H   0  0  0  0  0  0
  -25.0045  -33.9791   25.0472 H   0  0  0  0  0  0
  -22.6877  -31.3110   21.4172 H   0  0  0  0  0  0
  -23.3741  -35.9641   23.3327 H   0  0  0  0  0  0
  -24.3566  -36.8892   22.2051 H   0  0  0  0  0  0
  -23.7228  -37.6521   23.6631 H   0  0  0  0  0  0
  -26.0423  -31.6009   20.5960 H   0  0  0  0  0  0
  -26.8177  -30.8855   21.9822 H   0  0  0  0  0  0
  -28.0975  -29.1050   21.1498 H   0  0  0  0  0  0
  -26.0083  -25.9918   18.9853 H   0  0  0  0  0  0
  -23.9636  -27.3078   19.0344 H   0  0  0  0  0  0
  -23.7130  -30.6055   19.4074 H   0  0  0  0  0  0
  -22.7293  -29.2498   19.8722 H   0  0  0  0  0  0
  -25.1274  -36.1987   25.0836 H   0  0  0  0  0  0
  -20.9941  -28.3204   24.1438 H   0  0  0  0  0  0
  -20.5632  -26.2266   23.3587 H   0  0  0  0  0  0
  -21.6625  -26.7430   22.1213 H   0  0  0  0  0  0
  -19.6901  -25.6298   21.1214 H   0  0  0  0  0  0
  -19.6674  -27.3199   20.6729 H   0  0  0  0  0  0
  -17.4185  -26.6644   21.4021 H   0  0  0  0  0  0
  -18.0339  -26.0048   22.9007 H   0  0  0  0  0  0
  -19.7933  -30.7216   24.2306 H   0  0  0  0  0  0
  -17.5025  -31.6265   24.5150 H   0  0  0  0  0  0
  -15.5346  -30.2993   23.7646 H   0  0  0  0  0  0
  -15.8650  -28.0815   22.7073 H   0  0  0  0  0  0
  -24.5890  -30.7063   25.7795 H   0  0  0  0  0  0
  -24.8933  -32.2848   26.4949 H   0  0  0  0  0  0
  -25.8080  -30.8832   27.0213 H   0  0  0  0  0  0
  -26.2847  -29.6829   24.1116 H   0  0  0  0  0  0
  -27.4068  -29.7268   25.4533 H   0  0  0  0  0  0
  -27.8682  -30.4391   23.9237 H   0  0  0  0  0  0
  -27.2639  -33.3614   26.2095 H   0  0  0  0  0  0
  -28.3842  -32.6894   25.0337 H   0  0  0  0  0  0
  -28.0694  -31.8435   26.5417 H   0  0  0  0  0  0
  -28.2602  -38.0105   24.7512 H   0  0  0  0  0  0
  -28.1054  -36.2637   24.6298 H   0  0  0  0  0  0
  -27.2293  -37.1478   25.8874 H   0  0  0  0  0  0
  -20.9292  -29.8764   21.6972 H   0  0  0  0  0  0
  -26.0176  -38.2886   24.1397 H   0  0  0  0  0  0
  -32.4663  -19.5237   23.6515 H   0  0  0  0  0  0
  -32.2409  -17.3977   24.8901 H   0  0  0  0  0  0
  -30.4370  -17.7583   20.2614 H   0  0  0  0  0  0
  -28.5340  -22.6997   20.7866 H   0  0  0  0  0  0
  -29.1554  -22.7345   19.1569 H   0  0  0  0  0  0
  -30.9198  -22.5765   21.6419 H   0  0  0  0  0  0
  -31.4685  -22.4546   19.9882 H   0  0  0  0  0  0
  -30.4108  -24.8677   19.6989 H   0  0  0  0  0  0
  -29.7872  -24.8013   21.3298 H   0  0  0  0  0  0
  -30.1746  -20.3088   19.7147 H   0  0  0  0  0  0
  -29.5782  -20.4595   21.3575 H   0  0  0  0  0  0
  -27.4495  -24.8912   20.4091 H   0  0  0  0  0  0
  -28.1166  -25.1230   18.7935 H   0  0  0  0  0  0
  -29.2730  -14.9927   21.8654 H   0  0  0  0  0  0
  -32.2773  -20.6600   21.6537 H   0  0  0  0  0  0
  1 25  1  0  0  0
  1 30  2  0  0  0
  1 82  1  0  0  0
  2  3  1  0  0  0
  2 25  1  0  0  0
  2 85  1  0  0  0
  2 86  1  0  0  0
  3  4  1  0  0  0
  3 87  1  0  0  0
  3 88  1  0  0  0
  4  5  1  0  0  0
  4 89  1  0  0  0
  4 90  1  0  0  0
  5  6  1  0  0  0
  5 26  1  0  0  0
  5 91  1  0  0  0
  6 25  1  0  0  0
  6 92  1  0  0  0
  6 93  1  0  0  0
  7  8  2  0  0  0
  7 26  1  0  0  0
  7 29  1  0  0  0
  8  9  1  0  0  0
  8 22  1  0  0  0
  9 10  1  0  0  0
  9 27  2  0  0  0
 10 11  2  0  0  0
 10 15  1  0  0  0
 11 12  1  0  0  0
 11 94  1  0  0  0
 12 13  2  0  0  0
 12 95  1  0  0  0
 13 14  1  0  0  0
 13 31  1  0  0  0
 14 15  2  0  0  0
 14 96  1  0  0  0
 15 97  1  0  0  0
 16 17  2  0  0  0
 16 21  1  0  0  0
 16 31  1  0  0  0
 17 18  1  0  0  0
 17 98  1  0  0  0
 18 19  2  0  0  0
 18 99  1  0  0  0
 19 20  1  0  0  0
 19 24  1  0  0  0
 20 21  2  0  0  0
 20100  1  0  0  0
 21 23  1  0  0  0
 22 28  1  0  0  0
 22 32  2  0  0  0
 26 27  1  0  0  0
 28101  1  0  0  0
 28102  1  0  0  0
 29103  1  0  0  0
 29104  1  0  0  0
 33 34  1  0  0  0
 33 66  1  0  0  0
 33 70  2  0  0  0
 34 36  1  0  0  0
 34 59  1  0  0  0
 34105  1  0  0  0
 35 44  2  0  0  0
 35 45  1  0  0  0
 35 68  1  0  0  0
 36 56  1  0  0  0
 36106  1  0  0  0
 37 39  1  0  0  0
 37 47  1  0  0  0
 37 66  1  0  0  0
 37107  1  0  0  0
 38 43  2  0  0  0
 38 46  1  0  0  0
 38 47  1  0  0  0
 39 64  1  0  0  0
 39 67  2  0  0  0
 40 52  1  0  0  0
 40 53  2  0  0  0
 40 58  1  0  0  0
 41108  1  0  0  0
 41109  1  0  0  0
 41110  1  0  0  0
 41 48  1  0  0  0
 42 43  1  0  0  0
 42 66  1  0  0  0
 42111  1  0  0  0
 42112  1  0  0  0
 43 44  1  0  0  0
 44113  1  0  0  0
 45 46  2  0  0  0
 45114  1  0  0  0
 46115  1  0  0  0
 47116  1  0  0  0
 47117  1  0  0  0
 48 56  1  0  0  0
 48 65  1  0  0  0
 48118  1  0  0  0
 49 50  1  0  0  0
 49 53  1  0  0  0
 49 64  1  0  0  0
 49119  1  0  0  0
 50 51  1  0  0  0
 50120  1  0  0  0
 50121  1  0  0  0
 51 52  1  0  0  0
 51122  1  0  0  0
 51123  1  0  0  0
 52124  1  0  0  0
 52125  1  0  0  0
 53 54  1  0  0  0
 54 55  2  0  0  0
 54126  1  0  0  0
 55 57  1  0  0  0
 55127  1  0  0  0
 56 69  2  0  0  0
 57 58  2  0  0  0
 57128  1  0  0  0
 58129  1  0  0  0
 59 60  1  0  0  0
 59 61  1  0  0  0
 59 62  1  0  0  0
 60130  1  0  0  0
 60131  1  0  0  0
 60132  1  0  0  0
 61133  1  0  0  0
 61134  1  0  0  0
 61135  1  0  0  0
 62136  1  0  0  0
 62137  1  0  0  0
 62138  1  0  0  0
 63 65  1  0  0  0
 63139  1  0  0  0
 63140  1  0  0  0
 63141  1  0  0  0
 64142  1  0  0  0
 65143  1  0  0  0
 68 81  1  0  0  0
 71 72  2  0  0  0
 71 74  1  0  0  0
 71144  1  0  0  0
 72 76  1  0  0  0
 72145  1  0  0  0
 73 74  2  0  0  0
 73 75  1  0  0  0
 73146  1  0  0  0
 74 83  1  0  0  0
 75 76  2  0  0  0
 75 82  1  0  0  0
 76 84  1  0  0  0
 77 78  1  0  0  0
 77 79  1  0  0  0
 77147  1  0  0  0
 77148  1  0  0  0
 78 80  1  0  0  0
 78149  1  0  0  0
 78150  1  0  0  0
 79 81  1  0  0  0
 79151  1  0  0  0
 79152  1  0  0  0
 80 83  1  0  0  0
 80153  1  0  0  0
 80154  1  0  0  0
 81155  1  0  0  0
 81156  1  0  0  0
 82157  1  0  0  0
 83158  1  0  0  0
M  ISO  4   1 100  68 101  81 101  82 100
M  END
> <chiral flag>
0

> <version>
0

> <s_m_source_file>
/data/baiqing/PycharmProjects/Reinvent-master-3.2/result/LINK_invent/BTK/process_docking_weight1_custom_sum_contain_oxygen_bond_distance_aromatic_linkinvent_7_9_3/rearranged_h_0010.sdf

> <i_m_source_file_index>
84

> <r_mmod_Potential_Energy-OPLS-2005>
-86.9496307373047

> <r_mmod_Stretch_Energy-OPLS-2005>
33.9058418273926

> <r_mmod_Bend_Energy-OPLS-2005>
89.7455062866211

> <r_mmod_Torsional_Energy-OPLS-2005>
231.018402099609

> <r_mmod_Improper_Torsional_Energy-OPLS-2005>
7.45336627960205

> <r_mmod_Van_der_Waal_Energy-OPLS-2005>
155.612411499023

> <r_mmod_Electrostatic_Energy-OPLS-2005>
-401.044738769531

> <r_mmod_Solvation_Energy-OPLS-2005>
-212.987945556641

> <b_mmod_Minimization_Converged-OPLS-2005>
0

> <r_mmod_RMS_Derivative-OPLS-2005>
0.986172020435333

$$$$
84
                    3D
 Structure written by MMmdl.
170179  0  0  1  0            999 V2000
  -30.5267  -15.1099   20.3848 C   0  0  0  0  0  0
  -30.4275  -12.7033   19.5042 C   0  0  0  0  0  0
  -29.5203  -12.5506   18.2621 C   0  0  0  0  0  0
  -28.0601  -12.3104   18.6855 C   0  0  0  0  0  0
  -27.6127  -13.2667   19.8210 C   0  0  2  0  0  0
  -28.6530  -13.3977   20.9527 C   0  0  0  0  0  0
  -25.2404  -13.8245   20.5732 C   0  0  0  0  0  0
  -24.1738  -13.0448   20.9232 C   0  0  0  0  0  0
  -24.6378  -11.6942   20.8758 C   0  0  0  0  0  0
  -23.9073  -10.4299   21.0410 C   0  0  0  0  0  0
  -24.3620   -9.4208   21.9185 C   0  0  0  0  0  0
  -23.6304   -8.2240   22.0755 C   0  0  0  0  0  0
  -22.4284   -8.0278   21.3543 C   0  0  0  0  0  0
  -21.9920   -9.0248   20.4646 C   0  0  0  0  0  0
  -22.7250  -10.2130   20.3056 C   0  0  0  0  0  0
  -21.6851   -6.0744   22.5277 C   0  0  0  0  0  0
  -21.4017   -6.5651   23.8209 C   0  0  0  0  0  0
  -21.3661   -5.6803   24.9175 C   0  0  0  0  0  0
  -21.6046   -4.3062   24.7222 C   0  0  0  0  0  0
  -21.8822   -3.8156   23.4340 C   0  0  0  0  0  0
  -21.9188   -4.6973   22.3403 C   0  0  0  0  0  0
  -22.7756  -13.5202   21.1891 C   0  0  0  0  0  0
  -22.1650   -4.2155   21.0980 F   0  0  0  0  0  0
  -21.5631   -3.4545   25.7738 F   0  0  0  0  0  0
  -29.9023  -13.8467   20.3241 N   0  0  0  0  0  0
  -26.2815  -12.9502   20.3218 N   0  0  0  0  0  0
  -25.9314  -11.6615   20.5729 N   0  0  0  0  0  0
  -22.0415  -12.8183   22.0447 N   0  0  0  0  0  0
  -25.4094  -15.1979   20.4193 N   0  0  0  0  0  0
  -31.7504  -15.0725   20.2022 O   0  0  0  0  0  0
  -21.6640   -6.8884   21.4237 O   0  0  0  0  0  0
  -22.3434  -14.5504   20.6738 O   0  0  0  0  0  0
  -24.6552  -31.8321   23.1771 C   0  0  0  0  0  0
  -25.9277  -32.4623   23.8200 C   0  0  1  0  0  0
  -27.2162  -27.0155   20.1680 C   0  0  0  0  0  0
  -25.5992  -33.8433   24.2122 N   0  0  0  0  0  0
  -23.4649  -30.4465   21.5250 C   0  0  2  0  0  0
  -24.9157  -28.8513   20.1079 C   0  0  0  0  0  0
  -22.7618  -29.4497   22.4820 C   0  0  0  0  0  0
  -18.0307  -28.1400   22.8460 C   0  0  0  0  0  0
  -24.1498  -36.7216   23.2647 C   0  0  0  0  0  0
  -26.0274  -30.6659   21.3951 C   0  0  0  0  0  0
  -26.0955  -29.2651   20.7382 C   0  0  0  0  0  0
  -27.2399  -28.3640   20.7505 C   0  0  0  0  0  0
  -26.0154  -26.7401   19.4760 C   0  0  0  0  0  0
  -24.8957  -27.6074   19.4594 C   0  0  0  0  0  0
  -23.6972  -29.7662   20.1483 C   0  0  0  0  0  0
  -25.4131  -36.2977   24.0308 C   0  0  1  0  0  0
  -20.5926  -28.3741   23.1205 C   0  0  2  0  0  0
  -20.6786  -26.9434   22.5395 C   0  0  0  0  0  0
  -19.5763  -26.6376   21.5201 C   0  0  0  0  0  0
  -18.1947  -26.7935   22.1611 C   0  0  0  0  0  0
  -19.1565  -28.8892   23.2822 C   0  0  0  0  0  0
  -18.9479  -30.1484   23.8847 C   0  0  0  0  0  0
  -17.6475  -30.6594   24.0551 C   0  0  0  0  0  0
  -25.9095  -34.9366   23.5026 C   0  0  0  0  0  0
  -16.5367  -29.9077   23.6350 C   0  0  0  0  0  0
  -16.7291  -28.6500   23.0357 C   0  0  0  0  0  0
  -26.4556  -31.6536   25.0696 C   0  0  0  0  0  0
  -25.3719  -31.3752   26.1379 C   0  0  0  0  0  0
  -27.0458  -30.2914   24.6390 C   0  0  0  0  0  0
  -27.6075  -32.4321   25.7488 C   0  0  0  0  0  0
  -27.5569  -37.1763   24.8462 C   0  0  0  0  0  0
  -21.4295  -29.3045   22.3561 N   0  0  0  0  0  0
  -26.4270  -37.3715   23.9418 N   0  0  0  0  0  0
  -24.7364  -31.0074   22.0859 N   0  0  0  0  0  0
  -23.4207  -28.8066   23.3030 O   0  0  0  0  0  0
  -28.2355  -25.9599   20.2813 O   0  0  0  0  0  0
  -26.5679  -34.8893   22.4601 O   0  0  0  0  0  0
  -23.5645  -32.1241   23.6933 O   0  0  0  0  0  0
  -32.3539  -20.3169   26.3531 C   0  0  0  0  0  0
  -31.7759  -20.1660   25.0800 C   0  0  0  0  0  0
  -34.5703  -20.0923   25.3711 C   0  0  0  0  0  0
  -33.7527  -20.2854   26.5039 C   0  0  0  0  0  0
  -32.5897  -19.9838   23.9343 C   0  0  0  0  0  0
  -33.9946  -19.9376   24.0940 C   0  0  0  0  0  0
  -30.8030  -19.9663   22.1947 C   0  0  0  0  0  0
  -29.0662  -17.1726   19.5014 C   0  0  0  0  0  0
  -30.4557  -17.5831   21.3259 C   0  0  0  0  0  0
  -28.3177  -18.6145   19.8159 C   0  0  0  0  0  0
  -30.3645  -19.2087   20.9276 C   0  0  1  0  0  0
  -34.3695  -20.4445   27.8790 C   0  0  0  0  0  0
  -28.7492  -22.9072   20.5582 C   0  0  0  0  0  0
  -28.8214  -21.3085   19.8360 C   0  0  0  0  0  0
  -28.0794  -24.3979   19.9087 C   0  0  0  0  0  0
  -29.8622  -16.4091   20.5409 N   0  0  0  0  0  0
  -32.0550  -19.7501   22.6361 N   0  0  0  0  0  0
  -29.0280  -19.8048   20.4815 N   0  3  1  0  0  0
  -30.0003  -20.7158   22.7614 O   0  0  0  0  0  0
  -35.0253  -19.6723   22.7302 Cl  0  0  0  0  0  0
  -31.4562  -12.8705   19.1802 H   0  0  0  0  0  0
  -30.4473  -11.7801   20.0883 H   0  0  0  0  0  0
  -29.8721  -11.7330   17.6316 H   0  0  0  0  0  0
  -29.5805  -13.4561   17.6550 H   0  0  0  0  0  0
  -27.9787  -11.2757   19.0203 H   0  0  0  0  0  0
  -27.3946  -12.4058   17.8264 H   0  0  0  0  0  0
  -27.5405  -14.2454   19.3472 H   0  0  0  0  0  0
  -28.7842  -12.4561   21.4872 H   0  0  0  0  0  0
  -28.3218  -14.1349   21.6862 H   0  0  0  0  0  0
  -25.2754   -9.5691   22.4765 H   0  0  0  0  0  0
  -24.0021   -7.4631   22.7478 H   0  0  0  0  0  0
  -21.0848   -8.8760   19.8954 H   0  0  0  0  0  0
  -22.3697  -10.9663   19.6170 H   0  0  0  0  0  0
  -21.2006   -7.6157   23.9718 H   0  0  0  0  0  0
  -21.1482   -6.0530   25.9084 H   0  0  0  0  0  0
  -22.0598   -2.7616   23.2830 H   0  0  0  0  0  0
  -22.4031  -11.9839   22.4820 H   0  0  0  0  0  0
  -21.1030  -13.1203   22.2664 H   0  0  0  0  0  0
  -24.6486  -15.8575   20.5391 H   0  0  0  0  0  0
  -26.2714  -15.6331   20.1209 H   0  0  0  0  0  0
  -26.7356  -32.5180   23.0931 H   0  0  0  0  0  0
  -25.0119  -33.9521   25.0255 H   0  0  0  0  0  0
  -22.7748  -31.2762   21.3604 H   0  0  0  0  0  0
  -23.3768  -35.9537   23.3256 H   0  0  0  0  0  0
  -24.3595  -36.8898   22.2075 H   0  0  0  0  0  0
  -23.7246  -37.6391   23.6722 H   0  0  0  0  0  0
  -26.1981  -31.4144   20.6208 H   0  0  0  0  0  0
  -26.8933  -30.7210   22.0434 H   0  0  0  0  0  0
  -28.1322  -28.6722   21.2776 H   0  0  0  0  0  0
  -25.9019  -25.7972   18.9650 H   0  0  0  0  0  0
  -23.9992  -27.2871   18.9461 H   0  0  0  0  0  0
  -23.8393  -30.5348   19.3879 H   0  0  0  0  0  0
  -22.8104  -29.2108   19.8381 H   0  0  0  0  0  0
  -25.1332  -36.1767   25.0799 H   0  0  0  0  0  0
  -21.0007  -28.3331   24.1333 H   0  0  0  0  0  0
  -20.5657  -26.2361   23.3627 H   0  0  0  0  0  0
  -21.6657  -26.7419   22.1214 H   0  0  0  0  0  0
  -19.6926  -25.6273   21.1267 H   0  0  0  0  0  0
  -19.6701  -27.3157   20.6709 H   0  0  0  0  0  0
  -17.4219  -26.6667   21.4019 H   0  0  0  0  0  0
  -18.0350  -26.0086   22.9016 H   0  0  0  0  0  0
  -19.7955  -30.7308   24.2192 H   0  0  0  0  0  0
  -17.5030  -31.6275   24.5149 H   0  0  0  0  0  0
  -15.5363  -30.2960   23.7710 H   0  0  0  0  0  0
  -15.8686  -28.0808   22.7094 H   0  0  0  0  0  0
  -24.5915  -30.7086   25.7691 H   0  0  0  0  0  0
  -24.8891  -32.2940   26.4724 H   0  0  0  0  0  0
  -25.7990  -30.8974   27.0206 H   0  0  0  0  0  0
  -26.3124  -29.6588   24.1381 H   0  0  0  0  0  0
  -27.3998  -29.7280   25.5034 H   0  0  0  0  0  0
  -27.9057  -30.4110   23.9794 H   0  0  0  0  0  0
  -27.2676  -33.3664   26.1967 H   0  0  0  0  0  0
  -28.3943  -32.6802   25.0353 H   0  0  0  0  0  0
  -28.0684  -31.8499   26.5481 H   0  0  0  0  0  0
  -28.2553  -38.0087   24.7537 H   0  0  0  0  0  0
  -28.1090  -36.2622   24.6244 H   0  0  0  0  0  0
  -27.2296  -37.1356   25.8861 H   0  0  0  0  0  0
  -20.9531  -29.8734   21.6703 H   0  0  0  0  0  0
  -26.0110  -38.2768   24.1418 H   0  0  0  0  0  0
  -31.7116  -20.4456   27.2141 H   0  0  0  0  0  0
  -30.6990  -20.1684   25.0154 H   0  0  0  0  0  0
  -35.6454  -20.0530   25.4760 H   0  0  0  0  0  0
  -29.7393  -17.3254   18.6559 H   0  0  0  0  0  0
  -28.3080  -16.4882   19.1204 H   0  0  0  0  0  0
  -30.0257  -17.4660   22.3219 H   0  0  0  0  0  0
  -31.5126  -17.3528   21.4697 H   0  0  0  0  0  0
  -27.4493  -18.4038   20.4408 H   0  0  0  0  0  0
  -27.8942  -18.9633   18.8745 H   0  0  0  0  0  0
  -31.0830  -19.4091   20.1316 H   0  0  0  0  0  0
  -33.6963  -20.9811   28.5486 H   0  0  0  0  0  0
  -35.3036  -21.0045   27.8237 H   0  0  0  0  0  0
  -34.5770  -19.4679   28.3180 H   0  0  0  0  0  0
  -29.7804  -23.1419   20.8215 H   0  0  0  0  0  0
  -28.2571  -22.7733   21.5205 H   0  0  0  0  0  0
  -29.5223  -21.3682   19.0038 H   0  0  0  0  0  0
  -27.8502  -21.2276   19.3482 H   0  0  0  0  0  0
  -27.0074  -24.2068   19.9154 H   0  0  0  0  0  0
  -28.3428  -24.3799   18.8513 H   0  0  0  0  0  0
  -32.6894  -19.2867   21.9985 H   0  0  0  0  0  0
  -28.5741  -19.9053   21.3801 H   0  0  0  0  0  0
  1 25  1  0  0  0
  1 30  2  0  0  0
  1 86  1  0  0  0
  2  3  1  0  0  0
  2 25  1  0  0  0
  2 91  1  0  0  0
  2 92  1  0  0  0
  3  4  1  0  0  0
  3 93  1  0  0  0
  3 94  1  0  0  0
  4  5  1  0  0  0
  4 95  1  0  0  0
  4 96  1  0  0  0
  5  6  1  0  0  0
  5 26  1  0  0  0
  5 97  1  0  0  0
  6 25  1  0  0  0
  6 98  1  0  0  0
  6 99  1  0  0  0
  7  8  2  0  0  0
  7 26  1  0  0  0
  7 29  1  0  0  0
  8  9  1  0  0  0
  8 22  1  0  0  0
  9 10  1  0  0  0
  9 27  2  0  0  0
 10 11  2  0  0  0
 10 15  1  0  0  0
 11 12  1  0  0  0
 11100  1  0  0  0
 12 13  2  0  0  0
 12101  1  0  0  0
 13 14  1  0  0  0
 13 31  1  0  0  0
 14 15  2  0  0  0
 14102  1  0  0  0
 15103  1  0  0  0
 16 17  2  0  0  0
 16 21  1  0  0  0
 16 31  1  0  0  0
 17 18  1  0  0  0
 17104  1  0  0  0
 18 19  2  0  0  0
 18105  1  0  0  0
 19 20  1  0  0  0
 19 24  1  0  0  0
 20 21  2  0  0  0
 20106  1  0  0  0
 21 23  1  0  0  0
 22 28  1  0  0  0
 22 32  2  0  0  0
 26 27  1  0  0  0
 28107  1  0  0  0
 28108  1  0  0  0
 29109  1  0  0  0
 29110  1  0  0  0
 33 34  1  0  0  0
 33 66  1  0  0  0
 33 70  2  0  0  0
 34 36  1  0  0  0
 34 59  1  0  0  0
 34111  1  0  0  0
 35 44  2  0  0  0
 35 45  1  0  0  0
 35 68  1  0  0  0
 36 56  1  0  0  0
 36112  1  0  0  0
 37 39  1  0  0  0
 37 47  1  0  0  0
 37 66  1  0  0  0
 37113  1  0  0  0
 38 43  2  0  0  0
 38 46  1  0  0  0
 38 47  1  0  0  0
 39 64  1  0  0  0
 39 67  2  0  0  0
 40 52  1  0  0  0
 40 53  2  0  0  0
 40 58  1  0  0  0
 41114  1  0  0  0
 41115  1  0  0  0
 41116  1  0  0  0
 41 48  1  0  0  0
 42 43  1  0  0  0
 42 66  1  0  0  0
 42117  1  0  0  0
 42118  1  0  0  0
 43 44  1  0  0  0
 44119  1  0  0  0
 45 46  2  0  0  0
 45120  1  0  0  0
 46121  1  0  0  0
 47122  1  0  0  0
 47123  1  0  0  0
 48 56  1  0  0  0
 48 65  1  0  0  0
 48124  1  0  0  0
 49 50  1  0  0  0
 49 53  1  0  0  0
 49 64  1  0  0  0
 49125  1  0  0  0
 50 51  1  0  0  0
 50126  1  0  0  0
 50127  1  0  0  0
 51 52  1  0  0  0
 51128  1  0  0  0
 51129  1  0  0  0
 52130  1  0  0  0
 52131  1  0  0  0
 53 54  1  0  0  0
 54 55  2  0  0  0
 54132  1  0  0  0
 55 57  1  0  0  0
 55133  1  0  0  0
 56 69  2  0  0  0
 57 58  2  0  0  0
 57134  1  0  0  0
 58135  1  0  0  0
 59 60  1  0  0  0
 59 61  1  0  0  0
 59 62  1  0  0  0
 60136  1  0  0  0
 60137  1  0  0  0
 60138  1  0  0  0
 61139  1  0  0  0
 61140  1  0  0  0
 61141  1  0  0  0
 62142  1  0  0  0
 62143  1  0  0  0
 62144  1  0  0  0
 63 65  1  0  0  0
 63145  1  0  0  0
 63146  1  0  0  0
 63147  1  0  0  0
 64148  1  0  0  0
 65149  1  0  0  0
 68 85  1  0  0  0
 71 72  2  0  0  0
 71 74  1  0  0  0
 71150  1  0  0  0
 72 75  1  0  0  0
 72151  1  0  0  0
 73 74  2  0  0  0
 73 76  1  0  0  0
 73152  1  0  0  0
 74 82  1  0  0  0
 75 76  2  0  0  0
 75 87  1  0  0  0
 76 90  1  0  0  0
 77 87  1  0  0  0
 77 89  2  0  0  0
 77 81  1  0  0  0
 78 80  1  0  0  0
 78 86  1  0  0  0
 78153  1  0  0  0
 78154  1  0  0  0
 79 81  1  0  0  0
 79 86  1  0  0  0
 79155  1  0  0  0
 79156  1  0  0  0
 80 88  1  0  0  0
 80157  1  0  0  0
 80158  1  0  0  0
 81 88  1  0  0  0
 81159  1  0  0  0
 82160  1  0  0  0
 82161  1  0  0  0
 82162  1  0  0  0
 83 84  1  0  0  0
 83 85  1  0  0  0
 83163  1  0  0  0
 83164  1  0  0  0
 84165  1  0  0  0
 84166  1  0  0  0
 84 88  1  0  0  0
 85167  1  0  0  0
 85168  1  0  0  0
 87169  1  0  0  0
 88170  1  0  0  0
M  CHG  1  88   1
M  ISO  4   1 100  68 101  85 101  86 100
M  END
> <chiral flag>
0

> <version>
0

> <s_m_source_file>
/data/baiqing/PycharmProjects/Reinvent-master-3.2/result/LINK_invent/BTK/process_docking_weight1_custom_sum_contain_oxygen_bond_distance_aromatic_linkinvent_7_9_3/rearranged_h_0010.sdf

> <i_m_source_file_index>
85

> <r_mmod_Potential_Energy-OPLS-2005>
954.706787109375

> <r_mmod_Stretch_Energy-OPLS-2005>
416.403137207031

> <r_mmod_Bend_Energy-OPLS-2005>
428.021881103516

> <r_mmod_Torsional_Energy-OPLS-2005>
423.342376708984

> <r_mmod_Improper_Torsional_Energy-OPLS-2005>
5.64961004257202

> <r_mmod_Van_der_Waal_Energy-OPLS-2005>
144.376876831055

> <r_mmod_Electrostatic_Energy-OPLS-2005>
-327.659759521484

> <r_mmod_Solvation_Energy-OPLS-2005>
-457.926971435547

> <b_mmod_Minimization_Converged-OPLS-2005>
0

> <r_mmod_RMS_Derivative-OPLS-2005>
1.90317261219025

$$$$
85
                    3D
 Structure written by MMmdl.
151159  0  0  1  0            999 V2000
  -30.5144  -14.9178   20.4216 C   0  0  0  0  0  0
  -30.4560  -12.5635   19.4882 C   0  0  0  0  0  0
  -29.5264  -12.5230   18.2513 C   0  0  0  0  0  0
  -28.0577  -12.3107   18.6687 C   0  0  0  0  0  0
  -27.6385  -13.2351   19.8408 C   0  0  2  0  0  0
  -28.6835  -13.2240   20.9781 C   0  0  0  0  0  0
  -25.2517  -13.8197   20.5688 C   0  0  0  0  0  0
  -24.1817  -13.0447   20.9226 C   0  0  0  0  0  0
  -24.6407  -11.6925   20.8751 C   0  0  0  0  0  0
  -23.9077  -10.4301   21.0411 C   0  0  0  0  0  0
  -24.3626   -9.4211   21.9183 C   0  0  0  0  0  0
  -23.6293   -8.2252   22.0756 C   0  0  0  0  0  0
  -22.4274   -8.0294   21.3548 C   0  0  0  0  0  0
  -21.9910   -9.0271   20.4653 C   0  0  0  0  0  0
  -22.7247  -10.2144   20.3061 C   0  0  0  0  0  0
  -21.6856   -6.0735   22.5278 C   0  0  0  0  0  0
  -21.4013   -6.5638   23.8210 C   0  0  0  0  0  0
  -21.3655   -5.6791   24.9175 C   0  0  0  0  0  0
  -21.6042   -4.3053   24.7227 C   0  0  0  0  0  0
  -21.8819   -3.8147   23.4347 C   0  0  0  0  0  0
  -21.9191   -4.6961   22.3399 C   0  0  0  0  0  0
  -22.7834  -13.5231   21.1879 C   0  0  0  0  0  0
  -22.1661   -4.2145   21.0976 F   0  0  0  0  0  0
  -21.5626   -3.4539   25.7741 F   0  0  0  0  0  0
  -29.9688  -13.6382   20.3941 N   0  0  0  0  0  0
  -26.2930  -12.9401   20.3226 N   0  0  0  0  0  0
  -25.9332  -11.6544   20.5721 N   0  0  0  0  0  0
  -22.0471  -12.8227   22.0434 N   0  0  0  0  0  0
  -25.4206  -15.1921   20.4086 N   0  0  0  0  0  0
  -31.7037  -15.0545   20.1122 O   0  0  0  0  0  0
  -21.6645   -6.8885   21.4243 O   0  0  0  0  0  0
  -22.3518  -14.5535   20.6722 O   0  0  0  0  0  0
  -24.6453  -31.8441   23.1886 C   0  0  0  0  0  0
  -25.9228  -32.4687   23.8285 C   0  0  1  0  0  0
  -27.2215  -27.1380   20.1428 C   0  0  0  0  0  0
  -25.5979  -33.8495   24.2202 N   0  0  0  0  0  0
  -23.4494  -30.4652   21.5334 C   0  0  2  0  0  0
  -24.8997  -28.8955   20.1096 C   0  0  0  0  0  0
  -22.7585  -29.4551   22.4839 C   0  0  0  0  0  0
  -18.0323  -28.1388   22.8471 C   0  0  0  0  0  0
  -24.1499  -36.7250   23.2636 C   0  0  0  0  0  0
  -26.0067  -30.7174   21.3895 C   0  0  0  0  0  0
  -26.0784  -29.3297   20.7290 C   0  0  0  0  0  0
  -27.2403  -28.4676   20.7297 C   0  0  0  0  0  0
  -26.0137  -26.8102   19.4837 C   0  0  0  0  0  0
  -24.8804  -27.6480   19.4724 C   0  0  0  0  0  0
  -23.6771  -29.7977   20.1520 C   0  0  0  0  0  0
  -25.4129  -36.3024   24.0310 C   0  0  1  0  0  0
  -20.5936  -28.3723   23.1217 C   0  0  2  0  0  0
  -20.6803  -26.9423   22.5390 C   0  0  0  0  0  0
  -19.5769  -26.6378   21.5203 C   0  0  0  0  0  0
  -18.1958  -26.7921   22.1627 C   0  0  0  0  0  0
  -19.1578  -28.8874   23.2837 C   0  0  0  0  0  0
  -18.9489  -30.1467   23.8864 C   0  0  0  0  0  0
  -17.6484  -30.6578   24.0561 C   0  0  0  0  0  0
  -25.9084  -34.9398   23.5063 C   0  0  0  0  0  0
  -16.5378  -29.9071   23.6329 C   0  0  0  0  0  0
  -16.7306  -28.6494   23.0344 C   0  0  0  0  0  0
  -26.4542  -31.6547   25.0722 C   0  0  0  0  0  0
  -25.3735  -31.3761   26.1429 C   0  0  0  0  0  0
  -27.0384  -30.2926   24.6319 C   0  0  0  0  0  0
  -27.6082  -32.4303   25.7506 C   0  0  0  0  0  0
  -27.5571  -37.1794   24.8473 C   0  0  0  0  0  0
  -21.4276  -29.3050   22.3584 N   0  0  0  0  0  0
  -26.4295  -37.3731   23.9395 N   0  0  0  0  0  0
  -24.7201  -31.0306   22.0916 N   0  0  0  0  0  0
  -23.4223  -28.8097   23.2992 O   0  0  0  0  0  0
  -28.2633  -26.1376   20.2110 O   0  0  0  0  0  0
  -26.5658  -34.8894   22.4634 O   0  0  0  0  0  0
  -23.5572  -32.1322   23.7099 O   0  0  0  0  0  0
  -30.5010  -18.5328   20.1498 C   0  0  0  0  0  0
  -30.2088  -19.9711   20.0805 C   0  0  0  0  0  0
  -28.2809  -18.1368   20.8248 C   0  0  0  0  0  0
  -27.9796  -19.5497   20.7531 C   0  0  0  0  0  0
  -29.5385  -17.5266   20.5263 C   0  0  0  0  0  0
  -28.9240  -20.5643   20.3727 C   0  0  0  0  0  0
  -28.9212  -23.3481   20.2721 C   0  0  0  0  0  0
  -26.5588  -19.9644   21.1017 C   0  0  0  0  0  0
  -27.9030  -24.6331   20.0204 C   0  0  0  0  0  0
  -28.4403  -22.0162   20.2307 N   0  0  0  0  0  0
  -29.6325  -16.0010   20.6400 N   0  0  0  0  0  0
  -30.1160  -23.5721   20.4861 O   0  0  0  0  0  0
  -31.4858  -12.7382   19.1738 H   0  0  0  0  0  0
  -30.4598  -11.6021   20.0044 H   0  0  0  0  0  0
  -29.8392  -11.7314   17.5690 H   0  0  0  0  0  0
  -29.6159  -13.4575   17.6962 H   0  0  0  0  0  0
  -27.9498  -11.2672   18.9676 H   0  0  0  0  0  0
  -27.3954  -12.4519   17.8138 H   0  0  0  0  0  0
  -27.6115  -14.2425   19.4245 H   0  0  0  0  0  0
  -28.7614  -12.2332   21.4284 H   0  0  0  0  0  0
  -28.3849  -13.9001   21.7808 H   0  0  0  0  0  0
  -25.2769   -9.5681   22.4759 H   0  0  0  0  0  0
  -23.9997   -7.4639   22.7478 H   0  0  0  0  0  0
  -21.0831   -8.8796   19.8962 H   0  0  0  0  0  0
  -22.3704  -10.9687   19.6177 H   0  0  0  0  0  0
  -21.2010   -7.6146   23.9710 H   0  0  0  0  0  0
  -21.1472   -6.0525   25.9072 H   0  0  0  0  0  0
  -22.0599   -2.7611   23.2855 H   0  0  0  0  0  0
  -22.4081  -11.9890   22.4828 H   0  0  0  0  0  0
  -21.1089  -13.1261   22.2637 H   0  0  0  0  0  0
  -24.6472  -15.8400   20.5114 H   0  0  0  0  0  0
  -26.2404  -15.6209   20.0005 H   0  0  0  0  0  0
  -26.7297  -32.5292   23.1019 H   0  0  0  0  0  0
  -25.0120  -33.9613   25.0345 H   0  0  0  0  0  0
  -22.7525  -31.2914   21.3793 H   0  0  0  0  0  0
  -23.3744  -35.9602   23.3325 H   0  0  0  0  0  0
  -24.3579  -36.8847   22.2044 H   0  0  0  0  0  0
  -23.7285  -37.6470   23.6650 H   0  0  0  0  0  0
  -26.1686  -31.4734   20.6200 H   0  0  0  0  0  0
  -26.8745  -30.7635   22.0355 H   0  0  0  0  0  0
  -28.1362  -28.7953   21.2380 H   0  0  0  0  0  0
  -25.9003  -25.8626   18.9816 H   0  0  0  0  0  0
  -23.9828  -27.3108   18.9725 H   0  0  0  0  0  0
  -23.8161  -30.5734   19.3977 H   0  0  0  0  0  0
  -22.7919  -29.2419   19.8383 H   0  0  0  0  0  0
  -25.1318  -36.1855   25.0801 H   0  0  0  0  0  0
  -21.0043  -28.3318   24.1332 H   0  0  0  0  0  0
  -20.5693  -26.2339   23.3614 H   0  0  0  0  0  0
  -21.6668  -26.7416   22.1188 H   0  0  0  0  0  0
  -19.6929  -25.6287   21.1238 H   0  0  0  0  0  0
  -19.6689  -27.3181   20.6725 H   0  0  0  0  0  0
  -17.4218  -26.6651   21.4045 H   0  0  0  0  0  0
  -18.0374  -26.0073   22.9037 H   0  0  0  0  0  0
  -19.7967  -30.7295   24.2214 H   0  0  0  0  0  0
  -17.5035  -31.6252   24.5173 H   0  0  0  0  0  0
  -15.5375  -30.2959   23.7666 H   0  0  0  0  0  0
  -15.8712  -28.0804   22.7059 H   0  0  0  0  0  0
  -24.5883  -30.7142   25.7758 H   0  0  0  0  0  0
  -24.8970  -32.2956   26.4835 H   0  0  0  0  0  0
  -25.8020  -30.8936   27.0222 H   0  0  0  0  0  0
  -26.2991  -29.6660   24.1314 H   0  0  0  0  0  0
  -27.3953  -29.7222   25.4906 H   0  0  0  0  0  0
  -27.8930  -30.4126   23.9657 H   0  0  0  0  0  0
  -27.2674  -33.3600   26.2076 H   0  0  0  0  0  0
  -28.3903  -32.6870   25.0347 H   0  0  0  0  0  0
  -28.0742  -31.8436   26.5435 H   0  0  0  0  0  0
  -28.2618  -38.0057   24.7456 H   0  0  0  0  0  0
  -28.1037  -36.2588   24.6381 H   0  0  0  0  0  0
  -27.2280  -37.1537   25.8875 H   0  0  0  0  0  0
  -20.9488  -29.8769   21.6764 H   0  0  0  0  0  0
  -26.0161  -38.2807   24.1355 H   0  0  0  0  0  0
  -31.4990  -18.2091   19.8898 H   0  0  0  0  0  0
  -31.0046  -20.6281   19.7592 H   0  0  0  0  0  0
  -27.4782  -17.4766   21.1222 H   0  0  0  0  0  0
  -26.0229  -19.1654   21.6150 H   0  0  0  0  0  0
  -26.0022  -20.2111   20.1976 H   0  0  0  0  0  0
  -26.5511  -20.8296   21.7648 H   0  0  0  0  0  0
  -27.0215  -24.4334   20.6310 H   0  0  0  0  0  0
  -27.5869  -24.5146   18.9844 H   0  0  0  0  0  0
  -27.4372  -22.0463   20.1106 H   0  0  0  0  0  0
  -28.7418  -15.6070   20.9001 H   0  0  0  0  0  0
  1 25  1  0  0  0
  1 30  2  0  0  0
  1 81  1  0  0  0
  2  3  1  0  0  0
  2 25  1  0  0  0
  2 83  1  0  0  0
  2 84  1  0  0  0
  3  4  1  0  0  0
  3 85  1  0  0  0
  3 86  1  0  0  0
  4  5  1  0  0  0
  4 87  1  0  0  0
  4 88  1  0  0  0
  5  6  1  0  0  0
  5 26  1  0  0  0
  5 89  1  0  0  0
  6 25  1  0  0  0
  6 90  1  0  0  0
  6 91  1  0  0  0
  7  8  2  0  0  0
  7 26  1  0  0  0
  7 29  1  0  0  0
  8  9  1  0  0  0
  8 22  1  0  0  0
  9 10  1  0  0  0
  9 27  2  0  0  0
 10 11  2  0  0  0
 10 15  1  0  0  0
 11 12  1  0  0  0
 11 92  1  0  0  0
 12 13  2  0  0  0
 12 93  1  0  0  0
 13 14  1  0  0  0
 13 31  1  0  0  0
 14 15  2  0  0  0
 14 94  1  0  0  0
 15 95  1  0  0  0
 16 17  2  0  0  0
 16 21  1  0  0  0
 16 31  1  0  0  0
 17 18  1  0  0  0
 17 96  1  0  0  0
 18 19  2  0  0  0
 18 97  1  0  0  0
 19 20  1  0  0  0
 19 24  1  0  0  0
 20 21  2  0  0  0
 20 98  1  0  0  0
 21 23  1  0  0  0
 22 28  1  0  0  0
 22 32  2  0  0  0
 26 27  1  0  0  0
 28 99  1  0  0  0
 28100  1  0  0  0
 29101  1  0  0  0
 29102  1  0  0  0
 33 34  1  0  0  0
 33 66  1  0  0  0
 33 70  2  0  0  0
 34 36  1  0  0  0
 34 59  1  0  0  0
 34103  1  0  0  0
 35 44  2  0  0  0
 35 45  1  0  0  0
 35 68  1  0  0  0
 36 56  1  0  0  0
 36104  1  0  0  0
 37 39  1  0  0  0
 37 47  1  0  0  0
 37 66  1  0  0  0
 37105  1  0  0  0
 38 43  2  0  0  0
 38 46  1  0  0  0
 38 47  1  0  0  0
 39 64  1  0  0  0
 39 67  2  0  0  0
 40 52  1  0  0  0
 40 53  2  0  0  0
 40 58  1  0  0  0
 41106  1  0  0  0
 41107  1  0  0  0
 41108  1  0  0  0
 41 48  1  0  0  0
 42 43  1  0  0  0
 42 66  1  0  0  0
 42109  1  0  0  0
 42110  1  0  0  0
 43 44  1  0  0  0
 44111  1  0  0  0
 45 46  2  0  0  0
 45112  1  0  0  0
 46113  1  0  0  0
 47114  1  0  0  0
 47115  1  0  0  0
 48 56  1  0  0  0
 48 65  1  0  0  0
 48116  1  0  0  0
 49 50  1  0  0  0
 49 53  1  0  0  0
 49 64  1  0  0  0
 49117  1  0  0  0
 50 51  1  0  0  0
 50118  1  0  0  0
 50119  1  0  0  0
 51 52  1  0  0  0
 51120  1  0  0  0
 51121  1  0  0  0
 52122  1  0  0  0
 52123  1  0  0  0
 53 54  1  0  0  0
 54 55  2  0  0  0
 54124  1  0  0  0
 55 57  1  0  0  0
 55125  1  0  0  0
 56 69  2  0  0  0
 57 58  2  0  0  0
 57126  1  0  0  0
 58127  1  0  0  0
 59 60  1  0  0  0
 59 61  1  0  0  0
 59 62  1  0  0  0
 60128  1  0  0  0
 60129  1  0  0  0
 60130  1  0  0  0
 61131  1  0  0  0
 61132  1  0  0  0
 61133  1  0  0  0
 62134  1  0  0  0
 62135  1  0  0  0
 62136  1  0  0  0
 63 65  1  0  0  0
 63137  1  0  0  0
 63138  1  0  0  0
 63139  1  0  0  0
 64140  1  0  0  0
 65141  1  0  0  0
 68 79  1  0  0  0
 71 72  2  0  0  0
 71 75  1  0  0  0
 71142  1  0  0  0
 72 76  1  0  0  0
 72143  1  0  0  0
 73 74  1  0  0  0
 73 75  2  0  0  0
 73144  1  0  0  0
 74 76  2  0  0  0
 74 78  1  0  0  0
 75 81  1  0  0  0
 76 80  1  0  0  0
 77 79  1  0  0  0
 77 80  1  0  0  0
 77 82  2  0  0  0
 78145  1  0  0  0
 78146  1  0  0  0
 78147  1  0  0  0
 79148  1  0  0  0
 79149  1  0  0  0
 80150  1  0  0  0
 81151  1  0  0  0
M  ISO  4   1 100  68 101  79 101  81 100
M  END
> <chiral flag>
0

> <version>
0

> <s_m_source_file>
/data/baiqing/PycharmProjects/Reinvent-master-3.2/result/LINK_invent/BTK/process_docking_weight1_custom_sum_contain_oxygen_bond_distance_aromatic_linkinvent_7_9_3/rearranged_h_0010.sdf

> <i_m_source_file_index>
86

> <r_mmod_Potential_Energy-OPLS-2005>
406.607940673828

> <r_mmod_Stretch_Energy-OPLS-2005>
220.072738647461

> <r_mmod_Bend_Energy-OPLS-2005>
280.334228515625

> <r_mmod_Torsional_Energy-OPLS-2005>
222.647247314453

> <r_mmod_Improper_Torsional_Energy-OPLS-2005>
4.48283672332764

> <r_mmod_Van_der_Waal_Energy-OPLS-2005>
131.61994934082

> <r_mmod_Electrostatic_Energy-OPLS-2005>
-387.265258789062

> <r_mmod_Solvation_Energy-OPLS-2005>
-249.595458984375

> <b_mmod_Minimization_Converged-OPLS-2005>
0

> <r_mmod_RMS_Derivative-OPLS-2005>
1.20512986183167

$$$$
86
                    3D
 Structure written by MMmdl.
148156  0  0  1  0            999 V2000
  -30.5122  -14.9218   20.4210 C   0  0  0  0  0  0
  -30.4531  -12.5665   19.4870 C   0  0  0  0  0  0
  -29.5248  -12.5329   18.2489 C   0  0  0  0  0  0
  -28.0554  -12.3215   18.6638 C   0  0  0  0  0  0
  -27.6372  -13.2379   19.8425 C   0  0  2  0  0  0
  -28.6832  -13.2237   20.9788 C   0  0  0  0  0  0
  -25.2494  -13.8187   20.5681 C   0  0  0  0  0  0
  -24.1803  -13.0433   20.9229 C   0  0  0  0  0  0
  -24.6403  -11.6915   20.8752 C   0  0  0  0  0  0
  -23.9077  -10.4290   21.0406 C   0  0  0  0  0  0
  -24.3623   -9.4205   21.9184 C   0  0  0  0  0  0
  -23.6292   -8.2244   22.0754 C   0  0  0  0  0  0
  -22.4273   -8.0285   21.3544 C   0  0  0  0  0  0
  -21.9912   -9.0261   20.4649 C   0  0  0  0  0  0
  -22.7246  -10.2135   20.3058 C   0  0  0  0  0  0
  -21.6854   -6.0731   22.5275 C   0  0  0  0  0  0
  -21.4015   -6.5633   23.8208 C   0  0  0  0  0  0
  -21.3662   -5.6786   24.9171 C   0  0  0  0  0  0
  -21.6044   -4.3049   24.7222 C   0  0  0  0  0  0
  -21.8820   -3.8140   23.4345 C   0  0  0  0  0  0
  -21.9192   -4.6957   22.3399 C   0  0  0  0  0  0
  -22.7822  -13.5216   21.1875 C   0  0  0  0  0  0
  -22.1662   -4.2142   21.0977 F   0  0  0  0  0  0
  -21.5629   -3.4536   25.7739 F   0  0  0  0  0  0
  -29.9663  -13.6413   20.3934 N   0  0  0  0  0  0
  -26.2920  -12.9402   20.3233 N   0  0  0  0  0  0
  -25.9333  -11.6544   20.5726 N   0  0  0  0  0  0
  -22.0461  -12.8217   22.0433 N   0  0  0  0  0  0
  -25.4154  -15.1905   20.4032 N   0  0  0  0  0  0
  -31.7048  -15.0554   20.1240 O   0  0  0  0  0  0
  -21.6639   -6.8880   21.4240 O   0  0  0  0  0  0
  -22.3514  -14.5518   20.6710 O   0  0  0  0  0  0
  -24.6443  -31.8448   23.1896 C   0  0  0  0  0  0
  -25.9216  -32.4698   23.8287 C   0  0  1  0  0  0
  -27.2194  -27.1412   20.1396 C   0  0  0  0  0  0
  -25.5963  -33.8505   24.2200 N   0  0  0  0  0  0
  -23.4478  -30.4658   21.5355 C   0  0  2  0  0  0
  -24.8972  -28.8971   20.1102 C   0  0  0  0  0  0
  -22.7577  -29.4550   22.4860 C   0  0  0  0  0  0
  -18.0311  -28.1393   22.8478 C   0  0  0  0  0  0
  -24.1495  -36.7256   23.2642 C   0  0  0  0  0  0
  -26.0052  -30.7192   21.3896 C   0  0  0  0  0  0
  -26.0767  -29.3319   20.7282 C   0  0  0  0  0  0
  -27.2386  -28.4703   20.7274 C   0  0  0  0  0  0
  -26.0107  -26.8123   19.4826 C   0  0  0  0  0  0
  -24.8768  -27.6494   19.4737 C   0  0  0  0  0  0
  -23.6743  -29.7989   20.1540 C   0  0  0  0  0  0
  -25.4127  -36.3034   24.0315 C   0  0  1  0  0  0
  -20.5925  -28.3720   23.1235 C   0  0  2  0  0  0
  -20.6794  -26.9423   22.5404 C   0  0  0  0  0  0
  -19.5763  -26.6377   21.5215 C   0  0  0  0  0  0
  -18.1947  -26.7930   22.1628 C   0  0  0  0  0  0
  -19.1569  -28.8877   23.2847 C   0  0  0  0  0  0
  -18.9480  -30.1472   23.8872 C   0  0  0  0  0  0
  -17.6474  -30.6587   24.0560 C   0  0  0  0  0  0
  -25.9076  -34.9406   23.5066 C   0  0  0  0  0  0
  -16.5368  -29.9079   23.6333 C   0  0  0  0  0  0
  -16.7296  -28.6499   23.0353 C   0  0  0  0  0  0
  -26.4529  -31.6564   25.0728 C   0  0  0  0  0  0
  -25.3706  -31.3765   26.1420 C   0  0  0  0  0  0
  -27.0385  -30.2951   24.6320 C   0  0  0  0  0  0
  -27.6061  -32.4328   25.7511 C   0  0  0  0  0  0
  -27.5573  -37.1796   24.8471 C   0  0  0  0  0  0
  -21.4268  -29.3048   22.3606 N   0  0  0  0  0  0
  -26.4295  -37.3739   23.9395 N   0  0  0  0  0  0
  -24.7189  -31.0306   22.0930 N   0  0  0  0  0  0
  -23.4222  -28.8090   23.3003 O   0  0  0  0  0  0
  -28.2628  -26.1435   20.2061 O   0  0  0  0  0  0
  -26.5660  -34.8903   22.4643 O   0  0  0  0  0  0
  -23.5560  -32.1329   23.7109 O   0  0  0  0  0  0
  -30.5556  -18.5556   20.3651 C   0  0  0  0  0  0
  -30.2820  -19.9982   20.2907 C   0  0  0  0  0  0
  -28.2396  -18.1427   20.4896 C   0  0  0  0  0  0
  -29.5376  -17.5370   20.4734 C   0  0  0  0  0  0
  -28.9593  -20.5786   20.3041 C   0  0  0  0  0  0
  -27.9644  -19.5572   20.3992 C   0  0  0  0  0  0
  -28.9304  -23.3609   20.2667 C   0  0  0  0  0  0
  -27.9099  -24.6404   20.0006 C   0  0  0  0  0  0
  -28.4680  -22.0258   20.1786 N   0  0  0  0  0  0
  -29.6243  -16.0086   20.6072 N   0  0  0  0  0  0
  -30.1122  -23.5927   20.5350 O   0  0  0  0  0  0
  -26.6671  -19.9507   20.4038 F   0  0  0  0  0  0
  -31.4844  -12.7383   19.1752 H   0  0  0  0  0  0
  -30.4520  -11.6030   19.9989 H   0  0  0  0  0  0
  -29.8366  -11.7451   17.5617 H   0  0  0  0  0  0
  -29.6166  -13.4710   17.6997 H   0  0  0  0  0  0
  -27.9406  -11.2757   18.9515 H   0  0  0  0  0  0
  -27.3953  -12.4769   17.8097 H   0  0  0  0  0  0
  -27.6101  -14.2476   19.4324 H   0  0  0  0  0  0
  -28.7617  -12.2309   21.4245 H   0  0  0  0  0  0
  -28.3859  -13.8962   21.7849 H   0  0  0  0  0  0
  -25.2767   -9.5674   22.4762 H   0  0  0  0  0  0
  -23.9995   -7.4633   22.7476 H   0  0  0  0  0  0
  -21.0839   -8.8784   19.8959 H   0  0  0  0  0  0
  -22.3705  -10.9676   19.6171 H   0  0  0  0  0  0
  -21.2010   -7.6141   23.9709 H   0  0  0  0  0  0
  -21.1483   -6.0517   25.9072 H   0  0  0  0  0  0
  -22.0596   -2.7603   23.2848 H   0  0  0  0  0  0
  -22.4073  -11.9888   22.4838 H   0  0  0  0  0  0
  -21.1080  -13.1251   22.2629 H   0  0  0  0  0  0
  -24.6299  -15.8279   20.4806 H   0  0  0  0  0  0
  -26.2201  -15.6099   19.9582 H   0  0  0  0  0  0
  -26.7284  -32.5304   23.1019 H   0  0  0  0  0  0
  -25.0087  -33.9620   25.0332 H   0  0  0  0  0  0
  -22.7507  -31.2922   21.3828 H   0  0  0  0  0  0
  -23.3749  -35.9597   23.3319 H   0  0  0  0  0  0
  -24.3573  -36.8871   22.2053 H   0  0  0  0  0  0
  -23.7267  -37.6465   23.6669 H   0  0  0  0  0  0
  -26.1638  -31.4760   20.6202 H   0  0  0  0  0  0
  -26.8746  -30.7664   22.0337 H   0  0  0  0  0  0
  -28.1353  -28.7977   21.2346 H   0  0  0  0  0  0
  -25.8960  -25.8642   18.9812 H   0  0  0  0  0  0
  -23.9771  -27.3112   18.9782 H   0  0  0  0  0  0
  -23.8123  -30.5751   19.4004 H   0  0  0  0  0  0
  -22.7889  -29.2427   19.8418 H   0  0  0  0  0  0
  -25.1316  -36.1868   25.0809 H   0  0  0  0  0  0
  -21.0023  -28.3313   24.1353 H   0  0  0  0  0  0
  -20.5685  -26.2336   23.3623 H   0  0  0  0  0  0
  -21.6660  -26.7422   22.1202 H   0  0  0  0  0  0
  -19.6920  -25.6282   21.1257 H   0  0  0  0  0  0
  -19.6691  -27.3176   20.6736 H   0  0  0  0  0  0
  -17.4212  -26.6677   21.4036 H   0  0  0  0  0  0
  -18.0343  -26.0079   22.9031 H   0  0  0  0  0  0
  -19.7955  -30.7300   24.2228 H   0  0  0  0  0  0
  -17.5024  -31.6263   24.5165 H   0  0  0  0  0  0
  -15.5366  -30.2968   23.7664 H   0  0  0  0  0  0
  -15.8700  -28.0805   22.7076 H   0  0  0  0  0  0
  -24.5890  -30.7107   25.7742 H   0  0  0  0  0  0
  -24.8890  -32.2951   26.4780 H   0  0  0  0  0  0
  -25.7980  -30.8981   27.0239 H   0  0  0  0  0  0
  -26.3004  -29.6679   24.1307 H   0  0  0  0  0  0
  -27.3959  -29.7249   25.4905 H   0  0  0  0  0  0
  -27.8931  -30.4168   23.9663 H   0  0  0  0  0  0
  -27.2655  -33.3642   26.2046 H   0  0  0  0  0  0
  -28.3893  -32.6869   25.0356 H   0  0  0  0  0  0
  -28.0707  -31.8484   26.5461 H   0  0  0  0  0  0
  -28.2614  -38.0066   24.7468 H   0  0  0  0  0  0
  -28.1045  -36.2596   24.6362 H   0  0  0  0  0  0
  -27.2283  -37.1523   25.8873 H   0  0  0  0  0  0
  -20.9479  -29.8766   21.6786 H   0  0  0  0  0  0
  -26.0164  -38.2816   24.1359 H   0  0  0  0  0  0
  -31.5893  -18.2394   20.3456 H   0  0  0  0  0  0
  -31.1257  -20.6684   20.2073 H   0  0  0  0  0  0
  -27.3790  -17.4966   20.5727 H   0  0  0  0  0  0
  -27.0217  -24.4352   20.5988 H   0  0  0  0  0  0
  -27.6067  -24.5279   18.9598 H   0  0  0  0  0  0
  -27.4699  -22.0293   20.0105 H   0  0  0  0  0  0
  -28.7206  -15.6158   20.8204 H   0  0  0  0  0  0
  1 25  1  0  0  0
  1 30  2  0  0  0
  1 80  1  0  0  0
  2  3  1  0  0  0
  2 25  1  0  0  0
  2 83  1  0  0  0
  2 84  1  0  0  0
  3  4  1  0  0  0
  3 85  1  0  0  0
  3 86  1  0  0  0
  4  5  1  0  0  0
  4 87  1  0  0  0
  4 88  1  0  0  0
  5  6  1  0  0  0
  5 26  1  0  0  0
  5 89  1  0  0  0
  6 25  1  0  0  0
  6 90  1  0  0  0
  6 91  1  0  0  0
  7  8  2  0  0  0
  7 26  1  0  0  0
  7 29  1  0  0  0
  8  9  1  0  0  0
  8 22  1  0  0  0
  9 10  1  0  0  0
  9 27  2  0  0  0
 10 11  2  0  0  0
 10 15  1  0  0  0
 11 12  1  0  0  0
 11 92  1  0  0  0
 12 13  2  0  0  0
 12 93  1  0  0  0
 13 14  1  0  0  0
 13 31  1  0  0  0
 14 15  2  0  0  0
 14 94  1  0  0  0
 15 95  1  0  0  0
 16 17  2  0  0  0
 16 21  1  0  0  0
 16 31  1  0  0  0
 17 18  1  0  0  0
 17 96  1  0  0  0
 18 19  2  0  0  0
 18 97  1  0  0  0
 19 20  1  0  0  0
 19 24  1  0  0  0
 20 21  2  0  0  0
 20 98  1  0  0  0
 21 23  1  0  0  0
 22 28  1  0  0  0
 22 32  2  0  0  0
 26 27  1  0  0  0
 28 99  1  0  0  0
 28100  1  0  0  0
 29101  1  0  0  0
 29102  1  0  0  0
 33 34  1  0  0  0
 33 66  1  0  0  0
 33 70  2  0  0  0
 34 36  1  0  0  0
 34 59  1  0  0  0
 34103  1  0  0  0
 35 44  2  0  0  0
 35 45  1  0  0  0
 35 68  1  0  0  0
 36 56  1  0  0  0
 36104  1  0  0  0
 37 39  1  0  0  0
 37 47  1  0  0  0
 37 66  1  0  0  0
 37105  1  0  0  0
 38 43  2  0  0  0
 38 46  1  0  0  0
 38 47  1  0  0  0
 39 64  1  0  0  0
 39 67  2  0  0  0
 40 52  1  0  0  0
 40 53  2  0  0  0
 40 58  1  0  0  0
 41106  1  0  0  0
 41107  1  0  0  0
 41108  1  0  0  0
 41 48  1  0  0  0
 42 43  1  0  0  0
 42 66  1  0  0  0
 42109  1  0  0  0
 42110  1  0  0  0
 43 44  1  0  0  0
 44111  1  0  0  0
 45 46  2  0  0  0
 45112  1  0  0  0
 46113  1  0  0  0
 47114  1  0  0  0
 47115  1  0  0  0
 48 56  1  0  0  0
 48 65  1  0  0  0
 48116  1  0  0  0
 49 50  1  0  0  0
 49 53  1  0  0  0
 49 64  1  0  0  0
 49117  1  0  0  0
 50 51  1  0  0  0
 50118  1  0  0  0
 50119  1  0  0  0
 51 52  1  0  0  0
 51120  1  0  0  0
 51121  1  0  0  0
 52122  1  0  0  0
 52123  1  0  0  0
 53 54  1  0  0  0
 54 55  2  0  0  0
 54124  1  0  0  0
 55 57  1  0  0  0
 55125  1  0  0  0
 56 69  2  0  0  0
 57 58  2  0  0  0
 57126  1  0  0  0
 58127  1  0  0  0
 59 60  1  0  0  0
 59 61  1  0  0  0
 59 62  1  0  0  0
 60128  1  0  0  0
 60129  1  0  0  0
 60130  1  0  0  0
 61131  1  0  0  0
 61132  1  0  0  0
 61133  1  0  0  0
 62134  1  0  0  0
 62135  1  0  0  0
 62136  1  0  0  0
 63 65  1  0  0  0
 63137  1  0  0  0
 63138  1  0  0  0
 63139  1  0  0  0
 64140  1  0  0  0
 65141  1  0  0  0
 68 78  1  0  0  0
 71 72  2  0  0  0
 71 74  1  0  0  0
 71142  1  0  0  0
 72 75  1  0  0  0
 72143  1  0  0  0
 73 74  2  0  0  0
 73 76  1  0  0  0
 73144  1  0  0  0
 74 80  1  0  0  0
 75 76  2  0  0  0
 75 79  1  0  0  0
 76 82  1  0  0  0
 77 78  1  0  0  0
 77 79  1  0  0  0
 77 81  2  0  0  0
 78145  1  0  0  0
 78146  1  0  0  0
 79147  1  0  0  0
 80148  1  0  0  0
M  ISO  4   1 100  68 101  78 101  80 100
M  END
> <chiral flag>
0

> <version>
0

> <s_m_source_file>
/data/baiqing/PycharmProjects/Reinvent-master-3.2/result/LINK_invent/BTK/process_docking_weight1_custom_sum_contain_oxygen_bond_distance_aromatic_linkinvent_7_9_3/rearranged_h_0010.sdf

> <i_m_source_file_index>
87

> <r_mmod_Potential_Energy-OPLS-2005>
408.086791992188

> <r_mmod_Stretch_Energy-OPLS-2005>
218.79460144043

> <r_mmod_Bend_Energy-OPLS-2005>
281.798767089844

> <r_mmod_Torsional_Energy-OPLS-2005>
220.497772216797

> <r_mmod_Improper_Torsional_Energy-OPLS-2005>
5.07187652587891

> <r_mmod_Van_der_Waal_Energy-OPLS-2005>
130.193206787109

> <r_mmod_Electrostatic_Energy-OPLS-2005>
-389.395721435547

> <r_mmod_Solvation_Energy-OPLS-2005>
-242.372695922852

> <b_mmod_Minimization_Converged-OPLS-2005>
0

> <r_mmod_RMS_Derivative-OPLS-2005>
0.813941478729248

$$$$
87
                    3D
 Structure written by MMmdl.
152160  0  0  1  0            999 V2000
  -30.5241  -14.9140   20.4248 C   0  0  0  0  0  0
  -30.4496  -12.5628   19.4915 C   0  0  0  0  0  0
  -29.5227  -12.5333   18.2527 C   0  0  0  0  0  0
  -28.0560  -12.3214   18.6719 C   0  0  0  0  0  0
  -27.6396  -13.2411   19.8490 C   0  0  2  0  0  0
  -28.6832  -13.2337   20.9874 C   0  0  0  0  0  0
  -25.2509  -13.8204   20.5718 C   0  0  0  0  0  0
  -24.1804  -13.0440   20.9192 C   0  0  0  0  0  0
  -24.6419  -11.6924   20.8756 C   0  0  0  0  0  0
  -23.9099  -10.4292   21.0419 C   0  0  0  0  0  0
  -24.3644   -9.4207   21.9195 C   0  0  0  0  0  0
  -23.6311   -8.2248   22.0767 C   0  0  0  0  0  0
  -22.4285   -8.0296   21.3551 C   0  0  0  0  0  0
  -21.9934   -9.0269   20.4650 C   0  0  0  0  0  0
  -22.7274  -10.2145   20.3063 C   0  0  0  0  0  0
  -21.6855   -6.0751   22.5276 C   0  0  0  0  0  0
  -21.4016   -6.5654   23.8211 C   0  0  0  0  0  0
  -21.3653   -5.6803   24.9166 C   0  0  0  0  0  0
  -21.6049   -4.3067   24.7215 C   0  0  0  0  0  0
  -21.8819   -3.8162   23.4332 C   0  0  0  0  0  0
  -21.9192   -4.6982   22.3394 C   0  0  0  0  0  0
  -22.7820  -13.5225   21.1845 C   0  0  0  0  0  0
  -22.1661   -4.2174   21.0967 F   0  0  0  0  0  0
  -21.5625   -3.4549   25.7723 F   0  0  0  0  0  0
  -29.9668  -13.6399   20.3991 N   0  0  0  0  0  0
  -26.2944  -12.9430   20.3294 N   0  0  0  0  0  0
  -25.9355  -11.6565   20.5763 N   0  0  0  0  0  0
  -22.0473  -12.8204   22.0406 N   0  0  0  0  0  0
  -25.4188  -15.1937   20.4193 N   0  0  0  0  0  0
  -31.7125  -15.0319   20.1071 O   0  0  0  0  0  0
  -21.6640   -6.8900   21.4244 O   0  0  0  0  0  0
  -22.3507  -14.5526   20.6698 O   0  0  0  0  0  0
  -24.6410  -31.8434   23.1899 C   0  0  0  0  0  0
  -25.9190  -32.4692   23.8273 C   0  0  1  0  0  0
  -27.2235  -27.1559   20.1377 C   0  0  0  0  0  0
  -25.5950  -33.8501   24.2198 N   0  0  0  0  0  0
  -23.4431  -30.4661   21.5326 C   0  0  2  0  0  0
  -24.8925  -28.8947   20.1080 C   0  0  0  0  0  0
  -22.7568  -29.4546   22.4842 C   0  0  0  0  0  0
  -18.0303  -28.1390   22.8441 C   0  0  0  0  0  0
  -24.1493  -36.7256   23.2649 C   0  0  0  0  0  0
  -25.9968  -30.7269   21.3834 C   0  0  0  0  0  0
  -26.0679  -29.3397   20.7232 C   0  0  0  0  0  0
  -27.2286  -28.4837   20.7265 C   0  0  0  0  0  0
  -26.0165  -26.8038   19.4929 C   0  0  0  0  0  0
  -24.8778  -27.6379   19.4845 C   0  0  0  0  0  0
  -23.6701  -29.7971   20.1507 C   0  0  0  0  0  0
  -25.4115  -36.3037   24.0337 C   0  0  1  0  0  0
  -20.5912  -28.3706   23.1228 C   0  0  2  0  0  0
  -20.6779  -26.9408   22.5404 C   0  0  0  0  0  0
  -19.5764  -26.6367   21.5200 C   0  0  0  0  0  0
  -18.1942  -26.7921   22.1598 C   0  0  0  0  0  0
  -19.1561  -28.8860   23.2822 C   0  0  0  0  0  0
  -18.9487  -30.1448   23.8855 C   0  0  0  0  0  0
  -17.6493  -30.6575   24.0548 C   0  0  0  0  0  0
  -25.9074  -34.9412   23.5078 C   0  0  0  0  0  0
  -16.5376  -29.9071   23.6335 C   0  0  0  0  0  0
  -16.7294  -28.6505   23.0324 C   0  0  0  0  0  0
  -26.4525  -31.6549   25.0703 C   0  0  0  0  0  0
  -25.3723  -31.3745   26.1416 C   0  0  0  0  0  0
  -27.0406  -30.2956   24.6267 C   0  0  0  0  0  0
  -27.6042  -32.4319   25.7482 C   0  0  0  0  0  0
  -27.5575  -37.1770   24.8464 C   0  0  0  0  0  0
  -21.4263  -29.3048   22.3617 N   0  0  0  0  0  0
  -26.4266  -37.3756   23.9437 N   0  0  0  0  0  0
  -24.7134  -31.0326   22.0915 N   0  0  0  0  0  0
  -23.4229  -28.8117   23.2993 O   0  0  0  0  0  0
  -28.3041  -26.2109   20.2404 O   0  0  0  0  0  0
  -26.5653  -34.8913   22.4653 O   0  0  0  0  0  0
  -23.5534  -32.1276   23.7151 O   0  0  0  0  0  0
  -30.6158  -19.7982   19.7829 C   0  0  0  0  0  0
  -30.7261  -18.3596   19.9412 C   0  0  0  0  0  0
  -28.4713  -19.8011   20.7349 C   0  0  0  0  0  0
  -29.4918  -20.6363   20.1646 C   0  0  0  0  0  0
  -29.6947  -17.5436   20.4909 C   0  0  0  0  0  0
  -28.5644  -18.3508   20.8766 C   0  0  0  0  0  0
  -30.7553  -22.6115   19.4647 C   0  0  0  0  0  0
  -28.5881  -23.2981   20.4998 C   0  0  0  0  0  0
  -28.3524  -24.7628   19.6801 C   0  0  0  0  0  0
  -29.6754  -16.0219   20.6532 N   0  0  0  0  0  0
  -29.4558  -22.1237   19.9374 N   0  0  0  0  0  0
  -27.5001  -17.6990   21.4040 F   0  0  0  0  0  0
  -31.4820  -12.7272   19.1778 H   0  0  0  0  0  0
  -30.4427  -11.5993   20.0035 H   0  0  0  0  0  0
  -29.8331  -11.7462   17.5643 H   0  0  0  0  0  0
  -29.6136  -13.4725   17.7048 H   0  0  0  0  0  0
  -27.9457  -11.2778   18.9673 H   0  0  0  0  0  0
  -27.3909  -12.4692   17.8207 H   0  0  0  0  0  0
  -27.6135  -14.2503   19.4376 H   0  0  0  0  0  0
  -28.7592  -12.2489   21.4506 H   0  0  0  0  0  0
  -28.3880  -13.9219   21.7811 H   0  0  0  0  0  0
  -25.2794   -9.5677   22.4765 H   0  0  0  0  0  0
  -24.0017   -7.4643   22.7494 H   0  0  0  0  0  0
  -21.0866   -8.8806   19.8952 H   0  0  0  0  0  0
  -22.3752  -10.9692   19.6175 H   0  0  0  0  0  0
  -21.2013   -7.6162   23.9723 H   0  0  0  0  0  0
  -21.1474   -6.0526   25.9070 H   0  0  0  0  0  0
  -22.0604   -2.7630   23.2818 H   0  0  0  0  0  0
  -22.4100  -11.9858   22.4759 H   0  0  0  0  0  0
  -21.1101  -13.1239   22.2635 H   0  0  0  0  0  0
  -24.6603  -15.8487   20.5679 H   0  0  0  0  0  0
  -26.2797  -15.6509   20.1507 H   0  0  0  0  0  0
  -26.7253  -32.5304   23.0996 H   0  0  0  0  0  0
  -25.0092  -33.9610   25.0344 H   0  0  0  0  0  0
  -22.7433  -31.2913   21.3798 H   0  0  0  0  0  0
  -23.3767  -35.9569   23.3270 H   0  0  0  0  0  0
  -24.3593  -36.8919   22.2074 H   0  0  0  0  0  0
  -23.7234  -37.6443   23.6695 H   0  0  0  0  0  0
  -26.1493  -31.4857   20.6145 H   0  0  0  0  0  0
  -26.8688  -30.7764   22.0242 H   0  0  0  0  0  0
  -28.1218  -28.8202   21.2351 H   0  0  0  0  0  0
  -25.8984  -25.8420   19.0229 H   0  0  0  0  0  0
  -23.9760  -27.2853   19.0034 H   0  0  0  0  0  0
  -23.8116  -30.5730   19.3972 H   0  0  0  0  0  0
  -22.7844  -29.2439   19.8351 H   0  0  0  0  0  0
  -25.1294  -36.1855   25.0826 H   0  0  0  0  0  0
  -20.9972  -28.3284   24.1360 H   0  0  0  0  0  0
  -20.5644  -26.2328   23.3626 H   0  0  0  0  0  0
  -21.6648  -26.7397   22.1223 H   0  0  0  0  0  0
  -19.6935  -25.6281   21.1228 H   0  0  0  0  0  0
  -19.6705  -27.3163   20.6722 H   0  0  0  0  0  0
  -17.4217  -26.6652   21.4003 H   0  0  0  0  0  0
  -18.0328  -26.0074   22.9004 H   0  0  0  0  0  0
  -19.7981  -30.7246   24.2205 H   0  0  0  0  0  0
  -17.5069  -31.6251   24.5158 H   0  0  0  0  0  0
  -15.5378  -30.2961   23.7693 H   0  0  0  0  0  0
  -15.8695  -28.0825   22.7034 H   0  0  0  0  0  0
  -24.5914  -30.7070   25.7761 H   0  0  0  0  0  0
  -24.8898  -32.2932   26.4760 H   0  0  0  0  0  0
  -25.8011  -30.8990   27.0245 H   0  0  0  0  0  0
  -26.3033  -29.6659   24.1277 H   0  0  0  0  0  0
  -27.4067  -29.7281   25.4835 H   0  0  0  0  0  0
  -27.8907  -30.4235   23.9560 H   0  0  0  0  0  0
  -27.2638  -33.3661   26.1966 H   0  0  0  0  0  0
  -28.3886  -32.6804   25.0319 H   0  0  0  0  0  0
  -28.0664  -31.8506   26.5477 H   0  0  0  0  0  0
  -28.2547  -38.0110   24.7542 H   0  0  0  0  0  0
  -28.1118  -36.2638   24.6221 H   0  0  0  0  0  0
  -27.2311  -37.1329   25.8872 H   0  0  0  0  0  0
  -20.9470  -29.8823   21.6854 H   0  0  0  0  0  0
  -26.0140  -38.2821   24.1454 H   0  0  0  0  0  0
  -31.4802  -20.2467   19.3186 H   0  0  0  0  0  0
  -31.6352  -17.8786   19.6103 H   0  0  0  0  0  0
  -27.5568  -20.2699   21.0671 H   0  0  0  0  0  0
  -30.9828  -22.2250   18.4702 H   0  0  0  0  0  0
  -31.5522  -22.3130   20.1473 H   0  0  0  0  0  0
  -30.8206  -23.6948   19.4033 H   0  0  0  0  0  0
  -27.6016  -22.8949   20.7344 H   0  0  0  0  0  0
  -29.0175  -23.5435   21.4710 H   0  0  0  0  0  0
  -27.5102  -24.5937   19.0169 H   0  0  0  0  0  0
  -29.1656  -24.8529   18.9647 H   0  0  0  0  0  0
  -28.7695  -15.7009   20.9602 H   0  0  0  0  0  0
  1 25  1  0  0  0
  1 30  2  0  0  0
  1 80  1  0  0  0
  2  3  1  0  0  0
  2 25  1  0  0  0
  2 83  1  0  0  0
  2 84  1  0  0  0
  3  4  1  0  0  0
  3 85  1  0  0  0
  3 86  1  0  0  0
  4  5  1  0  0  0
  4 87  1  0  0  0
  4 88  1  0  0  0
  5  6  1  0  0  0
  5 26  1  0  0  0
  5 89  1  0  0  0
  6 25  1  0  0  0
  6 90  1  0  0  0
  6 91  1  0  0  0
  7  8  2  0  0  0
  7 26  1  0  0  0
  7 29  1  0  0  0
  8  9  1  0  0  0
  8 22  1  0  0  0
  9 10  1  0  0  0
  9 27  2  0  0  0
 10 11  2  0  0  0
 10 15  1  0  0  0
 11 12  1  0  0  0
 11 92  1  0  0  0
 12 13  2  0  0  0
 12 93  1  0  0  0
 13 14  1  0  0  0
 13 31  1  0  0  0
 14 15  2  0  0  0
 14 94  1  0  0  0
 15 95  1  0  0  0
 16 17  2  0  0  0
 16 21  1  0  0  0
 16 31  1  0  0  0
 17 18  1  0  0  0
 17 96  1  0  0  0
 18 19  2  0  0  0
 18 97  1  0  0  0
 19 20  1  0  0  0
 19 24  1  0  0  0
 20 21  2  0  0  0
 20 98  1  0  0  0
 21 23  1  0  0  0
 22 28  1  0  0  0
 22 32  2  0  0  0
 26 27  1  0  0  0
 28 99  1  0  0  0
 28100  1  0  0  0
 29101  1  0  0  0
 29102  1  0  0  0
 33 34  1  0  0  0
 33 66  1  0  0  0
 33 70  2  0  0  0
 34 36  1  0  0  0
 34 59  1  0  0  0
 34103  1  0  0  0
 35 44  2  0  0  0
 35 45  1  0  0  0
 35 68  1  0  0  0
 36 56  1  0  0  0
 36104  1  0  0  0
 37 39  1  0  0  0
 37 47  1  0  0  0
 37 66  1  0  0  0
 37105  1  0  0  0
 38 43  2  0  0  0
 38 46  1  0  0  0
 38 47  1  0  0  0
 39 64  1  0  0  0
 39 67  2  0  0  0
 40 52  1  0  0  0
 40 53  2  0  0  0
 40 58  1  0  0  0
 41106  1  0  0  0
 41107  1  0  0  0
 41108  1  0  0  0
 41 48  1  0  0  0
 42 43  1  0  0  0
 42 66  1  0  0  0
 42109  1  0  0  0
 42110  1  0  0  0
 43 44  1  0  0  0
 44111  1  0  0  0
 45 46  2  0  0  0
 45112  1  0  0  0
 46113  1  0  0  0
 47114  1  0  0  0
 47115  1  0  0  0
 48 56  1  0  0  0
 48 65  1  0  0  0
 48116  1  0  0  0
 49 50  1  0  0  0
 49 53  1  0  0  0
 49 64  1  0  0  0
 49117  1  0  0  0
 50 51  1  0  0  0
 50118  1  0  0  0
 50119  1  0  0  0
 51 52  1  0  0  0
 51120  1  0  0  0
 51121  1  0  0  0
 52122  1  0  0  0
 52123  1  0  0  0
 53 54  1  0  0  0
 54 55  2  0  0  0
 54124  1  0  0  0
 55 57  1  0  0  0
 55125  1  0  0  0
 56 69  2  0  0  0
 57 58  2  0  0  0
 57126  1  0  0  0
 58127  1  0  0  0
 59 60  1  0  0  0
 59 61  1  0  0  0
 59 62  1  0  0  0
 60128  1  0  0  0
 60129  1  0  0  0
 60130  1  0  0  0
 61131  1  0  0  0
 61132  1  0  0  0
 61133  1  0  0  0
 62134  1  0  0  0
 62135  1  0  0  0
 62136  1  0  0  0
 63 65  1  0  0  0
 63137  1  0  0  0
 63138  1  0  0  0
 63139  1  0  0  0
 64140  1  0  0  0
 65141  1  0  0  0
 68 79  1  0  0  0
 71 72  2  0  0  0
 71 74  1  0  0  0
 71142  1  0  0  0
 72 75  1  0  0  0
 72143  1  0  0  0
 73 74  2  0  0  0
 73 76  1  0  0  0
 73144  1  0  0  0
 74 81  1  0  0  0
 75 76  2  0  0  0
 75 80  1  0  0  0
 76 82  1  0  0  0
 77 81  1  0  0  0
 77145  1  0  0  0
 77146  1  0  0  0
 77147  1  0  0  0
 78 79  1  0  0  0
 78 81  1  0  0  0
 78148  1  0  0  0
 78149  1  0  0  0
 79150  1  0  0  0
 79151  1  0  0  0
 80152  1  0  0  0
M  ISO  4   1 100  68 101  79 101  80 100
M  END
> <chiral flag>
0

> <version>
0

> <s_m_source_file>
/data/baiqing/PycharmProjects/Reinvent-master-3.2/result/LINK_invent/BTK/process_docking_weight1_custom_sum_contain_oxygen_bond_distance_aromatic_linkinvent_7_9_3/rearranged_h_0010.sdf

> <i_m_source_file_index>
88

> <r_mmod_Potential_Energy-OPLS-2005>
422.703674316406

> <r_mmod_Stretch_Energy-OPLS-2005>
226.532485961914

> <r_mmod_Bend_Energy-OPLS-2005>
287.821533203125

> <r_mmod_Torsional_Energy-OPLS-2005>
202.968505859375

> <r_mmod_Improper_Torsional_Energy-OPLS-2005>
4.99595546722412

> <r_mmod_Van_der_Waal_Energy-OPLS-2005>
146.032180786133

> <r_mmod_Electrostatic_Energy-OPLS-2005>
-393.502685546875

> <r_mmod_Solvation_Energy-OPLS-2005>
-222.135986328125

> <b_mmod_Minimization_Converged-OPLS-2005>
0

> <r_mmod_RMS_Derivative-OPLS-2005>
2.36566257476807

$$$$
88
                    3D
 Structure written by MMmdl.
173181  0  0  1  0            999 V2000
  -30.8359  -14.2612   20.7834 C   0  0  0  0  0  0
  -30.4101  -12.2942   19.3622 C   0  0  0  0  0  0
  -29.4680  -12.5358   18.1732 C   0  0  0  0  0  0
  -28.0002  -12.3719   18.6032 C   0  0  0  0  0  0
  -27.6631  -13.1980   19.8702 C   0  0  2  0  0  0
  -28.6997  -12.9435   20.9852 C   0  0  0  0  0  0
  -25.2601  -13.8147   20.5660 C   0  0  0  0  0  0
  -24.1839  -13.0438   20.9154 C   0  0  0  0  0  0
  -24.6377  -11.6899   20.8713 C   0  0  0  0  0  0
  -23.9036  -10.4289   21.0391 C   0  0  0  0  0  0
  -24.3595   -9.4213   21.9174 C   0  0  0  0  0  0
  -23.6284   -8.2246   22.0750 C   0  0  0  0  0  0
  -22.4264   -8.0272   21.3546 C   0  0  0  0  0  0
  -21.9891   -9.0238   20.4643 C   0  0  0  0  0  0
  -22.7206  -10.2124   20.3048 C   0  0  0  0  0  0
  -21.6850   -6.0727   22.5278 C   0  0  0  0  0  0
  -21.4012   -6.5636   23.8207 C   0  0  0  0  0  0
  -21.3663   -5.6791   24.9174 C   0  0  0  0  0  0
  -21.6043   -4.3053   24.7226 C   0  0  0  0  0  0
  -21.8822   -3.8142   23.4349 C   0  0  0  0  0  0
  -21.9194   -4.6958   22.3401 C   0  0  0  0  0  0
  -22.7867  -13.5247   21.1831 C   0  0  0  0  0  0
  -22.1661   -4.2139   21.0983 F   0  0  0  0  0  0
  -21.5631   -3.4540   25.7742 F   0  0  0  0  0  0
  -30.0490  -13.2108   20.4501 N   0  0  0  0  0  0
  -26.3021  -12.9302   20.3336 N   0  0  0  0  0  0
  -25.9297  -11.6463   20.5728 N   0  0  0  0  0  0
  -22.0507  -12.8245   22.0391 N   0  0  0  0  0  0
  -25.4361  -15.1862   20.4085 N   0  0  0  0  0  0
  -31.7573  -14.6816   20.0747 O   0  0  0  0  0  0
  -21.6642   -6.8868   21.4237 O   0  0  0  0  0  0
  -22.3557  -14.5560   20.6685 O   0  0  0  0  0  0
  -24.6101  -31.8684   23.2120 C   0  0  0  0  0  0
  -25.9003  -32.4817   23.8400 C   0  0  1  0  0  0
  -27.2338  -27.4771   20.0839 C   0  0  0  0  0  0
  -25.5866  -33.8611   24.2324 N   0  0  0  0  0  0
  -23.3967  -30.4921   21.5512 C   0  0  2  0  0  0
  -24.8434  -28.9615   20.1167 C   0  0  0  0  0  0
  -22.7394  -29.4642   22.4994 C   0  0  0  0  0  0
  -18.0263  -28.1361   22.8489 C   0  0  0  0  0  0
  -24.1477  -36.7320   23.2646 C   0  0  0  0  0  0
  -25.9211  -30.8461   21.3590 C   0  0  0  0  0  0
  -26.0008  -29.4824   20.7107 C   0  0  0  0  0  0
  -27.2022  -28.7451   20.6958 C   0  0  0  0  0  0
  -26.0679  -26.9544   19.4907 C   0  0  0  0  0  0
  -24.8693  -27.6936   19.5053 C   0  0  0  0  0  0
  -23.6041  -29.8257   20.1655 C   0  0  0  0  0  0
  -25.4092  -36.3102   24.0353 C   0  0  1  0  0  0
  -20.5857  -28.3631   23.1317 C   0  0  2  0  0  0
  -20.6747  -26.9372   22.5403 C   0  0  0  0  0  0
  -19.5730  -26.6382   21.5187 C   0  0  0  0  0  0
  -18.1911  -26.7909   22.1611 C   0  0  0  0  0  0
  -19.1521  -28.8813   23.2897 C   0  0  0  0  0  0
  -18.9461  -30.1424   23.8905 C   0  0  0  0  0  0
  -17.6474  -30.6576   24.0567 C   0  0  0  0  0  0
  -25.9013  -34.9468   23.5130 C   0  0  0  0  0  0
  -16.5354  -29.9088   23.6330 C   0  0  0  0  0  0
  -16.7259  -28.6503   23.0345 C   0  0  0  0  0  0
  -26.4461  -31.6593   25.0711 C   0  0  0  0  0  0
  -25.3762  -31.3730   26.1500 C   0  0  0  0  0  0
  -27.0289  -30.3045   24.6051 C   0  0  0  0  0  0
  -27.6035  -32.4339   25.7455 C   0  0  0  0  0  0
  -27.5573  -37.1799   24.8469 C   0  0  0  0  0  0
  -21.4123  -29.3006   22.3739 N   0  0  0  0  0  0
  -26.4281  -37.3784   23.9425 N   0  0  0  0  0  0
  -24.6605  -31.0826   22.0998 N   0  0  0  0  0  0
  -23.4192  -28.8170   23.3008 O   0  0  0  0  0  0
  -28.3903  -26.7494   20.0390 O   0  0  0  0  0  0
  -26.5587  -34.8920   22.4699 O   0  0  0  0  0  0
  -23.5301  -32.1414   23.7541 O   0  0  0  0  0  0
  -33.6206  -14.8354   25.0380 C   0  0  0  0  0  0
  -32.4286  -14.1100   25.2270 C   0  0  0  0  0  0
  -32.8438  -15.5310   22.8289 C   0  0  0  0  0  0
  -33.8295  -15.5526   23.8400 C   0  0  0  0  0  0
  -31.6564  -14.7839   23.0102 C   0  0  0  0  0  0
  -31.4483  -14.0910   24.2180 C   0  0  0  0  0  0
  -32.3648  -20.9490   22.6404 C   0  0  0  0  0  0
  -31.1872  -21.9017   22.8840 C   0  0  0  0  0  0
  -32.6742  -20.0986   23.8793 C   0  0  0  0  0  0
  -30.9086  -22.8148   21.6829 C   0  0  0  0  0  0
  -33.8659  -19.1591   23.6603 C   0  0  0  0  0  0
  -29.8384  -23.8699   21.9982 C   0  0  0  0  0  0
  -34.1853  -18.3129   24.9025 C   0  0  0  0  0  0
  -29.5875  -24.8327   20.8293 C   0  0  0  0  0  0
  -35.3126  -17.2888   24.6693 C   0  0  0  0  0  0
  -28.5780  -25.9304   21.1828 C   0  0  0  0  0  0
  -30.6346  -14.6897   22.0345 N   0  0  0  0  0  0
  -34.9961  -16.3007   23.6393 N   0  0  0  0  0  0
  -30.3017  -13.3901   24.3951 F   0  0  0  0  0  0
  -31.4488  -12.4121   19.0480 H   0  0  0  0  0  0
  -30.3227  -11.2655   19.7134 H   0  0  0  0  0  0
  -29.6988  -11.8425   17.3631 H   0  0  0  0  0  0
  -29.6260  -13.5395   17.7750 H   0  0  0  0  0  0
  -27.8227  -11.3121   18.7939 H   0  0  0  0  0  0
  -27.3364  -12.6501   17.7843 H   0  0  0  0  0  0
  -27.7233  -14.2506   19.5924 H   0  0  0  0  0  0
  -28.6544  -11.9062   21.3207 H   0  0  0  0  0  0
  -28.4386  -13.5484   21.8533 H   0  0  0  0  0  0
  -25.2740   -9.5701   22.4740 H   0  0  0  0  0  0
  -23.9992   -7.4647   22.7478 H   0  0  0  0  0  0
  -21.0817   -8.8747   19.8959 H   0  0  0  0  0  0
  -22.3651  -10.9656   19.6154 H   0  0  0  0  0  0
  -21.2004   -7.6139   23.9707 H   0  0  0  0  0  0
  -21.1482   -6.0523   25.9075 H   0  0  0  0  0  0
  -22.0599   -2.7600   23.2853 H   0  0  0  0  0  0
  -22.4120  -11.9902   22.4770 H   0  0  0  0  0  0
  -21.1129  -13.1277   22.2611 H   0  0  0  0  0  0
  -24.6774  -15.8488   20.5262 H   0  0  0  0  0  0
  -26.3005  -15.6215   20.1100 H   0  0  0  0  0  0
  -26.7069  -32.5552   23.1166 H   0  0  0  0  0  0
  -24.9994  -33.9768   25.0457 H   0  0  0  0  0  0
  -22.6825  -31.3064   21.4130 H   0  0  0  0  0  0
  -23.3717  -35.9670   23.3322 H   0  0  0  0  0  0
  -24.3571  -36.8925   22.2057 H   0  0  0  0  0  0
  -23.7248  -37.6541   23.6654 H   0  0  0  0  0  0
  -26.0212  -31.6104   20.5870 H   0  0  0  0  0  0
  -26.8137  -30.9049   21.9696 H   0  0  0  0  0  0
  -28.1027  -29.1442   21.1411 H   0  0  0  0  0  0
  -26.0903  -25.9829   19.0158 H   0  0  0  0  0  0
  -23.9812  -27.2872   19.0411 H   0  0  0  0  0  0
  -23.7090  -30.6010   19.4053 H   0  0  0  0  0  0
  -22.7298  -29.2433   19.8702 H   0  0  0  0  0  0
  -25.1257  -36.1976   25.0847 H   0  0  0  0  0  0
  -20.9943  -28.3179   24.1435 H   0  0  0  0  0  0
  -20.5619  -26.2230   23.3581 H   0  0  0  0  0  0
  -21.6617  -26.7388   22.1200 H   0  0  0  0  0  0
  -19.6884  -25.6300   21.1195 H   0  0  0  0  0  0
  -19.6677  -27.3210   20.6733 H   0  0  0  0  0  0
  -17.4165  -26.6658   21.4026 H   0  0  0  0  0  0
  -18.0319  -26.0033   22.8987 H   0  0  0  0  0  0
  -19.7949  -30.7226   24.2275 H   0  0  0  0  0  0
  -17.5040  -31.6267   24.5160 H   0  0  0  0  0  0
  -15.5355  -30.3008   23.7654 H   0  0  0  0  0  0
  -15.8646  -28.0851   22.7041 H   0  0  0  0  0  0
  -24.5920  -30.7056   25.7905 H   0  0  0  0  0  0
  -24.8956  -32.2903   26.4921 H   0  0  0  0  0  0
  -25.8147  -30.8957   27.0267 H   0  0  0  0  0  0
  -26.2803  -29.6792   24.1162 H   0  0  0  0  0  0
  -27.4166  -29.7295   25.4465 H   0  0  0  0  0  0
  -27.8585  -30.4393   23.9100 H   0  0  0  0  0  0
  -27.2630  -33.3619   26.2063 H   0  0  0  0  0  0
  -28.3805  -32.6955   25.0256 H   0  0  0  0  0  0
  -28.0747  -31.8461   26.5342 H   0  0  0  0  0  0
  -28.2591  -38.0092   24.7485 H   0  0  0  0  0  0
  -28.1062  -36.2620   24.6308 H   0  0  0  0  0  0
  -27.2297  -37.1477   25.8874 H   0  0  0  0  0  0
  -20.9253  -29.8764   21.7015 H   0  0  0  0  0  0
  -26.0170  -38.2856   24.1441 H   0  0  0  0  0  0
  -34.3618  -14.8379   25.8255 H   0  0  0  0  0  0
  -32.2677  -13.5640   26.1440 H   0  0  0  0  0  0
  -32.9970  -16.0866   21.9158 H   0  0  0  0  0  0
  -33.2505  -21.5270   22.3745 H   0  0  0  0  0  0
  -32.1498  -20.3054   21.7849 H   0  0  0  0  0  0
  -31.4028  -22.5123   23.7623 H   0  0  0  0  0  0
  -30.2903  -21.3294   23.1269 H   0  0  0  0  0  0
  -31.7918  -19.5166   24.1523 H   0  0  0  0  0  0
  -32.8817  -20.7554   24.7265 H   0  0  0  0  0  0
  -30.5986  -22.2119   20.8273 H   0  0  0  0  0  0
  -31.8316  -23.3172   21.3899 H   0  0  0  0  0  0
  -34.7488  -19.7362   23.3830 H   0  0  0  0  0  0
  -33.6505  -18.5056   22.8144 H   0  0  0  0  0  0
  -30.1473  -24.4430   22.8734 H   0  0  0  0  0  0
  -28.9039  -23.3759   22.2702 H   0  0  0  0  0  0
  -33.2847  -17.8092   25.2562 H   0  0  0  0  0  0
  -34.4861  -18.9804   25.7121 H   0  0  0  0  0  0
  -29.2227  -24.2721   19.9677 H   0  0  0  0  0  0
  -30.5265  -25.2944   20.5197 H   0  0  0  0  0  0
  -35.5633  -16.7842   25.6035 H   0  0  0  0  0  0
  -36.2187  -17.8182   24.3694 H   0  0  0  0  0  0
  -28.9423  -26.5397   22.0117 H   0  0  0  0  0  0
  -27.6366  -25.4789   21.5035 H   0  0  0  0  0  0
  -29.7817  -14.3090   22.4165 H   0  0  0  0  0  0
  -35.8019  -15.7237   23.4062 H   0  0  0  0  0  0
  1 25  1  0  0  0
  1 30  2  0  0  0
  1 87  1  0  0  0
  2  3  1  0  0  0
  2 25  1  0  0  0
  2 90  1  0  0  0
  2 91  1  0  0  0
  3  4  1  0  0  0
  3 92  1  0  0  0
  3 93  1  0  0  0
  4  5  1  0  0  0
  4 94  1  0  0  0
  4 95  1  0  0  0
  5  6  1  0  0  0
  5 26  1  0  0  0
  5 96  1  0  0  0
  6 25  1  0  0  0
  6 97  1  0  0  0
  6 98  1  0  0  0
  7  8  2  0  0  0
  7 26  1  0  0  0
  7 29  1  0  0  0
  8  9  1  0  0  0
  8 22  1  0  0  0
  9 10  1  0  0  0
  9 27  2  0  0  0
 10 11  2  0  0  0
 10 15  1  0  0  0
 11 12  1  0  0  0
 11 99  1  0  0  0
 12 13  2  0  0  0
 12100  1  0  0  0
 13 14  1  0  0  0
 13 31  1  0  0  0
 14 15  2  0  0  0
 14101  1  0  0  0
 15102  1  0  0  0
 16 17  2  0  0  0
 16 21  1  0  0  0
 16 31  1  0  0  0
 17 18  1  0  0  0
 17103  1  0  0  0
 18 19  2  0  0  0
 18104  1  0  0  0
 19 20  1  0  0  0
 19 24  1  0  0  0
 20 21  2  0  0  0
 20105  1  0  0  0
 21 23  1  0  0  0
 22 28  1  0  0  0
 22 32  2  0  0  0
 26 27  1  0  0  0
 28106  1  0  0  0
 28107  1  0  0  0
 29108  1  0  0  0
 29109  1  0  0  0
 33 34  1  0  0  0
 33 66  1  0  0  0
 33 70  2  0  0  0
 34 36  1  0  0  0
 34 59  1  0  0  0
 34110  1  0  0  0
 35 44  2  0  0  0
 35 45  1  0  0  0
 35 68  1  0  0  0
 36 56  1  0  0  0
 36111  1  0  0  0
 37 39  1  0  0  0
 37 47  1  0  0  0
 37 66  1  0  0  0
 37112  1  0  0  0
 38 43  2  0  0  0
 38 46  1  0  0  0
 38 47  1  0  0  0
 39 64  1  0  0  0
 39 67  2  0  0  0
 40 52  1  0  0  0
 40 53  2  0  0  0
 40 58  1  0  0  0
 41113  1  0  0  0
 41114  1  0  0  0
 41115  1  0  0  0
 41 48  1  0  0  0
 42 43  1  0  0  0
 42 66  1  0  0  0
 42116  1  0  0  0
 42117  1  0  0  0
 43 44  1  0  0  0
 44118  1  0  0  0
 45 46  2  0  0  0
 45119  1  0  0  0
 46120  1  0  0  0
 47121  1  0  0  0
 47122  1  0  0  0
 48 56  1  0  0  0
 48 65  1  0  0  0
 48123  1  0  0  0
 49 50  1  0  0  0
 49 53  1  0  0  0
 49 64  1  0  0  0
 49124  1  0  0  0
 50 51  1  0  0  0
 50125  1  0  0  0
 50126  1  0  0  0
 51 52  1  0  0  0
 51127  1  0  0  0
 51128  1  0  0  0
 52129  1  0  0  0
 52130  1  0  0  0
 53 54  1  0  0  0
 54 55  2  0  0  0
 54131  1  0  0  0
 55 57  1  0  0  0
 55132  1  0  0  0
 56 69  2  0  0  0
 57 58  2  0  0  0
 57133  1  0  0  0
 58134  1  0  0  0
 59 60  1  0  0  0
 59 61  1  0  0  0
 59 62  1  0  0  0
 60135  1  0  0  0
 60136  1  0  0  0
 60137  1  0  0  0
 61138  1  0  0  0
 61139  1  0  0  0
 61140  1  0  0  0
 62141  1  0  0  0
 62142  1  0  0  0
 62143  1  0  0  0
 63 65  1  0  0  0
 63144  1  0  0  0
 63145  1  0  0  0
 63146  1  0  0  0
 64147  1  0  0  0
 65148  1  0  0  0
 68 86  1  0  0  0
 71 72  2  0  0  0
 71 74  1  0  0  0
 71149  1  0  0  0
 72 76  1  0  0  0
 72150  1  0  0  0
 73 74  2  0  0  0
 73 75  1  0  0  0
 73151  1  0  0  0
 74 88  1  0  0  0
 75 76  2  0  0  0
 75 87  1  0  0  0
 76 89  1  0  0  0
 77 78  1  0  0  0
 77 79  1  0  0  0
 77152  1  0  0  0
 77153  1  0  0  0
 78 80  1  0  0  0
 78154  1  0  0  0
 78155  1  0  0  0
 79 81  1  0  0  0
 79156  1  0  0  0
 79157  1  0  0  0
 80 82  1  0  0  0
 80158  1  0  0  0
 80159  1  0  0  0
 81 83  1  0  0  0
 81160  1  0  0  0
 81161  1  0  0  0
 82 84  1  0  0  0
 82162  1  0  0  0
 82163  1  0  0  0
 83 85  1  0  0  0
 83164  1  0  0  0
 83165  1  0  0  0
 84 86  1  0  0  0
 84166  1  0  0  0
 84167  1  0  0  0
 85 88  1  0  0  0
 85168  1  0  0  0
 85169  1  0  0  0
 86170  1  0  0  0
 86171  1  0  0  0
 87172  1  0  0  0
 88173  1  0  0  0
M  ISO  4   1 100  68 101  86 101  87 100
M  END
> <chiral flag>
0

> <version>
0

> <s_m_source_file>
/data/baiqing/PycharmProjects/Reinvent-master-3.2/result/LINK_invent/BTK/process_docking_weight1_custom_sum_contain_oxygen_bond_distance_aromatic_linkinvent_7_9_3/rearranged_h_0010.sdf

> <i_m_source_file_index>
89

> <r_mmod_Potential_Energy-OPLS-2005>
-43.532657623291

> <r_mmod_Stretch_Energy-OPLS-2005>
29.9922943115234

> <r_mmod_Bend_Energy-OPLS-2005>
88.9253158569336

> <r_mmod_Torsional_Energy-OPLS-2005>
281.1416015625

> <r_mmod_Improper_Torsional_Energy-OPLS-2005>
11.6019268035889

> <r_mmod_Van_der_Waal_Energy-OPLS-2005>
148.136856079102

> <r_mmod_Electrostatic_Energy-OPLS-2005>
-413.382568359375

> <r_mmod_Solvation_Energy-OPLS-2005>
-199.358734130859

> <b_mmod_Minimization_Converged-OPLS-2005>
0

> <r_mmod_RMS_Derivative-OPLS-2005>
1.91561198234558

$$$$
89
                    3D
 Structure written by MMmdl.
159167  0  0  1  0            999 V2000
  -30.7271  -14.4042   20.6458 C   0  0  0  0  0  0
  -30.4111  -12.2968   19.3899 C   0  0  0  0  0  0
  -29.4780  -12.5173   18.1841 C   0  0  0  0  0  0
  -28.0008  -12.3807   18.6013 C   0  0  0  0  0  0
  -27.6589  -13.2024   19.8721 C   0  0  2  0  0  0
  -28.6965  -12.9437   20.9838 C   0  0  0  0  0  0
  -25.2578  -13.8152   20.5667 C   0  0  0  0  0  0
  -24.1823  -13.0439   20.9148 C   0  0  0  0  0  0
  -24.6364  -11.6896   20.8714 C   0  0  0  0  0  0
  -23.9037  -10.4286   21.0393 C   0  0  0  0  0  0
  -24.3598   -9.4205   21.9181 C   0  0  0  0  0  0
  -23.6277   -8.2240   22.0758 C   0  0  0  0  0  0
  -22.4262   -8.0270   21.3538 C   0  0  0  0  0  0
  -21.9887   -9.0247   20.4649 C   0  0  0  0  0  0
  -22.7207  -10.2124   20.3051 C   0  0  0  0  0  0
  -21.6851   -6.0722   22.5275 C   0  0  0  0  0  0
  -21.4012   -6.5635   23.8207 C   0  0  0  0  0  0
  -21.3662   -5.6791   24.9181 C   0  0  0  0  0  0
  -21.6042   -4.3053   24.7235 C   0  0  0  0  0  0
  -21.8820   -3.8138   23.4356 C   0  0  0  0  0  0
  -21.9194   -4.6945   22.3408 C   0  0  0  0  0  0
  -22.7851  -13.5239   21.1834 C   0  0  0  0  0  0
  -22.1660   -4.2130   21.0981 F   0  0  0  0  0  0
  -21.5637   -3.4538   25.7751 F   0  0  0  0  0  0
  -30.0312  -13.2541   20.4400 N   0  0  0  0  0  0
  -26.2997  -12.9314   20.3334 N   0  0  0  0  0  0
  -25.9282  -11.6474   20.5719 N   0  0  0  0  0  0
  -22.0505  -12.8233   22.0393 N   0  0  0  0  0  0
  -25.4362  -15.1871   20.4109 N   0  0  0  0  0  0
  -31.7989  -14.6568   20.0872 O   0  0  0  0  0  0
  -21.6635   -6.8862   21.4229 O   0  0  0  0  0  0
  -22.3539  -14.5556   20.6695 O   0  0  0  0  0  0
  -24.6140  -31.8661   23.2157 C   0  0  0  0  0  0
  -25.9026  -32.4805   23.8459 C   0  0  1  0  0  0
  -27.2238  -27.4092   20.0966 C   0  0  0  0  0  0
  -25.5884  -33.8613   24.2367 N   0  0  0  0  0  0
  -23.4027  -30.4956   21.5550 C   0  0  2  0  0  0
  -24.8449  -28.9645   20.1155 C   0  0  0  0  0  0
  -22.7406  -29.4651   22.4997 C   0  0  0  0  0  0
  -18.0283  -28.1341   22.8473 C   0  0  0  0  0  0
  -24.1481  -36.7343   23.2627 C   0  0  0  0  0  0
  -25.9357  -30.8241   21.3740 C   0  0  0  0  0  0
  -26.0071  -29.4592   20.7171 C   0  0  0  0  0  0
  -27.1947  -28.6889   20.7048 C   0  0  0  0  0  0
  -26.0290  -26.9306   19.5022 C   0  0  0  0  0  0
  -24.8522  -27.7000   19.5083 C   0  0  0  0  0  0
  -23.6102  -29.8365   20.1664 C   0  0  0  0  0  0
  -25.4087  -36.3110   24.0328 C   0  0  1  0  0  0
  -20.5873  -28.3619   23.1321 C   0  0  2  0  0  0
  -20.6767  -26.9352   22.5424 C   0  0  0  0  0  0
  -19.5764  -26.6353   21.5193 C   0  0  0  0  0  0
  -18.1937  -26.7899   22.1587 C   0  0  0  0  0  0
  -19.1527  -28.8791   23.2902 C   0  0  0  0  0  0
  -18.9440  -30.1403   23.8906 C   0  0  0  0  0  0
  -17.6442  -30.6549   24.0535 C   0  0  0  0  0  0
  -25.9010  -34.9461   23.5146 C   0  0  0  0  0  0
  -16.5337  -29.9039   23.6320 C   0  0  0  0  0  0
  -16.7274  -28.6461   23.0340 C   0  0  0  0  0  0
  -26.4449  -31.6587   25.0798 C   0  0  0  0  0  0
  -25.3727  -31.3647   26.1560 C   0  0  0  0  0  0
  -27.0245  -30.3015   24.6188 C   0  0  0  0  0  0
  -27.6082  -32.4255   25.7536 C   0  0  0  0  0  0
  -27.5574  -37.1824   24.8447 C   0  0  0  0  0  0
  -21.4137  -29.2994   22.3725 N   0  0  0  0  0  0
  -26.4281  -37.3790   23.9390 N   0  0  0  0  0  0
  -24.6692  -31.0759   22.1059 N   0  0  0  0  0  0
  -23.4188  -28.8178   23.3024 O   0  0  0  0  0  0
  -28.4175  -26.7047   20.1072 O   0  0  0  0  0  0
  -26.5571  -34.8894   22.4717 O   0  0  0  0  0  0
  -23.5324  -32.1440   23.7520 O   0  0  0  0  0  0
  -32.3528  -20.8399   21.1578 C   0  0  0  0  0  0
  -32.4513  -22.1736   20.7342 C   0  0  0  0  0  0
  -29.9393  -20.9236   20.8725 C   0  0  0  0  0  0
  -31.1079  -20.1896   21.2004 C   0  0  0  0  0  0
  -31.2962  -22.9119   20.3831 C   0  0  0  0  0  0
  -30.0192  -22.2955   20.5103 C   0  0  0  0  0  0
  -30.4044  -17.7762   21.3039 C   0  0  0  0  0  0
  -32.6381  -24.8058   19.7246 C   0  0  0  0  0  0
  -30.7886  -16.4793   22.0348 C   0  0  0  0  0  0
  -28.5097  -25.3432   19.6330 C   0  0  0  0  0  0
  -28.6716  -24.3088   20.7737 C   0  0  0  0  0  0
  -31.1220  -18.8478   21.6752 N   0  0  0  0  0  0
  -30.1707  -15.2586   21.5127 N   0  0  0  0  0  0
  -29.5012  -17.7943   20.4639 O   0  0  0  0  0  0
  -31.3634  -24.2016   19.9007 O   0  0  0  0  0  0
  -28.8329  -22.9685   20.2687 O   0  0  0  0  0  0
  -31.4534  -12.4003   19.0841 H   0  0  0  0  0  0
  -30.3120  -11.2760   19.7618 H   0  0  0  0  0  0
  -29.7066  -11.8021   17.3926 H   0  0  0  0  0  0
  -29.6505  -13.5071   17.7591 H   0  0  0  0  0  0
  -27.8009  -11.3232   18.7785 H   0  0  0  0  0  0
  -27.3496  -12.6769   17.7779 H   0  0  0  0  0  0
  -27.7164  -14.2564   19.5985 H   0  0  0  0  0  0
  -28.6641  -11.8957   21.2883 H   0  0  0  0  0  0
  -28.4445  -13.5089   21.8809 H   0  0  0  0  0  0
  -25.2748   -9.5691   22.4746 H   0  0  0  0  0  0
  -23.9995   -7.4635   22.7486 H   0  0  0  0  0  0
  -21.0815   -8.8748   19.8963 H   0  0  0  0  0  0
  -22.3658  -10.9655   19.6156 H   0  0  0  0  0  0
  -21.1993   -7.6146   23.9700 H   0  0  0  0  0  0
  -21.1491   -6.0532   25.9081 H   0  0  0  0  0  0
  -22.0598   -2.7592   23.2868 H   0  0  0  0  0  0
  -22.4123  -11.9879   22.4749 H   0  0  0  0  0  0
  -21.1128  -13.1257   22.2619 H   0  0  0  0  0  0
  -24.6811  -15.8548   20.5269 H   0  0  0  0  0  0
  -26.3058  -15.6207   20.1237 H   0  0  0  0  0  0
  -26.7105  -32.5496   23.1233 H   0  0  0  0  0  0
  -25.0010  -33.9759   25.0503 H   0  0  0  0  0  0
  -22.6930  -31.3148   21.4206 H   0  0  0  0  0  0
  -23.3719  -35.9703   23.3286 H   0  0  0  0  0  0
  -24.3590  -36.8980   22.2049 H   0  0  0  0  0  0
  -23.7262  -37.6551   23.6665 H   0  0  0  0  0  0
  -26.0555  -31.5922   20.6092 H   0  0  0  0  0  0
  -26.8184  -30.8683   21.9998 H   0  0  0  0  0  0
  -28.0917  -29.0694   21.1734 H   0  0  0  0  0  0
  -25.9513  -25.9692   19.0246 H   0  0  0  0  0  0
  -23.9559  -27.3121   19.0444 H   0  0  0  0  0  0
  -23.7187  -30.6138   19.4090 H   0  0  0  0  0  0
  -22.7323  -29.2609   19.8703 H   0  0  0  0  0  0
  -25.1274  -36.1990   25.0830 H   0  0  0  0  0  0
  -20.9959  -28.3167   24.1445 H   0  0  0  0  0  0
  -20.5635  -26.2206   23.3597 H   0  0  0  0  0  0
  -21.6647  -26.7390   22.1245 H   0  0  0  0  0  0
  -19.6915  -25.6270   21.1209 H   0  0  0  0  0  0
  -19.6729  -27.3162   20.6726 H   0  0  0  0  0  0
  -17.4229  -26.6661   21.3973 H   0  0  0  0  0  0
  -18.0323  -26.0030   22.8967 H   0  0  0  0  0  0
  -19.7916  -30.7201   24.2310 H   0  0  0  0  0  0
  -17.4996  -31.6248   24.5095 H   0  0  0  0  0  0
  -15.5327  -30.2916   23.7646 H   0  0  0  0  0  0
  -15.8693  -28.0764   22.7051 H   0  0  0  0  0  0
  -24.6104  -30.6709   25.7992 H   0  0  0  0  0  0
  -24.8625  -32.2700   26.4852 H   0  0  0  0  0  0
  -25.8153  -30.9079   27.0423 H   0  0  0  0  0  0
  -26.2787  -29.6823   24.1176 H   0  0  0  0  0  0
  -27.3906  -29.7220   25.4674 H   0  0  0  0  0  0
  -27.8701  -30.4327   23.9429 H   0  0  0  0  0  0
  -27.2830  -33.3608   26.2110 H   0  0  0  0  0  0
  -28.3910  -32.6685   25.0337 H   0  0  0  0  0  0
  -28.0732  -31.8340   26.5440 H   0  0  0  0  0  0
  -28.2604  -38.0107   24.7460 H   0  0  0  0  0  0
  -28.1057  -36.2636   24.6318 H   0  0  0  0  0  0
  -27.2289  -37.1549   25.8848 H   0  0  0  0  0  0
  -20.9271  -29.8739   21.6982 H   0  0  0  0  0  0
  -26.0174  -38.2871   24.1392 H   0  0  0  0  0  0
  -33.2565  -20.3140   21.4338 H   0  0  0  0  0  0
  -33.4385  -22.6059   20.6914 H   0  0  0  0  0  0
  -28.9688  -20.4523   20.9371 H   0  0  0  0  0  0
  -32.5107  -25.7868   19.2669 H   0  0  0  0  0  0
  -33.2736  -24.2175   19.0609 H   0  0  0  0  0  0
  -33.1449  -24.9480   20.6808 H   0  0  0  0  0  0
  -30.4950  -16.5802   23.0798 H   0  0  0  0  0  0
  -31.8755  -16.3742   22.0330 H   0  0  0  0  0  0
  -27.7060  -25.0238   18.9785 H   0  0  0  0  0  0
  -29.3883  -25.3015   18.9931 H   0  0  0  0  0  0
  -27.7739  -24.3152   21.3920 H   0  0  0  0  0  0
  -29.4784  -24.6011   21.4460 H   0  0  0  0  0  0
  -31.8735  -18.6283   22.3149 H   0  0  0  0  0  0
  -29.2615  -15.0151   21.8738 H   0  0  0  0  0  0
  1 25  1  0  0  0
  1 30  2  0  0  0
  1 83  1  0  0  0
  2  3  1  0  0  0
  2 25  1  0  0  0
  2 87  1  0  0  0
  2 88  1  0  0  0
  3  4  1  0  0  0
  3 89  1  0  0  0
  3 90  1  0  0  0
  4  5  1  0  0  0
  4 91  1  0  0  0
  4 92  1  0  0  0
  5  6  1  0  0  0
  5 26  1  0  0  0
  5 93  1  0  0  0
  6 25  1  0  0  0
  6 94  1  0  0  0
  6 95  1  0  0  0
  7  8  2  0  0  0
  7 26  1  0  0  0
  7 29  1  0  0  0
  8  9  1  0  0  0
  8 22  1  0  0  0
  9 10  1  0  0  0
  9 27  2  0  0  0
 10 11  2  0  0  0
 10 15  1  0  0  0
 11 12  1  0  0  0
 11 96  1  0  0  0
 12 13  2  0  0  0
 12 97  1  0  0  0
 13 14  1  0  0  0
 13 31  1  0  0  0
 14 15  2  0  0  0
 14 98  1  0  0  0
 15 99  1  0  0  0
 16 17  2  0  0  0
 16 21  1  0  0  0
 16 31  1  0  0  0
 17 18  1  0  0  0
 17100  1  0  0  0
 18 19  2  0  0  0
 18101  1  0  0  0
 19 20  1  0  0  0
 19 24  1  0  0  0
 20 21  2  0  0  0
 20102  1  0  0  0
 21 23  1  0  0  0
 22 28  1  0  0  0
 22 32  2  0  0  0
 26 27  1  0  0  0
 28103  1  0  0  0
 28104  1  0  0  0
 29105  1  0  0  0
 29106  1  0  0  0
 33 34  1  0  0  0
 33 66  1  0  0  0
 33 70  2  0  0  0
 34 36  1  0  0  0
 34 59  1  0  0  0
 34107  1  0  0  0
 35 44  2  0  0  0
 35 45  1  0  0  0
 35 68  1  0  0  0
 36 56  1  0  0  0
 36108  1  0  0  0
 37 39  1  0  0  0
 37 47  1  0  0  0
 37 66  1  0  0  0
 37109  1  0  0  0
 38 43  2  0  0  0
 38 46  1  0  0  0
 38 47  1  0  0  0
 39 64  1  0  0  0
 39 67  2  0  0  0
 40 52  1  0  0  0
 40 53  2  0  0  0
 40 58  1  0  0  0
 41110  1  0  0  0
 41111  1  0  0  0
 41112  1  0  0  0
 41 48  1  0  0  0
 42 43  1  0  0  0
 42 66  1  0  0  0
 42113  1  0  0  0
 42114  1  0  0  0
 43 44  1  0  0  0
 44115  1  0  0  0
 45 46  2  0  0  0
 45116  1  0  0  0
 46117  1  0  0  0
 47118  1  0  0  0
 47119  1  0  0  0
 48 56  1  0  0  0
 48 65  1  0  0  0
 48120  1  0  0  0
 49 50  1  0  0  0
 49 53  1  0  0  0
 49 64  1  0  0  0
 49121  1  0  0  0
 50 51  1  0  0  0
 50122  1  0  0  0
 50123  1  0  0  0
 51 52  1  0  0  0
 51124  1  0  0  0
 51125  1  0  0  0
 52126  1  0  0  0
 52127  1  0  0  0
 53 54  1  0  0  0
 54 55  2  0  0  0
 54128  1  0  0  0
 55 57  1  0  0  0
 55129  1  0  0  0
 56 69  2  0  0  0
 57 58  2  0  0  0
 57130  1  0  0  0
 58131  1  0  0  0
 59 60  1  0  0  0
 59 61  1  0  0  0
 59 62  1  0  0  0
 60132  1  0  0  0
 60133  1  0  0  0
 60134  1  0  0  0
 61135  1  0  0  0
 61136  1  0  0  0
 61137  1  0  0  0
 62138  1  0  0  0
 62139  1  0  0  0
 62140  1  0  0  0
 63 65  1  0  0  0
 63141  1  0  0  0
 63142  1  0  0  0
 63143  1  0  0  0
 64144  1  0  0  0
 65145  1  0  0  0
 68 80  1  0  0  0
 71 72  2  0  0  0
 71 74  1  0  0  0
 71146  1  0  0  0
 72 75  1  0  0  0
 72147  1  0  0  0
 73 74  2  0  0  0
 73 76  1  0  0  0
 73148  1  0  0  0
 74 82  1  0  0  0
 75 76  2  0  0  0
 75 85  1  0  0  0
 76 86  1  0  0  0
 77 79  1  0  0  0
 77 82  1  0  0  0
 77 84  2  0  0  0
 78 85  1  0  0  0
 78149  1  0  0  0
 78150  1  0  0  0
 78151  1  0  0  0
 79 83  1  0  0  0
 79152  1  0  0  0
 79153  1  0  0  0
 80 81  1  0  0  0
 80154  1  0  0  0
 80155  1  0  0  0
 81 86  1  0  0  0
 81156  1  0  0  0
 81157  1  0  0  0
 82158  1  0  0  0
 83159  1  0  0  0
M  ISO  4   1 100  68 101  80 101  83 100
M  END
> <chiral flag>
0

> <version>
0

> <s_m_source_file>
/data/baiqing/PycharmProjects/Reinvent-master-3.2/result/LINK_invent/BTK/process_docking_weight1_custom_sum_contain_oxygen_bond_distance_aromatic_linkinvent_7_9_3/rearranged_h_0010.sdf

> <i_m_source_file_index>
90

> <r_mmod_Potential_Energy-OPLS-2005>
-180.774536132812

> <r_mmod_Stretch_Energy-OPLS-2005>
40.0530433654785

> <r_mmod_Bend_Energy-OPLS-2005>
130.184906005859

> <r_mmod_Torsional_Energy-OPLS-2005>
211.585647583008

> <r_mmod_Improper_Torsional_Energy-OPLS-2005>
2.13903093338013

> <r_mmod_Van_der_Waal_Energy-OPLS-2005>
168.271102905273

> <r_mmod_Electrostatic_Energy-OPLS-2005>
-498.536346435547

> <r_mmod_Solvation_Energy-OPLS-2005>
-245.241317749023

> <b_mmod_Minimization_Converged-OPLS-2005>
0

> <r_mmod_RMS_Derivative-OPLS-2005>
2.56178593635559

$$$$
90
                    3D
 Structure written by MMmdl.
154162  0  0  1  0            999 V2000
  -29.8101  -16.9146   20.2523 C   0  0  0  0  0  0
  -30.2669  -14.0543   19.5317 C   0  0  0  0  0  0
  -29.5797  -13.0888   18.4549 C   0  0  0  0  0  0
  -28.2872  -12.4473   18.9590 C   0  0  0  0  0  0
  -27.5763  -13.4875   19.8309 C   0  0  2  0  0  0
  -28.4784  -14.3124   20.8504 C   0  0  0  0  0  0
  -25.2123  -13.8594   20.5990 C   0  0  0  0  0  0
  -24.1686  -13.0500   20.9351 C   0  0  0  0  0  0
  -24.6634  -11.7096   20.8724 C   0  0  0  0  0  0
  -23.9351  -10.4351   21.0309 C   0  0  0  0  0  0
  -24.3803   -9.4247   21.9128 C   0  0  0  0  0  0
  -23.6401   -8.2315   22.0742 C   0  0  0  0  0  0
  -22.4372   -8.0356   21.3547 C   0  0  0  0  0  0
  -22.0069   -9.0341   20.4631 C   0  0  0  0  0  0
  -22.7477  -10.2181   20.2997 C   0  0  0  0  0  0
  -21.6892   -6.0785   22.5277 C   0  0  0  0  0  0
  -21.4043   -6.5669   23.8215 C   0  0  0  0  0  0
  -21.3667   -5.6809   24.9169 C   0  0  0  0  0  0
  -21.6043   -4.3071   24.7212 C   0  0  0  0  0  0
  -21.8814   -3.8175   23.4327 C   0  0  0  0  0  0
  -21.9204   -4.7005   22.3390 C   0  0  0  0  0  0
  -22.7640  -13.5068   21.1930 C   0  0  0  0  0  0
  -22.1666   -4.2188   21.0967 F   0  0  0  0  0  0
  -21.5622   -3.4543   25.7717 F   0  0  0  0  0  0
  -29.4331  -15.3193   20.1451 N   0  0  0  0  0  0
  -26.2875  -13.0326   20.3587 N   0  0  0  0  0  0
  -25.9680  -11.7181   20.5672 N   0  0  0  0  0  0
  -22.0362  -12.7995   22.0483 N   0  0  0  0  0  0
  -25.3361  -15.2362   20.4379 N   0  0  0  0  0  0
  -31.0615  -16.6451   20.1855 O   0  0  0  0  0  0
  -21.6696   -6.8962   21.4255 O   0  0  0  0  0  0
  -22.3241  -14.5340   20.6763 O   0  0  0  0  0  0
  -24.7683  -31.6915   23.0823 C   0  0  0  0  0  0
  -25.9809  -32.3969   23.7710 C   0  0  1  0  0  0
  -27.2996  -25.8250   20.2826 C   0  0  0  0  0  0
  -25.6011  -33.7848   24.1483 N   0  0  0  0  0  0
  -23.6361  -30.2477   21.4592 C   0  0  2  0  0  0
  -25.1128  -28.4057   20.1512 C   0  0  0  0  0  0
  -22.8150  -29.3713   22.4514 C   0  0  0  0  0  0
  -18.0392  -28.1464   22.8415 C   0  0  0  0  0  0
  -24.1499  -36.6933   23.2676 C   0  0  0  0  0  0
  -26.2404  -30.1275   21.4909 C   0  0  0  0  0  0
  -26.3048  -28.5913   20.8604 C   0  0  0  0  0  0
  -27.3309  -27.3625   20.8856 C   0  0  0  0  0  0
  -26.0894  -26.0981   19.4944 C   0  0  0  0  0  0
  -25.0966  -27.1839   19.4415 C   0  0  0  0  0  0
  -23.9413  -29.4590   20.1364 C   0  0  0  0  0  0
  -25.4180  -36.2617   24.0230 C   0  0  1  0  0  0
  -20.6067  -28.3846   23.0994 C   0  0  2  0  0  0
  -20.6812  -26.9426   22.5430 C   0  0  0  0  0  0
  -19.5807  -26.6335   21.5234 C   0  0  0  0  0  0
  -18.1986  -26.7975   22.1606 C   0  0  0  0  0  0
  -19.1679  -28.9002   23.2656 C   0  0  0  0  0  0
  -18.9568  -30.1565   23.8737 C   0  0  0  0  0  0
  -17.6547  -30.6623   24.0529 C   0  0  0  0  0  0
  -25.9206  -34.9021   23.4770 C   0  0  0  0  0  0
  -16.5432  -29.9086   23.6374 C   0  0  0  0  0  0
  -16.7365  -28.6514   23.0389 C   0  0  0  0  0  0
  -26.4725  -31.6381   25.0675 C   0  0  0  0  0  0
  -25.3562  -31.3907   26.1114 C   0  0  0  0  0  0
  -27.0799  -30.2645   24.7196 C   0  0  0  0  0  0
  -27.6022  -32.4455   25.7505 C   0  0  0  0  0  0
  -27.5546  -37.1615   24.8469 C   0  0  0  0  0  0
  -21.4724  -29.2902   22.3217 N   0  0  0  0  0  0
  -26.4243  -37.3467   23.9412 N   0  0  0  0  0  0
  -24.9168  -30.7436   22.0625 N   0  0  0  0  0  0
  -23.4163  -28.7483   23.3281 O   0  0  0  0  0  0
  -28.0022  -24.1178   20.2283 O   0  0  0  0  0  0
  -26.5985  -34.8764   22.4484 O   0  0  0  0  0  0
  -23.6517  -32.0412   23.5178 O   0  0  0  0  0  0
  -30.1025  -23.7674   20.4276 C   0  0  0  0  0  0
  -29.6686  -22.1598   19.7318 C   0  0  0  0  0  0
  -27.7367  -23.2594   22.1695 C   0  0  0  0  0  0
  -29.1732  -24.4042   21.9118 C   0  0  0  0  0  0
  -28.8049  -20.7512   20.3442 C   0  0  0  0  0  0
  -27.6380  -21.7205   21.2336 C   0  0  0  0  0  0
  -30.4759  -23.5830   24.3037 C   0  0  0  0  0  0
  -29.6296  -25.4613   22.8858 C   0  0  0  0  0  0
  -30.9273  -22.7966   23.0561 C   0  0  0  0  0  0
  -29.7556  -22.2804   22.0731 C   0  0  0  0  0  0
  -29.0483  -18.6198   20.2918 N   0  0  0  0  0  0
  -29.9808  -24.8226   24.1526 N   0  0  0  0  0  0
  -30.6140  -23.0919   25.4239 O   0  0  0  0  0  0
  -26.2640  -20.7876   21.6992 Cl  0  0  0  0  0  0
  -31.1357  -14.4735   19.0237 H   0  0  0  0  0  0
  -30.7176  -13.4596   20.3293 H   0  0  0  0  0  0
  -30.2795  -12.3163   18.1324 H   0  0  0  0  0  0
  -29.3538  -13.6782   17.5650 H   0  0  0  0  0  0
  -28.5324  -11.5742   19.5648 H   0  0  0  0  0  0
  -27.6607  -12.1021   18.1350 H   0  0  0  0  0  0
  -27.2923  -14.2347   19.0880 H   0  0  0  0  0  0
  -28.9778  -13.6571   21.5667 H   0  0  0  0  0  0
  -27.8299  -14.9244   21.4766 H   0  0  0  0  0  0
  -25.2934   -9.5696   22.4728 H   0  0  0  0  0  0
  -24.0075   -7.4719   22.7495 H   0  0  0  0  0  0
  -21.0988   -8.8902   19.8939 H   0  0  0  0  0  0
  -22.3945  -10.9718   19.6097 H   0  0  0  0  0  0
  -21.2048   -7.6175   23.9733 H   0  0  0  0  0  0
  -21.1487   -6.0530   25.9075 H   0  0  0  0  0  0
  -22.0580   -2.7635   23.2812 H   0  0  0  0  0  0
  -22.4084  -11.9722   22.4895 H   0  0  0  0  0  0
  -21.0935  -13.0898   22.2660 H   0  0  0  0  0  0
  -24.5477  -15.8658   20.5397 H   0  0  0  0  0  0
  -26.1774  -15.6972   20.1174 H   0  0  0  0  0  0
  -26.8030  -32.4325   23.0544 H   0  0  0  0  0  0
  -24.9903  -33.8757   24.9471 H   0  0  0  0  0  0
  -23.0139  -31.1043   21.1920 H   0  0  0  0  0  0
  -23.3818  -35.9199   23.3209 H   0  0  0  0  0  0
  -24.3539  -36.8772   22.2116 H   0  0  0  0  0  0
  -23.7206  -37.6021   23.6905 H   0  0  0  0  0  0
  -26.5318  -30.7905   20.6752 H   0  0  0  0  0  0
  -27.0620  -30.2216   22.1848 H   0  0  0  0  0  0
  -28.2012  -27.5702   21.4883 H   0  0  0  0  0  0
  -25.8022  -25.2536   18.8848 H   0  0  0  0  0  0
  -24.2379  -27.0055   18.8090 H   0  0  0  0  0  0
  -24.1781  -30.1820   19.3550 H   0  0  0  0  0  0
  -23.0326  -28.9607   19.7946 H   0  0  0  0  0  0
  -25.1430  -36.1271   25.0717 H   0  0  0  0  0  0
  -21.0113  -28.3534   24.1136 H   0  0  0  0  0  0
  -20.5602  -26.2490   23.3765 H   0  0  0  0  0  0
  -21.6663  -26.7233   22.1296 H   0  0  0  0  0  0
  -19.6947  -25.6205   21.1363 H   0  0  0  0  0  0
  -19.6789  -27.3062   20.6703 H   0  0  0  0  0  0
  -17.4268  -26.6731   21.3994 H   0  0  0  0  0  0
  -18.0327  -26.0153   22.9028 H   0  0  0  0  0  0
  -19.8042  -30.7417   24.2046 H   0  0  0  0  0  0
  -17.5091  -31.6288   24.5158 H   0  0  0  0  0  0
  -15.5426  -30.2940   23.7787 H   0  0  0  0  0  0
  -15.8766  -28.0777   22.7204 H   0  0  0  0  0  0
  -24.5842  -30.7185   25.7347 H   0  0  0  0  0  0
  -24.8658  -32.3179   26.4083 H   0  0  0  0  0  0
  -25.7526  -30.9341   27.0192 H   0  0  0  0  0  0
  -26.3648  -29.5964   24.2396 H   0  0  0  0  0  0
  -27.4073  -29.7475   25.6226 H   0  0  0  0  0  0
  -27.9686  -30.3600   24.0962 H   0  0  0  0  0  0
  -27.2481  -33.3942   26.1550 H   0  0  0  0  0  0
  -28.4061  -32.6717   25.0487 H   0  0  0  0  0  0
  -28.0444  -31.8964   26.5828 H   0  0  0  0  0  0
  -28.2481  -37.9986   24.7542 H   0  0  0  0  0  0
  -28.1129  -36.2500   24.6276 H   0  0  0  0  0  0
  -27.2262  -37.1196   25.8870 H   0  0  0  0  0  0
  -21.0251  -29.8386   21.6003 H   0  0  0  0  0  0
  -26.0004  -38.2483   24.1437 H   0  0  0  0  0  0
  -30.9355  -24.3250   20.0221 H   0  0  0  0  0  0
  -30.3629  -21.8910   18.9486 H   0  0  0  0  0  0
  -26.9927  -23.4808   22.9209 H   0  0  0  0  0  0
  -28.8258  -26.1725   23.0689 H   0  0  0  0  0  0
  -30.4839  -26.0065   22.4816 H   0  0  0  0  0  0
  -31.4871  -21.9372   23.4321 H   0  0  0  0  0  0
  -31.6732  -23.3847   22.5203 H   0  0  0  0  0  0
  -29.2696  -21.6452   22.8363 H   0  0  0  0  0  0
  -30.4825  -21.5418   21.7014 H   0  0  0  0  0  0
  -28.0922  -18.3040   20.3944 H   0  0  0  0  0  0
  -29.7419  -25.3307   24.9935 H   0  0  0  0  0  0
  1 25  1  0  0  0
  1 30  2  0  0  0
  1 81  1  0  0  0
  2  3  1  0  0  0
  2 25  1  0  0  0
  2 85  1  0  0  0
  2 86  1  0  0  0
  3  4  1  0  0  0
  3 87  1  0  0  0
  3 88  1  0  0  0
  4  5  1  0  0  0
  4 89  1  0  0  0
  4 90  1  0  0  0
  5  6  1  0  0  0
  5 26  1  0  0  0
  5 91  1  0  0  0
  6 25  1  0  0  0
  6 92  1  0  0  0
  6 93  1  0  0  0
  7  8  2  0  0  0
  7 26  1  0  0  0
  7 29  1  0  0  0
  8  9  1  0  0  0
  8 22  1  0  0  0
  9 10  1  0  0  0
  9 27  2  0  0  0
 10 11  2  0  0  0
 10 15  1  0  0  0
 11 12  1  0  0  0
 11 94  1  0  0  0
 12 13  2  0  0  0
 12 95  1  0  0  0
 13 14  1  0  0  0
 13 31  1  0  0  0
 14 15  2  0  0  0
 14 96  1  0  0  0
 15 97  1  0  0  0
 16 17  2  0  0  0
 16 21  1  0  0  0
 16 31  1  0  0  0
 17 18  1  0  0  0
 17 98  1  0  0  0
 18 19  2  0  0  0
 18 99  1  0  0  0
 19 20  1  0  0  0
 19 24  1  0  0  0
 20 21  2  0  0  0
 20100  1  0  0  0
 21 23  1  0  0  0
 22 28  1  0  0  0
 22 32  2  0  0  0
 26 27  1  0  0  0
 28101  1  0  0  0
 28102  1  0  0  0
 29103  1  0  0  0
 29104  1  0  0  0
 33 34  1  0  0  0
 33 66  1  0  0  0
 33 70  2  0  0  0
 34 36  1  0  0  0
 34 59  1  0  0  0
 34105  1  0  0  0
 35 44  2  0  0  0
 35 45  1  0  0  0
 35 68  1  0  0  0
 36 56  1  0  0  0
 36106  1  0  0  0
 37 39  1  0  0  0
 37 47  1  0  0  0
 37 66  1  0  0  0
 37107  1  0  0  0
 38 43  2  0  0  0
 38 46  1  0  0  0
 38 47  1  0  0  0
 39 64  1  0  0  0
 39 67  2  0  0  0
 40 52  1  0  0  0
 40 53  2  0  0  0
 40 58  1  0  0  0
 41108  1  0  0  0
 41109  1  0  0  0
 41110  1  0  0  0
 41 48  1  0  0  0
 42 43  1  0  0  0
 42 66  1  0  0  0
 42111  1  0  0  0
 42112  1  0  0  0
 43 44  1  0  0  0
 44113  1  0  0  0
 45 46  2  0  0  0
 45114  1  0  0  0
 46115  1  0  0  0
 47116  1  0  0  0
 47117  1  0  0  0
 48 56  1  0  0  0
 48 65  1  0  0  0
 48118  1  0  0  0
 49 50  1  0  0  0
 49 53  1  0  0  0
 49 64  1  0  0  0
 49119  1  0  0  0
 50 51  1  0  0  0
 50120  1  0  0  0
 50121  1  0  0  0
 51 52  1  0  0  0
 51122  1  0  0  0
 51123  1  0  0  0
 52124  1  0  0  0
 52125  1  0  0  0
 53 54  1  0  0  0
 54 55  2  0  0  0
 54126  1  0  0  0
 55 57  1  0  0  0
 55127  1  0  0  0
 56 69  2  0  0  0
 57 58  2  0  0  0
 57128  1  0  0  0
 58129  1  0  0  0
 59 60  1  0  0  0
 59 61  1  0  0  0
 59 62  1  0  0  0
 60130  1  0  0  0
 60131  1  0  0  0
 60132  1  0  0  0
 61133  1  0  0  0
 61134  1  0  0  0
 61135  1  0  0  0
 62136  1  0  0  0
 62137  1  0  0  0
 62138  1  0  0  0
 63 65  1  0  0  0
 63139  1  0  0  0
 63140  1  0  0  0
 63141  1  0  0  0
 64142  1  0  0  0
 65143  1  0  0  0
 68 80  1  0  0  0
 71 72  2  0  0  0
 71 74  1  0  0  0
 71144  1  0  0  0
 72 75  1  0  0  0
 72145  1  0  0  0
 73 74  2  0  0  0
 73 76  1  0  0  0
 73146  1  0  0  0
 74 78  1  0  0  0
 75 76  2  0  0  0
 75 81  1  0  0  0
 76 84  1  0  0  0
 77 79  1  0  0  0
 77 82  1  0  0  0
 77 83  2  0  0  0
 78 82  1  0  0  0
 78147  1  0  0  0
 78148  1  0  0  0
 79 80  1  0  0  0
 79149  1  0  0  0
 79150  1  0  0  0
 80151  1  0  0  0
 80152  1  0  0  0
 81153  1  0  0  0
 82154  1  0  0  0
M  ISO  4   1 100  68 101  80 101  81 100
M  END
> <chiral flag>
0

> <version>
0

> <s_m_source_file>
/data/baiqing/PycharmProjects/Reinvent-master-3.2/result/LINK_invent/BTK/process_docking_weight1_custom_sum_contain_oxygen_bond_distance_aromatic_linkinvent_7_9_3/rearranged_h_0010.sdf

> <i_m_source_file_index>
91

> <r_mmod_Potential_Energy-OPLS-2005>
15163.82421875

> <r_mmod_Stretch_Energy-OPLS-2005>
8435.9658203125

> <r_mmod_Bend_Energy-OPLS-2005>
1142.64758300781

> <r_mmod_Torsional_Energy-OPLS-2005>
341.668579101562

> <r_mmod_Improper_Torsional_Energy-OPLS-2005>
10.936749458313

> <r_mmod_Van_der_Waal_Energy-OPLS-2005>
2055.326171875

> <r_mmod_Electrostatic_Energy-OPLS-2005>
-448.806427001953

> <r_mmod_Solvation_Energy-OPLS-2005>
-255.126968383789

> <b_mmod_Minimization_Converged-OPLS-2005>
0

> <r_mmod_RMS_Derivative-OPLS-2005>
1.77009332180023

$$$$
