0
                    3D
 Structure written by MMmdl.
184192  0  0  1  0            999 V2000
  -30.7022  -14.9232   20.4364 C   0  0  0  0  0  0
  -30.3649  -12.5317   19.6088 C   0  0  0  0  0  0
  -29.5152  -12.5314   18.3202 C   0  0  0  0  0  0
  -28.0470  -12.3501   18.7083 C   0  0  0  0  0  0
  -27.6325  -13.2841   19.8725 C   0  0  2  0  0  0
  -28.6662  -13.3639   21.0334 C   0  0  0  0  0  0
  -25.2463  -13.8329   20.5809 C   0  0  0  0  0  0
  -24.1781  -13.0449   20.9267 C   0  0  0  0  0  0
  -24.6402  -11.6966   20.8763 C   0  0  0  0  0  0
  -23.9018  -10.4327   21.0401 C   0  0  0  0  0  0
  -24.3566   -9.4257   21.9214 C   0  0  0  0  0  0
  -23.6276   -8.2269   22.0734 C   0  0  0  0  0  0
  -22.4258   -8.0287   21.3523 C   0  0  0  0  0  0
  -21.9897   -9.0229   20.4618 C   0  0  0  0  0  0
  -22.7185  -10.2149   20.3057 C   0  0  0  0  0  0
  -21.6862   -6.0701   22.5253 C   0  0  0  0  0  0
  -21.4054   -6.5624   23.8173 C   0  0  0  0  0  0
  -21.3673   -5.6787   24.9166 C   0  0  0  0  0  0
  -21.6044   -4.3045   24.7232 C   0  0  0  0  0  0
  -21.8831   -3.8111   23.4357 C   0  0  0  0  0  0
  -21.9228   -4.6924   22.3413 C   0  0  0  0  0  0
  -22.7825  -13.5207   21.1923 C   0  0  0  0  0  0
  -22.1709   -4.2089   21.0991 F   0  0  0  0  0  0
  -21.5612   -3.4552   25.7758 F   0  0  0  0  0  0
  -29.9776  -13.7108   20.4624 N   0  0  0  0  0  0
  -26.2888  -12.9588   20.3394 N   0  0  0  0  0  0
  -25.9362  -11.6654   20.5803 N   0  0  0  0  0  0
  -22.0471  -12.8110   22.0470 N   0  0  0  0  0  0
  -25.4170  -15.2031   20.4357 N   0  0  0  0  0  0
  -31.7161  -14.8196   19.7395 O   0  0  0  0  0  0
  -21.6669   -6.8839   21.4195 O   0  0  0  0  0  0
  -22.3481  -14.5493   20.6830 O   0  0  0  0  0  0
  -24.6519  -31.8399   23.1955 C   0  0  0  0  0  0
  -25.9294  -32.4654   23.8325 C   0  0  1  0  0  0
  -27.2029  -27.0842   20.1622 C   0  0  0  0  0  0
  -25.6060  -33.8449   24.2265 N   0  0  0  0  0  0
  -23.4572  -30.4602   21.5409 C   0  0  2  0  0  0
  -24.9047  -28.8901   20.1069 C   0  0  0  0  0  0
  -22.7628  -29.4493   22.4891 C   0  0  0  0  0  0
  -18.0298  -28.1421   22.8419 C   0  0  0  0  0  0
  -24.1527  -36.7221   23.2631 C   0  0  0  0  0  0
  -26.0147  -30.6947   21.4096 C   0  0  0  0  0  0
  -26.0822  -29.3027   20.7458 C   0  0  0  0  0  0
  -27.2301  -28.4162   20.7601 C   0  0  0  0  0  0
  -26.0004  -26.7913   19.4779 C   0  0  0  0  0  0
  -24.8830  -27.6514   19.4494 C   0  0  0  0  0  0
  -23.6856  -29.8001   20.1546 C   0  0  0  0  0  0
  -25.4141  -36.3033   24.0351 C   0  0  1  0  0  0
  -20.5928  -28.3780   23.1232 C   0  0  2  0  0  0
  -20.6859  -26.9506   22.5422 C   0  0  0  0  0  0
  -19.5838  -26.6438   21.5226 C   0  0  0  0  0  0
  -18.1980  -26.7957   22.1586 C   0  0  0  0  0  0
  -19.1553  -28.8922   23.2775 C   0  0  0  0  0  0
  -18.9455  -30.1503   23.8834 C   0  0  0  0  0  0
  -17.6463  -30.6615   24.0571 C   0  0  0  0  0  0
  -25.9079  -34.9404   23.5111 C   0  0  0  0  0  0
  -16.5356  -29.9100   23.6370 C   0  0  0  0  0  0
  -16.7277  -28.6534   23.0331 C   0  0  0  0  0  0
  -26.4581  -31.6512   25.0773 C   0  0  0  0  0  0
  -25.3743  -31.3598   26.1448 C   0  0  0  0  0  0
  -27.0490  -30.2922   24.6392 C   0  0  0  0  0  0
  -27.6195  -32.4255   25.7489 C   0  0  0  0  0  0
  -27.5635  -37.1752   24.8444 C   0  0  0  0  0  0
  -21.4314  -29.3046   22.3610 N   0  0  0  0  0  0
  -26.4317  -37.3768   23.9422 N   0  0  0  0  0  0
  -24.7271  -31.0199   22.1042 N   0  0  0  0  0  0
  -23.4239  -28.8037   23.3062 O   0  0  0  0  0  0
  -28.2423  -26.0688   20.1988 O   0  0  0  0  0  0
  -26.5668  -34.8924   22.4687 O   0  0  0  0  0  0
  -23.5637  -32.1343   23.7155 O   0  0  0  0  0  0
  -28.5418  -19.1573   19.5142 C   0  0  0  0  0  0
  -29.0831  -20.0621   20.4316 C   0  0  0  0  0  0
  -29.8847  -17.8139   20.7301 C   0  0  0  0  0  0
  -26.5244  -16.7352   17.0541 C   0  0  0  0  0  0
  -24.8724  -18.5477   16.6360 C   0  0  0  0  0  0
  -31.8353  -19.6017   23.1165 C   0  0  0  0  0  0
  -29.3548  -19.4367   23.6993 C   0  0  0  0  0  0
  -30.2078  -16.0853   22.7099 C   0  0  0  0  0  0
  -32.1162  -16.8316   21.2764 C   0  0  0  0  0  0
  -28.7940  -18.8961   16.5443 C   0  0  0  0  0  0
  -27.0288  -20.6171   16.4953 C   0  0  0  0  0  0
  -27.3007  -19.3470   18.6484 C   0  0  0  0  0  0
  -28.5564  -21.6150   20.7609 C   0  0  0  0  0  0
  -28.8864  -23.1384   20.0818 C   0  0  0  0  0  0
  -27.9296  -24.5334   20.3491 C   0  0  0  0  0  0
  -26.3619  -18.1674   16.5036 C   0  0  0  0  0  0
  -30.3773  -19.6952   22.5835 C   0  0  0  0  0  0
  -30.6081  -16.4131   21.2581 C   0  0  0  0  0  0
  -27.3789  -19.2294   17.0806 C   0  0  0  0  0  0
  -29.0800  -17.8526   19.6672 N   0  0  0  0  0  0
  -29.8935  -19.1524   21.2615 N   0  0  0  0  0  0
  -31.4235  -12.5029   19.3676 H   0  0  0  0  0  0
  -30.1862  -11.6030   20.1591 H   0  0  0  0  0  0
  -29.8157  -11.7249   17.6499 H   0  0  0  0  0  0
  -29.6504  -13.4597   17.7679 H   0  0  0  0  0  0
  -27.9253  -11.3105   19.0147 H   0  0  0  0  0  0
  -27.3914  -12.5055   17.8517 H   0  0  0  0  0  0
  -27.5850  -14.2821   19.4337 H   0  0  0  0  0  0
  -28.7120  -12.4316   21.5999 H   0  0  0  0  0  0
  -28.3604  -14.1262   21.7455 H   0  0  0  0  0  0
  -25.2686   -9.5775   22.4832 H   0  0  0  0  0  0
  -23.9986   -7.4650   22.7448 H   0  0  0  0  0  0
  -21.0848   -8.8724   19.8896 H   0  0  0  0  0  0
  -22.3602  -10.9682   19.6198 H   0  0  0  0  0  0
  -21.2080   -7.6138   23.9641 H   0  0  0  0  0  0
  -21.1478   -6.0553   25.9043 H   0  0  0  0  0  0
  -22.0610   -2.7555   23.2881 H   0  0  0  0  0  0
  -22.4093  -11.9736   22.4747 H   0  0  0  0  0  0
  -21.1096  -13.1056   22.2765 H   0  0  0  0  0  0
  -24.6625  -15.8689   20.5578 H   0  0  0  0  0  0
  -26.2874  -15.6357   20.1441 H   0  0  0  0  0  0
  -26.7318  -32.5184   23.0994 H   0  0  0  0  0  0
  -25.0160  -33.9516   25.0394 H   0  0  0  0  0  0
  -22.7622  -31.2921   21.3979 H   0  0  0  0  0  0
  -23.3886  -35.9456   23.3184 H   0  0  0  0  0  0
  -24.3597  -36.8956   22.2074 H   0  0  0  0  0  0
  -23.7240  -37.6354   23.6702 H   0  0  0  0  0  0
  -26.1884  -31.4536   20.6442 H   0  0  0  0  0  0
  -26.8739  -30.7353   22.0642 H   0  0  0  0  0  0
  -28.1151  -28.7231   21.3029 H   0  0  0  0  0  0
  -25.8939  -25.8620   18.9401 H   0  0  0  0  0  0
  -23.9955  -27.3519   18.9112 H   0  0  0  0  0  0
  -23.8238  -30.5870   19.4106 H   0  0  0  0  0  0
  -22.7957  -29.2478   19.8399 H   0  0  0  0  0  0
  -25.1341  -36.1866   25.0867 H   0  0  0  0  0  0
  -20.9890  -28.3439   24.1392 H   0  0  0  0  0  0
  -20.5923  -26.2363   23.3617 H   0  0  0  0  0  0
  -21.6716  -26.7649   22.1132 H   0  0  0  0  0  0
  -19.7058  -25.6332   21.1297 H   0  0  0  0  0  0
  -19.6831  -27.3240   20.6763 H   0  0  0  0  0  0
  -17.4297  -26.6676   21.3943 H   0  0  0  0  0  0
  -18.0327  -26.0099   22.8988 H   0  0  0  0  0  0
  -19.7927  -30.7293   24.2247 H   0  0  0  0  0  0
  -17.5027  -31.6309   24.5176 H   0  0  0  0  0  0
  -15.5338  -30.3004   23.7768 H   0  0  0  0  0  0
  -15.8645  -28.0886   22.7066 H   0  0  0  0  0  0
  -24.6019  -30.6850   25.7674 H   0  0  0  0  0  0
  -24.8761  -32.2681   26.4877 H   0  0  0  0  0  0
  -25.8062  -30.8758   27.0234 H   0  0  0  0  0  0
  -26.3108  -29.6551   24.1464 H   0  0  0  0  0  0
  -27.4146  -29.7337   25.5019 H   0  0  0  0  0  0
  -27.9049  -30.4149   23.9731 H   0  0  0  0  0  0
  -27.2916  -33.3651   26.1964 H   0  0  0  0  0  0
  -28.4010  -32.6636   25.0235 H   0  0  0  0  0  0
  -28.0830  -31.8376   26.5412 H   0  0  0  0  0  0
  -28.2570  -38.0148   24.7691 H   0  0  0  0  0  0
  -28.1262  -36.2712   24.6062 H   0  0  0  0  0  0
  -27.2330  -37.1127   25.8830 H   0  0  0  0  0  0
  -20.9630  -29.8590   21.6595 H   0  0  0  0  0  0
  -26.0215  -38.2836   24.1491 H   0  0  0  0  0  0
  -26.0871  -16.0072   16.3680 H   0  0  0  0  0  0
  -26.0007  -16.6206   18.0026 H   0  0  0  0  0  0
  -27.5579  -16.4378   17.2176 H   0  0  0  0  0  0
  -24.2360  -17.7290   16.2949 H   0  0  0  0  0  0
  -24.6019  -19.4131   16.0301 H   0  0  0  0  0  0
  -24.6034  -18.7530   17.6713 H   0  0  0  0  0  0
  -31.9344  -20.2887   23.9600 H   0  0  0  0  0  0
  -32.5890  -19.9463   22.4065 H   0  0  0  0  0  0
  -32.1342  -18.6385   23.5347 H   0  0  0  0  0  0
  -29.6042  -20.0174   24.5925 H   0  0  0  0  0  0
  -29.2938  -18.3978   24.0183 H   0  0  0  0  0  0
  -28.3554  -19.7292   23.3739 H   0  0  0  0  0  0
  -29.1296  -16.0241   22.8470 H   0  0  0  0  0  0
  -30.6017  -16.8257   23.3989 H   0  0  0  0  0  0
  -30.6303  -15.1411   23.0499 H   0  0  0  0  0  0
  -32.3083  -17.8154   21.6543 H   0  0  0  0  0  0
  -32.5314  -16.9301   20.2691 H   0  0  0  0  0  0
  -32.7250  -16.1414   21.8631 H   0  0  0  0  0  0
  -29.5211  -19.6705   16.7921 H   0  0  0  0  0  0
  -28.7847  -18.8057   15.4557 H   0  0  0  0  0  0
  -29.1793  -17.9586   16.9356 H   0  0  0  0  0  0
  -27.7347  -21.3788   16.8261 H   0  0  0  0  0  0
  -26.0463  -20.9565   16.8242 H   0  0  0  0  0  0
  -27.0302  -20.6251   15.4030 H   0  0  0  0  0  0
  -26.8623  -20.3137   18.8901 H   0  0  0  0  0  0
  -26.5382  -18.6587   19.0155 H   0  0  0  0  0  0
  -28.6677  -21.7924   21.8255 H   0  0  0  0  0  0
  -27.4750  -21.5381   20.6831 H   0  0  0  0  0  0
  -28.9064  -22.9906   18.9967 H   0  0  0  0  0  0
  -29.9178  -23.3881   20.3421 H   0  0  0  0  0  0
  -27.5976  -24.4439   21.3834 H   0  0  0  0  0  0
  -27.0328  -24.3338   19.7657 H   0  0  0  0  0  0
  -26.5455  -18.0965   15.4276 H   0  0  0  0  0  0
  -30.3712  -20.7692   22.4399 H   0  0  0  0  0  0
  1 25  1  0  0  0
  1 30  2  0  0  0
  1 88  1  0  0  0
  2  3  1  0  0  0
  2 25  1  0  0  0
  2 92  1  0  0  0
  2 93  1  0  0  0
  3  4  1  0  0  0
  3 94  1  0  0  0
  3 95  1  0  0  0
  4  5  1  0  0  0
  4 96  1  0  0  0
  4 97  1  0  0  0
  5  6  1  0  0  0
  5 26  1  0  0  0
  5 98  1  0  0  0
  6 25  1  0  0  0
  6 99  1  0  0  0
  6100  1  0  0  0
  7  8  2  0  0  0
  7 26  1  0  0  0
  7 29  1  0  0  0
  8  9  1  0  0  0
  8 22  1  0  0  0
  9 10  1  0  0  0
  9 27  2  0  0  0
 10 11  2  0  0  0
 10 15  1  0  0  0
 11 12  1  0  0  0
 11101  1  0  0  0
 12 13  2  0  0  0
 12102  1  0  0  0
 13 14  1  0  0  0
 13 31  1  0  0  0
 14 15  2  0  0  0
 14103  1  0  0  0
 15104  1  0  0  0
 16 17  2  0  0  0
 16 21  1  0  0  0
 16 31  1  0  0  0
 17 18  1  0  0  0
 17105  1  0  0  0
 18 19  2  0  0  0
 18106  1  0  0  0
 19 20  1  0  0  0
 19 24  1  0  0  0
 20 21  2  0  0  0
 20107  1  0  0  0
 21 23  1  0  0  0
 22 28  1  0  0  0
 22 32  2  0  0  0
 26 27  1  0  0  0
 28108  1  0  0  0
 28109  1  0  0  0
 29110  1  0  0  0
 29111  1  0  0  0
 33 34  1  0  0  0
 33 66  1  0  0  0
 33 70  2  0  0  0
 34 36  1  0  0  0
 34 59  1  0  0  0
 34112  1  0  0  0
 35 44  2  0  0  0
 35 45  1  0  0  0
 35 68  1  0  0  0
 36 56  1  0  0  0
 36113  1  0  0  0
 37 39  1  0  0  0
 37 47  1  0  0  0
 37 66  1  0  0  0
 37114  1  0  0  0
 38 43  2  0  0  0
 38 46  1  0  0  0
 38 47  1  0  0  0
 39 64  1  0  0  0
 39 67  2  0  0  0
 40 52  1  0  0  0
 40 53  2  0  0  0
 40 58  1  0  0  0
 41115  1  0  0  0
 41116  1  0  0  0
 41117  1  0  0  0
 41 48  1  0  0  0
 42 43  1  0  0  0
 42 66  1  0  0  0
 42118  1  0  0  0
 42119  1  0  0  0
 43 44  1  0  0  0
 44120  1  0  0  0
 45 46  2  0  0  0
 45121  1  0  0  0
 46122  1  0  0  0
 47123  1  0  0  0
 47124  1  0  0  0
 48 56  1  0  0  0
 48 65  1  0  0  0
 48125  1  0  0  0
 49 50  1  0  0  0
 49 53  1  0  0  0
 49 64  1  0  0  0
 49126  1  0  0  0
 50 51  1  0  0  0
 50127  1  0  0  0
 50128  1  0  0  0
 51 52  1  0  0  0
 51129  1  0  0  0
 51130  1  0  0  0
 52131  1  0  0  0
 52132  1  0  0  0
 53 54  1  0  0  0
 54 55  2  0  0  0
 54133  1  0  0  0
 55 57  1  0  0  0
 55134  1  0  0  0
 56 69  2  0  0  0
 57 58  2  0  0  0
 57135  1  0  0  0
 58136  1  0  0  0
 59 60  1  0  0  0
 59 61  1  0  0  0
 59 62  1  0  0  0
 60137  1  0  0  0
 60138  1  0  0  0
 60139  1  0  0  0
 61140  1  0  0  0
 61141  1  0  0  0
 61142  1  0  0  0
 62143  1  0  0  0
 62144  1  0  0  0
 62145  1  0  0  0
 63 65  1  0  0  0
 63146  1  0  0  0
 63147  1  0  0  0
 63148  1  0  0  0
 64149  1  0  0  0
 65150  1  0  0  0
 68 85  1  0  0  0
 71 72  2  0  0  0
 71 82  1  0  0  0
 71 90  1  0  0  0
 72 83  1  0  0  0
 72 91  1  0  0  0
 73 88  1  0  0  0
 73 90  2  0  0  0
 73 91  1  0  0  0
 74151  1  0  0  0
 74152  1  0  0  0
 74153  1  0  0  0
 74 86  1  0  0  0
 75 86  1  0  0  0
 75154  1  0  0  0
 75155  1  0  0  0
 75156  1  0  0  0
 76157  1  0  0  0
 76158  1  0  0  0
 76159  1  0  0  0
 76 87  1  0  0  0
 77 87  1  0  0  0
 77160  1  0  0  0
 77161  1  0  0  0
 77162  1  0  0  0
 78163  1  0  0  0
 78164  1  0  0  0
 78165  1  0  0  0
 78 88  1  0  0  0
 79 88  1  0  0  0
 79166  1  0  0  0
 79167  1  0  0  0
 79168  1  0  0  0
 80169  1  0  0  0
 80170  1  0  0  0
 80171  1  0  0  0
 80 89  1  0  0  0
 81 89  1  0  0  0
 81172  1  0  0  0
 81173  1  0  0  0
 81174  1  0  0  0
 82 89  1  0  0  0
 82175  1  0  0  0
 82176  1  0  0  0
 83 84  1  0  0  0
 83177  1  0  0  0
 83178  1  0  0  0
 84 85  1  0  0  0
 84179  1  0  0  0
 84180  1  0  0  0
 85181  1  0  0  0
 85182  1  0  0  0
 86 89  1  0  0  0
 86183  1  0  0  0
 87 91  1  0  0  0
 87184  1  0  0  0
M  ISO  4   1 100  68 101  85 101  88 100
M  END
> <chiral flag>
0

> <version>
0

> <s_m_source_file>
/data/baiqing/PycharmProjects/Reinvent-master-3.2/result/LINK_invent/BTK/process_docking_weight1_custom_sum_contain_oxygen_bond_distance_aromatic_linkinvent_7_9_3/rearranged_h_0066.sdf

> <i_m_source_file_index>
1

> <r_mmod_Potential_Energy-OPLS-2005>
949.504516601562

> <r_mmod_Stretch_Energy-OPLS-2005>
360.036346435547

> <r_mmod_Bend_Energy-OPLS-2005>
443.672424316406

> <r_mmod_Torsional_Energy-OPLS-2005>
249.084121704102

> <r_mmod_Improper_Torsional_Energy-OPLS-2005>
9.53967761993408

> <r_mmod_Van_der_Waal_Energy-OPLS-2005>
145.458770751953

> <r_mmod_Electrostatic_Energy-OPLS-2005>
-295.598602294922

> <r_mmod_Solvation_Energy-OPLS-2005>
-179.367111206055

> <b_mmod_Minimization_Converged-OPLS-2005>
0

> <r_mmod_RMS_Derivative-OPLS-2005>
9.53624153137207

$$$$
1
                    3D
 Structure written by MMmdl.
179187  0  0  1  0            999 V2000
  -30.7733  -14.6059   20.3777 C   0  0  0  0  0  0
  -30.4038  -12.3546   19.4690 C   0  0  0  0  0  0
  -29.4876  -12.4360   18.2309 C   0  0  0  0  0  0
  -28.0226  -12.2351   18.6583 C   0  0  0  0  0  0
  -27.6182  -13.1677   19.8244 C   0  0  2  0  0  0
  -28.6863  -13.2289   20.9498 C   0  0  0  0  0  0
  -25.2519  -13.8009   20.5776 C   0  0  0  0  0  0
  -24.1772  -13.0368   20.9302 C   0  0  0  0  0  0
  -24.6303  -11.6814   20.8875 C   0  0  0  0  0  0
  -23.8997  -10.4246   21.0507 C   0  0  0  0  0  0
  -24.3571   -9.4151   21.9262 C   0  0  0  0  0  0
  -23.6243   -8.2196   22.0786 C   0  0  0  0  0  0
  -22.4233   -8.0268   21.3560 C   0  0  0  0  0  0
  -21.9871   -9.0240   20.4661 C   0  0  0  0  0  0
  -22.7194  -10.2124   20.3117 C   0  0  0  0  0  0
  -21.6837   -6.0740   22.5318 C   0  0  0  0  0  0
  -21.3976   -6.5648   23.8244 C   0  0  0  0  0  0
  -21.3623   -5.6818   24.9213 C   0  0  0  0  0  0
  -21.6030   -4.3086   24.7268 C   0  0  0  0  0  0
  -21.8810   -3.8154   23.4388 C   0  0  0  0  0  0
  -21.9184   -4.6963   22.3436 C   0  0  0  0  0  0
  -22.7802  -13.5208   21.1928 C   0  0  0  0  0  0
  -22.1666   -4.2143   21.1017 F   0  0  0  0  0  0
  -21.5612   -3.4584   25.7790 F   0  0  0  0  0  0
  -30.0147  -13.4623   20.3615 N   0  0  0  0  0  0
  -26.2858  -12.9063   20.3350 N   0  0  0  0  0  0
  -25.9196  -11.6301   20.5871 N   0  0  0  0  0  0
  -22.0425  -12.8235   22.0489 N   0  0  0  0  0  0
  -25.4245  -15.1725   20.4108 N   0  0  0  0  0  0
  -31.9937  -14.5013   20.2849 O   0  0  0  0  0  0
  -21.6587   -6.8873   21.4279 O   0  0  0  0  0  0
  -22.3532  -14.5537   20.6769 O   0  0  0  0  0  0
  -24.6137  -31.8681   23.2094 C   0  0  0  0  0  0
  -25.9009  -32.4843   23.8392 C   0  0  1  0  0  0
  -27.2539  -27.4335   20.1204 C   0  0  0  0  0  0
  -25.5870  -33.8648   24.2320 N   0  0  0  0  0  0
  -23.4036  -30.4862   21.5508 C   0  0  2  0  0  0
  -24.8589  -28.9539   20.1172 C   0  0  0  0  0  0
  -22.7414  -29.4631   22.5009 C   0  0  0  0  0  0
  -18.0258  -28.1378   22.8503 C   0  0  0  0  0  0
  -24.1477  -36.7321   23.2634 C   0  0  0  0  0  0
  -25.9299  -30.8392   21.3572 C   0  0  0  0  0  0
  -26.0149  -29.4712   20.7112 C   0  0  0  0  0  0
  -27.2149  -28.7218   20.7036 C   0  0  0  0  0  0
  -26.0754  -26.9337   19.5131 C   0  0  0  0  0  0
  -24.8857  -27.6878   19.5086 C   0  0  0  0  0  0
  -23.6145  -29.8147   20.1673 C   0  0  0  0  0  0
  -25.4105  -36.3133   24.0339 C   0  0  1  0  0  0
  -20.5845  -28.3652   23.1353 C   0  0  2  0  0  0
  -20.6765  -26.9397   22.5440 C   0  0  0  0  0  0
  -19.5745  -26.6384   21.5241 C   0  0  0  0  0  0
  -18.1912  -26.7915   22.1630 C   0  0  0  0  0  0
  -19.1514  -28.8833   23.2913 C   0  0  0  0  0  0
  -18.9434  -30.1444   23.8920 C   0  0  0  0  0  0
  -17.6443  -30.6593   24.0577 C   0  0  0  0  0  0
  -25.9030  -34.9497   23.5129 C   0  0  0  0  0  0
  -16.5334  -29.9105   23.6334 C   0  0  0  0  0  0
  -16.7245  -28.6521   23.0345 C   0  0  0  0  0  0
  -26.4442  -31.6611   25.0710 C   0  0  0  0  0  0
  -25.3722  -31.3712   26.1480 C   0  0  0  0  0  0
  -27.0261  -30.3055   24.6037 C   0  0  0  0  0  0
  -27.6025  -32.4333   25.7477 C   0  0  0  0  0  0
  -27.5578  -37.1812   24.8462 C   0  0  0  0  0  0
  -21.4133  -29.3039   22.3775 N   0  0  0  0  0  0
  -26.4281  -37.3822   23.9418 N   0  0  0  0  0  0
  -24.6681  -31.0778   22.0992 N   0  0  0  0  0  0
  -23.4168  -28.8188   23.3071 O   0  0  0  0  0  0
  -28.4286  -26.7035   20.1668 O   0  0  0  0  0  0
  -26.5610  -34.8946   22.4698 O   0  0  0  0  0  0
  -23.5324  -32.1435   23.7472 O   0  0  0  0  0  0
  -31.1136  -16.7787   22.4979 C   0  0  0  0  0  0
  -30.3984  -17.0655   21.3109 C   0  0  0  0  0  0
  -30.7289  -18.9384   23.2739 C   0  0  0  0  0  0
  -29.9635  -19.2433   22.1098 C   0  0  0  0  0  0
  -31.0058  -19.9474   24.3742 C   0  0  0  0  0  0
  -30.5284  -24.1552   18.2967 C   0  0  0  0  0  0
  -31.1484  -21.3879   20.3947 C   0  0  0  0  0  0
  -31.1242  -16.6794   18.9641 C   0  0  0  0  0  0
  -28.8142  -16.1640   19.5809 C   0  0  0  0  0  0
  -27.9511  -20.3265   21.0077 C   0  0  0  0  0  0
  -30.0564  -25.0143   22.0979 C   0  0  0  0  0  0
  -30.7144  -24.7674   19.6941 C   0  0  0  0  0  0
  -29.1430  -22.9849   20.8291 C   0  0  0  0  0  0
  -28.2907  -25.2793   20.3020 C   0  0  0  0  0  0
  -30.0494  -21.8214   21.3832 C   0  0  1  0  0  0
  -30.2507  -16.0896   20.1154 C   0  0  0  0  0  0
  -29.1983  -20.5875   21.8906 C   0  0  2  0  0  0
  -29.5818  -24.4948   20.7233 C   0  0  1  0  0  0
  -31.2896  -17.7136   23.4636 N   0  0  0  0  0  0
  -29.8690  -18.3113   21.1233 N   0  0  0  0  0  0
  -28.6636  -20.9642   23.0542 F   0  0  0  0  0  0
  -31.4491  -12.3969   19.1592 H   0  0  0  0  0  0
  -30.2872  -11.3976   19.9855 H   0  0  0  0  0  0
  -29.7640  -11.6699   17.5066 H   0  0  0  0  0  0
  -29.6121  -13.3948   17.7228 H   0  0  0  0  0  0
  -27.9041  -11.1950   18.9601 H   0  0  0  0  0  0
  -27.3518  -12.3770   17.8110 H   0  0  0  0  0  0
  -27.5015  -14.1095   19.3238 H   0  0  0  0  0  0
  -28.6914  -12.2983   21.5177 H   0  0  0  0  0  0
  -28.4490  -14.0172   21.6659 H   0  0  0  0  0  0
  -25.2719   -9.5619   22.4856 H   0  0  0  0  0  0
  -23.9938   -7.4562   22.7490 H   0  0  0  0  0  0
  -21.0802   -8.8773   19.8939 H   0  0  0  0  0  0
  -22.3678  -10.9692   19.6245 H   0  0  0  0  0  0
  -21.1971   -7.6162   23.9749 H   0  0  0  0  0  0
  -21.1430   -6.0559   25.9114 H   0  0  0  0  0  0
  -22.0611   -2.7620   23.2923 H   0  0  0  0  0  0
  -22.3972  -11.9811   22.4798 H   0  0  0  0  0  0
  -21.1079  -13.1318   22.2774 H   0  0  0  0  0  0
  -24.6619  -15.8320   20.5185 H   0  0  0  0  0  0
  -26.2799  -15.6117   20.0957 H   0  0  0  0  0  0
  -26.7082  -32.5563   23.1170 H   0  0  0  0  0  0
  -25.0058  -33.9836   25.0485 H   0  0  0  0  0  0
  -22.6933  -31.3028   21.4077 H   0  0  0  0  0  0
  -23.3753  -35.9631   23.3292 H   0  0  0  0  0  0
  -24.3568  -36.8940   22.2046 H   0  0  0  0  0  0
  -23.7212  -37.6515   23.6657 H   0  0  0  0  0  0
  -26.0222  -31.5983   20.5797 H   0  0  0  0  0  0
  -26.8247  -30.9110   21.9628 H   0  0  0  0  0  0
  -28.1069  -29.1166   21.1691 H   0  0  0  0  0  0
  -26.0601  -25.9645   19.0405 H   0  0  0  0  0  0
  -23.9979  -27.2837   19.0431 H   0  0  0  0  0  0
  -23.7164  -30.5877   19.4052 H   0  0  0  0  0  0
  -22.7417  -29.2274   19.8742 H   0  0  0  0  0  0
  -25.1277  -36.2003   25.0831 H   0  0  0  0  0  0
  -20.9930  -28.3215   24.1472 H   0  0  0  0  0  0
  -20.5710  -26.2266   23.3617 H   0  0  0  0  0  0
  -21.6629  -26.7480   22.1206 H   0  0  0  0  0  0
  -19.6931  -25.6307   21.1252 H   0  0  0  0  0  0
  -19.6693  -27.3226   20.6797 H   0  0  0  0  0  0
  -17.4200  -26.6684   21.4006 H   0  0  0  0  0  0
  -18.0286  -26.0034   22.9004 H   0  0  0  0  0  0
  -19.7911  -30.7264   24.2281 H   0  0  0  0  0  0
  -17.4999  -31.6278   24.5179 H   0  0  0  0  0  0
  -15.5338  -30.3025   23.7654 H   0  0  0  0  0  0
  -15.8629  -28.0884   22.7022 H   0  0  0  0  0  0
  -24.5886  -30.7062   25.7830 H   0  0  0  0  0  0
  -24.8922  -32.2867   26.4944 H   0  0  0  0  0  0
  -25.8084  -30.8879   27.0228 H   0  0  0  0  0  0
  -26.2783  -29.6850   24.1076 H   0  0  0  0  0  0
  -27.4042  -29.7257   25.4466 H   0  0  0  0  0  0
  -27.8606  -30.4393   23.9150 H   0  0  0  0  0  0
  -27.2640  -33.3649   26.2022 H   0  0  0  0  0  0
  -28.3837  -32.6863   25.0302 H   0  0  0  0  0  0
  -28.0661  -31.8467   26.5415 H   0  0  0  0  0  0
  -28.2591  -38.0113   24.7543 H   0  0  0  0  0  0
  -28.1080  -36.2658   24.6245 H   0  0  0  0  0  0
  -27.2306  -37.1410   25.8863 H   0  0  0  0  0  0
  -20.9313  -29.8754   21.6981 H   0  0  0  0  0  0
  -26.0176  -38.2887   24.1457 H   0  0  0  0  0  0
  -31.5753  -15.8204   22.6758 H   0  0  0  0  0  0
  -30.0911  -20.2500   24.8836 H   0  0  0  0  0  0
  -31.4792  -20.8355   23.9597 H   0  0  0  0  0  0
  -31.6806  -19.5311   25.1245 H   0  0  0  0  0  0
  -31.3146  -24.5023   17.6268 H   0  0  0  0  0  0
  -29.5732  -24.4278   17.8519 H   0  0  0  0  0  0
  -30.5825  -23.0685   18.3191 H   0  0  0  0  0  0
  -31.7550  -22.2321   20.0788 H   0  0  0  0  0  0
  -30.7214  -20.9176   19.5094 H   0  0  0  0  0  0
  -31.8360  -20.6698   20.8444 H   0  0  0  0  0  0
  -30.7669  -17.6550   18.6377 H   0  0  0  0  0  0
  -31.1196  -16.0335   18.0859 H   0  0  0  0  0  0
  -32.1636  -16.8160   19.2602 H   0  0  0  0  0  0
  -28.5376  -17.1726   19.2753 H   0  0  0  0  0  0
  -28.0994  -15.8776   20.3468 H   0  0  0  0  0  0
  -28.7184  -15.5778   18.6690 H   0  0  0  0  0  0
  -28.2453  -20.1123   19.9804 H   0  0  0  0  0  0
  -27.2598  -21.1668   20.9768 H   0  0  0  0  0  0
  -27.3733  -19.4784   21.3739 H   0  0  0  0  0  0
  -30.9742  -24.5244   22.4238 H   0  0  0  0  0  0
  -29.3079  -24.8630   22.8744 H   0  0  0  0  0  0
  -30.2727  -26.0835   22.0579 H   0  0  0  0  0  0
  -30.8223  -25.8450   19.5775 H   0  0  0  0  0  0
  -31.6753  -24.4499   20.0976 H   0  0  0  0  0  0
  -28.2742  -23.0062   21.4873 H   0  0  0  0  0  0
  -28.7525  -22.6762   19.8595 H   0  0  0  0  0  0
  -27.5077  -25.0833   21.0397 H   0  0  0  0  0  0
  -27.9311  -24.8758   19.3556 H   0  0  0  0  0  0
  -30.5768  -22.2033   22.2544 H   0  0  0  0  0  0
  1 25  1  0  0  0
  1 30  2  0  0  0
  1 86  1  0  0  0
  2  3  1  0  0  0
  2 25  1  0  0  0
  2 92  1  0  0  0
  2 93  1  0  0  0
  3  4  1  0  0  0
  3 94  1  0  0  0
  3 95  1  0  0  0
  4  5  1  0  0  0
  4 96  1  0  0  0
  4 97  1  0  0  0
  5  6  1  0  0  0
  5 26  1  0  0  0
  5 98  1  0  0  0
  6 25  1  0  0  0
  6 99  1  0  0  0
  6100  1  0  0  0
  7  8  2  0  0  0
  7 26  1  0  0  0
  7 29  1  0  0  0
  8  9  1  0  0  0
  8 22  1  0  0  0
  9 10  1  0  0  0
  9 27  2  0  0  0
 10 11  2  0  0  0
 10 15  1  0  0  0
 11 12  1  0  0  0
 11101  1  0  0  0
 12 13  2  0  0  0
 12102  1  0  0  0
 13 14  1  0  0  0
 13 31  1  0  0  0
 14 15  2  0  0  0
 14103  1  0  0  0
 15104  1  0  0  0
 16 17  2  0  0  0
 16 21  1  0  0  0
 16 31  1  0  0  0
 17 18  1  0  0  0
 17105  1  0  0  0
 18 19  2  0  0  0
 18106  1  0  0  0
 19 20  1  0  0  0
 19 24  1  0  0  0
 20 21  2  0  0  0
 20107  1  0  0  0
 21 23  1  0  0  0
 22 28  1  0  0  0
 22 32  2  0  0  0
 26 27  1  0  0  0
 28108  1  0  0  0
 28109  1  0  0  0
 29110  1  0  0  0
 29111  1  0  0  0
 33 34  1  0  0  0
 33 66  1  0  0  0
 33 70  2  0  0  0
 34 36  1  0  0  0
 34 59  1  0  0  0
 34112  1  0  0  0
 35 44  2  0  0  0
 35 45  1  0  0  0
 35 68  1  0  0  0
 36 56  1  0  0  0
 36113  1  0  0  0
 37 39  1  0  0  0
 37 47  1  0  0  0
 37 66  1  0  0  0
 37114  1  0  0  0
 38 43  2  0  0  0
 38 46  1  0  0  0
 38 47  1  0  0  0
 39 64  1  0  0  0
 39 67  2  0  0  0
 40 52  1  0  0  0
 40 53  2  0  0  0
 40 58  1  0  0  0
 41115  1  0  0  0
 41116  1  0  0  0
 41117  1  0  0  0
 41 48  1  0  0  0
 42 43  1  0  0  0
 42 66  1  0  0  0
 42118  1  0  0  0
 42119  1  0  0  0
 43 44  1  0  0  0
 44120  1  0  0  0
 45 46  2  0  0  0
 45121  1  0  0  0
 46122  1  0  0  0
 47123  1  0  0  0
 47124  1  0  0  0
 48 56  1  0  0  0
 48 65  1  0  0  0
 48125  1  0  0  0
 49 50  1  0  0  0
 49 53  1  0  0  0
 49 64  1  0  0  0
 49126  1  0  0  0
 50 51  1  0  0  0
 50127  1  0  0  0
 50128  1  0  0  0
 51 52  1  0  0  0
 51129  1  0  0  0
 51130  1  0  0  0
 52131  1  0  0  0
 52132  1  0  0  0
 53 54  1  0  0  0
 54 55  2  0  0  0
 54133  1  0  0  0
 55 57  1  0  0  0
 55134  1  0  0  0
 56 69  2  0  0  0
 57 58  2  0  0  0
 57135  1  0  0  0
 58136  1  0  0  0
 59 60  1  0  0  0
 59 61  1  0  0  0
 59 62  1  0  0  0
 60137  1  0  0  0
 60138  1  0  0  0
 60139  1  0  0  0
 61140  1  0  0  0
 61141  1  0  0  0
 61142  1  0  0  0
 62143  1  0  0  0
 62144  1  0  0  0
 62145  1  0  0  0
 63 65  1  0  0  0
 63146  1  0  0  0
 63147  1  0  0  0
 63148  1  0  0  0
 64149  1  0  0  0
 65150  1  0  0  0
 68 84  1  0  0  0
 71 72  2  0  0  0
 71 89  1  0  0  0
 71151  1  0  0  0
 72 86  1  0  0  0
 72 90  1  0  0  0
 73 74  1  0  0  0
 73 75  1  0  0  0
 73 89  2  0  0  0
 74 87  1  0  0  0
 74 90  2  0  0  0
 75152  1  0  0  0
 75153  1  0  0  0
 75154  1  0  0  0
 76 82  1  0  0  0
 76155  1  0  0  0
 76156  1  0  0  0
 76157  1  0  0  0
 77158  1  0  0  0
 77159  1  0  0  0
 77160  1  0  0  0
 77 85  1  0  0  0
 78161  1  0  0  0
 78162  1  0  0  0
 78163  1  0  0  0
 78 86  1  0  0  0
 79 86  1  0  0  0
 79164  1  0  0  0
 79165  1  0  0  0
 79166  1  0  0  0
 80167  1  0  0  0
 80168  1  0  0  0
 80169  1  0  0  0
 80 87  1  0  0  0
 81170  1  0  0  0
 81171  1  0  0  0
 81172  1  0  0  0
 81 88  1  0  0  0
 82 88  1  0  0  0
 82173  1  0  0  0
 82174  1  0  0  0
 83 85  1  0  0  0
 83 88  1  0  0  0
 83175  1  0  0  0
 83176  1  0  0  0
 84 88  1  0  0  0
 84177  1  0  0  0
 84178  1  0  0  0
 85 87  1  0  0  0
 85179  1  0  0  0
 87 91  1  0  0  0
M  ISO  4   1 100  68 101  84 101  86 100
M  END
> <chiral flag>
0

> <version>
0

> <s_m_source_file>
/data/baiqing/PycharmProjects/Reinvent-master-3.2/result/LINK_invent/BTK/process_docking_weight1_custom_sum_contain_oxygen_bond_distance_aromatic_linkinvent_7_9_3/rearranged_h_0066.sdf

> <i_m_source_file_index>
2

> <r_mmod_Potential_Energy-OPLS-2005>
318.311218261719

> <r_mmod_Stretch_Energy-OPLS-2005>
64.3208847045898

> <r_mmod_Bend_Energy-OPLS-2005>
169.061431884766

> <r_mmod_Torsional_Energy-OPLS-2005>
240.842071533203

> <r_mmod_Improper_Torsional_Energy-OPLS-2005>
9.24555683135986

> <r_mmod_Van_der_Waal_Energy-OPLS-2005>
187.531814575195

> <r_mmod_Electrostatic_Energy-OPLS-2005>
-234.277099609375

> <r_mmod_Solvation_Energy-OPLS-2005>
-177.236572265625

> <b_mmod_Minimization_Converged-OPLS-2005>
0

> <r_mmod_RMS_Derivative-OPLS-2005>
4.15866184234619

$$$$
2
                    3D
 Structure written by MMmdl.
180188  0  0  1  0            999 V2000
  -30.8528  -14.4337   20.6725 C   0  0  0  0  0  0
  -30.4050  -12.3255   19.4421 C   0  0  0  0  0  0
  -29.4951  -12.5321   18.2168 C   0  0  0  0  0  0
  -28.0217  -12.3535   18.6202 C   0  0  0  0  0  0
  -27.6556  -13.2157   19.8524 C   0  0  2  0  0  0
  -28.6899  -13.0525   20.9822 C   0  0  0  0  0  0
  -25.2564  -13.8196   20.5670 C   0  0  0  0  0  0
  -24.1822  -13.0444   20.9194 C   0  0  0  0  0  0
  -24.6397  -11.6924   20.8739 C   0  0  0  0  0  0
  -23.9072  -10.4294   21.0411 C   0  0  0  0  0  0
  -24.3613   -9.4198   21.9200 C   0  0  0  0  0  0
  -23.6292   -8.2229   22.0752 C   0  0  0  0  0  0
  -22.4260   -8.0279   21.3564 C   0  0  0  0  0  0
  -21.9909   -9.0257   20.4650 C   0  0  0  0  0  0
  -22.7227  -10.2147   20.3070 C   0  0  0  0  0  0
  -21.6855   -6.0744   22.5287 C   0  0  0  0  0  0
  -21.4004   -6.5652   23.8223 C   0  0  0  0  0  0
  -21.3658   -5.6809   24.9188 C   0  0  0  0  0  0
  -21.6028   -4.3063   24.7230 C   0  0  0  0  0  0
  -21.8831   -3.8170   23.4344 C   0  0  0  0  0  0
  -21.9186   -4.6984   22.3408 C   0  0  0  0  0  0
  -22.7853  -13.5246   21.1863 C   0  0  0  0  0  0
  -22.1670   -4.2160   21.0999 F   0  0  0  0  0  0
  -21.5608   -3.4545   25.7754 F   0  0  0  0  0  0
  -30.0437  -13.3414   20.4623 N   0  0  0  0  0  0
  -26.2982  -12.9357   20.3262 N   0  0  0  0  0  0
  -25.9316  -11.6512   20.5722 N   0  0  0  0  0  0
  -22.0520  -12.8228   22.0458 N   0  0  0  0  0  0
  -25.4348  -15.1891   20.4067 N   0  0  0  0  0  0
  -31.9119  -14.5301   20.0523 O   0  0  0  0  0  0
  -21.6631   -6.8874   21.4247 O   0  0  0  0  0  0
  -22.3517  -14.5544   20.6738 O   0  0  0  0  0  0
  -24.6172  -31.8729   23.2083 C   0  0  0  0  0  0
  -25.9090  -32.4833   23.8402 C   0  0  1  0  0  0
  -27.2163  -27.3902   20.0972 C   0  0  0  0  0  0
  -25.5958  -33.8619   24.2334 N   0  0  0  0  0  0
  -23.4069  -30.4955   21.5488 C   0  0  2  0  0  0
  -24.8497  -28.9588   20.1088 C   0  0  0  0  0  0
  -22.7385  -29.4738   22.4975 C   0  0  0  0  0  0
  -18.0288  -28.1414   22.8471 C   0  0  0  0  0  0
  -24.1517  -36.7289   23.2633 C   0  0  0  0  0  0
  -25.9415  -30.8125   21.3798 C   0  0  0  0  0  0
  -26.0112  -29.4476   20.7162 C   0  0  0  0  0  0
  -27.1932  -28.6678   20.7132 C   0  0  0  0  0  0
  -26.0285  -26.9243   19.4846 C   0  0  0  0  0  0
  -24.8527  -27.6952   19.4968 C   0  0  0  0  0  0
  -23.6144  -29.8313   20.1631 C   0  0  0  0  0  0
  -25.4140  -36.3100   24.0336 C   0  0  1  0  0  0
  -20.5874  -28.3716   23.1301 C   0  0  2  0  0  0
  -20.6783  -26.9448   22.5439 C   0  0  0  0  0  0
  -19.5817  -26.6399   21.5195 C   0  0  0  0  0  0
  -18.1960  -26.7973   22.1564 C   0  0  0  0  0  0
  -19.1529  -28.8877   23.2894 C   0  0  0  0  0  0
  -18.9460  -30.1470   23.8938 C   0  0  0  0  0  0
  -17.6464  -30.6614   24.0564 C   0  0  0  0  0  0
  -25.9064  -34.9478   23.5112 C   0  0  0  0  0  0
  -16.5354  -29.9109   23.6345 C   0  0  0  0  0  0
  -16.7266  -28.6524   23.0360 C   0  0  0  0  0  0
  -26.4496  -31.6641   25.0740 C   0  0  0  0  0  0
  -25.3728  -31.3778   26.1460 C   0  0  0  0  0  0
  -27.0362  -30.3078   24.6218 C   0  0  0  0  0  0
  -27.6112  -32.4345   25.7461 C   0  0  0  0  0  0
  -27.5614  -37.1798   24.8450 C   0  0  0  0  0  0
  -21.4119  -29.3068   22.3664 N   0  0  0  0  0  0
  -26.4327  -37.3778   23.9400 N   0  0  0  0  0  0
  -24.6731  -31.0755   22.1031 N   0  0  0  0  0  0
  -23.4104  -28.8313   23.3073 O   0  0  0  0  0  0
  -28.3762  -26.6328   20.1509 O   0  0  0  0  0  0
  -26.5575  -34.8930   22.4639 O   0  0  0  0  0  0
  -23.5368  -32.1565   23.7409 O   0  0  0  0  0  0
  -29.5732  -20.7806   20.8935 C   0  0  0  0  0  0
  -29.7170  -19.3245   19.2912 C   0  0  0  0  0  0
  -29.2341  -20.5927   19.5202 C   0  0  0  0  0  0
  -28.3765  -19.8818   16.3587 C   0  0  0  0  0  0
  -29.1513  -22.2047   15.9672 C   0  0  0  0  0  0
  -27.0279  -23.8007   20.5076 C   0  0  0  0  0  0
  -26.9961  -21.2153   18.5960 C   0  0  0  0  0  0
  -31.6381  -17.1811   19.0159 C   0  0  0  0  0  0
  -32.7838  -18.5364   20.7309 C   0  0  0  0  0  0
  -30.0958  -15.0752   22.8998 C   0  0  0  0  0  0
  -28.7770  -23.0592   18.6712 C   0  0  0  0  0  0
  -31.2805  -16.7383   21.6042 C   0  0  0  0  0  0
  -28.5528  -25.4928   19.2795 C   0  0  0  0  0  0
  -29.0584  -21.0965   17.0447 C   0  0  0  0  0  0
  -28.4025  -24.0323   19.8514 C   0  0  1  0  0  0
  -28.5136  -21.5024   18.4973 C   0  0  2  0  0  0
  -31.4550  -17.7950   20.4254 C   0  0  0  0  0  0
  -30.2823  -19.7682   21.4011 N   0  0  0  0  0  0
  -30.4321  -18.8789   20.3828 N   0  0  0  0  0  0
  -30.4971  -15.4468   21.5256 N   0  0  0  0  0  0
  -31.4553  -12.3572   19.1362 H   0  0  0  0  0  0
  -30.2646  -11.3217   19.8514 H   0  0  0  0  0  0
  -29.7523  -11.8235   17.4294 H   0  0  0  0  0  0
  -29.6483  -13.5333   17.8100 H   0  0  0  0  0  0
  -27.8658  -11.3000   18.8551 H   0  0  0  0  0  0
  -27.3621  -12.5889   17.7846 H   0  0  0  0  0  0
  -27.6852  -14.2554   19.5268 H   0  0  0  0  0  0
  -28.6623  -12.0330   21.3717 H   0  0  0  0  0  0
  -28.3780  -13.6885   21.8028 H   0  0  0  0  0  0
  -25.2780   -9.5661   22.4746 H   0  0  0  0  0  0
  -24.0011   -7.4628   22.7478 H   0  0  0  0  0  0
  -21.0829   -8.8760   19.8979 H   0  0  0  0  0  0
  -22.3683  -10.9677   19.6164 H   0  0  0  0  0  0
  -21.1995   -7.6173   23.9711 H   0  0  0  0  0  0
  -21.1466   -6.0562   25.9095 H   0  0  0  0  0  0
  -22.0613   -2.7631   23.2852 H   0  0  0  0  0  0
  -22.4177  -11.9893   22.4820 H   0  0  0  0  0  0
  -21.1211  -13.1307   22.2778 H   0  0  0  0  0  0
  -24.6721  -15.8562   20.4637 H   0  0  0  0  0  0
  -26.3049  -15.6159   20.1115 H   0  0  0  0  0  0
  -26.7113  -32.5517   23.1124 H   0  0  0  0  0  0
  -25.0162  -33.9817   25.0510 H   0  0  0  0  0  0
  -22.7025  -31.3182   21.4070 H   0  0  0  0  0  0
  -23.3798  -35.9603   23.3289 H   0  0  0  0  0  0
  -24.3635  -36.8889   22.2051 H   0  0  0  0  0  0
  -23.7228  -37.6483   23.6628 H   0  0  0  0  0  0
  -26.0776  -31.5845   20.6218 H   0  0  0  0  0  0
  -26.8210  -30.8516   22.0103 H   0  0  0  0  0  0
  -28.0886  -29.0320   21.1965 H   0  0  0  0  0  0
  -25.9709  -25.9562   19.0127 H   0  0  0  0  0  0
  -23.9543  -27.3074   19.0371 H   0  0  0  0  0  0
  -23.7128  -30.6097   19.4061 H   0  0  0  0  0  0
  -22.7361  -29.2555   19.8710 H   0  0  0  0  0  0
  -25.1312  -36.2007   25.0828 H   0  0  0  0  0  0
  -20.9971  -28.3315   24.1424 H   0  0  0  0  0  0
  -20.5707  -26.2300   23.3615 H   0  0  0  0  0  0
  -21.6652  -26.7527   22.1245 H   0  0  0  0  0  0
  -19.7005  -25.6293   21.1284 H   0  0  0  0  0  0
  -19.6820  -27.3143   20.6684 H   0  0  0  0  0  0
  -17.4242  -26.6722   21.3946 H   0  0  0  0  0  0
  -18.0383  -26.0124   22.8983 H   0  0  0  0  0  0
  -19.7936  -30.7275   24.2316 H   0  0  0  0  0  0
  -17.5023  -31.6314   24.5143 H   0  0  0  0  0  0
  -15.5363  -30.3011   23.7689 H   0  0  0  0  0  0
  -15.8653  -28.0843   22.7082 H   0  0  0  0  0  0
  -24.5926  -30.7101   25.7774 H   0  0  0  0  0  0
  -24.8864  -32.2928   26.4857 H   0  0  0  0  0  0
  -25.8058  -30.8973   27.0238 H   0  0  0  0  0  0
  -26.2951  -29.6770   24.1295 H   0  0  0  0  0  0
  -27.4113  -29.7424   25.4762 H   0  0  0  0  0  0
  -27.8780  -30.4356   23.9415 H   0  0  0  0  0  0
  -27.2816  -33.3662   26.2070 H   0  0  0  0  0  0
  -28.3900  -32.6886   25.0255 H   0  0  0  0  0  0
  -28.0823  -31.8429   26.5332 H   0  0  0  0  0  0
  -28.2592  -38.0126   24.7538 H   0  0  0  0  0  0
  -28.1152  -36.2661   24.6239 H   0  0  0  0  0  0
  -27.2337  -37.1396   25.8848 H   0  0  0  0  0  0
  -20.9274  -29.8643   21.6775 H   0  0  0  0  0  0
  -26.0242  -38.2865   24.1382 H   0  0  0  0  0  0
  -29.3729  -21.6359   21.5242 H   0  0  0  0  0  0
  -29.6991  -18.7368   18.3887 H   0  0  0  0  0  0
  -29.0737  -19.4297   15.6522 H   0  0  0  0  0  0
  -27.4932  -20.1707   15.7848 H   0  0  0  0  0  0
  -28.0653  -19.0869   17.0348 H   0  0  0  0  0  0
  -29.8629  -22.9926   16.2223 H   0  0  0  0  0  0
  -28.1857  -22.6665   15.7528 H   0  0  0  0  0  0
  -29.5144  -21.7736   15.0343 H   0  0  0  0  0  0
  -27.0254  -22.8744   21.0815 H   0  0  0  0  0  0
  -26.2218  -23.7432   19.7769 H   0  0  0  0  0  0
  -26.7876  -24.6002   21.2093 H   0  0  0  0  0  0
  -26.6478  -21.3065   19.6201 H   0  0  0  0  0  0
  -26.7382  -20.1942   18.3309 H   0  0  0  0  0  0
  -26.4031  -21.8720   17.9582 H   0  0  0  0  0  0
  -32.5537  -16.5956   18.9461 H   0  0  0  0  0  0
  -31.7397  -17.9390   18.2397 H   0  0  0  0  0  0
  -30.8014  -16.5441   18.7354 H   0  0  0  0  0  0
  -33.6525  -17.8793   20.6868 H   0  0  0  0  0  0
  -32.7777  -18.9719   21.7302 H   0  0  0  0  0  0
  -32.9622  -19.3545   20.0293 H   0  0  0  0  0  0
  -30.7434  -15.5096   23.6642 H   0  0  0  0  0  0
  -30.1286  -14.0011   23.0942 H   0  0  0  0  0  0
  -29.0828  -15.4268   23.0930 H   0  0  0  0  0  0
  -28.2222  -23.4977   17.8471 H   0  0  0  0  0  0
  -29.8335  -23.2459   18.4633 H   0  0  0  0  0  0
  -30.9679  -17.3084   22.4796 H   0  0  0  0  0  0
  -32.2858  -16.3894   21.8640 H   0  0  0  0  0  0
  -27.9875  -25.6193   18.3556 H   0  0  0  0  0  0
  -29.5840  -25.5865   18.9385 H   0  0  0  0  0  0
  -30.1128  -20.8258   17.1768 H   0  0  0  0  0  0
  -29.1461  -23.9009   20.6361 H   0  0  0  0  0  0
  1 25  1  0  0  0
  1 30  2  0  0  0
  1 90  1  0  0  0
  2  3  1  0  0  0
  2 25  1  0  0  0
  2 91  1  0  0  0
  2 92  1  0  0  0
  3  4  1  0  0  0
  3 93  1  0  0  0
  3 94  1  0  0  0
  4  5  1  0  0  0
  4 95  1  0  0  0
  4 96  1  0  0  0
  5  6  1  0  0  0
  5 26  1  0  0  0
  5 97  1  0  0  0
  6 25  1  0  0  0
  6 98  1  0  0  0
  6 99  1  0  0  0
  7  8  2  0  0  0
  7 26  1  0  0  0
  7 29  1  0  0  0
  8  9  1  0  0  0
  8 22  1  0  0  0
  9 10  1  0  0  0
  9 27  2  0  0  0
 10 11  2  0  0  0
 10 15  1  0  0  0
 11 12  1  0  0  0
 11100  1  0  0  0
 12 13  2  0  0  0
 12101  1  0  0  0
 13 14  1  0  0  0
 13 31  1  0  0  0
 14 15  2  0  0  0
 14102  1  0  0  0
 15103  1  0  0  0
 16 17  2  0  0  0
 16 21  1  0  0  0
 16 31  1  0  0  0
 17 18  1  0  0  0
 17104  1  0  0  0
 18 19  2  0  0  0
 18105  1  0  0  0
 19 20  1  0  0  0
 19 24  1  0  0  0
 20 21  2  0  0  0
 20106  1  0  0  0
 21 23  1  0  0  0
 22 28  1  0  0  0
 22 32  2  0  0  0
 26 27  1  0  0  0
 28107  1  0  0  0
 28108  1  0  0  0
 29109  1  0  0  0
 29110  1  0  0  0
 33 34  1  0  0  0
 33 66  1  0  0  0
 33 70  2  0  0  0
 34 36  1  0  0  0
 34 59  1  0  0  0
 34111  1  0  0  0
 35 44  2  0  0  0
 35 45  1  0  0  0
 35 68  1  0  0  0
 36 56  1  0  0  0
 36112  1  0  0  0
 37 39  1  0  0  0
 37 47  1  0  0  0
 37 66  1  0  0  0
 37113  1  0  0  0
 38 43  2  0  0  0
 38 46  1  0  0  0
 38 47  1  0  0  0
 39 64  1  0  0  0
 39 67  2  0  0  0
 40 52  1  0  0  0
 40 53  2  0  0  0
 40 58  1  0  0  0
 41114  1  0  0  0
 41115  1  0  0  0
 41116  1  0  0  0
 41 48  1  0  0  0
 42 43  1  0  0  0
 42 66  1  0  0  0
 42117  1  0  0  0
 42118  1  0  0  0
 43 44  1  0  0  0
 44119  1  0  0  0
 45 46  2  0  0  0
 45120  1  0  0  0
 46121  1  0  0  0
 47122  1  0  0  0
 47123  1  0  0  0
 48 56  1  0  0  0
 48 65  1  0  0  0
 48124  1  0  0  0
 49 50  1  0  0  0
 49 53  1  0  0  0
 49 64  1  0  0  0
 49125  1  0  0  0
 50 51  1  0  0  0
 50126  1  0  0  0
 50127  1  0  0  0
 51 52  1  0  0  0
 51128  1  0  0  0
 51129  1  0  0  0
 52130  1  0  0  0
 52131  1  0  0  0
 53 54  1  0  0  0
 54 55  2  0  0  0
 54132  1  0  0  0
 55 57  1  0  0  0
 55133  1  0  0  0
 56 69  2  0  0  0
 57 58  2  0  0  0
 57134  1  0  0  0
 58135  1  0  0  0
 59 60  1  0  0  0
 59 61  1  0  0  0
 59 62  1  0  0  0
 60136  1  0  0  0
 60137  1  0  0  0
 60138  1  0  0  0
 61139  1  0  0  0
 61140  1  0  0  0
 61141  1  0  0  0
 62142  1  0  0  0
 62143  1  0  0  0
 62144  1  0  0  0
 63 65  1  0  0  0
 63145  1  0  0  0
 63146  1  0  0  0
 63147  1  0  0  0
 64148  1  0  0  0
 65149  1  0  0  0
 68 83  1  0  0  0
 71 73  1  0  0  0
 71 88  2  0  0  0
 71150  1  0  0  0
 72 73  2  0  0  0
 72 89  1  0  0  0
 72151  1  0  0  0
 73 86  1  0  0  0
 74152  1  0  0  0
 74153  1  0  0  0
 74154  1  0  0  0
 74 84  1  0  0  0
 75 84  1  0  0  0
 75155  1  0  0  0
 75156  1  0  0  0
 75157  1  0  0  0
 76158  1  0  0  0
 76159  1  0  0  0
 76160  1  0  0  0
 76 85  1  0  0  0
 77161  1  0  0  0
 77162  1  0  0  0
 77163  1  0  0  0
 77 86  1  0  0  0
 78164  1  0  0  0
 78165  1  0  0  0
 78166  1  0  0  0
 78 87  1  0  0  0
 79 87  1  0  0  0
 79167  1  0  0  0
 79168  1  0  0  0
 79169  1  0  0  0
 80 90  1  0  0  0
 80170  1  0  0  0
 80171  1  0  0  0
 80172  1  0  0  0
 81 85  1  0  0  0
 81 86  1  0  0  0
 81173  1  0  0  0
 81174  1  0  0  0
 82 87  1  0  0  0
 82 90  1  0  0  0
 82175  1  0  0  0
 82176  1  0  0  0
 83 85  1  0  0  0
 83177  1  0  0  0
 83178  1  0  0  0
 84 86  1  0  0  0
 84179  1  0  0  0
 85180  1  0  0  0
 87 89  1  0  0  0
 88 89  1  0  0  0
M  ISO  4   1 100  68 101  83 101  90 100
M  END
> <chiral flag>
0

> <version>
0

> <s_m_source_file>
/data/baiqing/PycharmProjects/Reinvent-master-3.2/result/LINK_invent/BTK/process_docking_weight1_custom_sum_contain_oxygen_bond_distance_aromatic_linkinvent_7_9_3/rearranged_h_0066.sdf

> <i_m_source_file_index>
3

> <r_mmod_Potential_Energy-OPLS-2005>
284.385223388672

> <r_mmod_Stretch_Energy-OPLS-2005>
74.3076324462891

> <r_mmod_Bend_Energy-OPLS-2005>
232.850997924805

> <r_mmod_Torsional_Energy-OPLS-2005>
324.734771728516

> <r_mmod_Improper_Torsional_Energy-OPLS-2005>
7.22953319549561

> <r_mmod_Van_der_Waal_Energy-OPLS-2005>
182.229782104492

> <r_mmod_Electrostatic_Energy-OPLS-2005>
-377.093231201172

> <r_mmod_Solvation_Energy-OPLS-2005>
-182.636260986328

> <b_mmod_Minimization_Converged-OPLS-2005>
0

> <r_mmod_RMS_Derivative-OPLS-2005>
6.2758584022522

$$$$
3
                    3D
 Structure written by MMmdl.
165173  0  0  1  0            999 V2000
  -30.5147  -14.8794   20.3926 C   0  0  0  0  0  0
  -30.5084  -12.5116   19.4709 C   0  0  0  0  0  0
  -29.5416  -12.3370   18.2610 C   0  0  0  0  0  0
  -28.0383  -12.2612   18.6564 C   0  0  0  0  0  0
  -27.6421  -13.1313   19.8802 C   0  0  2  0  0  0
  -28.7410  -13.0364   20.9639 C   0  0  0  0  0  0
  -25.2288  -13.7762   20.5370 C   0  0  0  0  0  0
  -24.1666  -13.0165   20.9242 C   0  0  0  0  0  0
  -24.6272  -11.6672   20.8945 C   0  0  0  0  0  0
  -23.8953  -10.4146   21.0542 C   0  0  0  0  0  0
  -24.3540   -9.4067   21.9280 C   0  0  0  0  0  0
  -23.6231   -8.2107   22.0797 C   0  0  0  0  0  0
  -22.4221   -8.0200   21.3559 C   0  0  0  0  0  0
  -21.9851   -9.0179   20.4664 C   0  0  0  0  0  0
  -22.7175  -10.2049   20.3114 C   0  0  0  0  0  0
  -21.6801   -6.0695   22.5288 C   0  0  0  0  0  0
  -21.3981   -6.5614   23.8221 C   0  0  0  0  0  0
  -21.3648   -5.6782   24.9190 C   0  0  0  0  0  0
  -21.6045   -4.3046   24.7239 C   0  0  0  0  0  0
  -21.8827   -3.8129   23.4367 C   0  0  0  0  0  0
  -21.9180   -4.6937   22.3416 C   0  0  0  0  0  0
  -22.7708  -13.5048   21.1875 C   0  0  0  0  0  0
  -22.1647   -4.2128   21.0992 F   0  0  0  0  0  0
  -21.5638   -3.4538   25.7748 F   0  0  0  0  0  0
  -30.0029  -13.5675   20.3901 N   0  0  0  0  0  0
  -26.2886  -12.8869   20.3530 N   0  0  0  0  0  0
  -25.9210  -11.6147   20.6138 N   0  0  0  0  0  0
  -22.0353  -12.8115   22.0465 N   0  0  0  0  0  0
  -25.3281  -15.1405   20.2904 N   0  0  0  0  0  0
  -31.7239  -15.0056   20.1526 O   0  0  0  0  0  0
  -21.6584   -6.8811   21.4236 O   0  0  0  0  0  0
  -22.3446  -14.5398   20.6747 O   0  0  0  0  0  0
  -24.6246  -31.8589   23.2010 C   0  0  0  0  0  0
  -25.9090  -32.4774   23.8348 C   0  0  1  0  0  0
  -27.2633  -27.3375   20.1304 C   0  0  0  0  0  0
  -25.5911  -33.8571   24.2278 N   0  0  0  0  0  0
  -23.4208  -30.4777   21.5419 C   0  0  2  0  0  0
  -24.8770  -28.9269   20.1180 C   0  0  0  0  0  0
  -22.7469  -29.4623   22.4944 C   0  0  0  0  0  0
  -18.0311  -28.1359   22.8478 C   0  0  0  0  0  0
  -24.1487  -36.7296   23.2641 C   0  0  0  0  0  0
  -25.9581  -30.7967   21.3681 C   0  0  0  0  0  0
  -26.0411  -29.4224   20.7166 C   0  0  0  0  0  0
  -27.2343  -28.6424   20.7073 C   0  0  0  0  0  0
  -26.0699  -26.8829   19.5175 C   0  0  0  0  0  0
  -24.8925  -27.6618   19.5081 C   0  0  0  0  0  0
  -23.6391  -29.8016   20.1614 C   0  0  0  0  0  0
  -25.4108  -36.3080   24.0332 C   0  0  1  0  0  0
  -20.5902  -28.3685   23.1281 C   0  0  2  0  0  0
  -20.6803  -26.9411   22.5410 C   0  0  0  0  0  0
  -19.5779  -26.6369   21.5217 C   0  0  0  0  0  0
  -18.1959  -26.7902   22.1630 C   0  0  0  0  0  0
  -19.1558  -28.8831   23.2875 C   0  0  0  0  0  0
  -18.9483  -30.1429   23.8891 C   0  0  0  0  0  0
  -17.6486  -30.6561   24.0560 C   0  0  0  0  0  0
  -25.9039  -34.9450   23.5105 C   0  0  0  0  0  0
  -16.5377  -29.9064   23.6326 C   0  0  0  0  0  0
  -16.7297  -28.6480   23.0343 C   0  0  0  0  0  0
  -26.4490  -31.6577   25.0707 C   0  0  0  0  0  0
  -25.3729  -31.3709   26.1436 C   0  0  0  0  0  0
  -27.0335  -30.3004   24.6143 C   0  0  0  0  0  0
  -27.6040  -32.4321   25.7488 C   0  0  0  0  0  0
  -27.5575  -37.1801   24.8464 C   0  0  0  0  0  0
  -21.4181  -29.3056   22.3686 N   0  0  0  0  0  0
  -26.4290  -37.3774   23.9405 N   0  0  0  0  0  0
  -24.6861  -31.0613   22.0945 N   0  0  0  0  0  0
  -23.4184  -28.8165   23.3030 O   0  0  0  0  0  0
  -28.4209  -26.5389   20.1647 O   0  0  0  0  0  0
  -26.5614  -34.8920   22.4676 O   0  0  0  0  0  0
  -23.5408  -32.1374   23.7347 O   0  0  0  0  0  0
  -28.5193  -18.5851   20.1082 C   0  0  0  0  0  0
  -29.7123  -17.8280   20.3968 C   0  0  0  0  0  0
  -28.4912  -22.3805   22.0813 C   0  0  0  0  0  0
  -30.4265  -24.7105   21.6396 C   0  0  0  0  0  0
  -30.3883  -24.2635   19.1803 C   0  0  0  0  0  0
  -30.4289  -21.4357   20.6494 C   0  0  0  0  0  0
  -28.2752  -25.0736   20.3068 C   0  0  0  0  0  0
  -29.2671  -22.5777   20.7528 C   0  0  2  0  0  0
  -29.5058  -16.2133   20.4074 C   0  0  0  0  0  0
  -29.5791  -24.1444   20.4860 C   0  0  0  0  0  0
  -28.8210  -16.1387   18.9421 C   0  0  0  0  0  0
  -28.6779  -16.0886   21.7704 C   0  0  0  0  0  0
  -28.6868  -19.8626   20.1078 N   0  0  0  0  0  0
  -30.6366  -18.7710   20.6713 N   0  0  0  0  0  0
  -29.9522  -20.0090   20.5108 N   0  0  0  0  0  0
  -29.0487  -15.0545   18.2294 F   0  0  0  0  0  0
  -27.4948  -16.2921   18.9554 F   0  0  0  0  0  0
  -29.3198  -17.0382   18.0796 F   0  0  0  0  0  0
  -28.3097  -17.2255   22.3730 F   0  0  0  0  0  0
  -27.5478  -15.4369   21.6340 F   0  0  0  0  0  0
  -29.3948  -15.4760   22.7179 F   0  0  0  0  0  0
  -31.5125  -12.7341   19.1065 H   0  0  0  0  0  0
  -30.6110  -11.5670   20.0079 H   0  0  0  0  0  0
  -29.8041  -11.4107   17.7504 H   0  0  0  0  0  0
  -29.7279  -13.0856   17.4961 H   0  0  0  0  0  0
  -27.8366  -11.2162   18.8988 H   0  0  0  0  0  0
  -27.4045  -12.4935   17.8002 H   0  0  0  0  0  0
  -27.5759  -14.1366   19.5450 H   0  0  0  0  0  0
  -28.8659  -11.9864   21.2330 H   0  0  0  0  0  0
  -28.4766  -13.4616   21.9240 H   0  0  0  0  0  0
  -25.2676   -9.5538   22.4866 H   0  0  0  0  0  0
  -23.9941   -7.4464   22.7490 H   0  0  0  0  0  0
  -21.0797   -8.8700   19.8937 H   0  0  0  0  0  0
  -22.3672  -10.9620   19.6237 H   0  0  0  0  0  0
  -21.1960   -7.6119   23.9718 H   0  0  0  0  0  0
  -21.1461   -6.0510   25.9094 H   0  0  0  0  0  0
  -22.0618   -2.7595   23.2875 H   0  0  0  0  0  0
  -22.3965  -11.9806   22.4923 H   0  0  0  0  0  0
  -21.0997  -13.1211   22.2679 H   0  0  0  0  0  0
  -24.5173  -15.7412   20.3720 H   0  0  0  0  0  0
  -26.1125  -15.5964   19.8445 H   0  0  0  0  0  0
  -26.7159  -32.5465   23.1105 H   0  0  0  0  0  0
  -25.0046  -33.9716   25.0415 H   0  0  0  0  0  0
  -22.7137  -31.2958   21.3912 H   0  0  0  0  0  0
  -23.3741  -35.9639   23.3309 H   0  0  0  0  0  0
  -24.3581  -36.8911   22.2056 H   0  0  0  0  0  0
  -23.7253  -37.6506   23.6655 H   0  0  0  0  0  0
  -26.0795  -31.5577   20.5966 H   0  0  0  0  0  0
  -26.8409  -30.8545   21.9929 H   0  0  0  0  0  0
  -28.1296  -29.0268   21.1751 H   0  0  0  0  0  0
  -26.0274  -25.9180   19.0364 H   0  0  0  0  0  0
  -24.0013  -27.2735   19.0347 H   0  0  0  0  0  0
  -23.7554  -30.5719   19.3983 H   0  0  0  0  0  0
  -22.7622  -29.2239   19.8631 H   0  0  0  0  0  0
  -25.1292  -36.1931   25.0826 H   0  0  0  0  0  0
  -20.9994  -28.3259   24.1401 H   0  0  0  0  0  0
  -20.5713  -26.2295   23.3611 H   0  0  0  0  0  0
  -21.6676  -26.7447   22.1206 H   0  0  0  0  0  0
  -19.6946  -25.6277   21.1249 H   0  0  0  0  0  0
  -19.6697  -27.3175   20.6738 H   0  0  0  0  0  0
  -17.4234  -26.6643   21.4029 H   0  0  0  0  0  0
  -18.0366  -26.0044   22.9027 H   0  0  0  0  0  0
  -19.7961  -30.7242   24.2263 H   0  0  0  0  0  0
  -17.5043  -31.6244   24.5164 H   0  0  0  0  0  0
  -15.5377  -30.2970   23.7635 H   0  0  0  0  0  0
  -15.8703  -28.0798   22.7055 H   0  0  0  0  0  0
  -24.5901  -30.7060   25.7769 H   0  0  0  0  0  0
  -24.8924  -32.2876   26.4862 H   0  0  0  0  0  0
  -25.8063  -30.8888   27.0206 H   0  0  0  0  0  0
  -26.2905  -29.6762   24.1160 H   0  0  0  0  0  0
  -27.4037  -29.7248   25.4638 H   0  0  0  0  0  0
  -27.8771  -30.4303   23.9359 H   0  0  0  0  0  0
  -27.2625  -33.3606   26.2079 H   0  0  0  0  0  0
  -28.3844  -32.6910   25.0317 H   0  0  0  0  0  0
  -28.0715  -31.8440   26.5398 H   0  0  0  0  0  0
  -28.2595  -38.0095   24.7499 H   0  0  0  0  0  0
  -28.1065  -36.2623   24.6297 H   0  0  0  0  0  0
  -27.2292  -37.1466   25.8869 H   0  0  0  0  0  0
  -20.9363  -29.8779   21.6902 H   0  0  0  0  0  0
  -26.0167  -38.2851   24.1400 H   0  0  0  0  0  0
  -27.5118  -18.2469   19.9172 H   0  0  0  0  0  0
  -27.6109  -23.0154   22.1534 H   0  0  0  0  0  0
  -29.1179  -22.5835   22.9497 H   0  0  0  0  0  0
  -28.1287  -21.3594   22.1941 H   0  0  0  0  0  0
  -30.7608  -25.7257   21.4225 H   0  0  0  0  0  0
  -31.3147  -24.1042   21.8176 H   0  0  0  0  0  0
  -29.8629  -24.7572   22.5708 H   0  0  0  0  0  0
  -29.8604  -23.7990   18.3464 H   0  0  0  0  0  0
  -31.3681  -23.7932   19.2584 H   0  0  0  0  0  0
  -30.5608  -25.3065   18.9134 H   0  0  0  0  0  0
  -31.0582  -21.6280   19.7832 H   0  0  0  0  0  0
  -31.0848  -21.4894   21.5189 H   0  0  0  0  0  0
  -27.6130  -24.9281   21.1589 H   0  0  0  0  0  0
  -27.7363  -24.6911   19.4404 H   0  0  0  0  0  0
  -28.5602  -22.3507   19.9542 H   0  0  0  0  0  0
  1 25  1  0  0  0
  1 30  2  0  0  0
  1 79  1  0  0  0
  2  3  1  0  0  0
  2 25  1  0  0  0
  2 92  1  0  0  0
  2 93  1  0  0  0
  3  4  1  0  0  0
  3 94  1  0  0  0
  3 95  1  0  0  0
  4  5  1  0  0  0
  4 96  1  0  0  0
  4 97  1  0  0  0
  5  6  1  0  0  0
  5 26  1  0  0  0
  5 98  1  0  0  0
  6 25  1  0  0  0
  6 99  1  0  0  0
  6100  1  0  0  0
  7  8  2  0  0  0
  7 26  1  0  0  0
  7 29  1  0  0  0
  8  9  1  0  0  0
  8 22  1  0  0  0
  9 10  1  0  0  0
  9 27  2  0  0  0
 10 11  2  0  0  0
 10 15  1  0  0  0
 11 12  1  0  0  0
 11101  1  0  0  0
 12 13  2  0  0  0
 12102  1  0  0  0
 13 14  1  0  0  0
 13 31  1  0  0  0
 14 15  2  0  0  0
 14103  1  0  0  0
 15104  1  0  0  0
 16 17  2  0  0  0
 16 21  1  0  0  0
 16 31  1  0  0  0
 17 18  1  0  0  0
 17105  1  0  0  0
 18 19  2  0  0  0
 18106  1  0  0  0
 19 20  1  0  0  0
 19 24  1  0  0  0
 20 21  2  0  0  0
 20107  1  0  0  0
 21 23  1  0  0  0
 22 28  1  0  0  0
 22 32  2  0  0  0
 26 27  1  0  0  0
 28108  1  0  0  0
 28109  1  0  0  0
 29110  1  0  0  0
 29111  1  0  0  0
 33 34  1  0  0  0
 33 66  1  0  0  0
 33 70  2  0  0  0
 34 36  1  0  0  0
 34 59  1  0  0  0
 34112  1  0  0  0
 35 44  2  0  0  0
 35 45  1  0  0  0
 35 68  1  0  0  0
 36 56  1  0  0  0
 36113  1  0  0  0
 37 39  1  0  0  0
 37 47  1  0  0  0
 37 66  1  0  0  0
 37114  1  0  0  0
 38 43  2  0  0  0
 38 46  1  0  0  0
 38 47  1  0  0  0
 39 64  1  0  0  0
 39 67  2  0  0  0
 40 52  1  0  0  0
 40 53  2  0  0  0
 40 58  1  0  0  0
 41115  1  0  0  0
 41116  1  0  0  0
 41117  1  0  0  0
 41 48  1  0  0  0
 42 43  1  0  0  0
 42 66  1  0  0  0
 42118  1  0  0  0
 42119  1  0  0  0
 43 44  1  0  0  0
 44120  1  0  0  0
 45 46  2  0  0  0
 45121  1  0  0  0
 46122  1  0  0  0
 47123  1  0  0  0
 47124  1  0  0  0
 48 56  1  0  0  0
 48 65  1  0  0  0
 48125  1  0  0  0
 49 50  1  0  0  0
 49 53  1  0  0  0
 49 64  1  0  0  0
 49126  1  0  0  0
 50 51  1  0  0  0
 50127  1  0  0  0
 50128  1  0  0  0
 51 52  1  0  0  0
 51129  1  0  0  0
 51130  1  0  0  0
 52131  1  0  0  0
 52132  1  0  0  0
 53 54  1  0  0  0
 54 55  2  0  0  0
 54133  1  0  0  0
 55 57  1  0  0  0
 55134  1  0  0  0
 56 69  2  0  0  0
 57 58  2  0  0  0
 57135  1  0  0  0
 58136  1  0  0  0
 59 60  1  0  0  0
 59 61  1  0  0  0
 59 62  1  0  0  0
 60137  1  0  0  0
 60138  1  0  0  0
 60139  1  0  0  0
 61140  1  0  0  0
 61141  1  0  0  0
 61142  1  0  0  0
 62143  1  0  0  0
 62144  1  0  0  0
 62145  1  0  0  0
 63 65  1  0  0  0
 63146  1  0  0  0
 63147  1  0  0  0
 63148  1  0  0  0
 64149  1  0  0  0
 65150  1  0  0  0
 68 77  1  0  0  0
 71 72  1  0  0  0
 71 83  2  0  0  0
 71151  1  0  0  0
 72 79  1  0  0  0
 72 84  2  0  0  0
 73152  1  0  0  0
 73153  1  0  0  0
 73154  1  0  0  0
 73 78  1  0  0  0
 74155  1  0  0  0
 74156  1  0  0  0
 74157  1  0  0  0
 74 80  1  0  0  0
 75 80  1  0  0  0
 75158  1  0  0  0
 75159  1  0  0  0
 75160  1  0  0  0
 76 78  1  0  0  0
 76 85  1  0  0  0
 76161  1  0  0  0
 76162  1  0  0  0
 77 80  1  0  0  0
 77163  1  0  0  0
 77164  1  0  0  0
 78 80  1  0  0  0
 78165  1  0  0  0
 79 81  1  0  0  0
 79 82  1  0  0  0
 81 86  1  0  0  0
 81 87  1  0  0  0
 81 88  1  0  0  0
 82 89  1  0  0  0
 82 90  1  0  0  0
 82 91  1  0  0  0
 83 85  1  0  0  0
 84 85  1  0  0  0
M  ISO  4   1 100  68 101  77 101  79 100
M  END
> <chiral flag>
0

> <version>
0

> <s_m_source_file>
/data/baiqing/PycharmProjects/Reinvent-master-3.2/result/LINK_invent/BTK/process_docking_weight1_custom_sum_contain_oxygen_bond_distance_aromatic_linkinvent_7_9_3/rearranged_h_0066.sdf

> <i_m_source_file_index>
4

> <r_mmod_Potential_Energy-OPLS-2005>
794.058776855469

> <r_mmod_Stretch_Energy-OPLS-2005>
175.532531738281

> <r_mmod_Bend_Energy-OPLS-2005>
368.054840087891

> <r_mmod_Torsional_Energy-OPLS-2005>
247.087493896484

> <r_mmod_Improper_Torsional_Energy-OPLS-2005>
7.29875898361206

> <r_mmod_Van_der_Waal_Energy-OPLS-2005>
232.135955810547

> <r_mmod_Electrostatic_Energy-OPLS-2005>
-173.712768554688

> <r_mmod_Solvation_Energy-OPLS-2005>
-170.115203857422

> <b_mmod_Minimization_Converged-OPLS-2005>
0

> <r_mmod_RMS_Derivative-OPLS-2005>
1.92024433612823

$$$$
4
                    3D
 Structure written by MMmdl.
151159  0  0  1  0            999 V2000
  -30.4507  -15.2765   20.3435 C   0  0  0  0  0  0
  -30.4329  -12.8095   19.5353 C   0  0  0  0  0  0
  -29.5384  -12.5720   18.2926 C   0  0  0  0  0  0
  -28.0827  -12.3016   18.7114 C   0  0  0  0  0  0
  -27.6046  -13.2835   19.8087 C   0  0  2  0  0  0
  -28.6314  -13.4837   20.9392 C   0  0  0  0  0  0
  -25.2379  -13.8278   20.5741 C   0  0  0  0  0  0
  -24.1744  -13.0456   20.9256 C   0  0  0  0  0  0
  -24.6402  -11.6947   20.8746 C   0  0  0  0  0  0
  -23.9099  -10.4303   21.0395 C   0  0  0  0  0  0
  -24.3646   -9.4211   21.9172 C   0  0  0  0  0  0
  -23.6316   -8.2246   22.0736 C   0  0  0  0  0  0
  -22.4291   -8.0289   21.3534 C   0  0  0  0  0  0
  -21.9933   -9.0262   20.4631 C   0  0  0  0  0  0
  -22.7267  -10.2140   20.3043 C   0  0  0  0  0  0
  -21.6863   -6.0742   22.5276 C   0  0  0  0  0  0
  -21.4024   -6.5643   23.8213 C   0  0  0  0  0  0
  -21.3662   -5.6791   24.9172 C   0  0  0  0  0  0
  -21.6045   -4.3055   24.7218 C   0  0  0  0  0  0
  -21.8820   -3.8149   23.4338 C   0  0  0  0  0  0
  -21.9197   -4.6968   22.3396 C   0  0  0  0  0  0
  -22.7761  -13.5186   21.1922 C   0  0  0  0  0  0
  -22.1659   -4.2156   21.0968 F   0  0  0  0  0  0
  -21.5633   -3.4536   25.7729 F   0  0  0  0  0  0
  -29.8719  -13.9723   20.3193 N   0  0  0  0  0  0
  -26.2791  -12.9562   20.3154 N   0  0  0  0  0  0
  -25.9334  -11.6653   20.5672 N   0  0  0  0  0  0
  -22.0432  -12.8157   22.0478 N   0  0  0  0  0  0
  -25.4051  -15.2013   20.4223 N   0  0  0  0  0  0
  -31.6847  -15.2131   20.2238 O   0  0  0  0  0  0
  -21.6649   -6.8889   21.4238 O   0  0  0  0  0  0
  -22.3425  -14.5479   20.6755 O   0  0  0  0  0  0
  -24.6660  -31.8238   23.1706 C   0  0  0  0  0  0
  -25.9336  -32.4583   23.8168 C   0  0  1  0  0  0
  -27.2052  -26.9054   20.1584 C   0  0  0  0  0  0
  -25.6009  -33.8395   24.2077 N   0  0  0  0  0  0
  -23.4773  -30.4406   21.5232 C   0  0  2  0  0  0
  -24.9231  -28.8328   20.1149 C   0  0  0  0  0  0
  -22.7672  -29.4450   22.4786 C   0  0  0  0  0  0
  -18.0336  -28.1397   22.8472 C   0  0  0  0  0  0
  -24.1498  -36.7196   23.2646 C   0  0  0  0  0  0
  -26.0521  -30.6255   21.4011 C   0  0  0  0  0  0
  -26.1162  -29.2168   20.7386 C   0  0  0  0  0  0
  -27.2495  -28.2776   20.7317 C   0  0  0  0  0  0
  -25.9538  -26.6748   19.5413 C   0  0  0  0  0  0
  -24.8672  -27.5781   19.5018 C   0  0  0  0  0  0
  -23.7147  -29.7652   20.1477 C   0  0  0  0  0  0
  -25.4141  -36.2952   24.0291 C   0  0  1  0  0  0
  -20.5956  -28.3754   23.1192 C   0  0  2  0  0  0
  -20.6815  -26.9436   22.5403 C   0  0  0  0  0  0
  -19.5785  -26.6374   21.5219 C   0  0  0  0  0  0
  -18.1967  -26.7930   22.1628 C   0  0  0  0  0  0
  -19.1590  -28.8896   23.2820 C   0  0  0  0  0  0
  -18.9494  -30.1489   23.8847 C   0  0  0  0  0  0
  -17.6483  -30.6589   24.0549 C   0  0  0  0  0  0
  -25.9113  -34.9341   23.5000 C   0  0  0  0  0  0
  -16.5381  -29.9069   23.6338 C   0  0  0  0  0  0
  -16.7314  -28.6491   23.0359 C   0  0  0  0  0  0
  -26.4576  -31.6526   25.0699 C   0  0  0  0  0  0
  -25.3704  -31.3786   26.1356 C   0  0  0  0  0  0
  -27.0477  -30.2891   24.6435 C   0  0  0  0  0  0
  -27.6043  -32.4355   25.7521 C   0  0  0  0  0  0
  -27.5567  -37.1758   24.8463 C   0  0  0  0  0  0
  -21.4337  -29.3052   22.3539 N   0  0  0  0  0  0
  -26.4275  -37.3690   23.9404 N   0  0  0  0  0  0
  -24.7543  -30.9894   22.0851 N   0  0  0  0  0  0
  -23.4217  -28.8015   23.3024 O   0  0  0  0  0  0
  -28.2242  -25.8002   20.2265 O   0  0  0  0  0  0
  -26.5701  -34.8880   22.4582 O   0  0  0  0  0  0
  -23.5730  -32.1231   23.6793 O   0  0  0  0  0  0
  -29.7669  -18.1815   20.8657 C   0  0  0  0  0  0
  -28.6980  -18.6066   19.1133 C   0  0  0  0  0  0
  -29.7067  -16.8496   20.2158 C   0  0  0  0  0  0
  -27.8981  -22.8433   17.5102 C   0  0  0  0  0  0
  -29.0341  -22.6212   20.2408 C   0  0  0  0  0  0
  -28.5171  -20.9163   20.5102 C   0  0  0  0  0  0
  -28.2595  -24.1958   19.7343 C   0  0  1  0  0  0
  -27.3641  -23.9074   18.4890 C   0  0  0  0  0  0
  -29.0008  -17.2737   19.0654 N   0  0  0  0  0  0
  -29.0725  -19.3478   20.1856 N   0  0  0  0  0  0
  -27.2719  -24.9919   17.7191 F   0  0  0  0  0  0
  -26.1545  -23.5038   18.8814 F   0  0  0  0  0  0
  -31.4556  -13.0006   19.2076 H   0  0  0  0  0  0
  -30.4871  -11.9120   20.1533 H   0  0  0  0  0  0
  -29.9188  -11.7361   17.7048 H   0  0  0  0  0  0
  -29.5773  -13.4497   17.6460 H   0  0  0  0  0  0
  -28.0321  -11.2797   19.0886 H   0  0  0  0  0  0
  -27.4200  -12.3400   17.8455 H   0  0  0  0  0  0
  -27.5123  -14.2445   19.3005 H   0  0  0  0  0  0
  -28.7915  -12.5618   21.5006 H   0  0  0  0  0  0
  -28.2671  -14.2258   21.6517 H   0  0  0  0  0  0
  -25.2785   -9.5696   22.4762 H   0  0  0  0  0  0
  -24.0029   -7.4632   22.7452 H   0  0  0  0  0  0
  -21.0869   -8.8782   19.8932 H   0  0  0  0  0  0
  -22.3715  -10.9684   19.6166 H   0  0  0  0  0  0
  -21.2009   -7.6149   23.9723 H   0  0  0  0  0  0
  -21.1489   -6.0512   25.9079 H   0  0  0  0  0  0
  -22.0598   -2.7611   23.2828 H   0  0  0  0  0  0
  -22.4071  -11.9840   22.4884 H   0  0  0  0  0  0
  -21.1034  -13.1148   22.2678 H   0  0  0  0  0  0
  -24.6435  -15.8596   20.5498 H   0  0  0  0  0  0
  -26.2611  -15.6419   20.1075 H   0  0  0  0  0  0
  -26.7405  -32.5113   23.0883 H   0  0  0  0  0  0
  -25.0129  -33.9481   25.0209 H   0  0  0  0  0  0
  -22.7918  -31.2740   21.3560 H   0  0  0  0  0  0
  -23.3764  -35.9523   23.3275 H   0  0  0  0  0  0
  -24.3576  -36.8878   22.2069 H   0  0  0  0  0  0
  -23.7270  -37.6376   23.6733 H   0  0  0  0  0  0
  -26.2381  -31.3695   20.6249 H   0  0  0  0  0  0
  -26.9105  -30.6769   22.0590 H   0  0  0  0  0  0
  -28.1547  -28.5758   21.2411 H   0  0  0  0  0  0
  -25.7234  -25.7148   19.1291 H   0  0  0  0  0  0
  -23.9489  -27.2588   19.0286 H   0  0  0  0  0  0
  -23.8786  -30.5376   19.3951 H   0  0  0  0  0  0
  -22.8209  -29.2271   19.8244 H   0  0  0  0  0  0
  -25.1347  -36.1729   25.0781 H   0  0  0  0  0  0
  -21.0052  -28.3358   24.1311 H   0  0  0  0  0  0
  -20.5716  -26.2368   23.3646 H   0  0  0  0  0  0
  -21.6680  -26.7423   22.1202 H   0  0  0  0  0  0
  -19.6944  -25.6275   21.1278 H   0  0  0  0  0  0
  -19.6714  -27.3164   20.6734 H   0  0  0  0  0  0
  -17.4240  -26.6684   21.4023 H   0  0  0  0  0  0
  -18.0346  -26.0080   22.9033 H   0  0  0  0  0  0
  -19.7966  -30.7320   24.2193 H   0  0  0  0  0  0
  -17.5030  -31.6262   24.5163 H   0  0  0  0  0  0
  -15.5375  -30.2951   23.7681 H   0  0  0  0  0  0
  -15.8722  -28.0787   22.7104 H   0  0  0  0  0  0
  -24.5886  -30.7129   25.7679 H   0  0  0  0  0  0
  -24.8897  -32.2993   26.4665 H   0  0  0  0  0  0
  -25.7948  -30.9036   27.0210 H   0  0  0  0  0  0
  -26.3147  -29.6559   24.1419 H   0  0  0  0  0  0
  -27.3983  -29.7254   25.5089 H   0  0  0  0  0  0
  -27.9101  -30.4059   23.9871 H   0  0  0  0  0  0
  -27.2571  -33.3692   26.1955 H   0  0  0  0  0  0
  -28.3942  -32.6861   25.0430 H   0  0  0  0  0  0
  -28.0607  -31.8581   26.5569 H   0  0  0  0  0  0
  -28.2558  -38.0074   24.7499 H   0  0  0  0  0  0
  -28.1091  -36.2598   24.6305 H   0  0  0  0  0  0
  -27.2275  -37.1408   25.8862 H   0  0  0  0  0  0
  -20.9581  -29.8765   21.6697 H   0  0  0  0  0  0
  -26.0108  -38.2737   24.1423 H   0  0  0  0  0  0
  -30.2491  -18.3841   21.8127 H   0  0  0  0  0  0
  -28.1051  -19.0563   18.3291 H   0  0  0  0  0  0
  -28.8970  -23.0959   17.1536 H   0  0  0  0  0  0
  -27.2530  -22.7718   16.6345 H   0  0  0  0  0  0
  -27.9376  -21.8475   17.9460 H   0  0  0  0  0  0
  -29.8284  -22.4906   19.5050 H   0  0  0  0  0  0
  -29.5999  -22.8768   21.1363 H   0  0  0  0  0  0
  -27.5147  -20.9071   20.0810 H   0  0  0  0  0  0
  -28.3026  -20.8866   21.5784 H   0  0  0  0  0  0
  -29.1647  -24.4809   19.1971 H   0  0  0  0  0  0
  1 25  1  0  0  0
  1 30  2  0  0  0
  1 73  1  0  0  0
  2  3  1  0  0  0
  2 25  1  0  0  0
  2 83  1  0  0  0
  2 84  1  0  0  0
  3  4  1  0  0  0
  3 85  1  0  0  0
  3 86  1  0  0  0
  4  5  1  0  0  0
  4 87  1  0  0  0
  4 88  1  0  0  0
  5  6  1  0  0  0
  5 26  1  0  0  0
  5 89  1  0  0  0
  6 25  1  0  0  0
  6 90  1  0  0  0
  6 91  1  0  0  0
  7  8  2  0  0  0
  7 26  1  0  0  0
  7 29  1  0  0  0
  8  9  1  0  0  0
  8 22  1  0  0  0
  9 10  1  0  0  0
  9 27  2  0  0  0
 10 11  2  0  0  0
 10 15  1  0  0  0
 11 12  1  0  0  0
 11 92  1  0  0  0
 12 13  2  0  0  0
 12 93  1  0  0  0
 13 14  1  0  0  0
 13 31  1  0  0  0
 14 15  2  0  0  0
 14 94  1  0  0  0
 15 95  1  0  0  0
 16 17  2  0  0  0
 16 21  1  0  0  0
 16 31  1  0  0  0
 17 18  1  0  0  0
 17 96  1  0  0  0
 18 19  2  0  0  0
 18 97  1  0  0  0
 19 20  1  0  0  0
 19 24  1  0  0  0
 20 21  2  0  0  0
 20 98  1  0  0  0
 21 23  1  0  0  0
 22 28  1  0  0  0
 22 32  2  0  0  0
 26 27  1  0  0  0
 28 99  1  0  0  0
 28100  1  0  0  0
 29101  1  0  0  0
 29102  1  0  0  0
 33 34  1  0  0  0
 33 66  1  0  0  0
 33 70  2  0  0  0
 34 36  1  0  0  0
 34 59  1  0  0  0
 34103  1  0  0  0
 35 44  2  0  0  0
 35 45  1  0  0  0
 35 68  1  0  0  0
 36 56  1  0  0  0
 36104  1  0  0  0
 37 39  1  0  0  0
 37 47  1  0  0  0
 37 66  1  0  0  0
 37105  1  0  0  0
 38 43  2  0  0  0
 38 46  1  0  0  0
 38 47  1  0  0  0
 39 64  1  0  0  0
 39 67  2  0  0  0
 40 52  1  0  0  0
 40 53  2  0  0  0
 40 58  1  0  0  0
 41106  1  0  0  0
 41107  1  0  0  0
 41108  1  0  0  0
 41 48  1  0  0  0
 42 43  1  0  0  0
 42 66  1  0  0  0
 42109  1  0  0  0
 42110  1  0  0  0
 43 44  1  0  0  0
 44111  1  0  0  0
 45 46  2  0  0  0
 45112  1  0  0  0
 46113  1  0  0  0
 47114  1  0  0  0
 47115  1  0  0  0
 48 56  1  0  0  0
 48 65  1  0  0  0
 48116  1  0  0  0
 49 50  1  0  0  0
 49 53  1  0  0  0
 49 64  1  0  0  0
 49117  1  0  0  0
 50 51  1  0  0  0
 50118  1  0  0  0
 50119  1  0  0  0
 51 52  1  0  0  0
 51120  1  0  0  0
 51121  1  0  0  0
 52122  1  0  0  0
 52123  1  0  0  0
 53 54  1  0  0  0
 54 55  2  0  0  0
 54124  1  0  0  0
 55 57  1  0  0  0
 55125  1  0  0  0
 56 69  2  0  0  0
 57 58  2  0  0  0
 57126  1  0  0  0
 58127  1  0  0  0
 59 60  1  0  0  0
 59 61  1  0  0  0
 59 62  1  0  0  0
 60128  1  0  0  0
 60129  1  0  0  0
 60130  1  0  0  0
 61131  1  0  0  0
 61132  1  0  0  0
 61133  1  0  0  0
 62134  1  0  0  0
 62135  1  0  0  0
 62136  1  0  0  0
 63 65  1  0  0  0
 63137  1  0  0  0
 63138  1  0  0  0
 63139  1  0  0  0
 64140  1  0  0  0
 65141  1  0  0  0
 68 77  1  0  0  0
 71 73  2  0  0  0
 71 80  1  0  0  0
 71142  1  0  0  0
 72 79  2  0  0  0
 72 80  1  0  0  0
 72143  1  0  0  0
 73 79  1  0  0  0
 74144  1  0  0  0
 74145  1  0  0  0
 74146  1  0  0  0
 74 78  1  0  0  0
 75 76  1  0  0  0
 75147  1  0  0  0
 75148  1  0  0  0
 75 77  1  0  0  0
 76 80  1  0  0  0
 76149  1  0  0  0
 76150  1  0  0  0
 77 78  1  0  0  0
 77151  1  0  0  0
 78 81  1  0  0  0
 78 82  1  0  0  0
M  ISO  4   1 100  68 101  73 100  77 101
M  END
> <chiral flag>
0

> <version>
0

> <s_m_source_file>
/data/baiqing/PycharmProjects/Reinvent-master-3.2/result/LINK_invent/BTK/process_docking_weight1_custom_sum_contain_oxygen_bond_distance_aromatic_linkinvent_7_9_3/rearranged_h_0066.sdf

> <i_m_source_file_index>
5

> <r_mmod_Potential_Energy-OPLS-2005>
1615.72631835938

> <r_mmod_Stretch_Energy-OPLS-2005>
645.376831054688

> <r_mmod_Bend_Energy-OPLS-2005>
566.364135742188

> <r_mmod_Torsional_Energy-OPLS-2005>
259.139099121094

> <r_mmod_Improper_Torsional_Energy-OPLS-2005>
10.3086347579956

> <r_mmod_Van_der_Waal_Energy-OPLS-2005>
119.367317199707

> <r_mmod_Electrostatic_Energy-OPLS-2005>
-249.502883911133

> <r_mmod_Solvation_Energy-OPLS-2005>
-206.907699584961

> <b_mmod_Minimization_Converged-OPLS-2005>
0

> <r_mmod_RMS_Derivative-OPLS-2005>
1.61493337154388

$$$$
5
                    3D
 Structure written by MMmdl.
171179  0  0  1  0            999 V2000
  -30.6395  -14.7709   20.4353 C   0  0  0  0  0  0
  -30.4163  -12.4673   19.4684 C   0  0  0  0  0  0
  -29.4883  -12.5339   18.2343 C   0  0  0  0  0  0
  -28.0120  -12.3672   18.6420 C   0  0  0  0  0  0
  -27.6409  -13.2421   19.8660 C   0  0  2  0  0  0
  -28.6979  -13.1245   20.9789 C   0  0  0  0  0  0
  -25.2542  -13.8248   20.5702 C   0  0  0  0  0  0
  -24.1813  -13.0468   20.9206 C   0  0  0  0  0  0
  -24.6445  -11.6979   20.8786 C   0  0  0  0  0  0
  -23.9120  -10.4333   21.0393 C   0  0  0  0  0  0
  -24.3710   -9.4241   21.9107 C   0  0  0  0  0  0
  -23.6396   -8.2260   22.0712 C   0  0  0  0  0  0
  -22.4350   -8.0298   21.3557 C   0  0  0  0  0  0
  -21.9919   -9.0300   20.4724 C   0  0  0  0  0  0
  -22.7228  -10.2176   20.3131 C   0  0  0  0  0  0
  -21.6911   -6.0777   22.5292 C   0  0  0  0  0  0
  -21.4059   -6.5682   23.8221 C   0  0  0  0  0  0
  -21.3655   -5.6813   24.9169 C   0  0  0  0  0  0
  -21.6065   -4.3088   24.7219 C   0  0  0  0  0  0
  -21.8818   -3.8170   23.4332 C   0  0  0  0  0  0
  -21.9208   -4.6990   22.3393 C   0  0  0  0  0  0
  -22.7848  -13.5296   21.1838 C   0  0  0  0  0  0
  -22.1661   -4.2203   21.0950 F   0  0  0  0  0  0
  -21.5608   -3.4559   25.7711 F   0  0  0  0  0  0
  -29.9868  -13.5418   20.4055 N   0  0  0  0  0  0
  -26.2969  -12.9461   20.3446 N   0  0  0  0  0  0
  -25.9411  -11.6602   20.5921 N   0  0  0  0  0  0
  -22.0479  -12.8268   22.0377 N   0  0  0  0  0  0
  -25.4296  -15.1903   20.4017 N   0  0  0  0  0  0
  -31.7989  -14.7617   20.0055 O   0  0  0  0  0  0
  -21.6723   -6.8891   21.4244 O   0  0  0  0  0  0
  -22.3545  -14.5609   20.6707 O   0  0  0  0  0  0
  -24.6258  -31.8560   23.1997 C   0  0  0  0  0  0
  -25.9109  -32.4763   23.8322 C   0  0  1  0  0  0
  -27.2367  -27.3062   20.1725 C   0  0  0  0  0  0
  -25.5930  -33.8555   24.2269 N   0  0  0  0  0  0
  -23.4258  -30.4768   21.5351 C   0  0  2  0  0  0
  -24.8875  -28.9323   20.0989 C   0  0  0  0  0  0
  -22.7491  -29.4602   22.4849 C   0  0  0  0  0  0
  -18.0288  -28.1380   22.8450 C   0  0  0  0  0  0
  -24.1479  -36.7310   23.2632 C   0  0  0  0  0  0
  -25.9615  -30.7911   21.3674 C   0  0  0  0  0  0
  -26.0447  -29.4116   20.7268 C   0  0  0  0  0  0
  -27.2236  -28.6076   20.7588 C   0  0  0  0  0  0
  -26.0775  -26.8943   19.4839 C   0  0  0  0  0  0
  -24.9079  -27.6818   19.4584 C   0  0  0  0  0  0
  -23.6479  -29.8061   20.1503 C   0  0  0  0  0  0
  -25.4097  -36.3058   24.0323 C   0  0  1  0  0  0
  -20.5888  -28.3723   23.1249 C   0  0  2  0  0  0
  -20.6773  -26.9442   22.5400 C   0  0  0  0  0  0
  -19.5760  -26.6379   21.5197 C   0  0  0  0  0  0
  -18.1926  -26.7928   22.1586 C   0  0  0  0  0  0
  -19.1536  -28.8863   23.2830 C   0  0  0  0  0  0
  -18.9471  -30.1448   23.8875 C   0  0  0  0  0  0
  -17.6472  -30.6577   24.0562 C   0  0  0  0  0  0
  -25.9037  -34.9441   23.5095 C   0  0  0  0  0  0
  -16.5355  -29.9089   23.6328 C   0  0  0  0  0  0
  -16.7273  -28.6502   23.0348 C   0  0  0  0  0  0
  -26.4525  -31.6572   25.0690 C   0  0  0  0  0  0
  -25.3780  -31.3698   26.1443 C   0  0  0  0  0  0
  -27.0369  -30.2990   24.6105 C   0  0  0  0  0  0
  -27.6045  -32.4313   25.7505 C   0  0  0  0  0  0
  -27.5563  -37.1795   24.8461 C   0  0  0  0  0  0
  -21.4195  -29.3076   22.3643 N   0  0  0  0  0  0
  -26.4265  -37.3767   23.9421 N   0  0  0  0  0  0
  -24.6889  -31.0599   22.0922 N   0  0  0  0  0  0
  -23.4192  -28.8141   23.2929 O   0  0  0  0  0  0
  -28.3128  -26.4042   20.2645 O   0  0  0  0  0  0
  -26.5586  -34.8927   22.4643 O   0  0  0  0  0  0
  -23.5426  -32.1307   23.7371 O   0  0  0  0  0  0
  -29.0730  -19.7863   20.9866 C   0  0  0  0  0  0
  -29.8220  -18.9671   20.1616 C   0  0  0  0  0  0
  -27.8857  -22.0810   22.4253 C   0  0  0  0  0  0
  -30.4476  -17.2114   18.4636 C   0  0  0  0  0  0
  -28.1900  -17.3080   19.3932 C   0  0  0  0  0  0
  -29.0443  -16.1643   22.0366 C   0  0  0  0  0  0
  -31.3487  -16.8592   21.6643 C   0  0  0  0  0  0
  -29.3694  -25.5349   22.2108 C   0  0  0  0  0  0
  -26.9183  -25.2162   21.9753 C   0  0  0  0  0  0
  -28.5747  -23.7550   20.5124 C   0  0  0  0  0  0
  -28.9712  -22.4331   21.3897 C   0  0  2  0  0  0
  -29.6789  -17.4205   19.7991 C   0  0  0  0  0  0
  -30.1198  -16.2594   20.9172 C   0  0  0  0  0  0
  -28.2636  -25.2128   21.1896 C   0  0  0  0  0  0
  -30.6330  -19.8715   19.4428 N   0  0  0  0  0  0
  -30.3935  -21.1187   19.7803 N   0  0  0  0  0  0
  -29.4000  -21.1372   20.7051 N   0  0  0  0  0  0
  -31.4575  -12.5512   19.1568 H   0  0  0  0  0  0
  -30.3549  -11.4886   19.9491 H   0  0  0  0  0  0
  -29.7674  -11.7714   17.5078 H   0  0  0  0  0  0
  -29.6079  -13.4997   17.7393 H   0  0  0  0  0  0
  -27.8382  -11.3154   18.8700 H   0  0  0  0  0  0
  -27.3597  -12.6007   17.8012 H   0  0  0  0  0  0
  -27.6488  -14.2767   19.5296 H   0  0  0  0  0  0
  -28.7428  -12.0834   21.3092 H   0  0  0  0  0  0
  -28.4349  -13.6929   21.8630 H   0  0  0  0  0  0
  -25.2882   -9.5791   22.4613 H   0  0  0  0  0  0
  -24.0214   -7.4683   22.7420 H   0  0  0  0  0  0
  -21.0783   -8.8837   19.9114 H   0  0  0  0  0  0
  -22.3617  -10.9732   19.6310 H   0  0  0  0  0  0
  -21.2070   -7.6203   23.9746 H   0  0  0  0  0  0
  -21.1453   -6.0537   25.9063 H   0  0  0  0  0  0
  -22.0592   -2.7642   23.2822 H   0  0  0  0  0  0
  -22.4158  -12.0084   22.4980 H   0  0  0  0  0  0
  -21.1137  -13.1358   22.2650 H   0  0  0  0  0  0
  -24.6925  -15.8760   20.5259 H   0  0  0  0  0  0
  -26.3061  -15.5958   20.0994 H   0  0  0  0  0  0
  -26.7182  -32.5480   23.1076 H   0  0  0  0  0  0
  -25.0252  -33.9690   25.0533 H   0  0  0  0  0  0
  -22.7189  -31.2939   21.3840 H   0  0  0  0  0  0
  -23.3716  -35.9667   23.3288 H   0  0  0  0  0  0
  -24.3575  -36.8959   22.2052 H   0  0  0  0  0  0
  -23.7306  -37.6531   23.6679 H   0  0  0  0  0  0
  -26.0754  -31.5389   20.5806 H   0  0  0  0  0  0
  -26.8506  -30.8654   21.9808 H   0  0  0  0  0  0
  -28.1019  -28.9601   21.2787 H   0  0  0  0  0  0
  -26.0692  -25.9220   19.0107 H   0  0  0  0  0  0
  -24.0294  -27.3145   18.9443 H   0  0  0  0  0  0
  -23.7615  -30.5801   19.3912 H   0  0  0  0  0  0
  -22.7758  -29.2238   19.8491 H   0  0  0  0  0  0
  -25.1260  -36.1884   25.0813 H   0  0  0  0  0  0
  -20.9940  -28.3319   24.1386 H   0  0  0  0  0  0
  -20.5676  -26.2326   23.3594 H   0  0  0  0  0  0
  -21.6649  -26.7484   22.1200 H   0  0  0  0  0  0
  -19.6956  -25.6288   21.1245 H   0  0  0  0  0  0
  -19.6721  -27.3170   20.6713 H   0  0  0  0  0  0
  -17.4211  -26.6669   21.3970 H   0  0  0  0  0  0
  -18.0316  -26.0068   22.8978 H   0  0  0  0  0  0
  -19.7974  -30.7229   24.2233 H   0  0  0  0  0  0
  -17.5077  -31.6271   24.5161 H   0  0  0  0  0  0
  -15.5373  -30.2990   23.7698 H   0  0  0  0  0  0
  -15.8664  -28.0837   22.7074 H   0  0  0  0  0  0
  -24.5955  -30.7022   25.7829 H   0  0  0  0  0  0
  -24.8964  -32.2853   26.4875 H   0  0  0  0  0  0
  -25.8129  -30.8919   27.0229 H   0  0  0  0  0  0
  -26.2930  -29.6721   24.1160 H   0  0  0  0  0  0
  -27.4137  -29.7244   25.4582 H   0  0  0  0  0  0
  -27.8763  -30.4291   23.9266 H   0  0  0  0  0  0
  -27.2621  -33.3628   26.2031 H   0  0  0  0  0  0
  -28.3905  -32.6860   25.0385 H   0  0  0  0  0  0
  -28.0636  -31.8466   26.5492 H   0  0  0  0  0  0
  -28.2547  -38.0114   24.7492 H   0  0  0  0  0  0
  -28.1056  -36.2631   24.6248 H   0  0  0  0  0  0
  -27.2272  -37.1434   25.8859 H   0  0  0  0  0  0
  -20.9343  -29.8835   21.6906 H   0  0  0  0  0  0
  -26.0112  -38.2816   24.1444 H   0  0  0  0  0  0
  -28.3211  -19.4994   21.7051 H   0  0  0  0  0  0
  -27.8544  -22.8101   23.2253 H   0  0  0  0  0  0
  -28.0853  -21.1541   22.9619 H   0  0  0  0  0  0
  -26.9018  -21.9988   21.9599 H   0  0  0  0  0  0
  -31.5083  -17.4408   18.5799 H   0  0  0  0  0  0
  -30.0650  -17.8711   17.6766 H   0  0  0  0  0  0
  -30.3519  -16.1982   18.0700 H   0  0  0  0  0  0
  -27.9209  -18.1117   18.7032 H   0  0  0  0  0  0
  -27.5277  -17.4498   20.2442 H   0  0  0  0  0  0
  -27.9453  -16.3711   18.8994 H   0  0  0  0  0  0
  -28.0530  -15.8915   21.6793 H   0  0  0  0  0  0
  -28.9344  -17.1223   22.5488 H   0  0  0  0  0  0
  -29.3146  -15.4535   22.8159 H   0  0  0  0  0  0
  -31.1055  -17.7574   22.2262 H   0  0  0  0  0  0
  -32.1490  -17.1366   20.9748 H   0  0  0  0  0  0
  -31.7755  -16.1589   22.3839 H   0  0  0  0  0  0
  -29.4229  -24.7855   23.0036 H   0  0  0  0  0  0
  -29.1854  -26.4905   22.7044 H   0  0  0  0  0  0
  -30.3456  -25.5962   21.7305 H   0  0  0  0  0  0
  -26.9034  -24.5561   22.8320 H   0  0  0  0  0  0
  -26.0702  -24.9385   21.3509 H   0  0  0  0  0  0
  -26.7077  -26.1942   22.4142 H   0  0  0  0  0  0
  -27.7098  -23.4962   19.9043 H   0  0  0  0  0  0
  -29.3767  -23.9060   19.7903 H   0  0  0  0  0  0
  -29.8491  -22.7280   21.9642 H   0  0  0  0  0  0
  1 25  1  0  0  0
  1 30  2  0  0  0
  1 83  1  0  0  0
  2  3  1  0  0  0
  2 25  1  0  0  0
  2 88  1  0  0  0
  2 89  1  0  0  0
  3  4  1  0  0  0
  3 90  1  0  0  0
  3 91  1  0  0  0
  4  5  1  0  0  0
  4 92  1  0  0  0
  4 93  1  0  0  0
  5  6  1  0  0  0
  5 26  1  0  0  0
  5 94  1  0  0  0
  6 25  1  0  0  0
  6 95  1  0  0  0
  6 96  1  0  0  0
  7  8  2  0  0  0
  7 26  1  0  0  0
  7 29  1  0  0  0
  8  9  1  0  0  0
  8 22  1  0  0  0
  9 10  1  0  0  0
  9 27  2  0  0  0
 10 11  2  0  0  0
 10 15  1  0  0  0
 11 12  1  0  0  0
 11 97  1  0  0  0
 12 13  2  0  0  0
 12 98  1  0  0  0
 13 14  1  0  0  0
 13 31  1  0  0  0
 14 15  2  0  0  0
 14 99  1  0  0  0
 15100  1  0  0  0
 16 17  2  0  0  0
 16 21  1  0  0  0
 16 31  1  0  0  0
 17 18  1  0  0  0
 17101  1  0  0  0
 18 19  2  0  0  0
 18102  1  0  0  0
 19 20  1  0  0  0
 19 24  1  0  0  0
 20 21  2  0  0  0
 20103  1  0  0  0
 21 23  1  0  0  0
 22 28  1  0  0  0
 22 32  2  0  0  0
 26 27  1  0  0  0
 28104  1  0  0  0
 28105  1  0  0  0
 29106  1  0  0  0
 29107  1  0  0  0
 33 34  1  0  0  0
 33 66  1  0  0  0
 33 70  2  0  0  0
 34 36  1  0  0  0
 34 59  1  0  0  0
 34108  1  0  0  0
 35 44  2  0  0  0
 35 45  1  0  0  0
 35 68  1  0  0  0
 36 56  1  0  0  0
 36109  1  0  0  0
 37 39  1  0  0  0
 37 47  1  0  0  0
 37 66  1  0  0  0
 37110  1  0  0  0
 38 43  2  0  0  0
 38 46  1  0  0  0
 38 47  1  0  0  0
 39 64  1  0  0  0
 39 67  2  0  0  0
 40 52  1  0  0  0
 40 53  2  0  0  0
 40 58  1  0  0  0
 41111  1  0  0  0
 41112  1  0  0  0
 41113  1  0  0  0
 41 48  1  0  0  0
 42 43  1  0  0  0
 42 66  1  0  0  0
 42114  1  0  0  0
 42115  1  0  0  0
 43 44  1  0  0  0
 44116  1  0  0  0
 45 46  2  0  0  0
 45117  1  0  0  0
 46118  1  0  0  0
 47119  1  0  0  0
 47120  1  0  0  0
 48 56  1  0  0  0
 48 65  1  0  0  0
 48121  1  0  0  0
 49 50  1  0  0  0
 49 53  1  0  0  0
 49 64  1  0  0  0
 49122  1  0  0  0
 50 51  1  0  0  0
 50123  1  0  0  0
 50124  1  0  0  0
 51 52  1  0  0  0
 51125  1  0  0  0
 51126  1  0  0  0
 52127  1  0  0  0
 52128  1  0  0  0
 53 54  1  0  0  0
 54 55  2  0  0  0
 54129  1  0  0  0
 55 57  1  0  0  0
 55130  1  0  0  0
 56 69  2  0  0  0
 57 58  2  0  0  0
 57131  1  0  0  0
 58132  1  0  0  0
 59 60  1  0  0  0
 59 61  1  0  0  0
 59 62  1  0  0  0
 60133  1  0  0  0
 60134  1  0  0  0
 60135  1  0  0  0
 61136  1  0  0  0
 61137  1  0  0  0
 61138  1  0  0  0
 62139  1  0  0  0
 62140  1  0  0  0
 62141  1  0  0  0
 63 65  1  0  0  0
 63142  1  0  0  0
 63143  1  0  0  0
 63144  1  0  0  0
 64145  1  0  0  0
 65146  1  0  0  0
 68 84  1  0  0  0
 71 72  2  0  0  0
 71 87  1  0  0  0
 71147  1  0  0  0
 72 82  1  0  0  0
 72 85  1  0  0  0
 73148  1  0  0  0
 73149  1  0  0  0
 73150  1  0  0  0
 73 81  1  0  0  0
 74151  1  0  0  0
 74152  1  0  0  0
 74153  1  0  0  0
 74 82  1  0  0  0
 75 82  1  0  0  0
 75154  1  0  0  0
 75155  1  0  0  0
 75156  1  0  0  0
 76157  1  0  0  0
 76158  1  0  0  0
 76159  1  0  0  0
 76 83  1  0  0  0
 77 83  1  0  0  0
 77160  1  0  0  0
 77161  1  0  0  0
 77162  1  0  0  0
 78163  1  0  0  0
 78164  1  0  0  0
 78165  1  0  0  0
 78 84  1  0  0  0
 79 84  1  0  0  0
 79166  1  0  0  0
 79167  1  0  0  0
 79168  1  0  0  0
 80 81  1  0  0  0
 80 84  1  0  0  0
 80169  1  0  0  0
 80170  1  0  0  0
 81 87  1  0  0  0
 81171  1  0  0  0
 82 83  1  0  0  0
 85 86  2  0  0  0
 86 87  1  0  0  0
M  ISO  4   1 100  68 101  83 100  84 101
M  END
> <chiral flag>
0

> <version>
0

> <s_m_source_file>
/data/baiqing/PycharmProjects/Reinvent-master-3.2/result/LINK_invent/BTK/process_docking_weight1_custom_sum_contain_oxygen_bond_distance_aromatic_linkinvent_7_9_3/rearranged_h_0066.sdf

> <i_m_source_file_index>
6

> <r_mmod_Potential_Energy-OPLS-2005>
314.102264404297

> <r_mmod_Stretch_Energy-OPLS-2005>
156.576370239258

> <r_mmod_Bend_Energy-OPLS-2005>
230.489562988281

> <r_mmod_Torsional_Energy-OPLS-2005>
254.70866394043

> <r_mmod_Improper_Torsional_Energy-OPLS-2005>
3.65799975395203

> <r_mmod_Van_der_Waal_Energy-OPLS-2005>
146.713989257812

> <r_mmod_Electrostatic_Energy-OPLS-2005>
-367.772674560547

> <r_mmod_Solvation_Energy-OPLS-2005>
-190.966857910156

> <b_mmod_Minimization_Converged-OPLS-2005>
0

> <r_mmod_RMS_Derivative-OPLS-2005>
7.1073751449585

$$$$
6
                    3D
 Structure written by MMmdl.
193201  0  0  1  0            999 V2000
  -30.8252  -14.4938   20.5604 C   0  0  0  0  0  0
  -30.4179  -12.3275   19.4423 C   0  0  0  0  0  0
  -29.5031  -12.4957   18.2113 C   0  0  0  0  0  0
  -28.0288  -12.3488   18.6245 C   0  0  0  0  0  0
  -27.6617  -13.2126   19.8549 C   0  0  2  0  0  0
  -28.7156  -13.1141   20.9912 C   0  0  0  0  0  0
  -25.2607  -13.8105   20.5748 C   0  0  0  0  0  0
  -24.1898  -13.0278   20.9240 C   0  0  0  0  0  0
  -24.6517  -11.6803   20.8786 C   0  0  0  0  0  0
  -23.9171  -10.4208   21.0430 C   0  0  0  0  0  0
  -24.3687   -9.4120   21.9217 C   0  0  0  0  0  0
  -23.6348   -8.2156   22.0762 C   0  0  0  0  0  0
  -22.4333   -8.0266   21.3553 C   0  0  0  0  0  0
  -22.0011   -9.0254   20.4668 C   0  0  0  0  0  0
  -22.7373  -10.2093   20.3060 C   0  0  0  0  0  0
  -21.6807   -6.0793   22.5296 C   0  0  0  0  0  0
  -21.3939   -6.5725   23.8245 C   0  0  0  0  0  0
  -21.3661   -5.6881   24.9212 C   0  0  0  0  0  0
  -21.6041   -4.3145   24.7234 C   0  0  0  0  0  0
  -21.8806   -3.8230   23.4360 C   0  0  0  0  0  0
  -21.9141   -4.7020   22.3421 C   0  0  0  0  0  0
  -22.7949  -13.5047   21.1984 C   0  0  0  0  0  0
  -22.1609   -4.2212   21.0980 F   0  0  0  0  0  0
  -21.5685   -3.4622   25.7772 F   0  0  0  0  0  0
  -30.0565  -13.3672   20.4300 N   0  0  0  0  0  0
  -26.3079  -12.9326   20.3331 N   0  0  0  0  0  0
  -25.9444  -11.6464   20.5734 N   0  0  0  0  0  0
  -22.0677  -12.7994   22.0590 N   0  0  0  0  0  0
  -25.4231  -15.1813   20.4224 N   0  0  0  0  0  0
  -31.8815  -14.6187   19.9395 O   0  0  0  0  0  0
  -21.6624   -6.8920   21.4258 O   0  0  0  0  0  0
  -22.3611  -14.5339   20.6867 O   0  0  0  0  0  0
  -24.6130  -31.8648   23.2060 C   0  0  0  0  0  0
  -25.9016  -32.4780   23.8386 C   0  0  1  0  0  0
  -27.2367  -27.4262   20.0976 C   0  0  0  0  0  0
  -25.5886  -33.8575   24.2309 N   0  0  0  0  0  0
  -23.4063  -30.4919   21.5426 C   0  0  2  0  0  0
  -24.8570  -28.9634   20.1176 C   0  0  0  0  0  0
  -22.7400  -29.4655   22.4879 C   0  0  0  0  0  0
  -18.0268  -28.1368   22.8477 C   0  0  0  0  0  0
  -24.1541  -36.7297   23.2644 C   0  0  0  0  0  0
  -25.9425  -30.8313   21.3686 C   0  0  0  0  0  0
  -26.0169  -29.4666   20.7158 C   0  0  0  0  0  0
  -27.2091  -28.7030   20.7057 C   0  0  0  0  0  0
  -26.0510  -26.9476   19.4937 C   0  0  0  0  0  0
  -24.8682  -27.7018   19.5032 C   0  0  0  0  0  0
  -23.6238  -29.8304   20.1557 C   0  0  0  0  0  0
  -25.4137  -36.3055   24.0333 C   0  0  1  0  0  0
  -20.5865  -28.3642   23.1302 C   0  0  2  0  0  0
  -20.6756  -26.9379   22.5410 C   0  0  0  0  0  0
  -19.5743  -26.6395   21.5195 C   0  0  0  0  0  0
  -18.1920  -26.7909   22.1617 C   0  0  0  0  0  0
  -19.1519  -28.8813   23.2902 C   0  0  0  0  0  0
  -18.9447  -30.1413   23.8938 C   0  0  0  0  0  0
  -17.6446  -30.6572   24.0567 C   0  0  0  0  0  0
  -25.9058  -34.9439   23.5122 C   0  0  0  0  0  0
  -16.5334  -29.9085   23.6308 C   0  0  0  0  0  0
  -16.7253  -28.6500   23.0321 C   0  0  0  0  0  0
  -26.4513  -31.6511   25.0656 C   0  0  0  0  0  0
  -25.3837  -31.3562   26.1419 C   0  0  0  0  0  0
  -27.0384  -30.2954   24.6034 C   0  0  0  0  0  0
  -27.6112  -32.4204   25.7385 C   0  0  0  0  0  0
  -27.5601  -37.1793   24.8448 C   0  0  0  0  0  0
  -21.4118  -29.3027   22.3685 N   0  0  0  0  0  0
  -26.4308  -37.3730   23.9410 N   0  0  0  0  0  0
  -24.6737  -31.0769   22.0970 N   0  0  0  0  0  0
  -23.4155  -28.8160   23.2900 O   0  0  0  0  0  0
  -28.4155  -26.7079   20.0912 O   0  0  0  0  0  0
  -26.5639  -34.8895   22.4696 O   0  0  0  0  0  0
  -23.5325  -32.1420   23.7433 O   0  0  0  0  0  0
  -27.7771  -19.7513   23.0686 C   0  0  0  0  0  0
  -28.2963  -20.7626   22.3004 C   0  0  0  0  0  0
  -28.8195  -18.7718   21.3529 C   0  0  0  0  0  0
  -26.9887  -22.6597   23.2832 C   0  0  0  0  0  0
  -29.4997  -22.6465   23.3495 C   0  0  0  0  0  0
  -29.8749  -18.5528   19.1027 C   0  0  0  0  0  0
  -28.2892  -16.8333   19.7787 C   0  0  0  0  0  0
  -28.4022  -13.7066   26.3877 C   0  0  0  0  0  0
  -27.3397  -15.7808   27.3125 C   0  0  0  0  0  0
  -29.7709  -15.8085   26.6708 C   0  0  0  0  0  0
  -30.8038  -15.3678   22.7451 C   0  0  0  0  0  0
  -28.0635  -17.0706   24.4833 C   0  0  0  0  0  0
  -27.9952  -24.5304   21.1717 C   0  0  0  0  0  0
  -28.2895  -23.0033   21.1262 C   0  0  0  0  0  0
  -27.9413  -15.5930   24.8810 C   0  0  0  0  0  0
  -27.7307  -17.2419   23.0042 C   0  0  0  0  0  0
  -30.6092  -16.9511   20.9159 C   0  0  0  0  0  0
  -28.3840  -25.2832   19.8817 C   0  0  0  0  0  0
  -28.2676  -22.2665   22.5030 C   0  0  0  0  0  0
  -29.3850  -17.7605   20.3381 C   0  0  0  0  0  0
  -28.3775  -15.2405   26.3163 C   0  0  0  0  0  0
  -28.1170  -18.5556   22.4857 N   0  0  0  0  0  0
  -28.9515  -20.1097   21.2766 N   0  3  0  0  0  0
  -30.3963  -15.5232   21.3447 N   0  0  0  0  0  0
  -31.4664  -12.3621   19.1371 H   0  0  0  0  0  0
  -30.2874  -11.3383   19.8819 H   0  0  0  0  0  0
  -29.7411  -11.7465   17.4572 H   0  0  0  0  0  0
  -29.6726  -13.4699   17.7478 H   0  0  0  0  0  0
  -27.8424  -11.2938   18.8280 H   0  0  0  0  0  0
  -27.3893  -12.6115   17.7817 H   0  0  0  0  0  0
  -27.6585  -14.2271   19.4801 H   0  0  0  0  0  0
  -28.6896  -12.1244   21.4512 H   0  0  0  0  0  0
  -28.4774  -13.8264   21.7848 H   0  0  0  0  0  0
  -25.2823   -9.5543   22.4788 H   0  0  0  0  0  0
  -23.9998   -7.4501   22.7487 H   0  0  0  0  0  0
  -21.0960   -8.8743   19.8985 H   0  0  0  0  0  0
  -22.3837  -10.9613   19.6166 H   0  0  0  0  0  0
  -21.1889   -7.6235   23.9723 H   0  0  0  0  0  0
  -21.1550   -6.0635   25.9125 H   0  0  0  0  0  0
  -22.0592   -2.7705   23.2838 H   0  0  0  0  0  0
  -21.1326  -13.0986   22.2998 H   0  0  0  0  0  0
  -22.4344  -11.9613   22.4844 H   0  0  0  0  0  0
  -26.2875  -15.6068   20.1166 H   0  0  0  0  0  0
  -24.6867  -15.8534   20.6039 H   0  0  0  0  0  0
  -26.7055  -32.5478   23.1135 H   0  0  0  0  0  0
  -24.9942  -33.9733   25.0382 H   0  0  0  0  0  0
  -22.6953  -31.3088   21.3956 H   0  0  0  0  0  0
  -23.3760  -35.9671   23.3256 H   0  0  0  0  0  0
  -24.3685  -36.8957   22.2081 H   0  0  0  0  0  0
  -23.7350  -37.6516   23.6680 H   0  0  0  0  0  0
  -26.0679  -31.6060   20.6098 H   0  0  0  0  0  0
  -26.8234  -30.8761   21.9967 H   0  0  0  0  0  0
  -28.0997  -29.0970   21.1741 H   0  0  0  0  0  0
  -26.0042  -25.9991   18.9866 H   0  0  0  0  0  0
  -23.9816  -27.3041   19.0304 H   0  0  0  0  0  0
  -23.7529  -30.6115   19.4044 H   0  0  0  0  0  0
  -22.7555  -29.2468   19.8393 H   0  0  0  0  0  0
  -25.1325  -36.1909   25.0818 H   0  0  0  0  0  0
  -20.9940  -28.3210   24.1418 H   0  0  0  0  0  0
  -20.5602  -26.2250   23.3606 H   0  0  0  0  0  0
  -21.6648  -26.7402   22.1241 H   0  0  0  0  0  0
  -19.6906  -25.6319   21.1201 H   0  0  0  0  0  0
  -19.6702  -27.3224   20.6759 H   0  0  0  0  0  0
  -17.4184  -26.6612   21.4027 H   0  0  0  0  0  0
  -18.0354  -26.0063   22.9047 H   0  0  0  0  0  0
  -19.7919  -30.7216   24.2328 H   0  0  0  0  0  0
  -17.5004  -31.6256   24.5175 H   0  0  0  0  0  0
  -15.5330  -30.3006   23.7605 H   0  0  0  0  0  0
  -15.8651  -28.0854   22.6976 H   0  0  0  0  0  0
  -24.5953  -30.6995   25.7693 H   0  0  0  0  0  0
  -24.9108  -32.2719   26.4970 H   0  0  0  0  0  0
  -25.8215  -30.8593   27.0094 H   0  0  0  0  0  0
  -26.2931  -29.6606   24.1211 H   0  0  0  0  0  0
  -27.4318  -29.7234   25.4460 H   0  0  0  0  0  0
  -27.8690  -30.4244   23.9086 H   0  0  0  0  0  0
  -27.2730  -33.3398   26.2166 H   0  0  0  0  0  0
  -28.3801  -32.6929   25.0136 H   0  0  0  0  0  0
  -28.0976  -31.8231   26.5120 H   0  0  0  0  0  0
  -28.2556  -38.0144   24.7511 H   0  0  0  0  0  0
  -28.1171  -36.2673   24.6225 H   0  0  0  0  0  0
  -27.2356  -37.1379   25.8861 H   0  0  0  0  0  0
  -20.9195  -29.8809   21.7022 H   0  0  0  0  0  0
  -26.0178  -38.2801   24.1365 H   0  0  0  0  0  0
  -27.2116  -19.7984   23.9918 H   0  0  0  0  0  0
  -26.9122  -22.1461   24.2424 H   0  0  0  0  0  0
  -26.0914  -22.4378   22.6998 H   0  0  0  0  0  0
  -26.9829  -23.7240   23.5264 H   0  0  0  0  0  0
  -29.4768  -22.1636   24.3269 H   0  0  0  0  0  0
  -29.5320  -23.7220   23.5276 H   0  0  0  0  0  0
  -30.4307  -22.3635   22.8563 H   0  0  0  0  0  0
  -29.0825  -19.1798   18.6838 H   0  0  0  0  0  0
  -30.1850  -17.8876   18.2973 H   0  0  0  0  0  0
  -30.7276  -19.1949   19.3240 H   0  0  0  0  0  0
  -27.4466  -17.3968   19.3759 H   0  0  0  0  0  0
  -27.8983  -16.1423   20.5086 H   0  0  0  0  0  0
  -28.6863  -16.2172   18.9732 H   0  0  0  0  0  0
  -28.6722  -13.3450   27.3795 H   0  0  0  0  0  0
  -29.1158  -13.2953   25.6733 H   0  0  0  0  0  0
  -27.4228  -13.2967   26.1412 H   0  0  0  0  0  0
  -27.5216  -15.4081   28.3227 H   0  0  0  0  0  0
  -26.3304  -15.4779   27.0297 H   0  0  0  0  0  0
  -27.3544  -16.8704   27.3532 H   0  0  0  0  0  0
  -30.1569  -15.3879   27.6000 H   0  0  0  0  0  0
  -29.7398  -16.8876   26.8254 H   0  0  0  0  0  0
  -30.5071  -15.6142   25.8884 H   0  0  0  0  0  0
  -30.4026  -16.1636   23.3669 H   0  0  0  0  0  0
  -31.8906  -15.4235   22.8334 H   0  0  0  0  0  0
  -30.4777  -14.4176   23.1667 H   0  0  0  0  0  0
  -29.0817  -17.4185   24.6497 H   0  0  0  0  0  0
  -27.4196  -17.7019   25.0966 H   0  0  0  0  0  0
  -28.5465  -24.9904   21.9891 H   0  0  0  0  0  0
  -26.9356  -24.6977   21.3833 H   0  0  0  0  0  0
  -29.2682  -22.8470   20.6767 H   0  0  0  0  0  0
  -27.5744  -22.5227   20.4531 H   0  0  0  0  0  0
  -28.5105  -14.9848   24.1780 H   0  0  0  0  0  0
  -26.9031  -15.2893   24.7351 H   0  0  0  0  0  0
  -26.6676  -17.0960   22.8086 H   0  0  0  0  0  0
  -28.2731  -16.4772   22.4707 H   0  0  0  0  0  0
  -31.0514  -17.5451   21.7172 H   0  0  0  0  0  0
  -31.4030  -16.9711   20.1683 H   0  0  0  0  0  0
  -27.7696  -24.9704   19.0401 H   0  0  0  0  0  0
  -29.3967  -24.9995   19.6000 H   0  0  0  0  0  0
  -29.4291  -20.5796   20.5184 H   0  0  0  0  0  0
  1 25  1  0  0  0
  1 30  2  0  0  0
  1 94  1  0  0  0
  2  3  1  0  0  0
  2 25  1  0  0  0
  2 95  1  0  0  0
  2 96  1  0  0  0
  3  4  1  0  0  0
  3 97  1  0  0  0
  3 98  1  0  0  0
  4  5  1  0  0  0
  4 99  1  0  0  0
  4100  1  0  0  0
  5  6  1  0  0  0
  5 26  1  0  0  0
  5101  1  0  0  0
  6 25  1  0  0  0
  6102  1  0  0  0
  6103  1  0  0  0
  7  8  2  0  0  0
  7 26  1  0  0  0
  7 29  1  0  0  0
  8  9  1  0  0  0
  8 22  1  0  0  0
  9 10  1  0  0  0
  9 27  2  0  0  0
 10 11  2  0  0  0
 10 15  1  0  0  0
 11 12  1  0  0  0
 11104  1  0  0  0
 12 13  2  0  0  0
 12105  1  0  0  0
 13 14  1  0  0  0
 13 31  1  0  0  0
 14 15  2  0  0  0
 14106  1  0  0  0
 15107  1  0  0  0
 16 17  2  0  0  0
 16 21  1  0  0  0
 16 31  1  0  0  0
 17 18  1  0  0  0
 17108  1  0  0  0
 18 19  2  0  0  0
 18109  1  0  0  0
 19 20  1  0  0  0
 19 24  1  0  0  0
 20 21  2  0  0  0
 20110  1  0  0  0
 21 23  1  0  0  0
 22 28  1  0  0  0
 22 32  2  0  0  0
 26 27  1  0  0  0
 28111  1  0  0  0
 28112  1  0  0  0
 29113  1  0  0  0
 29114  1  0  0  0
 33 34  1  0  0  0
 33 66  1  0  0  0
 33 70  2  0  0  0
 34 36  1  0  0  0
 34 59  1  0  0  0
 34115  1  0  0  0
 35 44  2  0  0  0
 35 45  1  0  0  0
 35 68  1  0  0  0
 36 56  1  0  0  0
 36116  1  0  0  0
 37 39  1  0  0  0
 37 47  1  0  0  0
 37 66  1  0  0  0
 37117  1  0  0  0
 38 43  2  0  0  0
 38 46  1  0  0  0
 38 47  1  0  0  0
 39 64  1  0  0  0
 39 67  2  0  0  0
 40 52  1  0  0  0
 40 53  2  0  0  0
 40 58  1  0  0  0
 41118  1  0  0  0
 41119  1  0  0  0
 41120  1  0  0  0
 41 48  1  0  0  0
 42 43  1  0  0  0
 42 66  1  0  0  0
 42121  1  0  0  0
 42122  1  0  0  0
 43 44  1  0  0  0
 44123  1  0  0  0
 45 46  2  0  0  0
 45124  1  0  0  0
 46125  1  0  0  0
 47126  1  0  0  0
 47127  1  0  0  0
 48 56  1  0  0  0
 48 65  1  0  0  0
 48128  1  0  0  0
 49 50  1  0  0  0
 49 53  1  0  0  0
 49 64  1  0  0  0
 49129  1  0  0  0
 50 51  1  0  0  0
 50130  1  0  0  0
 50131  1  0  0  0
 51 52  1  0  0  0
 51132  1  0  0  0
 51133  1  0  0  0
 52134  1  0  0  0
 52135  1  0  0  0
 53 54  1  0  0  0
 54 55  2  0  0  0
 54136  1  0  0  0
 55 57  1  0  0  0
 55137  1  0  0  0
 56 69  2  0  0  0
 57 58  2  0  0  0
 57138  1  0  0  0
 58139  1  0  0  0
 59 60  1  0  0  0
 59 61  1  0  0  0
 59 62  1  0  0  0
 60140  1  0  0  0
 60141  1  0  0  0
 60142  1  0  0  0
 61143  1  0  0  0
 61144  1  0  0  0
 61145  1  0  0  0
 62146  1  0  0  0
 62147  1  0  0  0
 62148  1  0  0  0
 63 65  1  0  0  0
 63149  1  0  0  0
 63150  1  0  0  0
 63151  1  0  0  0
 64152  1  0  0  0
 65153  1  0  0  0
 68 88  1  0  0  0
 71 72  2  0  0  0
 71 92  1  0  0  0
 71154  1  0  0  0
 72 89  1  0  0  0
 72 93  1  0  0  0
 73 90  1  0  0  0
 73 92  1  0  0  0
 73 93  2  0  0  0
 74155  1  0  0  0
 74156  1  0  0  0
 74157  1  0  0  0
 74 89  1  0  0  0
 75 89  1  0  0  0
 75158  1  0  0  0
 75159  1  0  0  0
 75160  1  0  0  0
 76161  1  0  0  0
 76162  1  0  0  0
 76163  1  0  0  0
 76 90  1  0  0  0
 77 90  1  0  0  0
 77164  1  0  0  0
 77165  1  0  0  0
 77166  1  0  0  0
 78167  1  0  0  0
 78168  1  0  0  0
 78169  1  0  0  0
 78 91  1  0  0  0
 79 91  1  0  0  0
 79170  1  0  0  0
 79171  1  0  0  0
 79172  1  0  0  0
 80 91  1  0  0  0
 80173  1  0  0  0
 80174  1  0  0  0
 80175  1  0  0  0
 81 94  1  0  0  0
 81176  1  0  0  0
 81177  1  0  0  0
 81178  1  0  0  0
 82 85  1  0  0  0
 82 86  1  0  0  0
 82179  1  0  0  0
 82180  1  0  0  0
 83 84  1  0  0  0
 83 88  1  0  0  0
 83181  1  0  0  0
 83182  1  0  0  0
 84 89  1  0  0  0
 84183  1  0  0  0
 84184  1  0  0  0
 85 91  1  0  0  0
 85185  1  0  0  0
 85186  1  0  0  0
 86 92  1  0  0  0
 86187  1  0  0  0
 86188  1  0  0  0
 87 90  1  0  0  0
 87 94  1  0  0  0
 87189  1  0  0  0
 87190  1  0  0  0
 88191  1  0  0  0
 88192  1  0  0  0
 93193  1  0  0  0
M  CHG  1  93   1
M  ISO  4   1 100  68 101  88 101  94 100
M  END
> <chiral flag>
0

> <version>
0

> <s_m_source_file>
/data/baiqing/PycharmProjects/Reinvent-master-3.2/result/LINK_invent/BTK/process_docking_weight1_custom_sum_contain_oxygen_bond_distance_aromatic_linkinvent_7_9_3/rearranged_h_0066.sdf

> <i_m_source_file_index>
7

> <r_mmod_Potential_Energy-OPLS-2005>
121.735992431641

> <r_mmod_Stretch_Energy-OPLS-2005>
52.1123123168945

> <r_mmod_Bend_Energy-OPLS-2005>
150.328536987305

> <r_mmod_Torsional_Energy-OPLS-2005>
341.731384277344

> <r_mmod_Improper_Torsional_Energy-OPLS-2005>
6.53777360916138

> <r_mmod_Van_der_Waal_Energy-OPLS-2005>
142.800277709961

> <r_mmod_Electrostatic_Energy-OPLS-2005>
-222.792221069336

> <r_mmod_Solvation_Energy-OPLS-2005>
-370.201049804688

> <b_mmod_Minimization_Converged-OPLS-2005>
0

> <r_mmod_RMS_Derivative-OPLS-2005>
8.17815971374512

$$$$
7
                    3D
 Structure written by MMmdl.
174182  0  0  1  0            999 V2000
  -30.6826  -14.4090   20.6172 C   0  0  0  0  0  0
  -30.4306  -12.2828   19.4017 C   0  0  0  0  0  0
  -29.4955  -12.5325   18.2003 C   0  0  0  0  0  0
  -28.0135  -12.3912   18.6085 C   0  0  0  0  0  0
  -27.6702  -13.1914   19.8916 C   0  0  2  0  0  0
  -28.7079  -12.8954   20.9979 C   0  0  0  0  0  0
  -25.2651  -13.8125   20.5735 C   0  0  0  0  0  0
  -24.1854  -13.0419   20.9148 C   0  0  0  0  0  0
  -24.6383  -11.6878   20.8715 C   0  0  0  0  0  0
  -23.9040  -10.4276   21.0400 C   0  0  0  0  0  0
  -24.3611   -9.4209   21.9176 C   0  0  0  0  0  0
  -23.6295   -8.2241   22.0752 C   0  0  0  0  0  0
  -22.4277   -8.0279   21.3545 C   0  0  0  0  0  0
  -21.9895   -9.0246   20.4641 C   0  0  0  0  0  0
  -22.7217  -10.2124   20.3046 C   0  0  0  0  0  0
  -21.6862   -6.0735   22.5279 C   0  0  0  0  0  0
  -21.4016   -6.5640   23.8218 C   0  0  0  0  0  0
  -21.3672   -5.6794   24.9177 C   0  0  0  0  0  0
  -21.6057   -4.3057   24.7229 C   0  0  0  0  0  0
  -21.8819   -3.8149   23.4351 C   0  0  0  0  0  0
  -21.9197   -4.6959   22.3409 C   0  0  0  0  0  0
  -22.7889  -13.5245   21.1832 C   0  0  0  0  0  0
  -22.1668   -4.2143   21.0988 F   0  0  0  0  0  0
  -21.5633   -3.4545   25.7745 F   0  0  0  0  0  0
  -30.0490  -13.2164   20.4676 N   0  0  0  0  0  0
  -26.3068  -12.9253   20.3425 N   0  0  0  0  0  0
  -25.9307  -11.6421   20.5743 N   0  0  0  0  0  0
  -22.0554  -12.8207   22.0389 N   0  0  0  0  0  0
  -25.4410  -15.1855   20.4304 N   0  0  0  0  0  0
  -31.7447  -14.6949   20.0580 O   0  0  0  0  0  0
  -21.6650   -6.8880   21.4239 O   0  0  0  0  0  0
  -22.3580  -14.5579   20.6740 O   0  0  0  0  0  0
  -24.6099  -31.8682   23.2129 C   0  0  0  0  0  0
  -25.9009  -32.4818   23.8401 C   0  0  1  0  0  0
  -27.2396  -27.4666   20.0945 C   0  0  0  0  0  0
  -25.5895  -33.8621   24.2340 N   0  0  0  0  0  0
  -23.3954  -30.4926   21.5514 C   0  0  2  0  0  0
  -24.8451  -28.9610   20.1140 C   0  0  0  0  0  0
  -22.7377  -29.4652   22.4996 C   0  0  0  0  0  0
  -18.0257  -28.1366   22.8489 C   0  0  0  0  0  0
  -24.1495  -36.7321   23.2640 C   0  0  0  0  0  0
  -25.9189  -30.8461   21.3604 C   0  0  0  0  0  0
  -25.9984  -29.4797   20.7142 C   0  0  0  0  0  0
  -27.1970  -28.7387   20.7070 C   0  0  0  0  0  0
  -26.0776  -26.9591   19.4771 C   0  0  0  0  0  0
  -24.8764  -27.6945   19.4997 C   0  0  0  0  0  0
  -23.6023  -29.8221   20.1660 C   0  0  0  0  0  0
  -25.4112  -36.3112   24.0343 C   0  0  1  0  0  0
  -20.5853  -28.3637   23.1348 C   0  0  2  0  0  0
  -20.6759  -26.9380   22.5438 C   0  0  0  0  0  0
  -19.5744  -26.6375   21.5224 C   0  0  0  0  0  0
  -18.1908  -26.7910   22.1620 C   0  0  0  0  0  0
  -19.1509  -28.8813   23.2913 C   0  0  0  0  0  0
  -18.9442  -30.1425   23.8922 C   0  0  0  0  0  0
  -17.6451  -30.6577   24.0557 C   0  0  0  0  0  0
  -25.9034  -34.9472   23.5140 C   0  0  0  0  0  0
  -16.5334  -29.9087   23.6322 C   0  0  0  0  0  0
  -16.7249  -28.6505   23.0337 C   0  0  0  0  0  0
  -26.4470  -31.6592   25.0707 C   0  0  0  0  0  0
  -25.3752  -31.3697   26.1465 C   0  0  0  0  0  0
  -27.0298  -30.3038   24.6036 C   0  0  0  0  0  0
  -27.6049  -32.4305   25.7469 C   0  0  0  0  0  0
  -27.5579  -37.1809   24.8463 C   0  0  0  0  0  0
  -21.4107  -29.3019   22.3757 N   0  0  0  0  0  0
  -26.4296  -37.3797   23.9410 N   0  0  0  0  0  0
  -24.6596  -31.0827   22.1016 N   0  0  0  0  0  0
  -23.4183  -28.8191   23.2999 O   0  0  0  0  0  0
  -28.4138  -26.7549   20.0399 O   0  0  0  0  0  0
  -26.5573  -34.8924   22.4688 O   0  0  0  0  0  0
  -23.5304  -32.1429   23.7563 O   0  0  0  0  0  0
  -28.2070  -19.5024   19.2084 C   0  0  0  0  0  0
  -26.5967  -19.4100   20.6531 C   0  0  0  0  0  0
  -28.3320  -18.3527   19.9650 C   0  0  0  0  0  0
  -24.3224  -20.3633   18.3367 C   0  0  0  0  0  0
  -31.2442  -17.4314   21.6089 C   0  0  0  0  0  0
  -26.9421  -21.8510   17.7881 C   0  0  0  0  0  0
  -29.3196  -17.2160   19.8603 C   0  0  0  0  0  0
  -24.9721  -21.4296   19.2382 C   0  0  0  0  0  0
  -26.9068  -22.6048   20.3080 C   0  0  0  0  0  0
  -29.9145  -16.7572   21.2277 C   0  0  1  0  0  0
  -26.5353  -21.5010   19.2463 C   0  0  2  0  0  0
  -28.1344  -23.5780   20.1854 C   0  0  1  0  0  0
  -28.0402  -24.6737   21.3213 C   0  0  0  0  0  0
  -28.8017  -26.0284   21.1316 C   0  0  0  0  0  0
  -29.5015  -22.8197   20.2181 C   0  0  0  0  0  0
  -27.2683  -18.2846   20.8578 N   0  0  0  0  0  0
  -27.0783  -20.1896   19.6686 N   0  0  0  0  0  0
  -29.9669  -15.2948   21.3236 N   0  0  0  0  0  0
  -28.0190  -24.2104   19.0143 F   0  0  0  0  0  0
  -26.7671  -25.0158   21.5334 F   0  0  0  0  0  0
  -28.4604  -24.1293   22.4648 F   0  0  0  0  0  0
  -30.1362  -25.8374   21.0416 F   0  0  0  0  0  0
  -28.6525  -26.7681   22.2605 F   0  0  0  0  0  0
  -29.6459  -21.9908   19.1934 F   0  0  0  0  0  0
  -30.5555  -23.6238   20.1764 F   0  0  0  0  0  0
  -29.5943  -22.0826   21.3251 F   0  0  0  0  0  0
  -31.4746  -12.4000   19.1056 H   0  0  0  0  0  0
  -30.3344  -11.2522   19.7492 H   0  0  0  0  0  0
  -29.7273  -11.8397   17.3911 H   0  0  0  0  0  0
  -29.6713  -13.5355   17.8059 H   0  0  0  0  0  0
  -27.8105  -11.3308   18.7642 H   0  0  0  0  0  0
  -27.3663  -12.7068   17.7897 H   0  0  0  0  0  0
  -27.7309  -14.2483   19.6366 H   0  0  0  0  0  0
  -28.6747  -11.8385   21.2690 H   0  0  0  0  0  0
  -28.4592  -13.4247   21.9191 H   0  0  0  0  0  0
  -25.2767   -9.5688   22.4726 H   0  0  0  0  0  0
  -24.0022   -7.4638   22.7461 H   0  0  0  0  0  0
  -21.0836   -8.8770   19.8948 H   0  0  0  0  0  0
  -22.3705  -10.9659   19.6150 H   0  0  0  0  0  0
  -21.2013   -7.6145   23.9709 H   0  0  0  0  0  0
  -21.1495   -6.0529   25.9079 H   0  0  0  0  0  0
  -22.0588   -2.7601   23.2859 H   0  0  0  0  0  0
  -22.4194  -11.9840   22.4700 H   0  0  0  0  0  0
  -21.1178  -13.1211   22.2660 H   0  0  0  0  0  0
  -24.6907  -15.8432   20.6038 H   0  0  0  0  0  0
  -26.3231  -15.6447   20.2359 H   0  0  0  0  0  0
  -26.7058  -32.5556   23.1153 H   0  0  0  0  0  0
  -25.0082  -33.9801   25.0505 H   0  0  0  0  0  0
  -22.6819  -31.3081   21.4144 H   0  0  0  0  0  0
  -23.3744  -35.9670   23.3335 H   0  0  0  0  0  0
  -24.3587  -36.8901   22.2048 H   0  0  0  0  0  0
  -23.7269  -37.6547   23.6631 H   0  0  0  0  0  0
  -26.0181  -31.6102   20.5887 H   0  0  0  0  0  0
  -26.8123  -30.9079   21.9701 H   0  0  0  0  0  0
  -28.0913  -29.1398   21.1651 H   0  0  0  0  0  0
  -26.1038  -25.9988   18.9809 H   0  0  0  0  0  0
  -23.9908  -27.2911   19.0306 H   0  0  0  0  0  0
  -23.7009  -30.5974   19.4058 H   0  0  0  0  0  0
  -22.7275  -29.2390   19.8731 H   0  0  0  0  0  0
  -25.1291  -36.1971   25.0836 H   0  0  0  0  0  0
  -20.9931  -28.3175   24.1474 H   0  0  0  0  0  0
  -20.5678  -26.2226   23.3609 H   0  0  0  0  0  0
  -21.6628  -26.7430   22.1220 H   0  0  0  0  0  0
  -19.6924  -25.6297   21.1234 H   0  0  0  0  0  0
  -19.6702  -27.3200   20.6767 H   0  0  0  0  0  0
  -17.4192  -26.6653   21.4006 H   0  0  0  0  0  0
  -18.0296  -26.0052   22.9017 H   0  0  0  0  0  0
  -19.7924  -30.7224   24.2302 H   0  0  0  0  0  0
  -17.5013  -31.6264   24.5143 H   0  0  0  0  0  0
  -15.5345  -30.2999   23.7649 H   0  0  0  0  0  0
  -15.8638  -28.0846   22.7036 H   0  0  0  0  0  0
  -24.5910  -30.7048   25.7819 H   0  0  0  0  0  0
  -24.8962  -32.2869   26.4905 H   0  0  0  0  0  0
  -25.8118  -30.8873   27.0217 H   0  0  0  0  0  0
  -26.2822  -29.6789   24.1119 H   0  0  0  0  0  0
  -27.4136  -29.7258   25.4456 H   0  0  0  0  0  0
  -27.8634  -30.4391   23.9134 H   0  0  0  0  0  0
  -27.2650  -33.3587   26.2077 H   0  0  0  0  0  0
  -28.3842  -32.6881   25.0284 H   0  0  0  0  0  0
  -28.0727  -31.8402   26.5358 H   0  0  0  0  0  0
  -28.2597  -38.0098   24.7488 H   0  0  0  0  0  0
  -28.1063  -36.2627   24.6305 H   0  0  0  0  0  0
  -27.2295  -37.1486   25.8863 H   0  0  0  0  0  0
  -20.9224  -29.8759   21.7023 H   0  0  0  0  0  0
  -26.0183  -38.2879   24.1397 H   0  0  0  0  0  0
  -28.8136  -19.8634   18.3905 H   0  0  0  0  0  0
  -25.7196  -19.6587   21.2327 H   0  0  0  0  0  0
  -23.2493  -20.3116   18.5267 H   0  0  0  0  0  0
  -24.7278  -19.3656   18.5018 H   0  0  0  0  0  0
  -24.4426  -20.6086   17.2819 H   0  0  0  0  0  0
  -32.0415  -17.2024   20.9019 H   0  0  0  0  0  0
  -31.5744  -17.1057   22.5954 H   0  0  0  0  0  0
  -31.1332  -18.5163   21.6480 H   0  0  0  0  0  0
  -26.4359  -22.7533   17.4392 H   0  0  0  0  0  0
  -26.6764  -21.0536   17.0953 H   0  0  0  0  0  0
  -28.0030  -22.0177   17.6385 H   0  0  0  0  0  0
  -30.1311  -17.4826   19.1820 H   0  0  0  0  0  0
  -28.8118  -16.3837   19.3702 H   0  0  0  0  0  0
  -24.6057  -21.2822   20.2553 H   0  0  0  0  0  0
  -24.5628  -22.3959   18.9409 H   0  0  0  0  0  0
  -26.9620  -22.1375   21.2916 H   0  0  0  0  0  0
  -26.0330  -23.2491   20.3751 H   0  0  0  0  0  0
  -29.1999  -17.0129   22.0113 H   0  0  0  0  0  0
  -29.1702  -14.8803   21.7839 H   0  0  0  0  0  0
  1 25  1  0  0  0
  1 30  2  0  0  0
  1 88  1  0  0  0
  2  3  1  0  0  0
  2 25  1  0  0  0
  2 97  1  0  0  0
  2 98  1  0  0  0
  3  4  1  0  0  0
  3 99  1  0  0  0
  3100  1  0  0  0
  4  5  1  0  0  0
  4101  1  0  0  0
  4102  1  0  0  0
  5  6  1  0  0  0
  5 26  1  0  0  0
  5103  1  0  0  0
  6 25  1  0  0  0
  6104  1  0  0  0
  6105  1  0  0  0
  7  8  2  0  0  0
  7 26  1  0  0  0
  7 29  1  0  0  0
  8  9  1  0  0  0
  8 22  1  0  0  0
  9 10  1  0  0  0
  9 27  2  0  0  0
 10 11  2  0  0  0
 10 15  1  0  0  0
 11 12  1  0  0  0
 11106  1  0  0  0
 12 13  2  0  0  0
 12107  1  0  0  0
 13 14  1  0  0  0
 13 31  1  0  0  0
 14 15  2  0  0  0
 14108  1  0  0  0
 15109  1  0  0  0
 16 17  2  0  0  0
 16 21  1  0  0  0
 16 31  1  0  0  0
 17 18  1  0  0  0
 17110  1  0  0  0
 18 19  2  0  0  0
 18111  1  0  0  0
 19 20  1  0  0  0
 19 24  1  0  0  0
 20 21  2  0  0  0
 20112  1  0  0  0
 21 23  1  0  0  0
 22 28  1  0  0  0
 22 32  2  0  0  0
 26 27  1  0  0  0
 28113  1  0  0  0
 28114  1  0  0  0
 29115  1  0  0  0
 29116  1  0  0  0
 33 34  1  0  0  0
 33 66  1  0  0  0
 33 70  2  0  0  0
 34 36  1  0  0  0
 34 59  1  0  0  0
 34117  1  0  0  0
 35 44  2  0  0  0
 35 45  1  0  0  0
 35 68  1  0  0  0
 36 56  1  0  0  0
 36118  1  0  0  0
 37 39  1  0  0  0
 37 47  1  0  0  0
 37 66  1  0  0  0
 37119  1  0  0  0
 38 43  2  0  0  0
 38 46  1  0  0  0
 38 47  1  0  0  0
 39 64  1  0  0  0
 39 67  2  0  0  0
 40 52  1  0  0  0
 40 53  2  0  0  0
 40 58  1  0  0  0
 41120  1  0  0  0
 41121  1  0  0  0
 41122  1  0  0  0
 41 48  1  0  0  0
 42 43  1  0  0  0
 42 66  1  0  0  0
 42123  1  0  0  0
 42124  1  0  0  0
 43 44  1  0  0  0
 44125  1  0  0  0
 45 46  2  0  0  0
 45126  1  0  0  0
 46127  1  0  0  0
 47128  1  0  0  0
 47129  1  0  0  0
 48 56  1  0  0  0
 48 65  1  0  0  0
 48130  1  0  0  0
 49 50  1  0  0  0
 49 53  1  0  0  0
 49 64  1  0  0  0
 49131  1  0  0  0
 50 51  1  0  0  0
 50132  1  0  0  0
 50133  1  0  0  0
 51 52  1  0  0  0
 51134  1  0  0  0
 51135  1  0  0  0
 52136  1  0  0  0
 52137  1  0  0  0
 53 54  1  0  0  0
 54 55  2  0  0  0
 54138  1  0  0  0
 55 57  1  0  0  0
 55139  1  0  0  0
 56 69  2  0  0  0
 57 58  2  0  0  0
 57140  1  0  0  0
 58141  1  0  0  0
 59 60  1  0  0  0
 59 61  1  0  0  0
 59 62  1  0  0  0
 60142  1  0  0  0
 60143  1  0  0  0
 60144  1  0  0  0
 61145  1  0  0  0
 61146  1  0  0  0
 61147  1  0  0  0
 62148  1  0  0  0
 62149  1  0  0  0
 62150  1  0  0  0
 63 65  1  0  0  0
 63151  1  0  0  0
 63152  1  0  0  0
 63153  1  0  0  0
 64154  1  0  0  0
 65155  1  0  0  0
 68 84  1  0  0  0
 71 73  2  0  0  0
 71 87  1  0  0  0
 71156  1  0  0  0
 72 86  2  0  0  0
 72 87  1  0  0  0
 72157  1  0  0  0
 73 77  1  0  0  0
 73 86  1  0  0  0
 74 78  1  0  0  0
 74158  1  0  0  0
 74159  1  0  0  0
 74160  1  0  0  0
 75161  1  0  0  0
 75162  1  0  0  0
 75163  1  0  0  0
 75 80  1  0  0  0
 76164  1  0  0  0
 76165  1  0  0  0
 76166  1  0  0  0
 76 81  1  0  0  0
 77 80  1  0  0  0
 77167  1  0  0  0
 77168  1  0  0  0
 78 81  1  0  0  0
 78169  1  0  0  0
 78170  1  0  0  0
 79 81  1  0  0  0
 79 82  1  0  0  0
 79171  1  0  0  0
 79172  1  0  0  0
 80 88  1  0  0  0
 80173  1  0  0  0
 81 87  1  0  0  0
 82 83  1  0  0  0
 82 85  1  0  0  0
 82 89  1  0  0  0
 83 84  1  0  0  0
 83 90  1  0  0  0
 83 91  1  0  0  0
 84 92  1  0  0  0
 84 93  1  0  0  0
 85 94  1  0  0  0
 85 95  1  0  0  0
 85 96  1  0  0  0
 88174  1  0  0  0
M  ISO  4   1 100  68 101  84 101  88 100
M  END
> <chiral flag>
0

> <version>
0

> <s_m_source_file>
/data/baiqing/PycharmProjects/Reinvent-master-3.2/result/LINK_invent/BTK/process_docking_weight1_custom_sum_contain_oxygen_bond_distance_aromatic_linkinvent_7_9_3/rearranged_h_0066.sdf

> <i_m_source_file_index>
8

> <r_mmod_Potential_Energy-OPLS-2005>
58.9779243469238

> <r_mmod_Stretch_Energy-OPLS-2005>
46.8941268920898

> <r_mmod_Bend_Energy-OPLS-2005>
143.880722045898

> <r_mmod_Torsional_Energy-OPLS-2005>
242.893051147461

> <r_mmod_Improper_Torsional_Energy-OPLS-2005>
4.70948696136475

> <r_mmod_Van_der_Waal_Energy-OPLS-2005>
152.874359130859

> <r_mmod_Electrostatic_Energy-OPLS-2005>
-351.437377929688

> <r_mmod_Solvation_Energy-OPLS-2005>
-188.715774536133

> <b_mmod_Minimization_Converged-OPLS-2005>
0

> <r_mmod_RMS_Derivative-OPLS-2005>
2.6691517829895

$$$$
8
                    3D
 Structure written by MMmdl.
171179  0  0  1  0            999 V2000
  -30.6413  -14.5754   20.4054 C   0  0  0  0  0  0
  -30.4141  -12.2902   19.4614 C   0  0  0  0  0  0
  -29.4812  -12.2097   18.2299 C   0  0  0  0  0  0
  -27.9849  -12.2134   18.6310 C   0  0  0  0  0  0
  -27.6217  -13.1508   19.8176 C   0  0  2  0  0  0
  -28.6664  -13.0413   20.9435 C   0  0  0  0  0  0
  -25.2540  -13.7979   20.5736 C   0  0  0  0  0  0
  -24.1710  -13.0312   20.9191 C   0  0  0  0  0  0
  -24.6229  -11.6789   20.8700 C   0  0  0  0  0  0
  -23.8946  -10.4208   21.0414 C   0  0  0  0  0  0
  -24.3547   -9.4147   21.9188 C   0  0  0  0  0  0
  -23.6220   -8.2216   22.0775 C   0  0  0  0  0  0
  -22.4217   -8.0294   21.3542 C   0  0  0  0  0  0
  -21.9818   -9.0257   20.4670 C   0  0  0  0  0  0
  -22.7140  -10.2111   20.3078 C   0  0  0  0  0  0
  -21.6815   -6.0792   22.5299 C   0  0  0  0  0  0
  -21.4009   -6.5695   23.8232 C   0  0  0  0  0  0
  -21.3604   -5.6833   24.9200 C   0  0  0  0  0  0
  -21.6025   -4.3094   24.7195 C   0  0  0  0  0  0
  -21.8812   -3.8203   23.4323 C   0  0  0  0  0  0
  -21.9167   -4.7040   22.3386 C   0  0  0  0  0  0
  -22.7797  -13.5258   21.1830 C   0  0  0  0  0  0
  -22.1628   -4.2272   21.0967 F   0  0  0  0  0  0
  -21.5580   -3.4548   25.7672 F   0  0  0  0  0  0
  -29.9774  -13.3749   20.3768 N   0  0  0  0  0  0
  -26.2768  -12.9000   20.3143 N   0  0  0  0  0  0
  -25.9055  -11.6226   20.5610 N   0  0  0  0  0  0
  -22.0358  -12.8215   22.0327 N   0  0  0  0  0  0
  -25.4411  -15.1635   20.4355 N   0  0  0  0  0  0
  -31.8297  -14.5911   20.0765 O   0  0  0  0  0  0
  -21.6605   -6.8902   21.4224 O   0  0  0  0  0  0
  -22.3602  -14.5675   20.6816 O   0  0  0  0  0  0
  -24.6144  -31.8660   23.2056 C   0  0  0  0  0  0
  -25.9014  -32.4832   23.8410 C   0  0  1  0  0  0
  -27.2470  -27.4311   20.0960 C   0  0  0  0  0  0
  -25.5853  -33.8647   24.2344 N   0  0  0  0  0  0
  -23.4103  -30.4832   21.5426 C   0  0  2  0  0  0
  -24.8611  -28.9428   20.1286 C   0  0  0  0  0  0
  -22.7396  -29.4662   22.4931 C   0  0  0  0  0  0
  -18.0217  -28.1512   22.8509 C   0  0  0  0  0  0
  -24.1505  -36.7305   23.2639 C   0  0  0  0  0  0
  -25.9383  -30.8319   21.3612 C   0  0  0  0  0  0
  -26.0211  -29.4600   20.7225 C   0  0  0  0  0  0
  -27.2202  -28.7048   20.7090 C   0  0  0  0  0  0
  -26.0711  -26.9290   19.4974 C   0  0  0  0  0  0
  -24.8763  -27.6752   19.5241 C   0  0  0  0  0  0
  -23.6259  -29.8104   20.1622 C   0  0  0  0  0  0
  -25.4121  -36.3152   24.0358 C   0  0  1  0  0  0
  -20.5831  -28.3739   23.1242 C   0  0  2  0  0  0
  -20.6655  -26.9436   22.5436 C   0  0  0  0  0  0
  -19.5613  -26.6500   21.5236 C   0  0  0  0  0  0
  -18.1805  -26.8059   22.1689 C   0  0  0  0  0  0
  -19.1518  -28.8958   23.2862 C   0  0  0  0  0  0
  -18.9460  -30.1567   23.8867 C   0  0  0  0  0  0
  -17.6490  -30.6710   24.0606 C   0  0  0  0  0  0
  -25.9027  -34.9490   23.5169 C   0  0  0  0  0  0
  -16.5367  -29.9240   23.6432 C   0  0  0  0  0  0
  -16.7228  -28.6690   23.0396 C   0  0  0  0  0  0
  -26.4440  -31.6598   25.0722 C   0  0  0  0  0  0
  -25.3773  -31.3626   26.1511 C   0  0  0  0  0  0
  -27.0190  -30.3034   24.6031 C   0  0  0  0  0  0
  -27.6047  -32.4275   25.7468 C   0  0  0  0  0  0
  -27.5590  -37.1820   24.8464 C   0  0  0  0  0  0
  -21.4138  -29.2989   22.3544 N   0  0  0  0  0  0
  -26.4307  -37.3812   23.9404 N   0  0  0  0  0  0
  -24.6735  -31.0731   22.0974 N   0  0  0  0  0  0
  -23.4093  -28.8319   23.3114 O   0  0  0  0  0  0
  -28.4130  -26.7016   20.0064 O   0  0  0  0  0  0
  -26.5584  -34.8912   22.4738 O   0  0  0  0  0  0
  -23.5341  -32.1417   23.7425 O   0  0  0  0  0  0
  -28.6531  -20.9275   21.5557 C   0  0  0  0  0  0
  -28.5195  -19.6136   21.0742 C   0  0  0  0  0  0
  -30.4218  -21.2521   19.9595 C   0  0  0  0  0  0
  -29.5586  -21.8074   20.9233 C   0  0  0  0  0  0
  -29.2498  -19.2226   19.9303 C   0  0  0  0  0  0
  -29.4219  -15.7679   18.0190 C   0  0  0  0  0  0
  -29.2424  -18.5111   17.5351 C   0  0  0  0  0  0
  -31.1387  -16.9807   20.9230 C   0  0  0  0  0  0
  -29.0682  -16.0396   21.8660 C   0  0  0  0  0  0
  -29.5993  -23.2967   21.3023 C   0  0  0  0  0  0
  -28.8122  -24.2516   20.3541 C   0  0  0  0  0  0
  -28.5990  -25.6627   20.9751 C   0  0  0  0  0  0
  -29.1320  -16.5556   19.3125 C   0  0  2  0  0  0
  -28.7567  -18.0899   18.9680 C   0  0  1  0  0  0
  -29.9610  -16.0218   20.5978 C   0  0  0  0  0  0
  -27.1894  -18.1596   18.8250 C   0  0  0  0  0  0
  -30.2878  -19.9905   19.4994 N   0  0  0  0  0  0
  -26.5652  -17.8376   19.9591 F   0  0  0  0  0  0
  -26.7498  -17.3030   17.8970 F   0  0  0  0  0  0
  -26.7670  -19.3718   18.4535 F   0  0  0  0  0  0
  -31.4502  -12.3782   19.1300 H   0  0  0  0  0  0
  -30.3778  -11.3380   19.9906 H   0  0  0  0  0  0
  -29.6664  -11.2599   17.7184 H   0  0  0  0  0  0
  -29.7396  -12.9357   17.4671 H   0  0  0  0  0  0
  -27.7608  -11.1822   18.9169 H   0  0  0  0  0  0
  -27.3543  -12.4136   17.7631 H   0  0  0  0  0  0
  -27.6040  -14.1589   19.4255 H   0  0  0  0  0  0
  -28.6925  -12.0288   21.3482 H   0  0  0  0  0  0
  -28.3811  -13.6375   21.8009 H   0  0  0  0  0  0
  -25.2690   -9.5637   22.4755 H   0  0  0  0  0  0
  -23.9968   -7.4633   22.7494 H   0  0  0  0  0  0
  -21.0758   -8.8747   19.9004 H   0  0  0  0  0  0
  -22.3577  -10.9682   19.6247 H   0  0  0  0  0  0
  -21.2054   -7.6210   23.9768 H   0  0  0  0  0  0
  -21.1393   -6.0555   25.9097 H   0  0  0  0  0  0
  -22.0634   -2.7686   23.2751 H   0  0  0  0  0  0
  -22.3965  -11.9880   22.4674 H   0  0  0  0  0  0
  -21.1088  -13.1369   22.2805 H   0  0  0  0  0  0
  -24.7003  -15.8293   20.6207 H   0  0  0  0  0  0
  -26.3007  -15.6059   20.1476 H   0  0  0  0  0  0
  -26.7136  -32.5501   23.1212 H   0  0  0  0  0  0
  -24.9985  -33.9881   25.0485 H   0  0  0  0  0  0
  -22.7038  -31.3006   21.3963 H   0  0  0  0  0  0
  -23.3783  -35.9620   23.3333 H   0  0  0  0  0  0
  -24.3607  -36.8877   22.2045 H   0  0  0  0  0  0
  -23.7224  -37.6518   23.6599 H   0  0  0  0  0  0
  -26.0480  -31.5948   20.5878 H   0  0  0  0  0  0
  -26.8274  -30.8902   21.9781 H   0  0  0  0  0  0
  -28.1214  -29.0961   21.1630 H   0  0  0  0  0  0
  -26.0844  -25.9611   19.0175 H   0  0  0  0  0  0
  -23.9808  -27.2687   19.0720 H   0  0  0  0  0  0
  -22.7595  -29.2190   19.8702 H   0  0  0  0  0  0
  -23.7358  -30.5711   19.3852 H   0  0  0  0  0  0
  -25.1283  -36.2081   25.0844 H   0  0  0  0  0  0
  -20.9901  -28.3391   24.1364 H   0  0  0  0  0  0
  -20.5412  -26.2434   23.3686 H   0  0  0  0  0  0
  -21.6538  -26.7388   22.1297 H   0  0  0  0  0  0
  -19.6720  -25.6472   21.1110 H   0  0  0  0  0  0
  -19.6507  -27.3437   20.6883 H   0  0  0  0  0  0
  -17.4095  -26.6844   21.4071 H   0  0  0  0  0  0
  -18.0101  -26.0244   22.9105 H   0  0  0  0  0  0
  -19.7917  -30.7410   24.2226 H   0  0  0  0  0  0
  -17.5029  -31.6353   24.5282 H   0  0  0  0  0  0
  -15.5387  -30.3163   23.7817 H   0  0  0  0  0  0
  -15.8555  -28.1085   22.7142 H   0  0  0  0  0  0
  -24.6038  -30.6852   25.7844 H   0  0  0  0  0  0
  -24.8848  -32.2722   26.4959 H   0  0  0  0  0  0
  -25.8224  -30.8848   27.0275 H   0  0  0  0  0  0
  -26.2719  -29.6910   24.0967 H   0  0  0  0  0  0
  -27.3815  -29.7111   25.4438 H   0  0  0  0  0  0
  -27.8610  -30.4256   23.9224 H   0  0  0  0  0  0
  -27.2725  -33.3599   26.2024 H   0  0  0  0  0  0
  -28.3840  -32.6822   25.0275 H   0  0  0  0  0  0
  -28.0713  -31.8413   26.5385 H   0  0  0  0  0  0
  -28.2616  -38.0106   24.7494 H   0  0  0  0  0  0
  -28.1075  -36.2640   24.6327 H   0  0  0  0  0  0
  -27.2272  -37.1504   25.8853 H   0  0  0  0  0  0
  -20.9441  -29.8336   21.6380 H   0  0  0  0  0  0
  -26.0245  -38.2905   24.1418 H   0  0  0  0  0  0
  -28.0029  -21.2585   22.3540 H   0  0  0  0  0  0
  -27.7551  -18.9961   21.5154 H   0  0  0  0  0  0
  -31.1991  -21.8292   19.4809 H   0  0  0  0  0  0
  -28.6906  -15.9335   17.2335 H   0  0  0  0  0  0
  -29.2836  -14.7268   18.1994 H   0  0  0  0  0  0
  -30.4290  -15.9409   17.6355 H   0  0  0  0  0  0
  -30.3249  -18.4516   17.4423 H   0  0  0  0  0  0
  -28.9561  -19.5421   17.3083 H   0  0  0  0  0  0
  -28.8171  -17.9354   16.7201 H   0  0  0  0  0  0
  -30.8182  -17.8970   21.4077 H   0  0  0  0  0  0
  -31.7072  -17.2450   20.0257 H   0  0  0  0  0  0
  -31.8271  -16.5190   21.6380 H   0  0  0  0  0  0
  -28.0369  -15.7712   21.6439 H   0  0  0  0  0  0
  -29.0055  -17.0108   22.3539 H   0  0  0  0  0  0
  -29.4650  -15.3657   22.6238 H   0  0  0  0  0  0
  -30.6370  -23.6341   21.3575 H   0  0  0  0  0  0
  -29.1976  -23.3884   22.3123 H   0  0  0  0  0  0
  -27.8372  -23.8203   20.1011 H   0  0  0  0  0  0
  -29.3427  -24.3448   19.4057 H   0  0  0  0  0  0
  -29.4954  -25.9448   21.5267 H   0  0  0  0  0  0
  -27.7944  -25.6391   21.7137 H   0  0  0  0  0  0
  -28.1489  -16.1678   19.5385 H   0  0  0  0  0  0
  1 25  1  0  0  0
  1 30  2  0  0  0
  1 85  1  0  0  0
  2  3  1  0  0  0
  2 25  1  0  0  0
  2 91  1  0  0  0
  2 92  1  0  0  0
  3  4  1  0  0  0
  3 93  1  0  0  0
  3 94  1  0  0  0
  4  5  1  0  0  0
  4 95  1  0  0  0
  4 96  1  0  0  0
  5  6  1  0  0  0
  5 26  1  0  0  0
  5 97  1  0  0  0
  6 25  1  0  0  0
  6 98  1  0  0  0
  6 99  1  0  0  0
  7  8  2  0  0  0
  7 26  1  0  0  0
  7 29  1  0  0  0
  8  9  1  0  0  0
  8 22  1  0  0  0
  9 10  1  0  0  0
  9 27  2  0  0  0
 10 11  2  0  0  0
 10 15  1  0  0  0
 11 12  1  0  0  0
 11100  1  0  0  0
 12 13  2  0  0  0
 12101  1  0  0  0
 13 14  1  0  0  0
 13 31  1  0  0  0
 14 15  2  0  0  0
 14102  1  0  0  0
 15103  1  0  0  0
 16 17  2  0  0  0
 16 21  1  0  0  0
 16 31  1  0  0  0
 17 18  1  0  0  0
 17104  1  0  0  0
 18 19  2  0  0  0
 18105  1  0  0  0
 19 20  1  0  0  0
 19 24  1  0  0  0
 20 21  2  0  0  0
 20106  1  0  0  0
 21 23  1  0  0  0
 22 28  1  0  0  0
 22 32  2  0  0  0
 26 27  1  0  0  0
 28107  1  0  0  0
 28108  1  0  0  0
 29109  1  0  0  0
 29110  1  0  0  0
 33 34  1  0  0  0
 33 66  1  0  0  0
 33 70  2  0  0  0
 34 36  1  0  0  0
 34 59  1  0  0  0
 34111  1  0  0  0
 35 44  2  0  0  0
 35 45  1  0  0  0
 35 68  1  0  0  0
 36 56  1  0  0  0
 36112  1  0  0  0
 37 39  1  0  0  0
 37 47  1  0  0  0
 37 66  1  0  0  0
 37113  1  0  0  0
 38 43  2  0  0  0
 38 46  1  0  0  0
 38 47  1  0  0  0
 39 64  1  0  0  0
 39 67  2  0  0  0
 40 52  1  0  0  0
 40 53  2  0  0  0
 40 58  1  0  0  0
 41114  1  0  0  0
 41115  1  0  0  0
 41116  1  0  0  0
 41 48  1  0  0  0
 42 43  1  0  0  0
 42 66  1  0  0  0
 42117  1  0  0  0
 42118  1  0  0  0
 43 44  1  0  0  0
 44119  1  0  0  0
 45 46  2  0  0  0
 45120  1  0  0  0
 46121  1  0  0  0
 47122  1  0  0  0
 47123  1  0  0  0
 48 56  1  0  0  0
 48 65  1  0  0  0
 48124  1  0  0  0
 49 50  1  0  0  0
 49 53  1  0  0  0
 49 64  1  0  0  0
 49125  1  0  0  0
 50 51  1  0  0  0
 50126  1  0  0  0
 50127  1  0  0  0
 51 52  1  0  0  0
 51128  1  0  0  0
 51129  1  0  0  0
 52130  1  0  0  0
 52131  1  0  0  0
 53 54  1  0  0  0
 54 55  2  0  0  0
 54132  1  0  0  0
 55 57  1  0  0  0
 55133  1  0  0  0
 56 69  2  0  0  0
 57 58  2  0  0  0
 57134  1  0  0  0
 58135  1  0  0  0
 59 60  1  0  0  0
 59 61  1  0  0  0
 59 62  1  0  0  0
 60136  1  0  0  0
 60137  1  0  0  0
 60138  1  0  0  0
 61139  1  0  0  0
 61140  1  0  0  0
 61141  1  0  0  0
 62142  1  0  0  0
 62143  1  0  0  0
 62144  1  0  0  0
 63 65  1  0  0  0
 63145  1  0  0  0
 63146  1  0  0  0
 63147  1  0  0  0
 64148  1  0  0  0
 65149  1  0  0  0
 68 82  1  0  0  0
 71 72  2  0  0  0
 71 74  1  0  0  0
 71150  1  0  0  0
 72 75  1  0  0  0
 72151  1  0  0  0
 73 74  2  0  0  0
 73 87  1  0  0  0
 73152  1  0  0  0
 74 80  1  0  0  0
 75 84  1  0  0  0
 75 87  2  0  0  0
 76153  1  0  0  0
 76154  1  0  0  0
 76155  1  0  0  0
 76 83  1  0  0  0
 77156  1  0  0  0
 77157  1  0  0  0
 77158  1  0  0  0
 77 84  1  0  0  0
 78159  1  0  0  0
 78160  1  0  0  0
 78161  1  0  0  0
 78 85  1  0  0  0
 79 85  1  0  0  0
 79162  1  0  0  0
 79163  1  0  0  0
 79164  1  0  0  0
 80 81  1  0  0  0
 80165  1  0  0  0
 80166  1  0  0  0
 81 82  1  0  0  0
 81167  1  0  0  0
 81168  1  0  0  0
 82169  1  0  0  0
 82170  1  0  0  0
 83 84  1  0  0  0
 83 85  1  0  0  0
 83171  1  0  0  0
 84 86  1  0  0  0
 86 88  1  0  0  0
 86 89  1  0  0  0
 86 90  1  0  0  0
M  ISO  4   1 100  68 101  82 101  85 100
M  END
> <chiral flag>
0

> <version>
0

> <s_m_source_file>
/data/baiqing/PycharmProjects/Reinvent-master-3.2/result/LINK_invent/BTK/process_docking_weight1_custom_sum_contain_oxygen_bond_distance_aromatic_linkinvent_7_9_3/rearranged_h_0066.sdf

> <i_m_source_file_index>
9

> <r_mmod_Potential_Energy-OPLS-2005>
285.708892822266

> <r_mmod_Stretch_Energy-OPLS-2005>
76.4736557006836

> <r_mmod_Bend_Energy-OPLS-2005>
180.713897705078

> <r_mmod_Torsional_Energy-OPLS-2005>
292.892150878906

> <r_mmod_Improper_Torsional_Energy-OPLS-2005>
6.262047290802

> <r_mmod_Van_der_Waal_Energy-OPLS-2005>
213.758804321289

> <r_mmod_Electrostatic_Energy-OPLS-2005>
-344.478332519531

> <r_mmod_Solvation_Energy-OPLS-2005>
-183.10026550293

> <b_mmod_Minimization_Converged-OPLS-2005>
0

> <r_mmod_RMS_Derivative-OPLS-2005>
9.61804103851318

$$$$
10
                    3D
 Structure written by MMmdl.
182190  0  0  1  0            999 V2000
  -30.3794  -15.3292   20.3259 C   0  0  0  0  0  0
  -30.4430  -12.8558   19.5254 C   0  0  0  0  0  0
  -29.5381  -12.5829   18.2975 C   0  0  0  0  0  0
  -28.0983  -12.2706   18.7412 C   0  0  0  0  0  0
  -27.6016  -13.2650   19.8159 C   0  0  2  0  0  0
  -28.6294  -13.4871   20.9419 C   0  0  0  0  0  0
  -25.2375  -13.8229   20.5769 C   0  0  0  0  0  0
  -24.1709  -13.0424   20.9299 C   0  0  0  0  0  0
  -24.6361  -11.6929   20.8784 C   0  0  0  0  0  0
  -23.9045  -10.4288   21.0405 C   0  0  0  0  0  0
  -24.3598   -9.4215   21.9178 C   0  0  0  0  0  0
  -23.6290   -8.2242   22.0743 C   0  0  0  0  0  0
  -22.4266   -8.0284   21.3545 C   0  0  0  0  0  0
  -21.9901   -9.0249   20.4640 C   0  0  0  0  0  0
  -22.7217  -10.2135   20.3060 C   0  0  0  0  0  0
  -21.6852   -6.0727   22.5281 C   0  0  0  0  0  0
  -21.4009   -6.5638   23.8212 C   0  0  0  0  0  0
  -21.3656   -5.6792   24.9176 C   0  0  0  0  0  0
  -21.6052   -4.3056   24.7228 C   0  0  0  0  0  0
  -21.8824   -3.8145   23.4350 C   0  0  0  0  0  0
  -21.9200   -4.6957   22.3407 C   0  0  0  0  0  0
  -22.7742  -13.5215   21.1952 C   0  0  0  0  0  0
  -22.1672   -4.2148   21.0979 F   0  0  0  0  0  0
  -21.5629   -3.4542   25.7734 F   0  0  0  0  0  0
  -29.8564  -14.0017   20.3124 N   0  0  0  0  0  0
  -26.2762  -12.9459   20.3219 N   0  0  0  0  0  0
  -25.9285  -11.6586   20.5727 N   0  0  0  0  0  0
  -22.0386  -12.8170   22.0485 N   0  0  0  0  0  0
  -25.4040  -15.1955   20.4216 N   0  0  0  0  0  0
  -31.6196  -15.3265   20.2426 O   0  0  0  0  0  0
  -21.6656   -6.8863   21.4232 O   0  0  0  0  0  0
  -22.3435  -14.5528   20.6831 O   0  0  0  0  0  0
  -24.6607  -31.8256   23.1777 C   0  0  0  0  0  0
  -25.9291  -32.4584   23.8280 C   0  0  1  0  0  0
  -27.2093  -26.9538   20.1554 C   0  0  0  0  0  0
  -25.6038  -33.8415   24.2208 N   0  0  0  0  0  0
  -23.4737  -30.4388   21.5298 C   0  0  2  0  0  0
  -24.9217  -28.8368   20.1152 C   0  0  0  0  0  0
  -22.7668  -29.4418   22.4850 C   0  0  0  0  0  0
  -18.0361  -28.1403   22.8471 C   0  0  0  0  0  0
  -24.1508  -36.7146   23.2614 C   0  0  0  0  0  0
  -26.0426  -30.6411   21.4031 C   0  0  0  0  0  0
  -26.1092  -29.2332   20.7447 C   0  0  0  0  0  0
  -27.2485  -28.3124   20.7409 C   0  0  0  0  0  0
  -25.9883  -26.7052   19.4924 C   0  0  0  0  0  0
  -24.8848  -27.5937   19.4731 C   0  0  0  0  0  0
  -23.7067  -29.7594   20.1549 C   0  0  0  0  0  0
  -25.4158  -36.2970   24.0293 C   0  0  1  0  0  0
  -20.5979  -28.3697   23.1273 C   0  0  2  0  0  0
  -20.6786  -26.9385   22.5459 C   0  0  0  0  0  0
  -19.5821  -26.6430   21.5174 C   0  0  0  0  0  0
  -18.1990  -26.7964   22.1580 C   0  0  0  0  0  0
  -19.1612  -28.8880   23.2853 C   0  0  0  0  0  0
  -18.9530  -30.1479   23.8881 C   0  0  0  0  0  0
  -17.6517  -30.6622   24.0522 C   0  0  0  0  0  0
  -25.9114  -34.9332   23.5061 C   0  0  0  0  0  0
  -16.5411  -29.9109   23.6316 C   0  0  0  0  0  0
  -16.7349  -28.6519   23.0368 C   0  0  0  0  0  0
  -26.4516  -31.6456   25.0765 C   0  0  0  0  0  0
  -25.3714  -31.3767   26.1490 C   0  0  0  0  0  0
  -27.0127  -30.2737   24.6431 C   0  0  0  0  0  0
  -27.6222  -32.4014   25.7509 C   0  0  0  0  0  0
  -27.5597  -37.1734   24.8450 C   0  0  0  0  0  0
  -21.4346  -29.2972   22.3583 N   0  0  0  0  0  0
  -26.4322  -37.3673   23.9358 N   0  0  0  0  0  0
  -24.7484  -30.9924   22.0918 N   0  0  0  0  0  0
  -23.4226  -28.7977   23.3060 O   0  0  0  0  0  0
  -28.2203  -25.8611   20.1727 O   0  0  0  0  0  0
  -26.5668  -34.8845   22.4615 O   0  0  0  0  0  0
  -23.5662  -32.1246   23.6838 O   0  0  0  0  0  0
  -28.6755  -16.7280   18.9628 C   0  0  0  0  0  0
  -29.5411  -16.7884   20.0719 C   0  0  0  0  0  0
  -28.0113  -19.0159   18.9972 C   0  0  0  0  0  0
  -28.8436  -19.3950   20.1107 C   0  0  0  0  0  0
  -24.5376  -20.5748   18.0151 C   0  0  0  0  0  0
  -29.2079  -22.6000   22.8837 C   0  0  0  0  0  0
  -30.2887  -20.5266   22.5877 C   0  0  0  0  0  0
  -25.9332  -22.5930   22.8718 C   0  0  0  0  0  0
  -25.1255  -20.4874   23.7918 C   0  0  0  0  0  0
  -26.9955  -19.9142   18.2824 C   0  0  0  0  0  0
  -25.5353  -19.6142   18.6796 C   0  0  0  0  0  0
  -27.9191  -24.2412   20.1756 C   0  0  0  0  0  0
  -27.6742  -20.5320   23.2700 C   0  0  2  0  0  0
  -28.6331  -21.0615   20.7626 C   0  0  2  0  0  0
  -28.8816  -21.1668   22.3633 C   0  0  0  0  0  0
  -26.3866  -21.4096   23.7834 C   0  0  0  0  0  0
  -28.8584  -22.7053   20.0247 C   0  0  0  0  0  0
  -28.1901  -19.5376   24.3692 C   0  0  0  0  0  0
  -26.4980  -22.0484   25.2222 C   0  0  0  0  0  0
  -27.9661  -17.7652   18.4610 N   0  0  0  0  0  0
  -29.6158  -18.1931   20.5852 N   0  0  0  0  0  0
  -27.3153  -21.1400   20.7058 F   0  0  0  0  0  0
  -30.1098  -23.0717   20.2866 F   0  0  0  0  0  0
  -28.8613  -22.4922   18.7099 F   0  0  0  0  0  0
  -28.7907  -18.4863   23.8156 F   0  0  0  0  0  0
  -27.2187  -18.9922   25.0938 F   0  0  0  0  0  0
  -29.0404  -20.1352   25.2046 F   0  0  0  0  0  0
  -25.3372  -22.6251   25.5540 F   0  0  0  0  0  0
  -26.7552  -21.1777   26.1915 F   0  0  0  0  0  0
  -27.4151  -23.0080   25.2822 F   0  0  0  0  0  0
  -31.4510  -13.0909   19.1812 H   0  0  0  0  0  0
  -30.5425  -11.9660   20.1458 H   0  0  0  0  0  0
  -29.9357  -11.7590   17.7049 H   0  0  0  0  0  0
  -29.5366  -13.4556   17.6434 H   0  0  0  0  0  0
  -28.0989  -11.2644   19.1645 H   0  0  0  0  0  0
  -27.4178  -12.2442   17.8884 H   0  0  0  0  0  0
  -27.4878  -14.2091   19.2906 H   0  0  0  0  0  0
  -28.8209  -12.5720   21.5043 H   0  0  0  0  0  0
  -28.2560  -14.2216   21.6589 H   0  0  0  0  0  0
  -25.2726   -9.5737   22.4766 H   0  0  0  0  0  0
  -24.0018   -7.4645   22.7468 H   0  0  0  0  0  0
  -21.0837   -8.8765   19.8952 H   0  0  0  0  0  0
  -22.3646  -10.9681   19.6201 H   0  0  0  0  0  0
  -21.1987   -7.6145   23.9712 H   0  0  0  0  0  0
  -21.1475   -6.0523   25.9079 H   0  0  0  0  0  0
  -22.0599   -2.7604   23.2854 H   0  0  0  0  0  0
  -22.3991  -11.9797   22.4822 H   0  0  0  0  0  0
  -21.1016  -13.1188   22.2717 H   0  0  0  0  0  0
  -24.6301  -15.8397   20.5360 H   0  0  0  0  0  0
  -26.2470  -15.6466   20.0883 H   0  0  0  0  0  0
  -26.7365  -32.5111   23.1020 H   0  0  0  0  0  0
  -25.0258  -33.9542   25.0408 H   0  0  0  0  0  0
  -22.7820  -31.2668   21.3640 H   0  0  0  0  0  0
  -23.3849  -35.9409   23.3267 H   0  0  0  0  0  0
  -24.3581  -36.8765   22.2031 H   0  0  0  0  0  0
  -23.7204  -37.6305   23.6658 H   0  0  0  0  0  0
  -26.2128  -31.3877   20.6249 H   0  0  0  0  0  0
  -26.9068  -30.7035   22.0527 H   0  0  0  0  0  0
  -28.1481  -28.6147   21.2554 H   0  0  0  0  0  0
  -25.8446  -25.7649   18.9869 H   0  0  0  0  0  0
  -23.9814  -27.2862   18.9643 H   0  0  0  0  0  0
  -23.8597  -30.5270   19.3972 H   0  0  0  0  0  0
  -22.8200  -29.2109   19.8366 H   0  0  0  0  0  0
  -25.1345  -36.1802   25.0785 H   0  0  0  0  0  0
  -21.0082  -28.3279   24.1394 H   0  0  0  0  0  0
  -20.5490  -26.2296   23.3656 H   0  0  0  0  0  0
  -21.6663  -26.7260   22.1362 H   0  0  0  0  0  0
  -19.6999  -25.6384   21.1099 H   0  0  0  0  0  0
  -19.6829  -27.3344   20.6790 H   0  0  0  0  0  0
  -17.4258  -26.6788   21.3968 H   0  0  0  0  0  0
  -18.0406  -26.0077   22.8959 H   0  0  0  0  0  0
  -19.8014  -30.7290   24.2238 H   0  0  0  0  0  0
  -17.5101  -31.6335   24.5054 H   0  0  0  0  0  0
  -15.5413  -30.3017   23.7613 H   0  0  0  0  0  0
  -15.8749  -28.0806   22.7109 H   0  0  0  0  0  0
  -24.5504  -30.7700   25.7631 H   0  0  0  0  0  0
  -24.9460  -32.3031   26.5371 H   0  0  0  0  0  0
  -25.7834  -30.8344   27.0009 H   0  0  0  0  0  0
  -27.3816  -29.7104   25.4992 H   0  0  0  0  0  0
  -27.8507  -30.3637   23.9539 H   0  0  0  0  0  0
  -26.2471  -29.6502   24.1796 H   0  0  0  0  0  0
  -27.3103  -33.3473   26.1921 H   0  0  0  0  0  0
  -28.4163  -32.6190   25.0378 H   0  0  0  0  0  0
  -28.0692  -31.8127   26.5530 H   0  0  0  0  0  0
  -28.2606  -38.0036   24.7539 H   0  0  0  0  0  0
  -28.1106  -36.2581   24.6261 H   0  0  0  0  0  0
  -27.2275  -37.1318   25.8832 H   0  0  0  0  0  0
  -20.9603  -29.8555   21.6648 H   0  0  0  0  0  0
  -26.0206  -38.2746   24.1350 H   0  0  0  0  0  0
  -28.5795  -15.8187   18.3905 H   0  0  0  0  0  0
  -23.5094  -20.2513   18.1767 H   0  0  0  0  0  0
  -24.6982  -20.6298   16.9365 H   0  0  0  0  0  0
  -24.6289  -21.5838   18.4183 H   0  0  0  0  0  0
  -29.2576  -22.6194   23.9694 H   0  0  0  0  0  0
  -28.5205  -23.3661   22.5731 H   0  0  0  0  0  0
  -30.1903  -22.9594   22.5826 H   0  0  0  0  0  0
  -30.7306  -20.7861   23.5503 H   0  0  0  0  0  0
  -30.9884  -20.8814   21.8280 H   0  0  0  0  0  0
  -30.3299  -19.4492   22.5224 H   0  0  0  0  0  0
  -24.9395  -22.9431   23.1514 H   0  0  0  0  0  0
  -26.5302  -23.4880   23.0132 H   0  0  0  0  0  0
  -25.8378  -22.3586   21.8182 H   0  0  0  0  0  0
  -24.9691  -19.9999   22.8292 H   0  0  0  0  0  0
  -24.2103  -21.0388   24.0070 H   0  0  0  0  0  0
  -25.1489  -19.7168   24.5564 H   0  0  0  0  0  0
  -27.0895  -19.7494   17.2090 H   0  0  0  0  0  0
  -27.1922  -20.9709   18.4003 H   0  0  0  0  0  0
  -25.2857  -18.5901   18.3942 H   0  0  0  0  0  0
  -25.4184  -19.6655   19.7624 H   0  0  0  0  0  0
  -27.3374  -24.1408   21.0836 H   0  0  0  0  0  0
  -27.1584  -24.1069   19.4055 H   0  0  0  0  0  0
  -27.2102  -19.8224   22.5871 H   0  0  0  0  0  0
  1 25  1  0  0  0
  1 30  2  0  0  0
  1 72  1  0  0  0
  2  3  1  0  0  0
  2 25  1  0  0  0
  2101  1  0  0  0
  2102  1  0  0  0
  3  4  1  0  0  0
  3103  1  0  0  0
  3104  1  0  0  0
  4  5  1  0  0  0
  4105  1  0  0  0
  4106  1  0  0  0
  5  6  1  0  0  0
  5 26  1  0  0  0
  5107  1  0  0  0
  6 25  1  0  0  0
  6108  1  0  0  0
  6109  1  0  0  0
  7  8  2  0  0  0
  7 26  1  0  0  0
  7 29  1  0  0  0
  8  9  1  0  0  0
  8 22  1  0  0  0
  9 10  1  0  0  0
  9 27  2  0  0  0
 10 11  2  0  0  0
 10 15  1  0  0  0
 11 12  1  0  0  0
 11110  1  0  0  0
 12 13  2  0  0  0
 12111  1  0  0  0
 13 14  1  0  0  0
 13 31  1  0  0  0
 14 15  2  0  0  0
 14112  1  0  0  0
 15113  1  0  0  0
 16 17  2  0  0  0
 16 21  1  0  0  0
 16 31  1  0  0  0
 17 18  1  0  0  0
 17114  1  0  0  0
 18 19  2  0  0  0
 18115  1  0  0  0
 19 20  1  0  0  0
 19 24  1  0  0  0
 20 21  2  0  0  0
 20116  1  0  0  0
 21 23  1  0  0  0
 22 28  1  0  0  0
 22 32  2  0  0  0
 26 27  1  0  0  0
 28117  1  0  0  0
 28118  1  0  0  0
 29119  1  0  0  0
 29120  1  0  0  0
 33 34  1  0  0  0
 33 66  1  0  0  0
 33 70  2  0  0  0
 34 36  1  0  0  0
 34 59  1  0  0  0
 34121  1  0  0  0
 35 44  2  0  0  0
 35 45  1  0  0  0
 35 68  1  0  0  0
 36 56  1  0  0  0
 36122  1  0  0  0
 37 39  1  0  0  0
 37 47  1  0  0  0
 37 66  1  0  0  0
 37123  1  0  0  0
 38 43  2  0  0  0
 38 46  1  0  0  0
 38 47  1  0  0  0
 39 64  1  0  0  0
 39 67  2  0  0  0
 40 52  1  0  0  0
 40 53  2  0  0  0
 40 58  1  0  0  0
 41124  1  0  0  0
 41125  1  0  0  0
 41126  1  0  0  0
 41 48  1  0  0  0
 42 43  1  0  0  0
 42 66  1  0  0  0
 42127  1  0  0  0
 42128  1  0  0  0
 43 44  1  0  0  0
 44129  1  0  0  0
 45 46  2  0  0  0
 45130  1  0  0  0
 46131  1  0  0  0
 47132  1  0  0  0
 47133  1  0  0  0
 48 56  1  0  0  0
 48 65  1  0  0  0
 48134  1  0  0  0
 49 50  1  0  0  0
 49 53  1  0  0  0
 49 64  1  0  0  0
 49135  1  0  0  0
 50 51  1  0  0  0
 50136  1  0  0  0
 50137  1  0  0  0
 51 52  1  0  0  0
 51138  1  0  0  0
 51139  1  0  0  0
 52140  1  0  0  0
 52141  1  0  0  0
 53 54  1  0  0  0
 54 55  2  0  0  0
 54142  1  0  0  0
 55 57  1  0  0  0
 55143  1  0  0  0
 56 69  2  0  0  0
 57 58  2  0  0  0
 57144  1  0  0  0
 58145  1  0  0  0
 59 60  1  0  0  0
 59 61  1  0  0  0
 59 62  1  0  0  0
 60146  1  0  0  0
 60147  1  0  0  0
 60148  1  0  0  0
 61149  1  0  0  0
 61150  1  0  0  0
 61151  1  0  0  0
 62152  1  0  0  0
 62153  1  0  0  0
 62154  1  0  0  0
 63 65  1  0  0  0
 63155  1  0  0  0
 63156  1  0  0  0
 63157  1  0  0  0
 64158  1  0  0  0
 65159  1  0  0  0
 68 82  1  0  0  0
 71 72  2  0  0  0
 71 90  1  0  0  0
 71160  1  0  0  0
 72 91  1  0  0  0
 73 74  1  0  0  0
 73 80  1  0  0  0
 73 90  2  0  0  0
 74 84  1  0  0  0
 74 91  2  0  0  0
 75 81  1  0  0  0
 75161  1  0  0  0
 75162  1  0  0  0
 75163  1  0  0  0
 76164  1  0  0  0
 76165  1  0  0  0
 76166  1  0  0  0
 76 85  1  0  0  0
 77 85  1  0  0  0
 77167  1  0  0  0
 77168  1  0  0  0
 77169  1  0  0  0
 78170  1  0  0  0
 78171  1  0  0  0
 78172  1  0  0  0
 78 86  1  0  0  0
 79 86  1  0  0  0
 79173  1  0  0  0
 79174  1  0  0  0
 79175  1  0  0  0
 80 81  1  0  0  0
 80176  1  0  0  0
 80177  1  0  0  0
 81178  1  0  0  0
 81179  1  0  0  0
 82 87  1  0  0  0
 82180  1  0  0  0
 82181  1  0  0  0
 83 85  1  0  0  0
 83 86  1  0  0  0
 83 88  1  0  0  0
 83182  1  0  0  0
 84 85  1  0  0  0
 84 87  1  0  0  0
 84 92  1  0  0  0
 86 89  1  0  0  0
 87 93  1  0  0  0
 87 94  1  0  0  0
 88 95  1  0  0  0
 88 96  1  0  0  0
 88 97  1  0  0  0
 89 98  1  0  0  0
 89 99  1  0  0  0
 89100  1  0  0  0
M  ISO  4   1 100  68 101  72 100  82 101
M  END
> <chiral flag>
0

> <version>
0

> <s_m_source_file>
/data/baiqing/PycharmProjects/Reinvent-master-3.2/result/LINK_invent/BTK/process_docking_weight1_custom_sum_contain_oxygen_bond_distance_aromatic_linkinvent_7_9_3/rearranged_h_0066.sdf

> <i_m_source_file_index>
10

> <r_mmod_Potential_Energy-OPLS-2005>
1957.60754394531

> <r_mmod_Stretch_Energy-OPLS-2005>
709.969787597656

> <r_mmod_Bend_Energy-OPLS-2005>
548.584594726562

> <r_mmod_Torsional_Energy-OPLS-2005>
311.761749267578

> <r_mmod_Improper_Torsional_Energy-OPLS-2005>
10.7381381988525

> <r_mmod_Van_der_Waal_Energy-OPLS-2005>
188.725006103516

> <r_mmod_Electrostatic_Energy-OPLS-2005>
-112.486480712891

> <r_mmod_Solvation_Energy-OPLS-2005>
-188.44352722168

> <b_mmod_Minimization_Converged-OPLS-2005>
0

> <r_mmod_RMS_Derivative-OPLS-2005>
6.1204195022583

$$$$
11
                    3D
 Structure written by MMmdl.
175183  0  0  1  0            999 V2000
  -30.7521  -14.5141   20.5818 C   0  0  0  0  0  0
  -30.4146  -12.3370   19.4362 C   0  0  0  0  0  0
  -29.4882  -12.4940   18.2145 C   0  0  0  0  0  0
  -28.0109  -12.3584   18.6305 C   0  0  0  0  0  0
  -27.6498  -13.2096   19.8770 C   0  0  2  0  0  0
  -28.7050  -13.0552   20.9990 C   0  0  0  0  0  0
  -25.2448  -13.8094   20.5608 C   0  0  0  0  0  0
  -24.1767  -13.0356   20.9204 C   0  0  0  0  0  0
  -24.6374  -11.6860   20.8794 C   0  0  0  0  0  0
  -23.9052  -10.4259   21.0410 C   0  0  0  0  0  0
  -24.3602   -9.4183   21.9176 C   0  0  0  0  0  0
  -23.6273   -8.2223   22.0749 C   0  0  0  0  0  0
  -22.4259   -8.0265   21.3535 C   0  0  0  0  0  0
  -21.9898   -9.0238   20.4635 C   0  0  0  0  0  0
  -22.7235  -10.2111   20.3041 C   0  0  0  0  0  0
  -21.6834   -6.0730   22.5273 C   0  0  0  0  0  0
  -21.4007   -6.5629   23.8207 C   0  0  0  0  0  0
  -21.3658   -5.6794   24.9173 C   0  0  0  0  0  0
  -21.6036   -4.3053   24.7225 C   0  0  0  0  0  0
  -21.8814   -3.8144   23.4347 C   0  0  0  0  0  0
  -21.9181   -4.6957   22.3397 C   0  0  0  0  0  0
  -22.7801  -13.5165   21.1841 C   0  0  0  0  0  0
  -22.1651   -4.2149   21.0981 F   0  0  0  0  0  0
  -21.5638   -3.4523   25.7734 F   0  0  0  0  0  0
  -30.0364  -13.3547   20.4364 N   0  0  0  0  0  0
  -26.2953  -12.9310   20.3435 N   0  0  0  0  0  0
  -25.9308  -11.6471   20.5883 N   0  0  0  0  0  0
  -22.0472  -12.8184   22.0444 N   0  0  0  0  0  0
  -25.3857  -15.1788   20.3771 N   0  0  0  0  0  0
  -31.8545  -14.6673   20.0580 O   0  0  0  0  0  0
  -21.6613   -6.8865   21.4244 O   0  0  0  0  0  0
  -22.3487  -14.5458   20.6674 O   0  0  0  0  0  0
  -24.6121  -31.8657   23.2061 C   0  0  0  0  0  0
  -25.9003  -32.4810   23.8335 C   0  0  1  0  0  0
  -27.2494  -27.4229   20.1150 C   0  0  0  0  0  0
  -25.5840  -33.8607   24.2279 N   0  0  0  0  0  0
  -23.4030  -30.4858   21.5464 C   0  0  2  0  0  0
  -24.8524  -28.9499   20.1116 C   0  0  0  0  0  0
  -22.7386  -29.4642   22.4972 C   0  0  0  0  0  0
  -18.0250  -28.1380   22.8494 C   0  0  0  0  0  0
  -24.1502  -36.7312   23.2645 C   0  0  0  0  0  0
  -25.9286  -30.8315   21.3576 C   0  0  0  0  0  0
  -26.0107  -29.4658   20.7033 C   0  0  0  0  0  0
  -27.2083  -28.7135   20.6948 C   0  0  0  0  0  0
  -26.0683  -26.9210   19.5151 C   0  0  0  0  0  0
  -24.8777  -27.6753   19.5155 C   0  0  0  0  0  0
  -23.6108  -29.8133   20.1614 C   0  0  0  0  0  0
  -25.4131  -36.3120   24.0335 C   0  0  1  0  0  0
  -20.5844  -28.3677   23.1322 C   0  0  2  0  0  0
  -20.6773  -26.9412   22.5421 C   0  0  0  0  0  0
  -19.5751  -26.6398   21.5216 C   0  0  0  0  0  0
  -18.1917  -26.7922   22.1619 C   0  0  0  0  0  0
  -19.1501  -28.8839   23.2903 C   0  0  0  0  0  0
  -18.9445  -30.1442   23.8918 C   0  0  0  0  0  0
  -17.6453  -30.6594   24.0581 C   0  0  0  0  0  0
  -25.9040  -34.9482   23.5123 C   0  0  0  0  0  0
  -16.5337  -29.9109   23.6331 C   0  0  0  0  0  0
  -16.7244  -28.6525   23.0348 C   0  0  0  0  0  0
  -26.4437  -31.6579   25.0646 C   0  0  0  0  0  0
  -25.3709  -31.3634   26.1390 C   0  0  0  0  0  0
  -27.0282  -30.3048   24.5980 C   0  0  0  0  0  0
  -27.6016  -32.4304   25.7390 C   0  0  0  0  0  0
  -27.5608  -37.1792   24.8468 C   0  0  0  0  0  0
  -21.4112  -29.3032   22.3713 N   0  0  0  0  0  0
  -26.4335  -37.3791   23.9391 N   0  0  0  0  0  0
  -24.6667  -31.0738   22.0961 N   0  0  0  0  0  0
  -23.4151  -28.8185   23.3024 O   0  0  0  0  0  0
  -28.4385  -26.7143   20.1892 O   0  0  0  0  0  0
  -26.5659  -34.8942   22.4721 O   0  0  0  0  0  0
  -23.5323  -32.1410   23.7461 O   0  0  0  0  0  0
  -30.4830  -18.0925   21.0451 C   0  0  0  0  0  0
  -28.2482  -16.9763   21.1074 C   0  0  0  0  0  0
  -29.0959  -23.2018   23.6044 C   0  0  0  0  0  0
  -30.6745  -24.4677   22.1789 C   0  0  0  0  0  0
  -26.9163  -23.6338   21.2937 C   0  0  0  0  0  0
  -27.6943  -25.5613   22.6284 C   0  0  0  0  0  0
  -30.5422  -15.6010   22.6894 C   0  0  0  0  0  0
  -29.5894  -22.3019   21.3155 C   0  0  0  0  0  0
  -30.9333  -21.5430   21.5795 C   0  0  0  0  0  0
  -28.4598  -25.2672   20.1916 C   0  0  0  0  0  0
  -29.7150  -16.8307   20.6324 C   0  0  1  0  0  0
  -29.3654  -23.6341   22.1316 C   0  0  0  0  0  0
  -28.1527  -24.5268   21.5616 C   0  0  0  0  0  0
  -29.7322  -16.7933   19.0631 C   0  0  0  0  0  0
  -31.8347  -18.1498   21.2490 N   0  0  0  0  0  0
  -29.9094  -19.3012   21.0743 N   0  0  0  0  0  0
  -32.1285  -19.3985   21.4401 N   0  0  0  0  0  0
  -30.9751  -20.0949   21.3223 N   0  0  0  0  0  0
  -30.1745  -15.5352   21.2646 N   0  0  0  0  0  0
  -30.9664  -16.7486   18.5633 F   0  0  0  0  0  0
  -29.1608  -17.8885   18.5612 F   0  0  0  0  0  0
  -29.0495  -15.7636   18.5738 F   0  0  0  0  0  0
  -31.4592  -12.4160   19.1281 H   0  0  0  0  0  0
  -30.3092  -11.3379   19.8623 H   0  0  0  0  0  0
  -29.7257  -11.7427   17.4603 H   0  0  0  0  0  0
  -29.6563  -13.4613   17.7400 H   0  0  0  0  0  0
  -27.8218  -11.3043   18.8384 H   0  0  0  0  0  0
  -27.3591  -12.6229   17.7976 H   0  0  0  0  0  0
  -27.6543  -14.2438   19.5564 H   0  0  0  0  0  0
  -28.6939  -12.0368   21.3894 H   0  0  0  0  0  0
  -28.4583  -13.6958   21.8467 H   0  0  0  0  0  0
  -25.2724   -9.5662   22.4769 H   0  0  0  0  0  0
  -23.9966   -7.4621   22.7491 H   0  0  0  0  0  0
  -21.0825   -8.8775   19.8955 H   0  0  0  0  0  0
  -22.3691  -10.9661   19.6165 H   0  0  0  0  0  0
  -21.2010   -7.6142   23.9701 H   0  0  0  0  0  0
  -21.1471   -6.0531   25.9074 H   0  0  0  0  0  0
  -22.0586   -2.7598   23.2853 H   0  0  0  0  0  0
  -22.4104  -11.9802   22.4752 H   0  0  0  0  0  0
  -21.1104  -13.1220   22.2670 H   0  0  0  0  0  0
  -24.5876  -15.8010   20.4519 H   0  0  0  0  0  0
  -26.1935  -15.6172   19.9590 H   0  0  0  0  0  0
  -26.7064  -32.5538   23.1087 H   0  0  0  0  0  0
  -24.9866  -33.9746   25.0347 H   0  0  0  0  0  0
  -22.6943  -31.3046   21.4049 H   0  0  0  0  0  0
  -23.3774  -35.9627   23.3315 H   0  0  0  0  0  0
  -24.3591  -36.8938   22.2054 H   0  0  0  0  0  0
  -23.7247  -37.6513   23.6672 H   0  0  0  0  0  0
  -26.0445  -31.5990   20.5907 H   0  0  0  0  0  0
  -26.8151  -30.8821   21.9783 H   0  0  0  0  0  0
  -28.1005  -29.1057   21.1661 H   0  0  0  0  0  0
  -26.0444  -25.9460   19.0550 H   0  0  0  0  0  0
  -23.9857  -27.2623   19.0649 H   0  0  0  0  0  0
  -23.7163  -30.5864   19.3994 H   0  0  0  0  0  0
  -22.7343  -29.2313   19.8732 H   0  0  0  0  0  0
  -25.1320  -36.1993   25.0830 H   0  0  0  0  0  0
  -20.9941  -28.3268   24.1445 H   0  0  0  0  0  0
  -20.5733  -26.2255   23.3603 H   0  0  0  0  0  0
  -21.6642  -26.7495   22.1177 H   0  0  0  0  0  0
  -19.6953  -25.6323   21.1221 H   0  0  0  0  0  0
  -19.6736  -27.3251   20.6782 H   0  0  0  0  0  0
  -17.4202  -26.6668   21.4013 H   0  0  0  0  0  0
  -18.0307  -26.0077   22.9028 H   0  0  0  0  0  0
  -19.7936  -30.7212   24.2331 H   0  0  0  0  0  0
  -17.5028  -31.6282   24.5172 H   0  0  0  0  0  0
  -15.5337  -30.3024   23.7659 H   0  0  0  0  0  0
  -15.8628  -28.0847   22.7062 H   0  0  0  0  0  0
  -24.5877  -30.7012   25.7677 H   0  0  0  0  0  0
  -24.8873  -32.2753   26.4904 H   0  0  0  0  0  0
  -25.8042  -30.8723   27.0112 H   0  0  0  0  0  0
  -26.2798  -29.6748   24.1149 H   0  0  0  0  0  0
  -27.4240  -29.7326   25.4377 H   0  0  0  0  0  0
  -27.8535  -30.4406   23.8987 H   0  0  0  0  0  0
  -27.2661  -33.3626   26.1952 H   0  0  0  0  0  0
  -28.3790  -32.6838   25.0167 H   0  0  0  0  0  0
  -28.0706  -31.8427   26.5300 H   0  0  0  0  0  0
  -28.2618  -38.0100   24.7549 H   0  0  0  0  0  0
  -28.1120  -36.2632   24.6278 H   0  0  0  0  0  0
  -27.2301  -37.1400   25.8865 H   0  0  0  0  0  0
  -20.9270  -29.8693   21.6884 H   0  0  0  0  0  0
  -26.0246  -38.2886   24.1362 H   0  0  0  0  0  0
  -27.7187  -17.7622   20.5692 H   0  0  0  0  0  0
  -28.1791  -17.2222   22.1671 H   0  0  0  0  0  0
  -27.7004  -16.0545   20.9623 H   0  0  0  0  0  0
  -29.7931  -22.4437   23.9588 H   0  0  0  0  0  0
  -28.1004  -22.7845   23.7490 H   0  0  0  0  0  0
  -29.1962  -24.0336   24.3031 H   0  0  0  0  0  0
  -31.4674  -23.9400   22.7083 H   0  0  0  0  0  0
  -30.5466  -25.4054   22.7180 H   0  0  0  0  0  0
  -31.0658  -24.7101   21.1928 H   0  0  0  0  0  0
  -26.0833  -24.2291   20.9195 H   0  0  0  0  0  0
  -26.5608  -23.1254   22.1894 H   0  0  0  0  0  0
  -27.1122  -22.8739   20.5362 H   0  0  0  0  0  0
  -26.8212  -26.1227   22.3013 H   0  0  0  0  0  0
  -28.4801  -26.2790   22.8661 H   0  0  0  0  0  0
  -27.3737  -25.0959   23.5590 H   0  0  0  0  0  0
  -31.6000  -15.8484   22.7983 H   0  0  0  0  0  0
  -30.3848  -14.6436   23.1887 H   0  0  0  0  0  0
  -29.9687  -16.3486   23.2359 H   0  0  0  0  0  0
  -28.7650  -21.6242   21.5426 H   0  0  0  0  0  0
  -29.5185  -22.5055   20.2463 H   0  0  0  0  0  0
  -31.2604  -21.6722   22.6088 H   0  0  0  0  0  0
  -31.7122  -22.0074   20.9755 H   0  0  0  0  0  0
  -27.8436  -24.8800   19.3819 H   0  0  0  0  0  0
  -29.4552  -25.0016   19.8443 H   0  0  0  0  0  0
  1 25  1  0  0  0
  1 30  2  0  0  0
  1 89  1  0  0  0
  2  3  1  0  0  0
  2 25  1  0  0  0
  2 93  1  0  0  0
  2 94  1  0  0  0
  3  4  1  0  0  0
  3 95  1  0  0  0
  3 96  1  0  0  0
  4  5  1  0  0  0
  4 97  1  0  0  0
  4 98  1  0  0  0
  5  6  1  0  0  0
  5 26  1  0  0  0
  5 99  1  0  0  0
  6 25  1  0  0  0
  6100  1  0  0  0
  6101  1  0  0  0
  7  8  2  0  0  0
  7 26  1  0  0  0
  7 29  1  0  0  0
  8  9  1  0  0  0
  8 22  1  0  0  0
  9 10  1  0  0  0
  9 27  2  0  0  0
 10 11  2  0  0  0
 10 15  1  0  0  0
 11 12  1  0  0  0
 11102  1  0  0  0
 12 13  2  0  0  0
 12103  1  0  0  0
 13 14  1  0  0  0
 13 31  1  0  0  0
 14 15  2  0  0  0
 14104  1  0  0  0
 15105  1  0  0  0
 16 17  2  0  0  0
 16 21  1  0  0  0
 16 31  1  0  0  0
 17 18  1  0  0  0
 17106  1  0  0  0
 18 19  2  0  0  0
 18107  1  0  0  0
 19 20  1  0  0  0
 19 24  1  0  0  0
 20 21  2  0  0  0
 20108  1  0  0  0
 21 23  1  0  0  0
 22 28  1  0  0  0
 22 32  2  0  0  0
 26 27  1  0  0  0
 28109  1  0  0  0
 28110  1  0  0  0
 29111  1  0  0  0
 29112  1  0  0  0
 33 34  1  0  0  0
 33 66  1  0  0  0
 33 70  2  0  0  0
 34 36  1  0  0  0
 34 59  1  0  0  0
 34113  1  0  0  0
 35 44  2  0  0  0
 35 45  1  0  0  0
 35 68  1  0  0  0
 36 56  1  0  0  0
 36114  1  0  0  0
 37 39  1  0  0  0
 37 47  1  0  0  0
 37 66  1  0  0  0
 37115  1  0  0  0
 38 43  2  0  0  0
 38 46  1  0  0  0
 38 47  1  0  0  0
 39 64  1  0  0  0
 39 67  2  0  0  0
 40 52  1  0  0  0
 40 53  2  0  0  0
 40 58  1  0  0  0
 41116  1  0  0  0
 41117  1  0  0  0
 41118  1  0  0  0
 41 48  1  0  0  0
 42 43  1  0  0  0
 42 66  1  0  0  0
 42119  1  0  0  0
 42120  1  0  0  0
 43 44  1  0  0  0
 44121  1  0  0  0
 45 46  2  0  0  0
 45122  1  0  0  0
 46123  1  0  0  0
 47124  1  0  0  0
 47125  1  0  0  0
 48 56  1  0  0  0
 48 65  1  0  0  0
 48126  1  0  0  0
 49 50  1  0  0  0
 49 53  1  0  0  0
 49 64  1  0  0  0
 49127  1  0  0  0
 50 51  1  0  0  0
 50128  1  0  0  0
 50129  1  0  0  0
 51 52  1  0  0  0
 51130  1  0  0  0
 51131  1  0  0  0
 52132  1  0  0  0
 52133  1  0  0  0
 53 54  1  0  0  0
 54 55  2  0  0  0
 54134  1  0  0  0
 55 57  1  0  0  0
 55135  1  0  0  0
 56 69  2  0  0  0
 57 58  2  0  0  0
 57136  1  0  0  0
 58137  1  0  0  0
 59 60  1  0  0  0
 59 61  1  0  0  0
 59 62  1  0  0  0
 60138  1  0  0  0
 60139  1  0  0  0
 60140  1  0  0  0
 61141  1  0  0  0
 61142  1  0  0  0
 61143  1  0  0  0
 62144  1  0  0  0
 62145  1  0  0  0
 62146  1  0  0  0
 63 65  1  0  0  0
 63147  1  0  0  0
 63148  1  0  0  0
 63149  1  0  0  0
 64150  1  0  0  0
 65151  1  0  0  0
 68 80  1  0  0  0
 71 81  1  0  0  0
 71 85  1  0  0  0
 71 86  2  0  0  0
 72152  1  0  0  0
 72153  1  0  0  0
 72154  1  0  0  0
 72 81  1  0  0  0
 73155  1  0  0  0
 73156  1  0  0  0
 73157  1  0  0  0
 73 82  1  0  0  0
 74 82  1  0  0  0
 74158  1  0  0  0
 74159  1  0  0  0
 74160  1  0  0  0
 75161  1  0  0  0
 75162  1  0  0  0
 75163  1  0  0  0
 75 83  1  0  0  0
 76 83  1  0  0  0
 76164  1  0  0  0
 76165  1  0  0  0
 76166  1  0  0  0
 77 89  1  0  0  0
 77167  1  0  0  0
 77168  1  0  0  0
 77169  1  0  0  0
 78 79  1  0  0  0
 78 82  1  0  0  0
 78170  1  0  0  0
 78171  1  0  0  0
 79 88  1  0  0  0
 79172  1  0  0  0
 79173  1  0  0  0
 80 83  1  0  0  0
 80174  1  0  0  0
 80175  1  0  0  0
 81 84  1  0  0  0
 81 89  1  0  0  0
 82 83  1  0  0  0
 84 90  1  0  0  0
 84 91  1  0  0  0
 84 92  1  0  0  0
 85 87  2  0  0  0
 86 88  1  0  0  0
 87 88  1  0  0  0
M  ISO  4   1 100  68 101  80 101  89 100
M  END
> <chiral flag>
0

> <version>
0

> <s_m_source_file>
/data/baiqing/PycharmProjects/Reinvent-master-3.2/result/LINK_invent/BTK/process_docking_weight1_custom_sum_contain_oxygen_bond_distance_aromatic_linkinvent_7_9_3/rearranged_h_0066.sdf

> <i_m_source_file_index>
11

> <r_mmod_Potential_Energy-OPLS-2005>
155.529632568359

> <r_mmod_Stretch_Energy-OPLS-2005>
66.4711456298828

> <r_mmod_Bend_Energy-OPLS-2005>
155.265121459961

> <r_mmod_Torsional_Energy-OPLS-2005>
341.665954589844

> <r_mmod_Improper_Torsional_Energy-OPLS-2005>
5.18912649154663

> <r_mmod_Van_der_Waal_Energy-OPLS-2005>
160.533645629883

> <r_mmod_Electrostatic_Energy-OPLS-2005>
-404.302642822266

> <r_mmod_Solvation_Energy-OPLS-2005>
-188.294647216797

> <b_mmod_Minimization_Converged-OPLS-2005>
0

> <r_mmod_RMS_Derivative-OPLS-2005>
3.63629388809204

$$$$
12
                    3D
 Structure written by MMmdl.
171179  0  0  1  0            999 V2000
  -30.5798  -14.7102   20.5081 C   0  0  0  0  0  0
  -30.4353  -12.4445   19.4543 C   0  0  0  0  0  0
  -29.5113  -12.5319   18.2157 C   0  0  0  0  0  0
  -28.0275  -12.3695   18.6109 C   0  0  0  0  0  0
  -27.6411  -13.2316   19.8467 C   0  0  2  0  0  0
  -28.6847  -13.0901   20.9790 C   0  0  0  0  0  0
  -25.2480  -13.8165   20.5702 C   0  0  0  0  0  0
  -24.1778  -13.0436   20.9185 C   0  0  0  0  0  0
  -24.6334  -11.6904   20.8671 C   0  0  0  0  0  0
  -23.8982  -10.4303   21.0340 C   0  0  0  0  0  0
  -24.3549   -9.4228   21.9115 C   0  0  0  0  0  0
  -23.6266   -8.2253   22.0742 C   0  0  0  0  0  0
  -22.4250   -8.0253   21.3540 C   0  0  0  0  0  0
  -21.9838   -9.0191   20.4627 C   0  0  0  0  0  0
  -22.7129  -10.2096   20.3012 C   0  0  0  0  0  0
  -21.6836   -6.0710   22.5253 C   0  0  0  0  0  0
  -21.4027   -6.5621   23.8184 C   0  0  0  0  0  0
  -21.3689   -5.6782   24.9152 C   0  0  0  0  0  0
  -21.6061   -4.3034   24.7203 C   0  0  0  0  0  0
  -21.8834   -3.8112   23.4320 C   0  0  0  0  0  0
  -21.9210   -4.6946   22.3385 C   0  0  0  0  0  0
  -22.7794  -13.5207   21.1862 C   0  0  0  0  0  0
  -22.1661   -4.2124   21.0961 F   0  0  0  0  0  0
  -21.5636   -3.4530   25.7716 F   0  0  0  0  0  0
  -29.9907  -13.4699   20.4263 N   0  0  0  0  0  0
  -26.2904  -12.9398   20.3173 N   0  0  0  0  0  0
  -25.9249  -11.6532   20.5567 N   0  0  0  0  0  0
  -22.0454  -12.8235   22.0432 N   0  0  0  0  0  0
  -25.4138  -15.1909   20.4259 N   0  0  0  0  0  0
  -31.7427  -14.8761   20.1232 O   0  0  0  0  0  0
  -21.6636   -6.8833   21.4212 O   0  0  0  0  0  0
  -22.3488  -14.5504   20.6665 O   0  0  0  0  0  0
  -24.6542  -31.8608   23.2055 C   0  0  0  0  0  0
  -25.9294  -32.4807   23.8439 C   0  0  1  0  0  0
  -27.2333  -27.2145   20.1520 C   0  0  0  0  0  0
  -25.6020  -33.8601   24.2314 N   0  0  0  0  0  0
  -23.4717  -30.4801   21.5638 C   0  0  2  0  0  0
  -24.8925  -28.9021   20.1467 C   0  0  0  0  0  0
  -22.7866  -29.4776   22.5179 C   0  0  0  0  0  0
  -17.9956  -28.1229   22.8693 C   0  0  0  0  0  0
  -24.1477  -36.7279   23.2639 C   0  0  0  0  0  0
  -26.0096  -30.7458   21.3974 C   0  0  0  0  0  0
  -26.0692  -29.3588   20.7536 C   0  0  0  0  0  0
  -27.2424  -28.5291   20.7382 C   0  0  0  0  0  0
  -26.0398  -26.8511   19.4982 C   0  0  0  0  0  0
  -24.8815  -27.6535   19.5106 C   0  0  0  0  0  0
  -23.6763  -29.8029   20.1833 C   0  0  0  0  0  0
  -25.4116  -36.3111   24.0334 C   0  0  1  0  0  0
  -20.4822  -28.4626   22.7738 C   0  0  2  0  0  0
  -20.6932  -26.9632   22.5272 C   0  0  0  0  0  0
  -19.5541  -26.4570   21.6156 C   0  0  0  0  0  0
  -18.1577  -26.7523   22.2051 C   0  0  0  0  0  0
  -19.1174  -28.8998   23.2478 C   0  0  0  0  0  0
  -18.9358  -30.1506   23.8749 C   0  0  0  0  0  0
  -17.6364  -30.6519   24.0793 C   0  0  0  0  0  0
  -25.9077  -34.9474   23.5130 C   0  0  0  0  0  0
  -16.5202  -29.8977   23.6730 C   0  0  0  0  0  0
  -16.7006  -28.6306   23.0875 C   0  0  0  0  0  0
  -26.4566  -31.6613   25.0845 C   0  0  0  0  0  0
  -25.3728  -31.3771   26.1513 C   0  0  0  0  0  0
  -27.0409  -30.3024   24.6362 C   0  0  0  0  0  0
  -27.6116  -32.4350   25.7610 C   0  0  0  0  0  0
  -27.5579  -37.1824   24.8482 C   0  0  0  0  0  0
  -21.4636  -29.4474   22.3879 N   0  0  0  0  0  0
  -26.4299  -37.3813   23.9420 N   0  0  0  0  0  0
  -24.7350  -31.0483   22.1127 N   0  0  0  0  0  0
  -23.4212  -28.7564   23.2890 O   0  0  0  0  0  0
  -28.3740  -26.3849   19.9950 O   0  0  0  0  0  0
  -26.5615  -34.8948   22.4672 O   0  0  0  0  0  0
  -23.5640  -32.1429   23.7248 O   0  0  0  0  0  0
  -28.7364  -21.1007   21.4356 C   0  0  0  0  0  0
  -29.6420  -20.2980   19.6764 C   0  0  0  0  0  0
  -28.7559  -22.1543   20.5020 C   0  0  0  0  0  0
  -27.9147  -16.8406   23.1236 C   0  0  0  0  0  0
  -26.8245  -18.9858   22.4771 C   0  0  0  0  0  0
  -30.2042  -24.8853   20.3913 C   0  0  0  0  0  0
  -27.2306  -23.4792   19.0680 C   0  0  0  0  0  0
  -26.8730  -23.5117   21.5156 C   0  0  0  0  0  0
  -30.3342  -18.5427   22.5928 C   0  0  0  0  0  0
  -29.8761  -17.2724   20.4661 C   0  0  0  0  0  0
  -27.8703  -17.9383   22.0200 C   0  0  0  0  0  0
  -28.6926  -25.0363   20.6331 C   0  0  2  0  0  0
  -27.9613  -23.5624   20.4266 C   0  0  0  0  0  0
  -29.2875  -18.4293   21.4619 C   0  0  2  0  0  0
  -29.4297  -21.6000   19.4002 N   0  0  0  0  0  0
  -29.2052  -19.8633   20.8711 N   0  0  0  0  0  0
  -29.7597  -15.7815   20.8115 N   0  0  0  0  0  0
  -31.4791  -12.5875   19.1671 H   0  0  0  0  0  0
  -30.3789  -11.4530   19.9069 H   0  0  0  0  0  0
  -29.7880  -11.7673   17.4872 H   0  0  0  0  0  0
  -29.6478  -13.4943   17.7216 H   0  0  0  0  0  0
  -27.8565  -11.3108   18.8170 H   0  0  0  0  0  0
  -27.3818  -12.6229   17.7661 H   0  0  0  0  0  0
  -27.6438  -14.2680   19.5014 H   0  0  0  0  0  0
  -28.7149  -12.0582   21.3371 H   0  0  0  0  0  0
  -28.4276  -13.7065   21.8408 H   0  0  0  0  0  0
  -25.2694   -9.5792   22.4676 H   0  0  0  0  0  0
  -24.0008   -7.4695   22.7501 H   0  0  0  0  0  0
  -21.0755   -8.8639   19.8966 H   0  0  0  0  0  0
  -22.3477  -10.9611   19.6149 H   0  0  0  0  0  0
  -21.1992   -7.6126   23.9664 H   0  0  0  0  0  0
  -21.1514   -6.0511   25.9043 H   0  0  0  0  0  0
  -22.0591   -2.7572   23.2815 H   0  0  0  0  0  0
  -22.4027  -11.9908   22.4882 H   0  0  0  0  0  0
  -21.1064  -13.1304   22.2597 H   0  0  0  0  0  0
  -24.6374  -15.8339   20.5365 H   0  0  0  0  0  0
  -26.2482  -15.6368   20.0716 H   0  0  0  0  0  0
  -26.7356  -32.5410   23.1177 H   0  0  0  0  0  0
  -25.0264  -33.9725   25.0532 H   0  0  0  0  0  0
  -22.7789  -31.3120   21.4041 H   0  0  0  0  0  0
  -23.3773  -35.9588   23.3346 H   0  0  0  0  0  0
  -24.3559  -36.8845   22.2044 H   0  0  0  0  0  0
  -23.7165  -37.6479   23.6614 H   0  0  0  0  0  0
  -26.1578  -31.4905   20.6151 H   0  0  0  0  0  0
  -26.8906  -30.8010   22.0269 H   0  0  0  0  0  0
  -28.1606  -28.8975   21.1760 H   0  0  0  0  0  0
  -25.9971  -25.9580   18.9103 H   0  0  0  0  0  0
  -23.9924  -27.3092   19.0012 H   0  0  0  0  0  0
  -23.8186  -30.5764   19.4277 H   0  0  0  0  0  0
  -22.7848  -29.2516   19.8772 H   0  0  0  0  0  0
  -25.1281  -36.2014   25.0829 H   0  0  0  0  0  0
  -20.1601  -28.6824   21.7547 H   0  0  0  0  0  0
  -21.6617  -26.7682   22.0661 H   0  0  0  0  0  0
  -20.6852  -26.4321   23.4799 H   0  0  0  0  0  0
  -19.6607  -25.3864   21.4405 H   0  0  0  0  0  0
  -19.6374  -26.9169   20.6292 H   0  0  0  0  0  0
  -17.4033  -26.6300   21.4278 H   0  0  0  0  0  0
  -17.9326  -26.0021   22.9640 H   0  0  0  0  0  0
  -19.7916  -30.7519   24.1482 H   0  0  0  0  0  0
  -17.4979  -31.6230   24.5354 H   0  0  0  0  0  0
  -15.5222  -30.2855   23.8270 H   0  0  0  0  0  0
  -15.8349  -28.0535   22.7921 H   0  0  0  0  0  0
  -24.5940  -30.7085   25.7820 H   0  0  0  0  0  0
  -24.8881  -32.2932   26.4906 H   0  0  0  0  0  0
  -25.8011  -30.8974   27.0318 H   0  0  0  0  0  0
  -26.3026  -29.6774   24.1330 H   0  0  0  0  0  0
  -27.4001  -29.7299   25.4917 H   0  0  0  0  0  0
  -27.8942  -30.4300   23.9701 H   0  0  0  0  0  0
  -27.2758  -33.3689   26.2135 H   0  0  0  0  0  0
  -28.3958  -32.6834   25.0445 H   0  0  0  0  0  0
  -28.0748  -31.8500   26.5560 H   0  0  0  0  0  0
  -28.2642  -38.0087   24.7549 H   0  0  0  0  0  0
  -28.1032  -36.2627   24.6313 H   0  0  0  0  0  0
  -27.2303  -37.1488   25.8891 H   0  0  0  0  0  0
  -21.0909  -30.1581   21.7725 H   0  0  0  0  0  0
  -26.0193  -38.2905   24.1429 H   0  0  0  0  0  0
  -28.3234  -21.1201   22.4341 H   0  0  0  0  0  0
  -30.1208  -19.6322   18.9721 H   0  0  0  0  0  0
  -26.9720  -16.7826   23.6762 H   0  0  0  0  0  0
  -28.6861  -16.9907   23.8840 H   0  0  0  0  0  0
  -28.0651  -15.8503   22.6968 H   0  0  0  0  0  0
  -26.6007  -19.7309   21.7194 H   0  0  0  0  0  0
  -25.8600  -18.5112   22.6715 H   0  0  0  0  0  0
  -27.1117  -19.4860   23.4023 H   0  0  0  0  0  0
  -30.7350  -25.8044   20.6382 H   0  0  0  0  0  0
  -30.4253  -24.6475   19.3517 H   0  0  0  0  0  0
  -30.6353  -24.0969   21.0104 H   0  0  0  0  0  0
  -26.3016  -24.0304   19.0492 H   0  0  0  0  0  0
  -27.8660  -23.8108   18.2473 H   0  0  0  0  0  0
  -26.9212  -22.4568   18.8469 H   0  0  0  0  0  0
  -26.2324  -24.3951   21.4711 H   0  0  0  0  0  0
  -27.3166  -23.4731   22.5113 H   0  0  0  0  0  0
  -26.2371  -22.6308   21.4251 H   0  0  0  0  0  0
  -29.9951  -19.1769   23.4096 H   0  0  0  0  0  0
  -31.2609  -18.9795   22.2165 H   0  0  0  0  0  0
  -30.6055  -17.5703   23.0046 H   0  0  0  0  0  0
  -30.9264  -17.4792   20.2566 H   0  0  0  0  0  0
  -29.3793  -17.3820   19.5003 H   0  0  0  0  0  0
  -27.3744  -17.4883   21.1584 H   0  0  0  0  0  0
  -28.6406  -25.2554   21.6994 H   0  0  0  0  0  0
  -28.8388  -15.4984   21.1070 H   0  0  0  0  0  0
  1 25  1  0  0  0
  1 30  2  0  0  0
  1 87  1  0  0  0
  2  3  1  0  0  0
  2 25  1  0  0  0
  2 88  1  0  0  0
  2 89  1  0  0  0
  3  4  1  0  0  0
  3 90  1  0  0  0
  3 91  1  0  0  0
  4  5  1  0  0  0
  4 92  1  0  0  0
  4 93  1  0  0  0
  5  6  1  0  0  0
  5 26  1  0  0  0
  5 94  1  0  0  0
  6 25  1  0  0  0
  6 95  1  0  0  0
  6 96  1  0  0  0
  7  8  2  0  0  0
  7 26  1  0  0  0
  7 29  1  0  0  0
  8  9  1  0  0  0
  8 22  1  0  0  0
  9 10  1  0  0  0
  9 27  2  0  0  0
 10 11  2  0  0  0
 10 15  1  0  0  0
 11 12  1  0  0  0
 11 97  1  0  0  0
 12 13  2  0  0  0
 12 98  1  0  0  0
 13 14  1  0  0  0
 13 31  1  0  0  0
 14 15  2  0  0  0
 14 99  1  0  0  0
 15100  1  0  0  0
 16 17  2  0  0  0
 16 21  1  0  0  0
 16 31  1  0  0  0
 17 18  1  0  0  0
 17101  1  0  0  0
 18 19  2  0  0  0
 18102  1  0  0  0
 19 20  1  0  0  0
 19 24  1  0  0  0
 20 21  2  0  0  0
 20103  1  0  0  0
 21 23  1  0  0  0
 22 28  1  0  0  0
 22 32  2  0  0  0
 26 27  1  0  0  0
 28104  1  0  0  0
 28105  1  0  0  0
 29106  1  0  0  0
 29107  1  0  0  0
 33 34  1  0  0  0
 33 66  1  0  0  0
 33 70  2  0  0  0
 34 36  1  0  0  0
 34 59  1  0  0  0
 34108  1  0  0  0
 35 44  2  0  0  0
 35 45  1  0  0  0
 35 68  1  0  0  0
 36 56  1  0  0  0
 36109  1  0  0  0
 37 39  1  0  0  0
 37 47  1  0  0  0
 37 66  1  0  0  0
 37110  1  0  0  0
 38 43  2  0  0  0
 38 46  1  0  0  0
 38 47  1  0  0  0
 39 64  1  0  0  0
 39 67  2  0  0  0
 40 52  1  0  0  0
 40 53  2  0  0  0
 40 58  1  0  0  0
 41111  1  0  0  0
 41112  1  0  0  0
 41113  1  0  0  0
 41 48  1  0  0  0
 42 43  1  0  0  0
 42 66  1  0  0  0
 42114  1  0  0  0
 42115  1  0  0  0
 43 44  1  0  0  0
 44116  1  0  0  0
 45 46  2  0  0  0
 45117  1  0  0  0
 46118  1  0  0  0
 47119  1  0  0  0
 47120  1  0  0  0
 48 56  1  0  0  0
 48 65  1  0  0  0
 48121  1  0  0  0
 49 50  1  0  0  0
 49 53  1  0  0  0
 49 64  1  0  0  0
 49122  1  0  0  0
 50 51  1  0  0  0
 50123  1  0  0  0
 50124  1  0  0  0
 51 52  1  0  0  0
 51125  1  0  0  0
 51126  1  0  0  0
 52127  1  0  0  0
 52128  1  0  0  0
 53 54  1  0  0  0
 54 55  2  0  0  0
 54129  1  0  0  0
 55 57  1  0  0  0
 55130  1  0  0  0
 56 69  2  0  0  0
 57 58  2  0  0  0
 57131  1  0  0  0
 58132  1  0  0  0
 59 60  1  0  0  0
 59 61  1  0  0  0
 59 62  1  0  0  0
 60133  1  0  0  0
 60134  1  0  0  0
 60135  1  0  0  0
 61136  1  0  0  0
 61137  1  0  0  0
 61138  1  0  0  0
 62139  1  0  0  0
 62140  1  0  0  0
 62141  1  0  0  0
 63 65  1  0  0  0
 63142  1  0  0  0
 63143  1  0  0  0
 63144  1  0  0  0
 64145  1  0  0  0
 65146  1  0  0  0
 68 82  1  0  0  0
 71 73  2  0  0  0
 71 86  1  0  0  0
 71147  1  0  0  0
 72 85  2  0  0  0
 72 86  1  0  0  0
 72148  1  0  0  0
 73 83  1  0  0  0
 73 85  1  0  0  0
 74149  1  0  0  0
 74150  1  0  0  0
 74151  1  0  0  0
 74 81  1  0  0  0
 75 81  1  0  0  0
 75152  1  0  0  0
 75153  1  0  0  0
 75154  1  0  0  0
 76155  1  0  0  0
 76156  1  0  0  0
 76157  1  0  0  0
 76 82  1  0  0  0
 77158  1  0  0  0
 77159  1  0  0  0
 77160  1  0  0  0
 77 83  1  0  0  0
 78 83  1  0  0  0
 78161  1  0  0  0
 78162  1  0  0  0
 78163  1  0  0  0
 79164  1  0  0  0
 79165  1  0  0  0
 79166  1  0  0  0
 79 84  1  0  0  0
 80 84  1  0  0  0
 80 87  1  0  0  0
 80167  1  0  0  0
 80168  1  0  0  0
 81 84  1  0  0  0
 81169  1  0  0  0
 82 83  1  0  0  0
 82170  1  0  0  0
 84 86  1  0  0  0
 87171  1  0  0  0
M  ISO  4   1 100  68 101  82 101  87 100
M  END
> <chiral flag>
0

> <version>
0

> <s_m_source_file>
/data/baiqing/PycharmProjects/Reinvent-master-3.2/result/LINK_invent/BTK/process_docking_weight1_custom_sum_contain_oxygen_bond_distance_aromatic_linkinvent_7_9_3/rearranged_h_0066.sdf

> <i_m_source_file_index>
12

> <r_mmod_Potential_Energy-OPLS-2005>
446.917510986328

> <r_mmod_Stretch_Energy-OPLS-2005>
159.914306640625

> <r_mmod_Bend_Energy-OPLS-2005>
362.267486572266

> <r_mmod_Torsional_Energy-OPLS-2005>
314.967712402344

> <r_mmod_Improper_Torsional_Energy-OPLS-2005>
10.3794116973877

> <r_mmod_Van_der_Waal_Energy-OPLS-2005>
131.334869384766

> <r_mmod_Electrostatic_Energy-OPLS-2005>
-420.32080078125

> <r_mmod_Solvation_Energy-OPLS-2005>
-212.322311401367

> <b_mmod_Minimization_Converged-OPLS-2005>
0

> <r_mmod_RMS_Derivative-OPLS-2005>
6.15503644943237

$$$$
13
                    3D
 Structure written by MMmdl.
148156  0  0  1  0            999 V2000
  -30.3819  -15.3495   20.3807 C   0  0  0  0  0  0
  -30.4351  -12.8664   19.5485 C   0  0  0  0  0  0
  -29.5430  -12.6030   18.3075 C   0  0  0  0  0  0
  -28.0963  -12.3030   18.7324 C   0  0  0  0  0  0
  -27.6095  -13.2805   19.8302 C   0  0  2  0  0  0
  -28.6318  -13.4726   20.9714 C   0  0  0  0  0  0
  -25.2391  -13.8231   20.5798 C   0  0  0  0  0  0
  -24.1733  -13.0440   20.9253 C   0  0  0  0  0  0
  -24.6388  -11.6937   20.8721 C   0  0  0  0  0  0
  -23.9095  -10.4287   21.0387 C   0  0  0  0  0  0
  -24.3638   -9.4192   21.9180 C   0  0  0  0  0  0
  -23.6301   -8.2226   22.0751 C   0  0  0  0  0  0
  -22.4281   -8.0256   21.3536 C   0  0  0  0  0  0
  -21.9931   -9.0241   20.4643 C   0  0  0  0  0  0
  -22.7259  -10.2123   20.3048 C   0  0  0  0  0  0
  -21.6855   -6.0732   22.5290 C   0  0  0  0  0  0
  -21.4015   -6.5639   23.8220 C   0  0  0  0  0  0
  -21.3658   -5.6791   24.9176 C   0  0  0  0  0  0
  -21.6056   -4.3054   24.7239 C   0  0  0  0  0  0
  -21.8809   -3.8146   23.4352 C   0  0  0  0  0  0
  -21.9190   -4.6961   22.3405 C   0  0  0  0  0  0
  -22.7747  -13.5190   21.1900 C   0  0  0  0  0  0
  -22.1660   -4.2156   21.0983 F   0  0  0  0  0  0
  -21.5633   -3.4527   25.7742 F   0  0  0  0  0  0
  -29.8549  -14.0150   20.3532 N   0  0  0  0  0  0
  -26.2798  -12.9525   20.3218 N   0  0  0  0  0  0
  -25.9321  -11.6628   20.5690 N   0  0  0  0  0  0
  -22.0428  -12.8154   22.0454 N   0  0  0  0  0  0
  -25.4111  -15.1970   20.4394 N   0  0  0  0  0  0
  -31.5944  -15.3581   20.1122 O   0  0  0  0  0  0
  -21.6635   -6.8860   21.4241 O   0  0  0  0  0  0
  -22.3402  -14.5492   20.6740 O   0  0  0  0  0  0
  -24.6695  -31.8166   23.1643 C   0  0  0  0  0  0
  -25.9341  -32.4546   23.8139 C   0  0  1  0  0  0
  -27.2057  -26.8469   20.2101 C   0  0  0  0  0  0
  -25.5969  -33.8363   24.2028 N   0  0  0  0  0  0
  -23.4880  -30.4243   21.5139 C   0  0  2  0  0  0
  -24.9402  -28.7965   20.1080 C   0  0  0  0  0  0
  -22.7704  -29.4396   22.4766 C   0  0  0  0  0  0
  -18.0335  -28.1419   22.8458 C   0  0  0  0  0  0
  -24.1493  -36.7199   23.2663 C   0  0  0  0  0  0
  -26.0607  -30.5918   21.4124 C   0  0  0  0  0  0
  -26.1212  -29.1744   20.7591 C   0  0  0  0  0  0
  -27.2418  -28.2193   20.7877 C   0  0  0  0  0  0
  -26.0075  -26.6479   19.4885 C   0  0  0  0  0  0
  -24.9134  -27.5567   19.4460 C   0  0  0  0  0  0
  -23.7314  -29.7351   20.1421 C   0  0  0  0  0  0
  -25.4146  -36.2957   24.0292 C   0  0  1  0  0  0
  -20.5947  -28.3763   23.1156 C   0  0  2  0  0  0
  -20.6802  -26.9446   22.5421 C   0  0  0  0  0  0
  -19.5786  -26.6376   21.5227 C   0  0  0  0  0  0
  -18.1973  -26.7950   22.1618 C   0  0  0  0  0  0
  -19.1587  -28.8926   23.2781 C   0  0  0  0  0  0
  -18.9500  -30.1512   23.8833 C   0  0  0  0  0  0
  -17.6494  -30.6598   24.0560 C   0  0  0  0  0  0
  -25.9108  -34.9327   23.4992 C   0  0  0  0  0  0
  -16.5382  -29.9081   23.6353 C   0  0  0  0  0  0
  -16.7316  -28.6509   23.0370 C   0  0  0  0  0  0
  -26.4544  -31.6538   25.0714 C   0  0  0  0  0  0
  -25.3631  -31.3811   26.1342 C   0  0  0  0  0  0
  -27.0475  -30.2905   24.6526 C   0  0  0  0  0  0
  -27.6021  -32.4376   25.7514 C   0  0  0  0  0  0
  -27.5558  -37.1788   24.8483 C   0  0  0  0  0  0
  -21.4368  -29.3027   22.3501 N   0  0  0  0  0  0
  -26.4307  -37.3690   23.9371 N   0  0  0  0  0  0
  -24.7617  -30.9749   22.0837 N   0  0  0  0  0  0
  -23.4221  -28.8000   23.3063 O   0  0  0  0  0  0
  -28.1679  -25.6894   20.3670 O   0  0  0  0  0  0
  -26.5736  -34.8876   22.4605 O   0  0  0  0  0  0
  -23.5722  -32.1193   23.6666 O   0  0  0  0  0  0
  -28.0813  -22.2860   21.9749 C   0  0  0  0  0  0
  -28.4737  -22.4834   20.6325 C   0  0  0  0  0  0
  -29.0330  -19.8391   20.7112 C   0  0  0  0  0  0
  -28.5245  -19.9130   22.0405 C   0  0  0  0  0  0
  -29.7199  -18.2874   20.1470 C   0  0  0  0  0  0
  -28.0464  -24.0660   19.9203 C   0  0  0  0  0  0
  -28.4189  -18.6573   22.9187 C   0  0  0  0  0  0
  -28.0972  -21.0837   22.6242 N   0  0  0  0  0  0
  -28.9552  -21.1856   20.0445 N   0  0  0  0  0  0
  -29.5954  -16.6244   20.5138 N   0  0  0  0  0  0
  -27.8428  -18.9293   24.0938 F   0  0  0  0  0  0
  -27.6748  -17.7311   22.3105 F   0  0  0  0  0  0
  -29.6274  -18.1529   23.1654 F   0  0  0  0  0  0
  -31.4507  -13.0850   19.2153 H   0  0  0  0  0  0
  -30.5227  -11.9663   20.1573 H   0  0  0  0  0  0
  -29.9414  -11.7787   17.7142 H   0  0  0  0  0  0
  -29.5580  -13.4816   17.6609 H   0  0  0  0  0  0
  -28.0681  -11.2795   19.1113 H   0  0  0  0  0  0
  -27.4275  -12.3271   17.8697 H   0  0  0  0  0  0
  -27.5194  -14.2464   19.3272 H   0  0  0  0  0  0
  -28.8138  -12.5397   21.5107 H   0  0  0  0  0  0
  -28.2477  -14.1800   21.7078 H   0  0  0  0  0  0
  -25.2786   -9.5660   22.4758 H   0  0  0  0  0  0
  -24.0008   -7.4620   22.7479 H   0  0  0  0  0  0
  -21.0864   -8.8761   19.8953 H   0  0  0  0  0  0
  -22.3719  -10.9654   19.6152 H   0  0  0  0  0  0
  -21.2006   -7.6157   23.9710 H   0  0  0  0  0  0
  -21.1498   -6.0537   25.9080 H   0  0  0  0  0  0
  -22.0592   -2.7617   23.2855 H   0  0  0  0  0  0
  -22.4062  -11.9797   22.4795 H   0  0  0  0  0  0
  -21.1032  -13.1132   22.2647 H   0  0  0  0  0  0
  -24.6584  -15.8530   20.6022 H   0  0  0  0  0  0
  -26.2735  -15.6437   20.1625 H   0  0  0  0  0  0
  -26.7427  -32.5047   23.0855 H   0  0  0  0  0  0
  -25.0031  -33.9434   25.0107 H   0  0  0  0  0  0
  -22.8057  -31.2575   21.3364 H   0  0  0  0  0  0
  -23.3740  -35.9550   23.3357 H   0  0  0  0  0  0
  -24.3550  -36.8821   22.2075 H   0  0  0  0  0  0
  -23.7276  -37.6407   23.6699 H   0  0  0  0  0  0
  -26.2544  -31.3216   20.6259 H   0  0  0  0  0  0
  -26.9189  -30.6509   22.0703 H   0  0  0  0  0  0
  -28.1232  -28.4961   21.3494 H   0  0  0  0  0  0
  -25.8622  -25.7056   18.9842 H   0  0  0  0  0  0
  -24.0216  -27.2612   18.9095 H   0  0  0  0  0  0
  -23.8928  -30.5004   19.3819 H   0  0  0  0  0  0
  -22.8418  -29.1906   19.8252 H   0  0  0  0  0  0
  -25.1359  -36.1774   25.0791 H   0  0  0  0  0  0
  -21.0007  -28.3404   24.1296 H   0  0  0  0  0  0
  -20.5669  -26.2412   23.3681 H   0  0  0  0  0  0
  -21.6682  -26.7415   22.1249 H   0  0  0  0  0  0
  -19.6949  -25.6257   21.1327 H   0  0  0  0  0  0
  -19.6731  -27.3128   20.6720 H   0  0  0  0  0  0
  -17.4251  -26.6695   21.4012 H   0  0  0  0  0  0
  -18.0324  -26.0114   22.9026 H   0  0  0  0  0  0
  -19.7975  -30.7340   24.2174 H   0  0  0  0  0  0
  -17.5037  -31.6275   24.5181 H   0  0  0  0  0  0
  -15.5381  -30.2961   23.7723 H   0  0  0  0  0  0
  -15.8708  -28.0817   22.7114 H   0  0  0  0  0  0
  -24.5834  -30.7140   25.7625 H   0  0  0  0  0  0
  -24.8778  -32.3017   26.4611 H   0  0  0  0  0  0
  -25.7818  -30.9082   27.0235 H   0  0  0  0  0  0
  -26.3175  -29.6544   24.1511 H   0  0  0  0  0  0
  -27.3945  -29.7322   25.5226 H   0  0  0  0  0  0
  -27.9131  -30.4081   24.0007 H   0  0  0  0  0  0
  -27.2585  -33.3732   26.1944 H   0  0  0  0  0  0
  -28.3900  -32.6864   25.0389 H   0  0  0  0  0  0
  -28.0622  -31.8617   26.5562 H   0  0  0  0  0  0
  -28.2639  -38.0016   24.7415 H   0  0  0  0  0  0
  -28.0993  -36.2543   24.6472 H   0  0  0  0  0  0
  -27.2260  -37.1633   25.8887 H   0  0  0  0  0  0
  -20.9643  -29.8695   21.6591 H   0  0  0  0  0  0
  -26.0154  -38.2768   24.1277 H   0  0  0  0  0  0
  -27.6798  -23.1148   22.5416 H   0  0  0  0  0  0
  -30.7938  -18.4701   20.1975 H   0  0  0  0  0  0
  -29.4892  -18.3114   19.0833 H   0  0  0  0  0  0
  -26.9797  -23.9296   19.7454 H   0  0  0  0  0  0
  -28.4856  -24.0300   18.9245 H   0  0  0  0  0  0
  -28.6520  -16.4016   20.7981 H   0  0  0  0  0  0
  1 25  1  0  0  0
  1 30  2  0  0  0
  1 80  1  0  0  0
  2  3  1  0  0  0
  2 25  1  0  0  0
  2 84  1  0  0  0
  2 85  1  0  0  0
  3  4  1  0  0  0
  3 86  1  0  0  0
  3 87  1  0  0  0
  4  5  1  0  0  0
  4 88  1  0  0  0
  4 89  1  0  0  0
  5  6  1  0  0  0
  5 26  1  0  0  0
  5 90  1  0  0  0
  6 25  1  0  0  0
  6 91  1  0  0  0
  6 92  1  0  0  0
  7  8  2  0  0  0
  7 26  1  0  0  0
  7 29  1  0  0  0
  8  9  1  0  0  0
  8 22  1  0  0  0
  9 10  1  0  0  0
  9 27  2  0  0  0
 10 11  2  0  0  0
 10 15  1  0  0  0
 11 12  1  0  0  0
 11 93  1  0  0  0
 12 13  2  0  0  0
 12 94  1  0  0  0
 13 14  1  0  0  0
 13 31  1  0  0  0
 14 15  2  0  0  0
 14 95  1  0  0  0
 15 96  1  0  0  0
 16 17  2  0  0  0
 16 21  1  0  0  0
 16 31  1  0  0  0
 17 18  1  0  0  0
 17 97  1  0  0  0
 18 19  2  0  0  0
 18 98  1  0  0  0
 19 20  1  0  0  0
 19 24  1  0  0  0
 20 21  2  0  0  0
 20 99  1  0  0  0
 21 23  1  0  0  0
 22 28  1  0  0  0
 22 32  2  0  0  0
 26 27  1  0  0  0
 28100  1  0  0  0
 28101  1  0  0  0
 29102  1  0  0  0
 29103  1  0  0  0
 33 34  1  0  0  0
 33 66  1  0  0  0
 33 70  2  0  0  0
 34 36  1  0  0  0
 34 59  1  0  0  0
 34104  1  0  0  0
 35 44  2  0  0  0
 35 45  1  0  0  0
 35 68  1  0  0  0
 36 56  1  0  0  0
 36105  1  0  0  0
 37 39  1  0  0  0
 37 47  1  0  0  0
 37 66  1  0  0  0
 37106  1  0  0  0
 38 43  2  0  0  0
 38 46  1  0  0  0
 38 47  1  0  0  0
 39 64  1  0  0  0
 39 67  2  0  0  0
 40 52  1  0  0  0
 40 53  2  0  0  0
 40 58  1  0  0  0
 41107  1  0  0  0
 41108  1  0  0  0
 41109  1  0  0  0
 41 48  1  0  0  0
 42 43  1  0  0  0
 42 66  1  0  0  0
 42110  1  0  0  0
 42111  1  0  0  0
 43 44  1  0  0  0
 44112  1  0  0  0
 45 46  2  0  0  0
 45113  1  0  0  0
 46114  1  0  0  0
 47115  1  0  0  0
 47116  1  0  0  0
 48 56  1  0  0  0
 48 65  1  0  0  0
 48117  1  0  0  0
 49 50  1  0  0  0
 49 53  1  0  0  0
 49 64  1  0  0  0
 49118  1  0  0  0
 50 51  1  0  0  0
 50119  1  0  0  0
 50120  1  0  0  0
 51 52  1  0  0  0
 51121  1  0  0  0
 51122  1  0  0  0
 52123  1  0  0  0
 52124  1  0  0  0
 53 54  1  0  0  0
 54 55  2  0  0  0
 54125  1  0  0  0
 55 57  1  0  0  0
 55126  1  0  0  0
 56 69  2  0  0  0
 57 58  2  0  0  0
 57127  1  0  0  0
 58128  1  0  0  0
 59 60  1  0  0  0
 59 61  1  0  0  0
 59 62  1  0  0  0
 60129  1  0  0  0
 60130  1  0  0  0
 60131  1  0  0  0
 61132  1  0  0  0
 61133  1  0  0  0
 61134  1  0  0  0
 62135  1  0  0  0
 62136  1  0  0  0
 62137  1  0  0  0
 63 65  1  0  0  0
 63138  1  0  0  0
 63139  1  0  0  0
 63140  1  0  0  0
 64141  1  0  0  0
 65142  1  0  0  0
 68 76  1  0  0  0
 71 72  2  0  0  0
 71 78  1  0  0  0
 71143  1  0  0  0
 72 76  1  0  0  0
 72 79  1  0  0  0
 73 74  1  0  0  0
 73 75  1  0  0  0
 73 79  2  0  0  0
 74 77  1  0  0  0
 74 78  2  0  0  0
 75 80  1  0  0  0
 75144  1  0  0  0
 75145  1  0  0  0
 76146  1  0  0  0
 76147  1  0  0  0
 77 81  1  0  0  0
 77 82  1  0  0  0
 77 83  1  0  0  0
 80148  1  0  0  0
M  ISO  4   1 100  68 101  76 101  80 100
M  END
> <chiral flag>
0

> <version>
0

> <s_m_source_file>
/data/baiqing/PycharmProjects/Reinvent-master-3.2/result/LINK_invent/BTK/process_docking_weight1_custom_sum_contain_oxygen_bond_distance_aromatic_linkinvent_7_9_3/rearranged_h_0066.sdf

> <i_m_source_file_index>
13

> <r_mmod_Potential_Energy-OPLS-2005>
1645.92700195312

> <r_mmod_Stretch_Energy-OPLS-2005>
712.192504882812

> <r_mmod_Bend_Energy-OPLS-2005>
483.623382568359

> <r_mmod_Torsional_Energy-OPLS-2005>
220.3857421875

> <r_mmod_Improper_Torsional_Energy-OPLS-2005>
5.82383584976196

> <r_mmod_Van_der_Waal_Energy-OPLS-2005>
125.553009033203

> <r_mmod_Electrostatic_Energy-OPLS-2005>
-252.403915405273

> <r_mmod_Solvation_Energy-OPLS-2005>
-225.213394165039

> <b_mmod_Minimization_Converged-OPLS-2005>
0

> <r_mmod_RMS_Derivative-OPLS-2005>
3.61672139167786

$$$$
14
                    3D
 Structure written by MMmdl.
184192  0  0  1  0            999 V2000
  -30.7243  -14.5488   20.5919 C   0  0  0  0  0  0
  -30.4163  -12.3705   19.4360 C   0  0  0  0  0  0
  -29.4882  -12.5140   18.2135 C   0  0  0  0  0  0
  -28.0166  -12.3410   18.6322 C   0  0  0  0  0  0
  -27.6499  -13.2090   19.8624 C   0  0  2  0  0  0
  -28.6971  -13.0579   20.9911 C   0  0  0  0  0  0
  -25.2557  -13.8149   20.5656 C   0  0  0  0  0  0
  -24.1834  -13.0433   20.9204 C   0  0  0  0  0  0
  -24.6394  -11.6901   20.8781 C   0  0  0  0  0  0
  -23.9053  -10.4292   21.0434 C   0  0  0  0  0  0
  -24.3619   -9.4203   21.9199 C   0  0  0  0  0  0
  -23.6314   -8.2225   22.0759 C   0  0  0  0  0  0
  -22.4284   -8.0274   21.3555 C   0  0  0  0  0  0
  -21.9909   -9.0246   20.4655 C   0  0  0  0  0  0
  -22.7225  -10.2137   20.3078 C   0  0  0  0  0  0
  -21.6852   -6.0748   22.5279 C   0  0  0  0  0  0
  -21.4010   -6.5646   23.8216 C   0  0  0  0  0  0
  -21.3667   -5.6795   24.9175 C   0  0  0  0  0  0
  -21.6053   -4.3061   24.7220 C   0  0  0  0  0  0
  -21.8828   -3.8161   23.4339 C   0  0  0  0  0  0
  -21.9199   -4.6979   22.3399 C   0  0  0  0  0  0
  -22.7862  -13.5240   21.1854 C   0  0  0  0  0  0
  -22.1672   -4.2162   21.0980 F   0  0  0  0  0  0
  -21.5629   -3.4550   25.7737 F   0  0  0  0  0  0
  -30.0196  -13.3825   20.4388 N   0  0  0  0  0  0
  -26.2969  -12.9309   20.3329 N   0  0  0  0  0  0
  -25.9315  -11.6475   20.5818 N   0  0  0  0  0  0
  -22.0501  -12.8260   22.0430 N   0  0  0  0  0  0
  -25.4270  -15.1849   20.3965 N   0  0  0  0  0  0
  -31.8339  -14.6781   20.0645 O   0  0  0  0  0  0
  -21.6645   -6.8876   21.4239 O   0  0  0  0  0  0
  -22.3548  -14.5547   20.6709 O   0  0  0  0  0  0
  -24.6186  -31.8648   23.2062 C   0  0  0  0  0  0
  -25.9066  -32.4814   23.8364 C   0  0  1  0  0  0
  -27.2313  -27.3803   20.0998 C   0  0  0  0  0  0
  -25.5921  -33.8610   24.2301 N   0  0  0  0  0  0
  -23.4081  -30.4894   21.5467 C   0  0  2  0  0  0
  -24.8536  -28.9422   20.1156 C   0  0  0  0  0  0
  -22.7421  -29.4658   22.4949 C   0  0  0  0  0  0
  -18.0277  -28.1383   22.8485 C   0  0  0  0  0  0
  -24.1494  -36.7300   23.2638 C   0  0  0  0  0  0
  -25.9427  -30.8109   21.3695 C   0  0  0  0  0  0
  -26.0158  -29.4413   20.7147 C   0  0  0  0  0  0
  -27.2036  -28.6667   20.7027 C   0  0  0  0  0  0
  -26.0420  -26.9005   19.5064 C   0  0  0  0  0  0
  -24.8625  -27.6724   19.5145 C   0  0  0  0  0  0
  -23.6222  -29.8212   20.1612 C   0  0  0  0  0  0
  -25.4118  -36.3098   24.0332 C   0  0  1  0  0  0
  -20.5868  -28.3679   23.1296 C   0  0  2  0  0  0
  -20.6769  -26.9406   22.5413 C   0  0  0  0  0  0
  -19.5752  -26.6380   21.5204 C   0  0  0  0  0  0
  -18.1928  -26.7929   22.1604 C   0  0  0  0  0  0
  -19.1527  -28.8839   23.2892 C   0  0  0  0  0  0
  -18.9465  -30.1446   23.8912 C   0  0  0  0  0  0
  -17.6471  -30.6594   24.0564 C   0  0  0  0  0  0
  -25.9049  -34.9471   23.5107 C   0  0  0  0  0  0
  -16.5359  -29.9101   23.6335 C   0  0  0  0  0  0
  -16.7264  -28.6512   23.0358 C   0  0  0  0  0  0
  -26.4482  -31.6631   25.0728 C   0  0  0  0  0  0
  -25.3750  -31.3780   26.1496 C   0  0  0  0  0  0
  -27.0322  -30.3061   24.6168 C   0  0  0  0  0  0
  -27.6052  -32.4379   25.7477 C   0  0  0  0  0  0
  -27.5590  -37.1792   24.8457 C   0  0  0  0  0  0
  -21.4142  -29.3046   22.3692 N   0  0  0  0  0  0
  -26.4289  -37.3794   23.9430 N   0  0  0  0  0  0
  -24.6748  -31.0707   22.0987 N   0  0  0  0  0  0
  -23.4166  -28.8194   23.3003 O   0  0  0  0  0  0
  -28.4114  -26.6454   20.1324 O   0  0  0  0  0  0
  -26.5590  -34.8922   22.4665 O   0  0  0  0  0  0
  -23.5373  -32.1424   23.7444 O   0  0  0  0  0  0
  -30.0728  -20.0936   19.1164 C   0  0  0  0  0  0
  -29.3174  -20.1291   20.2938 C   0  0  0  0  0  0
  -30.5651  -18.8495   18.6827 C   0  0  0  0  0  0
  -29.6109  -17.8247   20.5044 C   0  0  0  0  0  0
  -28.1542  -16.5865   22.2612 C   0  0  0  0  0  0
  -28.0450  -17.0780   16.9553 C   0  0  0  0  0  0
  -28.5826  -18.1573   14.7439 C   0  0  0  0  0  0
  -30.8103  -16.1975   16.5271 C   0  0  0  0  0  0
  -31.4932  -20.0149   16.6074 C   0  0  0  0  0  0
  -32.7494  -18.1678   17.6404 C   0  0  0  0  0  0
  -31.2692  -16.0946   22.3500 C   0  0  0  0  0  0
  -28.6834  -21.4482   20.8127 C   0  0  0  0  0  0
  -28.9222  -22.7485   19.9539 C   0  0  0  0  0  0
  -28.3018  -24.0963   20.4728 C   0  0  0  0  0  0
  -28.5365  -25.3281   19.5311 C   0  0  0  0  0  0
  -29.1734  -16.4574   21.1029 C   0  0  2  0  0  0
  -29.0029  -18.0383   16.2163 C   0  0  0  0  0  0
  -30.5313  -17.7118   16.3564 C   0  0  1  0  0  0
  -31.3135  -18.6609   17.3449 C   0  0  0  0  0  0
  -29.0873  -18.9727   20.9753 N   0  0  0  0  0  0
  -30.3568  -17.7400   19.4165 N   0  0  0  0  0  0
  -30.2634  -15.4986   21.4589 N   0  0  0  0  0  0
  -31.4584  -12.4637   19.1272 H   0  0  0  0  0  0
  -30.3333  -11.3714   19.8629 H   0  0  0  0  0  0
  -29.7510  -11.7778   17.4515 H   0  0  0  0  0  0
  -29.6253  -13.4932   17.7547 H   0  0  0  0  0  0
  -27.8588  -11.2860   18.8611 H   0  0  0  0  0  0
  -27.3535  -12.5732   17.7977 H   0  0  0  0  0  0
  -27.6644  -14.2373   19.5094 H   0  0  0  0  0  0
  -28.6993  -12.0346   21.3678 H   0  0  0  0  0  0
  -28.4500  -13.6781   21.8495 H   0  0  0  0  0  0
  -25.2764   -9.5702   22.4772 H   0  0  0  0  0  0
  -24.0056   -7.4605   22.7465 H   0  0  0  0  0  0
  -21.0842   -8.8766   19.8953 H   0  0  0  0  0  0
  -22.3682  -10.9694   19.6211 H   0  0  0  0  0  0
  -21.2000   -7.6154   23.9728 H   0  0  0  0  0  0
  -21.1484   -6.0520   25.9078 H   0  0  0  0  0  0
  -22.0608   -2.7627   23.2831 H   0  0  0  0  0  0
  -22.4120  -11.9944   22.4867 H   0  0  0  0  0  0
  -21.1123  -13.1316   22.2598 H   0  0  0  0  0  0
  -24.6522  -15.8340   20.4776 H   0  0  0  0  0  0
  -26.2556  -15.6113   20.0057 H   0  0  0  0  0  0
  -26.7128  -32.5502   23.1109 H   0  0  0  0  0  0
  -25.0142  -33.9785   25.0492 H   0  0  0  0  0  0
  -22.7002  -31.3088   21.4036 H   0  0  0  0  0  0
  -23.3769  -35.9616   23.3278 H   0  0  0  0  0  0
  -24.3581  -36.8948   22.2057 H   0  0  0  0  0  0
  -23.7236  -37.6491   23.6669 H   0  0  0  0  0  0
  -26.0696  -31.5776   20.6039 H   0  0  0  0  0  0
  -26.8252  -30.8580   21.9958 H   0  0  0  0  0  0
  -28.1017  -29.0483   21.1691 H   0  0  0  0  0  0
  -25.9933  -25.9239   19.0483 H   0  0  0  0  0  0
  -23.9623  -27.2759   19.0666 H   0  0  0  0  0  0
  -23.7478  -30.5995   19.4066 H   0  0  0  0  0  0
  -22.7421  -29.2542   19.8528 H   0  0  0  0  0  0
  -25.1298  -36.1937   25.0818 H   0  0  0  0  0  0
  -20.9963  -28.3258   24.1410 H   0  0  0  0  0  0
  -20.5676  -26.2287   23.3609 H   0  0  0  0  0  0
  -21.6649  -26.7453   22.1208 H   0  0  0  0  0  0
  -19.6924  -25.6286   21.1250 H   0  0  0  0  0  0
  -19.6706  -27.3182   20.6729 H   0  0  0  0  0  0
  -17.4205  -26.6685   21.4000 H   0  0  0  0  0  0
  -18.0320  -26.0063   22.8990 H   0  0  0  0  0  0
  -19.7947  -30.7251   24.2289 H   0  0  0  0  0  0
  -17.5041  -31.6280   24.5160 H   0  0  0  0  0  0
  -15.5371  -30.3021   23.7658 H   0  0  0  0  0  0
  -15.8652  -28.0850   22.7067 H   0  0  0  0  0  0
  -24.5903  -30.7132   25.7870 H   0  0  0  0  0  0
  -24.8961  -32.2957   26.4928 H   0  0  0  0  0  0
  -25.8115  -30.8981   27.0268 H   0  0  0  0  0  0
  -26.2880  -29.6814   24.1219 H   0  0  0  0  0  0
  -27.4067  -29.7329   25.4663 H   0  0  0  0  0  0
  -27.8725  -30.4369   23.9344 H   0  0  0  0  0  0
  -27.2648  -33.3657   26.2089 H   0  0  0  0  0  0
  -28.3816  -32.7003   25.0276 H   0  0  0  0  0  0
  -28.0771  -31.8505   26.5367 H   0  0  0  0  0  0
  -28.2595  -38.0099   24.7536 H   0  0  0  0  0  0
  -28.1090  -36.2641   24.6226 H   0  0  0  0  0  0
  -27.2313  -37.1388   25.8854 H   0  0  0  0  0  0
  -20.9301  -29.8780   21.6927 H   0  0  0  0  0  0
  -26.0170  -38.2857   24.1469 H   0  0  0  0  0  0
  -30.2359  -20.9941   18.5470 H   0  0  0  0  0  0
  -27.2922  -17.1782   21.9511 H   0  0  0  0  0  0
  -28.5880  -17.0788   23.1306 H   0  0  0  0  0  0
  -27.7690  -15.6206   22.5804 H   0  0  0  0  0  0
  -27.0209  -17.4528   16.9242 H   0  0  0  0  0  0
  -28.3071  -16.9635   18.0033 H   0  0  0  0  0  0
  -28.0383  -16.0828   16.5100 H   0  0  0  0  0  0
  -27.5339  -18.4453   14.6554 H   0  0  0  0  0  0
  -28.7174  -17.2149   14.2118 H   0  0  0  0  0  0
  -29.1695  -18.9207   14.2310 H   0  0  0  0  0  0
  -30.2509  -15.6094   15.7987 H   0  0  0  0  0  0
  -30.5413  -15.8349   17.5198 H   0  0  0  0  0  0
  -31.8621  -15.9576   16.3660 H   0  0  0  0  0  0
  -32.0396  -20.7365   17.2154 H   0  0  0  0  0  0
  -30.5384  -20.4673   16.3399 H   0  0  0  0  0  0
  -32.0504  -19.8992   15.6780 H   0  0  0  0  0  0
  -33.2910  -18.8958   18.2442 H   0  0  0  0  0  0
  -33.3175  -18.0140   16.7226 H   0  0  0  0  0  0
  -32.7561  -17.2306   18.1961 H   0  0  0  0  0  0
  -30.8376  -16.8138   23.0463 H   0  0  0  0  0  0
  -32.0366  -16.6167   21.7754 H   0  0  0  0  0  0
  -31.7634  -15.3224   22.9412 H   0  0  0  0  0  0
  -29.0500  -21.6175   21.8257 H   0  0  0  0  0  0
  -27.6101  -21.2814   20.9080 H   0  0  0  0  0  0
  -28.5503  -22.5655   18.9442 H   0  0  0  0  0  0
  -29.9984  -22.8984   19.8563 H   0  0  0  0  0  0
  -28.7295  -24.3170   21.4505 H   0  0  0  0  0  0
  -27.2301  -23.9735   20.6330 H   0  0  0  0  0  0
  -27.9601  -25.2352   18.6120 H   0  0  0  0  0  0
  -29.5725  -25.2776   19.1941 H   0  0  0  0  0  0
  -28.6196  -16.0052   20.2839 H   0  0  0  0  0  0
  -28.8198  -19.0232   16.6464 H   0  0  0  0  0  0
  -30.9737  -17.9062   15.3790 H   0  0  0  0  0  0
  1 25  1  0  0  0
  1 30  2  0  0  0
  1 92  1  0  0  0
  2  3  1  0  0  0
  2 25  1  0  0  0
  2 93  1  0  0  0
  2 94  1  0  0  0
  3  4  1  0  0  0
  3 95  1  0  0  0
  3 96  1  0  0  0
  4  5  1  0  0  0
  4 97  1  0  0  0
  4 98  1  0  0  0
  5  6  1  0  0  0
  5 26  1  0  0  0
  5 99  1  0  0  0
  6 25  1  0  0  0
  6100  1  0  0  0
  6101  1  0  0  0
  7  8  2  0  0  0
  7 26  1  0  0  0
  7 29  1  0  0  0
  8  9  1  0  0  0
  8 22  1  0  0  0
  9 10  1  0  0  0
  9 27  2  0  0  0
 10 11  2  0  0  0
 10 15  1  0  0  0
 11 12  1  0  0  0
 11102  1  0  0  0
 12 13  2  0  0  0
 12103  1  0  0  0
 13 14  1  0  0  0
 13 31  1  0  0  0
 14 15  2  0  0  0
 14104  1  0  0  0
 15105  1  0  0  0
 16 17  2  0  0  0
 16 21  1  0  0  0
 16 31  1  0  0  0
 17 18  1  0  0  0
 17106  1  0  0  0
 18 19  2  0  0  0
 18107  1  0  0  0
 19 20  1  0  0  0
 19 24  1  0  0  0
 20 21  2  0  0  0
 20108  1  0  0  0
 21 23  1  0  0  0
 22 28  1  0  0  0
 22 32  2  0  0  0
 26 27  1  0  0  0
 28109  1  0  0  0
 28110  1  0  0  0
 29111  1  0  0  0
 29112  1  0  0  0
 33 34  1  0  0  0
 33 66  1  0  0  0
 33 70  2  0  0  0
 34 36  1  0  0  0
 34 59  1  0  0  0
 34113  1  0  0  0
 35 44  2  0  0  0
 35 45  1  0  0  0
 35 68  1  0  0  0
 36 56  1  0  0  0
 36114  1  0  0  0
 37 39  1  0  0  0
 37 47  1  0  0  0
 37 66  1  0  0  0
 37115  1  0  0  0
 38 43  2  0  0  0
 38 46  1  0  0  0
 38 47  1  0  0  0
 39 64  1  0  0  0
 39 67  2  0  0  0
 40 52  1  0  0  0
 40 53  2  0  0  0
 40 58  1  0  0  0
 41116  1  0  0  0
 41117  1  0  0  0
 41118  1  0  0  0
 41 48  1  0  0  0
 42 43  1  0  0  0
 42 66  1  0  0  0
 42119  1  0  0  0
 42120  1  0  0  0
 43 44  1  0  0  0
 44121  1  0  0  0
 45 46  2  0  0  0
 45122  1  0  0  0
 46123  1  0  0  0
 47124  1  0  0  0
 47125  1  0  0  0
 48 56  1  0  0  0
 48 65  1  0  0  0
 48126  1  0  0  0
 49 50  1  0  0  0
 49 53  1  0  0  0
 49 64  1  0  0  0
 49127  1  0  0  0
 50 51  1  0  0  0
 50128  1  0  0  0
 50129  1  0  0  0
 51 52  1  0  0  0
 51130  1  0  0  0
 51131  1  0  0  0
 52132  1  0  0  0
 52133  1  0  0  0
 53 54  1  0  0  0
 54 55  2  0  0  0
 54134  1  0  0  0
 55 57  1  0  0  0
 55135  1  0  0  0
 56 69  2  0  0  0
 57 58  2  0  0  0
 57136  1  0  0  0
 58137  1  0  0  0
 59 60  1  0  0  0
 59 61  1  0  0  0
 59 62  1  0  0  0
 60138  1  0  0  0
 60139  1  0  0  0
 60140  1  0  0  0
 61141  1  0  0  0
 61142  1  0  0  0
 61143  1  0  0  0
 62144  1  0  0  0
 62145  1  0  0  0
 62146  1  0  0  0
 63 65  1  0  0  0
 63147  1  0  0  0
 63148  1  0  0  0
 63149  1  0  0  0
 64150  1  0  0  0
 65151  1  0  0  0
 68 85  1  0  0  0
 71 72  2  0  0  0
 71 73  1  0  0  0
 71152  1  0  0  0
 72 82  1  0  0  0
 72 90  1  0  0  0
 73 89  1  0  0  0
 73 91  2  0  0  0
 74 86  1  0  0  0
 74 90  2  0  0  0
 74 91  1  0  0  0
 75153  1  0  0  0
 75154  1  0  0  0
 75155  1  0  0  0
 75 86  1  0  0  0
 76156  1  0  0  0
 76157  1  0  0  0
 76158  1  0  0  0
 76 87  1  0  0  0
 77 87  1  0  0  0
 77159  1  0  0  0
 77160  1  0  0  0
 77161  1  0  0  0
 78162  1  0  0  0
 78163  1  0  0  0
 78164  1  0  0  0
 78 88  1  0  0  0
 79165  1  0  0  0
 79166  1  0  0  0
 79167  1  0  0  0
 79 89  1  0  0  0
 80 89  1  0  0  0
 80168  1  0  0  0
 80169  1  0  0  0
 80170  1  0  0  0
 81 92  1  0  0  0
 81171  1  0  0  0
 81172  1  0  0  0
 81173  1  0  0  0
 82 83  1  0  0  0
 82174  1  0  0  0
 82175  1  0  0  0
 83 84  1  0  0  0
 83176  1  0  0  0
 83177  1  0  0  0
 84 85  1  0  0  0
 84178  1  0  0  0
 84179  1  0  0  0
 85180  1  0  0  0
 85181  1  0  0  0
 86 92  1  0  0  0
 86182  1  0  0  0
 87 88  1  0  0  0
 87183  1  0  0  0
 88 89  1  0  0  0
 88184  1  0  0  0
M  ISO  4   1 100  68 101  85 101  92 100
M  END
> <chiral flag>
0

> <version>
0

> <s_m_source_file>
/data/baiqing/PycharmProjects/Reinvent-master-3.2/result/LINK_invent/BTK/process_docking_weight1_custom_sum_contain_oxygen_bond_distance_aromatic_linkinvent_7_9_3/rearranged_h_0066.sdf

> <i_m_source_file_index>
14

> <r_mmod_Potential_Energy-OPLS-2005>
-342.220397949219

> <r_mmod_Stretch_Energy-OPLS-2005>
63.4522552490234

> <r_mmod_Bend_Energy-OPLS-2005>
154.455200195312

> <r_mmod_Torsional_Energy-OPLS-2005>
284.561706542969

> <r_mmod_Improper_Torsional_Energy-OPLS-2005>
7.3681378364563

> <r_mmod_Van_der_Waal_Energy-OPLS-2005>
157.812774658203

> <r_mmod_Electrostatic_Energy-OPLS-2005>
-836.967712402344

> <r_mmod_Solvation_Energy-OPLS-2005>
-196.750579833984

> <b_mmod_Minimization_Converged-OPLS-2005>
0

> <r_mmod_RMS_Derivative-OPLS-2005>
2.80424523353577

$$$$
15
                    3D
 Structure written by MMmdl.
176184  0  0  1  0            999 V2000
  -30.6675  -14.6447   20.5045 C   0  0  0  0  0  0
  -30.4306  -12.4239   19.4120 C   0  0  0  0  0  0
  -29.4888  -12.5344   18.1938 C   0  0  0  0  0  0
  -28.0132  -12.3680   18.6106 C   0  0  0  0  0  0
  -27.6488  -13.2064   19.8655 C   0  0  2  0  0  0
  -28.7077  -13.0282   20.9705 C   0  0  0  0  0  0
  -25.2547  -13.8128   20.5675 C   0  0  0  0  0  0
  -24.1828  -13.0418   20.9220 C   0  0  0  0  0  0
  -24.6401  -11.6888   20.8782 C   0  0  0  0  0  0
  -23.9058  -10.4291   21.0427 C   0  0  0  0  0  0
  -24.3616   -9.4208   21.9195 C   0  0  0  0  0  0
  -23.6304   -8.2238   22.0750 C   0  0  0  0  0  0
  -22.4279   -8.0292   21.3540 C   0  0  0  0  0  0
  -21.9910   -9.0263   20.4640 C   0  0  0  0  0  0
  -22.7232  -10.2149   20.3065 C   0  0  0  0  0  0
  -21.6871   -6.0741   22.5279 C   0  0  0  0  0  0
  -21.4023   -6.5632   23.8222 C   0  0  0  0  0  0
  -21.3666   -5.6786   24.9176 C   0  0  0  0  0  0
  -21.6050   -4.3044   24.7232 C   0  0  0  0  0  0
  -21.8819   -3.8146   23.4344 C   0  0  0  0  0  0
  -21.9197   -4.6959   22.3410 C   0  0  0  0  0  0
  -22.7850  -13.5215   21.1878 C   0  0  0  0  0  0
  -22.1654   -4.2147   21.0981 F   0  0  0  0  0  0
  -21.5637   -3.4532   25.7738 F   0  0  0  0  0  0
  -29.9984  -13.4429   20.3946 N   0  0  0  0  0  0
  -26.2983  -12.9291   20.3370 N   0  0  0  0  0  0
  -25.9327  -11.6458   20.5803 N   0  0  0  0  0  0
  -22.0466  -12.8249   22.0437 N   0  0  0  0  0  0
  -25.4177  -15.1856   20.3977 N   0  0  0  0  0  0
  -31.8440  -14.7121   20.1381 O   0  0  0  0  0  0
  -21.6646   -6.8887   21.4249 O   0  0  0  0  0  0
  -22.3545  -14.5522   20.6707 O   0  0  0  0  0  0
  -24.6207  -31.8619   23.2042 C   0  0  0  0  0  0
  -25.9067  -32.4795   23.8367 C   0  0  1  0  0  0
  -27.2320  -27.3571   20.1179 C   0  0  0  0  0  0
  -25.5901  -33.8596   24.2299 N   0  0  0  0  0  0
  -23.4118  -30.4835   21.5468 C   0  0  2  0  0  0
  -24.8575  -28.9319   20.1237 C   0  0  0  0  0  0
  -22.7443  -29.4643   22.4983 C   0  0  0  0  0  0
  -18.0282  -28.1398   22.8489 C   0  0  0  0  0  0
  -24.1481  -36.7317   23.2634 C   0  0  0  0  0  0
  -25.9456  -30.8021   21.3677 C   0  0  0  0  0  0
  -26.0209  -29.4243   20.7291 C   0  0  0  0  0  0
  -27.2101  -28.6454   20.7216 C   0  0  0  0  0  0
  -26.0542  -26.9077   19.4852 C   0  0  0  0  0  0
  -24.8731  -27.6750   19.4973 C   0  0  0  0  0  0
  -23.6224  -29.8071   20.1656 C   0  0  0  0  0  0
  -25.4102  -36.3090   24.0324 C   0  0  1  0  0  0
  -20.5879  -28.3694   23.1311 C   0  0  2  0  0  0
  -20.6775  -26.9423   22.5426 C   0  0  0  0  0  0
  -19.5749  -26.6394   21.5226 C   0  0  0  0  0  0
  -18.1928  -26.7948   22.1624 C   0  0  0  0  0  0
  -19.1534  -28.8860   23.2903 C   0  0  0  0  0  0
  -18.9451  -30.1469   23.8907 C   0  0  0  0  0  0
  -17.6449  -30.6592   24.0571 C   0  0  0  0  0  0
  -25.9029  -34.9459   23.5107 C   0  0  0  0  0  0
  -16.5342  -29.9092   23.6322 C   0  0  0  0  0  0
  -16.7274  -28.6517   23.0333 C   0  0  0  0  0  0
  -26.4481  -31.6585   25.0713 C   0  0  0  0  0  0
  -25.3735  -31.3695   26.1451 C   0  0  0  0  0  0
  -27.0324  -30.3017   24.6130 C   0  0  0  0  0  0
  -27.6055  -32.4310   25.7480 C   0  0  0  0  0  0
  -27.5578  -37.1808   24.8457 C   0  0  0  0  0  0
  -21.4171  -29.3050   22.3704 N   0  0  0  0  0  0
  -26.4281  -37.3779   23.9409 N   0  0  0  0  0  0
  -24.6778  -31.0667   22.0967 N   0  0  0  0  0  0
  -23.4182  -28.8169   23.3040 O   0  0  0  0  0  0
  -28.4072  -26.6168   19.9969 O   0  0  0  0  0  0
  -26.5607  -34.8917   22.4679 O   0  0  0  0  0  0
  -23.5383  -32.1395   23.7398 O   0  0  0  0  0  0
  -28.2206  -20.3597   18.5544 C   0  0  0  0  0  0
  -29.6329  -18.2995   19.6895 C   0  0  0  0  0  0
  -28.9212  -18.1431   18.4584 C   0  0  0  0  0  0
  -28.9624  -20.5734   19.7335 C   0  0  0  0  0  0
  -30.5904  -25.1434   18.9953 C   0  0  0  0  0  0
  -28.4501  -24.0729   18.4026 C   0  0  0  0  0  0
  -29.5242  -25.7810   21.8276 C   0  0  0  0  0  0
  -27.3918  -24.6405   21.2204 C   0  0  0  0  0  0
  -31.0041  -22.2846   18.9990 C   0  0  0  0  0  0
  -30.7643  -22.8898   21.3777 C   0  0  0  0  0  0
  -28.9840  -15.9919   21.7691 C   0  0  0  0  0  0
  -30.5366  -17.1712   20.2932 C   0  0  0  0  0  0
  -28.9068  -16.8538   17.6249 C   0  0  0  0  0  0
  -29.4136  -24.3143   19.5917 C   0  0  0  0  0  0
  -28.6570  -25.3071   20.6356 C   0  0  0  0  0  0
  -29.9877  -22.8459   20.0504 C   0  0  0  0  0  0
  -28.1911  -19.1634   17.9295 N   0  0  0  0  0  0
  -29.6478  -19.5319   20.3195 N   0  0  0  0  0  0
  -29.9612  -15.8280   20.6875 N   0  0  0  0  0  0
  -28.9542  -21.8427   20.3277 O   0  0  0  0  0  0
  -27.8987  -16.0863   18.0316 F   0  0  0  0  0  0
  -28.7192  -17.1360   16.3323 F   0  0  0  0  0  0
  -30.0397  -16.1592   17.7112 F   0  0  0  0  0  0
  -31.4648  -12.5609   19.0891 H   0  0  0  0  0  0
  -30.3868  -11.4204   19.8368 H   0  0  0  0  0  0
  -29.7473  -11.7908   17.4392 H   0  0  0  0  0  0
  -29.6245  -13.5064   17.7163 H   0  0  0  0  0  0
  -27.8413  -11.3081   18.8038 H   0  0  0  0  0  0
  -27.3548  -12.6331   17.7816 H   0  0  0  0  0  0
  -27.6694  -14.2492   19.5633 H   0  0  0  0  0  0
  -28.7573  -11.9826   21.2767 H   0  0  0  0  0  0
  -28.4339  -13.5518   21.8798 H   0  0  0  0  0  0
  -25.2769   -9.5688   22.4752 H   0  0  0  0  0  0
  -24.0029   -7.4626   22.7453 H   0  0  0  0  0  0
  -21.0848   -8.8788   19.8940 H   0  0  0  0  0  0
  -22.3703  -10.9694   19.6172 H   0  0  0  0  0  0
  -21.2005   -7.6141   23.9728 H   0  0  0  0  0  0
  -21.1489   -6.0506   25.9084 H   0  0  0  0  0  0
  -22.0588   -2.7607   23.2852 H   0  0  0  0  0  0
  -22.4063  -11.9930   22.4883 H   0  0  0  0  0  0
  -21.1060  -13.1266   22.2562 H   0  0  0  0  0  0
  -24.6352  -15.8246   20.4865 H   0  0  0  0  0  0
  -26.2533  -15.6291   20.0416 H   0  0  0  0  0  0
  -26.7143  -32.5485   23.1133 H   0  0  0  0  0  0
  -25.0032  -33.9763   25.0431 H   0  0  0  0  0  0
  -22.7057  -31.3036   21.4013 H   0  0  0  0  0  0
  -23.3726  -35.9669   23.3293 H   0  0  0  0  0  0
  -24.3559  -36.8937   22.2046 H   0  0  0  0  0  0
  -23.7254  -37.6524   23.6667 H   0  0  0  0  0  0
  -26.0602  -31.5542   20.5861 H   0  0  0  0  0  0
  -26.8341  -30.8679   21.9834 H   0  0  0  0  0  0
  -28.1137  -29.0284   21.1736 H   0  0  0  0  0  0
  -26.0522  -25.9678   18.9543 H   0  0  0  0  0  0
  -23.9866  -27.3020   19.0030 H   0  0  0  0  0  0
  -23.7357  -30.5746   19.3997 H   0  0  0  0  0  0
  -22.7441  -29.2289   19.8713 H   0  0  0  0  0  0
  -25.1284  -36.1933   25.0815 H   0  0  0  0  0  0
  -20.9995  -28.3280   24.1422 H   0  0  0  0  0  0
  -20.5692  -26.2308   23.3626 H   0  0  0  0  0  0
  -21.6642  -26.7460   22.1204 H   0  0  0  0  0  0
  -19.6903  -25.6305   21.1251 H   0  0  0  0  0  0
  -19.6687  -27.3215   20.6764 H   0  0  0  0  0  0
  -17.4206  -26.6718   21.4017 H   0  0  0  0  0  0
  -18.0308  -26.0095   22.9018 H   0  0  0  0  0  0
  -19.7921  -30.7297   24.2275 H   0  0  0  0  0  0
  -17.4985  -31.6262   24.5193 H   0  0  0  0  0  0
  -15.5340  -30.2981   23.7634 H   0  0  0  0  0  0
  -15.8683  -28.0831   22.7027 H   0  0  0  0  0  0
  -24.5920  -30.7039   25.7770 H   0  0  0  0  0  0
  -24.8919  -32.2845   26.4910 H   0  0  0  0  0  0
  -25.8069  -30.8846   27.0206 H   0  0  0  0  0  0
  -26.2882  -29.6774   24.1170 H   0  0  0  0  0  0
  -27.4050  -29.7267   25.4618 H   0  0  0  0  0  0
  -27.8740  -30.4324   23.9324 H   0  0  0  0  0  0
  -27.2681  -33.3599   26.2102 H   0  0  0  0  0  0
  -28.3847  -32.6882   25.0291 H   0  0  0  0  0  0
  -28.0757  -31.8405   26.5356 H   0  0  0  0  0  0
  -28.2588  -38.0111   24.7488 H   0  0  0  0  0  0
  -28.1082  -36.2636   24.6295 H   0  0  0  0  0  0
  -27.2308  -37.1472   25.8864 H   0  0  0  0  0  0
  -20.9355  -29.8739   21.6882 H   0  0  0  0  0  0
  -26.0162  -38.2852   24.1406 H   0  0  0  0  0  0
  -27.6542  -21.1601   18.1019 H   0  0  0  0  0  0
  -30.9659  -24.7191   18.0659 H   0  0  0  0  0  0
  -30.3091  -26.1595   18.7281 H   0  0  0  0  0  0
  -31.4342  -25.2143   19.6790 H   0  0  0  0  0  0
  -28.0107  -25.0047   18.0485 H   0  0  0  0  0  0
  -27.6313  -23.4036   18.6642 H   0  0  0  0  0  0
  -28.9591  -23.6391   17.5427 H   0  0  0  0  0  0
  -29.0508  -26.6252   22.3296 H   0  0  0  0  0  0
  -30.5158  -26.1173   21.5255 H   0  0  0  0  0  0
  -29.6453  -25.0289   22.6008 H   0  0  0  0  0  0
  -26.6597  -24.3854   20.4576 H   0  0  0  0  0  0
  -26.9007  -25.2795   21.9556 H   0  0  0  0  0  0
  -27.6469  -23.7105   21.7274 H   0  0  0  0  0  0
  -31.8880  -22.9141   18.8930 H   0  0  0  0  0  0
  -30.5619  -22.1589   18.0105 H   0  0  0  0  0  0
  -31.4144  -21.3178   19.2918 H   0  0  0  0  0  0
  -31.4851  -23.7059   21.4034 H   0  0  0  0  0  0
  -31.3164  -21.9635   21.5450 H   0  0  0  0  0  0
  -30.0940  -22.9854   22.2284 H   0  0  0  0  0  0
  -27.9850  -15.7053   21.4468 H   0  0  0  0  0  0
  -28.9139  -17.0221   22.1198 H   0  0  0  0  0  0
  -29.2635  -15.3970   22.6401 H   0  0  0  0  0  0
  -31.0261  -17.5809   21.1782 H   0  0  0  0  0  0
  -31.3511  -17.0490   19.5782 H   0  0  0  0  0  0
  1 25  1  0  0  0
  1 30  2  0  0  0
  1 89  1  0  0  0
  2  3  1  0  0  0
  2 25  1  0  0  0
  2 94  1  0  0  0
  2 95  1  0  0  0
  3  4  1  0  0  0
  3 96  1  0  0  0
  3 97  1  0  0  0
  4  5  1  0  0  0
  4 98  1  0  0  0
  4 99  1  0  0  0
  5  6  1  0  0  0
  5 26  1  0  0  0
  5100  1  0  0  0
  6 25  1  0  0  0
  6101  1  0  0  0
  6102  1  0  0  0
  7  8  2  0  0  0
  7 26  1  0  0  0
  7 29  1  0  0  0
  8  9  1  0  0  0
  8 22  1  0  0  0
  9 10  1  0  0  0
  9 27  2  0  0  0
 10 11  2  0  0  0
 10 15  1  0  0  0
 11 12  1  0  0  0
 11103  1  0  0  0
 12 13  2  0  0  0
 12104  1  0  0  0
 13 14  1  0  0  0
 13 31  1  0  0  0
 14 15  2  0  0  0
 14105  1  0  0  0
 15106  1  0  0  0
 16 17  2  0  0  0
 16 21  1  0  0  0
 16 31  1  0  0  0
 17 18  1  0  0  0
 17107  1  0  0  0
 18 19  2  0  0  0
 18108  1  0  0  0
 19 20  1  0  0  0
 19 24  1  0  0  0
 20 21  2  0  0  0
 20109  1  0  0  0
 21 23  1  0  0  0
 22 28  1  0  0  0
 22 32  2  0  0  0
 26 27  1  0  0  0
 28110  1  0  0  0
 28111  1  0  0  0
 29112  1  0  0  0
 29113  1  0  0  0
 33 34  1  0  0  0
 33 66  1  0  0  0
 33 70  2  0  0  0
 34 36  1  0  0  0
 34 59  1  0  0  0
 34114  1  0  0  0
 35 44  2  0  0  0
 35 45  1  0  0  0
 35 68  1  0  0  0
 36 56  1  0  0  0
 36115  1  0  0  0
 37 39  1  0  0  0
 37 47  1  0  0  0
 37 66  1  0  0  0
 37116  1  0  0  0
 38 43  2  0  0  0
 38 46  1  0  0  0
 38 47  1  0  0  0
 39 64  1  0  0  0
 39 67  2  0  0  0
 40 52  1  0  0  0
 40 53  2  0  0  0
 40 58  1  0  0  0
 41117  1  0  0  0
 41118  1  0  0  0
 41119  1  0  0  0
 41 48  1  0  0  0
 42 43  1  0  0  0
 42 66  1  0  0  0
 42120  1  0  0  0
 42121  1  0  0  0
 43 44  1  0  0  0
 44122  1  0  0  0
 45 46  2  0  0  0
 45123  1  0  0  0
 46124  1  0  0  0
 47125  1  0  0  0
 47126  1  0  0  0
 48 56  1  0  0  0
 48 65  1  0  0  0
 48127  1  0  0  0
 49 50  1  0  0  0
 49 53  1  0  0  0
 49 64  1  0  0  0
 49128  1  0  0  0
 50 51  1  0  0  0
 50129  1  0  0  0
 50130  1  0  0  0
 51 52  1  0  0  0
 51131  1  0  0  0
 51132  1  0  0  0
 52133  1  0  0  0
 52134  1  0  0  0
 53 54  1  0  0  0
 54 55  2  0  0  0
 54135  1  0  0  0
 55 57  1  0  0  0
 55136  1  0  0  0
 56 69  2  0  0  0
 57 58  2  0  0  0
 57137  1  0  0  0
 58138  1  0  0  0
 59 60  1  0  0  0
 59 61  1  0  0  0
 59 62  1  0  0  0
 60139  1  0  0  0
 60140  1  0  0  0
 60141  1  0  0  0
 61142  1  0  0  0
 61143  1  0  0  0
 61144  1  0  0  0
 62145  1  0  0  0
 62146  1  0  0  0
 62147  1  0  0  0
 63 65  1  0  0  0
 63148  1  0  0  0
 63149  1  0  0  0
 63150  1  0  0  0
 64151  1  0  0  0
 65152  1  0  0  0
 68 85  1  0  0  0
 71 74  2  0  0  0
 71 87  1  0  0  0
 71153  1  0  0  0
 72 73  1  0  0  0
 72 82  1  0  0  0
 72 88  2  0  0  0
 73 83  1  0  0  0
 73 87  2  0  0  0
 74 88  1  0  0  0
 74 90  1  0  0  0
 75154  1  0  0  0
 75155  1  0  0  0
 75156  1  0  0  0
 75 84  1  0  0  0
 76 84  1  0  0  0
 76157  1  0  0  0
 76158  1  0  0  0
 76159  1  0  0  0
 77160  1  0  0  0
 77161  1  0  0  0
 77162  1  0  0  0
 77 85  1  0  0  0
 78 85  1  0  0  0
 78163  1  0  0  0
 78164  1  0  0  0
 78165  1  0  0  0
 79166  1  0  0  0
 79167  1  0  0  0
 79168  1  0  0  0
 79 86  1  0  0  0
 80 86  1  0  0  0
 80169  1  0  0  0
 80170  1  0  0  0
 80171  1  0  0  0
 81 89  1  0  0  0
 81172  1  0  0  0
 81173  1  0  0  0
 81174  1  0  0  0
 82 89  1  0  0  0
 82175  1  0  0  0
 82176  1  0  0  0
 83 91  1  0  0  0
 83 92  1  0  0  0
 83 93  1  0  0  0
 84 85  1  0  0  0
 84 86  1  0  0  0
 86 90  1  0  0  0
M  ISO  4   1 100  68 101  85 101  89 100
M  END
> <chiral flag>
0

> <version>
0

> <s_m_source_file>
/data/baiqing/PycharmProjects/Reinvent-master-3.2/result/LINK_invent/BTK/process_docking_weight1_custom_sum_contain_oxygen_bond_distance_aromatic_linkinvent_7_9_3/rearranged_h_0066.sdf

> <i_m_source_file_index>
15

> <r_mmod_Potential_Energy-OPLS-2005>
439.573577880859

> <r_mmod_Stretch_Energy-OPLS-2005>
106.168151855469

> <r_mmod_Bend_Energy-OPLS-2005>
199.310516357422

> <r_mmod_Torsional_Energy-OPLS-2005>
335.21142578125

> <r_mmod_Improper_Torsional_Energy-OPLS-2005>
11.992377281189

> <r_mmod_Van_der_Waal_Energy-OPLS-2005>
175.586685180664

> <r_mmod_Electrostatic_Energy-OPLS-2005>
-246.320877075195

> <r_mmod_Solvation_Energy-OPLS-2005>
-178.452331542969

> <b_mmod_Minimization_Converged-OPLS-2005>
0

> <r_mmod_RMS_Derivative-OPLS-2005>
2.95899677276611

$$$$
16
                    3D
 Structure written by MMmdl.
181189  0  0  1  0            999 V2000
  -30.7857  -14.5588   20.4054 C   0  0  0  0  0  0
  -30.3901  -12.3305   19.4557 C   0  0  0  0  0  0
  -29.4756  -12.3915   18.2186 C   0  0  0  0  0  0
  -28.0009  -12.3001   18.6418 C   0  0  0  0  0  0
  -27.6303  -13.2292   19.8314 C   0  0  2  0  0  0
  -28.6880  -13.2041   20.9519 C   0  0  0  0  0  0
  -25.2516  -13.8207   20.5755 C   0  0  0  0  0  0
  -24.1783  -13.0453   20.9225 C   0  0  0  0  0  0
  -24.6364  -11.6935   20.8804 C   0  0  0  0  0  0
  -23.9051  -10.4296   21.0449 C   0  0  0  0  0  0
  -24.3605   -9.4195   21.9214 C   0  0  0  0  0  0
  -23.6279   -8.2227   22.0774 C   0  0  0  0  0  0
  -22.4266   -8.0276   21.3554 C   0  0  0  0  0  0
  -21.9901   -9.0256   20.4662 C   0  0  0  0  0  0
  -22.7232  -10.2137   20.3081 C   0  0  0  0  0  0
  -21.6848   -6.0746   22.5276 C   0  0  0  0  0  0
  -21.4019   -6.5650   23.8212 C   0  0  0  0  0  0
  -21.3654   -5.6798   24.9172 C   0  0  0  0  0  0
  -21.6031   -4.3059   24.7217 C   0  0  0  0  0  0
  -21.8826   -3.8155   23.4338 C   0  0  0  0  0  0
  -21.9191   -4.6979   22.3397 C   0  0  0  0  0  0
  -22.7813  -13.5267   21.1859 C   0  0  0  0  0  0
  -22.1665   -4.2167   21.0980 F   0  0  0  0  0  0
  -21.5599   -3.4539   25.7723 F   0  0  0  0  0  0
  -30.0025  -13.4395   20.3474 N   0  0  0  0  0  0
  -26.2915  -12.9402   20.3330 N   0  0  0  0  0  0
  -25.9296  -11.6556   20.5839 N   0  0  0  0  0  0
  -22.0435  -12.8276   22.0416 N   0  0  0  0  0  0
  -25.4266  -15.1906   20.4214 N   0  0  0  0  0  0
  -32.0030  -14.3951   20.4154 O   0  0  0  0  0  0
  -21.6636   -6.8875   21.4233 O   0  0  0  0  0  0
  -22.3523  -14.5572   20.6696 O   0  0  0  0  0  0
  -24.6145  -31.8668   23.2095 C   0  0  0  0  0  0
  -25.9029  -32.4825   23.8403 C   0  0  1  0  0  0
  -27.2272  -27.4221   20.1158 C   0  0  0  0  0  0
  -25.5887  -33.8626   24.2340 N   0  0  0  0  0  0
  -23.4043  -30.4895   21.5492 C   0  0  2  0  0  0
  -24.8524  -28.9487   20.1209 C   0  0  0  0  0  0
  -22.7410  -29.4661   22.4981 C   0  0  0  0  0  0
  -18.0281  -28.1377   22.8487 C   0  0  0  0  0  0
  -24.1479  -36.7328   23.2639 C   0  0  0  0  0  0
  -25.9329  -30.8291   21.3646 C   0  0  0  0  0  0
  -26.0106  -29.4590   20.7219 C   0  0  0  0  0  0
  -27.2049  -28.7005   20.7201 C   0  0  0  0  0  0
  -26.0600  -26.9282   19.5024 C   0  0  0  0  0  0
  -24.8718  -27.6828   19.5078 C   0  0  0  0  0  0
  -23.6158  -29.8168   20.1664 C   0  0  0  0  0  0
  -25.4103  -36.3126   24.0340 C   0  0  1  0  0  0
  -20.5867  -28.3675   23.1311 C   0  0  2  0  0  0
  -20.6777  -26.9420   22.5371 C   0  0  0  0  0  0
  -19.5737  -26.6398   21.5186 C   0  0  0  0  0  0
  -18.1927  -26.7919   22.1626 C   0  0  0  0  0  0
  -19.1524  -28.8837   23.2901 C   0  0  0  0  0  0
  -18.9444  -30.1437   23.8920 C   0  0  0  0  0  0
  -17.6443  -30.6568   24.0585 C   0  0  0  0  0  0
  -25.9029  -34.9484   23.5144 C   0  0  0  0  0  0
  -16.5340  -29.9083   23.6322 C   0  0  0  0  0  0
  -16.7270  -28.6511   23.0325 C   0  0  0  0  0  0
  -26.4464  -31.6598   25.0731 C   0  0  0  0  0  0
  -25.3745  -31.3681   26.1489 C   0  0  0  0  0  0
  -27.0290  -30.3043   24.6095 C   0  0  0  0  0  0
  -27.6052  -32.4310   25.7486 C   0  0  0  0  0  0
  -27.5579  -37.1816   24.8469 C   0  0  0  0  0  0
  -21.4133  -29.3071   22.3736 N   0  0  0  0  0  0
  -26.4293  -37.3808   23.9408 N   0  0  0  0  0  0
  -24.6688  -31.0762   22.1004 N   0  0  0  0  0  0
  -23.4172  -28.8179   23.3003 O   0  0  0  0  0  0
  -28.3730  -26.6641   20.0633 O   0  0  0  0  0  0
  -26.5596  -34.8931   22.4709 O   0  0  0  0  0  0
  -23.5334  -32.1422   23.7484 O   0  0  0  0  0  0
  -28.7219  -18.7035   21.5196 C   0  0  0  0  0  0
  -29.3783  -16.8253   20.7381 C   0  0  0  0  0  0
  -29.9600  -15.8591   18.4111 C   0  0  0  0  0  0
  -31.6630  -16.8885   19.8692 C   0  0  0  0  0  0
  -27.7987  -21.9380   24.1586 C   0  0  0  0  0  0
  -25.9001  -22.7558   22.8116 C   0  0  0  0  0  0
  -28.0064  -20.4620   18.0563 C   0  0  0  0  0  0
  -27.9680  -18.1924   17.0475 C   0  0  0  0  0  0
  -26.5960  -18.6094   19.0857 C   0  0  0  0  0  0
  -28.7405  -20.2182   21.6844 C   0  0  0  0  0  0
  -27.3827  -20.9582   21.8548 C   0  0  0  0  0  0
  -27.8155  -24.4089   21.0926 C   0  0  0  0  0  0
  -28.2917  -23.4307   22.2100 C   0  0  0  0  0  0
  -28.5826  -25.7631   21.1606 C   0  0  0  0  0  0
  -30.3653  -16.0066   19.8891 C   0  0  0  0  0  0
  -27.3621  -22.2709   22.7134 C   0  0  0  0  0  0
  -27.9259  -18.9607   18.3781 C   0  0  0  0  0  0
  -28.6575  -17.8347   22.5378 N   0  0  0  0  0  0
  -29.1003  -16.6169   22.0343 N   0  0  0  0  0  0
  -29.0015  -18.0825   20.3508 N   0  0  0  0  0  0
  -29.1432  -18.6817   19.1038 O   0  0  0  0  0  0
  -31.4343  -12.3690   19.1435 H   0  0  0  0  0  0
  -30.2711  -11.3761   19.9732 H   0  0  0  0  0  0
  -29.7114  -11.5637   17.5485 H   0  0  0  0  0  0
  -29.6458  -13.2921   17.6364 H   0  0  0  0  0  0
  -27.8216  -11.2613   18.9221 H   0  0  0  0  0  0
  -27.3516  -12.4980   17.7880 H   0  0  0  0  0  0
  -27.6009  -14.2409   19.4345 H   0  0  0  0  0  0
  -28.4696  -13.9634   21.7029 H   0  0  0  0  0  0
  -28.6793  -12.2430   21.4686 H   0  0  0  0  0  0
  -25.2748   -9.5663   22.4801 H   0  0  0  0  0  0
  -23.9984   -7.4613   22.7489 H   0  0  0  0  0  0
  -21.0833   -8.8772   19.8971 H   0  0  0  0  0  0
  -22.3690  -10.9682   19.6195 H   0  0  0  0  0  0
  -21.2031   -7.6159   23.9724 H   0  0  0  0  0  0
  -21.1473   -6.0524   25.9073 H   0  0  0  0  0  0
  -22.0614   -2.7622   23.2829 H   0  0  0  0  0  0
  -22.4026  -11.9920   22.4782 H   0  0  0  0  0  0
  -21.1084  -13.1360   22.2668 H   0  0  0  0  0  0
  -24.6709  -15.8530   20.5528 H   0  0  0  0  0  0
  -26.3026  -15.6300   20.1785 H   0  0  0  0  0  0
  -26.7104  -32.5549   23.1169 H   0  0  0  0  0  0
  -25.0030  -33.9791   25.0481 H   0  0  0  0  0  0
  -22.6949  -31.3071   21.4045 H   0  0  0  0  0  0
  -23.3734  -35.9668   23.3321 H   0  0  0  0  0  0
  -24.3577  -36.8929   22.2051 H   0  0  0  0  0  0
  -23.7223  -37.6538   23.6639 H   0  0  0  0  0  0
  -26.0422  -31.5893   20.5910 H   0  0  0  0  0  0
  -26.8223  -30.8909   21.9797 H   0  0  0  0  0  0
  -28.1040  -29.0918   21.1765 H   0  0  0  0  0  0
  -26.0728  -25.9601   19.0219 H   0  0  0  0  0  0
  -23.9819  -27.2868   19.0384 H   0  0  0  0  0  0
  -23.7291  -30.5893   19.4047 H   0  0  0  0  0  0
  -22.7397  -29.2363   19.8715 H   0  0  0  0  0  0
  -25.1264  -36.2013   25.0831 H   0  0  0  0  0  0
  -20.9971  -28.3201   24.1424 H   0  0  0  0  0  0
  -20.5713  -26.2264   23.3535 H   0  0  0  0  0  0
  -21.6637  -26.7494   22.1115 H   0  0  0  0  0  0
  -19.6894  -25.6316   21.1182 H   0  0  0  0  0  0
  -19.6635  -27.3240   20.6730 H   0  0  0  0  0  0
  -17.4172  -26.6666   21.4055 H   0  0  0  0  0  0
  -18.0350  -26.0053   22.9022 H   0  0  0  0  0  0
  -19.7910  -30.7255   24.2300 H   0  0  0  0  0  0
  -17.4999  -31.6242   24.5203 H   0  0  0  0  0  0
  -15.5342  -30.2997   23.7627 H   0  0  0  0  0  0
  -15.8675  -28.0846   22.7007 H   0  0  0  0  0  0
  -24.5917  -30.7033   25.7817 H   0  0  0  0  0  0
  -24.8937  -32.2823   26.4980 H   0  0  0  0  0  0
  -25.8118  -30.8817   27.0219 H   0  0  0  0  0  0
  -26.2830  -29.6809   24.1153 H   0  0  0  0  0  0
  -27.4061  -29.7274   25.4547 H   0  0  0  0  0  0
  -27.8664  -30.4352   23.9240 H   0  0  0  0  0  0
  -27.2680  -33.3587   26.2114 H   0  0  0  0  0  0
  -28.3828  -32.6907   25.0294 H   0  0  0  0  0  0
  -28.0755  -31.8404   26.5352 H   0  0  0  0  0  0
  -28.2606  -38.0104   24.7518 H   0  0  0  0  0  0
  -28.1064  -36.2640   24.6291 H   0  0  0  0  0  0
  -27.2307  -37.1471   25.8876 H   0  0  0  0  0  0
  -20.9288  -29.8812   21.6985 H   0  0  0  0  0  0
  -26.0196  -38.2892   24.1414 H   0  0  0  0  0  0
  -30.0341  -16.7993   17.8766 H   0  0  0  0  0  0
  -28.9502  -15.4740   18.2961 H   0  0  0  0  0  0
  -30.6491  -15.1992   17.8838 H   0  0  0  0  0  0
  -32.4480  -16.4724   19.2363 H   0  0  0  0  0  0
  -32.0748  -17.0127   20.8719 H   0  0  0  0  0  0
  -31.4906  -17.8903   19.4802 H   0  0  0  0  0  0
  -27.2900  -21.0566   24.5500 H   0  0  0  0  0  0
  -27.5751  -22.7609   24.8389 H   0  0  0  0  0  0
  -28.8716  -21.7625   24.2359 H   0  0  0  0  0  0
  -25.2769  -22.0369   23.3439 H   0  0  0  0  0  0
  -25.4484  -22.8941   21.8290 H   0  0  0  0  0  0
  -25.8242  -23.7028   23.3488 H   0  0  0  0  0  0
  -27.0957  -20.8143   17.5710 H   0  0  0  0  0  0
  -28.1583  -21.0678   18.9460 H   0  0  0  0  0  0
  -28.8366  -20.6798   17.3819 H   0  0  0  0  0  0
  -27.1651  -18.5118   16.3816 H   0  0  0  0  0  0
  -27.8378  -17.1225   17.1945 H   0  0  0  0  0  0
  -28.9091  -18.3482   16.5189 H   0  0  0  0  0  0
  -25.7424  -18.8485   18.4508 H   0  0  0  0  0  0
  -26.4482  -19.1520   20.0136 H   0  0  0  0  0  0
  -26.5318  -17.5458   19.3098 H   0  0  0  0  0  0
  -29.2924  -20.6552   20.8532 H   0  0  0  0  0  0
  -29.3706  -20.4122   22.5488 H   0  0  0  0  0  0
  -26.6889  -20.2550   22.3181 H   0  0  0  0  0  0
  -26.9584  -21.1654   20.8743 H   0  0  0  0  0  0
  -26.7527  -24.6278   21.1853 H   0  0  0  0  0  0
  -27.9525  -23.9395   20.1174 H   0  0  0  0  0  0
  -28.5012  -24.0606   23.0766 H   0  0  0  0  0  0
  -29.2678  -23.0296   21.9351 H   0  0  0  0  0  0
  -29.6526  -25.5537   21.1893 H   0  0  0  0  0  0
  -28.3576  -26.2693   22.1012 H   0  0  0  0  0  0
  1 25  1  0  0  0
  1 30  2  0  0  0
  1 85  1  0  0  0
  2  3  1  0  0  0
  2 25  1  0  0  0
  2 92  1  0  0  0
  2 93  1  0  0  0
  3  4  1  0  0  0
  3 94  1  0  0  0
  3 95  1  0  0  0
  4  5  1  0  0  0
  4 96  1  0  0  0
  4 97  1  0  0  0
  5  6  1  0  0  0
  5 26  1  0  0  0
  5 98  1  0  0  0
  6 25  1  0  0  0
  6 99  1  0  0  0
  6100  1  0  0  0
  7  8  2  0  0  0
  7 26  1  0  0  0
  7 29  1  0  0  0
  8  9  1  0  0  0
  8 22  1  0  0  0
  9 10  1  0  0  0
  9 27  2  0  0  0
 10 11  2  0  0  0
 10 15  1  0  0  0
 11 12  1  0  0  0
 11101  1  0  0  0
 12 13  2  0  0  0
 12102  1  0  0  0
 13 14  1  0  0  0
 13 31  1  0  0  0
 14 15  2  0  0  0
 14103  1  0  0  0
 15104  1  0  0  0
 16 17  2  0  0  0
 16 21  1  0  0  0
 16 31  1  0  0  0
 17 18  1  0  0  0
 17105  1  0  0  0
 18 19  2  0  0  0
 18106  1  0  0  0
 19 20  1  0  0  0
 19 24  1  0  0  0
 20 21  2  0  0  0
 20107  1  0  0  0
 21 23  1  0  0  0
 22 28  1  0  0  0
 22 32  2  0  0  0
 26 27  1  0  0  0
 28108  1  0  0  0
 28109  1  0  0  0
 29110  1  0  0  0
 29111  1  0  0  0
 33 34  1  0  0  0
 33 66  1  0  0  0
 33 70  2  0  0  0
 34 36  1  0  0  0
 34 59  1  0  0  0
 34112  1  0  0  0
 35 44  2  0  0  0
 35 45  1  0  0  0
 35 68  1  0  0  0
 36 56  1  0  0  0
 36113  1  0  0  0
 37 39  1  0  0  0
 37 47  1  0  0  0
 37 66  1  0  0  0
 37114  1  0  0  0
 38 43  2  0  0  0
 38 46  1  0  0  0
 38 47  1  0  0  0
 39 64  1  0  0  0
 39 67  2  0  0  0
 40 52  1  0  0  0
 40 53  2  0  0  0
 40 58  1  0  0  0
 41115  1  0  0  0
 41116  1  0  0  0
 41117  1  0  0  0
 41 48  1  0  0  0
 42 43  1  0  0  0
 42 66  1  0  0  0
 42118  1  0  0  0
 42119  1  0  0  0
 43 44  1  0  0  0
 44120  1  0  0  0
 45 46  2  0  0  0
 45121  1  0  0  0
 46122  1  0  0  0
 47123  1  0  0  0
 47124  1  0  0  0
 48 56  1  0  0  0
 48 65  1  0  0  0
 48125  1  0  0  0
 49 50  1  0  0  0
 49 53  1  0  0  0
 49 64  1  0  0  0
 49126  1  0  0  0
 50 51  1  0  0  0
 50127  1  0  0  0
 50128  1  0  0  0
 51 52  1  0  0  0
 51129  1  0  0  0
 51130  1  0  0  0
 52131  1  0  0  0
 52132  1  0  0  0
 53 54  1  0  0  0
 54 55  2  0  0  0
 54133  1  0  0  0
 55 57  1  0  0  0
 55134  1  0  0  0
 56 69  2  0  0  0
 57 58  2  0  0  0
 57135  1  0  0  0
 58136  1  0  0  0
 59 60  1  0  0  0
 59 61  1  0  0  0
 59 62  1  0  0  0
 60137  1  0  0  0
 60138  1  0  0  0
 60139  1  0  0  0
 61140  1  0  0  0
 61141  1  0  0  0
 61142  1  0  0  0
 62143  1  0  0  0
 62144  1  0  0  0
 62145  1  0  0  0
 63 65  1  0  0  0
 63146  1  0  0  0
 63147  1  0  0  0
 63148  1  0  0  0
 64149  1  0  0  0
 65150  1  0  0  0
 68 84  1  0  0  0
 71 80  1  0  0  0
 71 88  2  0  0  0
 71 90  1  0  0  0
 72 85  1  0  0  0
 72 89  2  0  0  0
 72 90  1  0  0  0
 73151  1  0  0  0
 73152  1  0  0  0
 73153  1  0  0  0
 73 85  1  0  0  0
 74 85  1  0  0  0
 74154  1  0  0  0
 74155  1  0  0  0
 74156  1  0  0  0
 75157  1  0  0  0
 75158  1  0  0  0
 75159  1  0  0  0
 75 86  1  0  0  0
 76 86  1  0  0  0
 76160  1  0  0  0
 76161  1  0  0  0
 76162  1  0  0  0
 77163  1  0  0  0
 77164  1  0  0  0
 77165  1  0  0  0
 77 87  1  0  0  0
 78 87  1  0  0  0
 78166  1  0  0  0
 78167  1  0  0  0
 78168  1  0  0  0
 79 87  1  0  0  0
 79169  1  0  0  0
 79170  1  0  0  0
 79171  1  0  0  0
 80 81  1  0  0  0
 80172  1  0  0  0
 80173  1  0  0  0
 81 86  1  0  0  0
 81174  1  0  0  0
 81175  1  0  0  0
 82 83  1  0  0  0
 82 84  1  0  0  0
 82176  1  0  0  0
 82177  1  0  0  0
 83 86  1  0  0  0
 83178  1  0  0  0
 83179  1  0  0  0
 84180  1  0  0  0
 84181  1  0  0  0
 87 91  1  0  0  0
 88 89  1  0  0  0
 90 91  1  0  0  0
M  ISO  4   1 100  68 101  84 101  85 100
M  END
> <chiral flag>
0

> <version>
0

> <s_m_source_file>
/data/baiqing/PycharmProjects/Reinvent-master-3.2/result/LINK_invent/BTK/process_docking_weight1_custom_sum_contain_oxygen_bond_distance_aromatic_linkinvent_7_9_3/rearranged_h_0066.sdf

> <i_m_source_file_index>
16

> <r_mmod_Potential_Energy-OPLS-2005>
215.976531982422

> <r_mmod_Stretch_Energy-OPLS-2005>
55.5375442504883

> <r_mmod_Bend_Energy-OPLS-2005>
190.13623046875

> <r_mmod_Torsional_Energy-OPLS-2005>
293.900115966797

> <r_mmod_Improper_Torsional_Energy-OPLS-2005>
23.4772815704346

> <r_mmod_Van_der_Waal_Energy-OPLS-2005>
129.735443115234

> <r_mmod_Electrostatic_Energy-OPLS-2005>
-349.937072753906

> <r_mmod_Solvation_Energy-OPLS-2005>
-189.483306884766

> <b_mmod_Minimization_Converged-OPLS-2005>
0

> <r_mmod_RMS_Derivative-OPLS-2005>
2.31976342201233

$$$$
17
                    3D
 Structure written by MMmdl.
173181  0  0  1  0            999 V2000
  -30.7885  -14.6031   20.3960 C   0  0  0  0  0  0
  -30.4037  -12.3527   19.4664 C   0  0  0  0  0  0
  -29.4870  -12.3771   18.2287 C   0  0  0  0  0  0
  -28.0246  -12.1950   18.6686 C   0  0  0  0  0  0
  -27.6200  -13.1587   19.8062 C   0  0  2  0  0  0
  -28.6815  -13.2315   20.9370 C   0  0  0  0  0  0
  -25.2493  -13.7968   20.5678 C   0  0  0  0  0  0
  -24.1748  -13.0311   20.9241 C   0  0  0  0  0  0
  -24.6282  -11.6788   20.8825 C   0  0  0  0  0  0
  -23.8967  -10.4211   21.0489 C   0  0  0  0  0  0
  -24.3552   -9.4136   21.9248 C   0  0  0  0  0  0
  -23.6239   -8.2169   22.0784 C   0  0  0  0  0  0
  -22.4231   -8.0218   21.3552 C   0  0  0  0  0  0
  -21.9850   -9.0191   20.4667 C   0  0  0  0  0  0
  -22.7169  -10.2070   20.3103 C   0  0  0  0  0  0
  -21.6814   -6.0689   22.5281 C   0  0  0  0  0  0
  -21.3973   -6.5613   23.8208 C   0  0  0  0  0  0
  -21.3659   -5.6784   24.9187 C   0  0  0  0  0  0
  -21.6058   -4.3044   24.7249 C   0  0  0  0  0  0
  -21.8815   -3.8118   23.4376 C   0  0  0  0  0  0
  -21.9181   -4.6921   22.3420 C   0  0  0  0  0  0
  -22.7803  -13.5183   21.1898 C   0  0  0  0  0  0
  -22.1655   -4.2114   21.0993 F   0  0  0  0  0  0
  -21.5652   -3.4530   25.7764 F   0  0  0  0  0  0
  -30.0055  -13.4754   20.3466 N   0  0  0  0  0  0
  -26.2824  -12.9038   20.3195 N   0  0  0  0  0  0
  -25.9176  -11.6277   20.5818 N   0  0  0  0  0  0
  -22.0430  -12.8179   22.0447 N   0  0  0  0  0  0
  -25.4117  -15.1661   20.4071 N   0  0  0  0  0  0
  -32.0005  -14.4442   20.2603 O   0  0  0  0  0  0
  -21.6600   -6.8816   21.4238 O   0  0  0  0  0  0
  -22.3516  -14.5512   20.6764 O   0  0  0  0  0  0
  -24.6150  -31.8656   23.2089 C   0  0  0  0  0  0
  -25.9034  -32.4824   23.8390 C   0  0  1  0  0  0
  -27.2265  -27.4214   20.1210 C   0  0  0  0  0  0
  -25.5903  -33.8625   24.2321 N   0  0  0  0  0  0
  -23.4050  -30.4878   21.5478 C   0  0  2  0  0  0
  -24.8522  -28.9513   20.1138 C   0  0  0  0  0  0
  -22.7418  -29.4636   22.4967 C   0  0  0  0  0  0
  -18.0269  -28.1380   22.8490 C   0  0  0  0  0  0
  -24.1482  -36.7308   23.2637 C   0  0  0  0  0  0
  -25.9330  -30.8293   21.3634 C   0  0  0  0  0  0
  -26.0094  -29.4606   20.7172 C   0  0  0  0  0  0
  -27.2024  -28.7016   20.7189 C   0  0  0  0  0  0
  -26.0594  -26.9245   19.5086 C   0  0  0  0  0  0
  -24.8722  -27.6830   19.5045 C   0  0  0  0  0  0
  -23.6143  -29.8193   20.1611 C   0  0  0  0  0  0
  -25.4112  -36.3113   24.0327 C   0  0  1  0  0  0
  -20.5868  -28.3656   23.1310 C   0  0  2  0  0  0
  -20.6781  -26.9398   22.5411 C   0  0  0  0  0  0
  -19.5753  -26.6378   21.5218 C   0  0  0  0  0  0
  -18.1922  -26.7929   22.1614 C   0  0  0  0  0  0
  -19.1521  -28.8834   23.2902 C   0  0  0  0  0  0
  -18.9456  -30.1449   23.8900 C   0  0  0  0  0  0
  -17.6460  -30.6594   24.0568 C   0  0  0  0  0  0
  -25.9035  -34.9481   23.5119 C   0  0  0  0  0  0
  -16.5346  -29.9090   23.6349 C   0  0  0  0  0  0
  -16.7258  -28.6511   23.0356 C   0  0  0  0  0  0
  -26.4478  -31.6608   25.0722 C   0  0  0  0  0  0
  -25.3767  -31.3689   26.1485 C   0  0  0  0  0  0
  -27.0332  -30.3068   24.6082 C   0  0  0  0  0  0
  -27.6035  -32.4343   25.7504 C   0  0  0  0  0  0
  -27.5580  -37.1821   24.8471 C   0  0  0  0  0  0
  -21.4143  -29.3008   22.3705 N   0  0  0  0  0  0
  -26.4304  -37.3800   23.9399 N   0  0  0  0  0  0
  -24.6697  -31.0762   22.0984 N   0  0  0  0  0  0
  -23.4191  -28.8185   23.3019 O   0  0  0  0  0  0
  -28.3656  -26.6511   20.1219 O   0  0  0  0  0  0
  -26.5593  -34.8934   22.4677 O   0  0  0  0  0  0
  -23.5335  -32.1393   23.7472 O   0  0  0  0  0  0
  -30.4052  -18.1900   23.3684 C   0  0  0  0  0  0
  -29.2128  -18.5662   22.8072 C   0  0  0  0  0  0
  -30.1458  -16.9524   21.5205 C   0  0  0  0  0  0
  -33.4109  -17.7526   22.7047 C   0  0  0  0  0  0
  -27.5504  -19.1034   24.5542 C   0  0  0  0  0  0
  -31.4474  -16.8586   19.4133 C   0  0  0  0  0  0
  -28.6531  -23.3881   22.1982 C   0  0  0  0  0  0
  -28.4429  -21.8661   21.9697 C   0  0  0  0  0  0
  -28.3887  -24.2963   20.9665 C   0  0  0  0  0  0
  -28.6417  -21.0293   23.2631 C   0  0  0  0  0  0
  -32.3167  -16.6778   22.8008 C   0  0  0  0  0  0
  -28.5162  -25.8110   21.2792 C   0  0  0  0  0  0
  -28.1446  -19.5546   23.2110 C   0  0  1  0  0  0
  -30.3280  -16.1290   20.2292 C   0  0  1  0  0  0
  -29.0571  -16.3050   19.3402 C   0  0  0  0  0  0
  -30.9759  -17.2349   22.5542 N   0  0  0  0  0  0
  -29.0913  -17.7702   21.7054 N   0  3  0  0  0  0
  -28.9057  -17.5657   18.9241 F   0  0  0  0  0  0
  -29.0840  -15.5424   18.2497 F   0  0  0  0  0  0
  -27.9635  -16.0469   20.0458 F   0  0  0  0  0  0
  -31.4438  -12.3972   19.1377 H   0  0  0  0  0  0
  -30.3050  -11.4054   20.0001 H   0  0  0  0  0  0
  -29.7658  -11.5692   17.5511 H   0  0  0  0  0  0
  -29.6170  -13.2949   17.6587 H   0  0  0  0  0  0
  -27.9191  -11.1647   19.0106 H   0  0  0  0  0  0
  -27.3507  -12.3007   17.8178 H   0  0  0  0  0  0
  -27.5342  -14.0840   19.2671 H   0  0  0  0  0  0
  -28.7004  -12.2956   21.4987 H   0  0  0  0  0  0
  -28.4249  -14.0097   21.6570 H   0  0  0  0  0  0
  -25.2692   -9.5609   22.4834 H   0  0  0  0  0  0
  -23.9945   -7.4542   22.7483 H   0  0  0  0  0  0
  -21.0794   -8.8704   19.8949 H   0  0  0  0  0  0
  -22.3647  -10.9619   19.6216 H   0  0  0  0  0  0
  -21.1917   -7.6111   23.9689 H   0  0  0  0  0  0
  -21.1499   -6.0524   25.9091 H   0  0  0  0  0  0
  -22.0590   -2.7577   23.2891 H   0  0  0  0  0  0
  -22.3983  -11.9769   22.4743 H   0  0  0  0  0  0
  -21.1091  -13.1281   22.2711 H   0  0  0  0  0  0
  -24.6477  -15.8206   20.5297 H   0  0  0  0  0  0
  -26.2735  -15.6062   20.1055 H   0  0  0  0  0  0
  -26.7101  -32.5533   23.1149 H   0  0  0  0  0  0
  -25.0164  -33.9814   25.0538 H   0  0  0  0  0  0
  -22.6949  -31.3055   21.4085 H   0  0  0  0  0  0
  -23.3765  -35.9628   23.3322 H   0  0  0  0  0  0
  -24.3570  -36.8905   22.2050 H   0  0  0  0  0  0
  -23.7218  -37.6508   23.6646 H   0  0  0  0  0  0
  -26.0453  -31.5902   20.5903 H   0  0  0  0  0  0
  -26.8215  -30.8863   21.9806 H   0  0  0  0  0  0
  -28.0981  -29.0858   21.1864 H   0  0  0  0  0  0
  -26.0651  -25.9467   19.0473 H   0  0  0  0  0  0
  -23.9818  -27.2879   19.0354 H   0  0  0  0  0  0
  -23.7188  -30.5943   19.4001 H   0  0  0  0  0  0
  -22.7406  -29.2351   19.8666 H   0  0  0  0  0  0
  -25.1293  -36.1992   25.0823 H   0  0  0  0  0  0
  -20.9957  -28.3213   24.1430 H   0  0  0  0  0  0
  -20.5717  -26.2257   23.3589 H   0  0  0  0  0  0
  -21.6651  -26.7464   22.1179 H   0  0  0  0  0  0
  -19.6932  -25.6288   21.1242 H   0  0  0  0  0  0
  -19.6715  -27.3202   20.6762 H   0  0  0  0  0  0
  -17.4215  -26.6684   21.3998 H   0  0  0  0  0  0
  -18.0313  -26.0061   22.8992 H   0  0  0  0  0  0
  -19.7937  -30.7271   24.2257 H   0  0  0  0  0  0
  -17.5020  -31.6286   24.5147 H   0  0  0  0  0  0
  -15.5348  -30.2999   23.7689 H   0  0  0  0  0  0
  -15.8652  -28.0847   22.7060 H   0  0  0  0  0  0
  -24.5922  -30.7058   25.7822 H   0  0  0  0  0  0
  -24.9003  -32.2846   26.4990 H   0  0  0  0  0  0
  -25.8138  -30.8816   27.0210 H   0  0  0  0  0  0
  -26.2874  -29.6821   24.1157 H   0  0  0  0  0  0
  -27.4163  -29.7296   25.4507 H   0  0  0  0  0  0
  -27.8674  -30.4430   23.9197 H   0  0  0  0  0  0
  -27.2636  -33.3643   26.2074 H   0  0  0  0  0  0
  -28.3862  -32.6899   25.0352 H   0  0  0  0  0  0
  -28.0693  -31.8489   26.5441 H   0  0  0  0  0  0
  -28.2599  -38.0118   24.7530 H   0  0  0  0  0  0
  -28.1065  -36.2649   24.6290 H   0  0  0  0  0  0
  -27.2293  -37.1464   25.8873 H   0  0  0  0  0  0
  -20.9302  -29.8715   21.6917 H   0  0  0  0  0  0
  -26.0189  -38.2877   24.1409 H   0  0  0  0  0  0
  -30.8972  -18.5500   24.2617 H   0  0  0  0  0  0
  -34.4024  -17.3115   22.8122 H   0  0  0  0  0  0
  -33.3010  -18.5050   23.4866 H   0  0  0  0  0  0
  -33.3814  -18.2647   21.7427 H   0  0  0  0  0  0
  -27.1221  -18.1038   24.4733 H   0  0  0  0  0  0
  -26.7500  -19.7681   24.8783 H   0  0  0  0  0  0
  -28.3062  -19.0816   25.3398 H   0  0  0  0  0  0
  -31.5926  -16.3885   18.4389 H   0  0  0  0  0  0
  -32.4143  -16.8613   19.9162 H   0  0  0  0  0  0
  -31.2141  -17.9057   19.2231 H   0  0  0  0  0  0
  -29.6713  -23.5579   22.5507 H   0  0  0  0  0  0
  -27.9991  -23.7121   23.0095 H   0  0  0  0  0  0
  -29.1143  -21.5040   21.1894 H   0  0  0  0  0  0
  -27.4310  -21.7081   21.5952 H   0  0  0  0  0  0
  -27.3898  -24.0983   20.5761 H   0  0  0  0  0  0
  -29.0849  -24.0298   20.1719 H   0  0  0  0  0  0
  -28.0709  -21.5368   24.0421 H   0  0  0  0  0  0
  -29.6809  -21.0712   23.5919 H   0  0  0  0  0  0
  -32.3106  -16.2337   23.7975 H   0  0  0  0  0  0
  -32.5342  -15.8743   22.1101 H   0  0  0  0  0  0
  -27.7978  -26.0780   22.0582 H   0  0  0  0  0  0
  -29.5033  -26.0089   21.6982 H   0  0  0  0  0  0
  -27.3332  -19.4995   22.4830 H   0  0  0  0  0  0
  -28.2992  -17.8061   21.0697 H   0  0  0  0  0  0
  1 25  1  0  0  0
  1 30  2  0  0  0
  1 84  1  0  0  0
  2  3  1  0  0  0
  2 25  1  0  0  0
  2 91  1  0  0  0
  2 92  1  0  0  0
  3  4  1  0  0  0
  3 93  1  0  0  0
  3 94  1  0  0  0
  4  5  1  0  0  0
  4 95  1  0  0  0
  4 96  1  0  0  0
  5  6  1  0  0  0
  5 26  1  0  0  0
  5 97  1  0  0  0
  6 25  1  0  0  0
  6 98  1  0  0  0
  6 99  1  0  0  0
  7  8  2  0  0  0
  7 26  1  0  0  0
  7 29  1  0  0  0
  8  9  1  0  0  0
  8 22  1  0  0  0
  9 10  1  0  0  0
  9 27  2  0  0  0
 10 11  2  0  0  0
 10 15  1  0  0  0
 11 12  1  0  0  0
 11100  1  0  0  0
 12 13  2  0  0  0
 12101  1  0  0  0
 13 14  1  0  0  0
 13 31  1  0  0  0
 14 15  2  0  0  0
 14102  1  0  0  0
 15103  1  0  0  0
 16 17  2  0  0  0
 16 21  1  0  0  0
 16 31  1  0  0  0
 17 18  1  0  0  0
 17104  1  0  0  0
 18 19  2  0  0  0
 18105  1  0  0  0
 19 20  1  0  0  0
 19 24  1  0  0  0
 20 21  2  0  0  0
 20106  1  0  0  0
 21 23  1  0  0  0
 22 28  1  0  0  0
 22 32  2  0  0  0
 26 27  1  0  0  0
 28107  1  0  0  0
 28108  1  0  0  0
 29109  1  0  0  0
 29110  1  0  0  0
 33 34  1  0  0  0
 33 66  1  0  0  0
 33 70  2  0  0  0
 34 36  1  0  0  0
 34 59  1  0  0  0
 34111  1  0  0  0
 35 44  2  0  0  0
 35 45  1  0  0  0
 35 68  1  0  0  0
 36 56  1  0  0  0
 36112  1  0  0  0
 37 39  1  0  0  0
 37 47  1  0  0  0
 37 66  1  0  0  0
 37113  1  0  0  0
 38 43  2  0  0  0
 38 46  1  0  0  0
 38 47  1  0  0  0
 39 64  1  0  0  0
 39 67  2  0  0  0
 40 52  1  0  0  0
 40 53  2  0  0  0
 40 58  1  0  0  0
 41114  1  0  0  0
 41115  1  0  0  0
 41116  1  0  0  0
 41 48  1  0  0  0
 42 43  1  0  0  0
 42 66  1  0  0  0
 42117  1  0  0  0
 42118  1  0  0  0
 43 44  1  0  0  0
 44119  1  0  0  0
 45 46  2  0  0  0
 45120  1  0  0  0
 46121  1  0  0  0
 47122  1  0  0  0
 47123  1  0  0  0
 48 56  1  0  0  0
 48 65  1  0  0  0
 48124  1  0  0  0
 49 50  1  0  0  0
 49 53  1  0  0  0
 49 64  1  0  0  0
 49125  1  0  0  0
 50 51  1  0  0  0
 50126  1  0  0  0
 50127  1  0  0  0
 51 52  1  0  0  0
 51128  1  0  0  0
 51129  1  0  0  0
 52130  1  0  0  0
 52131  1  0  0  0
 53 54  1  0  0  0
 54 55  2  0  0  0
 54132  1  0  0  0
 55 57  1  0  0  0
 55133  1  0  0  0
 56 69  2  0  0  0
 57 58  2  0  0  0
 57134  1  0  0  0
 58135  1  0  0  0
 59 60  1  0  0  0
 59 61  1  0  0  0
 59 62  1  0  0  0
 60136  1  0  0  0
 60137  1  0  0  0
 60138  1  0  0  0
 61139  1  0  0  0
 61140  1  0  0  0
 61141  1  0  0  0
 62142  1  0  0  0
 62143  1  0  0  0
 62144  1  0  0  0
 63 65  1  0  0  0
 63145  1  0  0  0
 63146  1  0  0  0
 63147  1  0  0  0
 64148  1  0  0  0
 65149  1  0  0  0
 68 82  1  0  0  0
 71 72  2  0  0  0
 71 86  1  0  0  0
 71150  1  0  0  0
 72 83  1  0  0  0
 72 87  1  0  0  0
 73 84  1  0  0  0
 73 86  1  0  0  0
 73 87  2  0  0  0
 74 81  1  0  0  0
 74151  1  0  0  0
 74152  1  0  0  0
 74153  1  0  0  0
 75154  1  0  0  0
 75155  1  0  0  0
 75156  1  0  0  0
 75 83  1  0  0  0
 76157  1  0  0  0
 76158  1  0  0  0
 76159  1  0  0  0
 76 84  1  0  0  0
 77 78  1  0  0  0
 77 79  1  0  0  0
 77160  1  0  0  0
 77161  1  0  0  0
 78 80  1  0  0  0
 78162  1  0  0  0
 78163  1  0  0  0
 79 82  1  0  0  0
 79164  1  0  0  0
 79165  1  0  0  0
 80 83  1  0  0  0
 80166  1  0  0  0
 80167  1  0  0  0
 81 86  1  0  0  0
 81168  1  0  0  0
 81169  1  0  0  0
 82170  1  0  0  0
 82171  1  0  0  0
 83172  1  0  0  0
 84 85  1  0  0  0
 85 88  1  0  0  0
 85 89  1  0  0  0
 85 90  1  0  0  0
 87173  1  0  0  0
M  CHG  1  87   1
M  ISO  4   1 100  68 101  82 101  84 100
M  END
> <chiral flag>
0

> <version>
0

> <s_m_source_file>
/data/baiqing/PycharmProjects/Reinvent-master-3.2/result/LINK_invent/BTK/process_docking_weight1_custom_sum_contain_oxygen_bond_distance_aromatic_linkinvent_7_9_3/rearranged_h_0066.sdf

> <i_m_source_file_index>
17

> <r_mmod_Potential_Energy-OPLS-2005>
164.97639465332

> <r_mmod_Stretch_Energy-OPLS-2005>
52.9430084228516

> <r_mmod_Bend_Energy-OPLS-2005>
149.050170898438

> <r_mmod_Torsional_Energy-OPLS-2005>
270.718597412109

> <r_mmod_Improper_Torsional_Energy-OPLS-2005>
9.74538326263428

> <r_mmod_Van_der_Waal_Energy-OPLS-2005>
151.329010009766

> <r_mmod_Electrostatic_Energy-OPLS-2005>
-159.675506591797

> <r_mmod_Solvation_Energy-OPLS-2005>
-373.272766113281

> <b_mmod_Minimization_Converged-OPLS-2005>
0

> <r_mmod_RMS_Derivative-OPLS-2005>
2.40355563163757

$$$$
18
                    3D
 Structure written by MMmdl.
169177  0  0  1  0            999 V2000
  -30.7964  -14.7141   20.3081 C   0  0  0  0  0  0
  -30.3821  -12.3906   19.5274 C   0  0  0  0  0  0
  -29.5294  -12.3542   18.2448 C   0  0  0  0  0  0
  -28.0110  -12.4828   18.5254 C   0  0  0  0  0  0
  -27.7049  -12.7853   20.0120 C   0  0  2  0  0  0
  -28.6589  -13.5842   20.8899 C   0  0  0  0  0  0
  -25.2944  -13.7586   20.5438 C   0  0  0  0  0  0
  -24.1804  -13.0452   20.8957 C   0  0  0  0  0  0
  -24.5745  -11.6729   20.8848 C   0  0  0  0  0  0
  -23.8479  -10.4327   21.0647 C   0  0  0  0  0  0
  -24.3328   -9.4197   21.9230 C   0  0  0  0  0  0
  -23.6159   -8.2182   22.0743 C   0  0  0  0  0  0
  -22.4131   -8.0238   21.3552 C   0  0  0  0  0  0
  -21.9620   -9.0204   20.4711 C   0  0  0  0  0  0
  -22.6708  -10.2192   20.3302 C   0  0  0  0  0  0
  -21.6877   -6.0702   22.5289 C   0  0  0  0  0  0
  -21.4083   -6.5666   23.8190 C   0  0  0  0  0  0
  -21.3638   -5.6823   24.9168 C   0  0  0  0  0  0
  -21.5985   -4.3084   24.7233 C   0  0  0  0  0  0
  -21.8868   -3.8130   23.4373 C   0  0  0  0  0  0
  -21.9241   -4.6914   22.3402 C   0  0  0  0  0  0
  -22.7930  -13.5538   21.1695 C   0  0  0  0  0  0
  -22.1692   -4.2092   21.0977 F   0  0  0  0  0  0
  -21.5464   -3.4562   25.7723 F   0  0  0  0  0  0
  -29.9992  -13.6020   20.3095 N   0  0  0  0  0  0
  -26.3001  -12.8022   20.3759 N   0  0  0  0  0  0
  -25.8381  -11.5618   20.5853 N   0  0  0  0  0  0
  -22.0420  -12.8600   22.0157 N   0  0  0  0  0  0
  -25.5189  -15.1229   20.3490 N   0  0  0  0  0  0
  -32.0033  -14.5958   20.1257 O   0  0  0  0  0  0
  -21.6629   -6.8772   21.4219 O   0  0  0  0  0  0
  -22.3745  -14.5901   20.6520 O   0  0  0  0  0  0
  -24.6082  -31.8711   23.2082 C   0  0  0  0  0  0
  -25.9008  -32.4829   23.8384 C   0  0  1  0  0  0
  -27.2295  -27.4068   20.1179 C   0  0  0  0  0  0
  -25.5884  -33.8615   24.2322 N   0  0  0  0  0  0
  -23.4010  -30.4862   21.5456 C   0  0  2  0  0  0
  -24.8524  -28.9574   20.1118 C   0  0  0  0  0  0
  -22.7453  -29.4605   22.4970 C   0  0  0  0  0  0
  -18.0322  -28.1394   22.8545 C   0  0  0  0  0  0
  -24.1481  -36.7277   23.2627 C   0  0  0  0  0  0
  -25.9288  -30.8353   21.3642 C   0  0  0  0  0  0
  -26.0110  -29.4654   20.7097 C   0  0  0  0  0  0
  -27.1969  -28.6940   20.7081 C   0  0  0  0  0  0
  -26.0456  -26.9152   19.5204 C   0  0  0  0  0  0
  -24.8679  -27.6861   19.5142 C   0  0  0  0  0  0
  -23.6119  -29.8201   20.1594 C   0  0  0  0  0  0
  -25.4107  -36.3078   24.0331 C   0  0  1  0  0  0
  -20.5914  -28.3643   23.1357 C   0  0  2  0  0  0
  -20.6770  -26.9382   22.5443 C   0  0  0  0  0  0
  -19.5727  -26.6389   21.5260 C   0  0  0  0  0  0
  -18.1923  -26.7958   22.1678 C   0  0  0  0  0  0
  -19.1574  -28.8860   23.2942 C   0  0  0  0  0  0
  -18.9462  -30.1487   23.8916 C   0  0  0  0  0  0
  -17.6435  -30.6574   24.0589 C   0  0  0  0  0  0
  -25.9032  -34.9461   23.5123 C   0  0  0  0  0  0
  -16.5350  -29.9060   23.6322 C   0  0  0  0  0  0
  -16.7301  -28.6498   23.0336 C   0  0  0  0  0  0
  -26.4461  -31.6626   25.0705 C   0  0  0  0  0  0
  -25.3740  -31.3741   26.1470 C   0  0  0  0  0  0
  -27.0255  -30.3055   24.6072 C   0  0  0  0  0  0
  -27.6032  -32.4352   25.7466 C   0  0  0  0  0  0
  -27.5596  -37.1775   24.8461 C   0  0  0  0  0  0
  -21.4176  -29.2981   22.3753 N   0  0  0  0  0  0
  -26.4299  -37.3761   23.9416 N   0  0  0  0  0  0
  -24.6619  -31.0788   22.0979 N   0  0  0  0  0  0
  -23.4264  -28.8152   23.2977 O   0  0  0  0  0  0
  -28.4182  -26.7015   20.1612 O   0  0  0  0  0  0
  -26.5557  -34.8903   22.4654 O   0  0  0  0  0  0
  -23.5272  -32.1451   23.7440 O   0  0  0  0  0  0
  -29.7487  -16.8699   19.1358 C   0  0  0  0  0  0
  -30.3048  -16.1951   20.2973 C   0  0  0  0  0  0
  -30.0596  -18.1988   19.2963 C   0  0  0  0  0  0
  -28.3933  -19.6422   22.1919 C   0  0  0  0  0  0
  -29.9081  -21.3590   23.0964 C   0  0  0  0  0  0
  -29.5329  -23.1172   20.6671 C   0  0  0  0  0  0
  -28.4376  -24.2328   20.7523 C   0  0  0  0  0  0
  -29.0131  -21.6294   20.7545 C   0  0  0  0  0  0
  -30.7522  -19.6246   21.3628 C   0  0  0  0  0  0
  -28.5465  -25.3534   19.6639 C   0  0  0  0  0  0
  -28.9798  -16.3542   17.9408 C   0  0  0  0  0  0
  -29.9404  -19.2997   18.2725 C   0  0  0  0  0  0
  -29.5518  -20.5775   21.8095 C   0  0  0  0  0  0
  -29.7860  -16.0829   16.6471 C   0  0  0  0  0  0
  -30.6358  -17.1399   21.1987 N   0  0  0  0  0  0
  -30.4435  -18.3702   20.6156 N   0  0  0  0  0  0
  -28.4110  -15.2602   18.3953 F   0  0  0  0  0  0
  -27.9619  -17.1678   17.6373 F   0  0  0  0  0  0
  -28.6807  -19.7123   18.1507 F   0  0  0  0  0  0
  -30.7410  -20.3333   18.5224 F   0  0  0  0  0  0
  -30.3116  -18.8823   17.0666 F   0  0  0  0  0  0
  -31.1006  -16.1439   16.8608 F   0  0  0  0  0  0
  -29.4528  -14.8776   16.2153 F   0  0  0  0  0  0
  -29.4569  -16.9119   15.6528 F   0  0  0  0  0  0
  -31.4377  -12.4009   19.2452 H   0  0  0  0  0  0
  -30.2533  -11.4697   20.1031 H   0  0  0  0  0  0
  -29.7436  -11.4420   17.6778 H   0  0  0  0  0  0
  -29.8754  -13.1663   17.6241 H   0  0  0  0  0  0
  -27.5446  -11.5318   18.2568 H   0  0  0  0  0  0
  -27.5446  -13.2093   17.8607 H   0  0  0  0  0  0
  -28.0351  -11.8215   20.4127 H   0  0  0  0  0  0
  -28.6978  -13.2133   21.9156 H   0  0  0  0  0  0
  -28.2787  -14.6027   20.9745 H   0  0  0  0  0  0
  -25.2551   -9.5707   22.4683 H   0  0  0  0  0  0
  -24.0023   -7.4525   22.7306 H   0  0  0  0  0  0
  -21.0638   -8.8675   19.8936 H   0  0  0  0  0  0
  -22.3110  -10.9829   19.6564 H   0  0  0  0  0  0
  -21.2204   -7.6200   23.9660 H   0  0  0  0  0  0
  -21.1306   -6.0572   25.9038 H   0  0  0  0  0  0
  -22.0681   -2.7599   23.2887 H   0  0  0  0  0  0
  -22.3707  -12.0018   22.4322 H   0  0  0  0  0  0
  -21.1044  -13.1751   22.2161 H   0  0  0  0  0  0
  -24.7887  -15.8238   20.4041 H   0  0  0  0  0  0
  -26.4137  -15.5085   20.0886 H   0  0  0  0  0  0
  -26.7073  -32.5592   23.1148 H   0  0  0  0  0  0
  -25.0039  -33.9799   25.0478 H   0  0  0  0  0  0
  -22.6773  -31.2935   21.4041 H   0  0  0  0  0  0
  -23.3764  -35.9597   23.3292 H   0  0  0  0  0  0
  -24.3546  -36.8886   22.2034 H   0  0  0  0  0  0
  -23.7257  -37.6479   23.6646 H   0  0  0  0  0  0
  -26.0383  -31.6109   20.6048 H   0  0  0  0  0  0
  -26.8120  -30.8904   21.9907 H   0  0  0  0  0  0
  -28.0942  -29.0755   21.1716 H   0  0  0  0  0  0
  -26.0027  -25.9365   19.0694 H   0  0  0  0  0  0
  -23.9723  -27.2863   19.0576 H   0  0  0  0  0  0
  -23.7155  -30.5918   19.3951 H   0  0  0  0  0  0
  -22.7432  -29.2258   19.8683 H   0  0  0  0  0  0
  -25.1303  -36.1905   25.0829 H   0  0  0  0  0  0
  -21.0054  -28.3212   24.1463 H   0  0  0  0  0  0
  -20.5683  -26.2236   23.3620 H   0  0  0  0  0  0
  -21.6614  -26.7384   22.1229 H   0  0  0  0  0  0
  -19.6812  -25.6307   21.1247 H   0  0  0  0  0  0
  -19.6661  -27.3240   20.6821 H   0  0  0  0  0  0
  -17.4202  -26.6830   21.4061 H   0  0  0  0  0  0
  -18.0247  -26.0093   22.9030 H   0  0  0  0  0  0
  -19.7910  -30.7359   24.2266 H   0  0  0  0  0  0
  -17.4935  -31.6238   24.5191 H   0  0  0  0  0  0
  -15.5332  -30.2898   23.7594 H   0  0  0  0  0  0
  -15.8749  -28.0765   22.6981 H   0  0  0  0  0  0
  -24.5927  -30.7070   25.7826 H   0  0  0  0  0  0
  -24.8915  -32.2879   26.4923 H   0  0  0  0  0  0
  -25.8113  -30.8925   27.0225 H   0  0  0  0  0  0
  -26.2774  -29.6863   24.1097 H   0  0  0  0  0  0
  -27.3967  -29.7264   25.4533 H   0  0  0  0  0  0
  -27.8635  -30.4326   23.9229 H   0  0  0  0  0  0
  -27.2679  -33.3650   26.2062 H   0  0  0  0  0  0
  -28.3841  -32.6936   25.0315 H   0  0  0  0  0  0
  -28.0705  -31.8477   26.5374 H   0  0  0  0  0  0
  -28.2580  -38.0090   24.7510 H   0  0  0  0  0  0
  -28.1125  -36.2615   24.6297 H   0  0  0  0  0  0
  -27.2287  -37.1447   25.8852 H   0  0  0  0  0  0
  -20.9333  -29.8695   21.6975 H   0  0  0  0  0  0
  -26.0180  -38.2826   24.1462 H   0  0  0  0  0  0
  -27.5444  -20.1893   22.5939 H   0  0  0  0  0  0
  -28.7136  -18.9301   22.9557 H   0  0  0  0  0  0
  -28.0481  -19.0630   21.3340 H   0  0  0  0  0  0
  -29.1315  -22.0953   23.3226 H   0  0  0  0  0  0
  -30.8570  -21.8833   22.9949 H   0  0  0  0  0  0
  -29.9830  -20.7245   23.9820 H   0  0  0  0  0  0
  -30.3380  -23.3554   21.3672 H   0  0  0  0  0  0
  -30.0181  -23.2189   19.6956 H   0  0  0  0  0  0
  -28.5283  -24.6927   21.7381 H   0  0  0  0  0  0
  -27.4350  -23.7980   20.7364 H   0  0  0  0  0  0
  -29.1743  -21.2345   19.7772 H   0  0  0  0  0  0
  -27.9221  -21.6413   20.7875 H   0  0  0  0  0  0
  -31.5227  -20.1672   20.8178 H   0  0  0  0  0  0
  -31.2259  -19.2902   22.2880 H   0  0  0  0  0  0
  -27.9394  -25.1381   18.7824 H   0  0  0  0  0  0
  -29.5672  -25.3444   19.2857 H   0  0  0  0  0  0
  1 25  1  0  0  0
  1 30  2  0  0  0
  1 72  1  0  0  0
  2  3  1  0  0  0
  2 25  1  0  0  0
  2 95  1  0  0  0
  2 96  1  0  0  0
  3  4  1  0  0  0
  3 97  1  0  0  0
  3 98  1  0  0  0
  4  5  1  0  0  0
  4 99  1  0  0  0
  4100  1  0  0  0
  5  6  1  0  0  0
  5 26  1  0  0  0
  5101  1  0  0  0
  6 25  1  0  0  0
  6102  1  0  0  0
  6103  1  0  0  0
  7  8  2  0  0  0
  7 26  1  0  0  0
  7 29  1  0  0  0
  8  9  1  0  0  0
  8 22  1  0  0  0
  9 10  1  0  0  0
  9 27  2  0  0  0
 10 11  2  0  0  0
 10 15  1  0  0  0
 11 12  1  0  0  0
 11104  1  0  0  0
 12 13  2  0  0  0
 12105  1  0  0  0
 13 14  1  0  0  0
 13 31  1  0  0  0
 14 15  2  0  0  0
 14106  1  0  0  0
 15107  1  0  0  0
 16 17  2  0  0  0
 16 21  1  0  0  0
 16 31  1  0  0  0
 17 18  1  0  0  0
 17108  1  0  0  0
 18 19  2  0  0  0
 18109  1  0  0  0
 19 20  1  0  0  0
 19 24  1  0  0  0
 20 21  2  0  0  0
 20110  1  0  0  0
 21 23  1  0  0  0
 22 28  1  0  0  0
 22 32  2  0  0  0
 26 27  1  0  0  0
 28111  1  0  0  0
 28112  1  0  0  0
 29113  1  0  0  0
 29114  1  0  0  0
 33 34  1  0  0  0
 33 66  1  0  0  0
 33 70  2  0  0  0
 34 36  1  0  0  0
 34 59  1  0  0  0
 34115  1  0  0  0
 35 44  2  0  0  0
 35 45  1  0  0  0
 35 68  1  0  0  0
 36 56  1  0  0  0
 36116  1  0  0  0
 37 39  1  0  0  0
 37 47  1  0  0  0
 37 66  1  0  0  0
 37117  1  0  0  0
 38 43  2  0  0  0
 38 46  1  0  0  0
 38 47  1  0  0  0
 39 64  1  0  0  0
 39 67  2  0  0  0
 40 52  1  0  0  0
 40 53  2  0  0  0
 40 58  1  0  0  0
 41118  1  0  0  0
 41119  1  0  0  0
 41120  1  0  0  0
 41 48  1  0  0  0
 42 43  1  0  0  0
 42 66  1  0  0  0
 42121  1  0  0  0
 42122  1  0  0  0
 43 44  1  0  0  0
 44123  1  0  0  0
 45 46  2  0  0  0
 45124  1  0  0  0
 46125  1  0  0  0
 47126  1  0  0  0
 47127  1  0  0  0
 48 56  1  0  0  0
 48 65  1  0  0  0
 48128  1  0  0  0
 49 50  1  0  0  0
 49 53  1  0  0  0
 49 64  1  0  0  0
 49129  1  0  0  0
 50 51  1  0  0  0
 50130  1  0  0  0
 50131  1  0  0  0
 51 52  1  0  0  0
 51132  1  0  0  0
 51133  1  0  0  0
 52134  1  0  0  0
 52135  1  0  0  0
 53 54  1  0  0  0
 54 55  2  0  0  0
 54136  1  0  0  0
 55 57  1  0  0  0
 55137  1  0  0  0
 56 69  2  0  0  0
 57 58  2  0  0  0
 57138  1  0  0  0
 58139  1  0  0  0
 59 60  1  0  0  0
 59 61  1  0  0  0
 59 62  1  0  0  0
 60140  1  0  0  0
 60141  1  0  0  0
 60142  1  0  0  0
 61143  1  0  0  0
 61144  1  0  0  0
 61145  1  0  0  0
 62146  1  0  0  0
 62147  1  0  0  0
 62148  1  0  0  0
 63 65  1  0  0  0
 63149  1  0  0  0
 63150  1  0  0  0
 63151  1  0  0  0
 64152  1  0  0  0
 65153  1  0  0  0
 68 80  1  0  0  0
 71 72  1  0  0  0
 71 73  2  0  0  0
 71 81  1  0  0  0
 72 85  2  0  0  0
 73 82  1  0  0  0
 73 86  1  0  0  0
 74154  1  0  0  0
 74155  1  0  0  0
 74156  1  0  0  0
 74 83  1  0  0  0
 75 83  1  0  0  0
 75157  1  0  0  0
 75158  1  0  0  0
 75159  1  0  0  0
 76 77  1  0  0  0
 76 78  1  0  0  0
 76160  1  0  0  0
 76161  1  0  0  0
 77 80  1  0  0  0
 77162  1  0  0  0
 77163  1  0  0  0
 78 83  1  0  0  0
 78164  1  0  0  0
 78165  1  0  0  0
 79 83  1  0  0  0
 79 86  1  0  0  0
 79166  1  0  0  0
 79167  1  0  0  0
 80168  1  0  0  0
 80169  1  0  0  0
 81 84  1  0  0  0
 81 87  1  0  0  0
 81 88  1  0  0  0
 82 89  1  0  0  0
 82 90  1  0  0  0
 82 91  1  0  0  0
 84 92  1  0  0  0
 84 93  1  0  0  0
 84 94  1  0  0  0
 85 86  1  0  0  0
M  ISO  4   1 100  68 101  72 100  80 101
M  END
> <chiral flag>
0

> <version>
0

> <s_m_source_file>
/data/baiqing/PycharmProjects/Reinvent-master-3.2/result/LINK_invent/BTK/process_docking_weight1_custom_sum_contain_oxygen_bond_distance_aromatic_linkinvent_7_9_3/rearranged_h_0066.sdf

> <i_m_source_file_index>
18

> <r_mmod_Potential_Energy-OPLS-2005>
572.548645019531

> <r_mmod_Stretch_Energy-OPLS-2005>
67.6984405517578

> <r_mmod_Bend_Energy-OPLS-2005>
234.097534179688

> <r_mmod_Torsional_Energy-OPLS-2005>
312.173706054688

> <r_mmod_Improper_Torsional_Energy-OPLS-2005>
6.60607671737671

> <r_mmod_Van_der_Waal_Energy-OPLS-2005>
159.161514282227

> <r_mmod_Electrostatic_Energy-OPLS-2005>
-173.621856689453

> <r_mmod_Solvation_Energy-OPLS-2005>
-173.018829345703

> <b_mmod_Minimization_Converged-OPLS-2005>
0

> <r_mmod_RMS_Derivative-OPLS-2005>
11.4262752532959

$$$$
19
                    3D
 Structure written by MMmdl.
161169  0  0  1  0            999 V2000
  -30.7704  -14.5141   20.4193 C   0  0  0  0  0  0
  -30.4051  -12.3074   19.4208 C   0  0  0  0  0  0
  -29.4716  -12.4288   18.1998 C   0  0  0  0  0  0
  -27.9952  -12.3131   18.6265 C   0  0  0  0  0  0
  -27.6402  -13.1863   19.8598 C   0  0  2  0  0  0
  -28.7132  -13.0614   20.9655 C   0  0  0  0  0  0
  -25.2515  -13.8083   20.5707 C   0  0  0  0  0  0
  -24.1776  -13.0381   20.9210 C   0  0  0  0  0  0
  -24.6334  -11.6852   20.8808 C   0  0  0  0  0  0
  -23.9011  -10.4257   21.0448 C   0  0  0  0  0  0
  -24.3580   -9.4175   21.9214 C   0  0  0  0  0  0
  -23.6267   -8.2208   22.0765 C   0  0  0  0  0  0
  -22.4254   -8.0256   21.3545 C   0  0  0  0  0  0
  -21.9883   -9.0229   20.4650 C   0  0  0  0  0  0
  -22.7200  -10.2113   20.3075 C   0  0  0  0  0  0
  -21.6837   -6.0722   22.5271 C   0  0  0  0  0  0
  -21.3997   -6.5630   23.8202 C   0  0  0  0  0  0
  -21.3662   -5.6788   24.9168 C   0  0  0  0  0  0
  -21.6051   -4.3051   24.7220 C   0  0  0  0  0  0
  -21.8823   -3.8139   23.4341 C   0  0  0  0  0  0
  -21.9190   -4.6953   22.3396 C   0  0  0  0  0  0
  -22.7811  -13.5208   21.1851 C   0  0  0  0  0  0
  -22.1666   -4.2141   21.0973 F   0  0  0  0  0  0
  -21.5639   -3.4538   25.7733 F   0  0  0  0  0  0
  -30.0206  -13.3688   20.3693 N   0  0  0  0  0  0
  -26.2940  -12.9205   20.3457 N   0  0  0  0  0  0
  -25.9263  -11.6399   20.5915 N   0  0  0  0  0  0
  -22.0448  -12.8218   22.0412 N   0  0  0  0  0  0
  -25.4146  -15.1799   20.4041 N   0  0  0  0  0  0
  -31.9860  -14.3966   20.3079 O   0  0  0  0  0  0
  -21.6620   -6.8858   21.4231 O   0  0  0  0  0  0
  -22.3518  -14.5526   20.6704 O   0  0  0  0  0  0
  -24.6092  -31.8712   23.2125 C   0  0  0  0  0  0
  -25.9006  -32.4841   23.8409 C   0  0  1  0  0  0
  -27.2387  -27.4842   20.0963 C   0  0  0  0  0  0
  -25.5882  -33.8638   24.2343 N   0  0  0  0  0  0
  -23.3949  -30.4937   21.5518 C   0  0  2  0  0  0
  -24.8431  -28.9634   20.1160 C   0  0  0  0  0  0
  -22.7378  -29.4672   22.5012 C   0  0  0  0  0  0
  -18.0265  -28.1372   22.8494 C   0  0  0  0  0  0
  -24.1485  -36.7327   23.2636 C   0  0  0  0  0  0
  -25.9172  -30.8540   21.3560 C   0  0  0  0  0  0
  -25.9986  -29.4913   20.7058 C   0  0  0  0  0  0
  -27.2019  -28.7595   20.6903 C   0  0  0  0  0  0
  -26.0716  -26.9540   19.5063 C   0  0  0  0  0  0
  -24.8719  -27.6919   19.5136 C   0  0  0  0  0  0
  -23.6009  -29.8227   20.1666 C   0  0  0  0  0  0
  -25.4104  -36.3125   24.0340 C   0  0  1  0  0  0
  -20.5849  -28.3652   23.1335 C   0  0  2  0  0  0
  -20.6756  -26.9394   22.5425 C   0  0  0  0  0  0
  -19.5740  -26.6385   21.5214 C   0  0  0  0  0  0
  -18.1914  -26.7923   22.1616 C   0  0  0  0  0  0
  -19.1513  -28.8828   23.2913 C   0  0  0  0  0  0
  -18.9444  -30.1437   23.8918 C   0  0  0  0  0  0
  -17.6448  -30.6582   24.0568 C   0  0  0  0  0  0
  -25.9029  -34.9487   23.5139 C   0  0  0  0  0  0
  -16.5340  -29.9086   23.6324 C   0  0  0  0  0  0
  -16.7255  -28.6503   23.0344 C   0  0  0  0  0  0
  -26.4457  -31.6603   25.0714 C   0  0  0  0  0  0
  -25.3743  -31.3703   26.1479 C   0  0  0  0  0  0
  -27.0274  -30.3049   24.6055 C   0  0  0  0  0  0
  -27.6049  -32.4307   25.7465 C   0  0  0  0  0  0
  -27.5588  -37.1808   24.8457 C   0  0  0  0  0  0
  -21.4112  -29.3026   22.3749 N   0  0  0  0  0  0
  -26.4294  -37.3807   23.9415 N   0  0  0  0  0  0
  -24.6584  -31.0859   22.0996 N   0  0  0  0  0  0
  -23.4170  -28.8221   23.3044 O   0  0  0  0  0  0
  -28.4113  -26.7775   20.0993 O   0  0  0  0  0  0
  -26.5590  -34.8931   22.4700 O   0  0  0  0  0  0
  -23.5299  -32.1438   23.7553 O   0  0  0  0  0  0
  -27.8670  -19.5118   19.8603 C   0  0  0  0  0  0
  -29.4843  -20.1239   21.4984 C   0  0  0  0  0  0
  -28.6759  -20.5073   20.4182 C   0  0  0  0  0  0
  -28.8564  -17.9476   21.2002 C   0  0  0  0  0  0
  -29.6096  -16.0673   18.7667 C   0  0  0  0  0  0
  -28.7453  -21.8842   19.7871 C   0  0  0  0  0  0
  -28.5001  -23.0511   20.7470 C   0  0  0  0  0  0
  -28.5514  -24.3803   19.9838 C   0  0  0  0  0  0
  -28.3765  -25.5964   20.8923 C   0  0  0  0  0  0
  -29.2380  -16.4709   21.3212 C   0  0  0  0  0  0
  -30.2266  -15.9833   20.1969 C   0  0  1  0  0  0
  -31.4572  -16.9851   20.1134 C   0  0  0  0  0  0
  -27.9683  -18.2351   20.2537 N   0  0  0  0  0  0
  -29.5623  -18.8391   21.8922 N   0  0  0  0  0  0
  -28.0890  -15.8052   21.2801 F   0  0  0  0  0  0
  -29.7721  -16.2375   22.5241 F   0  0  0  0  0  0
  -32.3426  -16.6337   19.1734 F   0  0  0  0  0  0
  -31.1340  -18.2289   19.7560 F   0  0  0  0  0  0
  -32.1109  -17.0544   21.2755 F   0  0  0  0  0  0
  -31.4446  -12.3685   19.0933 H   0  0  0  0  0  0
  -30.3049  -11.3252   19.8853 H   0  0  0  0  0  0
  -29.7051  -11.6459   17.4769 H   0  0  0  0  0  0
  -29.6363  -13.3686   17.6781 H   0  0  0  0  0  0
  -27.8094  -11.2637   18.8582 H   0  0  0  0  0  0
  -27.3390  -12.5556   17.7896 H   0  0  0  0  0  0
  -27.6219  -14.2037   19.5074 H   0  0  0  0  0  0
  -28.7221  -12.0391   21.3465 H   0  0  0  0  0  0
  -28.5057  -13.6674   21.8439 H   0  0  0  0  0  0
  -25.2720   -9.5657   22.4798 H   0  0  0  0  0  0
  -23.9978   -7.4595   22.7479 H   0  0  0  0  0  0
  -21.0818   -8.8741   19.8955 H   0  0  0  0  0  0
  -22.3657  -10.9661   19.6195 H   0  0  0  0  0  0
  -21.1975   -7.6138   23.9695 H   0  0  0  0  0  0
  -21.1492   -6.0524   25.9071 H   0  0  0  0  0  0
  -22.0605   -2.7602   23.2836 H   0  0  0  0  0  0
  -22.4049  -11.9873   22.4803 H   0  0  0  0  0  0
  -21.1078  -13.1270   22.2629 H   0  0  0  0  0  0
  -24.6465  -15.8289   20.5314 H   0  0  0  0  0  0
  -26.2868  -15.6435   20.1827 H   0  0  0  0  0  0
  -26.7083  -32.5577   23.1188 H   0  0  0  0  0  0
  -25.0041  -33.9810   25.0491 H   0  0  0  0  0  0
  -22.6809  -31.3082   21.4132 H   0  0  0  0  0  0
  -23.3753  -35.9654   23.3287 H   0  0  0  0  0  0
  -24.3585  -36.8954   22.2054 H   0  0  0  0  0  0
  -23.7226  -37.6523   23.6657 H   0  0  0  0  0  0
  -26.0188  -31.6216   20.5877 H   0  0  0  0  0  0
  -26.8086  -30.9113   21.9687 H   0  0  0  0  0  0
  -28.0972  -29.1644   21.1409 H   0  0  0  0  0  0
  -26.0901  -25.9794   19.0406 H   0  0  0  0  0  0
  -23.9830  -27.2785   19.0574 H   0  0  0  0  0  0
  -23.7016  -30.5957   19.4039 H   0  0  0  0  0  0
  -22.7273  -29.2363   19.8758 H   0  0  0  0  0  0
  -25.1277  -36.1998   25.0834 H   0  0  0  0  0  0
  -20.9939  -28.3214   24.1456 H   0  0  0  0  0  0
  -20.5658  -26.2258   23.3605 H   0  0  0  0  0  0
  -21.6630  -26.7438   22.1225 H   0  0  0  0  0  0
  -19.6905  -25.6302   21.1227 H   0  0  0  0  0  0
  -19.6688  -27.3208   20.6755 H   0  0  0  0  0  0
  -17.4191  -26.6684   21.4008 H   0  0  0  0  0  0
  -18.0302  -26.0053   22.8996 H   0  0  0  0  0  0
  -19.7921  -30.7247   24.2294 H   0  0  0  0  0  0
  -17.5006  -31.6263   24.5169 H   0  0  0  0  0  0
  -15.5344  -30.2999   23.7634 H   0  0  0  0  0  0
  -15.8654  -28.0835   22.7042 H   0  0  0  0  0  0
  -24.5899  -30.7066   25.7823 H   0  0  0  0  0  0
  -24.8955  -32.2861   26.4955 H   0  0  0  0  0  0
  -25.8112  -30.8851   27.0216 H   0  0  0  0  0  0
  -26.2797  -29.6813   24.1138 H   0  0  0  0  0  0
  -27.4088  -29.7281   25.4492 H   0  0  0  0  0  0
  -27.8612  -30.4375   23.9156 H   0  0  0  0  0  0
  -27.2688  -33.3603   26.2068 H   0  0  0  0  0  0
  -28.3843  -32.6866   25.0276 H   0  0  0  0  0  0
  -28.0728  -31.8406   26.5356 H   0  0  0  0  0  0
  -28.2596  -38.0118   24.7535 H   0  0  0  0  0  0
  -28.1096  -36.2653   24.6242 H   0  0  0  0  0  0
  -27.2314  -37.1415   25.8860 H   0  0  0  0  0  0
  -20.9262  -29.8751   21.6981 H   0  0  0  0  0  0
  -26.0188  -38.2883   24.1433 H   0  0  0  0  0  0
  -27.2041  -19.7146   19.0322 H   0  0  0  0  0  0
  -30.1360  -20.8271   21.9957 H   0  0  0  0  0  0
  -29.6351  -17.0811   18.3715 H   0  0  0  0  0  0
  -28.5645  -15.7943   18.7193 H   0  0  0  0  0  0
  -30.1640  -15.4663   18.0480 H   0  0  0  0  0  0
  -28.0275  -21.9344   18.9660 H   0  0  0  0  0  0
  -29.7303  -21.9882   19.3281 H   0  0  0  0  0  0
  -29.2493  -23.0559   21.5398 H   0  0  0  0  0  0
  -27.5280  -22.9410   21.2296 H   0  0  0  0  0  0
  -27.7790  -24.3844   19.2148 H   0  0  0  0  0  0
  -29.5042  -24.4670   19.4595 H   0  0  0  0  0  0
  -29.1942  -25.6437   21.6121 H   0  0  0  0  0  0
  -27.4577  -25.5079   21.4772 H   0  0  0  0  0  0
  1 25  1  0  0  0
  1 30  2  0  0  0
  1 81  1  0  0  0
  2  3  1  0  0  0
  2 25  1  0  0  0
  2 90  1  0  0  0
  2 91  1  0  0  0
  3  4  1  0  0  0
  3 92  1  0  0  0
  3 93  1  0  0  0
  4  5  1  0  0  0
  4 94  1  0  0  0
  4 95  1  0  0  0
  5  6  1  0  0  0
  5 26  1  0  0  0
  5 96  1  0  0  0
  6 25  1  0  0  0
  6 97  1  0  0  0
  6 98  1  0  0  0
  7  8  2  0  0  0
  7 26  1  0  0  0
  7 29  1  0  0  0
  8  9  1  0  0  0
  8 22  1  0  0  0
  9 10  1  0  0  0
  9 27  2  0  0  0
 10 11  2  0  0  0
 10 15  1  0  0  0
 11 12  1  0  0  0
 11 99  1  0  0  0
 12 13  2  0  0  0
 12100  1  0  0  0
 13 14  1  0  0  0
 13 31  1  0  0  0
 14 15  2  0  0  0
 14101  1  0  0  0
 15102  1  0  0  0
 16 17  2  0  0  0
 16 21  1  0  0  0
 16 31  1  0  0  0
 17 18  1  0  0  0
 17103  1  0  0  0
 18 19  2  0  0  0
 18104  1  0  0  0
 19 20  1  0  0  0
 19 24  1  0  0  0
 20 21  2  0  0  0
 20105  1  0  0  0
 21 23  1  0  0  0
 22 28  1  0  0  0
 22 32  2  0  0  0
 26 27  1  0  0  0
 28106  1  0  0  0
 28107  1  0  0  0
 29108  1  0  0  0
 29109  1  0  0  0
 33 34  1  0  0  0
 33 66  1  0  0  0
 33 70  2  0  0  0
 34 36  1  0  0  0
 34 59  1  0  0  0
 34110  1  0  0  0
 35 44  2  0  0  0
 35 45  1  0  0  0
 35 68  1  0  0  0
 36 56  1  0  0  0
 36111  1  0  0  0
 37 39  1  0  0  0
 37 47  1  0  0  0
 37 66  1  0  0  0
 37112  1  0  0  0
 38 43  2  0  0  0
 38 46  1  0  0  0
 38 47  1  0  0  0
 39 64  1  0  0  0
 39 67  2  0  0  0
 40 52  1  0  0  0
 40 53  2  0  0  0
 40 58  1  0  0  0
 41113  1  0  0  0
 41114  1  0  0  0
 41115  1  0  0  0
 41 48  1  0  0  0
 42 43  1  0  0  0
 42 66  1  0  0  0
 42116  1  0  0  0
 42117  1  0  0  0
 43 44  1  0  0  0
 44118  1  0  0  0
 45 46  2  0  0  0
 45119  1  0  0  0
 46120  1  0  0  0
 47121  1  0  0  0
 47122  1  0  0  0
 48 56  1  0  0  0
 48 65  1  0  0  0
 48123  1  0  0  0
 49 50  1  0  0  0
 49 53  1  0  0  0
 49 64  1  0  0  0
 49124  1  0  0  0
 50 51  1  0  0  0
 50125  1  0  0  0
 50126  1  0  0  0
 51 52  1  0  0  0
 51127  1  0  0  0
 51128  1  0  0  0
 52129  1  0  0  0
 52130  1  0  0  0
 53 54  1  0  0  0
 54 55  2  0  0  0
 54131  1  0  0  0
 55 57  1  0  0  0
 55132  1  0  0  0
 56 69  2  0  0  0
 57 58  2  0  0  0
 57133  1  0  0  0
 58134  1  0  0  0
 59 60  1  0  0  0
 59 61  1  0  0  0
 59 62  1  0  0  0
 60135  1  0  0  0
 60136  1  0  0  0
 60137  1  0  0  0
 61138  1  0  0  0
 61139  1  0  0  0
 61140  1  0  0  0
 62141  1  0  0  0
 62142  1  0  0  0
 62143  1  0  0  0
 63 65  1  0  0  0
 63144  1  0  0  0
 63145  1  0  0  0
 63146  1  0  0  0
 64147  1  0  0  0
 65148  1  0  0  0
 68 79  1  0  0  0
 71 73  2  0  0  0
 71 83  1  0  0  0
 71149  1  0  0  0
 72 73  1  0  0  0
 72 84  2  0  0  0
 72150  1  0  0  0
 73 76  1  0  0  0
 74 80  1  0  0  0
 74 83  2  0  0  0
 74 84  1  0  0  0
 75151  1  0  0  0
 75152  1  0  0  0
 75153  1  0  0  0
 75 81  1  0  0  0
 76 77  1  0  0  0
 76154  1  0  0  0
 76155  1  0  0  0
 77 78  1  0  0  0
 77156  1  0  0  0
 77157  1  0  0  0
 78 79  1  0  0  0
 78158  1  0  0  0
 78159  1  0  0  0
 79160  1  0  0  0
 79161  1  0  0  0
 80 81  1  0  0  0
 80 85  1  0  0  0
 80 86  1  0  0  0
 81 82  1  0  0  0
 82 87  1  0  0  0
 82 88  1  0  0  0
 82 89  1  0  0  0
M  ISO  4   1 100  68 101  79 101  81 100
M  END
> <chiral flag>
0

> <version>
0

> <s_m_source_file>
/data/baiqing/PycharmProjects/Reinvent-master-3.2/result/LINK_invent/BTK/process_docking_weight1_custom_sum_contain_oxygen_bond_distance_aromatic_linkinvent_7_9_3/rearranged_h_0066.sdf

> <i_m_source_file_index>
19

> <r_mmod_Potential_Energy-OPLS-2005>
-306.828948974609

> <r_mmod_Stretch_Energy-OPLS-2005>
42.6871223449707

> <r_mmod_Bend_Energy-OPLS-2005>
126.099555969238

> <r_mmod_Torsional_Energy-OPLS-2005>
209.518890380859

> <r_mmod_Improper_Torsional_Energy-OPLS-2005>
11.5028066635132

> <r_mmod_Van_der_Waal_Energy-OPLS-2005>
193.600708007812

> <r_mmod_Electrostatic_Energy-OPLS-2005>
-748.807861328125

> <r_mmod_Solvation_Energy-OPLS-2005>
-181.985565185547

> <b_mmod_Minimization_Converged-OPLS-2005>
0

> <r_mmod_RMS_Derivative-OPLS-2005>
0.607402861118317

$$$$
20
                    3D
 Structure written by MMmdl.
166174  0  0  1  0            999 V2000
  -30.7070  -14.4909   20.5585 C   0  0  0  0  0  0
  -30.4257  -12.3139   19.4294 C   0  0  0  0  0  0
  -29.5037  -12.5069   18.2084 C   0  0  0  0  0  0
  -28.0246  -12.3548   18.6176 C   0  0  0  0  0  0
  -27.6594  -13.2033   19.8651 C   0  0  2  0  0  0
  -28.7032  -13.0104   20.9908 C   0  0  0  0  0  0
  -25.2514  -13.8084   20.5598 C   0  0  0  0  0  0
  -24.1805  -13.0368   20.9171 C   0  0  0  0  0  0
  -24.6394  -11.6859   20.8726 C   0  0  0  0  0  0
  -23.9063  -10.4260   21.0401 C   0  0  0  0  0  0
  -24.3616   -9.4194   21.9192 C   0  0  0  0  0  0
  -23.6287   -8.2234   22.0762 C   0  0  0  0  0  0
  -22.4266   -8.0276   21.3557 C   0  0  0  0  0  0
  -21.9903   -9.0249   20.4652 C   0  0  0  0  0  0
  -22.7231  -10.2123   20.3055 C   0  0  0  0  0  0
  -21.6850   -6.0730   22.5291 C   0  0  0  0  0  0
  -21.4011   -6.5636   23.8227 C   0  0  0  0  0  0
  -21.3654   -5.6793   24.9188 C   0  0  0  0  0  0
  -21.6041   -4.3054   24.7232 C   0  0  0  0  0  0
  -21.8822   -3.8144   23.4349 C   0  0  0  0  0  0
  -21.9195   -4.6963   22.3406 C   0  0  0  0  0  0
  -22.7843  -13.5203   21.1830 C   0  0  0  0  0  0
  -22.1657   -4.2151   21.0984 F   0  0  0  0  0  0
  -21.5629   -3.4535   25.7740 F   0  0  0  0  0  0
  -30.0376  -13.3094   20.4404 N   0  0  0  0  0  0
  -26.3000  -12.9291   20.3295 N   0  0  0  0  0  0
  -25.9332  -11.6452   20.5754 N   0  0  0  0  0  0
  -22.0458  -12.8241   22.0396 N   0  0  0  0  0  0
  -25.4013  -15.1778   20.3897 N   0  0  0  0  0  0
  -31.8295  -14.6789   20.0854 O   0  0  0  0  0  0
  -21.6637   -6.8871   21.4248 O   0  0  0  0  0  0
  -22.3546  -14.5516   20.6681 O   0  0  0  0  0  0
  -24.6133  -31.8670   23.2098 C   0  0  0  0  0  0
  -25.9019  -32.4817   23.8391 C   0  0  1  0  0  0
  -27.2411  -27.4484   20.0955 C   0  0  0  0  0  0
  -25.5874  -33.8616   24.2328 N   0  0  0  0  0  0
  -23.4023  -30.4893   21.5486 C   0  0  2  0  0  0
  -24.8518  -28.9524   20.1166 C   0  0  0  0  0  0
  -22.7412  -29.4652   22.4977 C   0  0  0  0  0  0
  -18.0275  -28.1387   22.8489 C   0  0  0  0  0  0
  -24.1487  -36.7319   23.2642 C   0  0  0  0  0  0
  -25.9302  -30.8352   21.3631 C   0  0  0  0  0  0
  -26.0095  -29.4694   20.7136 C   0  0  0  0  0  0
  -27.2091  -28.7232   20.7034 C   0  0  0  0  0  0
  -26.0722  -26.9401   19.4949 C   0  0  0  0  0  0
  -24.8761  -27.6846   19.5063 C   0  0  0  0  0  0
  -23.6126  -29.8181   20.1640 C   0  0  0  0  0  0
  -25.4102  -36.3105   24.0339 C   0  0  1  0  0  0
  -20.5860  -28.3669   23.1314 C   0  0  2  0  0  0
  -20.6755  -26.9401   22.5419 C   0  0  0  0  0  0
  -19.5730  -26.6382   21.5216 C   0  0  0  0  0  0
  -18.1910  -26.7930   22.1623 C   0  0  0  0  0  0
  -19.1523  -28.8845   23.2903 C   0  0  0  0  0  0
  -18.9455  -30.1448   23.8914 C   0  0  0  0  0  0
  -17.6456  -30.6589   24.0575 C   0  0  0  0  0  0
  -25.9028  -34.9471   23.5136 C   0  0  0  0  0  0
  -16.5350  -29.9099   23.6324 C   0  0  0  0  0  0
  -16.7264  -28.6517   23.0335 C   0  0  0  0  0  0
  -26.4457  -31.6595   25.0719 C   0  0  0  0  0  0
  -25.3748  -31.3698   26.1489 C   0  0  0  0  0  0
  -27.0288  -30.3037   24.6078 C   0  0  0  0  0  0
  -27.6027  -32.4327   25.7476 C   0  0  0  0  0  0
  -27.5582  -37.1809   24.8461 C   0  0  0  0  0  0
  -21.4140  -29.3038   22.3726 N   0  0  0  0  0  0
  -26.4288  -37.3782   23.9414 N   0  0  0  0  0  0
  -24.6665  -31.0789   22.0987 N   0  0  0  0  0  0
  -23.4183  -28.8192   23.3011 O   0  0  0  0  0  0
  -28.3877  -26.6895   20.0800 O   0  0  0  0  0  0
  -26.5596  -34.8918   22.4700 O   0  0  0  0  0  0
  -23.5319  -32.1418   23.7485 O   0  0  0  0  0  0
  -28.4659  -20.1278   21.0163 C   0  0  0  0  0  0
  -29.4371  -19.3263   20.3525 C   0  0  0  0  0  0
  -29.5795  -22.0758   20.4420 C   0  0  0  0  0  0
  -30.5850  -21.2830   19.8166 C   0  0  0  0  0  0
  -31.5904  -22.0349   17.6081 C   0  0  0  0  0  0
  -29.4790  -17.4096   18.7000 C   0  0  0  0  0  0
  -27.8515  -17.3518   20.5573 C   0  0  0  0  0  0
  -29.6513  -23.6151   20.4986 C   0  0  0  0  0  0
  -31.7932  -21.8944   19.1234 C   0  0  0  0  0  0
  -28.3665  -24.3539   20.9648 C   0  0  0  0  0  0
  -30.2942  -16.9581   21.0596 C   0  0  0  0  0  0
  -28.5538  -25.8671   21.2422 C   0  0  0  0  0  0
  -29.2864  -17.7831   20.1875 C   0  0  0  0  0  0
  -28.5370  -21.4801   21.0686 N   0  0  0  0  0  0
  -30.5168  -19.9229   19.7807 N   0  0  0  0  0  0
  -29.9959  -15.5025   21.0886 N   0  0  0  0  0  0
  -31.4722  -12.4047   19.1359 H   0  0  0  0  0  0
  -30.3155  -11.3063   19.8347 H   0  0  0  0  0  0
  -29.7572  -11.7826   17.4339 H   0  0  0  0  0  0
  -29.6685  -13.4922   17.7698 H   0  0  0  0  0  0
  -27.8489  -11.2985   18.8238 H   0  0  0  0  0  0
  -27.3745  -12.6124   17.7811 H   0  0  0  0  0  0
  -27.6937  -14.2417   19.5444 H   0  0  0  0  0  0
  -28.6787  -11.9831   21.3535 H   0  0  0  0  0  0
  -28.4610  -13.6295   21.8555 H   0  0  0  0  0  0
  -25.2761   -9.5693   22.4765 H   0  0  0  0  0  0
  -24.0002   -7.4636   22.7489 H   0  0  0  0  0  0
  -21.0833   -8.8771   19.8968 H   0  0  0  0  0  0
  -22.3688  -10.9668   19.6166 H   0  0  0  0  0  0
  -21.1990   -7.6147   23.9733 H   0  0  0  0  0  0
  -21.1474   -6.0513   25.9093 H   0  0  0  0  0  0
  -22.0601   -2.7603   23.2856 H   0  0  0  0  0  0
  -22.4032  -11.9910   22.4829 H   0  0  0  0  0  0
  -21.1091  -13.1339   22.2573 H   0  0  0  0  0  0
  -24.6209  -15.8177   20.4902 H   0  0  0  0  0  0
  -26.2378  -15.6262   20.0417 H   0  0  0  0  0  0
  -26.7094  -32.5527   23.1162 H   0  0  0  0  0  0
  -25.0024  -33.9777   25.0470 H   0  0  0  0  0  0
  -22.6911  -31.3059   21.4065 H   0  0  0  0  0  0
  -23.3727  -35.9674   23.3303 H   0  0  0  0  0  0
  -24.3604  -36.8933   22.2060 H   0  0  0  0  0  0
  -23.7252  -37.6530   23.6659 H   0  0  0  0  0  0
  -26.0465  -31.5996   20.5927 H   0  0  0  0  0  0
  -26.8175  -30.8902   21.9817 H   0  0  0  0  0  0
  -28.1029  -29.1217   21.1629 H   0  0  0  0  0  0
  -26.0887  -25.9669   19.0240 H   0  0  0  0  0  0
  -23.9859  -27.2790   19.0444 H   0  0  0  0  0  0
  -23.7250  -30.5916   19.4033 H   0  0  0  0  0  0
  -22.7375  -29.2373   19.8669 H   0  0  0  0  0  0
  -25.1280  -36.1969   25.0831 H   0  0  0  0  0  0
  -20.9971  -28.3231   24.1424 H   0  0  0  0  0  0
  -20.5650  -26.2283   23.3606 H   0  0  0  0  0  0
  -21.6632  -26.7434   22.1220 H   0  0  0  0  0  0
  -19.6895  -25.6293   21.1241 H   0  0  0  0  0  0
  -19.6674  -27.3202   20.6746 H   0  0  0  0  0  0
  -17.4187  -26.6680   21.4022 H   0  0  0  0  0  0
  -18.0316  -26.0078   22.9023 H   0  0  0  0  0  0
  -19.7934  -30.7259   24.2292 H   0  0  0  0  0  0
  -17.5015  -31.6268   24.5179 H   0  0  0  0  0  0
  -15.5351  -30.3008   23.7636 H   0  0  0  0  0  0
  -15.8661  -28.0851   22.7023 H   0  0  0  0  0  0
  -24.5888  -30.7077   25.7841 H   0  0  0  0  0  0
  -24.8984  -32.2864   26.4984 H   0  0  0  0  0  0
  -25.8129  -30.8832   27.0219 H   0  0  0  0  0  0
  -26.2829  -29.6792   24.1144 H   0  0  0  0  0  0
  -27.4089  -29.7268   25.4521 H   0  0  0  0  0  0
  -27.8653  -30.4367   23.9210 H   0  0  0  0  0  0
  -27.2623  -33.3598   26.2102 H   0  0  0  0  0  0
  -28.3803  -32.6940   25.0288 H   0  0  0  0  0  0
  -28.0738  -31.8434   26.5354 H   0  0  0  0  0  0
  -28.2588  -38.0114   24.7514 H   0  0  0  0  0  0
  -28.1091  -36.2649   24.6274 H   0  0  0  0  0  0
  -27.2323  -37.1449   25.8870 H   0  0  0  0  0  0
  -20.9286  -29.8796   21.6985 H   0  0  0  0  0  0
  -26.0169  -38.2863   24.1406 H   0  0  0  0  0  0
  -27.5951  -19.7074   21.4940 H   0  0  0  0  0  0
  -32.4645  -22.4883   17.1422 H   0  0  0  0  0  0
  -30.7291  -22.6632   17.3775 H   0  0  0  0  0  0
  -31.4300  -21.0633   17.1389 H   0  0  0  0  0  0
  -28.7819  -17.9512   18.0607 H   0  0  0  0  0  0
  -29.3262  -16.3459   18.5223 H   0  0  0  0  0  0
  -30.4861  -17.6452   18.3568 H   0  0  0  0  0  0
  -27.1046  -17.8936   19.9748 H   0  0  0  0  0  0
  -27.6323  -17.5024   21.6154 H   0  0  0  0  0  0
  -27.6993  -16.3001   20.3524 H   0  0  0  0  0  0
  -29.9198  -23.9923   19.5116 H   0  0  0  0  0  0
  -30.4760  -23.8774   21.1614 H   0  0  0  0  0  0
  -32.6638  -21.2649   19.3152 H   0  0  0  0  0  0
  -32.0351  -22.8623   19.5608 H   0  0  0  0  0  0
  -28.0494  -23.9056   21.9070 H   0  0  0  0  0  0
  -27.5464  -24.1902   20.2648 H   0  0  0  0  0  0
  -30.2515  -17.3140   22.0897 H   0  0  0  0  0  0
  -31.3170  -17.1422   20.7250 H   0  0  0  0  0  0
  -29.5433  -26.0518   21.6619 H   0  0  0  0  0  0
  -27.8529  -26.1664   22.0254 H   0  0  0  0  0  0
  -29.0839  -15.2461   21.4319 H   0  0  0  0  0  0
  1 25  1  0  0  0
  1 30  2  0  0  0
  1 86  1  0  0  0
  2  3  1  0  0  0
  2 25  1  0  0  0
  2 87  1  0  0  0
  2 88  1  0  0  0
  3  4  1  0  0  0
  3 89  1  0  0  0
  3 90  1  0  0  0
  4  5  1  0  0  0
  4 91  1  0  0  0
  4 92  1  0  0  0
  5  6  1  0  0  0
  5 26  1  0  0  0
  5 93  1  0  0  0
  6 25  1  0  0  0
  6 94  1  0  0  0
  6 95  1  0  0  0
  7  8  2  0  0  0
  7 26  1  0  0  0
  7 29  1  0  0  0
  8  9  1  0  0  0
  8 22  1  0  0  0
  9 10  1  0  0  0
  9 27  2  0  0  0
 10 11  2  0  0  0
 10 15  1  0  0  0
 11 12  1  0  0  0
 11 96  1  0  0  0
 12 13  2  0  0  0
 12 97  1  0  0  0
 13 14  1  0  0  0
 13 31  1  0  0  0
 14 15  2  0  0  0
 14 98  1  0  0  0
 15 99  1  0  0  0
 16 17  2  0  0  0
 16 21  1  0  0  0
 16 31  1  0  0  0
 17 18  1  0  0  0
 17100  1  0  0  0
 18 19  2  0  0  0
 18101  1  0  0  0
 19 20  1  0  0  0
 19 24  1  0  0  0
 20 21  2  0  0  0
 20102  1  0  0  0
 21 23  1  0  0  0
 22 28  1  0  0  0
 22 32  2  0  0  0
 26 27  1  0  0  0
 28103  1  0  0  0
 28104  1  0  0  0
 29105  1  0  0  0
 29106  1  0  0  0
 33 34  1  0  0  0
 33 66  1  0  0  0
 33 70  2  0  0  0
 34 36  1  0  0  0
 34 59  1  0  0  0
 34107  1  0  0  0
 35 44  2  0  0  0
 35 45  1  0  0  0
 35 68  1  0  0  0
 36 56  1  0  0  0
 36108  1  0  0  0
 37 39  1  0  0  0
 37 47  1  0  0  0
 37 66  1  0  0  0
 37109  1  0  0  0
 38 43  2  0  0  0
 38 46  1  0  0  0
 38 47  1  0  0  0
 39 64  1  0  0  0
 39 67  2  0  0  0
 40 52  1  0  0  0
 40 53  2  0  0  0
 40 58  1  0  0  0
 41110  1  0  0  0
 41111  1  0  0  0
 41112  1  0  0  0
 41 48  1  0  0  0
 42 43  1  0  0  0
 42 66  1  0  0  0
 42113  1  0  0  0
 42114  1  0  0  0
 43 44  1  0  0  0
 44115  1  0  0  0
 45 46  2  0  0  0
 45116  1  0  0  0
 46117  1  0  0  0
 47118  1  0  0  0
 47119  1  0  0  0
 48 56  1  0  0  0
 48 65  1  0  0  0
 48120  1  0  0  0
 49 50  1  0  0  0
 49 53  1  0  0  0
 49 64  1  0  0  0
 49121  1  0  0  0
 50 51  1  0  0  0
 50122  1  0  0  0
 50123  1  0  0  0
 51 52  1  0  0  0
 51124  1  0  0  0
 51125  1  0  0  0
 52126  1  0  0  0
 52127  1  0  0  0
 53 54  1  0  0  0
 54 55  2  0  0  0
 54128  1  0  0  0
 55 57  1  0  0  0
 55129  1  0  0  0
 56 69  2  0  0  0
 57 58  2  0  0  0
 57130  1  0  0  0
 58131  1  0  0  0
 59 60  1  0  0  0
 59 61  1  0  0  0
 59 62  1  0  0  0
 60132  1  0  0  0
 60133  1  0  0  0
 60134  1  0  0  0
 61135  1  0  0  0
 61136  1  0  0  0
 61137  1  0  0  0
 62138  1  0  0  0
 62139  1  0  0  0
 62140  1  0  0  0
 63 65  1  0  0  0
 63141  1  0  0  0
 63142  1  0  0  0
 63143  1  0  0  0
 64144  1  0  0  0
 65145  1  0  0  0
 68 82  1  0  0  0
 71 72  2  0  0  0
 71 84  1  0  0  0
 71146  1  0  0  0
 72 83  1  0  0  0
 72 85  1  0  0  0
 73 74  1  0  0  0
 73 78  1  0  0  0
 73 84  2  0  0  0
 74 79  1  0  0  0
 74 85  2  0  0  0
 75 79  1  0  0  0
 75147  1  0  0  0
 75148  1  0  0  0
 75149  1  0  0  0
 76150  1  0  0  0
 76151  1  0  0  0
 76152  1  0  0  0
 76 83  1  0  0  0
 77 83  1  0  0  0
 77153  1  0  0  0
 77154  1  0  0  0
 77155  1  0  0  0
 78 80  1  0  0  0
 78156  1  0  0  0
 78157  1  0  0  0
 79158  1  0  0  0
 79159  1  0  0  0
 80 82  1  0  0  0
 80160  1  0  0  0
 80161  1  0  0  0
 81 83  1  0  0  0
 81 86  1  0  0  0
 81162  1  0  0  0
 81163  1  0  0  0
 82164  1  0  0  0
 82165  1  0  0  0
 86166  1  0  0  0
M  ISO  4   1 100  68 101  82 101  86 100
M  END
> <chiral flag>
0

> <version>
0

> <s_m_source_file>
/data/baiqing/PycharmProjects/Reinvent-master-3.2/result/LINK_invent/BTK/process_docking_weight1_custom_sum_contain_oxygen_bond_distance_aromatic_linkinvent_7_9_3/rearranged_h_0066.sdf

> <i_m_source_file_index>
20

> <r_mmod_Potential_Energy-OPLS-2005>
-39.2462692260742

> <r_mmod_Stretch_Energy-OPLS-2005>
45.8899421691895

> <r_mmod_Bend_Energy-OPLS-2005>
102.827835083008

> <r_mmod_Torsional_Energy-OPLS-2005>
227.162078857422

> <r_mmod_Improper_Torsional_Energy-OPLS-2005>
4.00405979156494

> <r_mmod_Van_der_Waal_Energy-OPLS-2005>
161.211486816406

> <r_mmod_Electrostatic_Energy-OPLS-2005>
-379.581604003906

> <r_mmod_Solvation_Energy-OPLS-2005>
-213.917755126953

> <b_mmod_Minimization_Converged-OPLS-2005>
0

> <r_mmod_RMS_Derivative-OPLS-2005>
2.0469172000885

$$$$
21
                    3D
 Structure written by MMmdl.
178186  0  0  1  0            999 V2000
  -30.2279  -15.2458   20.4671 C   0  0  0  0  0  0
  -30.3612  -12.8042   19.5821 C   0  0  0  0  0  0
  -29.5099  -12.5704   18.3127 C   0  0  0  0  0  0
  -28.0561  -12.2806   18.7145 C   0  0  0  0  0  0
  -27.5619  -13.2538   19.8146 C   0  0  2  0  0  0
  -28.5301  -13.3934   20.9915 C   0  0  0  0  0  0
  -25.2163  -13.8214   20.5719 C   0  0  0  0  0  0
  -24.1551  -13.0420   20.9301 C   0  0  0  0  0  0
  -24.6186  -11.6903   20.8770 C   0  0  0  0  0  0
  -23.8957  -10.4274   21.0444 C   0  0  0  0  0  0
  -24.3572   -9.4195   21.9201 C   0  0  0  0  0  0
  -23.6281   -8.2207   22.0748 C   0  0  0  0  0  0
  -22.4254   -8.0251   21.3544 C   0  0  0  0  0  0
  -21.9869   -9.0212   20.4642 C   0  0  0  0  0  0
  -22.7157  -10.2108   20.3072 C   0  0  0  0  0  0
  -21.6840   -6.0730   22.5297 C   0  0  0  0  0  0
  -21.3997   -6.5638   23.8229 C   0  0  0  0  0  0
  -21.3646   -5.6786   24.9185 C   0  0  0  0  0  0
  -21.6038   -4.3051   24.7231 C   0  0  0  0  0  0
  -21.8819   -3.8149   23.4351 C   0  0  0  0  0  0
  -21.9188   -4.6965   22.3411 C   0  0  0  0  0  0
  -22.7611  -13.5214   21.1963 C   0  0  0  0  0  0
  -22.1668   -4.2159   21.0984 F   0  0  0  0  0  0
  -21.5624   -3.4533   25.7741 F   0  0  0  0  0  0
  -29.7389  -13.9235   20.3982 N   0  0  0  0  0  0
  -26.2407  -12.9399   20.2977 N   0  0  0  0  0  0
  -25.9043  -11.6537   20.5594 N   0  0  0  0  0  0
  -22.0276  -12.8211   22.0519 N   0  0  0  0  0  0
  -25.3914  -15.1946   20.4285 N   0  0  0  0  0  0
  -31.4348  -15.2331   20.1193 O   0  0  0  0  0  0
  -21.6614   -6.8856   21.4252 O   0  0  0  0  0  0
  -22.3341  -14.5535   20.6805 O   0  0  0  0  0  0
  -24.6936  -31.9361   23.1906 C   0  0  0  0  0  0
  -25.9691  -32.5057   23.8470 C   0  0  1  0  0  0
  -26.2244  -27.0855   20.4650 C   0  0  0  0  0  0
  -25.6460  -33.8802   24.2476 N   0  0  0  0  0  0
  -23.5280  -30.5848   21.5537 C   0  0  2  0  0  0
  -24.7810  -29.1525   19.9095 C   0  0  0  0  0  0
  -23.1662  -29.4910   22.5495 C   0  0  0  0  0  0
  -18.7292  -28.1300   21.4799 C   0  0  0  0  0  0
  -24.1519  -36.7328   23.2603 C   0  0  0  0  0  0
  -26.0210  -30.7859   21.3725 C   0  0  0  0  0  0
  -25.9252  -29.4326   20.6737 C   0  0  0  0  0  0
  -26.7983  -28.3404   20.8703 C   0  0  0  0  0  0
  -25.7571  -27.0671   19.1824 C   0  0  0  0  0  0
  -24.7299  -28.0071   19.0806 C   0  0  0  0  0  0
  -23.6018  -30.0465   20.0998 C   0  0  0  0  0  0
  -25.4155  -36.3180   24.0313 C   0  0  1  0  0  0
  -21.1809  -28.4867   23.4823 C   0  0  2  0  0  0
  -20.9955  -26.5377   23.7877 C   0  0  0  0  0  0
  -19.7839  -25.6068   22.6448 C   0  0  0  0  0  0
  -18.7932  -26.4627   21.4548 C   0  0  0  0  0  0
  -20.0259  -29.1932   22.4279 C   0  0  0  0  0  0
  -19.4528  -30.0728   23.7364 C   0  0  0  0  0  0
  -17.9393  -29.9872   24.2323 C   0  0  0  0  0  0
  -25.9187  -34.9606   23.5090 C   0  0  0  0  0  0
  -16.8475  -29.0891   23.5183 C   0  0  0  0  0  0
  -17.1458  -28.2070   22.1838 C   0  0  0  0  0  0
  -26.4644  -31.6665   25.0850 C   0  0  0  0  0  0
  -25.3670  -31.3831   26.1375 C   0  0  0  0  0  0
  -27.0478  -30.3095   24.6333 C   0  0  0  0  0  0
  -27.6163  -32.4264   25.7810 C   0  0  0  0  0  0
  -27.5610  -37.1874   24.8461 C   0  0  0  0  0  0
  -21.9223  -29.3159   22.6219 N   0  0  0  0  0  0
  -26.4300  -37.3893   23.9422 N   0  0  0  0  0  0
  -24.7704  -31.1824   22.0548 N   0  0  0  0  0  0
  -23.9195  -28.9199   23.3184 O   0  0  0  0  0  0
  -25.1599  -26.6302   21.3375 O   0  0  0  0  0  0
  -26.5567  -34.9044   22.4553 O   0  0  0  0  0  0
  -23.6038  -32.2006   23.7250 O   0  0  0  0  0  0
  -27.0649  -19.4746   19.6495 C   0  0  0  0  0  0
  -27.7382  -18.2946   21.8976 C   0  0  0  0  0  0
  -26.5136  -20.2033   20.8004 C   0  0  0  0  0  0
  -28.3226  -17.5780   20.7472 C   0  0  0  0  0  0
  -19.1823  -27.8732   25.2951 C   0  0  0  0  0  0
  -17.8348  -26.5621   24.1435 C   0  0  0  0  0  0
  -18.0914  -30.2833   21.8767 C   0  0  0  0  0  0
  -23.6635  -24.4980   19.3679 C   0  0  0  0  0  0
  -22.4391  -23.5778   21.2694 C   0  0  0  0  0  0
  -23.9296  -25.7757   22.9444 C   0  0  0  0  0  0
  -30.6795  -17.4481   21.3089 C   0  0  0  0  0  0
  -25.2861  -21.4740   20.7471 C   0  0  0  0  0  0
  -25.0412  -23.2067   21.2190 C   0  0  0  0  0  0
  -21.2902  -27.0637   21.5989 C   0  0  0  0  0  0
  -18.9715  -27.7004   23.6083 C   0  0  0  0  0  0
  -23.6928  -24.4040   20.9066 C   0  0  0  0  0  0
  -23.4066  -26.1273   21.5026 C   0  0  1  0  0  0
  -26.9037  -19.4665   21.9289 N   0  0  0  0  0  0
  -27.8943  -18.3021   19.6238 N   0  0  0  0  0  0
  -29.5708  -16.5463   20.8976 N   0  0  0  0  0  0
  -31.3883  -13.0093   19.2794 H   0  0  0  0  0  0
  -30.4279  -11.8936   20.1805 H   0  0  0  0  0  0
  -29.9167  -11.7457   17.7256 H   0  0  0  0  0  0
  -29.5450  -13.4569   17.6770 H   0  0  0  0  0  0
  -28.0202  -11.2581   19.0952 H   0  0  0  0  0  0
  -27.3993  -12.3103   17.8446 H   0  0  0  0  0  0
  -27.4922  -14.2261   19.3250 H   0  0  0  0  0  0
  -28.6900  -12.4434   21.5056 H   0  0  0  0  0  0
  -28.1372  -14.0983   21.7264 H   0  0  0  0  0  0
  -25.2712   -9.5688   22.4781 H   0  0  0  0  0  0
  -24.0008   -7.4583   22.7444 H   0  0  0  0  0  0
  -21.0809   -8.8707   19.8950 H   0  0  0  0  0  0
  -22.3602  -10.9654   19.6199 H   0  0  0  0  0  0
  -21.1991   -7.6146   23.9743 H   0  0  0  0  0  0
  -21.1464   -6.0508   25.9087 H   0  0  0  0  0  0
  -22.0616   -2.7620   23.2839 H   0  0  0  0  0  0
  -22.3910  -11.9875   22.4906 H   0  0  0  0  0  0
  -21.0897  -13.1224   22.2732 H   0  0  0  0  0  0
  -24.6181  -15.8402   20.5457 H   0  0  0  0  0  0
  -26.2184  -15.6335   20.0478 H   0  0  0  0  0  0
  -26.7837  -32.5544   23.1265 H   0  0  0  0  0  0
  -25.0761  -33.9891   25.0736 H   0  0  0  0  0  0
  -22.7435  -31.3493   21.5483 H   0  0  0  0  0  0
  -23.3826  -35.9605   23.3230 H   0  0  0  0  0  0
  -24.3609  -36.8996   22.2017 H   0  0  0  0  0  0
  -23.7195  -37.6501   23.6635 H   0  0  0  0  0  0
  -26.2606  -31.5417   20.6231 H   0  0  0  0  0  0
  -26.8780  -30.7386   22.0345 H   0  0  0  0  0  0
  -27.5235  -28.3963   21.6745 H   0  0  0  0  0  0
  -25.6735  -26.1570   18.6105 H   0  0  0  0  0  0
  -23.9119  -27.8571   18.3923 H   0  0  0  0  0  0
  -23.6885  -30.8781   19.3995 H   0  0  0  0  0  0
  -22.6865  -29.5163   19.8324 H   0  0  0  0  0  0
  -25.1303  -36.2024   25.0794 H   0  0  0  0  0  0
  -21.4354  -28.9669   24.4252 H   0  0  0  0  0  0
  -20.8294  -26.2472   24.8127 H   0  0  0  0  0  0
  -21.9006  -26.0349   23.8494 H   0  0  0  0  0  0
  -19.2156  -24.8528   23.1826 H   0  0  0  0  0  0
  -20.3345  -24.8577   22.0963 H   0  0  0  0  0  0
  -19.0645  -26.1870   20.4348 H   0  0  0  0  0  0
  -17.8039  -26.0146   21.4222 H   0  0  0  0  0  0
  -20.1340  -30.6467   24.3517 H   0  0  0  0  0  0
  -17.6465  -30.5452   25.1096 H   0  0  0  0  0  0
  -15.8536  -29.0527   23.9422 H   0  0  0  0  0  0
  -16.3535  -27.5664   21.8191 H   0  0  0  0  0  0
  -24.5830  -30.7297   25.7515 H   0  0  0  0  0  0
  -24.8890  -32.3012   26.4811 H   0  0  0  0  0  0
  -25.7790  -30.8890   27.0181 H   0  0  0  0  0  0
  -26.3157  -29.6936   24.1126 H   0  0  0  0  0  0
  -27.3906  -29.7258   25.4880 H   0  0  0  0  0  0
  -27.9111  -30.4371   23.9805 H   0  0  0  0  0  0
  -27.2789  -33.3543   26.2449 H   0  0  0  0  0  0
  -28.4081  -32.6844   25.0758 H   0  0  0  0  0  0
  -28.0689  -31.8279   26.5723 H   0  0  0  0  0  0
  -28.2584  -38.0224   24.7607 H   0  0  0  0  0  0
  -28.1162  -36.2765   24.6164 H   0  0  0  0  0  0
  -27.2342  -37.1377   25.8868 H   0  0  0  0  0  0
  -21.3388  -29.8488   21.9885 H   0  0  0  0  0  0
  -26.0181  -38.2956   24.1487 H   0  0  0  0  0  0
  -26.7981  -19.8377   18.6700 H   0  0  0  0  0  0
  -28.0238  -17.9463   22.8820 H   0  0  0  0  0  0
  -18.2944  -28.2239   25.8231 H   0  0  0  0  0  0
  -19.9238  -28.5739   25.6619 H   0  0  0  0  0  0
  -19.3863  -26.9858   25.8939 H   0  0  0  0  0  0
  -17.0277  -26.9550   24.7667 H   0  0  0  0  0  0
  -18.2383  -25.7531   24.7567 H   0  0  0  0  0  0
  -17.2691  -26.0210   23.3929 H   0  0  0  0  0  0
  -17.3168  -30.9914   22.2185 H   0  0  0  0  0  0
  -17.7075  -30.1246   20.8538 H   0  0  0  0  0  0
  -18.8575  -31.0260   21.6039 H   0  0  0  0  0  0
  -23.0542  -23.7246   18.9042 H   0  0  0  0  0  0
  -24.6579  -24.3710   18.9499 H   0  0  0  0  0  0
  -23.2708  -25.4559   19.0253 H   0  0  0  0  0  0
  -22.5528  -22.5313   20.9864 H   0  0  0  0  0  0
  -21.5648  -23.9350   20.7283 H   0  0  0  0  0  0
  -22.2123  -23.5752   22.3337 H   0  0  0  0  0  0
  -23.4372  -24.9246   23.4051 H   0  0  0  0  0  0
  -23.8974  -26.6076   23.6346 H   0  0  0  0  0  0
  -24.9594  -25.4126   23.0113 H   0  0  0  0  0  0
  -30.3594  -18.3040   21.9094 H   0  0  0  0  0  0
  -31.1598  -17.8709   20.4194 H   0  0  0  0  0  0
  -31.4475  -16.9574   21.9100 H   0  0  0  0  0  0
  -24.4320  -20.9634   21.2001 H   0  0  0  0  0  0
  -25.0391  -21.4776   19.6828 H   0  0  0  0  0  0
  -25.9412  -23.7182   20.8759 H   0  0  0  0  0  0
  -25.1531  -23.1963   22.3046 H   0  0  0  0  0  0
  -21.3566  -27.8701   20.8701 H   0  0  0  0  0  0
  -21.0065  -26.4129   20.7788 H   0  0  0  0  0  0
  1 25  1  0  0  0
  1 30  2  0  0  0
  1 90  1  0  0  0
  2  3  1  0  0  0
  2 25  1  0  0  0
  2 91  1  0  0  0
  2 92  1  0  0  0
  3  4  1  0  0  0
  3 93  1  0  0  0
  3 94  1  0  0  0
  4  5  1  0  0  0
  4 95  1  0  0  0
  4 96  1  0  0  0
  5  6  1  0  0  0
  5 26  1  0  0  0
  5 97  1  0  0  0
  6 25  1  0  0  0
  6 98  1  0  0  0
  6 99  1  0  0  0
  7  8  2  0  0  0
  7 26  1  0  0  0
  7 29  1  0  0  0
  8  9  1  0  0  0
  8 22  1  0  0  0
  9 10  1  0  0  0
  9 27  2  0  0  0
 10 11  2  0  0  0
 10 15  1  0  0  0
 11 12  1  0  0  0
 11100  1  0  0  0
 12 13  2  0  0  0
 12101  1  0  0  0
 13 14  1  0  0  0
 13 31  1  0  0  0
 14 15  2  0  0  0
 14102  1  0  0  0
 15103  1  0  0  0
 16 17  2  0  0  0
 16 21  1  0  0  0
 16 31  1  0  0  0
 17 18  1  0  0  0
 17104  1  0  0  0
 18 19  2  0  0  0
 18105  1  0  0  0
 19 20  1  0  0  0
 19 24  1  0  0  0
 20 21  2  0  0  0
 20106  1  0  0  0
 21 23  1  0  0  0
 22 28  1  0  0  0
 22 32  2  0  0  0
 26 27  1  0  0  0
 28107  1  0  0  0
 28108  1  0  0  0
 29109  1  0  0  0
 29110  1  0  0  0
 33 34  1  0  0  0
 33 66  1  0  0  0
 33 70  2  0  0  0
 34 36  1  0  0  0
 34 59  1  0  0  0
 34111  1  0  0  0
 35 44  2  0  0  0
 35 45  1  0  0  0
 35 68  1  0  0  0
 36 56  1  0  0  0
 36112  1  0  0  0
 37 39  1  0  0  0
 37 47  1  0  0  0
 37 66  1  0  0  0
 37113  1  0  0  0
 38 43  2  0  0  0
 38 46  1  0  0  0
 38 47  1  0  0  0
 39 64  1  0  0  0
 39 67  2  0  0  0
 40 52  1  0  0  0
 40 53  2  0  0  0
 40 58  1  0  0  0
 41114  1  0  0  0
 41115  1  0  0  0
 41116  1  0  0  0
 41 48  1  0  0  0
 42 43  1  0  0  0
 42 66  1  0  0  0
 42117  1  0  0  0
 42118  1  0  0  0
 43 44  1  0  0  0
 44119  1  0  0  0
 45 46  2  0  0  0
 45120  1  0  0  0
 46121  1  0  0  0
 47122  1  0  0  0
 47123  1  0  0  0
 48 56  1  0  0  0
 48 65  1  0  0  0
 48124  1  0  0  0
 49 50  1  0  0  0
 49 53  1  0  0  0
 49 64  1  0  0  0
 49125  1  0  0  0
 50 51  1  0  0  0
 50126  1  0  0  0
 50127  1  0  0  0
 51 52  1  0  0  0
 51128  1  0  0  0
 51129  1  0  0  0
 52130  1  0  0  0
 52131  1  0  0  0
 53 54  1  0  0  0
 54 55  2  0  0  0
 54132  1  0  0  0
 55 57  1  0  0  0
 55133  1  0  0  0
 56 69  2  0  0  0
 57 58  2  0  0  0
 57134  1  0  0  0
 58135  1  0  0  0
 59 60  1  0  0  0
 59 61  1  0  0  0
 59 62  1  0  0  0
 60136  1  0  0  0
 60137  1  0  0  0
 60138  1  0  0  0
 61139  1  0  0  0
 61140  1  0  0  0
 61141  1  0  0  0
 62142  1  0  0  0
 62143  1  0  0  0
 62144  1  0  0  0
 63 65  1  0  0  0
 63145  1  0  0  0
 63146  1  0  0  0
 63147  1  0  0  0
 64148  1  0  0  0
 65149  1  0  0  0
 68 87  1  0  0  0
 71 73  2  0  0  0
 71 89  1  0  0  0
 71150  1  0  0  0
 72 74  1  0  0  0
 72 88  2  0  0  0
 72151  1  0  0  0
 73 82  1  0  0  0
 73 88  1  0  0  0
 74 89  2  0  0  0
 74 90  1  0  0  0
 75152  1  0  0  0
 75153  1  0  0  0
 75154  1  0  0  0
 75 85  1  0  0  0
 76 85  1  0  0  0
 76155  1  0  0  0
 76156  1  0  0  0
 76157  1  0  0  0
 77 85  1  0  0  0
 77158  1  0  0  0
 77159  1  0  0  0
 77160  1  0  0  0
 78161  1  0  0  0
 78162  1  0  0  0
 78163  1  0  0  0
 78 86  1  0  0  0
 79 86  1  0  0  0
 79164  1  0  0  0
 79165  1  0  0  0
 79166  1  0  0  0
 80167  1  0  0  0
 80168  1  0  0  0
 80169  1  0  0  0
 80 87  1  0  0  0
 81 90  1  0  0  0
 81170  1  0  0  0
 81171  1  0  0  0
 81172  1  0  0  0
 82 83  1  0  0  0
 82173  1  0  0  0
 82174  1  0  0  0
 83 86  1  0  0  0
 83175  1  0  0  0
 83176  1  0  0  0
 84 85  1  0  0  0
 84 87  1  0  0  0
 84177  1  0  0  0
 84178  1  0  0  0
 86 87  1  0  0  0
M  ISO  4   1 100  68 101  87 101  90 100
M  END
> <chiral flag>
0

> <version>
0

> <s_m_source_file>
/data/baiqing/PycharmProjects/Reinvent-master-3.2/result/LINK_invent/BTK/process_docking_weight1_custom_sum_contain_oxygen_bond_distance_aromatic_linkinvent_7_9_3/rearranged_h_0066.sdf

> <i_m_source_file_index>
21

> <r_mmod_Potential_Energy-OPLS-2005>
17968.705078125

> <r_mmod_Stretch_Energy-OPLS-2005>
9534.337890625

> <r_mmod_Bend_Energy-OPLS-2005>
1603.01025390625

> <r_mmod_Torsional_Energy-OPLS-2005>
683.102783203125

> <r_mmod_Improper_Torsional_Energy-OPLS-2005>
84.4401702880859

> <r_mmod_Van_der_Waal_Energy-OPLS-2005>
3421.80639648438

> <r_mmod_Electrostatic_Energy-OPLS-2005>
-283.150085449219

> <r_mmod_Solvation_Energy-OPLS-2005>
-174.131820678711

> <b_mmod_Minimization_Converged-OPLS-2005>
0

> <r_mmod_RMS_Derivative-OPLS-2005>
10.3521327972412

$$$$
22
                    3D
 Structure written by MMmdl.
165173  0  0  1  0            999 V2000
  -30.7055  -14.4543   20.5937 C   0  0  0  0  0  0
  -30.4209  -12.3015   19.4220 C   0  0  0  0  0  0
  -29.4931  -12.5012   18.2064 C   0  0  0  0  0  0
  -28.0132  -12.3690   18.6181 C   0  0  0  0  0  0
  -27.6615  -13.2061   19.8773 C   0  0  2  0  0  0
  -28.7004  -12.9766   20.9980 C   0  0  0  0  0  0
  -25.2586  -13.8170   20.5686 C   0  0  0  0  0  0
  -24.1834  -13.0447   20.9179 C   0  0  0  0  0  0
  -24.6380  -11.6910   20.8727 C   0  0  0  0  0  0
  -23.9048  -10.4294   21.0400 C   0  0  0  0  0  0
  -24.3601   -9.4211   21.9181 C   0  0  0  0  0  0
  -23.6282   -8.2245   22.0750 C   0  0  0  0  0  0
  -22.4269   -8.0278   21.3540 C   0  0  0  0  0  0
  -21.9901   -9.0251   20.4641 C   0  0  0  0  0  0
  -22.7223  -10.2133   20.3049 C   0  0  0  0  0  0
  -21.6852   -6.0729   22.5271 C   0  0  0  0  0  0
  -21.4016   -6.5632   23.8203 C   0  0  0  0  0  0
  -21.3659   -5.6787   24.9168 C   0  0  0  0  0  0
  -21.6041   -4.3049   24.7220 C   0  0  0  0  0  0
  -21.8822   -3.8139   23.4341 C   0  0  0  0  0  0
  -21.9195   -4.6957   22.3399 C   0  0  0  0  0  0
  -22.7853  -13.5243   21.1842 C   0  0  0  0  0  0
  -22.1661   -4.2143   21.0975 F   0  0  0  0  0  0
  -21.5633   -3.4530   25.7733 F   0  0  0  0  0  0
  -30.0325  -13.2812   20.4494 N   0  0  0  0  0  0
  -26.3014  -12.9330   20.3372 N   0  0  0  0  0  0
  -25.9306  -11.6491   20.5770 N   0  0  0  0  0  0
  -22.0483  -12.8237   22.0389 N   0  0  0  0  0  0
  -25.4333  -15.1885   20.4096 N   0  0  0  0  0  0
  -31.8116  -14.6567   20.0836 O   0  0  0  0  0  0
  -21.6637   -6.8873   21.4234 O   0  0  0  0  0  0
  -22.3544  -14.5548   20.6688 O   0  0  0  0  0  0
  -24.6136  -31.8670   23.2097 C   0  0  0  0  0  0
  -25.9036  -32.4820   23.8384 C   0  0  1  0  0  0
  -27.2398  -27.4283   20.0876 C   0  0  0  0  0  0
  -25.5897  -33.8623   24.2310 N   0  0  0  0  0  0
  -23.4017  -30.4897   21.5491 C   0  0  2  0  0  0
  -24.8473  -28.9510   20.1165 C   0  0  0  0  0  0
  -22.7405  -29.4649   22.4990 C   0  0  0  0  0  0
  -18.0281  -28.1374   22.8484 C   0  0  0  0  0  0
  -24.1489  -36.7291   23.2639 C   0  0  0  0  0  0
  -25.9309  -30.8259   21.3672 C   0  0  0  0  0  0
  -26.0062  -29.4619   20.7110 C   0  0  0  0  0  0
  -27.1998  -28.7062   20.6938 C   0  0  0  0  0  0
  -26.0532  -26.9208   19.5102 C   0  0  0  0  0  0
  -24.8659  -27.6792   19.5193 C   0  0  0  0  0  0
  -23.6093  -29.8183   20.1648 C   0  0  0  0  0  0
  -25.4115  -36.3097   24.0329 C   0  0  1  0  0  0
  -20.5867  -28.3655   23.1326 C   0  0  2  0  0  0
  -20.6763  -26.9393   22.5417 C   0  0  0  0  0  0
  -19.5743  -26.6378   21.5215 C   0  0  0  0  0  0
  -18.1923  -26.7922   22.1616 C   0  0  0  0  0  0
  -19.1530  -28.8830   23.2902 C   0  0  0  0  0  0
  -18.9463  -30.1434   23.8908 C   0  0  0  0  0  0
  -17.6467  -30.6575   24.0569 C   0  0  0  0  0  0
  -25.9040  -34.9474   23.5117 C   0  0  0  0  0  0
  -16.5354  -29.9074   23.6345 C   0  0  0  0  0  0
  -16.7271  -28.6502   23.0345 C   0  0  0  0  0  0
  -26.4466  -31.6620   25.0729 C   0  0  0  0  0  0
  -25.3726  -31.3724   26.1471 C   0  0  0  0  0  0
  -27.0320  -30.3066   24.6116 C   0  0  0  0  0  0
  -27.6034  -32.4355   25.7493 C   0  0  0  0  0  0
  -27.5580  -37.1804   24.8469 C   0  0  0  0  0  0
  -21.4129  -29.3024   22.3731 N   0  0  0  0  0  0
  -26.4299  -37.3788   23.9407 N   0  0  0  0  0  0
  -24.6670  -31.0761   22.1003 N   0  0  0  0  0  0
  -23.4186  -28.8200   23.3038 O   0  0  0  0  0  0
  -28.4452  -26.7491   20.0924 O   0  0  0  0  0  0
  -26.5614  -34.8923   22.4679 O   0  0  0  0  0  0
  -23.5329  -32.1445   23.7475 O   0  0  0  0  0  0
  -29.4840  -21.9149   22.2534 C   0  0  0  0  0  0
  -28.7538  -20.4623   20.7900 C   0  0  0  0  0  0
  -29.0222  -21.8058   20.9117 C   0  0  0  0  0  0
  -27.7356  -18.4998   23.5820 C   0  0  0  0  0  0
  -31.2242  -18.3503   23.2691 C   0  0  0  0  0  0
  -29.7407  -16.4569   23.8106 C   0  0  0  0  0  0
  -28.8965  -22.9200   19.8808 C   0  0  0  0  0  0
  -28.4278  -24.2882   20.4553 C   0  0  0  0  0  0
  -30.5311  -16.8158   21.4201 C   0  0  0  0  0  0
  -28.5973  -25.4663   19.4635 C   0  0  0  0  0  0
  -28.7611  -18.4457   22.4257 C   0  0  2  0  0  0
  -30.0328  -17.5298   22.7248 C   0  0  0  0  0  0
  -29.4545  -20.7627   22.9020 N   0  0  0  0  0  0
  -29.0237  -19.8424   22.0032 N   0  0  0  0  0  0
  -30.0448  -15.4353   21.2367 N   0  0  0  0  0  0
  -31.4653  -12.4016   19.1212 H   0  0  0  0  0  0
  -30.3239  -11.2888   19.8167 H   0  0  0  0  0  0
  -29.7289  -11.7721   17.4305 H   0  0  0  0  0  0
  -29.6679  -13.4841   17.7668 H   0  0  0  0  0  0
  -27.8175  -11.3134   18.8114 H   0  0  0  0  0  0
  -27.3643  -12.6488   17.7866 H   0  0  0  0  0  0
  -27.7099  -14.2554   19.5852 H   0  0  0  0  0  0
  -28.6738  -11.9371   21.3293 H   0  0  0  0  0  0
  -28.4599  -13.5683   21.8821 H   0  0  0  0  0  0
  -25.2746   -9.5695   22.4757 H   0  0  0  0  0  0
  -23.9987   -7.4642   22.7475 H   0  0  0  0  0  0
  -21.0829   -8.8770   19.8949 H   0  0  0  0  0  0
  -22.3678  -10.9672   19.6154 H   0  0  0  0  0  0
  -21.2004   -7.6140   23.9709 H   0  0  0  0  0  0
  -21.1478   -6.0513   25.9072 H   0  0  0  0  0  0
  -22.0602   -2.7600   23.2842 H   0  0  0  0  0  0
  -22.4074  -11.9879   22.4767 H   0  0  0  0  0  0
  -21.1099  -13.1271   22.2575 H   0  0  0  0  0  0
  -24.6714  -15.8485   20.5215 H   0  0  0  0  0  0
  -26.2879  -15.6229   20.0843 H   0  0  0  0  0  0
  -26.7084  -32.5521   23.1121 H   0  0  0  0  0  0
  -25.0080  -33.9812   25.0476 H   0  0  0  0  0  0
  -22.6902  -31.3063   21.4069 H   0  0  0  0  0  0
  -23.3769  -35.9612   23.3318 H   0  0  0  0  0  0
  -24.3576  -36.8895   22.2049 H   0  0  0  0  0  0
  -23.7224  -37.6489   23.6652 H   0  0  0  0  0  0
  -26.0518  -31.5962   20.6044 H   0  0  0  0  0  0
  -26.8156  -30.8713   21.9911 H   0  0  0  0  0  0
  -28.0982  -29.1016   21.1465 H   0  0  0  0  0  0
  -26.0153  -25.9430   19.0538 H   0  0  0  0  0  0
  -23.9700  -27.2742   19.0713 H   0  0  0  0  0  0
  -23.7131  -30.5925   19.4020 H   0  0  0  0  0  0
  -22.7334  -29.2359   19.8724 H   0  0  0  0  0  0
  -25.1288  -36.1961   25.0823 H   0  0  0  0  0  0
  -20.9962  -28.3202   24.1448 H   0  0  0  0  0  0
  -20.5691  -26.2248   23.3592 H   0  0  0  0  0  0
  -21.6627  -26.7443   22.1190 H   0  0  0  0  0  0
  -19.6915  -25.6306   21.1213 H   0  0  0  0  0  0
  -19.6684  -27.3218   20.6776 H   0  0  0  0  0  0
  -17.4192  -26.6701   21.4009 H   0  0  0  0  0  0
  -18.0297  -26.0057   22.8999 H   0  0  0  0  0  0
  -19.7943  -30.7248   24.2266 H   0  0  0  0  0  0
  -17.5027  -31.6269   24.5147 H   0  0  0  0  0  0
  -15.5357  -30.2973   23.7675 H   0  0  0  0  0  0
  -15.8669  -28.0830   22.7043 H   0  0  0  0  0  0
  -24.5901  -30.7059   25.7809 H   0  0  0  0  0  0
  -24.8909  -32.2881   26.4914 H   0  0  0  0  0  0
  -25.8067  -30.8901   27.0236 H   0  0  0  0  0  0
  -26.2884  -29.6818   24.1139 H   0  0  0  0  0  0
  -27.4077  -29.7296   25.4580 H   0  0  0  0  0  0
  -27.8714  -30.4400   23.9284 H   0  0  0  0  0  0
  -27.2640  -33.3653   26.2065 H   0  0  0  0  0  0
  -28.3836  -32.6923   25.0316 H   0  0  0  0  0  0
  -28.0695  -31.8486   26.5412 H   0  0  0  0  0  0
  -28.2595  -38.0102   24.7523 H   0  0  0  0  0  0
  -28.1074  -36.2636   24.6286 H   0  0  0  0  0  0
  -27.2301  -37.1441   25.8874 H   0  0  0  0  0  0
  -20.9287  -29.8742   21.6945 H   0  0  0  0  0  0
  -26.0186  -38.2864   24.1421 H   0  0  0  0  0  0
  -29.8225  -22.7961   22.7790 H   0  0  0  0  0  0
  -28.3700  -19.8988   19.9502 H   0  0  0  0  0  0
  -27.2927  -17.5263   23.7876 H   0  0  0  0  0  0
  -26.9113  -19.1702   23.3367 H   0  0  0  0  0  0
  -28.1916  -18.8680   24.5011 H   0  0  0  0  0  0
  -32.0648  -17.7081   23.5353 H   0  0  0  0  0  0
  -30.9495  -18.9008   24.1696 H   0  0  0  0  0  0
  -31.5941  -19.0673   22.5359 H   0  0  0  0  0  0
  -30.5837  -15.7747   23.9292 H   0  0  0  0  0  0
  -28.8651  -15.8517   23.5755 H   0  0  0  0  0  0
  -29.5713  -16.9047   24.7898 H   0  0  0  0  0  0
  -28.2171  -22.6287   19.0782 H   0  0  0  0  0  0
  -29.8628  -23.0645   19.3960 H   0  0  0  0  0  0
  -29.0170  -24.5244   21.3416 H   0  0  0  0  0  0
  -27.3911  -24.2237   20.7858 H   0  0  0  0  0  0
  -31.6224  -16.7843   21.4220 H   0  0  0  0  0  0
  -30.2694  -17.4041   20.5383 H   0  0  0  0  0  0
  -27.9827  -25.3409   18.5731 H   0  0  0  0  0  0
  -29.6209  -25.4497   19.0888 H   0  0  0  0  0  0
  -28.2239  -17.9779   21.5986 H   0  0  0  0  0  0
  -29.1414  -15.2046   21.6207 H   0  0  0  0  0  0
  1 25  1  0  0  0
  1 30  2  0  0  0
  1 85  1  0  0  0
  2  3  1  0  0  0
  2 25  1  0  0  0
  2 86  1  0  0  0
  2 87  1  0  0  0
  3  4  1  0  0  0
  3 88  1  0  0  0
  3 89  1  0  0  0
  4  5  1  0  0  0
  4 90  1  0  0  0
  4 91  1  0  0  0
  5  6  1  0  0  0
  5 26  1  0  0  0
  5 92  1  0  0  0
  6 25  1  0  0  0
  6 93  1  0  0  0
  6 94  1  0  0  0
  7  8  2  0  0  0
  7 26  1  0  0  0
  7 29  1  0  0  0
  8  9  1  0  0  0
  8 22  1  0  0  0
  9 10  1  0  0  0
  9 27  2  0  0  0
 10 11  2  0  0  0
 10 15  1  0  0  0
 11 12  1  0  0  0
 11 95  1  0  0  0
 12 13  2  0  0  0
 12 96  1  0  0  0
 13 14  1  0  0  0
 13 31  1  0  0  0
 14 15  2  0  0  0
 14 97  1  0  0  0
 15 98  1  0  0  0
 16 17  2  0  0  0
 16 21  1  0  0  0
 16 31  1  0  0  0
 17 18  1  0  0  0
 17 99  1  0  0  0
 18 19  2  0  0  0
 18100  1  0  0  0
 19 20  1  0  0  0
 19 24  1  0  0  0
 20 21  2  0  0  0
 20101  1  0  0  0
 21 23  1  0  0  0
 22 28  1  0  0  0
 22 32  2  0  0  0
 26 27  1  0  0  0
 28102  1  0  0  0
 28103  1  0  0  0
 29104  1  0  0  0
 29105  1  0  0  0
 33 34  1  0  0  0
 33 66  1  0  0  0
 33 70  2  0  0  0
 34 36  1  0  0  0
 34 59  1  0  0  0
 34106  1  0  0  0
 35 44  2  0  0  0
 35 45  1  0  0  0
 35 68  1  0  0  0
 36 56  1  0  0  0
 36107  1  0  0  0
 37 39  1  0  0  0
 37 47  1  0  0  0
 37 66  1  0  0  0
 37108  1  0  0  0
 38 43  2  0  0  0
 38 46  1  0  0  0
 38 47  1  0  0  0
 39 64  1  0  0  0
 39 67  2  0  0  0
 40 52  1  0  0  0
 40 53  2  0  0  0
 40 58  1  0  0  0
 41109  1  0  0  0
 41110  1  0  0  0
 41111  1  0  0  0
 41 48  1  0  0  0
 42 43  1  0  0  0
 42 66  1  0  0  0
 42112  1  0  0  0
 42113  1  0  0  0
 43 44  1  0  0  0
 44114  1  0  0  0
 45 46  2  0  0  0
 45115  1  0  0  0
 46116  1  0  0  0
 47117  1  0  0  0
 47118  1  0  0  0
 48 56  1  0  0  0
 48 65  1  0  0  0
 48119  1  0  0  0
 49 50  1  0  0  0
 49 53  1  0  0  0
 49 64  1  0  0  0
 49120  1  0  0  0
 50 51  1  0  0  0
 50121  1  0  0  0
 50122  1  0  0  0
 51 52  1  0  0  0
 51123  1  0  0  0
 51124  1  0  0  0
 52125  1  0  0  0
 52126  1  0  0  0
 53 54  1  0  0  0
 54 55  2  0  0  0
 54127  1  0  0  0
 55 57  1  0  0  0
 55128  1  0  0  0
 56 69  2  0  0  0
 57 58  2  0  0  0
 57129  1  0  0  0
 58130  1  0  0  0
 59 60  1  0  0  0
 59 61  1  0  0  0
 59 62  1  0  0  0
 60131  1  0  0  0
 60132  1  0  0  0
 60133  1  0  0  0
 61134  1  0  0  0
 61135  1  0  0  0
 61136  1  0  0  0
 62137  1  0  0  0
 62138  1  0  0  0
 62139  1  0  0  0
 63 65  1  0  0  0
 63140  1  0  0  0
 63141  1  0  0  0
 63142  1  0  0  0
 64143  1  0  0  0
 65144  1  0  0  0
 68 80  1  0  0  0
 71 73  1  0  0  0
 71 83  2  0  0  0
 71145  1  0  0  0
 72 73  2  0  0  0
 72 84  1  0  0  0
 72146  1  0  0  0
 73 77  1  0  0  0
 74147  1  0  0  0
 74148  1  0  0  0
 74149  1  0  0  0
 74 81  1  0  0  0
 75150  1  0  0  0
 75151  1  0  0  0
 75152  1  0  0  0
 75 82  1  0  0  0
 76 82  1  0  0  0
 76153  1  0  0  0
 76154  1  0  0  0
 76155  1  0  0  0
 77 78  1  0  0  0
 77156  1  0  0  0
 77157  1  0  0  0
 78 80  1  0  0  0
 78158  1  0  0  0
 78159  1  0  0  0
 79 82  1  0  0  0
 79 85  1  0  0  0
 79160  1  0  0  0
 79161  1  0  0  0
 80162  1  0  0  0
 80163  1  0  0  0
 81 82  1  0  0  0
 81 84  1  0  0  0
 81164  1  0  0  0
 83 84  1  0  0  0
 85165  1  0  0  0
M  ISO  4   1 100  68 101  80 101  85 100
M  END
> <chiral flag>
0

> <version>
0

> <s_m_source_file>
/data/baiqing/PycharmProjects/Reinvent-master-3.2/result/LINK_invent/BTK/process_docking_weight1_custom_sum_contain_oxygen_bond_distance_aromatic_linkinvent_7_9_3/rearranged_h_0066.sdf

> <i_m_source_file_index>
22

> <r_mmod_Potential_Energy-OPLS-2005>
-51.5603561401367

> <r_mmod_Stretch_Energy-OPLS-2005>
44.7102508544922

> <r_mmod_Bend_Energy-OPLS-2005>
117.537124633789

> <r_mmod_Torsional_Energy-OPLS-2005>
238.268844604492

> <r_mmod_Improper_Torsional_Energy-OPLS-2005>
3.07866501808167

> <r_mmod_Van_der_Waal_Energy-OPLS-2005>
145.21354675293

> <r_mmod_Electrostatic_Energy-OPLS-2005>
-399.2353515625

> <r_mmod_Solvation_Energy-OPLS-2005>
-212.676498413086

> <b_mmod_Minimization_Converged-OPLS-2005>
0

> <r_mmod_RMS_Derivative-OPLS-2005>
1.85320794582367

$$$$
23
                    3D
 Structure written by MMmdl.
205213  0  0  1  0            999 V2000
  -30.6868  -14.4734   20.5766 C   0  0  0  0  0  0
  -30.4282  -12.3122   19.4110 C   0  0  0  0  0  0
  -29.4929  -12.5081   18.1999 C   0  0  0  0  0  0
  -28.0134  -12.3741   18.6161 C   0  0  0  0  0  0
  -27.6642  -13.2049   19.8805 C   0  0  2  0  0  0
  -28.7085  -12.9559   20.9891 C   0  0  0  0  0  0
  -25.2622  -13.8153   20.5710 C   0  0  0  0  0  0
  -24.1864  -13.0423   20.9175 C   0  0  0  0  0  0
  -24.6419  -11.6894   20.8737 C   0  0  0  0  0  0
  -23.9078  -10.4284   21.0404 C   0  0  0  0  0  0
  -24.3638   -9.4195   21.9172 C   0  0  0  0  0  0
  -23.6313   -8.2234   22.0738 C   0  0  0  0  0  0
  -22.4292   -8.0276   21.3535 C   0  0  0  0  0  0
  -21.9931   -9.0245   20.4628 C   0  0  0  0  0  0
  -22.7255  -10.2128   20.3043 C   0  0  0  0  0  0
  -21.6860   -6.0739   22.5283 C   0  0  0  0  0  0
  -21.4017   -6.5645   23.8215 C   0  0  0  0  0  0
  -21.3653   -5.6800   24.9180 C   0  0  0  0  0  0
  -21.6047   -4.3063   24.7227 C   0  0  0  0  0  0
  -21.8827   -3.8148   23.4349 C   0  0  0  0  0  0
  -21.9200   -4.6964   22.3407 C   0  0  0  0  0  0
  -22.7886  -13.5204   21.1835 C   0  0  0  0  0  0
  -22.1671   -4.2150   21.0985 F   0  0  0  0  0  0
  -21.5624   -3.4544   25.7738 F   0  0  0  0  0  0
  -30.0292  -13.2886   20.4371 N   0  0  0  0  0  0
  -26.3058  -12.9314   20.3417 N   0  0  0  0  0  0
  -25.9347  -11.6472   20.5781 N   0  0  0  0  0  0
  -22.0552  -12.8179   22.0396 N   0  0  0  0  0  0
  -25.4393  -15.1866   20.4162 N   0  0  0  0  0  0
  -31.8232  -14.6220   20.1152 O   0  0  0  0  0  0
  -21.6646   -6.8882   21.4243 O   0  0  0  0  0  0
  -22.3546  -14.5498   20.6676 O   0  0  0  0  0  0
  -24.6125  -31.8695   23.2089 C   0  0  0  0  0  0
  -25.9020  -32.4827   23.8374 C   0  0  1  0  0  0
  -27.2273  -27.4313   20.0807 C   0  0  0  0  0  0
  -25.5860  -33.8618   24.2309 N   0  0  0  0  0  0
  -23.4007  -30.4973   21.5495 C   0  0  2  0  0  0
  -24.8426  -28.9621   20.1159 C   0  0  0  0  0  0
  -22.7405  -29.4695   22.4968 C   0  0  0  0  0  0
  -18.0259  -28.1401   22.8482 C   0  0  0  0  0  0
  -24.1481  -36.7334   23.2642 C   0  0  0  0  0  0
  -25.9303  -30.8337   21.3626 C   0  0  0  0  0  0
  -26.0051  -29.4680   20.7100 C   0  0  0  0  0  0
  -27.1980  -28.7085   20.6906 C   0  0  0  0  0  0
  -26.0346  -26.9365   19.4986 C   0  0  0  0  0  0
  -24.8506  -27.6952   19.5130 C   0  0  0  0  0  0
  -23.6099  -29.8347   20.1626 C   0  0  0  0  0  0
  -25.4100  -36.3122   24.0336 C   0  0  1  0  0  0
  -20.5853  -28.3698   23.1296 C   0  0  2  0  0  0
  -20.6764  -26.9432   22.5418 C   0  0  0  0  0  0
  -19.5744  -26.6409   21.5213 C   0  0  0  0  0  0
  -18.1917  -26.7944   22.1623 C   0  0  0  0  0  0
  -19.1511  -28.8858   23.2894 C   0  0  0  0  0  0
  -18.9452  -30.1456   23.8917 C   0  0  0  0  0  0
  -17.6460  -30.6612   24.0572 C   0  0  0  0  0  0
  -25.9030  -34.9487   23.5133 C   0  0  0  0  0  0
  -16.5345  -29.9131   23.6319 C   0  0  0  0  0  0
  -16.7251  -28.6550   23.0337 C   0  0  0  0  0  0
  -26.4446  -31.6591   25.0699 C   0  0  0  0  0  0
  -25.3697  -31.3677   26.1428 C   0  0  0  0  0  0
  -27.0286  -30.3031   24.6084 C   0  0  0  0  0  0
  -27.6033  -32.4299   25.7443 C   0  0  0  0  0  0
  -27.5580  -37.1813   24.8463 C   0  0  0  0  0  0
  -21.4127  -29.3066   22.3711 N   0  0  0  0  0  0
  -26.4294  -37.3804   23.9419 N   0  0  0  0  0  0
  -24.6664  -31.0810   22.0984 N   0  0  0  0  0  0
  -23.4171  -28.8233   23.3004 O   0  0  0  0  0  0
  -28.4174  -26.7268   20.0759 O   0  0  0  0  0  0
  -26.5626  -34.8937   22.4709 O   0  0  0  0  0  0
  -23.5313  -32.1458   23.7473 O   0  0  0  0  0  0
  -30.8341  -17.4078   19.4668 C   0  0  0  0  0  0
  -30.3367  -18.5528   18.8934 C   0  0  0  0  0  0
  -29.1089  -18.7502   19.6215 C   0  0  0  0  0  0
  -30.5659  -20.1235   15.2659 C   0  0  0  0  0  0
  -32.1948  -17.3273   16.5481 C   0  0  0  0  0  0
  -30.7364  -16.0757   22.5457 C   0  0  0  0  0  0
  -25.5606  -21.3597   20.5725 C   0  0  0  0  0  0
  -30.4220  -21.9602   18.1309 C   0  0  0  0  0  0
  -33.1020  -24.6761   21.7840 C   0  0  0  0  0  0
  -35.1789  -23.2074   21.6277 C   0  0  0  0  0  0
  -31.7442  -21.9307   22.6298 C   0  0  0  0  0  0
  -28.0667  -19.8553   19.5437 C   0  0  0  0  0  0
  -30.0379  -19.4303   16.5403 C   0  0  0  0  0  0
  -32.3236  -18.6697   17.3039 C   0  0  0  0  0  0
  -28.0571  -20.8071   20.7717 C   0  0  0  0  0  0
  -27.9702  -24.3163   20.4915 C   0  0  0  0  0  0
  -27.2425  -23.1270   19.8205 C   0  0  0  0  0  0
  -31.9939  -20.7930   19.7533 C   0  0  0  0  0  0
  -32.5195  -22.1516   20.2772 C   0  0  0  0  0  0
  -28.4584  -25.4087   19.5079 C   0  0  0  0  0  0
  -30.0036  -15.7110   21.2431 C   0  0  1  0  0  0
  -26.9741  -21.9280   20.7745 C   0  0  1  0  0  0
  -31.4472  -20.8133   18.2937 C   0  0  1  0  0  0
  -33.7325  -23.3126   22.1417 C   0  0  0  0  0  0
  -31.0030  -19.3825   17.7705 C   0  0  0  0  0  0
  -28.8796  -17.7564   20.4802 N   0  0  0  0  0  0
  -29.9230  -16.8999   20.3689 N   0  0  0  0  0  0
  -32.9024  -22.1425   21.7198 N   0  3  1  0  0  0
  -31.4699  -12.4231   19.1046 H   0  0  0  0  0  0
  -30.3447  -11.2984   19.8057 H   0  0  0  0  0  0
  -29.7280  -11.7812   17.4221 H   0  0  0  0  0  0
  -29.6619  -13.4927   17.7604 H   0  0  0  0  0  0
  -27.8195  -11.3174   18.8046 H   0  0  0  0  0  0
  -27.3624  -12.6603   17.7900 H   0  0  0  0  0  0
  -27.7156  -14.2572   19.5998 H   0  0  0  0  0  0
  -28.6940  -11.9048   21.2820 H   0  0  0  0  0  0
  -28.4737  -13.4966   21.9050 H   0  0  0  0  0  0
  -25.2792   -9.5665   22.4728 H   0  0  0  0  0  0
  -24.0023   -7.4625   22.7465 H   0  0  0  0  0  0
  -21.0858   -8.8770   19.8929 H   0  0  0  0  0  0
  -22.3722  -10.9671   19.6149 H   0  0  0  0  0  0
  -21.2015   -7.6155   23.9715 H   0  0  0  0  0  0
  -21.1463   -6.0532   25.9083 H   0  0  0  0  0  0
  -22.0612   -2.7609   23.2859 H   0  0  0  0  0  0
  -22.4220  -11.9868   22.4796 H   0  0  0  0  0  0
  -21.1137  -13.1131   22.2576 H   0  0  0  0  0  0
  -24.6849  -15.8530   20.5362 H   0  0  0  0  0  0
  -26.3111  -15.6243   20.1433 H   0  0  0  0  0  0
  -26.7091  -32.5546   23.1136 H   0  0  0  0  0  0
  -24.9909  -33.9770   25.0380 H   0  0  0  0  0  0
  -22.6879  -31.3132   21.4112 H   0  0  0  0  0  0
  -23.3746  -35.9666   23.3311 H   0  0  0  0  0  0
  -24.3564  -36.8957   22.2058 H   0  0  0  0  0  0
  -23.7239  -37.6539   23.6659 H   0  0  0  0  0  0
  -26.0427  -31.6010   20.5949 H   0  0  0  0  0  0
  -26.8169  -30.8838   21.9832 H   0  0  0  0  0  0
  -28.0986  -29.0996   21.1445 H   0  0  0  0  0  0
  -25.9825  -25.9682   19.0258 H   0  0  0  0  0  0
  -23.9525  -27.2980   19.0594 H   0  0  0  0  0  0
  -23.7274  -30.6120   19.4057 H   0  0  0  0  0  0
  -22.7305  -29.2630   19.8637 H   0  0  0  0  0  0
  -25.1274  -36.1986   25.0832 H   0  0  0  0  0  0
  -20.9915  -28.3293   24.1425 H   0  0  0  0  0  0
  -20.5661  -26.2324   23.3618 H   0  0  0  0  0  0
  -21.6641  -26.7493   22.1210 H   0  0  0  0  0  0
  -19.6920  -25.6325   21.1243 H   0  0  0  0  0  0
  -19.6682  -27.3224   20.6742 H   0  0  0  0  0  0
  -17.4181  -26.6650   21.4041 H   0  0  0  0  0  0
  -18.0333  -26.0096   22.9031 H   0  0  0  0  0  0
  -19.7934  -30.7248   24.2317 H   0  0  0  0  0  0
  -17.5033  -31.6276   24.5203 H   0  0  0  0  0  0
  -15.5355  -30.3059   23.7645 H   0  0  0  0  0  0
  -15.8634  -28.0900   22.7038 H   0  0  0  0  0  0
  -24.5866  -30.7046   25.7734 H   0  0  0  0  0  0
  -24.8881  -32.2822   26.4894 H   0  0  0  0  0  0
  -25.8014  -30.8806   27.0177 H   0  0  0  0  0  0
  -26.2841  -29.6754   24.1176 H   0  0  0  0  0  0
  -27.4106  -29.7292   25.4536 H   0  0  0  0  0  0
  -27.8638  -30.4356   23.9203 H   0  0  0  0  0  0
  -27.2683  -33.3597   26.2043 H   0  0  0  0  0  0
  -28.3806  -32.6861   25.0233 H   0  0  0  0  0  0
  -28.0731  -31.8401   26.5321 H   0  0  0  0  0  0
  -28.2598  -38.0114   24.7521 H   0  0  0  0  0  0
  -28.1079  -36.2647   24.6275 H   0  0  0  0  0  0
  -27.2291  -37.1441   25.8864 H   0  0  0  0  0  0
  -20.9289  -29.8814   21.6958 H   0  0  0  0  0  0
  -26.0190  -38.2883   24.1432 H   0  0  0  0  0  0
  -31.7672  -16.8970   19.2823 H   0  0  0  0  0  0
  -29.7839  -20.1597   14.5073 H   0  0  0  0  0  0
  -31.4080  -19.5940   14.8239 H   0  0  0  0  0  0
  -30.8887  -21.1469   15.4497 H   0  0  0  0  0  0
  -33.1746  -16.8620   16.4403 H   0  0  0  0  0  0
  -31.8064  -17.4674   15.5405 H   0  0  0  0  0  0
  -31.5461  -16.6094   17.0459 H   0  0  0  0  0  0
  -30.2279  -16.8888   23.0629 H   0  0  0  0  0  0
  -31.7610  -16.3932   22.3490 H   0  0  0  0  0  0
  -30.7745  -15.2249   23.2269 H   0  0  0  0  0  0
  -25.3670  -20.5267   21.2492 H   0  0  0  0  0  0
  -25.4077  -21.0081   19.5526 H   0  0  0  0  0  0
  -24.8038  -22.1190   20.7717 H   0  0  0  0  0  0
  -30.9321  -22.9200   18.0544 H   0  0  0  0  0  0
  -29.7730  -22.0289   18.9927 H   0  0  0  0  0  0
  -29.7948  -21.9033   17.2467 H   0  0  0  0  0  0
  -33.6703  -25.4896   22.2352 H   0  0  0  0  0  0
  -32.0789  -24.7626   22.1499 H   0  0  0  0  0  0
  -33.0913  -24.8546   20.7087 H   0  0  0  0  0  0
  -35.7948  -23.9985   22.0556 H   0  0  0  0  0  0
  -35.2457  -23.3040   20.5448 H   0  0  0  0  0  0
  -35.6344  -22.2579   21.9096 H   0  0  0  0  0  0
  -31.3129  -20.9375   22.5131 H   0  0  0  0  0  0
  -30.9561  -22.6623   22.4484 H   0  0  0  0  0  0
  -32.0363  -22.0115   23.6777 H   0  0  0  0  0  0
  -27.0866  -19.3887   19.4479 H   0  0  0  0  0  0
  -28.1790  -20.4413   18.6381 H   0  0  0  0  0  0
  -29.7559  -18.4123   16.2709 H   0  0  0  0  0  0
  -29.0894  -19.8886   16.8020 H   0  0  0  0  0  0
  -32.8889  -19.3296   16.6441 H   0  0  0  0  0  0
  -32.9832  -18.5222   18.1581 H   0  0  0  0  0  0
  -29.0398  -21.2548   20.9107 H   0  0  0  0  0  0
  -27.9095  -20.1940   21.6613 H   0  0  0  0  0  0
  -28.8244  -23.9590   21.0681 H   0  0  0  0  0  0
  -27.2904  -24.7571   21.2222 H   0  0  0  0  0  0
  -27.7614  -22.8000   18.9224 H   0  0  0  0  0  0
  -26.2904  -23.5122   19.4524 H   0  0  0  0  0  0
  -31.2035  -20.4429   20.4110 H   0  0  0  0  0  0
  -32.7958  -20.0583   19.8325 H   0  0  0  0  0  0
  -31.7684  -22.9282   20.1440 H   0  0  0  0  0  0
  -33.3705  -22.4415   19.6620 H   0  0  0  0  0  0
  -27.9445  -25.3713   18.5479 H   0  0  0  0  0  0
  -29.4980  -25.1966   19.2569 H   0  0  0  0  0  0
  -28.9754  -15.4761   21.5050 H   0  0  0  0  0  0
  -26.9750  -22.3372   21.7869 H   0  0  0  0  0  0
  -32.2679  -21.1405   17.6543 H   0  0  0  0  0  0
  -33.8127  -23.2757   23.2298 H   0  0  0  0  0  0
  -33.4979  -21.3385   21.8576 H   0  0  0  0  0  0
  1 25  1  0  0  0
  1 30  2  0  0  0
  1 91  1  0  0  0
  2  3  1  0  0  0
  2 25  1  0  0  0
  2 99  1  0  0  0
  2100  1  0  0  0
  3  4  1  0  0  0
  3101  1  0  0  0
  3102  1  0  0  0
  4  5  1  0  0  0
  4103  1  0  0  0
  4104  1  0  0  0
  5  6  1  0  0  0
  5 26  1  0  0  0
  5105  1  0  0  0
  6 25  1  0  0  0
  6106  1  0  0  0
  6107  1  0  0  0
  7  8  2  0  0  0
  7 26  1  0  0  0
  7 29  1  0  0  0
  8  9  1  0  0  0
  8 22  1  0  0  0
  9 10  1  0  0  0
  9 27  2  0  0  0
 10 11  2  0  0  0
 10 15  1  0  0  0
 11 12  1  0  0  0
 11108  1  0  0  0
 12 13  2  0  0  0
 12109  1  0  0  0
 13 14  1  0  0  0
 13 31  1  0  0  0
 14 15  2  0  0  0
 14110  1  0  0  0
 15111  1  0  0  0
 16 17  2  0  0  0
 16 21  1  0  0  0
 16 31  1  0  0  0
 17 18  1  0  0  0
 17112  1  0  0  0
 18 19  2  0  0  0
 18113  1  0  0  0
 19 20  1  0  0  0
 19 24  1  0  0  0
 20 21  2  0  0  0
 20114  1  0  0  0
 21 23  1  0  0  0
 22 28  1  0  0  0
 22 32  2  0  0  0
 26 27  1  0  0  0
 28115  1  0  0  0
 28116  1  0  0  0
 29117  1  0  0  0
 29118  1  0  0  0
 33 34  1  0  0  0
 33 66  1  0  0  0
 33 70  2  0  0  0
 34 36  1  0  0  0
 34 59  1  0  0  0
 34119  1  0  0  0
 35 44  2  0  0  0
 35 45  1  0  0  0
 35 68  1  0  0  0
 36 56  1  0  0  0
 36120  1  0  0  0
 37 39  1  0  0  0
 37 47  1  0  0  0
 37 66  1  0  0  0
 37121  1  0  0  0
 38 43  2  0  0  0
 38 46  1  0  0  0
 38 47  1  0  0  0
 39 64  1  0  0  0
 39 67  2  0  0  0
 40 52  1  0  0  0
 40 53  2  0  0  0
 40 58  1  0  0  0
 41122  1  0  0  0
 41123  1  0  0  0
 41124  1  0  0  0
 41 48  1  0  0  0
 42 43  1  0  0  0
 42 66  1  0  0  0
 42125  1  0  0  0
 42126  1  0  0  0
 43 44  1  0  0  0
 44127  1  0  0  0
 45 46  2  0  0  0
 45128  1  0  0  0
 46129  1  0  0  0
 47130  1  0  0  0
 47131  1  0  0  0
 48 56  1  0  0  0
 48 65  1  0  0  0
 48132  1  0  0  0
 49 50  1  0  0  0
 49 53  1  0  0  0
 49 64  1  0  0  0
 49133  1  0  0  0
 50 51  1  0  0  0
 50134  1  0  0  0
 50135  1  0  0  0
 51 52  1  0  0  0
 51136  1  0  0  0
 51137  1  0  0  0
 52138  1  0  0  0
 52139  1  0  0  0
 53 54  1  0  0  0
 54 55  2  0  0  0
 54140  1  0  0  0
 55 57  1  0  0  0
 55141  1  0  0  0
 56 69  2  0  0  0
 57 58  2  0  0  0
 57142  1  0  0  0
 58143  1  0  0  0
 59 60  1  0  0  0
 59 61  1  0  0  0
 59 62  1  0  0  0
 60144  1  0  0  0
 60145  1  0  0  0
 60146  1  0  0  0
 61147  1  0  0  0
 61148  1  0  0  0
 61149  1  0  0  0
 62150  1  0  0  0
 62151  1  0  0  0
 62152  1  0  0  0
 63 65  1  0  0  0
 63153  1  0  0  0
 63154  1  0  0  0
 63155  1  0  0  0
 64156  1  0  0  0
 65157  1  0  0  0
 68 90  1  0  0  0
 71 72  2  0  0  0
 71 97  1  0  0  0
 71158  1  0  0  0
 72 73  1  0  0  0
 72 95  1  0  0  0
 73 82  1  0  0  0
 73 96  2  0  0  0
 74 83  1  0  0  0
 74159  1  0  0  0
 74160  1  0  0  0
 74161  1  0  0  0
 75 84  1  0  0  0
 75162  1  0  0  0
 75163  1  0  0  0
 75164  1  0  0  0
 76165  1  0  0  0
 76166  1  0  0  0
 76167  1  0  0  0
 76 91  1  0  0  0
 77168  1  0  0  0
 77169  1  0  0  0
 77170  1  0  0  0
 77 92  1  0  0  0
 78171  1  0  0  0
 78172  1  0  0  0
 78173  1  0  0  0
 78 93  1  0  0  0
 79174  1  0  0  0
 79175  1  0  0  0
 79176  1  0  0  0
 79 94  1  0  0  0
 80 94  1  0  0  0
 80177  1  0  0  0
 80178  1  0  0  0
 80179  1  0  0  0
 81180  1  0  0  0
 81181  1  0  0  0
 81182  1  0  0  0
 81 98  1  0  0  0
 82 85  1  0  0  0
 82183  1  0  0  0
 82184  1  0  0  0
 83185  1  0  0  0
 83186  1  0  0  0
 83 95  1  0  0  0
 84 95  1  0  0  0
 84187  1  0  0  0
 84188  1  0  0  0
 85 92  1  0  0  0
 85189  1  0  0  0
 85190  1  0  0  0
 86 87  1  0  0  0
 86 90  1  0  0  0
 86191  1  0  0  0
 86192  1  0  0  0
 87 92  1  0  0  0
 87193  1  0  0  0
 87194  1  0  0  0
 88 89  1  0  0  0
 88 93  1  0  0  0
 88195  1  0  0  0
 88196  1  0  0  0
 89 98  1  0  0  0
 89197  1  0  0  0
 89198  1  0  0  0
 90199  1  0  0  0
 90200  1  0  0  0
 91 97  1  0  0  0
 91201  1  0  0  0
 92202  1  0  0  0
 93 95  1  0  0  0
 93203  1  0  0  0
 94 98  1  0  0  0
 94204  1  0  0  0
 96 97  1  0  0  0
 98205  1  0  0  0
M  CHG  1  98   1
M  ISO  4   1 100  68 101  90 101  91 100
M  END
> <chiral flag>
0

> <version>
0

> <s_m_source_file>
/data/baiqing/PycharmProjects/Reinvent-master-3.2/result/LINK_invent/BTK/process_docking_weight1_custom_sum_contain_oxygen_bond_distance_aromatic_linkinvent_7_9_3/rearranged_h_0066.sdf

> <i_m_source_file_index>
23

> <r_mmod_Potential_Energy-OPLS-2005>
-27.8540115356445

> <r_mmod_Stretch_Energy-OPLS-2005>
54.7150497436523

> <r_mmod_Bend_Energy-OPLS-2005>
143.145599365234

> <r_mmod_Torsional_Energy-OPLS-2005>
249.591613769531

> <r_mmod_Improper_Torsional_Energy-OPLS-2005>
2.43640780448914

> <r_mmod_Van_der_Waal_Energy-OPLS-2005>
144.274047851562

> <r_mmod_Electrostatic_Energy-OPLS-2005>
-249.820159912109

> <r_mmod_Solvation_Energy-OPLS-2005>
-385.087524414062

> <b_mmod_Minimization_Converged-OPLS-2005>
0

> <r_mmod_RMS_Derivative-OPLS-2005>
1.85028290748596

$$$$
24
                    3D
 Structure written by MMmdl.
203211  0  0  1  0            999 V2000
  -30.7542  -14.5683   20.6109 C   0  0  0  0  0  0
  -30.4032  -12.3728   19.4937 C   0  0  0  0  0  0
  -29.5137  -12.4979   18.2435 C   0  0  0  0  0  0
  -28.0352  -12.3169   18.6233 C   0  0  0  0  0  0
  -27.6384  -13.1876   19.8381 C   0  0  2  0  0  0
  -28.6704  -13.0870   20.9884 C   0  0  0  0  0  0
  -25.2429  -13.7985   20.5449 C   0  0  0  0  0  0
  -24.1738  -13.0260   20.9190 C   0  0  0  0  0  0
  -24.6307  -11.6768   20.8707 C   0  0  0  0  0  0
  -23.8999  -10.4157   21.0373 C   0  0  0  0  0  0
  -24.3514   -9.4103   21.9182 C   0  0  0  0  0  0
  -23.6202   -8.2143   22.0762 C   0  0  0  0  0  0
  -22.4211   -8.0167   21.3528 C   0  0  0  0  0  0
  -21.9821   -9.0138   20.4650 C   0  0  0  0  0  0
  -22.7153  -10.2025   20.3055 C   0  0  0  0  0  0
  -21.6843   -6.0616   22.5222 C   0  0  0  0  0  0
  -21.4005   -6.5565   23.8127 C   0  0  0  0  0  0
  -21.3687   -5.6768   24.9130 C   0  0  0  0  0  0
  -21.6055   -4.3011   24.7229 C   0  0  0  0  0  0
  -21.8832   -3.8068   23.4357 C   0  0  0  0  0  0
  -21.9186   -4.6852   22.3390 C   0  0  0  0  0  0
  -22.7794  -13.5129   21.1911 C   0  0  0  0  0  0
  -22.1659   -4.2027   21.0976 F   0  0  0  0  0  0
  -21.5652   -3.4525   25.7762 F   0  0  0  0  0  0
  -30.0068  -13.4184   20.4670 N   0  0  0  0  0  0
  -26.2837  -12.9140   20.3038 N   0  0  0  0  0  0
  -25.9205  -11.6331   20.5637 N   0  0  0  0  0  0
  -22.0381  -12.8122   22.0480 N   0  0  0  0  0  0
  -25.3795  -15.1639   20.3629 N   0  0  0  0  0  0
  -31.8272  -14.6353   20.0029 O   0  0  0  0  0  0
  -21.6626   -6.8734   21.4168 O   0  0  0  0  0  0
  -22.3513  -14.5445   20.6809 O   0  0  0  0  0  0
  -24.6246  -31.8638   23.2096 C   0  0  0  0  0  0
  -25.9111  -32.4805   23.8408 C   0  0  1  0  0  0
  -27.2176  -27.3606   20.0903 C   0  0  0  0  0  0
  -25.5947  -33.8596   24.2337 N   0  0  0  0  0  0
  -23.4159  -30.4879   21.5518 C   0  0  2  0  0  0
  -24.8574  -28.9564   20.1089 C   0  0  0  0  0  0
  -22.7474  -29.4625   22.4982 C   0  0  0  0  0  0
  -18.0285  -28.1414   22.8492 C   0  0  0  0  0  0
  -24.1482  -36.7266   23.2645 C   0  0  0  0  0  0
  -25.9547  -30.7969   21.3828 C   0  0  0  0  0  0
  -26.0240  -29.4334   20.7219 C   0  0  0  0  0  0
  -27.2066  -28.6441   20.7106 C   0  0  0  0  0  0
  -26.0339  -26.9455   19.4398 C   0  0  0  0  0  0
  -24.8637  -27.7189   19.4584 C   0  0  0  0  0  0
  -23.6260  -29.8281   20.1653 C   0  0  0  0  0  0
  -25.4116  -36.3102   24.0342 C   0  0  1  0  0  0
  -20.5858  -28.3696   23.1290 C   0  0  2  0  0  0
  -20.6775  -26.9429   22.5399 C   0  0  0  0  0  0
  -19.5742  -26.6408   21.5222 C   0  0  0  0  0  0
  -18.1922  -26.7959   22.1623 C   0  0  0  0  0  0
  -19.1534  -28.8878   23.2881 C   0  0  0  0  0  0
  -18.9458  -30.1475   23.8907 C   0  0  0  0  0  0
  -17.6459  -30.6620   24.0560 C   0  0  0  0  0  0
  -25.9043  -34.9474   23.5145 C   0  0  0  0  0  0
  -16.5345  -29.9098   23.6352 C   0  0  0  0  0  0
  -16.7268  -28.6505   23.0395 C   0  0  0  0  0  0
  -26.4524  -31.6609   25.0776 C   0  0  0  0  0  0
  -25.3773  -31.3636   26.1501 C   0  0  0  0  0  0
  -27.0431  -30.3067   24.6219 C   0  0  0  0  0  0
  -27.6118  -32.4354   25.7498 C   0  0  0  0  0  0
  -27.5583  -37.1791   24.8472 C   0  0  0  0  0  0
  -21.4184  -29.3065   22.3703 N   0  0  0  0  0  0
  -26.4298  -37.3804   23.9424 N   0  0  0  0  0  0
  -24.6844  -31.0654   22.1054 N   0  0  0  0  0  0
  -23.4197  -28.8178   23.3093 O   0  0  0  0  0  0
  -28.3392  -26.5276   20.1346 O   0  0  0  0  0  0
  -26.5594  -34.8912   22.4693 O   0  0  0  0  0  0
  -23.5425  -32.1458   23.7434 O   0  0  0  0  0  0
  -28.2747  -16.6118   20.2693 C   0  0  0  0  0  0
  -29.5957  -16.8942   20.6118 C   0  0  0  0  0  0
  -28.2022  -18.3887   18.7612 C   0  0  0  0  0  0
  -29.4811  -18.8703   19.2530 C   0  0  0  0  0  0
  -24.4190  -18.5258   16.2062 C   0  0  0  0  0  0
  -29.6949  -15.5892   22.8198 C   0  0  0  0  0  0
  -31.7875  -19.7261   18.8847 C   0  0  0  0  0  0
  -30.1723  -20.7040   17.4086 C   0  0  0  0  0  0
  -27.9943  -16.4630   14.3862 C   0  0  0  0  0  0
  -29.5132  -17.1906   16.1588 C   0  0  0  0  0  0
  -28.5866  -18.8599   14.5340 C   0  0  0  0  0  0
  -31.4712  -22.2140   20.1725 C   0  0  0  0  0  0
  -29.5844  -21.0013   21.2603 C   0  0  0  0  0  0
  -26.4692  -16.5121   16.8463 C   0  0  0  0  0  0
  -27.3482  -18.9003   17.5762 C   0  0  0  0  0  0
  -25.8229  -18.5415   15.5576 C   0  0  0  0  0  0
  -29.2392  -24.0849   20.1337 C   0  0  0  0  0  0
  -29.1510  -22.6739   19.4139 C   0  0  0  0  0  0
  -31.7636  -16.5872   21.8905 C   0  0  0  0  0  0
  -28.1603  -25.1370   19.7116 C   0  0  0  0  0  0
  -30.4198  -15.8750   21.4682 C   0  0  1  0  0  0
  -30.2940  -20.2095   18.8801 C   0  0  0  0  0  0
  -28.2440  -17.6214   15.3916 C   0  0  0  0  0  0
  -30.1140  -21.4913   19.8951 C   0  0  0  0  0  0
  -27.0077  -17.8983   16.3633 C   0  0  2  0  0  0
  -27.5881  -17.3455   19.3801 N   0  0  0  0  0  0
  -30.1326  -18.0715   20.1743 N   0  0  0  0  0  0
  -32.7456  -15.7518   22.6176 N   0  3  0  0  0  0
  -31.4568  -12.4207   19.2094 H   0  0  0  0  0  0
  -30.2781  -11.3874   19.9437 H   0  0  0  0  0  0
  -29.8156  -11.7395   17.5174 H   0  0  0  0  0  0
  -29.6624  -13.4697   17.7702 H   0  0  0  0  0  0
  -27.8639  -11.2625   18.8429 H   0  0  0  0  0  0
  -27.4081  -12.5634   17.7669 H   0  0  0  0  0  0
  -27.6337  -14.1942   19.4396 H   0  0  0  0  0  0
  -28.6788  -12.0795   21.4063 H   0  0  0  0  0  0
  -28.3602  -13.7056   21.8139 H   0  0  0  0  0  0
  -25.2582   -9.5613   22.4838 H   0  0  0  0  0  0
  -23.9885   -7.4544   22.7490 H   0  0  0  0  0  0
  -21.0775   -8.8649   19.8953 H   0  0  0  0  0  0
  -22.3542  -10.9576   19.6227 H   0  0  0  0  0  0
  -21.1973   -7.6072   23.9579 H   0  0  0  0  0  0
  -21.1549   -6.0523   25.9034 H   0  0  0  0  0  0
  -22.0608   -2.7520   23.2915 H   0  0  0  0  0  0
  -22.3962  -11.9822   22.4980 H   0  0  0  0  0  0
  -21.0946  -13.1163   22.2562 H   0  0  0  0  0  0
  -24.5656  -15.7635   20.4379 H   0  0  0  0  0  0
  -26.1242  -15.5901   19.8198 H   0  0  0  0  0  0
  -26.7167  -32.5474   23.1141 H   0  0  0  0  0  0
  -25.0218  -33.9724   25.0565 H   0  0  0  0  0  0
  -22.7112  -31.3103   21.4148 H   0  0  0  0  0  0
  -23.3779  -35.9560   23.3325 H   0  0  0  0  0  0
  -24.3585  -36.8891   22.2061 H   0  0  0  0  0  0
  -23.7178  -37.6448   23.6647 H   0  0  0  0  0  0
  -26.1031  -31.5669   20.6239 H   0  0  0  0  0  0
  -26.8294  -30.8287   22.0202 H   0  0  0  0  0  0
  -28.0984  -29.0074   21.2029 H   0  0  0  0  0  0
  -25.9763  -26.0141   18.8975 H   0  0  0  0  0  0
  -23.9791  -27.3635   18.9506 H   0  0  0  0  0  0
  -23.7342  -30.6086   19.4141 H   0  0  0  0  0  0
  -22.7503  -29.2491   19.8669 H   0  0  0  0  0  0
  -25.1298  -36.1978   25.0837 H   0  0  0  0  0  0
  -20.9938  -28.3288   24.1411 H   0  0  0  0  0  0
  -20.5752  -26.2316   23.3605 H   0  0  0  0  0  0
  -21.6641  -26.7535   22.1148 H   0  0  0  0  0  0
  -19.6926  -25.6322   21.1274 H   0  0  0  0  0  0
  -19.6682  -27.3204   20.6739 H   0  0  0  0  0  0
  -17.4205  -26.6746   21.4009 H   0  0  0  0  0  0
  -18.0292  -26.0085   22.8998 H   0  0  0  0  0  0
  -19.7924  -30.7300   24.2293 H   0  0  0  0  0  0
  -17.5002  -31.6307   24.5157 H   0  0  0  0  0  0
  -15.5340  -30.3009   23.7685 H   0  0  0  0  0  0
  -15.8658  -28.0813   22.7152 H   0  0  0  0  0  0
  -24.5975  -30.6974   25.7772 H   0  0  0  0  0  0
  -24.8905  -32.2741   26.5013 H   0  0  0  0  0  0
  -25.8133  -30.8750   27.0233 H   0  0  0  0  0  0
  -26.3024  -29.6735   24.1329 H   0  0  0  0  0  0
  -27.4279  -29.7390   25.4703 H   0  0  0  0  0  0
  -27.8815  -30.4426   23.9383 H   0  0  0  0  0  0
  -27.2807  -33.3701   26.2028 H   0  0  0  0  0  0
  -28.3917  -32.6855   25.0288 H   0  0  0  0  0  0
  -28.0805  -31.8520   26.5438 H   0  0  0  0  0  0
  -28.2603  -38.0095   24.7610 H   0  0  0  0  0  0
  -28.1107  -36.2644   24.6243 H   0  0  0  0  0  0
  -27.2306  -37.1381   25.8877 H   0  0  0  0  0  0
  -20.9394  -29.8721   21.6822 H   0  0  0  0  0  0
  -26.0196  -38.2891   24.1431 H   0  0  0  0  0  0
  -27.7844  -15.7692   20.7159 H   0  0  0  0  0  0
  -23.7232  -19.1265   15.6236 H   0  0  0  0  0  0
  -24.4091  -18.9218   17.2188 H   0  0  0  0  0  0
  -23.9991  -17.5203   16.2381 H   0  0  0  0  0  0
  -29.8398  -16.4104   23.5201 H   0  0  0  0  0  0
  -30.0268  -14.6754   23.3142 H   0  0  0  0  0  0
  -28.6145  -15.5178   22.7270 H   0  0  0  0  0  0
  -31.9144  -18.8471   18.2491 H   0  0  0  0  0  0
  -32.1364  -19.4441   19.8825 H   0  0  0  0  0  0
  -32.5009  -20.4663   18.5312 H   0  0  0  0  0  0
  -29.2352  -21.1940   17.1515 H   0  0  0  0  0  0
  -30.4010  -19.9485   16.6676 H   0  0  0  0  0  0
  -30.9398  -21.4480   17.2045 H   0  0  0  0  0  0
  -28.8500  -16.3360   13.7187 H   0  0  0  0  0  0
  -27.1255  -16.6281   13.7486 H   0  0  0  0  0  0
  -27.8718  -15.4985   14.8852 H   0  0  0  0  0  0
  -30.3056  -16.8716   15.4784 H   0  0  0  0  0  0
  -29.3297  -16.3765   16.8582 H   0  0  0  0  0  0
  -29.9287  -17.9900   16.7512 H   0  0  0  0  0  0
  -29.4919  -18.7004   13.9460 H   0  0  0  0  0  0
  -28.7347  -19.7535   15.1364 H   0  0  0  0  0  0
  -27.8014  -19.0770   13.8085 H   0  0  0  0  0  0
  -31.3907  -22.9490   20.9754 H   0  0  0  0  0  0
  -31.8411  -22.7308   19.2844 H   0  0  0  0  0  0
  -32.2625  -21.5584   20.5243 H   0  0  0  0  0  0
  -29.3363  -21.8212   21.9326 H   0  0  0  0  0  0
  -30.3303  -20.3824   21.7627 H   0  0  0  0  0  0
  -28.6754  -20.4073   21.1659 H   0  0  0  0  0  0
  -25.6963  -16.6232   17.6006 H   0  0  0  0  0  0
  -27.2476  -15.8701   17.2650 H   0  0  0  0  0  0
  -25.9844  -15.9408   16.0527 H   0  0  0  0  0  0
  -27.6448  -19.8900   17.2515 H   0  0  0  0  0  0
  -26.3924  -19.1223   18.0410 H   0  0  0  0  0  0
  -26.0667  -19.5764   15.3119 H   0  0  0  0  0  0
  -25.6910  -18.0291   14.6044 H   0  0  0  0  0  0
  -30.2164  -24.5160   19.9148 H   0  0  0  0  0  0
  -29.1920  -23.9608   21.2192 H   0  0  0  0  0  0
  -29.3551  -22.9062   18.3730 H   0  0  0  0  0  0
  -28.1178  -22.3260   19.4401 H   0  0  0  0  0  0
  -31.5427  -17.4616   22.5090 H   0  0  0  0  0  0
  -32.2906  -16.9855   21.0200 H   0  0  0  0  0  0
  -27.2267  -24.7453   20.1150 H   0  0  0  0  0  0
  -28.0661  -25.1380   18.6257 H   0  0  0  0  0  0
  -32.3259  -15.1705   23.3161 H   0  0  0  0  0  0
  -33.4175  -16.3495   23.0683 H   0  0  0  0  0  0
  -33.2459  -15.1714   21.9655 H   0  0  0  0  0  0
  1 25  1  0  0  0
  1 30  2  0  0  0
  1 91  1  0  0  0
  2  3  1  0  0  0
  2 25  1  0  0  0
  2 99  1  0  0  0
  2100  1  0  0  0
  3  4  1  0  0  0
  3101  1  0  0  0
  3102  1  0  0  0
  4  5  1  0  0  0
  4103  1  0  0  0
  4104  1  0  0  0
  5  6  1  0  0  0
  5 26  1  0  0  0
  5105  1  0  0  0
  6 25  1  0  0  0
  6106  1  0  0  0
  6107  1  0  0  0
  7  8  2  0  0  0
  7 26  1  0  0  0
  7 29  1  0  0  0
  8  9  1  0  0  0
  8 22  1  0  0  0
  9 10  1  0  0  0
  9 27  2  0  0  0
 10 11  2  0  0  0
 10 15  1  0  0  0
 11 12  1  0  0  0
 11108  1  0  0  0
 12 13  2  0  0  0
 12109  1  0  0  0
 13 14  1  0  0  0
 13 31  1  0  0  0
 14 15  2  0  0  0
 14110  1  0  0  0
 15111  1  0  0  0
 16 17  2  0  0  0
 16 21  1  0  0  0
 16 31  1  0  0  0
 17 18  1  0  0  0
 17112  1  0  0  0
 18 19  2  0  0  0
 18113  1  0  0  0
 19 20  1  0  0  0
 19 24  1  0  0  0
 20 21  2  0  0  0
 20114  1  0  0  0
 21 23  1  0  0  0
 22 28  1  0  0  0
 22 32  2  0  0  0
 26 27  1  0  0  0
 28115  1  0  0  0
 28116  1  0  0  0
 29117  1  0  0  0
 29118  1  0  0  0
 33 34  1  0  0  0
 33 66  1  0  0  0
 33 70  2  0  0  0
 34 36  1  0  0  0
 34 59  1  0  0  0
 34119  1  0  0  0
 35 44  2  0  0  0
 35 45  1  0  0  0
 35 68  1  0  0  0
 36 56  1  0  0  0
 36120  1  0  0  0
 37 39  1  0  0  0
 37 47  1  0  0  0
 37 66  1  0  0  0
 37121  1  0  0  0
 38 43  2  0  0  0
 38 46  1  0  0  0
 38 47  1  0  0  0
 39 64  1  0  0  0
 39 67  2  0  0  0
 40 52  1  0  0  0
 40 53  2  0  0  0
 40 58  1  0  0  0
 41122  1  0  0  0
 41123  1  0  0  0
 41124  1  0  0  0
 41 48  1  0  0  0
 42 43  1  0  0  0
 42 66  1  0  0  0
 42125  1  0  0  0
 42126  1  0  0  0
 43 44  1  0  0  0
 44127  1  0  0  0
 45 46  2  0  0  0
 45128  1  0  0  0
 46129  1  0  0  0
 47130  1  0  0  0
 47131  1  0  0  0
 48 56  1  0  0  0
 48 65  1  0  0  0
 48132  1  0  0  0
 49 50  1  0  0  0
 49 53  1  0  0  0
 49 64  1  0  0  0
 49133  1  0  0  0
 50 51  1  0  0  0
 50134  1  0  0  0
 50135  1  0  0  0
 51 52  1  0  0  0
 51136  1  0  0  0
 51137  1  0  0  0
 52138  1  0  0  0
 52139  1  0  0  0
 53 54  1  0  0  0
 54 55  2  0  0  0
 54140  1  0  0  0
 55 57  1  0  0  0
 55141  1  0  0  0
 56 69  2  0  0  0
 57 58  2  0  0  0
 57142  1  0  0  0
 58143  1  0  0  0
 59 60  1  0  0  0
 59 61  1  0  0  0
 59 62  1  0  0  0
 60144  1  0  0  0
 60145  1  0  0  0
 60146  1  0  0  0
 61147  1  0  0  0
 61148  1  0  0  0
 61149  1  0  0  0
 62150  1  0  0  0
 62151  1  0  0  0
 62152  1  0  0  0
 63 65  1  0  0  0
 63153  1  0  0  0
 63154  1  0  0  0
 63155  1  0  0  0
 64156  1  0  0  0
 65157  1  0  0  0
 68 90  1  0  0  0
 71 72  2  0  0  0
 71 96  1  0  0  0
 71158  1  0  0  0
 72 91  1  0  0  0
 72 97  1  0  0  0
 73 74  1  0  0  0
 73 85  1  0  0  0
 73 96  2  0  0  0
 74 92  1  0  0  0
 74 97  2  0  0  0
 75 86  1  0  0  0
 75159  1  0  0  0
 75160  1  0  0  0
 75161  1  0  0  0
 76162  1  0  0  0
 76163  1  0  0  0
 76164  1  0  0  0
 76 91  1  0  0  0
 77165  1  0  0  0
 77166  1  0  0  0
 77167  1  0  0  0
 77 92  1  0  0  0
 78 92  1  0  0  0
 78168  1  0  0  0
 78169  1  0  0  0
 78170  1  0  0  0
 79171  1  0  0  0
 79172  1  0  0  0
 79173  1  0  0  0
 79 93  1  0  0  0
 80 93  1  0  0  0
 80174  1  0  0  0
 80175  1  0  0  0
 80176  1  0  0  0
 81 93  1  0  0  0
 81177  1  0  0  0
 81178  1  0  0  0
 81179  1  0  0  0
 82180  1  0  0  0
 82181  1  0  0  0
 82182  1  0  0  0
 82 94  1  0  0  0
 83 94  1  0  0  0
 83183  1  0  0  0
 83184  1  0  0  0
 83185  1  0  0  0
 84186  1  0  0  0
 84187  1  0  0  0
 84188  1  0  0  0
 84 95  1  0  0  0
 85 95  1  0  0  0
 85189  1  0  0  0
 85190  1  0  0  0
 86 95  1  0  0  0
 86191  1  0  0  0
 86192  1  0  0  0
 87 88  1  0  0  0
 87 90  1  0  0  0
 87193  1  0  0  0
 87194  1  0  0  0
 88 94  1  0  0  0
 88195  1  0  0  0
 88196  1  0  0  0
 89 91  1  0  0  0
 89 98  1  0  0  0
 89197  1  0  0  0
 89198  1  0  0  0
 90199  1  0  0  0
 90200  1  0  0  0
 92 94  1  0  0  0
 93 95  1  0  0  0
 98201  1  0  0  0
 98202  1  0  0  0
 98203  1  0  0  0
M  CHG  1  98   1
M  ISO  4   1 100  68 101  90 101  91 100
M  END
> <chiral flag>
0

> <version>
0

> <s_m_source_file>
/data/baiqing/PycharmProjects/Reinvent-master-3.2/result/LINK_invent/BTK/process_docking_weight1_custom_sum_contain_oxygen_bond_distance_aromatic_linkinvent_7_9_3/rearranged_h_0066.sdf

> <i_m_source_file_index>
24

> <r_mmod_Potential_Energy-OPLS-2005>
184.244171142578

> <r_mmod_Stretch_Energy-OPLS-2005>
131.101654052734

> <r_mmod_Bend_Energy-OPLS-2005>
256.159332275391

> <r_mmod_Torsional_Energy-OPLS-2005>
243.707748413086

> <r_mmod_Improper_Torsional_Energy-OPLS-2005>
3.00136256217957

> <r_mmod_Van_der_Waal_Energy-OPLS-2005>
239.291717529297

> <r_mmod_Electrostatic_Energy-OPLS-2005>
-304.278350830078

> <r_mmod_Solvation_Energy-OPLS-2005>
-421.207641601562

> <b_mmod_Minimization_Converged-OPLS-2005>
0

> <r_mmod_RMS_Derivative-OPLS-2005>
9.05292415618896

$$$$
25
                    3D
 Structure written by MMmdl.
179187  0  0  1  0            999 V2000
  -30.6406  -14.7478   20.4846 C   0  0  0  0  0  0
  -30.4279  -12.4684   19.4636 C   0  0  0  0  0  0
  -29.5036  -12.5070   18.2289 C   0  0  0  0  0  0
  -28.0323  -12.3316   18.6495 C   0  0  0  0  0  0
  -27.6389  -13.2373   19.8469 C   0  0  2  0  0  0
  -28.6874  -13.1899   20.9790 C   0  0  0  0  0  0
  -25.2510  -13.8210   20.5714 C   0  0  0  0  0  0
  -24.1801  -13.0442   20.9218 C   0  0  0  0  0  0
  -24.6410  -11.6928   20.8764 C   0  0  0  0  0  0
  -23.9091  -10.4295   21.0418 C   0  0  0  0  0  0
  -24.3635   -9.4205   21.9190 C   0  0  0  0  0  0
  -23.6300   -8.2245   22.0754 C   0  0  0  0  0  0
  -22.4281   -8.0287   21.3551 C   0  0  0  0  0  0
  -21.9929   -9.0266   20.4649 C   0  0  0  0  0  0
  -22.7267  -10.2141   20.3061 C   0  0  0  0  0  0
  -21.6854   -6.0737   22.5280 C   0  0  0  0  0  0
  -21.4011   -6.5638   23.8210 C   0  0  0  0  0  0
  -21.3655   -5.6793   24.9175 C   0  0  0  0  0  0
  -21.6046   -4.3056   24.7224 C   0  0  0  0  0  0
  -21.8822   -3.8148   23.4345 C   0  0  0  0  0  0
  -21.9193   -4.6967   22.3402 C   0  0  0  0  0  0
  -22.7826  -13.5223   21.1864 C   0  0  0  0  0  0
  -22.1664   -4.2153   21.0980 F   0  0  0  0  0  0
  -21.5627   -3.4540   25.7735 F   0  0  0  0  0  0
  -29.9821  -13.5423   20.3835 N   0  0  0  0  0  0
  -26.2934  -12.9429   20.3292 N   0  0  0  0  0  0
  -25.9339  -11.6567   20.5767 N   0  0  0  0  0  0
  -22.0471  -12.8210   22.0424 N   0  0  0  0  0  0
  -25.4174  -15.1934   20.4125 N   0  0  0  0  0  0
  -31.8361  -14.7895   20.1854 O   0  0  0  0  0  0
  -21.6646   -6.8889   21.4241 O   0  0  0  0  0  0
  -22.3514  -14.5532   20.6715 O   0  0  0  0  0  0
  -24.6286  -31.8571   23.1942 C   0  0  0  0  0  0
  -25.9120  -32.4754   23.8284 C   0  0  1  0  0  0
  -27.2281  -27.2795   20.1534 C   0  0  0  0  0  0
  -25.5934  -33.8554   24.2231 N   0  0  0  0  0  0
  -23.4238  -30.4758   21.5359 C   0  0  2  0  0  0
  -24.8746  -28.9136   20.1156 C   0  0  0  0  0  0
  -22.7492  -29.4610   22.4900 C   0  0  0  0  0  0
  -18.0299  -28.1393   22.8457 C   0  0  0  0  0  0
  -24.1487  -36.7255   23.2645 C   0  0  0  0  0  0
  -25.9661  -30.7786   21.3680 C   0  0  0  0  0  0
  -26.0435  -29.3984   20.7182 C   0  0  0  0  0  0
  -27.2272  -28.5975   20.7163 C   0  0  0  0  0  0
  -26.0381  -26.8430   19.5386 C   0  0  0  0  0  0
  -24.8761  -27.6428   19.5130 C   0  0  0  0  0  0
  -23.6440  -29.8005   20.1551 C   0  0  0  0  0  0
  -25.4119  -36.3064   24.0335 C   0  0  1  0  0  0
  -20.5893  -28.3694   23.1262 C   0  0  2  0  0  0
  -20.6786  -26.9414   22.5398 C   0  0  0  0  0  0
  -19.5766  -26.6389   21.5197 C   0  0  0  0  0  0
  -18.1948  -26.7929   22.1606 C   0  0  0  0  0  0
  -19.1551  -28.8860   23.2851 C   0  0  0  0  0  0
  -18.9497  -30.1458   23.8876 C   0  0  0  0  0  0
  -17.6502  -30.6596   24.0558 C   0  0  0  0  0  0
  -25.9064  -34.9442   23.5087 C   0  0  0  0  0  0
  -16.5386  -29.9092   23.6332 C   0  0  0  0  0  0
  -16.7291  -28.6512   23.0338 C   0  0  0  0  0  0
  -26.4504  -31.6578   25.0668 C   0  0  0  0  0  0
  -25.3718  -31.3728   26.1373 C   0  0  0  0  0  0
  -27.0369  -30.3011   24.6131 C   0  0  0  0  0  0
  -27.6049  -32.4334   25.7438 C   0  0  0  0  0  0
  -27.5584  -37.1768   24.8473 C   0  0  0  0  0  0
  -21.4205  -29.3047   22.3649 N   0  0  0  0  0  0
  -26.4282  -37.3778   23.9435 N   0  0  0  0  0  0
  -24.6913  -31.0553   22.0889 N   0  0  0  0  0  0
  -23.4204  -28.8147   23.2993 O   0  0  0  0  0  0
  -28.3534  -26.4386   20.1210 O   0  0  0  0  0  0
  -26.5633  -34.8933   22.4652 O   0  0  0  0  0  0
  -23.5451  -32.1376   23.7265 O   0  0  0  0  0  0
  -29.6357  -18.6208   20.6646 C   0  0  0  0  0  0
  -29.2259  -20.7878   20.3575 C   0  0  0  0  0  0
  -31.9827  -21.9888   21.1689 C   0  0  0  0  0  0
  -29.0295  -24.1272   18.6083 C   0  0  0  0  0  0
  -29.9966  -17.2644   22.7567 C   0  0  0  0  0  0
  -31.8467  -17.5356   21.0934 C   0  0  0  0  0  0
  -29.0088  -22.5059   22.1837 C   0  0  0  0  0  0
  -29.4841  -20.9095   17.0415 C   0  0  0  0  0  0
  -27.0911  -21.3181   17.9475 C   0  0  0  0  0  0
  -27.7728  -19.1242   17.1481 C   0  0  0  0  0  0
  -30.8765  -22.8253   20.5025 C   0  0  0  0  0  0
  -28.3516  -25.0957   20.7894 C   0  0  0  0  0  0
  -28.5235  -23.6704   19.9966 C   0  0  2  0  0  0
  -30.3236  -17.3111   21.2492 C   0  0  0  0  0  0
  -29.3782  -22.3989   20.6754 C   0  0  1  0  0  0
  -28.3150  -20.3799   17.8964 C   0  0  0  0  0  0
  -29.7100  -19.8729   21.2571 N   0  0  0  0  0  0
  -29.1090  -18.7067   19.4559 N   0  0  0  0  0  0
  -28.8247  -20.0551   19.2542 N   0  0  0  0  0  0
  -29.9169  -15.9068   20.7559 N   0  0  0  0  0  0
  -31.4674  -12.5882   19.1533 H   0  0  0  0  0  0
  -30.3742  -11.4961   19.9567 H   0  0  0  0  0  0
  -29.7851  -11.7256   17.5222 H   0  0  0  0  0  0
  -29.6284  -13.4547   17.7023 H   0  0  0  0  0  0
  -27.8926  -11.2837   18.9188 H   0  0  0  0  0  0
  -27.3722  -12.5167   17.8014 H   0  0  0  0  0  0
  -27.6277  -14.2565   19.4588 H   0  0  0  0  0  0
  -28.7301  -12.1987   21.4323 H   0  0  0  0  0  0
  -28.4233  -13.8817   21.7804 H   0  0  0  0  0  0
  -25.2777   -9.5676   22.4773 H   0  0  0  0  0  0
  -24.0005   -7.4637   22.7473 H   0  0  0  0  0  0
  -21.0859   -8.8793   19.8956 H   0  0  0  0  0  0
  -22.3729  -10.9684   19.6173 H   0  0  0  0  0  0
  -21.2001   -7.6147   23.9717 H   0  0  0  0  0  0
  -21.1472   -6.0521   25.9079 H   0  0  0  0  0  0
  -22.0604   -2.7610   23.2845 H   0  0  0  0  0  0
  -22.4089  -11.9874   22.4808 H   0  0  0  0  0  0
  -21.1088  -13.1226   22.2625 H   0  0  0  0  0  0
  -24.6432  -15.8400   20.5164 H   0  0  0  0  0  0
  -26.2551  -15.6366   20.0580 H   0  0  0  0  0  0
  -26.7178  -32.5424   23.1014 H   0  0  0  0  0  0
  -25.0105  -33.9689   25.0393 H   0  0  0  0  0  0
  -22.7189  -31.2964   21.3863 H   0  0  0  0  0  0
  -23.3783  -35.9558   23.3312 H   0  0  0  0  0  0
  -24.3570  -36.8863   22.2057 H   0  0  0  0  0  0
  -23.7216  -37.6446   23.6656 H   0  0  0  0  0  0
  -26.1022  -31.5391   20.5987 H   0  0  0  0  0  0
  -26.8456  -30.8272   21.9985 H   0  0  0  0  0  0
  -28.1304  -28.9770   21.1734 H   0  0  0  0  0  0
  -26.0108  -25.8653   19.0790 H   0  0  0  0  0  0
  -23.9825  -27.2647   19.0360 H   0  0  0  0  0  0
  -23.7668  -30.5728   19.3942 H   0  0  0  0  0  0
  -22.7643  -29.2308   19.8494 H   0  0  0  0  0  0
  -25.1294  -36.1893   25.0828 H   0  0  0  0  0  0
  -20.9999  -28.3292   24.1374 H   0  0  0  0  0  0
  -20.5692  -26.2319   23.3604 H   0  0  0  0  0  0
  -21.6659  -26.7429   22.1192 H   0  0  0  0  0  0
  -19.6942  -25.6299   21.1240 H   0  0  0  0  0  0
  -19.6724  -27.3193   20.6717 H   0  0  0  0  0  0
  -17.4216  -26.6673   21.4013 H   0  0  0  0  0  0
  -18.0349  -26.0069   22.9001 H   0  0  0  0  0  0
  -19.7989  -30.7267   24.2243 H   0  0  0  0  0  0
  -17.5075  -31.6271   24.5178 H   0  0  0  0  0  0
  -15.5393  -30.3006   23.7689 H   0  0  0  0  0  0
  -15.8678  -28.0857   22.7042 H   0  0  0  0  0  0
  -24.5915  -30.7060   25.7679 H   0  0  0  0  0  0
  -24.8887  -32.2898   26.4749 H   0  0  0  0  0  0
  -25.8015  -30.8926   27.0173 H   0  0  0  0  0  0
  -26.2944  -29.6739   24.1184 H   0  0  0  0  0  0
  -27.4123  -29.7277   25.4620 H   0  0  0  0  0  0
  -27.8769  -30.4324   23.9313 H   0  0  0  0  0  0
  -27.2652  -33.3666   26.1950 H   0  0  0  0  0  0
  -28.3866  -32.6864   25.0258 H   0  0  0  0  0  0
  -28.0698  -31.8507   26.5398 H   0  0  0  0  0  0
  -28.2569  -38.0100   24.7569 H   0  0  0  0  0  0
  -28.1119  -36.2633   24.6234 H   0  0  0  0  0  0
  -27.2309  -37.1316   25.8877 H   0  0  0  0  0  0
  -20.9406  -29.8763   21.6838 H   0  0  0  0  0  0
  -26.0163  -38.2842   24.1490 H   0  0  0  0  0  0
  -32.9558  -22.4569   21.0149 H   0  0  0  0  0  0
  -32.0478  -20.9940   20.7293 H   0  0  0  0  0  0
  -31.8343  -21.8902   22.2442 H   0  0  0  0  0  0
  -28.2713  -24.7252   18.1007 H   0  0  0  0  0  0
  -29.2725  -23.3152   17.9454 H   0  0  0  0  0  0
  -29.9251  -24.7461   18.6843 H   0  0  0  0  0  0
  -30.3483  -18.1587   23.2732 H   0  0  0  0  0  0
  -30.4608  -16.4091   23.2495 H   0  0  0  0  0  0
  -28.9209  -17.1972   22.9210 H   0  0  0  0  0  0
  -32.1490  -18.5006   21.5014 H   0  0  0  0  0  0
  -32.1401  -17.5299   20.0436 H   0  0  0  0  0  0
  -32.4363  -16.7860   21.6209 H   0  0  0  0  0  0
  -29.5388  -21.7877   22.8069 H   0  0  0  0  0  0
  -27.9437  -22.3310   22.3348 H   0  0  0  0  0  0
  -29.2563  -23.4655   22.6270 H   0  0  0  0  0  0
  -29.1373  -21.5226   16.2097 H   0  0  0  0  0  0
  -30.0682  -20.0907   16.6201 H   0  0  0  0  0  0
  -30.1976  -21.4809   17.6313 H   0  0  0  0  0  0
  -27.3366  -22.3556   18.0766 H   0  0  0  0  0  0
  -26.3954  -21.0304   18.7377 H   0  0  0  0  0  0
  -26.5350  -21.2991   17.0094 H   0  0  0  0  0  0
  -27.3788  -19.3875   16.1662 H   0  0  0  0  0  0
  -26.9646  -18.6390   17.6984 H   0  0  0  0  0  0
  -28.5438  -18.3742   16.9631 H   0  0  0  0  0  0
  -31.1212  -22.8380   19.4418 H   0  0  0  0  0  0
  -30.9990  -23.8552   20.8383 H   0  0  0  0  0  0
  -29.2153  -25.2066   21.4430 H   0  0  0  0  0  0
  -27.4968  -25.0328   21.4660 H   0  0  0  0  0  0
  -27.4980  -23.3191   19.9122 H   0  0  0  0  0  0
  -28.9191  -15.7662   20.7783 H   0  0  0  0  0  0
  1 25  1  0  0  0
  1 30  2  0  0  0
  1 90  1  0  0  0
  2  3  1  0  0  0
  2 25  1  0  0  0
  2 91  1  0  0  0
  2 92  1  0  0  0
  3  4  1  0  0  0
  3 93  1  0  0  0
  3 94  1  0  0  0
  4  5  1  0  0  0
  4 95  1  0  0  0
  4 96  1  0  0  0
  5  6  1  0  0  0
  5 26  1  0  0  0
  5 97  1  0  0  0
  6 25  1  0  0  0
  6 98  1  0  0  0
  6 99  1  0  0  0
  7  8  2  0  0  0
  7 26  1  0  0  0
  7 29  1  0  0  0
  8  9  1  0  0  0
  8 22  1  0  0  0
  9 10  1  0  0  0
  9 27  2  0  0  0
 10 11  2  0  0  0
 10 15  1  0  0  0
 11 12  1  0  0  0
 11100  1  0  0  0
 12 13  2  0  0  0
 12101  1  0  0  0
 13 14  1  0  0  0
 13 31  1  0  0  0
 14 15  2  0  0  0
 14102  1  0  0  0
 15103  1  0  0  0
 16 17  2  0  0  0
 16 21  1  0  0  0
 16 31  1  0  0  0
 17 18  1  0  0  0
 17104  1  0  0  0
 18 19  2  0  0  0
 18105  1  0  0  0
 19 20  1  0  0  0
 19 24  1  0  0  0
 20 21  2  0  0  0
 20106  1  0  0  0
 21 23  1  0  0  0
 22 28  1  0  0  0
 22 32  2  0  0  0
 26 27  1  0  0  0
 28107  1  0  0  0
 28108  1  0  0  0
 29109  1  0  0  0
 29110  1  0  0  0
 33 34  1  0  0  0
 33 66  1  0  0  0
 33 70  2  0  0  0
 34 36  1  0  0  0
 34 59  1  0  0  0
 34111  1  0  0  0
 35 44  2  0  0  0
 35 45  1  0  0  0
 35 68  1  0  0  0
 36 56  1  0  0  0
 36112  1  0  0  0
 37 39  1  0  0  0
 37 47  1  0  0  0
 37 66  1  0  0  0
 37113  1  0  0  0
 38 43  2  0  0  0
 38 46  1  0  0  0
 38 47  1  0  0  0
 39 64  1  0  0  0
 39 67  2  0  0  0
 40 52  1  0  0  0
 40 53  2  0  0  0
 40 58  1  0  0  0
 41114  1  0  0  0
 41115  1  0  0  0
 41116  1  0  0  0
 41 48  1  0  0  0
 42 43  1  0  0  0
 42 66  1  0  0  0
 42117  1  0  0  0
 42118  1  0  0  0
 43 44  1  0  0  0
 44119  1  0  0  0
 45 46  2  0  0  0
 45120  1  0  0  0
 46121  1  0  0  0
 47122  1  0  0  0
 47123  1  0  0  0
 48 56  1  0  0  0
 48 65  1  0  0  0
 48124  1  0  0  0
 49 50  1  0  0  0
 49 53  1  0  0  0
 49 64  1  0  0  0
 49125  1  0  0  0
 50 51  1  0  0  0
 50126  1  0  0  0
 50127  1  0  0  0
 51 52  1  0  0  0
 51128  1  0  0  0
 51129  1  0  0  0
 52130  1  0  0  0
 52131  1  0  0  0
 53 54  1  0  0  0
 54 55  2  0  0  0
 54132  1  0  0  0
 55 57  1  0  0  0
 55133  1  0  0  0
 56 69  2  0  0  0
 57 58  2  0  0  0
 57134  1  0  0  0
 58135  1  0  0  0
 59 60  1  0  0  0
 59 61  1  0  0  0
 59 62  1  0  0  0
 60136  1  0  0  0
 60137  1  0  0  0
 60138  1  0  0  0
 61139  1  0  0  0
 61140  1  0  0  0
 61141  1  0  0  0
 62142  1  0  0  0
 62143  1  0  0  0
 62144  1  0  0  0
 63 65  1  0  0  0
 63145  1  0  0  0
 63146  1  0  0  0
 63147  1  0  0  0
 64148  1  0  0  0
 65149  1  0  0  0
 68 82  1  0  0  0
 71 84  1  0  0  0
 71 87  1  0  0  0
 71 88  2  0  0  0
 72 85  1  0  0  0
 72 87  2  0  0  0
 72 89  1  0  0  0
 73 81  1  0  0  0
 73150  1  0  0  0
 73151  1  0  0  0
 73152  1  0  0  0
 74153  1  0  0  0
 74154  1  0  0  0
 74155  1  0  0  0
 74 83  1  0  0  0
 75156  1  0  0  0
 75157  1  0  0  0
 75158  1  0  0  0
 75 84  1  0  0  0
 76 84  1  0  0  0
 76159  1  0  0  0
 76160  1  0  0  0
 76161  1  0  0  0
 77162  1  0  0  0
 77163  1  0  0  0
 77164  1  0  0  0
 77 85  1  0  0  0
 78165  1  0  0  0
 78166  1  0  0  0
 78167  1  0  0  0
 78 86  1  0  0  0
 79 86  1  0  0  0
 79168  1  0  0  0
 79169  1  0  0  0
 79170  1  0  0  0
 80 86  1  0  0  0
 80171  1  0  0  0
 80172  1  0  0  0
 80173  1  0  0  0
 81 85  1  0  0  0
 81174  1  0  0  0
 81175  1  0  0  0
 82 83  1  0  0  0
 82176  1  0  0  0
 82177  1  0  0  0
 83 85  1  0  0  0
 83178  1  0  0  0
 84 90  1  0  0  0
 86 89  1  0  0  0
 88 89  1  0  0  0
 90179  1  0  0  0
M  ISO  4   1 100  68 101  82 101  90 100
M  END
> <chiral flag>
0

> <version>
0

> <s_m_source_file>
/data/baiqing/PycharmProjects/Reinvent-master-3.2/result/LINK_invent/BTK/process_docking_weight1_custom_sum_contain_oxygen_bond_distance_aromatic_linkinvent_7_9_3/rearranged_h_0066.sdf

> <i_m_source_file_index>
25

> <r_mmod_Potential_Energy-OPLS-2005>
296.040191650391

> <r_mmod_Stretch_Energy-OPLS-2005>
172.657897949219

> <r_mmod_Bend_Energy-OPLS-2005>
284.786499023438

> <r_mmod_Torsional_Energy-OPLS-2005>
282.161315917969

> <r_mmod_Improper_Torsional_Energy-OPLS-2005>
5.8484001159668

> <r_mmod_Van_der_Waal_Energy-OPLS-2005>
149.134536743164

> <r_mmod_Electrostatic_Energy-OPLS-2005>
-484.316680908203

> <r_mmod_Solvation_Energy-OPLS-2005>
-192.2158203125

> <b_mmod_Minimization_Converged-OPLS-2005>
0

> <r_mmod_RMS_Derivative-OPLS-2005>
2.60327672958374

$$$$
26
                    3D
 Structure written by MMmdl.
176184  0  0  1  0            999 V2000
  -30.7828  -14.7421   20.3571 C   0  0  0  0  0  0
  -30.3676  -12.4513   19.4852 C   0  0  0  0  0  0
  -29.4805  -12.4732   18.2332 C   0  0  0  0  0  0
  -28.0090  -12.3120   18.6425 C   0  0  0  0  0  0
  -27.6080  -13.2470   19.8133 C   0  0  2  0  0  0
  -28.6657  -13.3446   20.9339 C   0  0  0  0  0  0
  -25.2428  -13.8224   20.5745 C   0  0  0  0  0  0
  -24.1758  -13.0446   20.9272 C   0  0  0  0  0  0
  -24.6356  -11.6932   20.8775 C   0  0  0  0  0  0
  -23.9058  -10.4304   21.0366 C   0  0  0  0  0  0
  -24.3636   -9.4236   21.9134 C   0  0  0  0  0  0
  -23.6348   -8.2246   22.0696 C   0  0  0  0  0  0
  -22.4313   -8.0265   21.3505 C   0  0  0  0  0  0
  -21.9941   -9.0224   20.4591 C   0  0  0  0  0  0
  -22.7237  -10.2123   20.3018 C   0  0  0  0  0  0
  -21.6897   -6.0740   22.5265 C   0  0  0  0  0  0
  -21.4025   -6.5644   23.8201 C   0  0  0  0  0  0
  -21.3674   -5.6791   24.9167 C   0  0  0  0  0  0
  -21.6053   -4.3056   24.7199 C   0  0  0  0  0  0
  -21.8850   -3.8152   23.4329 C   0  0  0  0  0  0
  -21.9212   -4.6965   22.3387 C   0  0  0  0  0  0
  -22.7797  -13.5224   21.1912 C   0  0  0  0  0  0
  -22.1672   -4.2148   21.0962 F   0  0  0  0  0  0
  -21.5620   -3.4531   25.7711 F   0  0  0  0  0  0
  -29.9668  -13.6226   20.3145 N   0  0  0  0  0  0
  -26.2810  -12.9451   20.3247 N   0  0  0  0  0  0
  -25.9280  -11.6585   20.5757 N   0  0  0  0  0  0
  -22.0458  -12.8186   22.0459 N   0  0  0  0  0  0
  -25.4061  -15.1964   20.4138 N   0  0  0  0  0  0
  -31.9759  -14.4770   20.2170 O   0  0  0  0  0  0
  -21.6681   -6.8856   21.4219 O   0  0  0  0  0  0
  -22.3447  -14.5487   20.6720 O   0  0  0  0  0  0
  -24.6314  -31.8561   23.1918 C   0  0  0  0  0  0
  -25.9163  -32.4737   23.8271 C   0  0  1  0  0  0
  -27.2098  -27.2672   20.1372 C   0  0  0  0  0  0
  -25.5968  -33.8541   24.2212 N   0  0  0  0  0  0
  -23.4239  -30.4767   21.5378 C   0  0  2  0  0  0
  -24.8650  -28.9106   20.1137 C   0  0  0  0  0  0
  -22.7507  -29.4637   22.4954 C   0  0  0  0  0  0
  -18.0304  -28.1396   22.8527 C   0  0  0  0  0  0
  -24.1512  -36.7306   23.2645 C   0  0  0  0  0  0
  -25.9664  -30.7701   21.3618 C   0  0  0  0  0  0
  -26.0364  -29.3896   20.7172 C   0  0  0  0  0  0
  -27.2146  -28.5808   20.7096 C   0  0  0  0  0  0
  -26.0199  -26.8386   19.5209 C   0  0  0  0  0  0
  -24.8605  -27.6431   19.5064 C   0  0  0  0  0  0
  -23.6373  -29.8001   20.1568 C   0  0  0  0  0  0
  -25.4124  -36.3076   24.0326 C   0  0  1  0  0  0
  -20.5909  -28.3714   23.1286 C   0  0  2  0  0  0
  -20.6807  -26.9439   22.5415 C   0  0  0  0  0  0
  -19.5761  -26.6397   21.5233 C   0  0  0  0  0  0
  -18.1934  -26.7931   22.1644 C   0  0  0  0  0  0
  -19.1556  -28.8873   23.2876 C   0  0  0  0  0  0
  -18.9476  -30.1483   23.8885 C   0  0  0  0  0  0
  -17.6473  -30.6582   24.0582 C   0  0  0  0  0  0
  -25.9107  -34.9448   23.5076 C   0  0  0  0  0  0
  -16.5371  -29.9088   23.6322 C   0  0  0  0  0  0
  -16.7290  -28.6498   23.0345 C   0  0  0  0  0  0
  -26.4516  -31.6525   25.0646 C   0  0  0  0  0  0
  -25.3752  -31.3600   26.1353 C   0  0  0  0  0  0
  -27.0327  -30.2949   24.6068 C   0  0  0  0  0  0
  -27.6062  -32.4244   25.7411 C   0  0  0  0  0  0
  -27.5569  -37.1808   24.8463 C   0  0  0  0  0  0
  -21.4222  -29.3069   22.3689 N   0  0  0  0  0  0
  -26.4287  -37.3787   23.9409 N   0  0  0  0  0  0
  -24.6936  -31.0548   22.0889 N   0  0  0  0  0  0
  -23.4214  -28.8233   23.3071 O   0  0  0  0  0  0
  -28.3254  -26.4139   20.1132 O   0  0  0  0  0  0
  -26.5635  -34.8946   22.4624 O   0  0  0  0  0  0
  -23.5459  -32.1357   23.7263 O   0  0  0  0  0  0
  -28.3083  -16.9388   19.2326 C   0  0  0  0  0  0
  -29.2938  -17.2857   20.1832 C   0  0  0  0  0  0
  -27.3751  -19.0836   19.2735 C   0  0  0  0  0  0
  -28.3818  -19.5492   20.1664 C   0  0  0  0  0  0
  -26.4224  -20.5319   17.3790 C   0  0  0  0  0  0
  -31.3817  -16.8082   19.0929 C   0  0  0  0  0  0
  -34.3944  -19.1394   22.3980 C   0  0  0  0  0  0
  -32.2669  -19.1720   23.6064 C   0  0  0  0  0  0
  -26.2121  -19.9475   18.7863 C   0  0  0  0  0  0
  -28.3387  -21.0300   20.7672 C   0  0  0  0  0  0
  -28.8545  -22.3100   19.9372 C   0  0  0  0  0  0
  -28.0282  -23.7052   19.7675 C   0  0  0  0  0  0
  -31.3384  -16.8729   21.6903 C   0  0  0  0  0  0
  -32.4600  -17.9341   21.4726 C   0  0  0  0  0  0
  -28.2545  -25.0249   20.6686 C   0  0  0  0  0  0
  -30.5949  -16.3836   20.3847 C   0  0  1  0  0  0
  -27.3588  -17.8061   18.8066 N   0  0  0  0  0  0
  -29.3275  -18.6255   20.6010 N   0  0  0  0  0  0
  -33.1458  -18.3960   22.7049 N   0  3  0  0  0  0
  -31.4112  -12.4569   19.1696 H   0  0  0  0  0  0
  -30.2337  -11.5181   20.0365 H   0  0  0  0  0  0
  -29.7681  -11.6742   17.5485 H   0  0  0  0  0  0
  -29.6214  -13.4109   17.6957 H   0  0  0  0  0  0
  -27.8669  -11.2673   18.9236 H   0  0  0  0  0  0
  -27.3549  -12.4788   17.7862 H   0  0  0  0  0  0
  -27.5343  -14.2280   19.3638 H   0  0  0  0  0  0
  -28.7003  -12.4210   21.5111 H   0  0  0  0  0  0
  -28.4055  -14.1407   21.6317 H   0  0  0  0  0  0
  -25.2755   -9.5767   22.4734 H   0  0  0  0  0  0
  -24.0070   -7.4673   22.7466 H   0  0  0  0  0  0
  -21.0846   -8.8760   19.8928 H   0  0  0  0  0  0
  -22.3648  -10.9680   19.6167 H   0  0  0  0  0  0
  -21.2003   -7.6146   23.9703 H   0  0  0  0  0  0
  -21.1469   -6.0501   25.9072 H   0  0  0  0  0  0
  -22.0609   -2.7608   23.2822 H   0  0  0  0  0  0
  -22.4119  -11.9864   22.4835 H   0  0  0  0  0  0
  -21.1034  -13.1130   22.2606 H   0  0  0  0  0  0
  -24.6346  -15.8459   20.5176 H   0  0  0  0  0  0
  -26.2452  -15.6442   20.0697 H   0  0  0  0  0  0
  -26.7236  -32.5375   23.1009 H   0  0  0  0  0  0
  -25.0129  -33.9704   25.0351 H   0  0  0  0  0  0
  -22.7213  -31.2971   21.3880 H   0  0  0  0  0  0
  -23.3780  -35.9644   23.3274 H   0  0  0  0  0  0
  -24.3579  -36.8950   22.2063 H   0  0  0  0  0  0
  -23.7276  -37.6508   23.6679 H   0  0  0  0  0  0
  -26.0914  -31.5259   20.5835 H   0  0  0  0  0  0
  -26.8498  -30.8239   21.9862 H   0  0  0  0  0  0
  -28.1194  -28.9514   21.1656 H   0  0  0  0  0  0
  -25.9850  -25.8689   19.0427 H   0  0  0  0  0  0
  -23.9636  -27.2645   19.0325 H   0  0  0  0  0  0
  -23.7649  -30.5678   19.3942 H   0  0  0  0  0  0
  -22.7555  -29.2345   19.8562 H   0  0  0  0  0  0
  -25.1316  -36.1896   25.0822 H   0  0  0  0  0  0
  -20.9973  -28.3278   24.1421 H   0  0  0  0  0  0
  -20.5735  -26.2355   23.3642 H   0  0  0  0  0  0
  -21.6660  -26.7484   22.1184 H   0  0  0  0  0  0
  -19.6934  -25.6305   21.1258 H   0  0  0  0  0  0
  -19.6647  -27.3227   20.6771 H   0  0  0  0  0  0
  -17.4226  -26.6731   21.4029 H   0  0  0  0  0  0
  -18.0296  -26.0045   22.9009 H   0  0  0  0  0  0
  -19.7956  -30.7313   24.2211 H   0  0  0  0  0  0
  -17.5025  -31.6245   24.5211 H   0  0  0  0  0  0
  -15.5369  -30.2978   23.7648 H   0  0  0  0  0  0
  -15.8703  -28.0815   22.7028 H   0  0  0  0  0  0
  -24.6053  -30.6818   25.7645 H   0  0  0  0  0  0
  -24.8815  -32.2733   26.4709 H   0  0  0  0  0  0
  -25.8105  -30.8844   27.0153 H   0  0  0  0  0  0
  -26.2846  -29.6715   24.1177 H   0  0  0  0  0  0
  -27.4122  -29.7181   25.4506 H   0  0  0  0  0  0
  -27.8682  -30.4189   23.9173 H   0  0  0  0  0  0
  -27.2696  -33.3606   26.1862 H   0  0  0  0  0  0
  -28.3918  -32.6683   25.0253 H   0  0  0  0  0  0
  -28.0681  -31.8437   26.5414 H   0  0  0  0  0  0
  -28.2583  -38.0130   24.7529 H   0  0  0  0  0  0
  -28.1089  -36.2645   24.6258 H   0  0  0  0  0  0
  -27.2286  -37.1391   25.8880 H   0  0  0  0  0  0
  -20.9431  -29.8748   21.6852 H   0  0  0  0  0  0
  -26.0166  -38.2873   24.1395 H   0  0  0  0  0  0
  -28.3670  -15.9989   18.7105 H   0  0  0  0  0  0
  -25.5572  -21.1228   17.0741 H   0  0  0  0  0  0
  -26.5593  -19.7419   16.6416 H   0  0  0  0  0  0
  -27.2931  -21.1838   17.3332 H   0  0  0  0  0  0
  -31.3926  -17.8863   18.9323 H   0  0  0  0  0  0
  -30.9106  -16.3799   18.2064 H   0  0  0  0  0  0
  -32.4223  -16.4886   19.0648 H   0  0  0  0  0  0
  -34.9404  -19.3879   23.3077 H   0  0  0  0  0  0
  -34.1739  -20.0696   21.8688 H   0  0  0  0  0  0
  -35.0729  -18.5525   21.7771 H   0  0  0  0  0  0
  -32.8399  -19.6056   24.4255 H   0  0  0  0  0  0
  -31.4927  -18.5415   24.0448 H   0  0  0  0  0  0
  -31.7811  -19.9882   23.0683 H   0  0  0  0  0  0
  -25.9769  -20.7488   19.4848 H   0  0  0  0  0  0
  -25.3161  -19.3209   18.7755 H   0  0  0  0  0  0
  -28.9030  -20.9984   21.7007 H   0  0  0  0  0  0
  -27.3170  -21.2170   21.0979 H   0  0  0  0  0  0
  -28.9773  -21.9307   18.9213 H   0  0  0  0  0  0
  -29.8734  -22.5408   20.2501 H   0  0  0  0  0  0
  -26.9613  -23.4785   19.7563 H   0  0  0  0  0  0
  -28.2325  -24.0348   18.7494 H   0  0  0  0  0  0
  -30.5952  -17.2218   22.4073 H   0  0  0  0  0  0
  -31.8103  -16.0339   22.2065 H   0  0  0  0  0  0
  -32.0803  -18.8013   20.9301 H   0  0  0  0  0  0
  -33.2313  -17.4915   20.8418 H   0  0  0  0  0  0
  -29.2122  -24.8923   21.1746 H   0  0  0  0  0  0
  -27.5150  -25.0219   21.4716 H   0  0  0  0  0  0
  -33.4395  -17.5704   23.2074 H   0  0  0  0  0  0
  1 25  1  0  0  0
  1 30  2  0  0  0
  1 86  1  0  0  0
  2  3  1  0  0  0
  2 25  1  0  0  0
  2 90  1  0  0  0
  2 91  1  0  0  0
  3  4  1  0  0  0
  3 92  1  0  0  0
  3 93  1  0  0  0
  4  5  1  0  0  0
  4 94  1  0  0  0
  4 95  1  0  0  0
  5  6  1  0  0  0
  5 26  1  0  0  0
  5 96  1  0  0  0
  6 25  1  0  0  0
  6 97  1  0  0  0
  6 98  1  0  0  0
  7  8  2  0  0  0
  7 26  1  0  0  0
  7 29  1  0  0  0
  8  9  1  0  0  0
  8 22  1  0  0  0
  9 10  1  0  0  0
  9 27  2  0  0  0
 10 11  2  0  0  0
 10 15  1  0  0  0
 11 12  1  0  0  0
 11 99  1  0  0  0
 12 13  2  0  0  0
 12100  1  0  0  0
 13 14  1  0  0  0
 13 31  1  0  0  0
 14 15  2  0  0  0
 14101  1  0  0  0
 15102  1  0  0  0
 16 17  2  0  0  0
 16 21  1  0  0  0
 16 31  1  0  0  0
 17 18  1  0  0  0
 17103  1  0  0  0
 18 19  2  0  0  0
 18104  1  0  0  0
 19 20  1  0  0  0
 19 24  1  0  0  0
 20 21  2  0  0  0
 20105  1  0  0  0
 21 23  1  0  0  0
 22 28  1  0  0  0
 22 32  2  0  0  0
 26 27  1  0  0  0
 28106  1  0  0  0
 28107  1  0  0  0
 29108  1  0  0  0
 29109  1  0  0  0
 33 34  1  0  0  0
 33 66  1  0  0  0
 33 70  2  0  0  0
 34 36  1  0  0  0
 34 59  1  0  0  0
 34110  1  0  0  0
 35 44  2  0  0  0
 35 45  1  0  0  0
 35 68  1  0  0  0
 36 56  1  0  0  0
 36111  1  0  0  0
 37 39  1  0  0  0
 37 47  1  0  0  0
 37 66  1  0  0  0
 37112  1  0  0  0
 38 43  2  0  0  0
 38 46  1  0  0  0
 38 47  1  0  0  0
 39 64  1  0  0  0
 39 67  2  0  0  0
 40 52  1  0  0  0
 40 53  2  0  0  0
 40 58  1  0  0  0
 41113  1  0  0  0
 41114  1  0  0  0
 41115  1  0  0  0
 41 48  1  0  0  0
 42 43  1  0  0  0
 42 66  1  0  0  0
 42116  1  0  0  0
 42117  1  0  0  0
 43 44  1  0  0  0
 44118  1  0  0  0
 45 46  2  0  0  0
 45119  1  0  0  0
 46120  1  0  0  0
 47121  1  0  0  0
 47122  1  0  0  0
 48 56  1  0  0  0
 48 65  1  0  0  0
 48123  1  0  0  0
 49 50  1  0  0  0
 49 53  1  0  0  0
 49 64  1  0  0  0
 49124  1  0  0  0
 50 51  1  0  0  0
 50125  1  0  0  0
 50126  1  0  0  0
 51 52  1  0  0  0
 51127  1  0  0  0
 51128  1  0  0  0
 52129  1  0  0  0
 52130  1  0  0  0
 53 54  1  0  0  0
 54 55  2  0  0  0
 54131  1  0  0  0
 55 57  1  0  0  0
 55132  1  0  0  0
 56 69  2  0  0  0
 57 58  2  0  0  0
 57133  1  0  0  0
 58134  1  0  0  0
 59 60  1  0  0  0
 59 61  1  0  0  0
 59 62  1  0  0  0
 60135  1  0  0  0
 60136  1  0  0  0
 60137  1  0  0  0
 61138  1  0  0  0
 61139  1  0  0  0
 61140  1  0  0  0
 62141  1  0  0  0
 62142  1  0  0  0
 62143  1  0  0  0
 63 65  1  0  0  0
 63144  1  0  0  0
 63145  1  0  0  0
 63146  1  0  0  0
 64147  1  0  0  0
 65148  1  0  0  0
 68 85  1  0  0  0
 71 72  2  0  0  0
 71 87  1  0  0  0
 71149  1  0  0  0
 72 86  1  0  0  0
 72 88  1  0  0  0
 73 74  1  0  0  0
 73 79  1  0  0  0
 73 87  2  0  0  0
 74 80  1  0  0  0
 74 88  2  0  0  0
 75 79  1  0  0  0
 75150  1  0  0  0
 75151  1  0  0  0
 75152  1  0  0  0
 76153  1  0  0  0
 76154  1  0  0  0
 76155  1  0  0  0
 76 86  1  0  0  0
 77156  1  0  0  0
 77157  1  0  0  0
 77158  1  0  0  0
 77 89  1  0  0  0
 78 89  1  0  0  0
 78159  1  0  0  0
 78160  1  0  0  0
 78161  1  0  0  0
 79162  1  0  0  0
 79163  1  0  0  0
 80 81  1  0  0  0
 80164  1  0  0  0
 80165  1  0  0  0
 81 82  1  0  0  0
 81166  1  0  0  0
 81167  1  0  0  0
 82 85  1  0  0  0
 82168  1  0  0  0
 82169  1  0  0  0
 83 84  1  0  0  0
 83 86  1  0  0  0
 83170  1  0  0  0
 83171  1  0  0  0
 84 89  1  0  0  0
 84172  1  0  0  0
 84173  1  0  0  0
 85174  1  0  0  0
 85175  1  0  0  0
 89176  1  0  0  0
M  CHG  1  89   1
M  ISO  4   1 100  68 101  85 101  86 100
M  END
> <chiral flag>
0

> <version>
0

> <s_m_source_file>
/data/baiqing/PycharmProjects/Reinvent-master-3.2/result/LINK_invent/BTK/process_docking_weight1_custom_sum_contain_oxygen_bond_distance_aromatic_linkinvent_7_9_3/rearranged_h_0066.sdf

> <i_m_source_file_index>
26

> <r_mmod_Potential_Energy-OPLS-2005>
385.894073486328

> <r_mmod_Stretch_Energy-OPLS-2005>
146.359329223633

> <r_mmod_Bend_Energy-OPLS-2005>
313.846801757812

> <r_mmod_Torsional_Energy-OPLS-2005>
243.01481628418

> <r_mmod_Improper_Torsional_Energy-OPLS-2005>
7.8580002784729

> <r_mmod_Van_der_Waal_Energy-OPLS-2005>
157.094970703125

> <r_mmod_Electrostatic_Energy-OPLS-2005>
-188.363204956055

> <r_mmod_Solvation_Energy-OPLS-2005>
-405.7568359375

> <b_mmod_Minimization_Converged-OPLS-2005>
0

> <r_mmod_RMS_Derivative-OPLS-2005>
5.6930193901062

$$$$
27
                    3D
 Structure written by MMmdl.
176184  0  0  1  0            999 V2000
  -30.7434  -14.5122   20.6472 C   0  0  0  0  0  0
  -30.4199  -12.3639   19.4332 C   0  0  0  0  0  0
  -29.4904  -12.5364   18.2150 C   0  0  0  0  0  0
  -28.0214  -12.3493   18.6340 C   0  0  0  0  0  0
  -27.6589  -13.2124   19.8696 C   0  0  2  0  0  0
  -28.6996  -13.0318   20.9968 C   0  0  0  0  0  0
  -25.2597  -13.8178   20.5669 C   0  0  0  0  0  0
  -24.1855  -13.0440   20.9151 C   0  0  0  0  0  0
  -24.6417  -11.6915   20.8769 C   0  0  0  0  0  0
  -23.9070  -10.4291   21.0450 C   0  0  0  0  0  0
  -24.3598   -9.4190   21.9226 C   0  0  0  0  0  0
  -23.6264   -8.2227   22.0758 C   0  0  0  0  0  0
  -22.4254   -8.0277   21.3539 C   0  0  0  0  0  0
  -21.9901   -9.0252   20.4647 C   0  0  0  0  0  0
  -22.7242  -10.2134   20.3092 C   0  0  0  0  0  0
  -21.6846   -6.0736   22.5289 C   0  0  0  0  0  0
  -21.4007   -6.5635   23.8215 C   0  0  0  0  0  0
  -21.3650   -5.6794   24.9182 C   0  0  0  0  0  0
  -21.6041   -4.3052   24.7236 C   0  0  0  0  0  0
  -21.8825   -3.8150   23.4364 C   0  0  0  0  0  0
  -21.9194   -4.6960   22.3411 C   0  0  0  0  0  0
  -22.7893  -13.5256   21.1778 C   0  0  0  0  0  0
  -22.1684   -4.2153   21.0990 F   0  0  0  0  0  0
  -21.5591   -3.4535   25.7743 F   0  0  0  0  0  0
  -30.0358  -13.3531   20.4604 N   0  0  0  0  0  0
  -26.3039  -12.9358   20.3381 N   0  0  0  0  0  0
  -25.9364  -11.6517   20.5847 N   0  0  0  0  0  0
  -22.0536  -12.8232   22.0318 N   0  0  0  0  0  0
  -25.4249  -15.1887   20.4087 N   0  0  0  0  0  0
  -31.7673  -14.7519   19.9988 O   0  0  0  0  0  0
  -21.6621   -6.8869   21.4244 O   0  0  0  0  0  0
  -22.3573  -14.5554   20.6615 O   0  0  0  0  0  0
  -24.6231  -31.8653   23.2071 C   0  0  0  0  0  0
  -25.9109  -32.4804   23.8375 C   0  0  1  0  0  0
  -27.2246  -27.3609   20.1092 C   0  0  0  0  0  0
  -25.5940  -33.8597   24.2318 N   0  0  0  0  0  0
  -23.4128  -30.4915   21.5502 C   0  0  2  0  0  0
  -24.8564  -28.9537   20.1138 C   0  0  0  0  0  0
  -22.7456  -29.4661   22.4968 C   0  0  0  0  0  0
  -18.0291  -28.1381   22.8506 C   0  0  0  0  0  0
  -24.1488  -36.7287   23.2636 C   0  0  0  0  0  0
  -25.9511  -30.8108   21.3700 C   0  0  0  0  0  0
  -26.0251  -29.4420   20.7109 C   0  0  0  0  0  0
  -27.2130  -28.6591   20.6963 C   0  0  0  0  0  0
  -26.0290  -26.9135   19.4985 C   0  0  0  0  0  0
  -24.8594  -27.6929   19.4991 C   0  0  0  0  0  0
  -23.6233  -29.8310   20.1631 C   0  0  0  0  0  0
  -25.4114  -36.3096   24.0340 C   0  0  1  0  0  0
  -20.5887  -28.3683   23.1300 C   0  0  2  0  0  0
  -20.6782  -26.9413   22.5411 C   0  0  0  0  0  0
  -19.5746  -26.6388   21.5224 C   0  0  0  0  0  0
  -18.1929  -26.7933   22.1634 C   0  0  0  0  0  0
  -19.1545  -28.8851   23.2903 C   0  0  0  0  0  0
  -18.9461  -30.1455   23.8912 C   0  0  0  0  0  0
  -17.6460  -30.6586   24.0568 C   0  0  0  0  0  0
  -25.9055  -34.9471   23.5130 C   0  0  0  0  0  0
  -16.5353  -29.9082   23.6327 C   0  0  0  0  0  0
  -16.7283  -28.6498   23.0362 C   0  0  0  0  0  0
  -26.4496  -31.6583   25.0722 C   0  0  0  0  0  0
  -25.3726  -31.3687   26.1435 C   0  0  0  0  0  0
  -27.0335  -30.3021   24.6131 C   0  0  0  0  0  0
  -27.6071  -32.4297   25.7487 C   0  0  0  0  0  0
  -27.5594  -37.1793   24.8468 C   0  0  0  0  0  0
  -21.4180  -29.3047   22.3704 N   0  0  0  0  0  0
  -26.4292  -37.3795   23.9431 N   0  0  0  0  0  0
  -24.6813  -31.0704   22.0993 N   0  0  0  0  0  0
  -23.4203  -28.8206   23.3039 O   0  0  0  0  0  0
  -28.3636  -26.5518   20.1433 O   0  0  0  0  0  0
  -26.5615  -34.8929   22.4692 O   0  0  0  0  0  0
  -23.5413  -32.1435   23.7425 O   0  0  0  0  0  0
  -29.2090  -22.6664   20.3664 C   0  0  0  0  0  0
  -29.1401  -20.5976   21.0493 C   0  0  0  0  0  0
  -31.3152  -22.4889   23.0122 C   0  0  0  0  0  0
  -30.4321  -24.5035   19.1129 C   0  0  0  0  0  0
  -27.6094  -19.5998   22.6350 C   0  0  0  0  0  0
  -30.0105  -19.2744   23.1308 C   0  0  0  0  0  0
  -27.9079  -16.9088   22.0124 C   0  0  0  0  0  0
  -28.6229  -17.7308   19.8224 C   0  0  0  0  0  0
  -30.4954  -15.0180   22.9527 C   0  0  0  0  0  0
  -29.7960  -22.4230   22.7885 C   0  0  0  0  0  0
  -30.3717  -16.9198   21.3939 C   0  0  0  0  0  0
  -28.1686  -25.0945   20.1109 C   0  0  0  0  0  0
  -29.4529  -24.1978   20.2621 C   0  0  1  0  0  0
  -28.9890  -19.3118   21.9672 C   0  0  0  0  0  0
  -29.0029  -17.7726   21.3167 C   0  0  0  0  0  0
  -28.7562  -21.9435   19.3395 N   0  0  0  0  0  0
  -28.6856  -20.6424   19.7855 N   0  0  0  0  0  0
  -29.4266  -21.8901   21.4750 N   0  0  0  0  0  0
  -30.2695  -15.4185   21.5544 N   0  0  0  0  0  0
  -31.4658  -12.4562   19.1363 H   0  0  0  0  0  0
  -30.3263  -11.3577   19.8409 H   0  0  0  0  0  0
  -29.7476  -11.8244   17.4301 H   0  0  0  0  0  0
  -29.6295  -13.5291   17.7846 H   0  0  0  0  0  0
  -27.8749  -11.2910   18.8636 H   0  0  0  0  0  0
  -27.3557  -12.5768   17.8010 H   0  0  0  0  0  0
  -27.6885  -14.2532   19.5438 H   0  0  0  0  0  0
  -28.6976  -12.0025   21.3583 H   0  0  0  0  0  0
  -28.4211  -13.6442   21.8531 H   0  0  0  0  0  0
  -25.2729   -9.5628   22.4828 H   0  0  0  0  0  0
  -23.9967   -7.4592   22.7452 H   0  0  0  0  0  0
  -21.0853   -8.8764   19.8916 H   0  0  0  0  0  0
  -22.3710  -10.9676   19.6203 H   0  0  0  0  0  0
  -21.2003   -7.6144   23.9729 H   0  0  0  0  0  0
  -21.1465   -6.0523   25.9083 H   0  0  0  0  0  0
  -22.0607   -2.7610   23.2879 H   0  0  0  0  0  0
  -22.4182  -11.9900   22.4689 H   0  0  0  0  0  0
  -21.1161  -13.1268   22.2501 H   0  0  0  0  0  0
  -24.6610  -15.8387   20.5574 H   0  0  0  0  0  0
  -26.3018  -15.6468   20.1953 H   0  0  0  0  0  0
  -26.7186  -32.5485   23.1133 H   0  0  0  0  0  0
  -25.0098  -33.9750   25.0470 H   0  0  0  0  0  0
  -22.7042  -31.3109   21.4134 H   0  0  0  0  0  0
  -23.3772  -35.9592   23.3274 H   0  0  0  0  0  0
  -24.3591  -36.8924   22.2053 H   0  0  0  0  0  0
  -23.7201  -37.6469   23.6661 H   0  0  0  0  0  0
  -26.0802  -31.5781   20.6046 H   0  0  0  0  0  0
  -26.8330  -30.8546   21.9974 H   0  0  0  0  0  0
  -28.1129  -29.0365   21.1619 H   0  0  0  0  0  0
  -25.9620  -25.9542   19.0110 H   0  0  0  0  0  0
  -23.9649  -27.3112   19.0266 H   0  0  0  0  0  0
  -23.7425  -30.6125   19.4114 H   0  0  0  0  0  0
  -22.7410  -29.2648   19.8586 H   0  0  0  0  0  0
  -25.1285  -36.1951   25.0829 H   0  0  0  0  0  0
  -20.9998  -28.3255   24.1410 H   0  0  0  0  0  0
  -20.5704  -26.2299   23.3610 H   0  0  0  0  0  0
  -21.6649  -26.7455   22.1186 H   0  0  0  0  0  0
  -19.6903  -25.6300   21.1254 H   0  0  0  0  0  0
  -19.6675  -27.3205   20.6758 H   0  0  0  0  0  0
  -17.4204  -26.6716   21.4027 H   0  0  0  0  0  0
  -18.0303  -26.0059   22.9009 H   0  0  0  0  0  0
  -19.7931  -30.7283   24.2287 H   0  0  0  0  0  0
  -17.5000  -31.6266   24.5167 H   0  0  0  0  0  0
  -15.5352  -30.2984   23.7630 H   0  0  0  0  0  0
  -15.8688  -28.0812   22.7070 H   0  0  0  0  0  0
  -24.5925  -30.7021   25.7740 H   0  0  0  0  0  0
  -24.8880  -32.2830   26.4866 H   0  0  0  0  0  0
  -25.8032  -30.8850   27.0211 H   0  0  0  0  0  0
  -26.2894  -29.6765   24.1185 H   0  0  0  0  0  0
  -27.4100  -29.7270   25.4604 H   0  0  0  0  0  0
  -27.8734  -30.4339   23.9304 H   0  0  0  0  0  0
  -27.2721  -33.3613   26.2061 H   0  0  0  0  0  0
  -28.3878  -32.6826   25.0301 H   0  0  0  0  0  0
  -28.0741  -31.8413   26.5397 H   0  0  0  0  0  0
  -28.2579  -38.0125   24.7581 H   0  0  0  0  0  0
  -28.1127  -36.2663   24.6212 H   0  0  0  0  0  0
  -27.2326  -37.1339   25.8872 H   0  0  0  0  0  0
  -20.9355  -29.8755   21.6901 H   0  0  0  0  0  0
  -26.0176  -38.2866   24.1455 H   0  0  0  0  0  0
  -31.5406  -23.0053   23.9452 H   0  0  0  0  0  0
  -31.8153  -23.0309   22.2084 H   0  0  0  0  0  0
  -31.7708  -21.5025   23.0816 H   0  0  0  0  0  0
  -31.3684  -23.9566   19.2262 H   0  0  0  0  0  0
  -30.6727  -25.5662   19.0688 H   0  0  0  0  0  0
  -30.0033  -24.2307   18.1473 H   0  0  0  0  0  0
  -27.5601  -20.5962   23.0686 H   0  0  0  0  0  0
  -27.3647  -18.9321   23.4599 H   0  0  0  0  0  0
  -26.8000  -19.5604   21.9030 H   0  0  0  0  0  0
  -29.8546  -20.0075   23.9106 H   0  0  0  0  0  0
  -31.0285  -19.3901   22.7617 H   0  0  0  0  0  0
  -29.9486  -18.3330   23.6764 H   0  0  0  0  0  0
  -27.8427  -15.8941   21.6270 H   0  0  0  0  0  0
  -26.9047  -17.3027   21.8570 H   0  0  0  0  0  0
  -28.0847  -16.8316   23.0851 H   0  0  0  0  0  0
  -28.5599  -16.7075   19.4525 H   0  0  0  0  0  0
  -29.3680  -18.2319   19.2016 H   0  0  0  0  0  0
  -27.6538  -18.1958   19.6439 H   0  0  0  0  0  0
  -31.5452  -15.1707   23.2114 H   0  0  0  0  0  0
  -30.2776  -13.9667   23.1401 H   0  0  0  0  0  0
  -29.8883  -15.5981   23.6472 H   0  0  0  0  0  0
  -29.3687  -23.4186   22.8923 H   0  0  0  0  0  0
  -29.2835  -21.8944   23.5830 H   0  0  0  0  0  0
  -31.0353  -17.2472   22.1877 H   0  0  0  0  0  0
  -30.9715  -17.1524   20.5118 H   0  0  0  0  0  0
  -27.4688  -24.8292   20.9041 H   0  0  0  0  0  0
  -27.7023  -24.8047   19.1700 H   0  0  0  0  0  0
  -29.9568  -24.5247   21.1690 H   0  0  0  0  0  0
  1 25  1  0  0  0
  1 30  2  0  0  0
  1 89  1  0  0  0
  2  3  1  0  0  0
  2 25  1  0  0  0
  2 90  1  0  0  0
  2 91  1  0  0  0
  3  4  1  0  0  0
  3 92  1  0  0  0
  3 93  1  0  0  0
  4  5  1  0  0  0
  4 94  1  0  0  0
  4 95  1  0  0  0
  5  6  1  0  0  0
  5 26  1  0  0  0
  5 96  1  0  0  0
  6 25  1  0  0  0
  6 97  1  0  0  0
  6 98  1  0  0  0
  7  8  2  0  0  0
  7 26  1  0  0  0
  7 29  1  0  0  0
  8  9  1  0  0  0
  8 22  1  0  0  0
  9 10  1  0  0  0
  9 27  2  0  0  0
 10 11  2  0  0  0
 10 15  1  0  0  0
 11 12  1  0  0  0
 11 99  1  0  0  0
 12 13  2  0  0  0
 12100  1  0  0  0
 13 14  1  0  0  0
 13 31  1  0  0  0
 14 15  2  0  0  0
 14101  1  0  0  0
 15102  1  0  0  0
 16 17  2  0  0  0
 16 21  1  0  0  0
 16 31  1  0  0  0
 17 18  1  0  0  0
 17103  1  0  0  0
 18 19  2  0  0  0
 18104  1  0  0  0
 19 20  1  0  0  0
 19 24  1  0  0  0
 20 21  2  0  0  0
 20105  1  0  0  0
 21 23  1  0  0  0
 22 28  1  0  0  0
 22 32  2  0  0  0
 26 27  1  0  0  0
 28106  1  0  0  0
 28107  1  0  0  0
 29108  1  0  0  0
 29109  1  0  0  0
 33 34  1  0  0  0
 33 66  1  0  0  0
 33 70  2  0  0  0
 34 36  1  0  0  0
 34 59  1  0  0  0
 34110  1  0  0  0
 35 44  2  0  0  0
 35 45  1  0  0  0
 35 68  1  0  0  0
 36 56  1  0  0  0
 36111  1  0  0  0
 37 39  1  0  0  0
 37 47  1  0  0  0
 37 66  1  0  0  0
 37112  1  0  0  0
 38 43  2  0  0  0
 38 46  1  0  0  0
 38 47  1  0  0  0
 39 64  1  0  0  0
 39 67  2  0  0  0
 40 52  1  0  0  0
 40 53  2  0  0  0
 40 58  1  0  0  0
 41113  1  0  0  0
 41114  1  0  0  0
 41115  1  0  0  0
 41 48  1  0  0  0
 42 43  1  0  0  0
 42 66  1  0  0  0
 42116  1  0  0  0
 42117  1  0  0  0
 43 44  1  0  0  0
 44118  1  0  0  0
 45 46  2  0  0  0
 45119  1  0  0  0
 46120  1  0  0  0
 47121  1  0  0  0
 47122  1  0  0  0
 48 56  1  0  0  0
 48 65  1  0  0  0
 48123  1  0  0  0
 49 50  1  0  0  0
 49 53  1  0  0  0
 49 64  1  0  0  0
 49124  1  0  0  0
 50 51  1  0  0  0
 50125  1  0  0  0
 50126  1  0  0  0
 51 52  1  0  0  0
 51127  1  0  0  0
 51128  1  0  0  0
 52129  1  0  0  0
 52130  1  0  0  0
 53 54  1  0  0  0
 54 55  2  0  0  0
 54131  1  0  0  0
 55 57  1  0  0  0
 55132  1  0  0  0
 56 69  2  0  0  0
 57 58  2  0  0  0
 57133  1  0  0  0
 58134  1  0  0  0
 59 60  1  0  0  0
 59 61  1  0  0  0
 59 62  1  0  0  0
 60135  1  0  0  0
 60136  1  0  0  0
 60137  1  0  0  0
 61138  1  0  0  0
 61139  1  0  0  0
 61140  1  0  0  0
 62141  1  0  0  0
 62142  1  0  0  0
 62143  1  0  0  0
 63 65  1  0  0  0
 63144  1  0  0  0
 63145  1  0  0  0
 63146  1  0  0  0
 64147  1  0  0  0
 65148  1  0  0  0
 68 82  1  0  0  0
 71 83  1  0  0  0
 71 86  2  0  0  0
 71 88  1  0  0  0
 72 84  1  0  0  0
 72 87  2  0  0  0
 72 88  1  0  0  0
 73 80  1  0  0  0
 73149  1  0  0  0
 73150  1  0  0  0
 73151  1  0  0  0
 74152  1  0  0  0
 74153  1  0  0  0
 74154  1  0  0  0
 74 83  1  0  0  0
 75155  1  0  0  0
 75156  1  0  0  0
 75157  1  0  0  0
 75 84  1  0  0  0
 76 84  1  0  0  0
 76158  1  0  0  0
 76159  1  0  0  0
 76160  1  0  0  0
 77161  1  0  0  0
 77162  1  0  0  0
 77163  1  0  0  0
 77 85  1  0  0  0
 78 85  1  0  0  0
 78164  1  0  0  0
 78165  1  0  0  0
 78166  1  0  0  0
 79 89  1  0  0  0
 79167  1  0  0  0
 79168  1  0  0  0
 79169  1  0  0  0
 80 88  1  0  0  0
 80170  1  0  0  0
 80171  1  0  0  0
 81 85  1  0  0  0
 81 89  1  0  0  0
 81172  1  0  0  0
 81173  1  0  0  0
 82 83  1  0  0  0
 82174  1  0  0  0
 82175  1  0  0  0
 83176  1  0  0  0
 84 85  1  0  0  0
 86 87  1  0  0  0
M  ISO  4   1 100  68 101  82 101  89 100
M  END
> <chiral flag>
0

> <version>
0

> <s_m_source_file>
/data/baiqing/PycharmProjects/Reinvent-master-3.2/result/LINK_invent/BTK/process_docking_weight1_custom_sum_contain_oxygen_bond_distance_aromatic_linkinvent_7_9_3/rearranged_h_0066.sdf

> <i_m_source_file_index>
27

> <r_mmod_Potential_Energy-OPLS-2005>
305.502807617188

> <r_mmod_Stretch_Energy-OPLS-2005>
109.278419494629

> <r_mmod_Bend_Energy-OPLS-2005>
191.686553955078

> <r_mmod_Torsional_Energy-OPLS-2005>
314.021728515625

> <r_mmod_Improper_Torsional_Energy-OPLS-2005>
7.42177438735962

> <r_mmod_Van_der_Waal_Energy-OPLS-2005>
169.50910949707

> <r_mmod_Electrostatic_Energy-OPLS-2005>
-306.711212158203

> <r_mmod_Solvation_Energy-OPLS-2005>
-204.247253417969

> <b_mmod_Minimization_Converged-OPLS-2005>
0

> <r_mmod_RMS_Derivative-OPLS-2005>
3.22402048110962

$$$$
28
                    3D
 Structure written by MMmdl.
163171  0  0  1  0            999 V2000
  -30.5067  -15.0835   20.3274 C   0  0  0  0  0  0
  -30.4431  -12.6788   19.4732 C   0  0  0  0  0  0
  -29.5172  -12.5015   18.2466 C   0  0  0  0  0  0
  -28.0575  -12.2777   18.6872 C   0  0  0  0  0  0
  -27.6149  -13.2496   19.8123 C   0  0  2  0  0  0
  -28.6664  -13.3745   20.9318 C   0  0  0  0  0  0
  -25.2473  -13.8222   20.5746 C   0  0  0  0  0  0
  -24.1767  -13.0462   20.9243 C   0  0  0  0  0  0
  -24.6369  -11.6934   20.8767 C   0  0  0  0  0  0
  -23.9077  -10.4296   21.0414 C   0  0  0  0  0  0
  -24.3637   -9.4210   21.9187 C   0  0  0  0  0  0
  -23.6303   -8.2249   22.0762 C   0  0  0  0  0  0
  -22.4283   -8.0297   21.3559 C   0  0  0  0  0  0
  -21.9918   -9.0267   20.4653 C   0  0  0  0  0  0
  -22.7250  -10.2141   20.3051 C   0  0  0  0  0  0
  -21.6858   -6.0740   22.5272 C   0  0  0  0  0  0
  -21.4011   -6.5637   23.8203 C   0  0  0  0  0  0
  -21.3662   -5.6795   24.9170 C   0  0  0  0  0  0
  -21.6046   -4.3061   24.7223 C   0  0  0  0  0  0
  -21.8818   -3.8146   23.4342 C   0  0  0  0  0  0
  -21.9186   -4.6962   22.3394 C   0  0  0  0  0  0
  -22.7798  -13.5243   21.1893 C   0  0  0  0  0  0
  -22.1655   -4.2146   21.0973 F   0  0  0  0  0  0
  -21.5628   -3.4551   25.7742 F   0  0  0  0  0  0
  -29.9094  -13.8129   20.2835 N   0  0  0  0  0  0
  -26.2848  -12.9428   20.3205 N   0  0  0  0  0  0
  -25.9303  -11.6568   20.5750 N   0  0  0  0  0  0
  -22.0447  -12.8240   22.0447 N   0  0  0  0  0  0
  -25.4206  -15.1957   20.4200 N   0  0  0  0  0  0
  -31.7443  -15.0904   20.3220 O   0  0  0  0  0  0
  -21.6642   -6.8900   21.4250 O   0  0  0  0  0  0
  -22.3511  -14.5562   20.6752 O   0  0  0  0  0  0
  -24.6481  -31.8394   23.1830 C   0  0  0  0  0  0
  -25.9237  -32.4673   23.8223 C   0  0  1  0  0  0
  -27.2176  -27.0683   20.1813 C   0  0  0  0  0  0
  -25.5971  -33.8476   24.2152 N   0  0  0  0  0  0
  -23.4548  -30.4540   21.5310 C   0  0  2  0  0  0
  -24.9049  -28.8542   20.1315 C   0  0  0  0  0  0
  -22.7572  -29.4532   22.4864 C   0  0  0  0  0  0
  -18.0318  -28.1370   22.8486 C   0  0  0  0  0  0
  -24.1486  -36.7232   23.2643 C   0  0  0  0  0  0
  -26.0133  -30.6902   21.3897 C   0  0  0  0  0  0
  -26.0855  -29.2879   20.7478 C   0  0  0  0  0  0
  -27.2455  -28.4161   20.7468 C   0  0  0  0  0  0
  -26.0087  -26.7397   19.5374 C   0  0  0  0  0  0
  -24.8805  -27.5932   19.5133 C   0  0  0  0  0  0
  -23.6881  -29.7712   20.1567 C   0  0  0  0  0  0
  -25.4132  -36.3016   24.0309 C   0  0  1  0  0  0
  -20.5924  -28.3705   23.1232 C   0  0  2  0  0  0
  -20.6787  -26.9392   22.5414 C   0  0  0  0  0  0
  -19.5757  -26.6324   21.5244 C   0  0  0  0  0  0
  -18.1945  -26.7902   22.1654 C   0  0  0  0  0  0
  -19.1572  -28.8849   23.2863 C   0  0  0  0  0  0
  -18.9482  -30.1445   23.8902 C   0  0  0  0  0  0
  -17.6477  -30.6567   24.0557 C   0  0  0  0  0  0
  -25.9084  -34.9399   23.5040 C   0  0  0  0  0  0
  -16.5369  -29.9056   23.6317 C   0  0  0  0  0  0
  -16.7298  -28.6469   23.0342 C   0  0  0  0  0  0
  -26.4555  -31.6563   25.0683 C   0  0  0  0  0  0
  -25.3728  -31.3772   26.1364 C   0  0  0  0  0  0
  -27.0424  -30.2951   24.6305 C   0  0  0  0  0  0
  -27.6060  -32.4353   25.7488 C   0  0  0  0  0  0
  -27.5566  -37.1785   24.8470 C   0  0  0  0  0  0
  -21.4258  -29.3045   22.3613 N   0  0  0  0  0  0
  -26.4282  -37.3742   23.9410 N   0  0  0  0  0  0
  -24.7265  -31.0187   22.0900 N   0  0  0  0  0  0
  -23.4201  -28.8074   23.3029 O   0  0  0  0  0  0
  -28.3022  -26.1116   20.0545 O   0  0  0  0  0  0
  -26.5651  -34.8916   22.4611 O   0  0  0  0  0  0
  -23.5593  -32.1293   23.7031 O   0  0  0  0  0  0
  -26.9687  -22.6255   20.2006 C   0  0  0  0  0  0
  -28.2135  -23.1458   20.3841 C   0  0  0  0  0  0
  -28.2630  -20.6904   20.2917 C   0  0  0  0  0  0
  -24.8469  -20.8111   21.4546 C   0  0  0  0  0  0
  -27.7448  -18.3550   21.4005 C   0  0  0  0  0  0
  -27.8924  -18.6408   18.8123 C   0  0  0  0  0  0
  -29.6888  -16.1638   18.4331 C   0  0  0  0  0  0
  -28.5488  -24.7288   20.7836 C   0  0  0  0  0  0
  -25.6779  -20.5439   20.1889 C   0  0  0  0  0  0
  -29.8585  -17.8855   20.2440 C   0  0  0  0  0  0
  -28.5057  -18.9804   20.1967 C   0  0  0  0  0  0
  -26.9946  -21.2370   20.2285 N   0  0  0  0  0  0
  -28.9906  -21.8981   20.4073 N   0  3  0  0  0  0
  -29.7816  -16.2776   19.9103 N   0  0  0  0  0  0
  -31.4614  -12.8745   19.1368 H   0  0  0  0  0  0
  -30.4916  -11.7663   20.0687 H   0  0  0  0  0  0
  -29.8560  -11.6613   17.6378 H   0  0  0  0  0  0
  -29.5764  -13.3787   17.6004 H   0  0  0  0  0  0
  -27.9836  -11.2523   19.0502 H   0  0  0  0  0  0
  -27.3853  -12.3471   17.8314 H   0  0  0  0  0  0
  -27.5444  -14.2250   19.3352 H   0  0  0  0  0  0
  -28.7985  -12.4333   21.4686 H   0  0  0  0  0  0
  -28.3513  -14.1201   21.6617 H   0  0  0  0  0  0
  -25.2785   -9.5703   22.4770 H   0  0  0  0  0  0
  -24.0012   -7.4650   22.7487 H   0  0  0  0  0  0
  -21.0836   -8.8794   19.8970 H   0  0  0  0  0  0
  -22.3702  -10.9699   19.6159 H   0  0  0  0  0  0
  -21.2009   -7.6143   23.9726 H   0  0  0  0  0  0
  -21.1484   -6.0513   25.9082 H   0  0  0  0  0  0
  -22.0590   -2.7609   23.2839 H   0  0  0  0  0  0
  -22.4058  -11.9892   22.4808 H   0  0  0  0  0  0
  -21.1062  -13.1256   22.2649 H   0  0  0  0  0  0
  -24.6669  -15.8595   20.5601 H   0  0  0  0  0  0
  -26.2798  -15.6385   20.1230 H   0  0  0  0  0  0
  -26.7286  -32.5254   23.0924 H   0  0  0  0  0  0
  -25.0129  -33.9587   25.0308 H   0  0  0  0  0  0
  -22.7617  -31.2818   21.3686 H   0  0  0  0  0  0
  -23.3760  -35.9539   23.3301 H   0  0  0  0  0  0
  -24.3555  -36.8879   22.2051 H   0  0  0  0  0  0
  -23.7244  -37.6432   23.6686 H   0  0  0  0  0  0
  -26.1696  -31.4333   20.6060 H   0  0  0  0  0  0
  -26.8827  -30.7539   22.0310 H   0  0  0  0  0  0
  -28.1591  -28.7618   21.2121 H   0  0  0  0  0  0
  -25.9316  -25.7812   19.0431 H   0  0  0  0  0  0
  -23.9790  -27.2552   19.0207 H   0  0  0  0  0  0
  -23.8412  -30.5396   19.3992 H   0  0  0  0  0  0
  -22.7989  -29.2236   19.8393 H   0  0  0  0  0  0
  -25.1331  -36.1818   25.0798 H   0  0  0  0  0  0
  -21.0047  -28.3293   24.1335 H   0  0  0  0  0  0
  -20.5702  -26.2314   23.3652 H   0  0  0  0  0  0
  -21.6648  -26.7394   22.1203 H   0  0  0  0  0  0
  -19.6904  -25.6225   21.1296 H   0  0  0  0  0  0
  -19.6703  -27.3088   20.6741 H   0  0  0  0  0  0
  -17.4221  -26.6657   21.4061 H   0  0  0  0  0  0
  -18.0356  -26.0044   22.9049 H   0  0  0  0  0  0
  -19.7962  -30.7236   24.2315 H   0  0  0  0  0  0
  -17.5024  -31.6240   24.5162 H   0  0  0  0  0  0
  -15.5377  -30.2954   23.7619 H   0  0  0  0  0  0
  -15.8710  -28.0769   22.7065 H   0  0  0  0  0  0
  -24.5902  -30.7138   25.7682 H   0  0  0  0  0  0
  -24.8912  -32.2953   26.4723 H   0  0  0  0  0  0
  -25.7990  -30.8982   27.0185 H   0  0  0  0  0  0
  -26.3045  -29.6670   24.1300 H   0  0  0  0  0  0
  -27.4007  -29.7279   25.4909 H   0  0  0  0  0  0
  -27.8966  -30.4182   23.9645 H   0  0  0  0  0  0
  -27.2624  -33.3680   26.1978 H   0  0  0  0  0  0
  -28.3907  -32.6899   25.0349 H   0  0  0  0  0  0
  -28.0669  -31.8540   26.5485 H   0  0  0  0  0  0
  -28.2600  -38.0069   24.7492 H   0  0  0  0  0  0
  -28.1063  -36.2606   24.6332 H   0  0  0  0  0  0
  -27.2268  -37.1439   25.8871 H   0  0  0  0  0  0
  -20.9459  -29.8740   21.6779 H   0  0  0  0  0  0
  -26.0145  -38.2803   24.1438 H   0  0  0  0  0  0
  -26.0307  -23.1620   20.1519 H   0  0  0  0  0  0
  -24.5842  -21.8635   21.5517 H   0  0  0  0  0  0
  -25.3883  -20.5235   22.3553 H   0  0  0  0  0  0
  -23.9167  -20.2434   21.4379 H   0  0  0  0  0  0
  -28.3200  -18.5089   22.3153 H   0  0  0  0  0  0
  -27.6138  -17.2786   21.2860 H   0  0  0  0  0  0
  -26.7693  -18.7510   21.6409 H   0  0  0  0  0  0
  -27.5802  -17.6024   18.7440 H   0  0  0  0  0  0
  -28.6207  -18.8548   18.0331 H   0  0  0  0  0  0
  -27.0401  -19.2265   18.4880 H   0  0  0  0  0  0
  -30.4459  -15.5192   17.9733 H   0  0  0  0  0  0
  -28.7194  -15.7744   18.1261 H   0  0  0  0  0  0
  -29.8466  -17.1028   17.9101 H   0  0  0  0  0  0
  -29.6273  -24.7391   20.9440 H   0  0  0  0  0  0
  -28.1349  -24.8708   21.7814 H   0  0  0  0  0  0
  -25.1451  -20.9030   19.3067 H   0  0  0  0  0  0
  -25.7538  -19.4744   20.0444 H   0  0  0  0  0  0
  -30.6298  -18.3036   19.5952 H   0  0  0  0  0  0
  -30.3142  -17.9571   21.2317 H   0  0  0  0  0  0
  -29.9962  -21.8981   20.5301 H   0  0  0  0  0  0
  1 25  1  0  0  0
  1 30  2  0  0  0
  1 84  1  0  0  0
  2  3  1  0  0  0
  2 25  1  0  0  0
  2 85  1  0  0  0
  2 86  1  0  0  0
  3  4  1  0  0  0
  3 87  1  0  0  0
  3 88  1  0  0  0
  4  5  1  0  0  0
  4 89  1  0  0  0
  4 90  1  0  0  0
  5  6  1  0  0  0
  5 26  1  0  0  0
  5 91  1  0  0  0
  6 25  1  0  0  0
  6 92  1  0  0  0
  6 93  1  0  0  0
  7  8  2  0  0  0
  7 26  1  0  0  0
  7 29  1  0  0  0
  8  9  1  0  0  0
  8 22  1  0  0  0
  9 10  1  0  0  0
  9 27  2  0  0  0
 10 11  2  0  0  0
 10 15  1  0  0  0
 11 12  1  0  0  0
 11 94  1  0  0  0
 12 13  2  0  0  0
 12 95  1  0  0  0
 13 14  1  0  0  0
 13 31  1  0  0  0
 14 15  2  0  0  0
 14 96  1  0  0  0
 15 97  1  0  0  0
 16 17  2  0  0  0
 16 21  1  0  0  0
 16 31  1  0  0  0
 17 18  1  0  0  0
 17 98  1  0  0  0
 18 19  2  0  0  0
 18 99  1  0  0  0
 19 20  1  0  0  0
 19 24  1  0  0  0
 20 21  2  0  0  0
 20100  1  0  0  0
 21 23  1  0  0  0
 22 28  1  0  0  0
 22 32  2  0  0  0
 26 27  1  0  0  0
 28101  1  0  0  0
 28102  1  0  0  0
 29103  1  0  0  0
 29104  1  0  0  0
 33 34  1  0  0  0
 33 66  1  0  0  0
 33 70  2  0  0  0
 34 36  1  0  0  0
 34 59  1  0  0  0
 34105  1  0  0  0
 35 44  2  0  0  0
 35 45  1  0  0  0
 35 68  1  0  0  0
 36 56  1  0  0  0
 36106  1  0  0  0
 37 39  1  0  0  0
 37 47  1  0  0  0
 37 66  1  0  0  0
 37107  1  0  0  0
 38 43  2  0  0  0
 38 46  1  0  0  0
 38 47  1  0  0  0
 39 64  1  0  0  0
 39 67  2  0  0  0
 40 52  1  0  0  0
 40 53  2  0  0  0
 40 58  1  0  0  0
 41108  1  0  0  0
 41109  1  0  0  0
 41110  1  0  0  0
 41 48  1  0  0  0
 42 43  1  0  0  0
 42 66  1  0  0  0
 42111  1  0  0  0
 42112  1  0  0  0
 43 44  1  0  0  0
 44113  1  0  0  0
 45 46  2  0  0  0
 45114  1  0  0  0
 46115  1  0  0  0
 47116  1  0  0  0
 47117  1  0  0  0
 48 56  1  0  0  0
 48 65  1  0  0  0
 48118  1  0  0  0
 49 50  1  0  0  0
 49 53  1  0  0  0
 49 64  1  0  0  0
 49119  1  0  0  0
 50 51  1  0  0  0
 50120  1  0  0  0
 50121  1  0  0  0
 51 52  1  0  0  0
 51122  1  0  0  0
 51123  1  0  0  0
 52124  1  0  0  0
 52125  1  0  0  0
 53 54  1  0  0  0
 54 55  2  0  0  0
 54126  1  0  0  0
 55 57  1  0  0  0
 55127  1  0  0  0
 56 69  2  0  0  0
 57 58  2  0  0  0
 57128  1  0  0  0
 58129  1  0  0  0
 59 60  1  0  0  0
 59 61  1  0  0  0
 59 62  1  0  0  0
 60130  1  0  0  0
 60131  1  0  0  0
 60132  1  0  0  0
 61133  1  0  0  0
 61134  1  0  0  0
 61135  1  0  0  0
 62136  1  0  0  0
 62137  1  0  0  0
 62138  1  0  0  0
 63 65  1  0  0  0
 63139  1  0  0  0
 63140  1  0  0  0
 63141  1  0  0  0
 64142  1  0  0  0
 65143  1  0  0  0
 68 78  1  0  0  0
 71 72  2  0  0  0
 71 82  1  0  0  0
 71144  1  0  0  0
 72 78  1  0  0  0
 72 83  1  0  0  0
 73 81  1  0  0  0
 73 82  1  0  0  0
 73 83  2  0  0  0
 74 79  1  0  0  0
 74145  1  0  0  0
 74146  1  0  0  0
 74147  1  0  0  0
 75148  1  0  0  0
 75149  1  0  0  0
 75150  1  0  0  0
 75 81  1  0  0  0
 76 81  1  0  0  0
 76151  1  0  0  0
 76152  1  0  0  0
 76153  1  0  0  0
 77 84  1  0  0  0
 77154  1  0  0  0
 77155  1  0  0  0
 77156  1  0  0  0
 78157  1  0  0  0
 78158  1  0  0  0
 79 82  1  0  0  0
 79159  1  0  0  0
 79160  1  0  0  0
 80 81  1  0  0  0
 80 84  1  0  0  0
 80161  1  0  0  0
 80162  1  0  0  0
 83163  1  0  0  0
M  CHG  1  83   1
M  ISO  4   1 100  68 101  78 101  84 100
M  END
> <chiral flag>
0

> <version>
0

> <s_m_source_file>
/data/baiqing/PycharmProjects/Reinvent-master-3.2/result/LINK_invent/BTK/process_docking_weight1_custom_sum_contain_oxygen_bond_distance_aromatic_linkinvent_7_9_3/rearranged_h_0066.sdf

> <i_m_source_file_index>
28

> <r_mmod_Potential_Energy-OPLS-2005>
1073.7734375

> <r_mmod_Stretch_Energy-OPLS-2005>
399.115264892578

> <r_mmod_Bend_Energy-OPLS-2005>
452.096801757812

> <r_mmod_Torsional_Energy-OPLS-2005>
381.341888427734

> <r_mmod_Improper_Torsional_Energy-OPLS-2005>
21.2530460357666

> <r_mmod_Van_der_Waal_Energy-OPLS-2005>
134.340316772461

> <r_mmod_Electrostatic_Energy-OPLS-2005>
-189.294998168945

> <r_mmod_Solvation_Energy-OPLS-2005>
-404.267669677734

> <b_mmod_Minimization_Converged-OPLS-2005>
0

> <r_mmod_RMS_Derivative-OPLS-2005>
3.51958250999451

$$$$
29
                    3D
 Structure written by MMmdl.
208216  0  0  1  0            999 V2000
  -30.7175  -14.7085   20.3248 C   0  0  0  0  0  0
  -30.4336  -12.4243   19.4357 C   0  0  0  0  0  0
  -29.4741  -12.3786   18.2240 C   0  0  0  0  0  0
  -28.0213  -12.1874   18.6851 C   0  0  0  0  0  0
  -27.6249  -13.1338   19.8398 C   0  0  2  0  0  0
  -28.7050  -13.2259   20.9447 C   0  0  0  0  0  0
  -25.2624  -13.7952   20.5794 C   0  0  0  0  0  0
  -24.1758  -13.0357   20.9281 C   0  0  0  0  0  0
  -24.6229  -11.6802   20.8882 C   0  0  0  0  0  0
  -23.8917  -10.4231   21.0526 C   0  0  0  0  0  0
  -24.3548   -9.4152   21.9258 C   0  0  0  0  0  0
  -23.6257   -8.2187   22.0789 C   0  0  0  0  0  0
  -22.4234   -8.0260   21.3575 C   0  0  0  0  0  0
  -21.9850   -9.0230   20.4665 C   0  0  0  0  0  0
  -22.7156  -10.2117   20.3103 C   0  0  0  0  0  0
  -21.6819   -6.0734   22.5278 C   0  0  0  0  0  0
  -21.3981   -6.5636   23.8207 C   0  0  0  0  0  0
  -21.3648   -5.6785   24.9158 C   0  0  0  0  0  0
  -21.6043   -4.3043   24.7215 C   0  0  0  0  0  0
  -21.8820   -3.8156   23.4326 C   0  0  0  0  0  0
  -21.9181   -4.6989   22.3379 C   0  0  0  0  0  0
  -22.7821  -13.5298   21.1817 C   0  0  0  0  0  0
  -22.1657   -4.2186   21.0965 F   0  0  0  0  0  0
  -21.5656   -3.4525   25.7728 F   0  0  0  0  0  0
  -30.0075  -13.5268   20.3191 N   0  0  0  0  0  0
  -26.2875  -12.8890   20.3476 N   0  0  0  0  0  0
  -25.9120  -11.6160   20.5961 N   0  0  0  0  0  0
  -22.0327  -12.8387   22.0352 N   0  0  0  0  0  0
  -25.4481  -15.1629   20.4080 N   0  0  0  0  0  0
  -31.9428  -14.6596   20.4230 O   0  0  0  0  0  0
  -21.6600   -6.8874   21.4237 O   0  0  0  0  0  0
  -22.3600  -14.5594   20.6591 O   0  0  0  0  0  0
  -24.6094  -31.8659   23.2160 C   0  0  0  0  0  0
  -25.8999  -32.4822   23.8422 C   0  0  1  0  0  0
  -27.2303  -27.4431   20.1144 C   0  0  0  0  0  0
  -25.5877  -33.8601   24.2340 N   0  0  0  0  0  0
  -23.4022  -30.4880   21.5487 C   0  0  2  0  0  0
  -24.8533  -28.9642   20.1103 C   0  0  0  0  0  0
  -22.7369  -29.4617   22.4936 C   0  0  0  0  0  0
  -18.0287  -28.1342   22.8494 C   0  0  0  0  0  0
  -24.1497  -36.7323   23.2647 C   0  0  0  0  0  0
  -25.9271  -30.8366   21.3685 C   0  0  0  0  0  0
  -26.0104  -29.4733   20.7172 C   0  0  0  0  0  0
  -27.2044  -28.7171   20.7213 C   0  0  0  0  0  0
  -26.0725  -26.9538   19.4825 C   0  0  0  0  0  0
  -24.8822  -27.7004   19.4921 C   0  0  0  0  0  0
  -23.6131  -29.8251   20.1604 C   0  0  0  0  0  0
  -25.4110  -36.3098   24.0352 C   0  0  1  0  0  0
  -20.5872  -28.3618   23.1316 C   0  0  2  0  0  0
  -20.6727  -26.9340   22.5394 C   0  0  0  0  0  0
  -19.5717  -26.6352   21.5170 C   0  0  0  0  0  0
  -18.1916  -26.7900   22.1615 C   0  0  0  0  0  0
  -19.1540  -28.8798   23.2912 C   0  0  0  0  0  0
  -18.9456  -30.1413   23.8905 C   0  0  0  0  0  0
  -17.6446  -30.6552   24.0575 C   0  0  0  0  0  0
  -25.9010  -34.9467   23.5128 C   0  0  0  0  0  0
  -16.5342  -29.9035   23.6337 C   0  0  0  0  0  0
  -16.7274  -28.6456   23.0350 C   0  0  0  0  0  0
  -26.4429  -31.6566   25.0712 C   0  0  0  0  0  0
  -25.3766  -31.3636   26.1536 C   0  0  0  0  0  0
  -27.0248  -30.3013   24.6029 C   0  0  0  0  0  0
  -27.6020  -32.4285   25.7455 C   0  0  0  0  0  0
  -27.5586  -37.1821   24.8461 C   0  0  0  0  0  0
  -21.4080  -29.3026   22.3699 N   0  0  0  0  0  0
  -26.4298  -37.3782   23.9417 N   0  0  0  0  0  0
  -24.6635  -31.0755   22.1053 N   0  0  0  0  0  0
  -23.4154  -28.8136   23.2964 O   0  0  0  0  0  0
  -28.3529  -26.6580   20.1629 O   0  0  0  0  0  0
  -26.5575  -34.8918   22.4681 O   0  0  0  0  0  0
  -23.5290  -32.1415   23.7528 O   0  0  0  0  0  0
  -31.0171  -18.4448   19.1806 C   0  0  0  0  0  0
  -30.6298  -19.6465   19.6985 C   0  0  0  0  0  0
  -30.2167  -19.3189   21.0202 C   0  0  0  0  0  0
  -32.9477  -23.1899   21.6800 C   0  0  0  0  0  0
  -30.8631  -15.8485   18.1403 C   0  0  0  0  0  0
  -28.6982  -16.1539   19.3467 C   0  0  0  0  0  0
  -28.9295  -22.4614   17.6122 C   0  0  0  0  0  0
  -28.1305  -20.2357   18.2979 C   0  0  0  0  0  0
  -29.8770  -20.4204   16.5476 C   0  0  0  0  0  0
  -34.9714  -20.5670   18.4096 C   0  0  0  0  0  0
  -35.4870  -22.5957   19.7297 C   0  0  0  0  0  0
  -34.4378  -22.8578   17.4970 C   0  0  0  0  0  0
  -29.5701  -23.2240   23.1119 C   0  0  0  0  0  0
  -27.6301  -21.9884   24.0579 C   0  0  0  0  0  0
  -29.8354  -20.3227   22.1202 C   0  0  0  0  0  0
  -32.5964  -23.1804   20.1814 C   0  0  0  0  0  0
  -28.5436  -21.1746   21.8620 C   0  0  0  0  0  0
  -27.8184  -24.3282   20.8903 C   0  0  0  0  0  0
  -27.2905  -23.4359   22.0525 C   0  0  0  0  0  0
  -31.9264  -21.4629   18.4129 C   0  0  0  0  0  0
  -28.3374  -25.7372   21.2693 C   0  0  0  0  0  0
  -30.5561  -20.9869   18.9721 C   0  0  1  0  0  0
  -33.0225  -21.8772   19.4358 C   0  0  1  0  0  0
  -30.2185  -16.0264   19.5467 C   0  0  0  0  0  0
  -29.4014  -21.0212   17.8866 C   0  0  0  0  0  0
  -34.4494  -21.9780   18.7696 C   0  0  0  0  0  0
  -28.2887  -22.4485   22.7428 C   0  0  0  0  0  0
  -30.1591  -17.9798   21.1911 N   0  0  0  0  0  0
  -30.6125  -17.4089   20.0231 N   0  0  0  0  0  0
  -31.4612  -12.5493   19.0895 H   0  0  0  0  0  0
  -30.4107  -11.4795   19.9825 H   0  0  0  0  0  0
  -29.7673  -11.5650   17.5613 H   0  0  0  0  0  0
  -29.5169  -13.2668   17.6020 H   0  0  0  0  0  0
  -27.9078  -11.1494   19.0036 H   0  0  0  0  0  0
  -27.3453  -12.3229   17.8407 H   0  0  0  0  0  0
  -27.5074  -14.0677   19.3451 H   0  0  0  0  0  0
  -28.7670  -12.2895   21.4995 H   0  0  0  0  0  0
  -28.4419  -13.9953   21.6728 H   0  0  0  0  0  0
  -25.2718   -9.5663   22.4795 H   0  0  0  0  0  0
  -24.0003   -7.4560   22.7475 H   0  0  0  0  0  0
  -21.0805   -8.8783   19.8925 H   0  0  0  0  0  0
  -22.3694  -10.9702   19.6213 H   0  0  0  0  0  0
  -21.1941   -7.6144   23.9734 H   0  0  0  0  0  0
  -21.1465   -6.0488   25.9065 H   0  0  0  0  0  0
  -22.0607   -2.7636   23.2785 H   0  0  0  0  0  0
  -22.3852  -12.0142   22.4963 H   0  0  0  0  0  0
  -21.0921  -13.1494   22.2356 H   0  0  0  0  0  0
  -24.7073  -15.8441   20.5203 H   0  0  0  0  0  0
  -26.3148  -15.5790   20.0952 H   0  0  0  0  0  0
  -26.7042  -32.5548   23.1183 H   0  0  0  0  0  0
  -25.0047  -33.9767   25.0486 H   0  0  0  0  0  0
  -22.6945  -31.3062   21.4095 H   0  0  0  0  0  0
  -23.3741  -35.9670   23.3291 H   0  0  0  0  0  0
  -24.3611  -36.8938   22.2066 H   0  0  0  0  0  0
  -23.7257  -37.6532   23.6653 H   0  0  0  0  0  0
  -26.0416  -31.5980   20.5998 H   0  0  0  0  0  0
  -26.8155  -30.8866   21.9854 H   0  0  0  0  0  0
  -28.0971  -29.0973   21.1996 H   0  0  0  0  0  0
  -26.0871  -25.9911   18.9954 H   0  0  0  0  0  0
  -23.9979  -27.2949   19.0235 H   0  0  0  0  0  0
  -23.7231  -30.6057   19.4048 H   0  0  0  0  0  0
  -22.7367  -29.2410   19.8716 H   0  0  0  0  0  0
  -25.1270  -36.1988   25.0848 H   0  0  0  0  0  0
  -21.0010  -28.3163   24.1430 H   0  0  0  0  0  0
  -20.5551  -26.2187   23.3561 H   0  0  0  0  0  0
  -21.6599  -26.7310   22.1239 H   0  0  0  0  0  0
  -19.6844  -25.6266   21.1197 H   0  0  0  0  0  0
  -19.6687  -27.3148   20.6704 H   0  0  0  0  0  0
  -17.4146  -26.6659   21.4044 H   0  0  0  0  0  0
  -18.0361  -26.0012   22.8995 H   0  0  0  0  0  0
  -19.7920  -30.7241   24.2223 H   0  0  0  0  0  0
  -17.5005  -31.6261   24.5143 H   0  0  0  0  0  0
  -15.5341  -30.2950   23.7636 H   0  0  0  0  0  0
  -15.8681  -28.0791   22.7051 H   0  0  0  0  0  0
  -24.5928  -30.6966   25.7911 H   0  0  0  0  0  0
  -24.8992  -32.2766   26.5098 H   0  0  0  0  0  0
  -25.8250  -30.8762   27.0203 H   0  0  0  0  0  0
  -26.2741  -29.6810   24.1126 H   0  0  0  0  0  0
  -27.4039  -29.7229   25.4444 H   0  0  0  0  0  0
  -27.8565  -30.4317   23.9126 H   0  0  0  0  0  0
  -27.2645  -33.3579   26.2067 H   0  0  0  0  0  0
  -28.3835  -32.6854   25.0288 H   0  0  0  0  0  0
  -28.0681  -31.8380   26.5367 H   0  0  0  0  0  0
  -28.2576  -38.0138   24.7521 H   0  0  0  0  0  0
  -28.1113  -36.2670   24.6268 H   0  0  0  0  0  0
  -27.2316  -37.1449   25.8864 H   0  0  0  0  0  0
  -20.9127  -29.8858   21.7081 H   0  0  0  0  0  0
  -26.0191  -38.2845   24.1445 H   0  0  0  0  0  0
  -31.3737  -18.2748   18.1785 H   0  0  0  0  0  0
  -32.4094  -22.4061   22.2119 H   0  0  0  0  0  0
  -32.6925  -24.1474   22.1325 H   0  0  0  0  0  0
  -34.0044  -23.0223   21.8726 H   0  0  0  0  0  0
  -30.3942  -16.4705   17.3786 H   0  0  0  0  0  0
  -30.8076  -14.8356   17.7702 H   0  0  0  0  0  0
  -31.9280  -16.0773   18.1565 H   0  0  0  0  0  0
  -28.3918  -17.1766   19.1420 H   0  0  0  0  0  0
  -28.1640  -15.8800   20.2536 H   0  0  0  0  0  0
  -28.3525  -15.6090   18.4686 H   0  0  0  0  0  0
  -28.1099  -22.4918   16.8890 H   0  0  0  0  0  0
  -29.7237  -23.0983   17.2240 H   0  0  0  0  0  0
  -28.5480  -22.9228   18.5148 H   0  0  0  0  0  0
  -27.3765  -20.2683   17.5115 H   0  0  0  0  0  0
  -27.6419  -20.6222   19.1878 H   0  0  0  0  0  0
  -28.3372  -19.1872   18.4654 H   0  0  0  0  0  0
  -29.0456  -20.3295   15.8489 H   0  0  0  0  0  0
  -30.2967  -19.4245   16.6704 H   0  0  0  0  0  0
  -30.6325  -21.0369   16.0572 H   0  0  0  0  0  0
  -35.9994  -20.6103   18.0472 H   0  0  0  0  0  0
  -34.3850  -20.0829   17.6281 H   0  0  0  0  0  0
  -34.9724  -19.9079   19.2804 H   0  0  0  0  0  0
  -36.4845  -22.6382   19.2848 H   0  0  0  0  0  0
  -35.5639  -22.0094   20.6445 H   0  0  0  0  0  0
  -35.2369  -23.6223   20.0028 H   0  0  0  0  0  0
  -35.4267  -22.9062   17.0417 H   0  0  0  0  0  0
  -34.1343  -23.8829   17.7178 H   0  0  0  0  0  0
  -33.7566  -22.4804   16.7342 H   0  0  0  0  0  0
  -30.2124  -22.6536   23.7808 H   0  0  0  0  0  0
  -29.3255  -24.1560   23.6235 H   0  0  0  0  0  0
  -30.1521  -23.4876   22.2313 H   0  0  0  0  0  0
  -28.2083  -21.2052   24.5503 H   0  0  0  0  0  0
  -26.6300  -21.5913   23.8794 H   0  0  0  0  0  0
  -27.5251  -22.8168   24.7582 H   0  0  0  0  0  0
  -30.6773  -21.0061   22.2241 H   0  0  0  0  0  0
  -29.7576  -19.8278   23.0892 H   0  0  0  0  0  0
  -33.0063  -24.0588   19.6828 H   0  0  0  0  0  0
  -31.5215  -23.3363   20.1220 H   0  0  0  0  0  0
  -27.6803  -20.5113   21.9262 H   0  0  0  0  0  0
  -28.5302  -21.5146   20.8356 H   0  0  0  0  0  0
  -26.9969  -24.4399   20.1851 H   0  0  0  0  0  0
  -28.6193  -23.8140   20.3741 H   0  0  0  0  0  0
  -26.4526  -22.8461   21.6712 H   0  0  0  0  0  0
  -26.8324  -24.0885   22.7986 H   0  0  0  0  0  0
  -31.7481  -22.3300   17.7807 H   0  0  0  0  0  0
  -32.3070  -20.6923   17.7472 H   0  0  0  0  0  0
  -29.3606  -25.6476   21.6350 H   0  0  0  0  0  0
  -27.7528  -26.1489   22.0961 H   0  0  0  0  0  0
  -30.2736  -21.7265   19.7142 H   0  0  0  0  0  0
  -33.0723  -21.0716   20.1728 H   0  0  0  0  0  0
  1 25  1  0  0  0
  1 30  2  0  0  0
  1 94  1  0  0  0
  2  3  1  0  0  0
  2 25  1  0  0  0
  2100  1  0  0  0
  2101  1  0  0  0
  3  4  1  0  0  0
  3102  1  0  0  0
  3103  1  0  0  0
  4  5  1  0  0  0
  4104  1  0  0  0
  4105  1  0  0  0
  5  6  1  0  0  0
  5 26  1  0  0  0
  5106  1  0  0  0
  6 25  1  0  0  0
  6107  1  0  0  0
  6108  1  0  0  0
  7  8  2  0  0  0
  7 26  1  0  0  0
  7 29  1  0  0  0
  8  9  1  0  0  0
  8 22  1  0  0  0
  9 10  1  0  0  0
  9 27  2  0  0  0
 10 11  2  0  0  0
 10 15  1  0  0  0
 11 12  1  0  0  0
 11109  1  0  0  0
 12 13  2  0  0  0
 12110  1  0  0  0
 13 14  1  0  0  0
 13 31  1  0  0  0
 14 15  2  0  0  0
 14111  1  0  0  0
 15112  1  0  0  0
 16 17  2  0  0  0
 16 21  1  0  0  0
 16 31  1  0  0  0
 17 18  1  0  0  0
 17113  1  0  0  0
 18 19  2  0  0  0
 18114  1  0  0  0
 19 20  1  0  0  0
 19 24  1  0  0  0
 20 21  2  0  0  0
 20115  1  0  0  0
 21 23  1  0  0  0
 22 28  1  0  0  0
 22 32  2  0  0  0
 26 27  1  0  0  0
 28116  1  0  0  0
 28117  1  0  0  0
 29118  1  0  0  0
 29119  1  0  0  0
 33 34  1  0  0  0
 33 66  1  0  0  0
 33 70  2  0  0  0
 34 36  1  0  0  0
 34 59  1  0  0  0
 34120  1  0  0  0
 35 44  2  0  0  0
 35 45  1  0  0  0
 35 68  1  0  0  0
 36 56  1  0  0  0
 36121  1  0  0  0
 37 39  1  0  0  0
 37 47  1  0  0  0
 37 66  1  0  0  0
 37122  1  0  0  0
 38 43  2  0  0  0
 38 46  1  0  0  0
 38 47  1  0  0  0
 39 64  1  0  0  0
 39 67  2  0  0  0
 40 52  1  0  0  0
 40 53  2  0  0  0
 40 58  1  0  0  0
 41123  1  0  0  0
 41124  1  0  0  0
 41125  1  0  0  0
 41 48  1  0  0  0
 42 43  1  0  0  0
 42 66  1  0  0  0
 42126  1  0  0  0
 42127  1  0  0  0
 43 44  1  0  0  0
 44128  1  0  0  0
 45 46  2  0  0  0
 45129  1  0  0  0
 46130  1  0  0  0
 47131  1  0  0  0
 47132  1  0  0  0
 48 56  1  0  0  0
 48 65  1  0  0  0
 48133  1  0  0  0
 49 50  1  0  0  0
 49 53  1  0  0  0
 49 64  1  0  0  0
 49134  1  0  0  0
 50 51  1  0  0  0
 50135  1  0  0  0
 50136  1  0  0  0
 51 52  1  0  0  0
 51137  1  0  0  0
 51138  1  0  0  0
 52139  1  0  0  0
 52140  1  0  0  0
 53 54  1  0  0  0
 54 55  2  0  0  0
 54141  1  0  0  0
 55 57  1  0  0  0
 55142  1  0  0  0
 56 69  2  0  0  0
 57 58  2  0  0  0
 57143  1  0  0  0
 58144  1  0  0  0
 59 60  1  0  0  0
 59 61  1  0  0  0
 59 62  1  0  0  0
 60145  1  0  0  0
 60146  1  0  0  0
 60147  1  0  0  0
 61148  1  0  0  0
 61149  1  0  0  0
 61150  1  0  0  0
 62151  1  0  0  0
 62152  1  0  0  0
 62153  1  0  0  0
 63 65  1  0  0  0
 63154  1  0  0  0
 63155  1  0  0  0
 63156  1  0  0  0
 64157  1  0  0  0
 65158  1  0  0  0
 68 91  1  0  0  0
 71 72  2  0  0  0
 71 99  1  0  0  0
 71159  1  0  0  0
 72 73  1  0  0  0
 72 92  1  0  0  0
 73 85  1  0  0  0
 73 98  2  0  0  0
 74 86  1  0  0  0
 74160  1  0  0  0
 74161  1  0  0  0
 74162  1  0  0  0
 75163  1  0  0  0
 75164  1  0  0  0
 75165  1  0  0  0
 75 94  1  0  0  0
 76 94  1  0  0  0
 76166  1  0  0  0
 76167  1  0  0  0
 76168  1  0  0  0
 77169  1  0  0  0
 77170  1  0  0  0
 77171  1  0  0  0
 77 95  1  0  0  0
 78 95  1  0  0  0
 78172  1  0  0  0
 78173  1  0  0  0
 78174  1  0  0  0
 79 95  1  0  0  0
 79175  1  0  0  0
 79176  1  0  0  0
 79177  1  0  0  0
 80178  1  0  0  0
 80179  1  0  0  0
 80180  1  0  0  0
 80 96  1  0  0  0
 81 96  1  0  0  0
 81181  1  0  0  0
 81182  1  0  0  0
 81183  1  0  0  0
 82 96  1  0  0  0
 82184  1  0  0  0
 82185  1  0  0  0
 82186  1  0  0  0
 83187  1  0  0  0
 83188  1  0  0  0
 83189  1  0  0  0
 83 97  1  0  0  0
 84 97  1  0  0  0
 84190  1  0  0  0
 84191  1  0  0  0
 84192  1  0  0  0
 85 87  1  0  0  0
 85193  1  0  0  0
 85194  1  0  0  0
 86195  1  0  0  0
 86196  1  0  0  0
 86 93  1  0  0  0
 87 97  1  0  0  0
 87197  1  0  0  0
 87198  1  0  0  0
 88 89  1  0  0  0
 88 91  1  0  0  0
 88199  1  0  0  0
 88200  1  0  0  0
 89 97  1  0  0  0
 89201  1  0  0  0
 89202  1  0  0  0
 90 93  1  0  0  0
 90203  1  0  0  0
 90204  1  0  0  0
 90 92  1  0  0  0
 91205  1  0  0  0
 91206  1  0  0  0
 92 95  1  0  0  0
 92207  1  0  0  0
 93 96  1  0  0  0
 93208  1  0  0  0
 94 99  1  0  0  0
 98 99  1  0  0  0
M  ISO  4   1 100  68 101  91 101  94 100
M  END
> <chiral flag>
0

> <version>
0

> <s_m_source_file>
/data/baiqing/PycharmProjects/Reinvent-master-3.2/result/LINK_invent/BTK/process_docking_weight1_custom_sum_contain_oxygen_bond_distance_aromatic_linkinvent_7_9_3/rearranged_h_0066.sdf

> <i_m_source_file_index>
29

> <r_mmod_Potential_Energy-OPLS-2005>
380.904632568359

> <r_mmod_Stretch_Energy-OPLS-2005>
75.1233749389648

> <r_mmod_Bend_Energy-OPLS-2005>
195.175765991211

> <r_mmod_Torsional_Energy-OPLS-2005>
386.904632568359

> <r_mmod_Improper_Torsional_Energy-OPLS-2005>
27.3373641967773

> <r_mmod_Van_der_Waal_Energy-OPLS-2005>
162.558471679688

> <r_mmod_Electrostatic_Energy-OPLS-2005>
-380.92431640625

> <r_mmod_Solvation_Energy-OPLS-2005>
-167.729751586914

> <b_mmod_Minimization_Converged-OPLS-2005>
0

> <r_mmod_RMS_Derivative-OPLS-2005>
6.83832168579102

$$$$
30
                    3D
 Structure written by MMmdl.
197204  0  0  1  0            999 V2000
  -30.6519  -14.6721   20.5571 C   0  0  0  0  0  0
  -30.4339  -12.4288   19.4667 C   0  0  0  0  0  0
  -29.5082  -12.5234   18.2334 C   0  0  0  0  0  0
  -28.0347  -12.3440   18.6444 C   0  0  0  0  0  0
  -27.6510  -13.2241   19.8621 C   0  0  2  0  0  0
  -28.6900  -13.1000   20.9970 C   0  0  0  0  0  0
  -25.2544  -13.8189   20.5688 C   0  0  0  0  0  0
  -24.1823  -13.0451   20.9186 C   0  0  0  0  0  0
  -24.6398  -11.6920   20.8730 C   0  0  0  0  0  0
  -23.9072  -10.4299   21.0395 C   0  0  0  0  0  0
  -24.3620   -9.4215   21.9176 C   0  0  0  0  0  0
  -23.6293   -8.2252   22.0755 C   0  0  0  0  0  0
  -22.4274   -8.0286   21.3546 C   0  0  0  0  0  0
  -21.9912   -9.0258   20.4642 C   0  0  0  0  0  0
  -22.7243  -10.2135   20.3046 C   0  0  0  0  0  0
  -21.6851   -6.0737   22.5277 C   0  0  0  0  0  0
  -21.4013   -6.5639   23.8212 C   0  0  0  0  0  0
  -21.3662   -5.6790   24.9172 C   0  0  0  0  0  0
  -21.6045   -4.3051   24.7219 C   0  0  0  0  0  0
  -21.8816   -3.8146   23.4337 C   0  0  0  0  0  0
  -21.9191   -4.6966   22.3397 C   0  0  0  0  0  0
  -22.7841  -13.5232   21.1845 C   0  0  0  0  0  0
  -22.1659   -4.2153   21.0973 F   0  0  0  0  0  0
  -21.5630   -3.4533   25.7732 F   0  0  0  0  0  0
  -30.0086  -13.4567   20.4462 N   0  0  0  0  0  0
  -26.2976  -12.9385   20.3303 N   0  0  0  0  0  0
  -25.9327  -11.6529   20.5742 N   0  0  0  0  0  0
  -22.0488  -12.8221   22.0396 N   0  0  0  0  0  0
  -25.4242  -15.1915   20.4120 N   0  0  0  0  0  0
  -31.7487  -14.8466   20.0179 O   0  0  0  0  0  0
  -21.6639   -6.8883   21.4244 O   0  0  0  0  0  0
  -22.3530  -14.5542   20.6694 O   0  0  0  0  0  0
  -24.6297  -31.8586   23.2007 C   0  0  0  0  0  0
  -25.9133  -32.4775   23.8343 C   0  0  1  0  0  0
  -27.2194  -27.2756   20.1101 C   0  0  0  0  0  0
  -25.5940  -33.8574   24.2273 N   0  0  0  0  0  0
  -23.4244  -30.4821   21.5461 C   0  0  2  0  0  0
  -24.8694  -28.9361   20.1093 C   0  0  0  0  0  0
  -22.7489  -29.4617   22.4939 C   0  0  0  0  0  0
  -18.0286  -28.1370   22.8487 C   0  0  0  0  0  0
  -24.1490  -36.7283   23.2639 C   0  0  0  0  0  0
  -25.9710  -30.7715   21.3825 C   0  0  0  0  0  0
  -26.0401  -29.3963   20.7228 C   0  0  0  0  0  0
  -27.2115  -28.5746   20.7213 C   0  0  0  0  0  0
  -26.0262  -26.8963   19.4491 C   0  0  0  0  0  0
  -24.8670  -27.6922   19.4659 C   0  0  0  0  0  0
  -23.6396  -29.8189   20.1614 C   0  0  0  0  0  0
  -25.4119  -36.3081   24.0331 C   0  0  1  0  0  0
  -20.5890  -28.3684   23.1269 C   0  0  2  0  0  0
  -20.6779  -26.9405   22.5397 C   0  0  0  0  0  0
  -19.5752  -26.6372   21.5203 C   0  0  0  0  0  0
  -18.1930  -26.7919   22.1613 C   0  0  0  0  0  0
  -19.1542  -28.8842   23.2870 C   0  0  0  0  0  0
  -18.9466  -30.1445   23.8888 C   0  0  0  0  0  0
  -17.6468  -30.6581   24.0550 C   0  0  0  0  0  0
  -25.9056  -34.9450   23.5100 C   0  0  0  0  0  0
  -16.5355  -29.9077   23.6329 C   0  0  0  0  0  0
  -16.7273  -28.6485   23.0364 C   0  0  0  0  0  0
  -26.4493  -31.6595   25.0731 C   0  0  0  0  0  0
  -25.3696  -31.3735   26.1437 C   0  0  0  0  0  0
  -27.0369  -30.3021   24.6218 C   0  0  0  0  0  0
  -27.6030  -32.4359   25.7510 C   0  0  0  0  0  0
  -27.5584  -37.1803   24.8468 C   0  0  0  0  0  0
  -21.4198  -29.3041   22.3671 N   0  0  0  0  0  0
  -26.4295  -37.3775   23.9405 N   0  0  0  0  0  0
  -24.6942  -31.0552   22.0990 N   0  0  0  0  0  0
  -23.4195  -28.8160   23.3031 O   0  0  0  0  0  0
  -28.3370  -26.4106   20.1948 O   0  0  0  0  0  0
  -26.5615  -34.8916   22.4662 O   0  0  0  0  0  0
  -23.5447  -32.1419   23.7295 O   0  0  0  0  0  0
  -22.9261  -20.7000   20.8526 C   0  0  0  0  0  0
  -24.2459  -21.2476   22.8956 C   0  0  0  0  0  0
  -29.2340  -24.0495   21.9796 C   0  0  0  0  0  0
  -24.9515  -22.0740   19.0911 C   0  0  0  0  0  0
  -26.0105  -23.9254   21.3413 C   0  0  0  0  0  0
  -29.6877  -21.0372   19.0174 C   0  0  0  0  0  0
  -27.7274  -19.7682   19.5466 C   0  0  0  0  0  0
  -30.6705  -20.7581   21.8839 C   0  0  0  0  0  0
  -30.0192  -15.7097   22.6505 C   0  0  0  0  0  0
  -29.5372  -18.9293   23.7470 C   0  0  0  0  0  0
  -27.5902  -20.0942   23.0145 C   0  0  0  0  0  0
  -30.2543  -18.4516   20.8200 C   0  0  0  0  0  0
  -29.4848  -17.0410   20.6007 C   0  0  0  0  0  0
  -28.3385  -24.9982   19.6813 C   0  0  0  0  0  0
  -24.0076  -21.6391   21.4235 C   0  0  0  0  0  0
  -28.8296  -23.6942   20.5328 C   0  0  2  0  0  0
  -25.3038  -21.6531   20.5413 C   0  0  2  0  0  0
  -26.5221  -22.4751   21.1238 C   0  0  1  0  0  0
  -27.9641  -22.3043   20.4083 C   0  0  2  0  0  0
  -28.7077  -20.7705   20.2119 C   0  0  0  0  0  0
  -29.5325  -19.8395   21.3522 C   0  0  2  0  0  0
  -30.0022  -15.7243   21.1873 N   0  0  0  0  0  0
  -28.7445  -19.3259   22.5451 N   0  3  0  0  0  0
  -31.4751  -12.5493   19.1638 H   0  0  0  0  0  0
  -30.3732  -11.4368   19.9165 H   0  0  0  0  0  0
  -29.7848  -11.7698   17.4947 H   0  0  0  0  0  0
  -29.6381  -13.4912   17.7466 H   0  0  0  0  0  0
  -27.8872  -11.2916   18.8898 H   0  0  0  0  0  0
  -27.3756  -12.5541   17.8014 H   0  0  0  0  0  0
  -27.6659  -14.2577   19.5147 H   0  0  0  0  0  0
  -28.7099  -12.0837   21.3939 H   0  0  0  0  0  0
  -28.3972  -13.7376   21.8300 H   0  0  0  0  0  0
  -25.2767   -9.5691   22.4747 H   0  0  0  0  0  0
  -24.0000   -7.4648   22.7481 H   0  0  0  0  0  0
  -21.0843   -8.8775   19.8946 H   0  0  0  0  0  0
  -22.3704  -10.9670   19.6149 H   0  0  0  0  0  0
  -21.2006   -7.6145   23.9718 H   0  0  0  0  0  0
  -21.1486   -6.0514   25.9077 H   0  0  0  0  0  0
  -22.0589   -2.7608   23.2830 H   0  0  0  0  0  0
  -22.4110  -11.9883   22.4780 H   0  0  0  0  0  0
  -21.1099  -13.1230   22.2587 H   0  0  0  0  0  0
  -24.6501  -15.8394   20.5073 H   0  0  0  0  0  0
  -26.2704  -15.6295   20.0738 H   0  0  0  0  0  0
  -26.7196  -32.5424   23.1079 H   0  0  0  0  0  0
  -25.0123  -33.9711   25.0445 H   0  0  0  0  0  0
  -22.7193  -31.3037   21.4024 H   0  0  0  0  0  0
  -23.3762  -35.9602   23.3292 H   0  0  0  0  0  0
  -24.3581  -36.8917   22.2055 H   0  0  0  0  0  0
  -23.7233  -37.6477   23.6670 H   0  0  0  0  0  0
  -26.1123  -31.5332   20.6145 H   0  0  0  0  0  0
  -26.8478  -30.8172   22.0166 H   0  0  0  0  0  0
  -28.1046  -28.9197   21.2240 H   0  0  0  0  0  0
  -25.9257  -25.9720   18.9091 H   0  0  0  0  0  0
  -23.9726  -27.3371   18.9725 H   0  0  0  0  0  0
  -23.7558  -30.5961   19.4051 H   0  0  0  0  0  0
  -22.7587  -29.2483   19.8622 H   0  0  0  0  0  0
  -25.1295  -36.1932   25.0825 H   0  0  0  0  0  0
  -20.9969  -28.3255   24.1395 H   0  0  0  0  0  0
  -20.5688  -26.2288   23.3596 H   0  0  0  0  0  0
  -21.6647  -26.7437   22.1188 H   0  0  0  0  0  0
  -19.6916  -25.6281   21.1242 H   0  0  0  0  0  0
  -19.6691  -27.3166   20.6723 H   0  0  0  0  0  0
  -17.4206  -26.6673   21.4010 H   0  0  0  0  0  0
  -18.0313  -26.0050   22.8997 H   0  0  0  0  0  0
  -19.7941  -30.7253   24.2266 H   0  0  0  0  0  0
  -17.5026  -31.6270   24.5138 H   0  0  0  0  0  0
  -15.5357  -30.2978   23.7667 H   0  0  0  0  0  0
  -15.8668  -28.0802   22.7103 H   0  0  0  0  0  0
  -24.5876  -30.7088   25.7748 H   0  0  0  0  0  0
  -24.8869  -32.2900   26.4845 H   0  0  0  0  0  0
  -25.7990  -30.8919   27.0233 H   0  0  0  0  0  0
  -26.2978  -29.6750   24.1218 H   0  0  0  0  0  0
  -27.4049  -29.7296   25.4744 H   0  0  0  0  0  0
  -27.8843  -30.4320   23.9478 H   0  0  0  0  0  0
  -27.2629  -33.3685   26.2027 H   0  0  0  0  0  0
  -28.3860  -32.6894   25.0350 H   0  0  0  0  0  0
  -28.0671  -31.8531   26.5477 H   0  0  0  0  0  0
  -28.2591  -38.0111   24.7532 H   0  0  0  0  0  0
  -28.1096  -36.2643   24.6285 H   0  0  0  0  0  0
  -27.2295  -37.1436   25.8869 H   0  0  0  0  0  0
  -20.9381  -29.8790   21.6904 H   0  0  0  0  0  0
  -26.0179  -38.2856   24.1389 H   0  0  0  0  0  0
  -22.0711  -20.6210   21.5248 H   0  0  0  0  0  0
  -23.3135  -19.6927   20.6964 H   0  0  0  0  0  0
  -22.5320  -21.0599   19.9027 H   0  0  0  0  0  0
  -23.3109  -21.2680   23.4568 H   0  0  0  0  0  0
  -24.9194  -21.9314   23.4108 H   0  0  0  0  0  0
  -24.6450  -20.2373   22.9822 H   0  0  0  0  0  0
  -29.1047  -25.1103   22.1923 H   0  0  0  0  0  0
  -30.2863  -23.8295   22.1577 H   0  0  0  0  0  0
  -28.6529  -23.4978   22.7177 H   0  0  0  0  0  0
  -24.2969  -21.3473   18.6127 H   0  0  0  0  0  0
  -25.8158  -22.1468   18.4369 H   0  0  0  0  0  0
  -24.4402  -23.0358   19.0587 H   0  0  0  0  0  0
  -25.1917  -23.9550   22.0573 H   0  0  0  0  0  0
  -25.6282  -24.3682   20.4280 H   0  0  0  0  0  0
  -26.7390  -24.6051   21.7711 H   0  0  0  0  0  0
  -29.1816  -21.5143   18.1769 H   0  0  0  0  0  0
  -30.1170  -20.1333   18.5916 H   0  0  0  0  0  0
  -30.5294  -21.6818   19.2527 H   0  0  0  0  0  0
  -27.0854  -20.2441   18.8082 H   0  0  0  0  0  0
  -27.1059  -19.2292   20.2558 H   0  0  0  0  0  0
  -28.2503  -18.9844   18.9993 H   0  0  0  0  0  0
  -31.3133  -21.1523   21.1029 H   0  0  0  0  0  0
  -31.3630  -20.2543   22.5559 H   0  0  0  0  0  0
  -30.2625  -21.6018   22.4327 H   0  0  0  0  0  0
  -29.1335  -16.1901   23.0639 H   0  0  0  0  0  0
  -30.9094  -16.2224   23.0140 H   0  0  0  0  0  0
  -30.0544  -14.6990   23.0613 H   0  0  0  0  0  0
  -28.9414  -18.2981   24.4073 H   0  0  0  0  0  0
  -29.8373  -19.8015   24.3294 H   0  0  0  0  0  0
  -30.4392  -18.3683   23.5236 H   0  0  0  0  0  0
  -27.1195  -19.6202   23.8763 H   0  0  0  0  0  0
  -26.8277  -20.1181   22.2492 H   0  0  0  0  0  0
  -27.9096  -21.0864   23.3307 H   0  0  0  0  0  0
  -30.8011  -18.6568   19.9040 H   0  0  0  0  0  0
  -31.0815  -18.2225   21.4892 H   0  0  0  0  0  0
  -29.3956  -16.8824   19.5247 H   0  0  0  0  0  0
  -28.4514  -17.1408   20.9321 H   0  0  0  0  0  0
  -27.4281  -24.7176   19.1705 H   0  0  0  0  0  0
  -29.0294  -25.0651   18.8404 H   0  0  0  0  0  0
  -23.5685  -22.6370   21.4241 H   0  0  0  0  0  0
  -29.7876  -23.4835   20.0667 H   0  0  0  0  0  0
  -25.5763  -20.6108   20.4986 H   0  0  0  0  0  0
  -26.6704  -22.2089   22.1520 H   0  0  0  0  0  0
  -27.6556  -22.4540   19.3801 H   0  0  0  0  0  0
  -28.3419  -18.4660   22.2032 H   0  0  0  0  0  0
  1 25  1  0  0  0
  1 30  2  0  0  0
  1 92  1  0  0  0
  2  3  1  0  0  0
  2 25  1  0  0  0
  2 94  1  0  0  0
  2 95  1  0  0  0
  3  4  1  0  0  0
  3 96  1  0  0  0
  3 97  1  0  0  0
  4  5  1  0  0  0
  4 98  1  0  0  0
  4 99  1  0  0  0
  5  6  1  0  0  0
  5 26  1  0  0  0
  5100  1  0  0  0
  6 25  1  0  0  0
  6101  1  0  0  0
  6102  1  0  0  0
  7  8  2  0  0  0
  7 26  1  0  0  0
  7 29  1  0  0  0
  8  9  1  0  0  0
  8 22  1  0  0  0
  9 10  1  0  0  0
  9 27  2  0  0  0
 10 11  2  0  0  0
 10 15  1  0  0  0
 11 12  1  0  0  0
 11103  1  0  0  0
 12 13  2  0  0  0
 12104  1  0  0  0
 13 14  1  0  0  0
 13 31  1  0  0  0
 14 15  2  0  0  0
 14105  1  0  0  0
 15106  1  0  0  0
 16 17  2  0  0  0
 16 21  1  0  0  0
 16 31  1  0  0  0
 17 18  1  0  0  0
 17107  1  0  0  0
 18 19  2  0  0  0
 18108  1  0  0  0
 19 20  1  0  0  0
 19 24  1  0  0  0
 20 21  2  0  0  0
 20109  1  0  0  0
 21 23  1  0  0  0
 22 28  1  0  0  0
 22 32  2  0  0  0
 26 27  1  0  0  0
 28110  1  0  0  0
 28111  1  0  0  0
 29112  1  0  0  0
 29113  1  0  0  0
 33 34  1  0  0  0
 33 66  1  0  0  0
 33 70  2  0  0  0
 34 36  1  0  0  0
 34 59  1  0  0  0
 34114  1  0  0  0
 35 44  2  0  0  0
 35 45  1  0  0  0
 35 68  1  0  0  0
 36 56  1  0  0  0
 36115  1  0  0  0
 37 39  1  0  0  0
 37 47  1  0  0  0
 37 66  1  0  0  0
 37116  1  0  0  0
 38 43  2  0  0  0
 38 46  1  0  0  0
 38 47  1  0  0  0
 39 64  1  0  0  0
 39 67  2  0  0  0
 40 52  1  0  0  0
 40 53  2  0  0  0
 40 58  1  0  0  0
 41117  1  0  0  0
 41118  1  0  0  0
 41119  1  0  0  0
 41 48  1  0  0  0
 42 43  1  0  0  0
 42 66  1  0  0  0
 42120  1  0  0  0
 42121  1  0  0  0
 43 44  1  0  0  0
 44122  1  0  0  0
 45 46  2  0  0  0
 45123  1  0  0  0
 46124  1  0  0  0
 47125  1  0  0  0
 47126  1  0  0  0
 48 56  1  0  0  0
 48 65  1  0  0  0
 48127  1  0  0  0
 49 50  1  0  0  0
 49 53  1  0  0  0
 49 64  1  0  0  0
 49128  1  0  0  0
 50 51  1  0  0  0
 50129  1  0  0  0
 50130  1  0  0  0
 51 52  1  0  0  0
 51131  1  0  0  0
 51132  1  0  0  0
 52133  1  0  0  0
 52134  1  0  0  0
 53 54  1  0  0  0
 54 55  2  0  0  0
 54135  1  0  0  0
 55 57  1  0  0  0
 55136  1  0  0  0
 56 69  2  0  0  0
 57 58  2  0  0  0
 57137  1  0  0  0
 58138  1  0  0  0
 59 60  1  0  0  0
 59 61  1  0  0  0
 59 62  1  0  0  0
 60139  1  0  0  0
 60140  1  0  0  0
 60141  1  0  0  0
 61142  1  0  0  0
 61143  1  0  0  0
 61144  1  0  0  0
 62145  1  0  0  0
 62146  1  0  0  0
 62147  1  0  0  0
 63 65  1  0  0  0
 63148  1  0  0  0
 63149  1  0  0  0
 63150  1  0  0  0
 64151  1  0  0  0
 65152  1  0  0  0
 68 84  1  0  0  0
 71153  1  0  0  0
 71154  1  0  0  0
 71155  1  0  0  0
 71 85  1  0  0  0
 72 85  1  0  0  0
 72156  1  0  0  0
 72157  1  0  0  0
 72158  1  0  0  0
 73159  1  0  0  0
 73160  1  0  0  0
 73161  1  0  0  0
 73 86  1  0  0  0
 74162  1  0  0  0
 74163  1  0  0  0
 74164  1  0  0  0
 74 87  1  0  0  0
 75165  1  0  0  0
 75166  1  0  0  0
 75167  1  0  0  0
 75 88  1  0  0  0
 76168  1  0  0  0
 76169  1  0  0  0
 76170  1  0  0  0
 76 90  1  0  0  0
 77 90  1  0  0  0
 77171  1  0  0  0
 77172  1  0  0  0
 77173  1  0  0  0
 78174  1  0  0  0
 78175  1  0  0  0
 78176  1  0  0  0
 78 91  1  0  0  0
 79 92  1  0  0  0
 79177  1  0  0  0
 79178  1  0  0  0
 79179  1  0  0  0
 80180  1  0  0  0
 80181  1  0  0  0
 80182  1  0  0  0
 80 93  1  0  0  0
 81 93  1  0  0  0
 81183  1  0  0  0
 81184  1  0  0  0
 81185  1  0  0  0
 82 83  1  0  0  0
 82 91  1  0  0  0
 82186  1  0  0  0
 82187  1  0  0  0
 83 92  1  0  0  0
 83188  1  0  0  0
 83189  1  0  0  0
 84 86  1  0  0  0
 84190  1  0  0  0
 84191  1  0  0  0
 85 87  1  0  0  0
 85192  1  0  0  0
 86193  1  0  0  0
 86 89  1  0  0  0
 87 88  1  0  0  0
 87194  1  0  0  0
 88 89  1  0  0  0
 88195  1  0  0  0
 89 90  1  0  0  0
 89196  1  0  0  0
 90 91  1  0  0  0
 91 93  1  0  0  0
 93197  1  0  0  0
M  CHG  1  93   1
M  ISO  4   1 100  68 101  84 101  92 100
M  END
> <chiral flag>
0

> <version>
0

> <s_m_source_file>
/data/baiqing/PycharmProjects/Reinvent-master-3.2/result/LINK_invent/BTK/process_docking_weight1_custom_sum_contain_oxygen_bond_distance_aromatic_linkinvent_7_9_3/rearranged_h_0066.sdf

> <i_m_source_file_index>
30

> <r_mmod_Potential_Energy-OPLS-2005>
630.950805664062

> <r_mmod_Stretch_Energy-OPLS-2005>
215.035125732422

> <r_mmod_Bend_Energy-OPLS-2005>
333.555786132812

> <r_mmod_Torsional_Energy-OPLS-2005>
438.979522705078

> <r_mmod_Improper_Torsional_Energy-OPLS-2005>
2.99539971351624

> <r_mmod_Van_der_Waal_Energy-OPLS-2005>
181.159698486328

> <r_mmod_Electrostatic_Energy-OPLS-2005>
-208.843536376953

> <r_mmod_Solvation_Energy-OPLS-2005>
-395.395812988281

> <b_mmod_Minimization_Converged-OPLS-2005>
0

> <r_mmod_RMS_Derivative-OPLS-2005>
1.29951226711273

$$$$
31
                    3D
 Structure written by MMmdl.
179187  0  0  1  0            999 V2000
  -30.6613  -14.5589   20.4769 C   0  0  0  0  0  0
  -30.4175  -12.3451   19.4366 C   0  0  0  0  0  0
  -29.4879  -12.4923   18.2145 C   0  0  0  0  0  0
  -28.0082  -12.3509   18.6231 C   0  0  0  0  0  0
  -27.6438  -13.2133   19.8620 C   0  0  2  0  0  0
  -28.6923  -13.0563   20.9840 C   0  0  0  0  0  0
  -25.2480  -13.8185   20.5750 C   0  0  0  0  0  0
  -24.1777  -13.0444   20.9250 C   0  0  0  0  0  0
  -24.6354  -11.6892   20.8808 C   0  0  0  0  0  0
  -23.9055  -10.4294   21.0455 C   0  0  0  0  0  0
  -24.3605   -9.4210   21.9230 C   0  0  0  0  0  0
  -23.6305   -8.2234   22.0752 C   0  0  0  0  0  0
  -22.4287   -8.0287   21.3544 C   0  0  0  0  0  0
  -21.9926   -9.0260   20.4632 C   0  0  0  0  0  0
  -22.7242  -10.2150   20.3082 C   0  0  0  0  0  0
  -21.6844   -6.0751   22.5297 C   0  0  0  0  0  0
  -21.4001   -6.5646   23.8239 C   0  0  0  0  0  0
  -21.3657   -5.6785   24.9189 C   0  0  0  0  0  0
  -21.6029   -4.3056   24.7217 C   0  0  0  0  0  0
  -21.8824   -3.8160   23.4343 C   0  0  0  0  0  0
  -21.9195   -4.6980   22.3404 C   0  0  0  0  0  0
  -22.7793  -13.5236   21.1913 C   0  0  0  0  0  0
  -22.1669   -4.2175   21.0985 F   0  0  0  0  0  0
  -21.5624   -3.4531   25.7726 F   0  0  0  0  0  0
  -30.0040  -13.3690   20.4104 N   0  0  0  0  0  0
  -26.2907  -12.9367   20.3345 N   0  0  0  0  0  0
  -25.9265  -11.6513   20.5788 N   0  0  0  0  0  0
  -22.0431  -12.8228   22.0428 N   0  0  0  0  0  0
  -25.4123  -15.1956   20.4217 N   0  0  0  0  0  0
  -31.8679  -14.6357   20.2515 O   0  0  0  0  0  0
  -21.6622   -6.8900   21.4267 O   0  0  0  0  0  0
  -22.3494  -14.5553   20.6755 O   0  0  0  0  0  0
  -24.6157  -31.8635   23.2079 C   0  0  0  0  0  0
  -25.9071  -32.4783   23.8363 C   0  0  1  0  0  0
  -27.2280  -27.3798   20.0856 C   0  0  0  0  0  0
  -25.5945  -33.8585   24.2308 N   0  0  0  0  0  0
  -23.4044  -30.4938   21.5458 C   0  0  2  0  0  0
  -24.8464  -28.9466   20.1192 C   0  0  0  0  0  0
  -22.7388  -29.4696   22.4924 C   0  0  0  0  0  0
  -18.0287  -28.1381   22.8489 C   0  0  0  0  0  0
  -24.1512  -36.7301   23.2629 C   0  0  0  0  0  0
  -25.9395  -30.8062   21.3756 C   0  0  0  0  0  0
  -26.0117  -29.4385   20.7165 C   0  0  0  0  0  0
  -27.1978  -28.6593   20.7025 C   0  0  0  0  0  0
  -26.0272  -26.9130   19.4956 C   0  0  0  0  0  0
  -24.8490  -27.6803   19.5172 C   0  0  0  0  0  0
  -23.6172  -29.8250   20.1634 C   0  0  0  0  0  0
  -25.4124  -36.3064   24.0328 C   0  0  1  0  0  0
  -20.5890  -28.3704   23.1315 C   0  0  2  0  0  0
  -20.6819  -26.9447   22.5372 C   0  0  0  0  0  0
  -19.5850  -26.6543   21.5093 C   0  0  0  0  0  0
  -18.2012  -26.7967   22.1518 C   0  0  0  0  0  0
  -19.1539  -28.8843   23.2929 C   0  0  0  0  0  0
  -18.9489  -30.1437   23.8989 C   0  0  0  0  0  0
  -17.6515  -30.6588   24.0586 C   0  0  0  0  0  0
  -25.9046  -34.9437   23.5096 C   0  0  0  0  0  0
  -16.5391  -29.9097   23.6342 C   0  0  0  0  0  0
  -16.7277  -28.6494   23.0341 C   0  0  0  0  0  0
  -26.4494  -31.6594   25.0715 C   0  0  0  0  0  0
  -25.3740  -31.3790   26.1462 C   0  0  0  0  0  0
  -27.0366  -30.3018   24.6186 C   0  0  0  0  0  0
  -27.6010  -32.4344   25.7522 C   0  0  0  0  0  0
  -27.5590  -37.1797   24.8453 C   0  0  0  0  0  0
  -21.4087  -29.3122   22.3734 N   0  0  0  0  0  0
  -26.4300  -37.3762   23.9399 N   0  0  0  0  0  0
  -24.6713  -31.0718   22.0985 N   0  0  0  0  0  0
  -23.4171  -28.8169   23.2907 O   0  0  0  0  0  0
  -28.4175  -26.6558   20.0706 O   0  0  0  0  0  0
  -26.5577  -34.8869   22.4646 O   0  0  0  0  0  0
  -23.5350  -32.1430   23.7447 O   0  0  0  0  0  0
  -28.5666  -20.1297   20.7481 C   0  0  0  0  0  0
  -29.3671  -18.2038   20.2938 C   0  0  0  0  0  0
  -26.4687  -18.1282   17.8004 C   0  0  0  0  0  0
  -31.0698  -17.1220   18.7663 C   0  0  0  0  0  0
  -29.2927  -21.5952   22.5996 C   0  0  0  0  0  0
  -25.6247  -21.9810   21.3161 C   0  0  0  0  0  0
  -26.2538  -19.8404   22.3458 C   0  0  0  0  0  0
  -26.6016  -21.8923   23.6091 C   0  0  0  0  0  0
  -27.8663  -24.7821   22.1483 C   0  0  0  0  0  0
  -28.3538  -22.7072   20.4977 C   0  0  0  0  0  0
  -27.8879  -17.7329   18.2533 C   0  0  0  0  0  0
  -28.4661  -25.2345   19.7280 C   0  0  0  0  0  0
  -30.3862  -17.0539   20.1540 C   0  0  2  0  0  0
  -28.1998  -21.4518   21.4994 C   0  0  2  0  0  0
  -26.7292  -21.3095   22.1750 C   0  0  0  0  0  0
  -28.6302  -24.2268   20.9283 C   0  0  1  0  0  0
  -29.4844  -19.1927   21.1905 N   0  0  0  0  0  0
  -27.9131  -19.7419   19.6546 N   0  0  0  0  0  0
  -28.3834  -18.4815   19.4091 N   0  0  0  0  0  0
  -29.8956  -15.6831   20.5026 N   0  0  0  0  0  0
  -29.9216  -24.2842   21.2664 F   0  0  0  0  0  0
  -31.4575  -12.4656   19.1246 H   0  0  0  0  0  0
  -30.3448  -11.3475   19.8714 H   0  0  0  0  0  0
  -29.7367  -11.7442   17.4628 H   0  0  0  0  0  0
  -29.6478  -13.4633   17.7472 H   0  0  0  0  0  0
  -27.8362  -11.2967   18.8442 H   0  0  0  0  0  0
  -27.3560  -12.5998   17.7825 H   0  0  0  0  0  0
  -27.6637  -14.2493   19.5232 H   0  0  0  0  0  0
  -28.6840  -12.0345   21.3703 H   0  0  0  0  0  0
  -28.4649  -13.7060   21.8293 H   0  0  0  0  0  0
  -25.2759   -9.5671   22.4794 H   0  0  0  0  0  0
  -24.0029   -7.4599   22.7422 H   0  0  0  0  0  0
  -21.0871   -8.8763   19.8905 H   0  0  0  0  0  0
  -22.3735  -10.9678   19.6172 H   0  0  0  0  0  0
  -21.1974   -7.6151   23.9754 H   0  0  0  0  0  0
  -21.1485   -6.0509   25.9099 H   0  0  0  0  0  0
  -22.0605   -2.7625   23.2831 H   0  0  0  0  0  0
  -22.4043  -11.9924   22.4886 H   0  0  0  0  0  0
  -21.1018  -13.1205   22.2510 H   0  0  0  0  0  0
  -24.6351  -15.8353   20.5553 H   0  0  0  0  0  0
  -26.2489  -15.6614   20.1027 H   0  0  0  0  0  0
  -26.7094  -32.5447   23.1059 H   0  0  0  0  0  0
  -25.0134  -33.9774   25.0472 H   0  0  0  0  0  0
  -22.6965  -31.3137   21.4037 H   0  0  0  0  0  0
  -23.3741  -35.9680   23.3292 H   0  0  0  0  0  0
  -24.3586  -36.8905   22.2035 H   0  0  0  0  0  0
  -23.7287  -37.6503   23.6663 H   0  0  0  0  0  0
  -26.0728  -31.5765   20.6172 H   0  0  0  0  0  0
  -26.8153  -30.8524   22.0085 H   0  0  0  0  0  0
  -28.0946  -29.0399   21.1718 H   0  0  0  0  0  0
  -25.9503  -25.9635   18.9923 H   0  0  0  0  0  0
  -23.9483  -27.2933   19.0611 H   0  0  0  0  0  0
  -23.7260  -30.5972   19.4007 H   0  0  0  0  0  0
  -22.7377  -29.2520   19.8654 H   0  0  0  0  0  0
  -25.1310  -36.1898   25.0826 H   0  0  0  0  0  0
  -21.0036  -28.3260   24.1420 H   0  0  0  0  0  0
  -20.5643  -26.2265   23.3521 H   0  0  0  0  0  0
  -21.6716  -26.7499   22.1261 H   0  0  0  0  0  0
  -19.7076  -25.6519   21.1010 H   0  0  0  0  0  0
  -19.6852  -27.3443   20.6701 H   0  0  0  0  0  0
  -17.4317  -26.6726   21.3879 H   0  0  0  0  0  0
  -18.0406  -26.0043   22.8845 H   0  0  0  0  0  0
  -19.7977  -30.7177   24.2479 H   0  0  0  0  0  0
  -17.5087  -31.6264   24.5218 H   0  0  0  0  0  0
  -15.5414  -30.3057   23.7685 H   0  0  0  0  0  0
  -15.8637  -28.0864   22.7010 H   0  0  0  0  0  0
  -24.5855  -30.7200   25.7838 H   0  0  0  0  0  0
  -24.9037  -32.3002   26.4912 H   0  0  0  0  0  0
  -25.8061  -30.8944   27.0218 H   0  0  0  0  0  0
  -26.2979  -29.6743   24.1196 H   0  0  0  0  0  0
  -27.4031  -29.7307   25.4724 H   0  0  0  0  0  0
  -27.8862  -30.4303   23.9473 H   0  0  0  0  0  0
  -27.2557  -33.3583   26.2177 H   0  0  0  0  0  0
  -28.3822  -32.6995   25.0392 H   0  0  0  0  0  0
  -28.0703  -31.8429   26.5387 H   0  0  0  0  0  0
  -28.2580  -38.0114   24.7489 H   0  0  0  0  0  0
  -28.1093  -36.2617   24.6303 H   0  0  0  0  0  0
  -27.2289  -37.1485   25.8848 H   0  0  0  0  0  0
  -20.9184  -29.8921   21.7067 H   0  0  0  0  0  0
  -26.0159  -38.2842   24.1363 H   0  0  0  0  0  0
  -26.1315  -17.4987   16.9772 H   0  0  0  0  0  0
  -26.4335  -19.1554   17.4372 H   0  0  0  0  0  0
  -25.7466  -18.0299   18.6107 H   0  0  0  0  0  0
  -31.9793  -16.5305   18.7037 H   0  0  0  0  0  0
  -30.4193  -16.7606   17.9714 H   0  0  0  0  0  0
  -31.3598  -18.1445   18.5252 H   0  0  0  0  0  0
  -30.2956  -21.6185   22.1707 H   0  0  0  0  0  0
  -29.2567  -20.7559   23.2970 H   0  0  0  0  0  0
  -29.1938  -22.4907   23.2010 H   0  0  0  0  0  0
  -24.6407  -21.8848   21.7779 H   0  0  0  0  0  0
  -25.5612  -21.5177   20.3288 H   0  0  0  0  0  0
  -25.7786  -23.0467   21.1635 H   0  0  0  0  0  0
  -25.3023  -19.7837   22.8771 H   0  0  0  0  0  0
  -26.9755  -19.2411   22.8999 H   0  0  0  0  0  0
  -26.0647  -19.3405   21.3978 H   0  0  0  0  0  0
  -25.5813  -21.7847   23.9819 H   0  0  0  0  0  0
  -26.8144  -22.9478   23.6700 H   0  0  0  0  0  0
  -27.2429  -21.3853   24.3315 H   0  0  0  0  0  0
  -28.0507  -25.8451   22.2962 H   0  0  0  0  0  0
  -28.2116  -24.3452   23.0773 H   0  0  0  0  0  0
  -26.7901  -24.6715   22.0712 H   0  0  0  0  0  0
  -27.5263  -22.6918   19.7902 H   0  0  0  0  0  0
  -29.1965  -22.4712   19.8444 H   0  0  0  0  0  0
  -28.5739  -17.8833   17.4204 H   0  0  0  0  0  0
  -27.9051  -16.6716   18.4980 H   0  0  0  0  0  0
  -27.6471  -24.9150   19.0933 H   0  0  0  0  0  0
  -29.3389  -25.1174   19.0828 H   0  0  0  0  0  0
  -31.1700  -17.2648   20.8815 H   0  0  0  0  0  0
  -28.9157  -15.5794   20.7083 H   0  0  0  0  0  0
  1 25  1  0  0  0
  1 30  2  0  0  0
  1 90  1  0  0  0
  2  3  1  0  0  0
  2 25  1  0  0  0
  2 92  1  0  0  0
  2 93  1  0  0  0
  3  4  1  0  0  0
  3 94  1  0  0  0
  3 95  1  0  0  0
  4  5  1  0  0  0
  4 96  1  0  0  0
  4 97  1  0  0  0
  5  6  1  0  0  0
  5 26  1  0  0  0
  5 98  1  0  0  0
  6 25  1  0  0  0
  6 99  1  0  0  0
  6100  1  0  0  0
  7  8  2  0  0  0
  7 26  1  0  0  0
  7 29  1  0  0  0
  8  9  1  0  0  0
  8 22  1  0  0  0
  9 10  1  0  0  0
  9 27  2  0  0  0
 10 11  2  0  0  0
 10 15  1  0  0  0
 11 12  1  0  0  0
 11101  1  0  0  0
 12 13  2  0  0  0
 12102  1  0  0  0
 13 14  1  0  0  0
 13 31  1  0  0  0
 14 15  2  0  0  0
 14103  1  0  0  0
 15104  1  0  0  0
 16 17  2  0  0  0
 16 21  1  0  0  0
 16 31  1  0  0  0
 17 18  1  0  0  0
 17105  1  0  0  0
 18 19  2  0  0  0
 18106  1  0  0  0
 19 20  1  0  0  0
 19 24  1  0  0  0
 20 21  2  0  0  0
 20107  1  0  0  0
 21 23  1  0  0  0
 22 28  1  0  0  0
 22 32  2  0  0  0
 26 27  1  0  0  0
 28108  1  0  0  0
 28109  1  0  0  0
 29110  1  0  0  0
 29111  1  0  0  0
 33 34  1  0  0  0
 33 66  1  0  0  0
 33 70  2  0  0  0
 34 36  1  0  0  0
 34 59  1  0  0  0
 34112  1  0  0  0
 35 44  2  0  0  0
 35 45  1  0  0  0
 35 68  1  0  0  0
 36 56  1  0  0  0
 36113  1  0  0  0
 37 39  1  0  0  0
 37 47  1  0  0  0
 37 66  1  0  0  0
 37114  1  0  0  0
 38 43  2  0  0  0
 38 46  1  0  0  0
 38 47  1  0  0  0
 39 64  1  0  0  0
 39 67  2  0  0  0
 40 52  1  0  0  0
 40 53  2  0  0  0
 40 58  1  0  0  0
 41115  1  0  0  0
 41116  1  0  0  0
 41117  1  0  0  0
 41 48  1  0  0  0
 42 43  1  0  0  0
 42 66  1  0  0  0
 42118  1  0  0  0
 42119  1  0  0  0
 43 44  1  0  0  0
 44120  1  0  0  0
 45 46  2  0  0  0
 45121  1  0  0  0
 46122  1  0  0  0
 47123  1  0  0  0
 47124  1  0  0  0
 48 56  1  0  0  0
 48 65  1  0  0  0
 48125  1  0  0  0
 49 50  1  0  0  0
 49 53  1  0  0  0
 49 64  1  0  0  0
 49126  1  0  0  0
 50 51  1  0  0  0
 50127  1  0  0  0
 50128  1  0  0  0
 51 52  1  0  0  0
 51129  1  0  0  0
 51130  1  0  0  0
 52131  1  0  0  0
 52132  1  0  0  0
 53 54  1  0  0  0
 54 55  2  0  0  0
 54133  1  0  0  0
 55 57  1  0  0  0
 55134  1  0  0  0
 56 69  2  0  0  0
 57 58  2  0  0  0
 57135  1  0  0  0
 58136  1  0  0  0
 59 60  1  0  0  0
 59 61  1  0  0  0
 59 62  1  0  0  0
 60137  1  0  0  0
 60138  1  0  0  0
 60139  1  0  0  0
 61140  1  0  0  0
 61141  1  0  0  0
 61142  1  0  0  0
 62143  1  0  0  0
 62144  1  0  0  0
 62145  1  0  0  0
 63 65  1  0  0  0
 63146  1  0  0  0
 63147  1  0  0  0
 63148  1  0  0  0
 64149  1  0  0  0
 65150  1  0  0  0
 68 82  1  0  0  0
 71 84  1  0  0  0
 71 87  1  0  0  0
 71 88  2  0  0  0
 72 83  1  0  0  0
 72 87  2  0  0  0
 72 89  1  0  0  0
 73 81  1  0  0  0
 73151  1  0  0  0
 73152  1  0  0  0
 73153  1  0  0  0
 74154  1  0  0  0
 74155  1  0  0  0
 74156  1  0  0  0
 74 83  1  0  0  0
 75157  1  0  0  0
 75158  1  0  0  0
 75159  1  0  0  0
 75 84  1  0  0  0
 76160  1  0  0  0
 76161  1  0  0  0
 76162  1  0  0  0
 76 85  1  0  0  0
 77 85  1  0  0  0
 77163  1  0  0  0
 77164  1  0  0  0
 77165  1  0  0  0
 78 85  1  0  0  0
 78166  1  0  0  0
 78167  1  0  0  0
 78168  1  0  0  0
 79169  1  0  0  0
 79170  1  0  0  0
 79171  1  0  0  0
 79 86  1  0  0  0
 80 84  1  0  0  0
 80 86  1  0  0  0
 80172  1  0  0  0
 80173  1  0  0  0
 81 89  1  0  0  0
 81174  1  0  0  0
 81175  1  0  0  0
 82 86  1  0  0  0
 82176  1  0  0  0
 82177  1  0  0  0
 83 90  1  0  0  0
 83178  1  0  0  0
 84 85  1  0  0  0
 86 91  1  0  0  0
 88 89  1  0  0  0
 90179  1  0  0  0
M  ISO  4   1 100  68 101  82 101  90 100
M  END
> <chiral flag>
0

> <version>
0

> <s_m_source_file>
/data/baiqing/PycharmProjects/Reinvent-master-3.2/result/LINK_invent/BTK/process_docking_weight1_custom_sum_contain_oxygen_bond_distance_aromatic_linkinvent_7_9_3/rearranged_h_0066.sdf

> <i_m_source_file_index>
31

> <r_mmod_Potential_Energy-OPLS-2005>
67.3599395751953

> <r_mmod_Stretch_Energy-OPLS-2005>
84.9484024047852

> <r_mmod_Bend_Energy-OPLS-2005>
180.690017700195

> <r_mmod_Torsional_Energy-OPLS-2005>
241.558258056641

> <r_mmod_Improper_Torsional_Energy-OPLS-2005>
8.86059284210205

> <r_mmod_Van_der_Waal_Energy-OPLS-2005>
155.284042358398

> <r_mmod_Electrostatic_Energy-OPLS-2005>
-434.899322509766

> <r_mmod_Solvation_Energy-OPLS-2005>
-200.173004150391

> <b_mmod_Minimization_Converged-OPLS-2005>
0

> <r_mmod_RMS_Derivative-OPLS-2005>
6.18309593200684

$$$$
32
                    3D
 Structure written by MMmdl.
173181  0  0  1  0            999 V2000
  -30.7185  -14.6194   20.6600 C   0  0  0  0  0  0
  -30.4350  -12.4364   19.4458 C   0  0  0  0  0  0
  -29.5009  -12.5947   18.2241 C   0  0  0  0  0  0
  -28.0203  -12.4314   18.6187 C   0  0  0  0  0  0
  -27.6670  -13.2263   19.8992 C   0  0  2  0  0  0
  -28.7162  -12.9681   20.9993 C   0  0  0  0  0  0
  -25.2605  -13.8192   20.5744 C   0  0  0  0  0  0
  -24.1855  -13.0418   20.9191 C   0  0  0  0  0  0
  -24.6461  -11.6910   20.8745 C   0  0  0  0  0  0
  -23.9134  -10.4291   21.0415 C   0  0  0  0  0  0
  -24.3685   -9.4207   21.9189 C   0  0  0  0  0  0
  -23.6337   -8.2253   22.0763 C   0  0  0  0  0  0
  -22.4315   -8.0302   21.3546 C   0  0  0  0  0  0
  -21.9969   -9.0268   20.4624 C   0  0  0  0  0  0
  -22.7312  -10.2140   20.3052 C   0  0  0  0  0  0
  -21.6855   -6.0764   22.5286 C   0  0  0  0  0  0
  -21.4023   -6.5662   23.8228 C   0  0  0  0  0  0
  -21.3652   -5.6807   24.9190 C   0  0  0  0  0  0
  -21.6037   -4.3068   24.7232 C   0  0  0  0  0  0
  -21.8827   -3.8170   23.4348 C   0  0  0  0  0  0
  -21.9203   -4.6989   22.3407 C   0  0  0  0  0  0
  -22.7862  -13.5176   21.1837 C   0  0  0  0  0  0
  -22.1665   -4.2167   21.0979 F   0  0  0  0  0  0
  -21.5626   -3.4550   25.7751 F   0  0  0  0  0  0
  -30.0288  -13.4209   20.4892 N   0  0  0  0  0  0
  -26.3078  -12.9396   20.3506 N   0  0  0  0  0  0
  -25.9404  -11.6529   20.5793 N   0  0  0  0  0  0
  -22.0510  -12.8122   22.0378 N   0  0  0  0  0  0
  -25.4285  -15.1904   20.4180 N   0  0  0  0  0  0
  -31.7434  -14.7609   19.9824 O   0  0  0  0  0  0
  -21.6642   -6.8912   21.4255 O   0  0  0  0  0  0
  -22.3546  -14.5479   20.6700 O   0  0  0  0  0  0
  -24.6249  -31.8573   23.2042 C   0  0  0  0  0  0
  -25.9115  -32.4752   23.8341 C   0  0  1  0  0  0
  -27.2188  -27.3211   20.1057 C   0  0  0  0  0  0
  -25.5940  -33.8560   24.2265 N   0  0  0  0  0  0
  -23.4188  -30.4817   21.5450 C   0  0  2  0  0  0
  -24.8632  -28.9365   20.1100 C   0  0  0  0  0  0
  -22.7457  -29.4604   22.4919 C   0  0  0  0  0  0
  -18.0280  -28.1357   22.8498 C   0  0  0  0  0  0
  -24.1491  -36.7280   23.2642 C   0  0  0  0  0  0
  -25.9608  -30.7819   21.3834 C   0  0  0  0  0  0
  -26.0296  -29.4125   20.7213 C   0  0  0  0  0  0
  -27.2097  -28.6123   20.7160 C   0  0  0  0  0  0
  -26.0347  -26.9031   19.4577 C   0  0  0  0  0  0
  -24.8664  -27.6869   19.4711 C   0  0  0  0  0  0
  -23.6349  -29.8184   20.1598 C   0  0  0  0  0  0
  -25.4116  -36.3059   24.0322 C   0  0  1  0  0  0
  -20.5879  -28.3660   23.1269 C   0  0  2  0  0  0
  -20.6758  -26.9376   22.5406 C   0  0  0  0  0  0
  -19.5747  -26.6367   21.5192 C   0  0  0  0  0  0
  -18.1924  -26.7914   22.1589 C   0  0  0  0  0  0
  -19.1535  -28.8824   23.2882 C   0  0  0  0  0  0
  -18.9473  -30.1429   23.8900 C   0  0  0  0  0  0
  -17.6482  -30.6573   24.0565 C   0  0  0  0  0  0
  -25.9058  -34.9430   23.5088 C   0  0  0  0  0  0
  -16.5369  -29.9078   23.6322 C   0  0  0  0  0  0
  -16.7274  -28.6481   23.0371 C   0  0  0  0  0  0
  -26.4504  -31.6563   25.0716 C   0  0  0  0  0  0
  -25.3756  -31.3697   26.1456 C   0  0  0  0  0  0
  -27.0353  -30.2979   24.6192 C   0  0  0  0  0  0
  -27.6067  -32.4316   25.7469 C   0  0  0  0  0  0
  -27.5600  -37.1778   24.8447 C   0  0  0  0  0  0
  -21.4166  -29.3008   22.3648 N   0  0  0  0  0  0
  -26.4281  -37.3772   23.9420 N   0  0  0  0  0  0
  -24.6859  -31.0583   22.1001 N   0  0  0  0  0  0
  -23.4177  -28.8136   23.3006 O   0  0  0  0  0  0
  -28.3445  -26.4899   20.1537 O   0  0  0  0  0  0
  -26.5627  -34.8906   22.4661 O   0  0  0  0  0  0
  -23.5415  -32.1369   23.7377 O   0  0  0  0  0  0
  -30.0414  -19.5895   21.5794 C   0  0  0  0  0  0
  -29.4688  -18.8014   19.4530 C   0  0  0  0  0  0
  -29.6302  -19.9470   20.2821 C   0  0  0  0  0  0
  -30.1620  -17.2889   21.0972 C   0  0  0  0  0  0
  -27.6695  -22.0399   21.5438 C   0  0  0  0  0  0
  -30.8198  -21.8220   19.1636 C   0  0  0  0  0  0
  -28.4059  -21.5418   18.6744 C   0  0  0  0  0  0
  -29.2264  -15.5357   22.6383 C   0  0  0  0  0  0
  -30.6106  -24.5922   20.6702 C   0  0  0  0  0  0
  -28.8040  -24.6475   22.3468 C   0  0  0  0  0  0
  -28.2081  -25.0210   19.9782 C   0  0  0  0  0  0
  -29.0256  -22.5067   20.9548 C   0  0  1  0  0  0
  -29.4623  -21.4582   19.7983 C   0  0  0  0  0  0
  -30.4131  -15.8253   21.7000 C   0  0  1  0  0  0
  -29.1488  -24.1449   20.9159 C   0  0  0  0  0  0
  -31.6966  -15.8844   22.6194 C   0  0  0  0  0  0
  -30.2668  -18.3114   21.9597 N   0  0  0  0  0  0
  -29.7073  -17.5129   19.8529 N   0  0  0  0  0  0
  -31.5107  -16.6003   23.7352 F   0  0  0  0  0  0
  -32.0565  -14.6648   23.0388 F   0  0  0  0  0  0
  -32.7541  -16.4044   21.9861 F   0  0  0  0  0  0
  -31.4699  -12.5524   19.1267 H   0  0  0  0  0  0
  -30.3848  -11.4185   19.8344 H   0  0  0  0  0  0
  -29.7640  -11.8851   17.4396 H   0  0  0  0  0  0
  -29.6436  -13.5879   17.7948 H   0  0  0  0  0  0
  -27.8246  -11.3684   18.7659 H   0  0  0  0  0  0
  -27.3728  -12.7534   17.8022 H   0  0  0  0  0  0
  -27.7136  -14.2848   19.6459 H   0  0  0  0  0  0
  -28.7564  -11.8964   21.2036 H   0  0  0  0  0  0
  -28.3940  -13.3541   21.9520 H   0  0  0  0  0  0
  -25.2845   -9.5663   22.4755 H   0  0  0  0  0  0
  -24.0031   -7.4653   22.7495 H   0  0  0  0  0  0
  -21.0914   -8.8824   19.8901 H   0  0  0  0  0  0
  -22.3817  -10.9708   19.6168 H   0  0  0  0  0  0
  -21.2015   -7.6172   23.9735 H   0  0  0  0  0  0
  -21.1451   -6.0536   25.9090 H   0  0  0  0  0  0
  -22.0608   -2.7627   23.2851 H   0  0  0  0  0  0
  -22.4150  -11.9794   22.4751 H   0  0  0  0  0  0
  -21.1085  -13.1083   22.2508 H   0  0  0  0  0  0
  -24.6627  -15.8428   20.5426 H   0  0  0  0  0  0
  -26.2767  -15.6340   20.0926 H   0  0  0  0  0  0
  -26.7174  -32.5445   23.1074 H   0  0  0  0  0  0
  -25.0067  -33.9666   25.0403 H   0  0  0  0  0  0
  -22.7131  -31.3027   21.4015 H   0  0  0  0  0  0
  -23.3767  -35.9601   23.3225 H   0  0  0  0  0  0
  -24.3597  -36.9006   22.2083 H   0  0  0  0  0  0
  -23.7221  -37.6437   23.6731 H   0  0  0  0  0  0
  -26.1065  -31.5452   20.6177 H   0  0  0  0  0  0
  -26.8374  -30.8209   22.0183 H   0  0  0  0  0  0
  -28.1025  -28.9650   21.2128 H   0  0  0  0  0  0
  -25.9901  -25.9628   18.9281 H   0  0  0  0  0  0
  -23.9741  -27.3175   18.9829 H   0  0  0  0  0  0
  -23.7672  -30.5957   19.4070 H   0  0  0  0  0  0
  -22.7551  -29.2518   19.8494 H   0  0  0  0  0  0
  -25.1295  -36.1891   25.0813 H   0  0  0  0  0  0
  -20.9982  -28.3254   24.1386 H   0  0  0  0  0  0
  -20.5615  -26.2266   23.3604 H   0  0  0  0  0  0
  -21.6631  -26.7372   22.1245 H   0  0  0  0  0  0
  -19.6888  -25.6282   21.1219 H   0  0  0  0  0  0
  -19.6693  -27.3163   20.6726 H   0  0  0  0  0  0
  -17.4198  -26.6691   21.3984 H   0  0  0  0  0  0
  -18.0292  -26.0033   22.8944 H   0  0  0  0  0  0
  -19.7959  -30.7219   24.2275 H   0  0  0  0  0  0
  -17.5052  -31.6250   24.5158 H   0  0  0  0  0  0
  -15.5368  -30.3005   23.7621 H   0  0  0  0  0  0
  -15.8667  -28.0795   22.7112 H   0  0  0  0  0  0
  -24.5993  -30.6949   25.7824 H   0  0  0  0  0  0
  -24.8863  -32.2848   26.4798 H   0  0  0  0  0  0
  -25.8135  -30.8988   27.0263 H   0  0  0  0  0  0
  -26.2900  -29.6706   24.1290 H   0  0  0  0  0  0
  -27.4093  -29.7279   25.4696 H   0  0  0  0  0  0
  -27.8759  -30.4222   23.9370 H   0  0  0  0  0  0
  -27.2690  -33.3688   26.1895 H   0  0  0  0  0  0
  -28.3937  -32.6755   25.0327 H   0  0  0  0  0  0
  -28.0628  -31.8527   26.5496 H   0  0  0  0  0  0
  -28.2548  -38.0148   24.7603 H   0  0  0  0  0  0
  -28.1174  -36.2681   24.6140 H   0  0  0  0  0  0
  -27.2329  -37.1287   25.8850 H   0  0  0  0  0  0
  -20.9321  -29.8759   21.6902 H   0  0  0  0  0  0
  -26.0148  -38.2823   24.1519 H   0  0  0  0  0  0
  -30.2220  -20.3260   22.3447 H   0  0  0  0  0  0
  -29.1574  -18.9016   18.4244 H   0  0  0  0  0  0
  -27.6025  -20.9549   21.6214 H   0  0  0  0  0  0
  -26.8358  -22.3611   20.9211 H   0  0  0  0  0  0
  -27.5016  -22.4027   22.5553 H   0  0  0  0  0  0
  -31.1538  -21.0406   18.4800 H   0  0  0  0  0  0
  -31.6047  -21.9495   19.9094 H   0  0  0  0  0  0
  -30.7683  -22.7266   18.5591 H   0  0  0  0  0  0
  -28.7351  -21.0496   17.7582 H   0  0  0  0  0  0
  -28.1989  -22.5784   18.4086 H   0  0  0  0  0  0
  -27.4579  -21.0934   18.9748 H   0  0  0  0  0  0
  -29.0898  -16.3389   23.3599 H   0  0  0  0  0  0
  -29.4106  -14.6409   23.2337 H   0  0  0  0  0  0
  -28.2875  -15.4709   22.0933 H   0  0  0  0  0  0
  -30.7568  -25.6357   20.9547 H   0  0  0  0  0  0
  -30.8932  -24.5411   19.6224 H   0  0  0  0  0  0
  -31.3253  -24.0043   21.2475 H   0  0  0  0  0  0
  -29.0830  -25.6905   22.4979 H   0  0  0  0  0  0
  -29.3062  -24.0767   23.1280 H   0  0  0  0  0  0
  -27.7314  -24.6064   22.5469 H   0  0  0  0  0  0
  -27.1869  -24.6962   20.1780 H   0  0  0  0  0  0
  -28.3975  -24.7892   18.9295 H   0  0  0  0  0  0
  -29.7480  -22.2935   21.7404 H   0  0  0  0  0  0
  1 25  1  0  0  0
  1 30  2  0  0  0
  1 84  1  0  0  0
  2  3  1  0  0  0
  2 25  1  0  0  0
  2 92  1  0  0  0
  2 93  1  0  0  0
  3  4  1  0  0  0
  3 94  1  0  0  0
  3 95  1  0  0  0
  4  5  1  0  0  0
  4 96  1  0  0  0
  4 97  1  0  0  0
  5  6  1  0  0  0
  5 26  1  0  0  0
  5 98  1  0  0  0
  6 25  1  0  0  0
  6 99  1  0  0  0
  6100  1  0  0  0
  7  8  2  0  0  0
  7 26  1  0  0  0
  7 29  1  0  0  0
  8  9  1  0  0  0
  8 22  1  0  0  0
  9 10  1  0  0  0
  9 27  2  0  0  0
 10 11  2  0  0  0
 10 15  1  0  0  0
 11 12  1  0  0  0
 11101  1  0  0  0
 12 13  2  0  0  0
 12102  1  0  0  0
 13 14  1  0  0  0
 13 31  1  0  0  0
 14 15  2  0  0  0
 14103  1  0  0  0
 15104  1  0  0  0
 16 17  2  0  0  0
 16 21  1  0  0  0
 16 31  1  0  0  0
 17 18  1  0  0  0
 17105  1  0  0  0
 18 19  2  0  0  0
 18106  1  0  0  0
 19 20  1  0  0  0
 19 24  1  0  0  0
 20 21  2  0  0  0
 20107  1  0  0  0
 21 23  1  0  0  0
 22 28  1  0  0  0
 22 32  2  0  0  0
 26 27  1  0  0  0
 28108  1  0  0  0
 28109  1  0  0  0
 29110  1  0  0  0
 29111  1  0  0  0
 33 34  1  0  0  0
 33 66  1  0  0  0
 33 70  2  0  0  0
 34 36  1  0  0  0
 34 59  1  0  0  0
 34112  1  0  0  0
 35 44  2  0  0  0
 35 45  1  0  0  0
 35 68  1  0  0  0
 36 56  1  0  0  0
 36113  1  0  0  0
 37 39  1  0  0  0
 37 47  1  0  0  0
 37 66  1  0  0  0
 37114  1  0  0  0
 38 43  2  0  0  0
 38 46  1  0  0  0
 38 47  1  0  0  0
 39 64  1  0  0  0
 39 67  2  0  0  0
 40 52  1  0  0  0
 40 53  2  0  0  0
 40 58  1  0  0  0
 41115  1  0  0  0
 41116  1  0  0  0
 41117  1  0  0  0
 41 48  1  0  0  0
 42 43  1  0  0  0
 42 66  1  0  0  0
 42118  1  0  0  0
 42119  1  0  0  0
 43 44  1  0  0  0
 44120  1  0  0  0
 45 46  2  0  0  0
 45121  1  0  0  0
 46122  1  0  0  0
 47123  1  0  0  0
 47124  1  0  0  0
 48 56  1  0  0  0
 48 65  1  0  0  0
 48125  1  0  0  0
 49 50  1  0  0  0
 49 53  1  0  0  0
 49 64  1  0  0  0
 49126  1  0  0  0
 50 51  1  0  0  0
 50127  1  0  0  0
 50128  1  0  0  0
 51 52  1  0  0  0
 51129  1  0  0  0
 51130  1  0  0  0
 52131  1  0  0  0
 52132  1  0  0  0
 53 54  1  0  0  0
 54 55  2  0  0  0
 54133  1  0  0  0
 55 57  1  0  0  0
 55134  1  0  0  0
 56 69  2  0  0  0
 57 58  2  0  0  0
 57135  1  0  0  0
 58136  1  0  0  0
 59 60  1  0  0  0
 59 61  1  0  0  0
 59 62  1  0  0  0
 60137  1  0  0  0
 60138  1  0  0  0
 60139  1  0  0  0
 61140  1  0  0  0
 61141  1  0  0  0
 61142  1  0  0  0
 62143  1  0  0  0
 62144  1  0  0  0
 62145  1  0  0  0
 63 65  1  0  0  0
 63146  1  0  0  0
 63147  1  0  0  0
 63148  1  0  0  0
 64149  1  0  0  0
 65150  1  0  0  0
 68 81  1  0  0  0
 71 73  2  0  0  0
 71 87  1  0  0  0
 71151  1  0  0  0
 72 73  1  0  0  0
 72 88  2  0  0  0
 72152  1  0  0  0
 73 83  1  0  0  0
 74 84  1  0  0  0
 74 87  2  0  0  0
 74 88  1  0  0  0
 75153  1  0  0  0
 75154  1  0  0  0
 75155  1  0  0  0
 75 82  1  0  0  0
 76156  1  0  0  0
 76157  1  0  0  0
 76158  1  0  0  0
 76 83  1  0  0  0
 77 83  1  0  0  0
 77159  1  0  0  0
 77160  1  0  0  0
 77161  1  0  0  0
 78162  1  0  0  0
 78163  1  0  0  0
 78164  1  0  0  0
 78 84  1  0  0  0
 79165  1  0  0  0
 79166  1  0  0  0
 79167  1  0  0  0
 79 85  1  0  0  0
 80 85  1  0  0  0
 80168  1  0  0  0
 80169  1  0  0  0
 80170  1  0  0  0
 81 85  1  0  0  0
 81171  1  0  0  0
 81172  1  0  0  0
 82 83  1  0  0  0
 82 85  1  0  0  0
 82173  1  0  0  0
 84 86  1  0  0  0
 86 89  1  0  0  0
 86 90  1  0  0  0
 86 91  1  0  0  0
M  ISO  4   1 100  68 101  81 101  84 100
M  END
> <chiral flag>
0

> <version>
0

> <s_m_source_file>
/data/baiqing/PycharmProjects/Reinvent-master-3.2/result/LINK_invent/BTK/process_docking_weight1_custom_sum_contain_oxygen_bond_distance_aromatic_linkinvent_7_9_3/rearranged_h_0066.sdf

> <i_m_source_file_index>
32

> <r_mmod_Potential_Energy-OPLS-2005>
105.196495056152

> <r_mmod_Stretch_Energy-OPLS-2005>
123.642845153809

> <r_mmod_Bend_Energy-OPLS-2005>
234.50617980957

> <r_mmod_Torsional_Energy-OPLS-2005>
193.402694702148

> <r_mmod_Improper_Torsional_Energy-OPLS-2005>
3.01416635513306

> <r_mmod_Van_der_Waal_Energy-OPLS-2005>
189.703338623047

> <r_mmod_Electrostatic_Energy-OPLS-2005>
-504.284118652344

> <r_mmod_Solvation_Energy-OPLS-2005>
-176.917694091797

> <b_mmod_Minimization_Converged-OPLS-2005>
0

> <r_mmod_RMS_Derivative-OPLS-2005>
4.40770959854126

$$$$
33
                    3D
 Structure written by MMmdl.
193201  0  0  1  0            999 V2000
  -30.5181  -14.7779   20.4239 C   0  0  0  0  0  0
  -30.4442  -12.4630   19.4653 C   0  0  0  0  0  0
  -29.5167  -12.4995   18.2326 C   0  0  0  0  0  0
  -28.0410  -12.3070   18.6495 C   0  0  0  0  0  0
  -27.6372  -13.2068   19.8452 C   0  0  2  0  0  0
  -28.6873  -13.1553   20.9789 C   0  0  0  0  0  0
  -25.2550  -13.8065   20.5676 C   0  0  0  0  0  0
  -24.1820  -13.0441   20.9195 C   0  0  0  0  0  0
  -24.6363  -11.6857   20.8754 C   0  0  0  0  0  0
  -23.9031  -10.4269   21.0402 C   0  0  0  0  0  0
  -24.3609   -9.4215   21.9218 C   0  0  0  0  0  0
  -23.6311   -8.2232   22.0824 C   0  0  0  0  0  0
  -22.4257   -8.0291   21.3604 C   0  0  0  0  0  0
  -21.9871   -9.0244   20.4682 C   0  0  0  0  0  0
  -22.7185  -10.2132   20.3073 C   0  0  0  0  0  0
  -21.6839   -6.0724   22.5244 C   0  0  0  0  0  0
  -21.4007   -6.5653   23.8172 C   0  0  0  0  0  0
  -21.3660   -5.6833   24.9161 C   0  0  0  0  0  0
  -21.6039   -4.3095   24.7199 C   0  0  0  0  0  0
  -21.8840   -3.8172   23.4335 C   0  0  0  0  0  0
  -21.9180   -4.6958   22.3382 C   0  0  0  0  0  0
  -22.7860  -13.5239   21.1877 C   0  0  0  0  0  0
  -22.1684   -4.2148   21.0968 F   0  0  0  0  0  0
  -21.5595   -3.4583   25.7724 F   0  0  0  0  0  0
  -29.9702  -13.5217   20.3766 N   0  0  0  0  0  0
  -26.2923  -12.9223   20.3258 N   0  0  0  0  0  0
  -25.9268  -11.6380   20.5721 N   0  0  0  0  0  0
  -22.0548  -12.8202   22.0417 N   0  0  0  0  0  0
  -25.4347  -15.1822   20.4021 N   0  0  0  0  0  0
  -31.7328  -14.9325   20.2631 O   0  0  0  0  0  0
  -21.6684   -6.8857   21.4212 O   0  0  0  0  0  0
  -22.3543  -14.5578   20.6769 O   0  0  0  0  0  0
  -24.6309  -31.8494   23.1970 C   0  0  0  0  0  0
  -25.9138  -32.4721   23.8280 C   0  0  1  0  0  0
  -27.2079  -27.2162   20.1624 C   0  0  0  0  0  0
  -25.5879  -33.8504   24.2160 N   0  0  0  0  0  0
  -23.4329  -30.4759   21.5386 C   0  0  2  0  0  0
  -24.8713  -28.9022   20.1255 C   0  0  0  0  0  0
  -22.7392  -29.4665   22.4818 C   0  0  0  0  0  0
  -18.0255  -28.1383   22.8545 C   0  0  0  0  0  0
  -24.1534  -36.7263   23.2635 C   0  0  0  0  0  0
  -25.9814  -30.7496   21.3796 C   0  0  0  0  0  0
  -26.0476  -29.3640   20.7322 C   0  0  0  0  0  0
  -27.2189  -28.5339   20.7412 C   0  0  0  0  0  0
  -26.0120  -26.8286   19.5222 C   0  0  0  0  0  0
  -24.8551  -27.6352   19.5172 C   0  0  0  0  0  0
  -23.6514  -29.8036   20.1601 C   0  0  0  0  0  0
  -25.4148  -36.3015   24.0327 C   0  0  1  0  0  0
  -20.5869  -28.3651   23.1129 C   0  0  2  0  0  0
  -20.6739  -26.9317   22.5287 C   0  0  0  0  0  0
  -19.5537  -26.6101   21.5350 C   0  0  0  0  0  0
  -18.1815  -26.7803   22.1887 C   0  0  0  0  0  0
  -19.1536  -28.8859   23.2815 C   0  0  0  0  0  0
  -18.9540  -30.1480   23.8882 C   0  0  0  0  0  0
  -17.6532  -30.6679   24.0577 C   0  0  0  0  0  0
  -25.9087  -34.9391   23.5055 C   0  0  0  0  0  0
  -16.5405  -29.9190   23.6378 C   0  0  0  0  0  0
  -16.7260  -28.6566   23.0467 C   0  0  0  0  0  0
  -26.4525  -31.6545   25.0698 C   0  0  0  0  0  0
  -25.3705  -31.3721   26.1412 C   0  0  0  0  0  0
  -27.0384  -30.2976   24.6154 C   0  0  0  0  0  0
  -27.6114  -32.4258   25.7468 C   0  0  0  0  0  0
  -27.5588  -37.1799   24.8452 C   0  0  0  0  0  0
  -21.4149  -29.2969   22.3417 N   0  0  0  0  0  0
  -26.4298  -37.3734   23.9413 N   0  0  0  0  0  0
  -24.7032  -31.0428   22.0964 N   0  0  0  0  0  0
  -23.4038  -28.8226   23.3038 O   0  0  0  0  0  0
  -28.3052  -26.3175   20.1736 O   0  0  0  0  0  0
  -26.5669  -34.8910   22.4659 O   0  0  0  0  0  0
  -23.5473  -32.1301   23.7318 O   0  0  0  0  0  0
  -29.0509  -18.3788   20.0472 C   0  0  0  0  0  0
  -29.5285  -17.2387   20.7031 C   0  0  0  0  0  0
  -28.8473  -18.7551   22.2152 C   0  0  0  0  0  0
  -24.1821  -23.1903   18.9065 C   0  0  0  0  0  0
  -23.1816  -20.6943   21.2192 C   0  0  0  0  0  0
  -30.2644  -20.4860   17.9374 C   0  0  0  0  0  0
  -26.7322  -18.0057   23.3281 C   0  0  0  0  0  0
  -27.7744  -20.0231   24.3764 C   0  0  0  0  0  0
  -28.7877  -17.8299   24.6355 C   0  0  0  0  0  0
  -24.5597  -20.1538   18.7242 C   0  0  0  0  0  0
  -27.7429  -21.6236   21.8295 C   0  0  0  0  0  0
  -25.5011  -22.4554   19.1698 C   0  0  0  0  0  0
  -24.6753  -21.0359   21.1226 C   0  0  0  0  0  0
  -29.3196  -21.6373   18.3177 C   0  0  0  0  0  0
  -28.5825  -23.6478   19.6102 C   0  0  0  0  0  0
  -26.7778  -20.3375   19.8146 C   0  0  0  0  0  0
  -28.1356  -24.8660   20.6034 C   0  0  0  0  0  0
  -28.0717  -18.7268   23.5808 C   0  0  0  0  0  0
  -25.3743  -21.0278   19.7249 C   0  0  0  0  0  0
  -28.0781  -20.8283   20.5871 C   0  0  1  0  0  0
  -28.9763  -22.0102   19.8049 C   0  0  1  0  0  0
  -28.7506  -19.4068   20.9786 N   0  0  0  0  0  0
  -29.5342  -17.5977   22.0066 N   0  3  0  0  0  0
  -29.6163  -15.8250   20.2413 N   0  0  0  0  0  0
  -30.1438  -22.0475   20.4583 F   0  0  0  0  0  0
  -31.4864  -12.6220   19.1817 H   0  0  0  0  0  0
  -30.4015  -11.4881   19.9595 H   0  0  0  0  0  0
  -29.8018  -11.7282   17.5172 H   0  0  0  0  0  0
  -29.6233  -13.4620   17.7198 H   0  0  0  0  0  0
  -27.9067  -11.2549   18.9105 H   0  0  0  0  0  0
  -27.3776  -12.4911   17.8032 H   0  0  0  0  0  0
  -27.6104  -14.2257   19.4603 H   0  0  0  0  0  0
  -28.7547  -12.1594   21.4293 H   0  0  0  0  0  0
  -28.4255  -13.8513   21.7798 H   0  0  0  0  0  0
  -25.2761   -9.5706   22.4786 H   0  0  0  0  0  0
  -24.0031   -7.4623   22.7568 H   0  0  0  0  0  0
  -21.0783   -8.8726   19.8998 H   0  0  0  0  0  0
  -22.3643  -10.9686   19.6197 H   0  0  0  0  0  0
  -21.2066   -7.6187   23.9625 H   0  0  0  0  0  0
  -21.1452   -6.0623   25.9046 H   0  0  0  0  0  0
  -22.0628   -2.7620   23.2827 H   0  0  0  0  0  0
  -22.4164  -11.9781   22.4663 H   0  0  0  0  0  0
  -21.1218  -13.1234   22.2776 H   0  0  0  0  0  0
  -24.6745  -15.8465   20.4959 H   0  0  0  0  0  0
  -26.2594  -15.5806   19.9780 H   0  0  0  0  0  0
  -26.7198  -32.5367   23.1005 H   0  0  0  0  0  0
  -25.0033  -33.9595   25.0314 H   0  0  0  0  0  0
  -22.7396  -31.3055   21.3900 H   0  0  0  0  0  0
  -23.3787  -35.9605   23.3284 H   0  0  0  0  0  0
  -24.3638  -36.8918   22.2045 H   0  0  0  0  0  0
  -23.7308  -37.6480   23.6684 H   0  0  0  0  0  0
  -26.1267  -31.4971   20.5974 H   0  0  0  0  0  0
  -26.8602  -30.8022   22.0114 H   0  0  0  0  0  0
  -28.1199  -28.8796   21.2291 H   0  0  0  0  0  0
  -25.9736  -25.8652   19.0380 H   0  0  0  0  0  0
  -23.9441  -27.2671   19.0641 H   0  0  0  0  0  0
  -23.8084  -30.5821   19.4146 H   0  0  0  0  0  0
  -22.7602  -29.2600   19.8322 H   0  0  0  0  0  0
  -25.1358  -36.1844   25.0819 H   0  0  0  0  0  0
  -20.9958  -28.3297   24.1240 H   0  0  0  0  0  0
  -20.5989  -26.2244   23.3574 H   0  0  0  0  0  0
  -21.6498  -26.7372   22.0805 H   0  0  0  0  0  0
  -19.6515  -25.5797   21.1828 H   0  0  0  0  0  0
  -19.6260  -27.2545   20.6512 H   0  0  0  0  0  0
  -17.3917  -26.6305   21.4496 H   0  0  0  0  0  0
  -18.0354  -26.0150   22.9551 H   0  0  0  0  0  0
  -19.8096  -30.7230   24.2154 H   0  0  0  0  0  0
  -17.5141  -31.6411   24.5108 H   0  0  0  0  0  0
  -15.5439  -30.3107   23.7631 H   0  0  0  0  0  0
  -15.8603  -28.0826   22.7331 H   0  0  0  0  0  0
  -24.5875  -30.7094   25.7712 H   0  0  0  0  0  0
  -24.8918  -32.2927   26.4734 H   0  0  0  0  0  0
  -25.7946  -30.8909   27.0234 H   0  0  0  0  0  0
  -26.2982  -29.6756   24.1130 H   0  0  0  0  0  0
  -27.4094  -29.7180   25.4608 H   0  0  0  0  0  0
  -27.8846  -30.4331   23.9425 H   0  0  0  0  0  0
  -27.2745  -33.3571   26.2036 H   0  0  0  0  0  0
  -28.3928  -32.6786   25.0279 H   0  0  0  0  0  0
  -28.0816  -31.8371   26.5355 H   0  0  0  0  0  0
  -28.2592  -38.0110   24.7523 H   0  0  0  0  0  0
  -28.1102  -36.2640   24.6263 H   0  0  0  0  0  0
  -27.2324  -37.1441   25.8859 H   0  0  0  0  0  0
  -20.9372  -29.8400   21.6307 H   0  0  0  0  0  0
  -26.0157  -38.2829   24.1382 H   0  0  0  0  0  0
  -28.8021  -18.4874   19.0031 H   0  0  0  0  0  0
  -24.3544  -24.2525   18.7284 H   0  0  0  0  0  0
  -23.4994  -23.1155   19.7497 H   0  0  0  0  0  0
  -23.6732  -22.7833   18.0345 H   0  0  0  0  0  0
  -22.5446  -21.2463   20.5291 H   0  0  0  0  0  0
  -22.8280  -20.9297   22.2201 H   0  0  0  0  0  0
  -22.9993  -19.6265   21.0673 H   0  0  0  0  0  0
  -30.8715  -20.1766   18.7922 H   0  0  0  0  0  0
  -30.9350  -20.7634   17.1137 H   0  0  0  0  0  0
  -29.6955  -19.6553   17.5198 H   0  0  0  0  0  0
  -26.0981  -18.5056   22.5975 H   0  0  0  0  0  0
  -26.1564  -17.9279   24.2518 H   0  0  0  0  0  0
  -26.8946  -16.9914   22.9629 H   0  0  0  0  0  0
  -26.8143  -20.4545   24.1153 H   0  0  0  0  0  0
  -28.5720  -20.7612   24.3460 H   0  0  0  0  0  0
  -27.5964  -19.8295   25.4344 H   0  0  0  0  0  0
  -28.8736  -16.7882   24.3407 H   0  0  0  0  0  0
  -28.2044  -17.7717   25.5557 H   0  0  0  0  0  0
  -29.7767  -18.2071   24.9015 H   0  0  0  0  0  0
  -23.5330  -20.4980   18.6035 H   0  0  0  0  0  0
  -24.4968  -19.1150   19.0629 H   0  0  0  0  0  0
  -25.0104  -20.1359   17.7236 H   0  0  0  0  0  0
  -27.3579  -22.6180   21.6503 H   0  0  0  0  0  0
  -28.6215  -21.7379   22.4595 H   0  0  0  0  0  0
  -26.9394  -21.1518   22.3362 H   0  0  0  0  0  0
  -26.0378  -23.0312   19.9117 H   0  0  0  0  0  0
  -26.1026  -22.4581   18.2595 H   0  0  0  0  0  0
  -25.1421  -20.2948   21.7618 H   0  0  0  0  0  0
  -24.8454  -21.9981   21.6129 H   0  0  0  0  0  0
  -28.3915  -21.5685   17.7536 H   0  0  0  0  0  0
  -29.8407  -22.4849   17.8765 H   0  0  0  0  0  0
  -29.5031  -24.0847   19.2269 H   0  0  0  0  0  0
  -27.9057  -23.7291   18.7627 H   0  0  0  0  0  0
  -27.0871  -20.0701   18.8045 H   0  0  0  0  0  0
  -26.5076  -19.3798   20.2690 H   0  0  0  0  0  0
  -28.7040  -24.7601   21.5340 H   0  0  0  0  0  0
  -27.0944  -24.7257   20.8789 H   0  0  0  0  0  0
  -29.7647  -16.9653   22.7607 H   0  0  0  0  0  0
  -28.7469  -15.4761   19.8578 H   0  0  0  0  0  0
  1 25  1  0  0  0
  1 30  2  0  0  0
  1 94  1  0  0  0
  2  3  1  0  0  0
  2 25  1  0  0  0
  2 96  1  0  0  0
  2 97  1  0  0  0
  3  4  1  0  0  0
  3 98  1  0  0  0
  3 99  1  0  0  0
  4  5  1  0  0  0
  4100  1  0  0  0
  4101  1  0  0  0
  5  6  1  0  0  0
  5 26  1  0  0  0
  5102  1  0  0  0
  6 25  1  0  0  0
  6103  1  0  0  0
  6104  1  0  0  0
  7  8  2  0  0  0
  7 26  1  0  0  0
  7 29  1  0  0  0
  8  9  1  0  0  0
  8 22  1  0  0  0
  9 10  1  0  0  0
  9 27  2  0  0  0
 10 11  2  0  0  0
 10 15  1  0  0  0
 11 12  1  0  0  0
 11105  1  0  0  0
 12 13  2  0  0  0
 12106  1  0  0  0
 13 14  1  0  0  0
 13 31  1  0  0  0
 14 15  2  0  0  0
 14107  1  0  0  0
 15108  1  0  0  0
 16 17  2  0  0  0
 16 21  1  0  0  0
 16 31  1  0  0  0
 17 18  1  0  0  0
 17109  1  0  0  0
 18 19  2  0  0  0
 18110  1  0  0  0
 19 20  1  0  0  0
 19 24  1  0  0  0
 20 21  2  0  0  0
 20111  1  0  0  0
 21 23  1  0  0  0
 22 28  1  0  0  0
 22 32  2  0  0  0
 26 27  1  0  0  0
 28112  1  0  0  0
 28113  1  0  0  0
 29114  1  0  0  0
 29115  1  0  0  0
 33 34  1  0  0  0
 33 66  1  0  0  0
 33 70  2  0  0  0
 34 36  1  0  0  0
 34 59  1  0  0  0
 34116  1  0  0  0
 35 44  2  0  0  0
 35 45  1  0  0  0
 35 68  1  0  0  0
 36 56  1  0  0  0
 36117  1  0  0  0
 37 39  1  0  0  0
 37 47  1  0  0  0
 37 66  1  0  0  0
 37118  1  0  0  0
 38 43  2  0  0  0
 38 46  1  0  0  0
 38 47  1  0  0  0
 39 64  1  0  0  0
 39 67  2  0  0  0
 40 52  1  0  0  0
 40 53  2  0  0  0
 40 58  1  0  0  0
 41119  1  0  0  0
 41120  1  0  0  0
 41121  1  0  0  0
 41 48  1  0  0  0
 42 43  1  0  0  0
 42 66  1  0  0  0
 42122  1  0  0  0
 42123  1  0  0  0
 43 44  1  0  0  0
 44124  1  0  0  0
 45 46  2  0  0  0
 45125  1  0  0  0
 46126  1  0  0  0
 47127  1  0  0  0
 47128  1  0  0  0
 48 56  1  0  0  0
 48 65  1  0  0  0
 48129  1  0  0  0
 49 50  1  0  0  0
 49 53  1  0  0  0
 49 64  1  0  0  0
 49130  1  0  0  0
 50 51  1  0  0  0
 50131  1  0  0  0
 50132  1  0  0  0
 51 52  1  0  0  0
 51133  1  0  0  0
 51134  1  0  0  0
 52135  1  0  0  0
 52136  1  0  0  0
 53 54  1  0  0  0
 54 55  2  0  0  0
 54137  1  0  0  0
 55 57  1  0  0  0
 55138  1  0  0  0
 56 69  2  0  0  0
 57 58  2  0  0  0
 57139  1  0  0  0
 58140  1  0  0  0
 59 60  1  0  0  0
 59 61  1  0  0  0
 59 62  1  0  0  0
 60141  1  0  0  0
 60142  1  0  0  0
 60143  1  0  0  0
 61144  1  0  0  0
 61145  1  0  0  0
 61146  1  0  0  0
 62147  1  0  0  0
 62148  1  0  0  0
 62149  1  0  0  0
 63 65  1  0  0  0
 63150  1  0  0  0
 63151  1  0  0  0
 63152  1  0  0  0
 64153  1  0  0  0
 65154  1  0  0  0
 68 87  1  0  0  0
 71 72  2  0  0  0
 71 92  1  0  0  0
 71155  1  0  0  0
 72 93  1  0  0  0
 72 94  1  0  0  0
 73 88  1  0  0  0
 73 92  1  0  0  0
 73 93  2  0  0  0
 74 82  1  0  0  0
 74156  1  0  0  0
 74157  1  0  0  0
 74158  1  0  0  0
 75 83  1  0  0  0
 75159  1  0  0  0
 75160  1  0  0  0
 75161  1  0  0  0
 76 84  1  0  0  0
 76162  1  0  0  0
 76163  1  0  0  0
 76164  1  0  0  0
 77165  1  0  0  0
 77166  1  0  0  0
 77167  1  0  0  0
 77 88  1  0  0  0
 78 88  1  0  0  0
 78168  1  0  0  0
 78169  1  0  0  0
 78170  1  0  0  0
 79 88  1  0  0  0
 79171  1  0  0  0
 79172  1  0  0  0
 79173  1  0  0  0
 80174  1  0  0  0
 80175  1  0  0  0
 80176  1  0  0  0
 80 89  1  0  0  0
 81177  1  0  0  0
 81178  1  0  0  0
 81179  1  0  0  0
 81 90  1  0  0  0
 82 89  1  0  0  0
 82180  1  0  0  0
 82181  1  0  0  0
 83 89  1  0  0  0
 83182  1  0  0  0
 83183  1  0  0  0
 84 91  1  0  0  0
 84184  1  0  0  0
 84185  1  0  0  0
 85 87  1  0  0  0
 85 91  1  0  0  0
 85186  1  0  0  0
 85187  1  0  0  0
 86 89  1  0  0  0
 86 90  1  0  0  0
 86188  1  0  0  0
 86189  1  0  0  0
 87190  1  0  0  0
 87191  1  0  0  0
 90 91  1  0  0  0
 90 92  1  0  0  0
 91 95  1  0  0  0
 93192  1  0  0  0
 94193  1  0  0  0
M  CHG  1  93   1
M  ISO  4   1 100  68 101  87 101  94 100
M  END
> <chiral flag>
0

> <version>
0

> <s_m_source_file>
/data/baiqing/PycharmProjects/Reinvent-master-3.2/result/LINK_invent/BTK/process_docking_weight1_custom_sum_contain_oxygen_bond_distance_aromatic_linkinvent_7_9_3/rearranged_h_0066.sdf

> <i_m_source_file_index>
33

> <r_mmod_Potential_Energy-OPLS-2005>
684.661804199219

> <r_mmod_Stretch_Energy-OPLS-2005>
222.011520385742

> <r_mmod_Bend_Energy-OPLS-2005>
395.159301757812

> <r_mmod_Torsional_Energy-OPLS-2005>
451.322784423828

> <r_mmod_Improper_Torsional_Energy-OPLS-2005>
23.9480133056641

> <r_mmod_Van_der_Waal_Energy-OPLS-2005>
157.030166625977

> <r_mmod_Electrostatic_Energy-OPLS-2005>
-276.592407226562

> <r_mmod_Solvation_Energy-OPLS-2005>
-401.85107421875

> <b_mmod_Minimization_Converged-OPLS-2005>
0

> <r_mmod_RMS_Derivative-OPLS-2005>
11.394570350647

$$$$
34
                    3D
 Structure written by MMmdl.
190198  0  0  1  0            999 V2000
  -30.8003  -14.4352   20.6017 C   0  0  0  0  0  0
  -30.3982  -12.2830   19.4563 C   0  0  0  0  0  0
  -29.4941  -12.4777   18.2263 C   0  0  0  0  0  0
  -28.0146  -12.3501   18.6315 C   0  0  0  0  0  0
  -27.6575  -13.2192   19.8637 C   0  0  2  0  0  0
  -28.6953  -13.0653   20.9976 C   0  0  0  0  0  0
  -25.2591  -13.8219   20.5688 C   0  0  0  0  0  0
  -24.1845  -13.0486   20.9165 C   0  0  0  0  0  0
  -24.6404  -11.6945   20.8726 C   0  0  0  0  0  0
  -23.9069  -10.4317   21.0407 C   0  0  0  0  0  0
  -24.3612   -9.4227   21.9185 C   0  0  0  0  0  0
  -23.6289   -8.2254   22.0742 C   0  0  0  0  0  0
  -22.4276   -8.0284   21.3524 C   0  0  0  0  0  0
  -21.9913   -9.0271   20.4627 C   0  0  0  0  0  0
  -22.7242  -10.2157   20.3052 C   0  0  0  0  0  0
  -21.6862   -6.0744   22.5273 C   0  0  0  0  0  0
  -21.4023   -6.5647   23.8211 C   0  0  0  0  0  0
  -21.3650   -5.6788   24.9163 C   0  0  0  0  0  0
  -21.6033   -4.3051   24.7206 C   0  0  0  0  0  0
  -21.8824   -3.8148   23.4326 C   0  0  0  0  0  0
  -21.9201   -4.6971   22.3388 C   0  0  0  0  0  0
  -22.7863  -13.5267   21.1831 C   0  0  0  0  0  0
  -22.1676   -4.2165   21.0965 F   0  0  0  0  0  0
  -21.5611   -3.4530   25.7715 F   0  0  0  0  0  0
  -30.0361  -13.3149   20.4489 N   0  0  0  0  0  0
  -26.3015  -12.9400   20.3327 N   0  0  0  0  0  0
  -25.9327  -11.6547   20.5746 N   0  0  0  0  0  0
  -22.0532  -12.8240   22.0394 N   0  0  0  0  0  0
  -25.4340  -15.1924   20.4122 N   0  0  0  0  0  0
  -31.9151  -14.4721   20.0740 O   0  0  0  0  0  0
  -21.6632   -6.8886   21.4234 O   0  0  0  0  0  0
  -22.3536  -14.5579   20.6701 O   0  0  0  0  0  0
  -24.6109  -31.8704   23.2139 C   0  0  0  0  0  0
  -25.9018  -32.4831   23.8418 C   0  0  1  0  0  0
  -27.2428  -27.4679   20.0964 C   0  0  0  0  0  0
  -25.5884  -33.8635   24.2340 N   0  0  0  0  0  0
  -23.3980  -30.4919   21.5529 C   0  0  2  0  0  0
  -24.8476  -28.9580   20.1195 C   0  0  0  0  0  0
  -22.7392  -29.4668   22.5027 C   0  0  0  0  0  0
  -18.0267  -28.1365   22.8494 C   0  0  0  0  0  0
  -24.1478  -36.7320   23.2640 C   0  0  0  0  0  0
  -25.9238  -30.8417   21.3675 C   0  0  0  0  0  0
  -26.0019  -29.4755   20.7227 C   0  0  0  0  0  0
  -27.2011  -28.7326   20.7211 C   0  0  0  0  0  0
  -26.0816  -26.9605   19.4815 C   0  0  0  0  0  0
  -24.8789  -27.6949   19.5008 C   0  0  0  0  0  0
  -23.6070  -29.8210   20.1682 C   0  0  0  0  0  0
  -25.4103  -36.3116   24.0337 C   0  0  1  0  0  0
  -20.5850  -28.3648   23.1324 C   0  0  2  0  0  0
  -20.6753  -26.9389   22.5417 C   0  0  0  0  0  0
  -19.5745  -26.6379   21.5209 C   0  0  0  0  0  0
  -18.1916  -26.7912   22.1615 C   0  0  0  0  0  0
  -19.1512  -28.8826   23.2900 C   0  0  0  0  0  0
  -18.9443  -30.1434   23.8909 C   0  0  0  0  0  0
  -17.6449  -30.6573   24.0564 C   0  0  0  0  0  0
  -25.9028  -34.9478   23.5133 C   0  0  0  0  0  0
  -16.5338  -29.9078   23.6318 C   0  0  0  0  0  0
  -16.7258  -28.6492   23.0344 C   0  0  0  0  0  0
  -26.4468  -31.6611   25.0736 C   0  0  0  0  0  0
  -25.3756  -31.3697   26.1501 C   0  0  0  0  0  0
  -27.0299  -30.3057   24.6097 C   0  0  0  0  0  0
  -27.6037  -32.4348   25.7495 C   0  0  0  0  0  0
  -27.5572  -37.1815   24.8463 C   0  0  0  0  0  0
  -21.4121  -29.3017   22.3741 N   0  0  0  0  0  0
  -26.4285  -37.3799   23.9408 N   0  0  0  0  0  0
  -24.6615  -31.0827   22.1025 N   0  0  0  0  0  0
  -23.4179  -28.8219   23.3064 O   0  0  0  0  0  0
  -28.3879  -26.7156   20.0347 O   0  0  0  0  0  0
  -26.5592  -34.8927   22.4696 O   0  0  0  0  0  0
  -23.5309  -32.1449   23.7548 O   0  0  0  0  0  0
  -32.0510  -17.2866   20.1505 C   0  0  0  0  0  0
  -32.0236  -18.3935   19.3526 C   0  0  0  0  0  0
  -30.6207  -18.7068   19.3097 C   0  0  0  0  0  0
  -34.4802  -18.9061   19.6134 C   0  0  0  0  0  0
  -33.1312  -20.4520   18.2377 C   0  0  0  0  0  0
  -33.5628  -18.1469   17.4074 C   0  0  0  0  0  0
  -32.2531  -15.8282   23.0889 C   0  0  0  0  0  0
  -30.2150  -17.2389   23.3995 C   0  0  0  0  0  0
  -30.0812  -14.7846   23.6993 C   0  0  0  0  0  0
  -29.8222  -22.3629   16.9806 C   0  0  0  0  0  0
  -27.8154  -22.3606   18.4726 C   0  0  0  0  0  0
  -29.8980  -19.7874   18.5378 C   0  0  0  0  0  0
  -29.8985  -21.1586   19.2581 C   0  0  0  0  0  0
  -30.0594  -25.3257   21.1144 C   0  0  0  0  0  0
  -29.5267  -23.9778   20.5677 C   0  0  0  0  0  0
  -28.9856  -26.4154   21.2895 C   0  0  0  0  0  0
  -30.3160  -15.7531   21.3079 C   0  0  1  0  0  0
  -33.2643  -18.9815   18.6644 C   0  0  0  0  0  0
  -30.7248  -15.8897   22.8360 C   0  0  0  0  0  0
  -29.3569  -22.3857   18.4588 C   0  0  0  0  0  0
  -29.8846  -23.7207   19.0836 C   0  0  0  0  0  0
  -29.8930  -17.8503   20.0332 N   0  0  0  0  0  0
  -30.7669  -16.9323   20.5195 N   0  0  0  0  0  0
  -31.2168  -23.7411   18.9818 F   0  0  0  0  0  0
  -29.4099  -24.7424   18.3689 F   0  0  0  0  0  0
  -31.4459  -12.3129   19.1532 H   0  0  0  0  0  0
  -30.2525  -11.2935   19.8911 H   0  0  0  0  0  0
  -29.7359  -11.7409   17.4595 H   0  0  0  0  0  0
  -29.6787  -13.4566   17.7827 H   0  0  0  0  0  0
  -27.8238  -11.2991   18.8529 H   0  0  0  0  0  0
  -27.3675  -12.6062   17.7916 H   0  0  0  0  0  0
  -27.6865  -14.2561   19.5288 H   0  0  0  0  0  0
  -28.6533  -12.0633   21.4268 H   0  0  0  0  0  0
  -28.4467  -13.7424   21.8093 H   0  0  0  0  0  0
  -25.2773   -9.5702   22.4748 H   0  0  0  0  0  0
  -24.0010   -7.4652   22.7474 H   0  0  0  0  0  0
  -21.0834   -8.8798   19.8943 H   0  0  0  0  0  0
  -22.3712  -10.9688   19.6151 H   0  0  0  0  0  0
  -21.2038   -7.6163   23.9717 H   0  0  0  0  0  0
  -21.1460   -6.0509   25.9060 H   0  0  0  0  0  0
  -22.0612   -2.7609   23.2815 H   0  0  0  0  0  0
  -22.4163  -11.9903   22.4774 H   0  0  0  0  0  0
  -21.1167  -13.1280   22.2639 H   0  0  0  0  0  0
  -24.6777  -15.8551   20.5414 H   0  0  0  0  0  0
  -26.2967  -15.6281   20.1104 H   0  0  0  0  0  0
  -26.7096  -32.5561   23.1192 H   0  0  0  0  0  0
  -25.0024  -33.9802   25.0476 H   0  0  0  0  0  0
  -22.6855  -31.3075   21.4138 H   0  0  0  0  0  0
  -23.3724  -35.9666   23.3327 H   0  0  0  0  0  0
  -24.3566  -36.8912   22.2045 H   0  0  0  0  0  0
  -23.7250  -37.6542   23.6643 H   0  0  0  0  0  0
  -26.0352  -31.6045   20.5960 H   0  0  0  0  0  0
  -26.8114  -30.8966   21.9844 H   0  0  0  0  0  0
  -28.0918  -29.1387   21.1789 H   0  0  0  0  0  0
  -26.1108  -25.9956   18.9940 H   0  0  0  0  0  0
  -23.9933  -27.2907   19.0301 H   0  0  0  0  0  0
  -23.7108  -30.5931   19.4065 H   0  0  0  0  0  0
  -22.7330  -29.2354   19.8761 H   0  0  0  0  0  0
  -25.1275  -36.1979   25.0830 H   0  0  0  0  0  0
  -20.9937  -28.3210   24.1453 H   0  0  0  0  0  0
  -20.5646  -26.2259   23.3604 H   0  0  0  0  0  0
  -21.6628  -26.7430   22.1225 H   0  0  0  0  0  0
  -19.6904  -25.6299   21.1223 H   0  0  0  0  0  0
  -19.6678  -27.3201   20.6750 H   0  0  0  0  0  0
  -17.4188  -26.6660   21.4016 H   0  0  0  0  0  0
  -18.0314  -26.0047   22.9006 H   0  0  0  0  0  0
  -19.7921  -30.7241   24.2288 H   0  0  0  0  0  0
  -17.5003  -31.6259   24.5158 H   0  0  0  0  0  0
  -15.5337  -30.2985   23.7636 H   0  0  0  0  0  0
  -15.8652  -28.0816   22.7054 H   0  0  0  0  0  0
  -24.5912  -30.7062   25.7845 H   0  0  0  0  0  0
  -24.8968  -32.2844   26.5009 H   0  0  0  0  0  0
  -25.8134  -30.8829   27.0225 H   0  0  0  0  0  0
  -26.2834  -29.6836   24.1145 H   0  0  0  0  0  0
  -27.4066  -29.7280   25.4549 H   0  0  0  0  0  0
  -27.8675  -30.4386   23.9245 H   0  0  0  0  0  0
  -27.2637  -33.3637   26.2096 H   0  0  0  0  0  0
  -28.3825  -32.6944   25.0309 H   0  0  0  0  0  0
  -28.0734  -31.8472   26.5395 H   0  0  0  0  0  0
  -28.2600  -38.0097   24.7491 H   0  0  0  0  0  0
  -28.1049  -36.2632   24.6301 H   0  0  0  0  0  0
  -27.2293  -37.1488   25.8865 H   0  0  0  0  0  0
  -20.9294  -29.8728   21.6944 H   0  0  0  0  0  0
  -26.0171  -38.2875   24.1402 H   0  0  0  0  0  0
  -32.8962  -16.6770   20.4373 H   0  0  0  0  0  0
  -34.3207  -19.5029   20.5117 H   0  0  0  0  0  0
  -35.3818  -19.2847   19.1299 H   0  0  0  0  0  0
  -34.7079  -17.8876   19.9293 H   0  0  0  0  0  0
  -32.9455  -21.1073   19.0856 H   0  0  0  0  0  0
  -32.3593  -20.6047   17.4894 H   0  0  0  0  0  0
  -34.0593  -20.8020   17.7834 H   0  0  0  0  0  0
  -33.7449  -17.0992   17.6507 H   0  0  0  0  0  0
  -34.4452  -18.5200   16.8857 H   0  0  0  0  0  0
  -32.7318  -18.1824   16.7017 H   0  0  0  0  0  0
  -32.4825  -15.8353   24.1558 H   0  0  0  0  0  0
  -32.7857  -16.6775   22.6661 H   0  0  0  0  0  0
  -32.6985  -14.9225   22.6797 H   0  0  0  0  0  0
  -30.3795  -17.3220   24.4759 H   0  0  0  0  0  0
  -29.1441  -17.3553   23.2285 H   0  0  0  0  0  0
  -30.7120  -18.0901   22.9341 H   0  0  0  0  0  0
  -30.3964  -14.8652   24.7413 H   0  0  0  0  0  0
  -30.3633  -13.7851   23.3656 H   0  0  0  0  0  0
  -28.9931  -14.8607   23.6961 H   0  0  0  0  0  0
  -29.4102  -21.5224   16.4234 H   0  0  0  0  0  0
  -30.9081  -22.3172   16.8996 H   0  0  0  0  0  0
  -29.5031  -23.2582   16.4477 H   0  0  0  0  0  0
  -27.4234  -21.5099   17.9162 H   0  0  0  0  0  0
  -27.4011  -23.2631   18.0202 H   0  0  0  0  0  0
  -27.4178  -22.2921   19.4856 H   0  0  0  0  0  0
  -28.8655  -19.4944   18.3500 H   0  0  0  0  0  0
  -30.3468  -19.8511   17.5497 H   0  0  0  0  0  0
  -30.9128  -21.3782   19.5710 H   0  0  0  0  0  0
  -29.3491  -21.0519   20.1955 H   0  0  0  0  0  0
  -30.8686  -25.7033   20.4887 H   0  0  0  0  0  0
  -30.5108  -25.1430   22.0905 H   0  0  0  0  0  0
  -28.4483  -23.9285   20.7136 H   0  0  0  0  0  0
  -29.9418  -23.1733   21.1758 H   0  0  0  0  0  0
  -29.4406  -27.3120   21.7127 H   0  0  0  0  0  0
  -28.2278  -26.0751   21.9979 H   0  0  0  0  0  0
  -29.2271  -15.7621   21.2591 H   0  0  0  0  0  0
  1 25  1  0  0  0
  1 30  2  0  0  0
  1 87  1  0  0  0
  2  3  1  0  0  0
  2 25  1  0  0  0
  2 96  1  0  0  0
  2 97  1  0  0  0
  3  4  1  0  0  0
  3 98  1  0  0  0
  3 99  1  0  0  0
  4  5  1  0  0  0
  4100  1  0  0  0
  4101  1  0  0  0
  5  6  1  0  0  0
  5 26  1  0  0  0
  5102  1  0  0  0
  6 25  1  0  0  0
  6103  1  0  0  0
  6104  1  0  0  0
  7  8  2  0  0  0
  7 26  1  0  0  0
  7 29  1  0  0  0
  8  9  1  0  0  0
  8 22  1  0  0  0
  9 10  1  0  0  0
  9 27  2  0  0  0
 10 11  2  0  0  0
 10 15  1  0  0  0
 11 12  1  0  0  0
 11105  1  0  0  0
 12 13  2  0  0  0
 12106  1  0  0  0
 13 14  1  0  0  0
 13 31  1  0  0  0
 14 15  2  0  0  0
 14107  1  0  0  0
 15108  1  0  0  0
 16 17  2  0  0  0
 16 21  1  0  0  0
 16 31  1  0  0  0
 17 18  1  0  0  0
 17109  1  0  0  0
 18 19  2  0  0  0
 18110  1  0  0  0
 19 20  1  0  0  0
 19 24  1  0  0  0
 20 21  2  0  0  0
 20111  1  0  0  0
 21 23  1  0  0  0
 22 28  1  0  0  0
 22 32  2  0  0  0
 26 27  1  0  0  0
 28112  1  0  0  0
 28113  1  0  0  0
 29114  1  0  0  0
 29115  1  0  0  0
 33 34  1  0  0  0
 33 66  1  0  0  0
 33 70  2  0  0  0
 34 36  1  0  0  0
 34 59  1  0  0  0
 34116  1  0  0  0
 35 44  2  0  0  0
 35 45  1  0  0  0
 35 68  1  0  0  0
 36 56  1  0  0  0
 36117  1  0  0  0
 37 39  1  0  0  0
 37 47  1  0  0  0
 37 66  1  0  0  0
 37118  1  0  0  0
 38 43  2  0  0  0
 38 46  1  0  0  0
 38 47  1  0  0  0
 39 64  1  0  0  0
 39 67  2  0  0  0
 40 52  1  0  0  0
 40 53  2  0  0  0
 40 58  1  0  0  0
 41119  1  0  0  0
 41120  1  0  0  0
 41121  1  0  0  0
 41 48  1  0  0  0
 42 43  1  0  0  0
 42 66  1  0  0  0
 42122  1  0  0  0
 42123  1  0  0  0
 43 44  1  0  0  0
 44124  1  0  0  0
 45 46  2  0  0  0
 45125  1  0  0  0
 46126  1  0  0  0
 47127  1  0  0  0
 47128  1  0  0  0
 48 56  1  0  0  0
 48 65  1  0  0  0
 48129  1  0  0  0
 49 50  1  0  0  0
 49 53  1  0  0  0
 49 64  1  0  0  0
 49130  1  0  0  0
 50 51  1  0  0  0
 50131  1  0  0  0
 50132  1  0  0  0
 51 52  1  0  0  0
 51133  1  0  0  0
 51134  1  0  0  0
 52135  1  0  0  0
 52136  1  0  0  0
 53 54  1  0  0  0
 54 55  2  0  0  0
 54137  1  0  0  0
 55 57  1  0  0  0
 55138  1  0  0  0
 56 69  2  0  0  0
 57 58  2  0  0  0
 57139  1  0  0  0
 58140  1  0  0  0
 59 60  1  0  0  0
 59 61  1  0  0  0
 59 62  1  0  0  0
 60141  1  0  0  0
 60142  1  0  0  0
 60143  1  0  0  0
 61144  1  0  0  0
 61145  1  0  0  0
 61146  1  0  0  0
 62147  1  0  0  0
 62148  1  0  0  0
 62149  1  0  0  0
 63 65  1  0  0  0
 63150  1  0  0  0
 63151  1  0  0  0
 63152  1  0  0  0
 64153  1  0  0  0
 65154  1  0  0  0
 68 86  1  0  0  0
 71 72  2  0  0  0
 71 93  1  0  0  0
 71155  1  0  0  0
 72 73  1  0  0  0
 72 88  1  0  0  0
 73 82  1  0  0  0
 73 92  2  0  0  0
 74156  1  0  0  0
 74157  1  0  0  0
 74158  1  0  0  0
 74 88  1  0  0  0
 75 88  1  0  0  0
 75159  1  0  0  0
 75160  1  0  0  0
 75161  1  0  0  0
 76 88  1  0  0  0
 76162  1  0  0  0
 76163  1  0  0  0
 76164  1  0  0  0
 77165  1  0  0  0
 77166  1  0  0  0
 77167  1  0  0  0
 77 89  1  0  0  0
 78 89  1  0  0  0
 78168  1  0  0  0
 78169  1  0  0  0
 78170  1  0  0  0
 79 89  1  0  0  0
 79171  1  0  0  0
 79172  1  0  0  0
 79173  1  0  0  0
 80174  1  0  0  0
 80175  1  0  0  0
 80176  1  0  0  0
 80 90  1  0  0  0
 81 90  1  0  0  0
 81177  1  0  0  0
 81178  1  0  0  0
 81179  1  0  0  0
 82 83  1  0  0  0
 82180  1  0  0  0
 82181  1  0  0  0
 83 90  1  0  0  0
 83182  1  0  0  0
 83183  1  0  0  0
 84 85  1  0  0  0
 84 86  1  0  0  0
 84184  1  0  0  0
 84185  1  0  0  0
 85 91  1  0  0  0
 85186  1  0  0  0
 85187  1  0  0  0
 86188  1  0  0  0
 86189  1  0  0  0
 87 89  1  0  0  0
 87 93  1  0  0  0
 87190  1  0  0  0
 90 91  1  0  0  0
 91 94  1  0  0  0
 91 95  1  0  0  0
 92 93  1  0  0  0
M  ISO  4   1 100  68 101  86 101  87 100
M  END
> <chiral flag>
0

> <version>
0

> <s_m_source_file>
/data/baiqing/PycharmProjects/Reinvent-master-3.2/result/LINK_invent/BTK/process_docking_weight1_custom_sum_contain_oxygen_bond_distance_aromatic_linkinvent_7_9_3/rearranged_h_0066.sdf

> <i_m_source_file_index>
34

> <r_mmod_Potential_Energy-OPLS-2005>
108.347602844238

> <r_mmod_Stretch_Energy-OPLS-2005>
48.7272071838379

> <r_mmod_Bend_Energy-OPLS-2005>
130.327941894531

> <r_mmod_Torsional_Energy-OPLS-2005>
229.480941772461

> <r_mmod_Improper_Torsional_Energy-OPLS-2005>
2.6791844367981

> <r_mmod_Van_der_Waal_Energy-OPLS-2005>
143.286163330078

> <r_mmod_Electrostatic_Energy-OPLS-2005>
-297.031890869141

> <r_mmod_Solvation_Energy-OPLS-2005>
-165.706909179688

> <b_mmod_Minimization_Converged-OPLS-2005>
0

> <r_mmod_RMS_Derivative-OPLS-2005>
3.0911967754364

$$$$
35
                    3D
 Structure written by MMmdl.
193201  0  0  1  0            999 V2000
  -30.7394  -14.4283   20.5859 C   0  0  0  0  0  0
  -30.4090  -12.2865   19.4128 C   0  0  0  0  0  0
  -29.4857  -12.5028   18.1986 C   0  0  0  0  0  0
  -28.0090  -12.3582   18.6134 C   0  0  0  0  0  0
  -27.6566  -13.2007   19.8682 C   0  0  2  0  0  0
  -28.6989  -12.9930   20.9904 C   0  0  0  0  0  0
  -25.2580  -13.8137   20.5663 C   0  0  0  0  0  0
  -24.1824  -13.0428   20.9161 C   0  0  0  0  0  0
  -24.6362  -11.6890   20.8723 C   0  0  0  0  0  0
  -23.9027  -10.4286   21.0396 C   0  0  0  0  0  0
  -24.3591   -9.4213   21.9180 C   0  0  0  0  0  0
  -23.6282   -8.2241   22.0754 C   0  0  0  0  0  0
  -22.4268   -8.0266   21.3543 C   0  0  0  0  0  0
  -21.9892   -9.0237   20.4656 C   0  0  0  0  0  0
  -22.7202  -10.2122   20.3056 C   0  0  0  0  0  0
  -21.6854   -6.0722   22.5274 C   0  0  0  0  0  0
  -21.4012   -6.5626   23.8211 C   0  0  0  0  0  0
  -21.3665   -5.6779   24.9173 C   0  0  0  0  0  0
  -21.6052   -4.3044   24.7226 C   0  0  0  0  0  0
  -21.8818   -3.8133   23.4344 C   0  0  0  0  0  0
  -21.9194   -4.6953   22.3399 C   0  0  0  0  0  0
  -22.7856  -13.5253   21.1821 C   0  0  0  0  0  0
  -22.1665   -4.2129   21.0975 F   0  0  0  0  0  0
  -21.5641   -3.4529   25.7746 F   0  0  0  0  0  0
  -30.0320  -13.2766   20.4325 N   0  0  0  0  0  0
  -26.2996  -12.9294   20.3331 N   0  0  0  0  0  0
  -25.9292  -11.6463   20.5748 N   0  0  0  0  0  0
  -22.0475  -12.8266   22.0384 N   0  0  0  0  0  0
  -25.4314  -15.1858   20.4074 N   0  0  0  0  0  0
  -31.8588  -14.5871   20.0955 O   0  0  0  0  0  0
  -21.6636   -6.8862   21.4241 O   0  0  0  0  0  0
  -22.3556  -14.5570   20.6677 O   0  0  0  0  0  0
  -24.6072  -31.8715   23.2134 C   0  0  0  0  0  0
  -25.8993  -32.4843   23.8412 C   0  0  1  0  0  0
  -27.2570  -27.4778   20.0939 C   0  0  0  0  0  0
  -25.5871  -33.8641   24.2348 N   0  0  0  0  0  0
  -23.3937  -30.4933   21.5513 C   0  0  2  0  0  0
  -24.8449  -28.9594   20.1196 C   0  0  0  0  0  0
  -22.7364  -29.4672   22.5006 C   0  0  0  0  0  0
  -18.0263  -28.1374   22.8494 C   0  0  0  0  0  0
  -24.1485  -36.7329   23.2639 C   0  0  0  0  0  0
  -25.9148  -30.8486   21.3609 C   0  0  0  0  0  0
  -25.9958  -29.4810   20.7210 C   0  0  0  0  0  0
  -27.1969  -28.7450   20.7245 C   0  0  0  0  0  0
  -26.0859  -26.9625   19.5005 C   0  0  0  0  0  0
  -24.8806  -27.6919   19.5128 C   0  0  0  0  0  0
  -23.6027  -29.8204   20.1665 C   0  0  0  0  0  0
  -25.4101  -36.3127   24.0344 C   0  0  1  0  0  0
  -20.5847  -28.3651   23.1335 C   0  0  2  0  0  0
  -20.6752  -26.9393   22.5432 C   0  0  0  0  0  0
  -19.5740  -26.6385   21.5215 C   0  0  0  0  0  0
  -18.1913  -26.7923   22.1616 C   0  0  0  0  0  0
  -19.1510  -28.8825   23.2914 C   0  0  0  0  0  0
  -18.9445  -30.1434   23.8920 C   0  0  0  0  0  0
  -17.6450  -30.6581   24.0567 C   0  0  0  0  0  0
  -25.9022  -34.9490   23.5140 C   0  0  0  0  0  0
  -16.5340  -29.9089   23.6324 C   0  0  0  0  0  0
  -16.7253  -28.6505   23.0342 C   0  0  0  0  0  0
  -26.4455  -31.6604   25.0713 C   0  0  0  0  0  0
  -25.3747  -31.3700   26.1482 C   0  0  0  0  0  0
  -27.0277  -30.3055   24.6048 C   0  0  0  0  0  0
  -27.6047  -32.4311   25.7459 C   0  0  0  0  0  0
  -27.5586  -37.1812   24.8461 C   0  0  0  0  0  0
  -21.4108  -29.3020   22.3745 N   0  0  0  0  0  0
  -26.4295  -37.3801   23.9411 N   0  0  0  0  0  0
  -24.6562  -31.0851   22.1013 N   0  0  0  0  0  0
  -23.4165  -28.8222   23.3043 O   0  0  0  0  0  0
  -28.3918  -26.6998   19.9965 O   0  0  0  0  0  0
  -26.5586  -34.8933   22.4707 O   0  0  0  0  0  0
  -23.5280  -32.1451   23.7559 O   0  0  0  0  0  0
  -31.5722  -21.9348   19.0508 C   0  0  0  0  0  0
  -31.1930  -21.6211   17.7570 C   0  0  0  0  0  0
  -30.1493  -20.1882   19.1475 C   0  0  0  0  0  0
  -32.4398  -20.2937   21.7682 C   0  0  0  0  0  0
  -31.4657  -17.5534   19.4200 C   0  0  0  0  0  0
  -32.9977  -22.6384   16.2938 C   0  0  0  0  0  0
  -30.5646  -23.2824   16.0100 C   0  0  0  0  0  0
  -31.3931  -21.0251   15.3205 C   0  0  0  0  0  0
  -28.1126  -19.3971   20.4278 C   0  0  0  0  0  0
  -28.6364  -18.4050   18.2240 C   0  0  0  0  0  0
  -30.3909  -15.7179   22.6247 C   0  0  0  0  0  0
  -32.5458  -22.9660   19.5756 C   0  0  0  0  0  0
  -32.1643  -24.4399   19.3346 C   0  0  0  0  0  0
  -30.9240  -24.9644   20.0792 C   0  0  0  0  0  0
  -30.7947  -26.4840   19.8602 C   0  0  0  0  0  0
  -31.1025  -20.9277   21.3440 C   0  0  0  0  0  0
  -29.3708  -16.4991   20.4885 C   0  0  0  0  0  0
  -29.6131  -27.1701   20.5570 C   0  0  0  0  0  0
  -30.1534  -17.8250   20.1922 C   0  0  2  0  0  0
  -31.5385  -22.1481   16.3738 C   0  0  0  0  0  0
  -29.2906  -18.9659   19.5198 C   0  0  0  0  0  0
  -30.9354  -21.0149   19.8782 N   0  0  0  0  0  0
  -30.2889  -20.6046   17.8880 N   0  3  0  0  0  0
  -30.1032  -15.4418   21.2185 N   0  0  0  0  0  0
  -31.4558  -12.3622   19.1127 H   0  0  0  0  0  0
  -30.2905  -11.2773   19.8122 H   0  0  0  0  0  0
  -29.7249  -11.7860   17.4125 H   0  0  0  0  0  0
  -29.6550  -13.4946   17.7745 H   0  0  0  0  0  0
  -27.8231  -11.3017   18.8114 H   0  0  0  0  0  0
  -27.3557  -12.6291   17.7833 H   0  0  0  0  0  0
  -27.6934  -14.2437   19.5606 H   0  0  0  0  0  0
  -28.6669  -11.9665   21.3583 H   0  0  0  0  0  0
  -28.4614  -13.6195   21.8512 H   0  0  0  0  0  0
  -25.2732   -9.5713   22.4748 H   0  0  0  0  0  0
  -24.0001   -7.4645   22.7476 H   0  0  0  0  0  0
  -21.0821   -8.8748   19.8974 H   0  0  0  0  0  0
  -22.3645  -10.9657   19.6164 H   0  0  0  0  0  0
  -21.1992   -7.6135   23.9704 H   0  0  0  0  0  0
  -21.1497   -6.0512   25.9077 H   0  0  0  0  0  0
  -22.0596   -2.7598   23.2843 H   0  0  0  0  0  0
  -22.4079  -11.9933   22.4794 H   0  0  0  0  0  0
  -21.1105  -13.1331   22.2572 H   0  0  0  0  0  0
  -24.6681  -15.8419   20.5265 H   0  0  0  0  0  0
  -26.2922  -15.6267   20.1116 H   0  0  0  0  0  0
  -26.7064  -32.5590   23.1188 H   0  0  0  0  0  0
  -25.0023  -33.9811   25.0491 H   0  0  0  0  0  0
  -22.6800  -31.3085   21.4121 H   0  0  0  0  0  0
  -23.3739  -35.9673   23.3318 H   0  0  0  0  0  0
  -24.3581  -36.8921   22.2051 H   0  0  0  0  0  0
  -23.7248  -37.6547   23.6635 H   0  0  0  0  0  0
  -26.0149  -31.6092   20.5852 H   0  0  0  0  0  0
  -26.8062  -30.9136   21.9724 H   0  0  0  0  0  0
  -28.0574  -29.1766   21.2124 H   0  0  0  0  0  0
  -26.1132  -25.9948   19.0198 H   0  0  0  0  0  0
  -23.9956  -27.2787   19.0483 H   0  0  0  0  0  0
  -23.7059  -30.5929   19.4035 H   0  0  0  0  0  0
  -22.7290  -29.2345   19.8748 H   0  0  0  0  0  0
  -25.1274  -36.1999   25.0835 H   0  0  0  0  0  0
  -20.9941  -28.3219   24.1453 H   0  0  0  0  0  0
  -20.5649  -26.2260   23.3614 H   0  0  0  0  0  0
  -21.6627  -26.7439   22.1232 H   0  0  0  0  0  0
  -19.6906  -25.6301   21.1230 H   0  0  0  0  0  0
  -19.6690  -27.3208   20.6758 H   0  0  0  0  0  0
  -17.4194  -26.6683   21.4005 H   0  0  0  0  0  0
  -18.0303  -26.0053   22.8995 H   0  0  0  0  0  0
  -19.7923  -30.7239   24.2298 H   0  0  0  0  0  0
  -17.5010  -31.6262   24.5170 H   0  0  0  0  0  0
  -15.5343  -30.3001   23.7632 H   0  0  0  0  0  0
  -15.8652  -28.0836   22.7039 H   0  0  0  0  0  0
  -24.5912  -30.7048   25.7832 H   0  0  0  0  0  0
  -24.8945  -32.2852   26.4950 H   0  0  0  0  0  0
  -25.8124  -30.8866   27.0224 H   0  0  0  0  0  0
  -26.2800  -29.6818   24.1134 H   0  0  0  0  0  0
  -27.4098  -29.7283   25.4479 H   0  0  0  0  0  0
  -27.8611  -30.4385   23.9145 H   0  0  0  0  0  0
  -27.2676  -33.3589   26.2091 H   0  0  0  0  0  0
  -28.3821  -32.6907   25.0260 H   0  0  0  0  0  0
  -28.0758  -31.8404   26.5324 H   0  0  0  0  0  0
  -28.2611  -38.0103   24.7505 H   0  0  0  0  0  0
  -28.1071  -36.2635   24.6280 H   0  0  0  0  0  0
  -27.2312  -37.1460   25.8868 H   0  0  0  0  0  0
  -20.9255  -29.8740   21.6971 H   0  0  0  0  0  0
  -26.0192  -38.2885   24.1408 H   0  0  0  0  0  0
  -32.5125  -20.2469   22.8550 H   0  0  0  0  0  0
  -33.2998  -20.8589   21.4117 H   0  0  0  0  0  0
  -32.5424  -19.2773   21.3927 H   0  0  0  0  0  0
  -32.1795  -17.0195   20.0440 H   0  0  0  0  0  0
  -31.9923  -18.4535   19.1099 H   0  0  0  0  0  0
  -31.2889  -16.9584   18.5240 H   0  0  0  0  0  0
  -33.2049  -23.4957   16.9242 H   0  0  0  0  0  0
  -33.2491  -22.9488   15.2791 H   0  0  0  0  0  0
  -33.6956  -21.8486   16.5735 H   0  0  0  0  0  0
  -30.6194  -24.1154   16.7076 H   0  0  0  0  0  0
  -29.5315  -22.9342   16.0098 H   0  0  0  0  0  0
  -30.7745  -23.6789   15.0162 H   0  0  0  0  0  0
  -32.0389  -20.1763   15.5487 H   0  0  0  0  0  0
  -31.6695  -21.3813   14.3274 H   0  0  0  0  0  0
  -30.3707  -20.6564   15.2403 H   0  0  0  0  0  0
  -27.6166  -20.2845   20.0329 H   0  0  0  0  0  0
  -28.3989  -19.6124   21.4529 H   0  0  0  0  0  0
  -27.3505  -18.6210   20.4937 H   0  0  0  0  0  0
  -28.0507  -19.1647   17.7042 H   0  0  0  0  0  0
  -27.9382  -17.5935   18.4235 H   0  0  0  0  0  0
  -29.3776  -18.0187   17.5240 H   0  0  0  0  0  0
  -29.4892  -16.0430   23.1445 H   0  0  0  0  0  0
  -31.1456  -16.4990   22.7186 H   0  0  0  0  0  0
  -30.7619  -14.8307   23.1411 H   0  0  0  0  0  0
  -33.5138  -22.7681   19.1138 H   0  0  0  0  0  0
  -32.7210  -22.8449   20.6415 H   0  0  0  0  0  0
  -32.0461  -24.6481   18.2763 H   0  0  0  0  0  0
  -33.0209  -25.0397   19.6455 H   0  0  0  0  0  0
  -31.0071  -24.7500   21.1452 H   0  0  0  0  0  0
  -30.0287  -24.4535   19.7215 H   0  0  0  0  0  0
  -30.7385  -26.6953   18.7915 H   0  0  0  0  0  0
  -31.7096  -26.9657   20.2086 H   0  0  0  0  0  0
  -31.0032  -21.9336   21.7525 H   0  0  0  0  0  0
  -30.2878  -20.3674   21.7817 H   0  0  0  0  0  0
  -29.0244  -16.0679   19.5499 H   0  0  0  0  0  0
  -28.4682  -16.7185   21.0594 H   0  0  0  0  0  0
  -29.7461  -28.2384   20.3904 H   0  0  0  0  0  0
  -29.6285  -26.9931   21.6332 H   0  0  0  0  0  0
  -30.4569  -18.2078   21.1638 H   0  0  0  0  0  0
  -29.8212  -20.1638   17.1064 H   0  0  0  0  0  0
  1 25  1  0  0  0
  1 30  2  0  0  0
  1 94  1  0  0  0
  2  3  1  0  0  0
  2 25  1  0  0  0
  2 95  1  0  0  0
  2 96  1  0  0  0
  3  4  1  0  0  0
  3 97  1  0  0  0
  3 98  1  0  0  0
  4  5  1  0  0  0
  4 99  1  0  0  0
  4100  1  0  0  0
  5  6  1  0  0  0
  5 26  1  0  0  0
  5101  1  0  0  0
  6 25  1  0  0  0
  6102  1  0  0  0
  6103  1  0  0  0
  7  8  2  0  0  0
  7 26  1  0  0  0
  7 29  1  0  0  0
  8  9  1  0  0  0
  8 22  1  0  0  0
  9 10  1  0  0  0
  9 27  2  0  0  0
 10 11  2  0  0  0
 10 15  1  0  0  0
 11 12  1  0  0  0
 11104  1  0  0  0
 12 13  2  0  0  0
 12105  1  0  0  0
 13 14  1  0  0  0
 13 31  1  0  0  0
 14 15  2  0  0  0
 14106  1  0  0  0
 15107  1  0  0  0
 16 17  2  0  0  0
 16 21  1  0  0  0
 16 31  1  0  0  0
 17 18  1  0  0  0
 17108  1  0  0  0
 18 19  2  0  0  0
 18109  1  0  0  0
 19 20  1  0  0  0
 19 24  1  0  0  0
 20 21  2  0  0  0
 20110  1  0  0  0
 21 23  1  0  0  0
 22 28  1  0  0  0
 22 32  2  0  0  0
 26 27  1  0  0  0
 28111  1  0  0  0
 28112  1  0  0  0
 29113  1  0  0  0
 29114  1  0  0  0
 33 34  1  0  0  0
 33 66  1  0  0  0
 33 70  2  0  0  0
 34 36  1  0  0  0
 34 59  1  0  0  0
 34115  1  0  0  0
 35 44  2  0  0  0
 35 45  1  0  0  0
 35 68  1  0  0  0
 36 56  1  0  0  0
 36116  1  0  0  0
 37 39  1  0  0  0
 37 47  1  0  0  0
 37 66  1  0  0  0
 37117  1  0  0  0
 38 43  2  0  0  0
 38 46  1  0  0  0
 38 47  1  0  0  0
 39 64  1  0  0  0
 39 67  2  0  0  0
 40 52  1  0  0  0
 40 53  2  0  0  0
 40 58  1  0  0  0
 41118  1  0  0  0
 41119  1  0  0  0
 41120  1  0  0  0
 41 48  1  0  0  0
 42 43  1  0  0  0
 42 66  1  0  0  0
 42121  1  0  0  0
 42122  1  0  0  0
 43 44  1  0  0  0
 44123  1  0  0  0
 45 46  2  0  0  0
 45124  1  0  0  0
 46125  1  0  0  0
 47126  1  0  0  0
 47127  1  0  0  0
 48 56  1  0  0  0
 48 65  1  0  0  0
 48128  1  0  0  0
 49 50  1  0  0  0
 49 53  1  0  0  0
 49 64  1  0  0  0
 49129  1  0  0  0
 50 51  1  0  0  0
 50130  1  0  0  0
 50131  1  0  0  0
 51 52  1  0  0  0
 51132  1  0  0  0
 51133  1  0  0  0
 52134  1  0  0  0
 52135  1  0  0  0
 53 54  1  0  0  0
 54 55  2  0  0  0
 54136  1  0  0  0
 55 57  1  0  0  0
 55137  1  0  0  0
 56 69  2  0  0  0
 57 58  2  0  0  0
 57138  1  0  0  0
 58139  1  0  0  0
 59 60  1  0  0  0
 59 61  1  0  0  0
 59 62  1  0  0  0
 60140  1  0  0  0
 60141  1  0  0  0
 60142  1  0  0  0
 61143  1  0  0  0
 61144  1  0  0  0
 61145  1  0  0  0
 62146  1  0  0  0
 62147  1  0  0  0
 62148  1  0  0  0
 63 65  1  0  0  0
 63149  1  0  0  0
 63150  1  0  0  0
 63151  1  0  0  0
 64152  1  0  0  0
 65153  1  0  0  0
 68 88  1  0  0  0
 71 72  2  0  0  0
 71 82  1  0  0  0
 71 92  1  0  0  0
 72 90  1  0  0  0
 72 93  1  0  0  0
 73 91  1  0  0  0
 73 92  1  0  0  0
 73 93  2  0  0  0
 74 86  1  0  0  0
 74154  1  0  0  0
 74155  1  0  0  0
 74156  1  0  0  0
 75157  1  0  0  0
 75158  1  0  0  0
 75159  1  0  0  0
 75 89  1  0  0  0
 76160  1  0  0  0
 76161  1  0  0  0
 76162  1  0  0  0
 76 90  1  0  0  0
 77 90  1  0  0  0
 77163  1  0  0  0
 77164  1  0  0  0
 77165  1  0  0  0
 78 90  1  0  0  0
 78166  1  0  0  0
 78167  1  0  0  0
 78168  1  0  0  0
 79169  1  0  0  0
 79170  1  0  0  0
 79171  1  0  0  0
 79 91  1  0  0  0
 80 91  1  0  0  0
 80172  1  0  0  0
 80173  1  0  0  0
 80174  1  0  0  0
 81 94  1  0  0  0
 81175  1  0  0  0
 81176  1  0  0  0
 81177  1  0  0  0
 82 83  1  0  0  0
 82178  1  0  0  0
 82179  1  0  0  0
 83 84  1  0  0  0
 83180  1  0  0  0
 83181  1  0  0  0
 84 85  1  0  0  0
 84182  1  0  0  0
 84183  1  0  0  0
 85 88  1  0  0  0
 85184  1  0  0  0
 85185  1  0  0  0
 86 92  1  0  0  0
 86186  1  0  0  0
 86187  1  0  0  0
 87 89  1  0  0  0
 87 94  1  0  0  0
 87188  1  0  0  0
 87189  1  0  0  0
 88190  1  0  0  0
 88191  1  0  0  0
 89 91  1  0  0  0
 89192  1  0  0  0
 93193  1  0  0  0
M  CHG  1  93   1
M  ISO  4   1 100  68 101  88 101  94 100
M  END
> <chiral flag>
0

> <version>
0

> <s_m_source_file>
/data/baiqing/PycharmProjects/Reinvent-master-3.2/result/LINK_invent/BTK/process_docking_weight1_custom_sum_contain_oxygen_bond_distance_aromatic_linkinvent_7_9_3/rearranged_h_0066.sdf

> <i_m_source_file_index>
35

> <r_mmod_Potential_Energy-OPLS-2005>
149.327362060547

> <r_mmod_Stretch_Energy-OPLS-2005>
46.6223754882812

> <r_mmod_Bend_Energy-OPLS-2005>
133.713043212891

> <r_mmod_Torsional_Energy-OPLS-2005>
357.114715576172

> <r_mmod_Improper_Torsional_Energy-OPLS-2005>
3.22714042663574

> <r_mmod_Van_der_Waal_Energy-OPLS-2005>
140.090469360352

> <r_mmod_Electrostatic_Energy-OPLS-2005>
-192.127532958984

> <r_mmod_Solvation_Energy-OPLS-2005>
-348.514617919922

> <b_mmod_Minimization_Converged-OPLS-2005>
0

> <r_mmod_RMS_Derivative-OPLS-2005>
1.51288044452667

$$$$
36
                    3D
 Structure written by MMmdl.
165173  0  0  1  0            999 V2000
  -30.6754  -14.5238   20.5247 C   0  0  0  0  0  0
  -30.4257  -12.3158   19.4559 C   0  0  0  0  0  0
  -29.5117  -12.5043   18.2252 C   0  0  0  0  0  0
  -28.0277  -12.3652   18.6216 C   0  0  0  0  0  0
  -27.6601  -13.2079   19.8727 C   0  0  2  0  0  0
  -28.6998  -13.0189   21.0037 C   0  0  0  0  0  0
  -25.2578  -13.8154   20.5654 C   0  0  0  0  0  0
  -24.1834  -13.0433   20.9170 C   0  0  0  0  0  0
  -24.6392  -11.6896   20.8729 C   0  0  0  0  0  0
  -23.9047  -10.4294   21.0389 C   0  0  0  0  0  0
  -24.3611   -9.4227   21.9177 C   0  0  0  0  0  0
  -23.6294   -8.2261   22.0757 C   0  0  0  0  0  0
  -22.4286   -8.0284   21.3541 C   0  0  0  0  0  0
  -21.9905   -9.0250   20.4651 C   0  0  0  0  0  0
  -22.7214  -10.2137   20.3049 C   0  0  0  0  0  0
  -21.6861   -6.0739   22.5277 C   0  0  0  0  0  0
  -21.4018   -6.5634   23.8215 C   0  0  0  0  0  0
  -21.3659   -5.6785   24.9171 C   0  0  0  0  0  0
  -21.6046   -4.3048   24.7222 C   0  0  0  0  0  0
  -21.8812   -3.8140   23.4342 C   0  0  0  0  0  0
  -21.9192   -4.6964   22.3399 C   0  0  0  0  0  0
  -22.7854  -13.5244   21.1794 C   0  0  0  0  0  0
  -22.1656   -4.2147   21.0981 F   0  0  0  0  0  0
  -21.5637   -3.4534   25.7736 F   0  0  0  0  0  0
  -30.0313  -13.3233   20.4553 N   0  0  0  0  0  0
  -26.3017  -12.9316   20.3333 N   0  0  0  0  0  0
  -25.9324  -11.6485   20.5768 N   0  0  0  0  0  0
  -22.0455  -12.8311   22.0381 N   0  0  0  0  0  0
  -25.4273  -15.1870   20.4044 N   0  0  0  0  0  0
  -31.8223  -14.6697   20.0944 O   0  0  0  0  0  0
  -21.6636   -6.8887   21.4244 O   0  0  0  0  0  0
  -22.3551  -14.5526   20.6590 O   0  0  0  0  0  0
  -24.6147  -31.8646   23.2104 C   0  0  0  0  0  0
  -25.9032  -32.4816   23.8414 C   0  0  1  0  0  0
  -27.2461  -27.4236   20.1079 C   0  0  0  0  0  0
  -25.5885  -33.8618   24.2349 N   0  0  0  0  0  0
  -23.4080  -30.4848   21.5492 C   0  0  2  0  0  0
  -24.8591  -28.9428   20.1230 C   0  0  0  0  0  0
  -22.7434  -29.4617   22.4982 C   0  0  0  0  0  0
  -18.0270  -28.1399   22.8495 C   0  0  0  0  0  0
  -24.1478  -36.7309   23.2639 C   0  0  0  0  0  0
  -25.9360  -30.8278   21.3652 C   0  0  0  0  0  0
  -26.0163  -29.4557   20.7232 C   0  0  0  0  0  0
  -27.2148  -28.7019   20.7150 C   0  0  0  0  0  0
  -26.0744  -26.9248   19.5054 C   0  0  0  0  0  0
  -24.8828  -27.6760   19.5126 C   0  0  0  0  0  0
  -23.6220  -29.8119   20.1660 C   0  0  0  0  0  0
  -25.4102  -36.3111   24.0339 C   0  0  1  0  0  0
  -20.5869  -28.3673   23.1333 C   0  0  2  0  0  0
  -20.6768  -26.9407   22.5429 C   0  0  0  0  0  0
  -19.5741  -26.6398   21.5228 C   0  0  0  0  0  0
  -18.1917  -26.7939   22.1629 C   0  0  0  0  0  0
  -19.1524  -28.8848   23.2909 C   0  0  0  0  0  0
  -18.9438  -30.1460   23.8913 C   0  0  0  0  0  0
  -17.6440  -30.6589   24.0573 C   0  0  0  0  0  0
  -25.9031  -34.9470   23.5143 C   0  0  0  0  0  0
  -16.5335  -29.9094   23.6330 C   0  0  0  0  0  0
  -16.7255  -28.6520   23.0335 C   0  0  0  0  0  0
  -26.4489  -31.6580   25.0721 C   0  0  0  0  0  0
  -25.3770  -31.3647   26.1475 C   0  0  0  0  0  0
  -27.0314  -30.3027   24.6066 C   0  0  0  0  0  0
  -27.6093  -32.4290   25.7463 C   0  0  0  0  0  0
  -27.5580  -37.1805   24.8469 C   0  0  0  0  0  0
  -21.4154  -29.3024   22.3735 N   0  0  0  0  0  0
  -26.4287  -37.3796   23.9417 N   0  0  0  0  0  0
  -24.6711  -31.0736   22.1010 N   0  0  0  0  0  0
  -23.4199  -28.8148   23.3031 O   0  0  0  0  0  0
  -28.4121  -26.6953   20.0255 O   0  0  0  0  0  0
  -26.5582  -34.8919   22.4708 O   0  0  0  0  0  0
  -23.5331  -32.1393   23.7469 O   0  0  0  0  0  0
  -28.1218  -21.0741   20.2922 C   0  0  0  0  0  0
  -29.7744  -20.6438   21.6457 C   0  0  0  0  0  0
  -29.0653  -21.7118   21.1430 C   0  0  0  0  0  0
  -28.2930  -17.5511   22.3824 C   0  0  0  0  0  0
  -30.7074  -18.0122   22.5771 C   0  0  0  0  0  0
  -31.1580  -17.4411   19.6683 C   0  0  0  0  0  0
  -28.7772  -16.9705   19.2731 C   0  0  0  0  0  0
  -29.2138  -23.1992   21.4861 C   0  0  0  0  0  0
  -28.5933  -24.2316   20.4958 C   0  0  0  0  0  0
  -28.6292  -25.6943   21.0323 C   0  0  0  0  0  0
  -29.5240  -18.0258   21.5724 C   0  0  0  0  0  0
  -29.8558  -16.9959   20.3851 C   0  0  0  0  0  0
  -28.2070  -19.7486   20.3341 N   0  0  0  0  0  0
  -29.2446  -19.4466   21.1590 N   0  0  0  0  0  0
  -29.8954  -15.5764   20.8780 N   0  0  0  0  0  0
  -31.4761  -12.3977   19.1691 H   0  0  0  0  0  0
  -30.3097  -11.3121   19.8686 H   0  0  0  0  0  0
  -29.7645  -11.7745   17.4562 H   0  0  0  0  0  0
  -29.6883  -13.4888   17.7844 H   0  0  0  0  0  0
  -27.8357  -11.3088   18.8154 H   0  0  0  0  0  0
  -27.3864  -12.6375   17.7823 H   0  0  0  0  0  0
  -27.6924  -14.2507   19.5606 H   0  0  0  0  0  0
  -28.6824  -11.9916   21.3690 H   0  0  0  0  0  0
  -28.4583  -13.6433   21.8642 H   0  0  0  0  0  0
  -25.2763   -9.5714   22.4745 H   0  0  0  0  0  0
  -24.0005   -7.4665   22.7489 H   0  0  0  0  0  0
  -21.0822   -8.8757   19.8973 H   0  0  0  0  0  0
  -22.3657  -10.9675   19.6154 H   0  0  0  0  0  0
  -21.2019   -7.6145   23.9722 H   0  0  0  0  0  0
  -21.1487   -6.0514   25.9079 H   0  0  0  0  0  0
  -22.0597   -2.7603   23.2834 H   0  0  0  0  0  0
  -22.4036  -12.0013   22.4880 H   0  0  0  0  0  0
  -21.1061  -13.1369   22.2488 H   0  0  0  0  0  0
  -24.6528  -15.8343   20.4979 H   0  0  0  0  0  0
  -26.2725  -15.6291   20.0690 H   0  0  0  0  0  0
  -26.7097  -32.5528   23.1182 H   0  0  0  0  0  0
  -25.0055  -33.9802   25.0507 H   0  0  0  0  0  0
  -22.6951  -31.2989   21.4036 H   0  0  0  0  0  0
  -23.3741  -35.9638   23.3311 H   0  0  0  0  0  0
  -24.3577  -36.8921   22.2051 H   0  0  0  0  0  0
  -23.7224  -37.6516   23.6650 H   0  0  0  0  0  0
  -26.0407  -31.5865   20.5884 H   0  0  0  0  0  0
  -26.8274  -30.8954   21.9769 H   0  0  0  0  0  0
  -28.1141  -29.0962   21.1668 H   0  0  0  0  0  0
  -26.0899  -25.9610   19.0179 H   0  0  0  0  0  0
  -23.9953  -27.2795   19.0384 H   0  0  0  0  0  0
  -23.7377  -30.5831   19.4041 H   0  0  0  0  0  0
  -22.7487  -29.2302   19.8636 H   0  0  0  0  0  0
  -25.1276  -36.1983   25.0826 H   0  0  0  0  0  0
  -20.9959  -28.3228   24.1463 H   0  0  0  0  0  0
  -20.5675  -26.2271   23.3615 H   0  0  0  0  0  0
  -21.6632  -26.7430   22.1220 H   0  0  0  0  0  0
  -19.6887  -25.6313   21.1233 H   0  0  0  0  0  0
  -19.6695  -27.3222   20.6779 H   0  0  0  0  0  0
  -17.4193  -26.6699   21.4027 H   0  0  0  0  0  0
  -18.0304  -26.0093   22.9032 H   0  0  0  0  0  0
  -19.7909  -30.7289   24.2279 H   0  0  0  0  0  0
  -17.4992  -31.6271   24.5182 H   0  0  0  0  0  0
  -15.5337  -30.3003   23.7666 H   0  0  0  0  0  0
  -15.8656  -28.0857   22.7019 H   0  0  0  0  0  0
  -24.5981  -30.6949   25.7819 H   0  0  0  0  0  0
  -24.8903  -32.2761   26.4939 H   0  0  0  0  0  0
  -25.8149  -30.8820   27.0217 H   0  0  0  0  0  0
  -26.2823  -29.6777   24.1181 H   0  0  0  0  0  0
  -27.4172  -29.7277   25.4496 H   0  0  0  0  0  0
  -27.8633  -30.4379   23.9153 H   0  0  0  0  0  0
  -27.2762  -33.3603   26.2059 H   0  0  0  0  0  0
  -28.3888  -32.6820   25.0262 H   0  0  0  0  0  0
  -28.0771  -31.8374   26.5344 H   0  0  0  0  0  0
  -28.2611  -38.0091   24.7522 H   0  0  0  0  0  0
  -28.1063  -36.2626   24.6292 H   0  0  0  0  0  0
  -27.2292  -37.1453   25.8871 H   0  0  0  0  0  0
  -20.9319  -29.8740   21.6944 H   0  0  0  0  0  0
  -26.0174  -38.2871   24.1434 H   0  0  0  0  0  0
  -27.3463  -21.5269   19.6899 H   0  0  0  0  0  0
  -30.5857  -20.6473   22.3607 H   0  0  0  0  0  0
  -28.4557  -16.5869   22.8617 H   0  0  0  0  0  0
  -27.3994  -17.4733   21.7679 H   0  0  0  0  0  0
  -28.0603  -18.2594   23.1784 H   0  0  0  0  0  0
  -30.9820  -16.9995   22.8687 H   0  0  0  0  0  0
  -30.4641  -18.5466   23.4955 H   0  0  0  0  0  0
  -31.6034  -18.4782   22.1699 H   0  0  0  0  0  0
  -31.0989  -18.4870   19.3634 H   0  0  0  0  0  0
  -31.3370  -16.8670   18.7582 H   0  0  0  0  0  0
  -32.0442  -17.3306   20.2933 H   0  0  0  0  0  0
  -28.7524  -17.8961   18.7005 H   0  0  0  0  0  0
  -27.7762  -16.8006   19.6635 H   0  0  0  0  0  0
  -28.9761  -16.1817   18.5455 H   0  0  0  0  0  0
  -30.2711  -23.4444   21.6067 H   0  0  0  0  0  0
  -28.7741  -23.3847   22.4678 H   0  0  0  0  0  0
  -27.5594  -23.9701   20.2698 H   0  0  0  0  0  0
  -29.1379  -24.1821   19.5530 H   0  0  0  0  0  0
  -29.6213  -25.8933   21.4389 H   0  0  0  0  0  0
  -27.9402  -25.8119   21.8708 H   0  0  0  0  0  0
  -29.0390  -15.2852   21.3249 H   0  0  0  0  0  0
  1 25  1  0  0  0
  1 30  2  0  0  0
  1 85  1  0  0  0
  2  3  1  0  0  0
  2 25  1  0  0  0
  2 86  1  0  0  0
  2 87  1  0  0  0
  3  4  1  0  0  0
  3 88  1  0  0  0
  3 89  1  0  0  0
  4  5  1  0  0  0
  4 90  1  0  0  0
  4 91  1  0  0  0
  5  6  1  0  0  0
  5 26  1  0  0  0
  5 92  1  0  0  0
  6 25  1  0  0  0
  6 93  1  0  0  0
  6 94  1  0  0  0
  7  8  2  0  0  0
  7 26  1  0  0  0
  7 29  1  0  0  0
  8  9  1  0  0  0
  8 22  1  0  0  0
  9 10  1  0  0  0
  9 27  2  0  0  0
 10 11  2  0  0  0
 10 15  1  0  0  0
 11 12  1  0  0  0
 11 95  1  0  0  0
 12 13  2  0  0  0
 12 96  1  0  0  0
 13 14  1  0  0  0
 13 31  1  0  0  0
 14 15  2  0  0  0
 14 97  1  0  0  0
 15 98  1  0  0  0
 16 17  2  0  0  0
 16 21  1  0  0  0
 16 31  1  0  0  0
 17 18  1  0  0  0
 17 99  1  0  0  0
 18 19  2  0  0  0
 18100  1  0  0  0
 19 20  1  0  0  0
 19 24  1  0  0  0
 20 21  2  0  0  0
 20101  1  0  0  0
 21 23  1  0  0  0
 22 28  1  0  0  0
 22 32  2  0  0  0
 26 27  1  0  0  0
 28102  1  0  0  0
 28103  1  0  0  0
 29104  1  0  0  0
 29105  1  0  0  0
 33 34  1  0  0  0
 33 66  1  0  0  0
 33 70  2  0  0  0
 34 36  1  0  0  0
 34 59  1  0  0  0
 34106  1  0  0  0
 35 44  2  0  0  0
 35 45  1  0  0  0
 35 68  1  0  0  0
 36 56  1  0  0  0
 36107  1  0  0  0
 37 39  1  0  0  0
 37 47  1  0  0  0
 37 66  1  0  0  0
 37108  1  0  0  0
 38 43  2  0  0  0
 38 46  1  0  0  0
 38 47  1  0  0  0
 39 64  1  0  0  0
 39 67  2  0  0  0
 40 52  1  0  0  0
 40 53  2  0  0  0
 40 58  1  0  0  0
 41109  1  0  0  0
 41110  1  0  0  0
 41111  1  0  0  0
 41 48  1  0  0  0
 42 43  1  0  0  0
 42 66  1  0  0  0
 42112  1  0  0  0
 42113  1  0  0  0
 43 44  1  0  0  0
 44114  1  0  0  0
 45 46  2  0  0  0
 45115  1  0  0  0
 46116  1  0  0  0
 47117  1  0  0  0
 47118  1  0  0  0
 48 56  1  0  0  0
 48 65  1  0  0  0
 48119  1  0  0  0
 49 50  1  0  0  0
 49 53  1  0  0  0
 49 64  1  0  0  0
 49120  1  0  0  0
 50 51  1  0  0  0
 50121  1  0  0  0
 50122  1  0  0  0
 51 52  1  0  0  0
 51123  1  0  0  0
 51124  1  0  0  0
 52125  1  0  0  0
 52126  1  0  0  0
 53 54  1  0  0  0
 54 55  2  0  0  0
 54127  1  0  0  0
 55 57  1  0  0  0
 55128  1  0  0  0
 56 69  2  0  0  0
 57 58  2  0  0  0
 57129  1  0  0  0
 58130  1  0  0  0
 59 60  1  0  0  0
 59 61  1  0  0  0
 59 62  1  0  0  0
 60131  1  0  0  0
 60132  1  0  0  0
 60133  1  0  0  0
 61134  1  0  0  0
 61135  1  0  0  0
 61136  1  0  0  0
 62137  1  0  0  0
 62138  1  0  0  0
 62139  1  0  0  0
 63 65  1  0  0  0
 63140  1  0  0  0
 63141  1  0  0  0
 63142  1  0  0  0
 64143  1  0  0  0
 65144  1  0  0  0
 68 80  1  0  0  0
 71 73  1  0  0  0
 71 83  2  0  0  0
 71145  1  0  0  0
 72 73  2  0  0  0
 72 84  1  0  0  0
 72146  1  0  0  0
 73 78  1  0  0  0
 74147  1  0  0  0
 74148  1  0  0  0
 74149  1  0  0  0
 74 81  1  0  0  0
 75 81  1  0  0  0
 75150  1  0  0  0
 75151  1  0  0  0
 75152  1  0  0  0
 76153  1  0  0  0
 76154  1  0  0  0
 76155  1  0  0  0
 76 82  1  0  0  0
 77 82  1  0  0  0
 77156  1  0  0  0
 77157  1  0  0  0
 77158  1  0  0  0
 78 79  1  0  0  0
 78159  1  0  0  0
 78160  1  0  0  0
 79 80  1  0  0  0
 79161  1  0  0  0
 79162  1  0  0  0
 80163  1  0  0  0
 80164  1  0  0  0
 81 82  1  0  0  0
 81 84  1  0  0  0
 82 85  1  0  0  0
 83 84  1  0  0  0
 85165  1  0  0  0
M  ISO  4   1 100  68 101  80 101  85 100
M  END
> <chiral flag>
0

> <version>
0

> <s_m_source_file>
/data/baiqing/PycharmProjects/Reinvent-master-3.2/result/LINK_invent/BTK/process_docking_weight1_custom_sum_contain_oxygen_bond_distance_aromatic_linkinvent_7_9_3/rearranged_h_0066.sdf

> <i_m_source_file_index>
36

> <r_mmod_Potential_Energy-OPLS-2005>
21.3455429077148

> <r_mmod_Stretch_Energy-OPLS-2005>
55.0361862182617

> <r_mmod_Bend_Energy-OPLS-2005>
124.684051513672

> <r_mmod_Torsional_Energy-OPLS-2005>
284.173278808594

> <r_mmod_Improper_Torsional_Energy-OPLS-2005>
7.70355987548828

> <r_mmod_Van_der_Waal_Energy-OPLS-2005>
130.532440185547

> <r_mmod_Electrostatic_Energy-OPLS-2005>
-396.048889160156

> <r_mmod_Solvation_Energy-OPLS-2005>
-201.183456420898

> <b_mmod_Minimization_Converged-OPLS-2005>
0

> <r_mmod_RMS_Derivative-OPLS-2005>
2.78777551651001

$$$$
38
                    3D
 Structure written by MMmdl.
175183  0  0  1  0            999 V2000
  -30.6203  -14.6934   20.6111 C   0  0  0  0  0  0
  -30.4021  -12.4408   19.5189 C   0  0  0  0  0  0
  -29.5277  -12.5356   18.2456 C   0  0  0  0  0  0
  -28.0502  -12.3055   18.6133 C   0  0  0  0  0  0
  -27.6209  -13.2134   19.7879 C   0  0  2  0  0  0
  -28.6098  -13.1887   20.9525 C   0  0  0  0  0  0
  -25.2462  -13.8171   20.5265 C   0  0  0  0  0  0
  -24.1785  -13.0409   20.9041 C   0  0  0  0  0  0
  -24.6367  -11.6903   20.8617 C   0  0  0  0  0  0
  -23.9078  -10.4278   21.0400 C   0  0  0  0  0  0
  -24.3676   -9.4212   21.9205 C   0  0  0  0  0  0
  -23.6365   -8.2236   22.0794 C   0  0  0  0  0  0
  -22.4345   -8.0263   21.3564 C   0  0  0  0  0  0
  -21.9914   -9.0205   20.4690 C   0  0  0  0  0  0
  -22.7224  -10.2074   20.3068 C   0  0  0  0  0  0
  -21.6877   -6.0712   22.5254 C   0  0  0  0  0  0
  -21.4053   -6.5661   23.8181 C   0  0  0  0  0  0
  -21.3652   -5.6831   24.9170 C   0  0  0  0  0  0
  -21.5981   -4.3086   24.7239 C   0  0  0  0  0  0
  -21.8867   -3.8125   23.4385 C   0  0  0  0  0  0
  -21.9262   -4.6955   22.3427 C   0  0  0  0  0  0
  -22.7861  -13.5237   21.1936 C   0  0  0  0  0  0
  -22.1750   -4.2124   21.0999 F   0  0  0  0  0  0
  -21.5589   -3.4557   25.7743 F   0  0  0  0  0  0
  -29.9509  -13.4973   20.4734 N   0  0  0  0  0  0
  -26.2779  -12.9278   20.2714 N   0  0  0  0  0  0
  -25.9257  -11.6484   20.5502 N   0  0  0  0  0  0
  -22.0631  -12.8087   22.0508 N   0  0  0  0  0  0
  -25.4072  -15.1915   20.3651 N   0  0  0  0  0  0
  -31.7945  -14.7471   20.2199 O   0  0  0  0  0  0
  -21.6715   -6.8876   21.4223 O   0  0  0  0  0  0
  -22.3412  -14.5518   20.6864 O   0  0  0  0  0  0
  -24.6251  -31.8574   23.2032 C   0  0  0  0  0  0
  -25.9111  -32.4832   23.8355 C   0  0  1  0  0  0
  -27.2220  -27.3117   20.0949 C   0  0  0  0  0  0
  -25.5954  -33.8640   24.2308 N   0  0  0  0  0  0
  -23.4212  -30.4852   21.5478 C   0  0  2  0  0  0
  -24.8609  -28.9419   20.1167 C   0  0  0  0  0  0
  -22.7425  -29.4557   22.4807 C   0  0  0  0  0  0
  -18.0191  -28.1412   22.8451 C   0  0  0  0  0  0
  -24.1502  -36.7315   23.2633 C   0  0  0  0  0  0
  -25.9669  -30.7903   21.3781 C   0  0  0  0  0  0
  -26.0339  -29.4183   20.7087 C   0  0  0  0  0  0
  -27.2181  -28.6176   20.6794 C   0  0  0  0  0  0
  -26.0009  -26.8742   19.5144 C   0  0  0  0  0  0
  -24.8426  -27.6777   19.5128 C   0  0  0  0  0  0
  -23.6428  -29.8382   20.1582 C   0  0  0  0  0  0
  -25.4135  -36.3112   24.0346 C   0  0  1  0  0  0
  -20.5891  -28.3384   23.1112 C   0  0  2  0  0  0
  -20.6627  -26.9121   22.5122 C   0  0  0  0  0  0
  -19.5333  -26.6171   21.5137 C   0  0  0  0  0  0
  -18.1674  -26.7852   22.1774 C   0  0  0  0  0  0
  -19.1565  -28.8675   23.2883 C   0  0  0  0  0  0
  -18.9661  -30.1229   23.9037 C   0  0  0  0  0  0
  -17.6710  -30.6367   24.0955 C   0  0  0  0  0  0
  -25.9089  -34.9470   23.5110 C   0  0  0  0  0  0
  -16.5519  -29.9152   23.6629 C   0  0  0  0  0  0
  -16.7254  -28.6699   23.0343 C   0  0  0  0  0  0
  -26.4489  -31.6627   25.0716 C   0  0  0  0  0  0
  -25.3723  -31.3737   26.1454 C   0  0  0  0  0  0
  -27.0316  -30.3021   24.6279 C   0  0  0  0  0  0
  -27.6029  -32.4333   25.7510 C   0  0  0  0  0  0
  -27.5598  -37.1825   24.8460 C   0  0  0  0  0  0
  -21.4186  -29.2788   22.3506 N   0  0  0  0  0  0
  -26.4273  -37.3797   23.9472 N   0  0  0  0  0  0
  -24.6891  -31.0561   22.1044 N   0  0  0  0  0  0
  -23.4130  -28.8092   23.2899 O   0  0  0  0  0  0
  -28.3684  -26.4953   20.1428 O   0  0  0  0  0  0
  -26.5607  -34.8847   22.4676 O   0  0  0  0  0  0
  -23.5407  -32.1368   23.7370 O   0  0  0  0  0  0
  -29.9587  -18.3811   20.5918 C   0  0  0  0  0  0
  -30.1591  -17.1681   19.9325 C   0  0  0  0  0  0
  -29.5483  -16.7016   22.0381 C   0  0  0  0  0  0
  -30.5384  -16.9477   18.4866 C   0  0  0  0  0  0
  -28.9430  -14.7967   23.8252 C   0  0  0  0  0  0
  -26.8096  -17.2549   22.9491 C   0  0  0  0  0  0
  -27.1497  -16.4686   25.2714 C   0  0  0  0  0  0
  -28.1957  -18.5830   24.5637 C   0  0  0  0  0  0
  -30.2698  -19.8683   20.2412 C   0  0  0  0  0  0
  -29.1767  -21.0254   20.4196 C   0  0  0  0  0  0
  -29.6742  -22.5369   20.1825 C   0  0  0  0  0  0
  -28.6768  -23.8118   20.3544 C   0  0  0  0  0  0
  -28.4562  -25.1614   19.4854 C   0  0  0  0  0  0
  -29.1557  -16.2953   23.5047 C   0  0  2  0  0  0
  -27.8763  -17.1308   24.0585 C   0  0  0  0  0  0
  -29.6138  -18.0382   21.8829 N   0  0  0  0  0  0
  -30.0147  -16.0879   20.8750 N   0  0  0  0  0  0
  -30.3691  -16.7471   24.1963 N   0  3  0  0  0  0
  -31.4607  -12.5204   19.2599 H   0  0  0  0  0  0
  -30.2779  -11.4565   19.9736 H   0  0  0  0  0  0
  -29.8453  -11.8060   17.5018 H   0  0  0  0  0  0
  -29.6466  -13.5172   17.7817 H   0  0  0  0  0  0
  -27.9345  -11.2544   18.8965 H   0  0  0  0  0  0
  -27.4019  -12.4541   17.7439 H   0  0  0  0  0  0
  -27.6199  -14.2301   19.3936 H   0  0  0  0  0  0
  -28.5886  -12.2501   21.5171 H   0  0  0  0  0  0
  -28.2568  -13.9874   21.5830 H   0  0  0  0  0  0
  -25.2855   -9.5690   22.4770 H   0  0  0  0  0  0
  -24.0067   -7.4670   22.7533 H   0  0  0  0  0  0
  -21.0821   -8.8697   19.9089 H   0  0  0  0  0  0
  -22.3671  -10.9600   19.6165 H   0  0  0  0  0  0
  -21.2049   -7.6161   23.9647 H   0  0  0  0  0  0
  -21.1426   -6.0603   25.9069 H   0  0  0  0  0  0
  -22.0661   -2.7593   23.2900 H   0  0  0  0  0  0
  -22.4269  -11.9580   22.4568 H   0  0  0  0  0  0
  -21.1321  -13.1025   22.3074 H   0  0  0  0  0  0
  -24.6151  -15.8238   20.4407 H   0  0  0  0  0  0
  -26.2425  -15.6680   20.0409 H   0  0  0  0  0  0
  -26.7143  -32.5368   23.1060 H   0  0  0  0  0  0
  -25.0112  -33.9928   25.0451 H   0  0  0  0  0  0
  -22.7216  -31.3118   21.4198 H   0  0  0  0  0  0
  -23.3763  -35.9636   23.3284 H   0  0  0  0  0  0
  -24.3550  -36.8942   22.2035 H   0  0  0  0  0  0
  -23.7216  -37.6498   23.6633 H   0  0  0  0  0  0
  -26.1086  -31.5519   20.6104 H   0  0  0  0  0  0
  -26.8476  -30.8236   22.0140 H   0  0  0  0  0  0
  -28.1268  -28.9861   21.1308 H   0  0  0  0  0  0
  -25.8723  -25.8942   19.0812 H   0  0  0  0  0  0
  -23.9343  -27.3132   19.0533 H   0  0  0  0  0  0
  -23.7741  -30.6282   19.4186 H   0  0  0  0  0  0
  -22.7535  -29.2994   19.8199 H   0  0  0  0  0  0
  -25.1279  -36.1984   25.0810 H   0  0  0  0  0  0
  -21.0151  -28.2598   24.1123 H   0  0  0  0  0  0
  -20.5716  -26.1959   23.3310 H   0  0  0  0  0  0
  -21.6413  -26.7069   22.0740 H   0  0  0  0  0  0
  -19.6183  -25.6076   21.1229 H   0  0  0  0  0  0
  -19.6045  -27.2864   20.6566 H   0  0  0  0  0  0
  -17.3852  -26.6371   21.4305 H   0  0  0  0  0  0
  -18.0112  -26.0236   22.9377 H   0  0  0  0  0  0
  -19.8179  -30.6774   24.2812 H   0  0  0  0  0  0
  -17.5363  -31.5814   24.6031 H   0  0  0  0  0  0
  -15.5591  -30.3136   23.8146 H   0  0  0  0  0  0
  -15.8591  -28.1252   22.6874 H   0  0  0  0  0  0
  -24.5884  -30.7144   25.7762 H   0  0  0  0  0  0
  -24.8964  -32.2871   26.4945 H   0  0  0  0  0  0
  -25.8013  -30.8835   27.0202 H   0  0  0  0  0  0
  -26.2906  -29.6877   24.1168 H   0  0  0  0  0  0
  -27.3766  -29.7212   25.4859 H   0  0  0  0  0  0
  -27.8867  -30.4284   23.9648 H   0  0  0  0  0  0
  -27.2619  -33.3546   26.2205 H   0  0  0  0  0  0
  -28.3728  -32.7043   25.0297 H   0  0  0  0  0  0
  -28.0786  -31.8420   26.5351 H   0  0  0  0  0  0
  -28.2569  -38.0136   24.7453 H   0  0  0  0  0  0
  -28.1073  -36.2670   24.6274 H   0  0  0  0  0  0
  -27.2284  -37.1436   25.8819 H   0  0  0  0  0  0
  -20.9468  -29.8324   21.6517 H   0  0  0  0  0  0
  -26.0173  -38.2870   24.1426 H   0  0  0  0  0  0
  -31.6041  -16.7786   18.3539 H   0  0  0  0  0  0
  -30.2633  -17.7905   17.8587 H   0  0  0  0  0  0
  -30.0203  -16.0807   18.0750 H   0  0  0  0  0  0
  -27.9402  -14.4522   23.5540 H   0  0  0  0  0  0
  -29.0255  -14.6231   24.9079 H   0  0  0  0  0  0
  -29.6711  -14.1391   23.3649 H   0  0  0  0  0  0
  -25.7973  -17.4072   23.3364 H   0  0  0  0  0  0
  -26.7684  -16.3491   22.3488 H   0  0  0  0  0  0
  -27.0220  -18.0814   22.2665 H   0  0  0  0  0  0
  -26.3281  -17.0929   25.6263 H   0  0  0  0  0  0
  -27.8096  -16.3216   26.1246 H   0  0  0  0  0  0
  -26.6914  -15.5104   25.0330 H   0  0  0  0  0  0
  -27.2948  -19.0673   24.9240 H   0  0  0  0  0  0
  -28.5884  -19.2448   23.7961 H   0  0  0  0  0  0
  -28.8919  -18.6103   25.4062 H   0  0  0  0  0  0
  -30.6710  -19.9346   19.2284 H   0  0  0  0  0  0
  -31.1073  -20.1670   20.8690 H   0  0  0  0  0  0
  -28.3227  -20.8037   19.7767 H   0  0  0  0  0  0
  -28.8060  -20.9605   21.4382 H   0  0  0  0  0  0
  -30.1382  -22.5761   19.1926 H   0  0  0  0  0  0
  -30.5184  -22.6465   20.8722 H   0  0  0  0  0  0
  -29.5946  -24.3592   20.5602 H   0  0  0  0  0  0
  -28.2608  -23.3256   19.4796 H   0  0  0  0  0  0
  -27.6309  -25.0201   18.7934 H   0  0  0  0  0  0
  -29.2940  -25.2554   18.7855 H   0  0  0  0  0  0
  -30.1399  -17.1242   25.0941 H   0  0  0  0  0  0
  -30.7472  -17.4959   23.6362 H   0  0  0  0  0  0
  -31.0326  -15.9994   24.2913 H   0  0  0  0  0  0
  1 25  1  0  0  0
  1 30  2  0  0  0
  1 87  1  0  0  0
  2  3  1  0  0  0
  2 25  1  0  0  0
  2 89  1  0  0  0
  2 90  1  0  0  0
  3  4  1  0  0  0
  3 91  1  0  0  0
  3 92  1  0  0  0
  4  5  1  0  0  0
  4 93  1  0  0  0
  4 94  1  0  0  0
  5  6  1  0  0  0
  5 26  1  0  0  0
  5 95  1  0  0  0
  6 25  1  0  0  0
  6 96  1  0  0  0
  6 97  1  0  0  0
  7  8  2  0  0  0
  7 26  1  0  0  0
  7 29  1  0  0  0
  8  9  1  0  0  0
  8 22  1  0  0  0
  9 10  1  0  0  0
  9 27  2  0  0  0
 10 11  2  0  0  0
 10 15  1  0  0  0
 11 12  1  0  0  0
 11 98  1  0  0  0
 12 13  2  0  0  0
 12 99  1  0  0  0
 13 14  1  0  0  0
 13 31  1  0  0  0
 14 15  2  0  0  0
 14100  1  0  0  0
 15101  1  0  0  0
 16 17  2  0  0  0
 16 21  1  0  0  0
 16 31  1  0  0  0
 17 18  1  0  0  0
 17102  1  0  0  0
 18 19  2  0  0  0
 18103  1  0  0  0
 19 20  1  0  0  0
 19 24  1  0  0  0
 20 21  2  0  0  0
 20104  1  0  0  0
 21 23  1  0  0  0
 22 28  1  0  0  0
 22 32  2  0  0  0
 26 27  1  0  0  0
 28105  1  0  0  0
 28106  1  0  0  0
 29107  1  0  0  0
 29108  1  0  0  0
 33 34  1  0  0  0
 33 66  1  0  0  0
 33 70  2  0  0  0
 34 36  1  0  0  0
 34 59  1  0  0  0
 34109  1  0  0  0
 35 44  2  0  0  0
 35 45  1  0  0  0
 35 68  1  0  0  0
 36 56  1  0  0  0
 36110  1  0  0  0
 37 39  1  0  0  0
 37 47  1  0  0  0
 37 66  1  0  0  0
 37111  1  0  0  0
 38 43  2  0  0  0
 38 46  1  0  0  0
 38 47  1  0  0  0
 39 64  1  0  0  0
 39 67  2  0  0  0
 40 52  1  0  0  0
 40 53  2  0  0  0
 40 58  1  0  0  0
 41112  1  0  0  0
 41113  1  0  0  0
 41114  1  0  0  0
 41 48  1  0  0  0
 42 43  1  0  0  0
 42 66  1  0  0  0
 42115  1  0  0  0
 42116  1  0  0  0
 43 44  1  0  0  0
 44117  1  0  0  0
 45 46  2  0  0  0
 45118  1  0  0  0
 46119  1  0  0  0
 47120  1  0  0  0
 47121  1  0  0  0
 48 56  1  0  0  0
 48 65  1  0  0  0
 48122  1  0  0  0
 49 50  1  0  0  0
 49 53  1  0  0  0
 49 64  1  0  0  0
 49123  1  0  0  0
 50 51  1  0  0  0
 50124  1  0  0  0
 50125  1  0  0  0
 51 52  1  0  0  0
 51126  1  0  0  0
 51127  1  0  0  0
 52128  1  0  0  0
 52129  1  0  0  0
 53 54  1  0  0  0
 54 55  2  0  0  0
 54130  1  0  0  0
 55 57  1  0  0  0
 55131  1  0  0  0
 56 69  2  0  0  0
 57 58  2  0  0  0
 57132  1  0  0  0
 58133  1  0  0  0
 59 60  1  0  0  0
 59 61  1  0  0  0
 59 62  1  0  0  0
 60134  1  0  0  0
 60135  1  0  0  0
 60136  1  0  0  0
 61137  1  0  0  0
 61138  1  0  0  0
 61139  1  0  0  0
 62140  1  0  0  0
 62141  1  0  0  0
 62142  1  0  0  0
 63 65  1  0  0  0
 63143  1  0  0  0
 63144  1  0  0  0
 63145  1  0  0  0
 64146  1  0  0  0
 65147  1  0  0  0
 68 83  1  0  0  0
 71 72  2  0  0  0
 71 79  1  0  0  0
 71 86  1  0  0  0
 72 74  1  0  0  0
 72 87  1  0  0  0
 73 84  1  0  0  0
 73 86  2  0  0  0
 73 87  1  0  0  0
 74148  1  0  0  0
 74149  1  0  0  0
 74150  1  0  0  0
 75151  1  0  0  0
 75152  1  0  0  0
 75153  1  0  0  0
 75 84  1  0  0  0
 76154  1  0  0  0
 76155  1  0  0  0
 76156  1  0  0  0
 76 85  1  0  0  0
 77 85  1  0  0  0
 77157  1  0  0  0
 77158  1  0  0  0
 77159  1  0  0  0
 78 85  1  0  0  0
 78160  1  0  0  0
 78161  1  0  0  0
 78162  1  0  0  0
 79 80  1  0  0  0
 79163  1  0  0  0
 79164  1  0  0  0
 80 81  1  0  0  0
 80165  1  0  0  0
 80166  1  0  0  0
 81 82  1  0  0  0
 81167  1  0  0  0
 81168  1  0  0  0
 82 83  1  0  0  0
 82169  1  0  0  0
 82170  1  0  0  0
 83171  1  0  0  0
 83172  1  0  0  0
 84 85  1  0  0  0
 84 88  1  0  0  0
 88173  1  0  0  0
 88174  1  0  0  0
 88175  1  0  0  0
M  CHG  1  88   1
M  ISO  4   1 100  68 101  83 101  87 100
M  END
> <chiral flag>
0

> <version>
0

> <s_m_source_file>
/data/baiqing/PycharmProjects/Reinvent-master-3.2/result/LINK_invent/BTK/process_docking_weight1_custom_sum_contain_oxygen_bond_distance_aromatic_linkinvent_7_9_3/rearranged_h_0066.sdf

> <i_m_source_file_index>
37

> <r_mmod_Potential_Energy-OPLS-2005>
377.308258056641

> <r_mmod_Stretch_Energy-OPLS-2005>
147.45491027832

> <r_mmod_Bend_Energy-OPLS-2005>
501.845794677734

> <r_mmod_Torsional_Energy-OPLS-2005>
290.898406982422

> <r_mmod_Improper_Torsional_Energy-OPLS-2005>
12.5276517868042

> <r_mmod_Van_der_Waal_Energy-OPLS-2005>
151.752548217773

> <r_mmod_Electrostatic_Energy-OPLS-2005>
-355.029907226562

> <r_mmod_Solvation_Energy-OPLS-2005>
-440.645294189453

> <b_mmod_Minimization_Converged-OPLS-2005>
0

> <r_mmod_RMS_Derivative-OPLS-2005>
13.0810871124268

$$$$
39
                    3D
 Structure written by MMmdl.
183191  0  0  1  0            999 V2000
  -30.7896  -14.5012   20.6337 C   0  0  0  0  0  0
  -30.4211  -12.3470   19.4654 C   0  0  0  0  0  0
  -29.5023  -12.5234   18.2389 C   0  0  0  0  0  0
  -28.0333  -12.3547   18.6531 C   0  0  0  0  0  0
  -27.6670  -13.2246   19.8821 C   0  0  2  0  0  0
  -28.7061  -13.0821   21.0224 C   0  0  0  0  0  0
  -25.2595  -13.8203   20.5691 C   0  0  0  0  0  0
  -24.1856  -13.0443   20.9162 C   0  0  0  0  0  0
  -24.6432  -11.6925   20.8705 C   0  0  0  0  0  0
  -23.9085  -10.4309   21.0382 C   0  0  0  0  0  0
  -24.3628   -9.4225   21.9173 C   0  0  0  0  0  0
  -23.6302   -8.2268   22.0757 C   0  0  0  0  0  0
  -22.4290   -8.0301   21.3537 C   0  0  0  0  0  0
  -21.9923   -9.0282   20.4634 C   0  0  0  0  0  0
  -22.7254  -10.2162   20.3046 C   0  0  0  0  0  0
  -21.6869   -6.0724   22.5265 C   0  0  0  0  0  0
  -21.4037   -6.5622   23.8197 C   0  0  0  0  0  0
  -21.3667   -5.6778   24.9163 C   0  0  0  0  0  0
  -21.6047   -4.3039   24.7223 C   0  0  0  0  0  0
  -21.8818   -3.8129   23.4340 C   0  0  0  0  0  0
  -21.9205   -4.6946   22.3398 C   0  0  0  0  0  0
  -22.7856  -13.5201   21.1829 C   0  0  0  0  0  0
  -22.1657   -4.2123   21.0979 F   0  0  0  0  0  0
  -21.5638   -3.4528   25.7742 F   0  0  0  0  0  0
  -30.0465  -13.3595   20.4785 N   0  0  0  0  0  0
  -26.3068  -12.9408   20.3422 N   0  0  0  0  0  0
  -25.9379  -11.6534   20.5773 N   0  0  0  0  0  0
  -22.0504  -12.8227   22.0411 N   0  0  0  0  0  0
  -25.4269  -15.1909   20.4087 N   0  0  0  0  0  0
  -31.8439  -14.6581   20.0178 O   0  0  0  0  0  0
  -21.6637   -6.8902   21.4247 O   0  0  0  0  0  0
  -22.3526  -14.5485   20.6644 O   0  0  0  0  0  0
  -24.6187  -31.8654   23.2128 C   0  0  0  0  0  0
  -25.9073  -32.4800   23.8400 C   0  0  1  0  0  0
  -27.2252  -27.3975   20.0644 C   0  0  0  0  0  0
  -25.5925  -33.8602   24.2332 N   0  0  0  0  0  0
  -23.4081  -30.4945   21.5521 C   0  0  2  0  0  0
  -24.8512  -28.9712   20.1044 C   0  0  0  0  0  0
  -22.7428  -29.4656   22.4962 C   0  0  0  0  0  0
  -18.0278  -28.1369   22.8498 C   0  0  0  0  0  0
  -24.1475  -36.7303   23.2637 C   0  0  0  0  0  0
  -25.9469  -30.8104   21.3818 C   0  0  0  0  0  0
  -26.0149  -29.4492   20.7155 C   0  0  0  0  0  0
  -27.1979  -28.6656   20.7046 C   0  0  0  0  0  0
  -26.0354  -26.9604   19.4466 C   0  0  0  0  0  0
  -24.8587  -27.7221   19.4686 C   0  0  0  0  0  0
  -23.6166  -29.8392   20.1626 C   0  0  0  0  0  0
  -25.4100  -36.3100   24.0334 C   0  0  1  0  0  0
  -20.5868  -28.3673   23.1299 C   0  0  2  0  0  0
  -20.6764  -26.9403   22.5413 C   0  0  0  0  0  0
  -19.5742  -26.6381   21.5214 C   0  0  0  0  0  0
  -18.1926  -26.7916   22.1627 C   0  0  0  0  0  0
  -19.1525  -28.8843   23.2900 C   0  0  0  0  0  0
  -18.9449  -30.1450   23.8907 C   0  0  0  0  0  0
  -17.6448  -30.6581   24.0572 C   0  0  0  0  0  0
  -25.9041  -34.9466   23.5135 C   0  0  0  0  0  0
  -16.5348  -29.9082   23.6334 C   0  0  0  0  0  0
  -16.7272  -28.6494   23.0362 C   0  0  0  0  0  0
  -26.4486  -31.6590   25.0746 C   0  0  0  0  0  0
  -25.3749  -31.3712   26.1499 C   0  0  0  0  0  0
  -27.0335  -30.3018   24.6195 C   0  0  0  0  0  0
  -27.6051  -32.4328   25.7506 C   0  0  0  0  0  0
  -27.5579  -37.1809   24.8469 C   0  0  0  0  0  0
  -21.4149  -29.3043   22.3693 N   0  0  0  0  0  0
  -26.4294  -37.3785   23.9401 N   0  0  0  0  0  0
  -24.6761  -31.0706   22.1044 N   0  0  0  0  0  0
  -23.4188  -28.8179   23.3005 O   0  0  0  0  0  0
  -28.3696  -26.6130   20.1506 O   0  0  0  0  0  0
  -26.5591  -34.8919   22.4685 O   0  0  0  0  0  0
  -23.5368  -32.1451   23.7477 O   0  0  0  0  0  0
  -30.2364  -22.7424   22.4802 C   0  0  0  0  0  0
  -29.7973  -22.4442   20.3252 C   0  0  0  0  0  0
  -30.7612  -20.7990   21.5322 C   0  0  0  0  0  0
  -30.1846  -23.6492   23.6918 C   0  0  0  0  0  0
  -30.3596  -23.2572   18.0157 C   0  0  0  0  0  0
  -28.4651  -21.6636   18.3824 C   0  0  0  0  0  0
  -32.5111  -19.3310   22.6706 C   0  0  0  0  0  0
  -29.4801  -18.2957   22.9003 C   0  0  0  0  0  0
  -29.4531  -18.0968   20.4134 C   0  0  0  0  0  0
  -27.2783  -24.1743   17.7335 C   0  0  0  0  0  0
  -27.1132  -23.9015   20.2389 C   0  0  0  0  0  0
  -31.1299  -16.7370   21.7632 C   0  0  0  0  0  0
  -28.7669  -25.5972   19.1861 C   0  0  0  0  0  0
  -29.1852  -22.9286   18.9705 C   0  0  0  0  0  0
  -31.4207  -19.3779   21.5636 C   0  0  1  0  0  0
  -30.3894  -18.1357   21.6532 C   0  0  0  0  0  0
  -28.1058  -24.1492   19.0623 C   0  0  0  0  0  0
  -29.8322  -23.2860   21.3436 N   0  0  0  0  0  0
  -30.6781  -21.5023   22.6602 N   0  0  0  0  0  0
  -30.3646  -21.2288   20.3320 N   0  0  0  0  0  0
  -30.3551  -15.4861   21.4644 N   0  0  0  0  0  0
  -32.1257  -19.3430   20.2748 N   0  3  0  0  0  0
  -31.4676  -12.4122   19.1640 H   0  0  0  0  0  0
  -30.3161  -11.3496   19.8958 H   0  0  0  0  0  0
  -29.7559  -11.7995   17.4648 H   0  0  0  0  0  0
  -29.6496  -13.5132   17.8075 H   0  0  0  0  0  0
  -27.8731  -11.3022   18.8860 H   0  0  0  0  0  0
  -27.3744  -12.5867   17.8158 H   0  0  0  0  0  0
  -27.7004  -14.2617   19.5483 H   0  0  0  0  0  0
  -28.6828  -12.0748   21.4401 H   0  0  0  0  0  0
  -28.4512  -13.7524   21.8462 H   0  0  0  0  0  0
  -25.2784   -9.5671   22.4721 H   0  0  0  0  0  0
  -23.9993   -7.4653   22.7477 H   0  0  0  0  0  0
  -21.0863   -8.8810   19.8923 H   0  0  0  0  0  0
  -22.3743  -10.9692   19.6131 H   0  0  0  0  0  0
  -21.2034   -7.6132   23.9708 H   0  0  0  0  0  0
  -21.1481   -6.0496   25.9069 H   0  0  0  0  0  0
  -22.0593   -2.7588   23.2843 H   0  0  0  0  0  0
  -22.4123  -11.9898   22.4793 H   0  0  0  0  0  0
  -21.1098  -13.1211   22.2570 H   0  0  0  0  0  0
  -24.6586  -15.8435   20.5284 H   0  0  0  0  0  0
  -26.2855  -15.6325   20.0999 H   0  0  0  0  0  0
  -26.7137  -32.5483   23.1143 H   0  0  0  0  0  0
  -25.0100  -33.9764   25.0497 H   0  0  0  0  0  0
  -22.7004  -31.3159   21.4178 H   0  0  0  0  0  0
  -23.3739  -35.9642   23.3329 H   0  0  0  0  0  0
  -24.3569  -36.8899   22.2055 H   0  0  0  0  0  0
  -23.7256  -37.6522   23.6637 H   0  0  0  0  0  0
  -26.0805  -31.5801   20.6191 H   0  0  0  0  0  0
  -26.8267  -30.8480   22.0113 H   0  0  0  0  0  0
  -28.0884  -29.0225   21.2031 H   0  0  0  0  0  0
  -25.9514  -26.0113   18.9704 H   0  0  0  0  0  0
  -23.9658  -27.3421   18.9912 H   0  0  0  0  0  0
  -23.7262  -30.6225   19.4116 H   0  0  0  0  0  0
  -22.7403  -29.2629   19.8614 H   0  0  0  0  0  0
  -25.1281  -36.1965   25.0833 H   0  0  0  0  0  0
  -20.9978  -28.3239   24.1414 H   0  0  0  0  0  0
  -20.5671  -26.2276   23.3605 H   0  0  0  0  0  0
  -21.6630  -26.7438   22.1201 H   0  0  0  0  0  0
  -19.6894  -25.6294   21.1248 H   0  0  0  0  0  0
  -19.6674  -27.3190   20.6742 H   0  0  0  0  0  0
  -17.4193  -26.6694   21.4033 H   0  0  0  0  0  0
  -18.0322  -26.0053   22.9012 H   0  0  0  0  0  0
  -19.7931  -30.7278   24.2265 H   0  0  0  0  0  0
  -17.5007  -31.6265   24.5171 H   0  0  0  0  0  0
  -15.5352  -30.2983   23.7647 H   0  0  0  0  0  0
  -15.8680  -28.0823   22.7063 H   0  0  0  0  0  0
  -24.5902  -30.7080   25.7837 H   0  0  0  0  0  0
  -24.8955  -32.2875   26.4959 H   0  0  0  0  0  0
  -25.8098  -30.8870   27.0258 H   0  0  0  0  0  0
  -26.2912  -29.6770   24.1218 H   0  0  0  0  0  0
  -27.4043  -29.7271   25.4695 H   0  0  0  0  0  0
  -27.8769  -30.4310   23.9409 H   0  0  0  0  0  0
  -27.2655  -33.3617   26.2104 H   0  0  0  0  0  0
  -28.3834  -32.6933   25.0315 H   0  0  0  0  0  0
  -28.0754  -31.8459   26.5413 H   0  0  0  0  0  0
  -28.2602  -38.0096   24.7502 H   0  0  0  0  0  0
  -28.1070  -36.2633   24.6303 H   0  0  0  0  0  0
  -27.2302  -37.1483   25.8876 H   0  0  0  0  0  0
  -20.9297  -29.8772   21.6925 H   0  0  0  0  0  0
  -26.0183  -38.2864   24.1391 H   0  0  0  0  0  0
  -30.0258  -24.6890   23.4021 H   0  0  0  0  0  0
  -31.1178  -23.6013   24.2508 H   0  0  0  0  0  0
  -29.3686  -23.3613   24.3520 H   0  0  0  0  0  0
  -30.9951  -22.3807   17.8738 H   0  0  0  0  0  0
  -31.0113  -24.0353   18.4082 H   0  0  0  0  0  0
  -30.0276  -23.5671   17.0271 H   0  0  0  0  0  0
  -29.1633  -20.8451   18.2058 H   0  0  0  0  0  0
  -27.9920  -21.8009   17.4148 H   0  0  0  0  0  0
  -27.7123  -21.2717   19.0661 H   0  0  0  0  0  0
  -32.0754  -19.3893   23.6671 H   0  0  0  0  0  0
  -33.1930  -20.1809   22.5869 H   0  0  0  0  0  0
  -33.1205  -18.4296   22.6228 H   0  0  0  0  0  0
  -28.7391  -17.4994   22.9658 H   0  0  0  0  0  0
  -28.9260  -19.2351   22.8806 H   0  0  0  0  0  0
  -30.0453  -18.2720   23.8314 H   0  0  0  0  0  0
  -28.7097  -17.3027   20.4842 H   0  0  0  0  0  0
  -30.0000  -17.9260   19.4884 H   0  0  0  0  0  0
  -28.8886  -19.0201   20.2897 H   0  0  0  0  0  0
  -26.8874  -25.1495   17.4563 H   0  0  0  0  0  0
  -26.4342  -23.4829   17.7614 H   0  0  0  0  0  0
  -27.8789  -23.9134   16.8660 H   0  0  0  0  0  0
  -26.1257  -24.3256   20.0897 H   0  0  0  0  0  0
  -27.4857  -24.3159   21.1754 H   0  0  0  0  0  0
  -26.9320  -22.8413   20.4102 H   0  0  0  0  0  0
  -31.5544  -16.6210   22.7630 H   0  0  0  0  0  0
  -32.0050  -16.7797   21.1168 H   0  0  0  0  0  0
  -28.8575  -26.0664   18.2043 H   0  0  0  0  0  0
  -29.8004  -25.4454   19.4891 H   0  0  0  0  0  0
  -29.5020  -15.3264   21.9805 H   0  0  0  0  0  0
  -32.9423  -19.9231   20.3189 H   0  0  0  0  0  0
  -31.4608  -19.8341   19.6870 H   0  0  0  0  0  0
  -32.3423  -18.4296   19.9273 H   0  0  0  0  0  0
  1 25  1  0  0  0
  1 30  2  0  0  0
  1 91  1  0  0  0
  2  3  1  0  0  0
  2 25  1  0  0  0
  2 93  1  0  0  0
  2 94  1  0  0  0
  3  4  1  0  0  0
  3 95  1  0  0  0
  3 96  1  0  0  0
  4  5  1  0  0  0
  4 97  1  0  0  0
  4 98  1  0  0  0
  5  6  1  0  0  0
  5 26  1  0  0  0
  5 99  1  0  0  0
  6 25  1  0  0  0
  6100  1  0  0  0
  6101  1  0  0  0
  7  8  2  0  0  0
  7 26  1  0  0  0
  7 29  1  0  0  0
  8  9  1  0  0  0
  8 22  1  0  0  0
  9 10  1  0  0  0
  9 27  2  0  0  0
 10 11  2  0  0  0
 10 15  1  0  0  0
 11 12  1  0  0  0
 11102  1  0  0  0
 12 13  2  0  0  0
 12103  1  0  0  0
 13 14  1  0  0  0
 13 31  1  0  0  0
 14 15  2  0  0  0
 14104  1  0  0  0
 15105  1  0  0  0
 16 17  2  0  0  0
 16 21  1  0  0  0
 16 31  1  0  0  0
 17 18  1  0  0  0
 17106  1  0  0  0
 18 19  2  0  0  0
 18107  1  0  0  0
 19 20  1  0  0  0
 19 24  1  0  0  0
 20 21  2  0  0  0
 20108  1  0  0  0
 21 23  1  0  0  0
 22 28  1  0  0  0
 22 32  2  0  0  0
 26 27  1  0  0  0
 28109  1  0  0  0
 28110  1  0  0  0
 29111  1  0  0  0
 29112  1  0  0  0
 33 34  1  0  0  0
 33 66  1  0  0  0
 33 70  2  0  0  0
 34 36  1  0  0  0
 34 59  1  0  0  0
 34113  1  0  0  0
 35 44  2  0  0  0
 35 45  1  0  0  0
 35 68  1  0  0  0
 36 56  1  0  0  0
 36114  1  0  0  0
 37 39  1  0  0  0
 37 47  1  0  0  0
 37 66  1  0  0  0
 37115  1  0  0  0
 38 43  2  0  0  0
 38 46  1  0  0  0
 38 47  1  0  0  0
 39 64  1  0  0  0
 39 67  2  0  0  0
 40 52  1  0  0  0
 40 53  2  0  0  0
 40 58  1  0  0  0
 41116  1  0  0  0
 41117  1  0  0  0
 41118  1  0  0  0
 41 48  1  0  0  0
 42 43  1  0  0  0
 42 66  1  0  0  0
 42119  1  0  0  0
 42120  1  0  0  0
 43 44  1  0  0  0
 44121  1  0  0  0
 45 46  2  0  0  0
 45122  1  0  0  0
 46123  1  0  0  0
 47124  1  0  0  0
 47125  1  0  0  0
 48 56  1  0  0  0
 48 65  1  0  0  0
 48126  1  0  0  0
 49 50  1  0  0  0
 49 53  1  0  0  0
 49 64  1  0  0  0
 49127  1  0  0  0
 50 51  1  0  0  0
 50128  1  0  0  0
 50129  1  0  0  0
 51 52  1  0  0  0
 51130  1  0  0  0
 51131  1  0  0  0
 52132  1  0  0  0
 52133  1  0  0  0
 53 54  1  0  0  0
 54 55  2  0  0  0
 54134  1  0  0  0
 55 57  1  0  0  0
 55135  1  0  0  0
 56 69  2  0  0  0
 57 58  2  0  0  0
 57136  1  0  0  0
 58137  1  0  0  0
 59 60  1  0  0  0
 59 61  1  0  0  0
 59 62  1  0  0  0
 60138  1  0  0  0
 60139  1  0  0  0
 60140  1  0  0  0
 61141  1  0  0  0
 61142  1  0  0  0
 61143  1  0  0  0
 62144  1  0  0  0
 62145  1  0  0  0
 62146  1  0  0  0
 63 65  1  0  0  0
 63147  1  0  0  0
 63148  1  0  0  0
 63149  1  0  0  0
 64150  1  0  0  0
 65151  1  0  0  0
 68 83  1  0  0  0
 71 74  1  0  0  0
 71 88  2  0  0  0
 71 89  1  0  0  0
 72 84  1  0  0  0
 72 88  1  0  0  0
 72 90  2  0  0  0
 73 85  1  0  0  0
 73 89  2  0  0  0
 73 90  1  0  0  0
 74152  1  0  0  0
 74153  1  0  0  0
 74154  1  0  0  0
 75155  1  0  0  0
 75156  1  0  0  0
 75157  1  0  0  0
 75 84  1  0  0  0
 76 84  1  0  0  0
 76158  1  0  0  0
 76159  1  0  0  0
 76160  1  0  0  0
 77161  1  0  0  0
 77162  1  0  0  0
 77163  1  0  0  0
 77 85  1  0  0  0
 78164  1  0  0  0
 78165  1  0  0  0
 78166  1  0  0  0
 78 86  1  0  0  0
 79 86  1  0  0  0
 79167  1  0  0  0
 79168  1  0  0  0
 79169  1  0  0  0
 80170  1  0  0  0
 80171  1  0  0  0
 80172  1  0  0  0
 80 87  1  0  0  0
 81 87  1  0  0  0
 81173  1  0  0  0
 81174  1  0  0  0
 81175  1  0  0  0
 82 86  1  0  0  0
 82 91  1  0  0  0
 82176  1  0  0  0
 82177  1  0  0  0
 83 87  1  0  0  0
 83178  1  0  0  0
 83179  1  0  0  0
 84 87  1  0  0  0
 85 86  1  0  0  0
 85 92  1  0  0  0
 91180  1  0  0  0
 92181  1  0  0  0
 92182  1  0  0  0
 92183  1  0  0  0
M  CHG  1  92   1
M  ISO  4   1 100  68 101  83 101  91 100
M  END
> <chiral flag>
0

> <version>
0

> <s_m_source_file>
/data/baiqing/PycharmProjects/Reinvent-master-3.2/result/LINK_invent/BTK/process_docking_weight1_custom_sum_contain_oxygen_bond_distance_aromatic_linkinvent_7_9_3/rearranged_h_0066.sdf

> <i_m_source_file_index>
38

> <r_mmod_Potential_Energy-OPLS-2005>
-882.64892578125

> <r_mmod_Stretch_Energy-OPLS-2005>
87.7267761230469

> <r_mmod_Bend_Energy-OPLS-2005>
194.082168579102

> <r_mmod_Torsional_Energy-OPLS-2005>
259.021179199219

> <r_mmod_Improper_Torsional_Energy-OPLS-2005>
2.3858745098114

> <r_mmod_Van_der_Waal_Energy-OPLS-2005>
231.012069702148

> <r_mmod_Electrostatic_Energy-OPLS-2005>
-1233.10534667969

> <r_mmod_Solvation_Energy-OPLS-2005>
-446.903961181641

> <b_mmod_Minimization_Converged-OPLS-2005>
0

> <r_mmod_RMS_Derivative-OPLS-2005>
4.27314424514771

$$$$
40
                    3D
 Structure written by MMmdl.
187195  0  0  1  0            999 V2000
  -30.7870  -14.6034   20.3903 C   0  0  0  0  0  0
  -30.3975  -12.3752   19.4186 C   0  0  0  0  0  0
  -29.4657  -12.4412   18.1985 C   0  0  0  0  0  0
  -27.9997  -12.2883   18.6452 C   0  0  0  0  0  0
  -27.6298  -13.1875   19.8569 C   0  0  2  0  0  0
  -28.7149  -13.1934   20.9565 C   0  0  0  0  0  0
  -25.2407  -13.7921   20.5616 C   0  0  0  0  0  0
  -24.1725  -13.0261   20.9263 C   0  0  0  0  0  0
  -24.6324  -11.6764   20.8868 C   0  0  0  0  0  0
  -23.9007  -10.4205   21.0469 C   0  0  0  0  0  0
  -24.3580   -9.4132   21.9235 C   0  0  0  0  0  0
  -23.6275   -8.2168   22.0760 C   0  0  0  0  0  0
  -22.4256   -8.0240   21.3543 C   0  0  0  0  0  0
  -21.9890   -9.0200   20.4643 C   0  0  0  0  0  0
  -22.7199  -10.2083   20.3080 C   0  0  0  0  0  0
  -21.6826   -6.0741   22.5287 C   0  0  0  0  0  0
  -21.3987   -6.5648   23.8222 C   0  0  0  0  0  0
  -21.3648   -5.6798   24.9182 C   0  0  0  0  0  0
  -21.6047   -4.3065   24.7226 C   0  0  0  0  0  0
  -21.8824   -3.8161   23.4344 C   0  0  0  0  0  0
  -21.9183   -4.6977   22.3402 C   0  0  0  0  0  0
  -22.7772  -13.5111   21.1888 C   0  0  0  0  0  0
  -22.1653   -4.2174   21.0973 F   0  0  0  0  0  0
  -21.5648   -3.4549   25.7738 F   0  0  0  0  0  0
  -29.9962  -13.4886   20.2949 N   0  0  0  0  0  0
  -26.2902  -12.9121   20.3520 N   0  0  0  0  0  0
  -25.9275  -11.6320   20.6030 N   0  0  0  0  0  0
  -22.0399  -12.8150   22.0460 N   0  0  0  0  0  0
  -25.3831  -15.1550   20.3551 N   0  0  0  0  0  0
  -32.0038  -14.4563   20.3889 O   0  0  0  0  0  0
  -21.6606   -6.8857   21.4239 O   0  0  0  0  0  0
  -22.3503  -14.5426   20.6717 O   0  0  0  0  0  0
  -24.6160  -31.8665   23.2082 C   0  0  0  0  0  0
  -25.9046  -32.4819   23.8388 C   0  0  1  0  0  0
  -27.2532  -27.4430   20.0767 C   0  0  0  0  0  0
  -25.5896  -33.8617   24.2319 N   0  0  0  0  0  0
  -23.4065  -30.4869   21.5481 C   0  0  2  0  0  0
  -24.8592  -28.9584   20.1045 C   0  0  0  0  0  0
  -22.7429  -29.4639   22.4979 C   0  0  0  0  0  0
  -18.0275  -28.1377   22.8494 C   0  0  0  0  0  0
  -24.1487  -36.7312   23.2639 C   0  0  0  0  0  0
  -25.9357  -30.8333   21.3621 C   0  0  0  0  0  0
  -26.0185  -29.4710   20.7014 C   0  0  0  0  0  0
  -27.2167  -28.7170   20.6918 C   0  0  0  0  0  0
  -26.0709  -26.9367   19.4972 C   0  0  0  0  0  0
  -24.8808  -27.6900   19.4978 C   0  0  0  0  0  0
  -23.6156  -29.8185   20.1621 C   0  0  0  0  0  0
  -25.4110  -36.3113   24.0338 C   0  0  1  0  0  0
  -20.5866  -28.3668   23.1314 C   0  0  2  0  0  0
  -20.6762  -26.9401   22.5419 C   0  0  0  0  0  0
  -19.5740  -26.6381   21.5217 C   0  0  0  0  0  0
  -18.1917  -26.7925   22.1624 C   0  0  0  0  0  0
  -19.1524  -28.8841   23.2900 C   0  0  0  0  0  0
  -18.9453  -30.1445   23.8911 C   0  0  0  0  0  0
  -17.6454  -30.6587   24.0559 C   0  0  0  0  0  0
  -25.9032  -34.9477   23.5128 C   0  0  0  0  0  0
  -16.5346  -29.9084   23.6330 C   0  0  0  0  0  0
  -16.7262  -28.6499   23.0357 C   0  0  0  0  0  0
  -26.4469  -31.6606   25.0722 C   0  0  0  0  0  0
  -25.3731  -31.3711   26.1466 C   0  0  0  0  0  0
  -27.0307  -30.3051   24.6099 C   0  0  0  0  0  0
  -27.6044  -32.4325   25.7484 C   0  0  0  0  0  0
  -27.5583  -37.1811   24.8465 C   0  0  0  0  0  0
  -21.4153  -29.3028   22.3724 N   0  0  0  0  0  0
  -26.4298  -37.3794   23.9406 N   0  0  0  0  0  0
  -24.6707  -31.0754   22.0985 N   0  0  0  0  0  0
  -23.4190  -28.8190   23.3036 O   0  0  0  0  0  0
  -28.3564  -26.6189   20.2012 O   0  0  0  0  0  0
  -26.5594  -34.8928   22.4690 O   0  0  0  0  0  0
  -23.5348  -32.1409   23.7467 O   0  0  0  0  0  0
  -28.2796  -21.1057   18.6033 C   0  0  0  0  0  0
  -29.2634  -21.2226   19.5447 C   0  0  0  0  0  0
  -28.5792  -19.0588   19.4713 C   0  0  0  0  0  0
  -32.4701  -17.1290   19.3749 C   0  0  0  0  0  0
  -31.3498  -15.7478   17.5437 C   0  0  0  0  0  0
  -27.9252  -16.7896   18.5978 C   0  0  0  0  0  0
  -27.1969  -17.6633   20.9031 C   0  0  0  0  0  0
  -31.4755  -25.0469   18.7267 C   0  0  0  0  0  0
  -30.6305  -25.2816   21.0614 C   0  0  0  0  0  0
  -28.6158  -26.1865   17.7780 C   0  0  0  0  0  0
  -30.1304  -27.7154   19.0573 C   0  0  0  0  0  0
  -26.7127  -19.3757   17.7727 C   0  0  0  0  0  0
  -30.0255  -22.4570   19.9819 C   0  0  0  0  0  0
  -29.4010  -23.7854   19.4251 C   0  0  0  0  0  0
  -29.5206  -16.7948   20.6281 C   0  0  0  0  0  0
  -31.1382  -16.5459   18.8438 C   0  0  0  0  0  0
  -28.3456  -17.5761   19.8726 C   0  0  0  0  0  0
  -30.1888  -25.1386   19.5841 C   0  0  0  0  0  0
  -29.3094  -26.4052   19.1445 C   0  0  0  0  0  0
  -27.8464  -19.8114   18.6054 N   0  0  0  0  0  0
  -29.4231  -19.9418   20.0520 N   0  3  0  0  0  0
  -30.3263  -15.7990   19.8587 N   0  0  0  0  0  0
  -31.4370  -12.4385   19.0941 H   0  0  0  0  0  0
  -30.3009  -11.4197   19.9366 H   0  0  0  0  0  0
  -29.7197  -11.6555   17.4864 H   0  0  0  0  0  0
  -29.5961  -13.3842   17.6689 H   0  0  0  0  0  0
  -27.8467  -11.2405   18.9077 H   0  0  0  0  0  0
  -27.3271  -12.4861   17.8103 H   0  0  0  0  0  0
  -27.5732  -14.1854   19.4738 H   0  0  0  0  0  0
  -28.7623  -12.2296   21.4658 H   0  0  0  0  0  0
  -28.4877  -13.9379   21.7196 H   0  0  0  0  0  0
  -25.2708   -9.5641   22.4829 H   0  0  0  0  0  0
  -24.0005   -7.4549   22.7454 H   0  0  0  0  0  0
  -21.0841   -8.8701   19.8929 H   0  0  0  0  0  0
  -22.3658  -10.9645   19.6216 H   0  0  0  0  0  0
  -21.1956   -7.6153   23.9741 H   0  0  0  0  0  0
  -21.1463   -6.0518   25.9090 H   0  0  0  0  0  0
  -22.0607   -2.7630   23.2822 H   0  0  0  0  0  0
  -22.3971  -11.9792   22.4851 H   0  0  0  0  0  0
  -21.1030  -13.1234   22.2646 H   0  0  0  0  0  0
  -24.5989  -15.7916   20.4377 H   0  0  0  0  0  0
  -26.2285  -15.6003   20.0254 H   0  0  0  0  0  0
  -26.7125  -32.5531   23.1161 H   0  0  0  0  0  0
  -25.0063  -33.9781   25.0475 H   0  0  0  0  0  0
  -22.6957  -31.3037   21.4079 H   0  0  0  0  0  0
  -23.3751  -35.9643   23.3310 H   0  0  0  0  0  0
  -24.3579  -36.8916   22.2051 H   0  0  0  0  0  0
  -23.7237  -37.6519   23.6644 H   0  0  0  0  0  0
  -26.0498  -31.6040   20.5978 H   0  0  0  0  0  0
  -26.8222  -30.8840   21.9834 H   0  0  0  0  0  0
  -28.1050  -29.0959   21.1775 H   0  0  0  0  0  0
  -26.0616  -25.9433   19.0736 H   0  0  0  0  0  0
  -23.9863  -27.2809   19.0486 H   0  0  0  0  0  0
  -23.7127  -30.5927   19.4001 H   0  0  0  0  0  0
  -22.7429  -29.2304   19.8727 H   0  0  0  0  0  0
  -25.1291  -36.1980   25.0831 H   0  0  0  0  0  0
  -20.9956  -28.3227   24.1435 H   0  0  0  0  0  0
  -20.5664  -26.2274   23.3608 H   0  0  0  0  0  0
  -21.6631  -26.7439   22.1206 H   0  0  0  0  0  0
  -19.6897  -25.6294   21.1240 H   0  0  0  0  0  0
  -19.6681  -27.3198   20.6753 H   0  0  0  0  0  0
  -17.4192  -26.6689   21.4017 H   0  0  0  0  0  0
  -18.0304  -26.0057   22.9008 H   0  0  0  0  0  0
  -19.7928  -30.7258   24.2279 H   0  0  0  0  0  0
  -17.5010  -31.6270   24.5156 H   0  0  0  0  0  0
  -15.5345  -30.2991   23.7649 H   0  0  0  0  0  0
  -15.8660  -28.0822   22.7070 H   0  0  0  0  0  0
  -24.5897  -30.7069   25.7797 H   0  0  0  0  0  0
  -24.8929  -32.2868   26.4925 H   0  0  0  0  0  0
  -25.8073  -30.8865   27.0220 H   0  0  0  0  0  0
  -26.2860  -29.6811   24.1142 H   0  0  0  0  0  0
  -27.4077  -29.7283   25.4556 H   0  0  0  0  0  0
  -27.8691  -30.4379   23.9256 H   0  0  0  0  0  0
  -27.2668  -33.3623   26.2071 H   0  0  0  0  0  0
  -28.3845  -32.6886   25.0306 H   0  0  0  0  0  0
  -28.0718  -31.8444   26.5390 H   0  0  0  0  0  0
  -28.2608  -38.0102   24.7512 H   0  0  0  0  0  0
  -28.1073  -36.2634   24.6295 H   0  0  0  0  0  0
  -27.2298  -37.1465   25.8868 H   0  0  0  0  0  0
  -20.9323  -29.8757   21.6951 H   0  0  0  0  0  0
  -26.0192  -38.2878   24.1394 H   0  0  0  0  0  0
  -27.8310  -21.8560   17.9654 H   0  0  0  0  0  0
  -32.8477  -17.9015   18.7040 H   0  0  0  0  0  0
  -33.2546  -16.3762   19.4464 H   0  0  0  0  0  0
  -32.3609  -17.5885   20.3579 H   0  0  0  0  0  0
  -31.8745  -16.3500   16.7999 H   0  0  0  0  0  0
  -30.3964  -15.4601   17.1016 H   0  0  0  0  0  0
  -31.9377  -14.8428   17.6989 H   0  0  0  0  0  0
  -26.8506  -16.7867   18.4231 H   0  0  0  0  0  0
  -28.2489  -15.7653   18.5674 H   0  0  0  0  0  0
  -28.4112  -17.1998   17.7134 H   0  0  0  0  0  0
  -26.2616  -18.0080   20.4641 H   0  0  0  0  0  0
  -27.4437  -18.3642   21.7019 H   0  0  0  0  0  0
  -27.0019  -16.7180   21.4000 H   0  0  0  0  0  0
  -32.0950  -24.1971   19.0088 H   0  0  0  0  0  0
  -32.1120  -25.9226   18.8479 H   0  0  0  0  0  0
  -31.2551  -24.9424   17.6649 H   0  0  0  0  0  0
  -31.2981  -24.4745   21.3632 H   0  0  0  0  0  0
  -29.7799  -25.2646   21.7428 H   0  0  0  0  0  0
  -31.1745  -26.2075   21.2407 H   0  0  0  0  0  0
  -29.3373  -25.9609   16.9933 H   0  0  0  0  0  0
  -28.0798  -27.0792   17.4536 H   0  0  0  0  0  0
  -27.8936  -25.3720   17.8022 H   0  0  0  0  0  0
  -30.8605  -27.6868   18.2488 H   0  0  0  0  0  0
  -30.6630  -27.9370   19.9801 H   0  0  0  0  0  0
  -29.4893  -28.5728   18.8530 H   0  0  0  0  0  0
  -26.2087  -20.2498   17.3586 H   0  0  0  0  0  0
  -25.9860  -18.8301   18.3697 H   0  0  0  0  0  0
  -27.0680  -18.7725   16.9387 H   0  0  0  0  0  0
  -31.0566  -22.3417   19.6511 H   0  0  0  0  0  0
  -30.0473  -22.4821   21.0709 H   0  0  0  0  0  0
  -28.4080  -23.8996   19.8613 H   0  0  0  0  0  0
  -29.2428  -23.6384   18.3574 H   0  0  0  0  0  0
  -29.1015  -16.2287   21.4612 H   0  0  0  0  0  0
  -30.1836  -17.5003   21.1260 H   0  0  0  0  0  0
  -30.5786  -17.4229   18.5276 H   0  0  0  0  0  0
  -30.0660  -19.6979   20.7956 H   0  0  0  0  0  0
  1 25  1  0  0  0
  1 30  2  0  0  0
  1 92  1  0  0  0
  2  3  1  0  0  0
  2 25  1  0  0  0
  2 93  1  0  0  0
  2 94  1  0  0  0
  3  4  1  0  0  0
  3 95  1  0  0  0
  3 96  1  0  0  0
  4  5  1  0  0  0
  4 97  1  0  0  0
  4 98  1  0  0  0
  5  6  1  0  0  0
  5 26  1  0  0  0
  5 99  1  0  0  0
  6 25  1  0  0  0
  6100  1  0  0  0
  6101  1  0  0  0
  7  8  2  0  0  0
  7 26  1  0  0  0
  7 29  1  0  0  0
  8  9  1  0  0  0
  8 22  1  0  0  0
  9 10  1  0  0  0
  9 27  2  0  0  0
 10 11  2  0  0  0
 10 15  1  0  0  0
 11 12  1  0  0  0
 11102  1  0  0  0
 12 13  2  0  0  0
 12103  1  0  0  0
 13 14  1  0  0  0
 13 31  1  0  0  0
 14 15  2  0  0  0
 14104  1  0  0  0
 15105  1  0  0  0
 16 17  2  0  0  0
 16 21  1  0  0  0
 16 31  1  0  0  0
 17 18  1  0  0  0
 17106  1  0  0  0
 18 19  2  0  0  0
 18107  1  0  0  0
 19 20  1  0  0  0
 19 24  1  0  0  0
 20 21  2  0  0  0
 20108  1  0  0  0
 21 23  1  0  0  0
 22 28  1  0  0  0
 22 32  2  0  0  0
 26 27  1  0  0  0
 28109  1  0  0  0
 28110  1  0  0  0
 29111  1  0  0  0
 29112  1  0  0  0
 33 34  1  0  0  0
 33 66  1  0  0  0
 33 70  2  0  0  0
 34 36  1  0  0  0
 34 59  1  0  0  0
 34113  1  0  0  0
 35 44  2  0  0  0
 35 45  1  0  0  0
 35 68  1  0  0  0
 36 56  1  0  0  0
 36114  1  0  0  0
 37 39  1  0  0  0
 37 47  1  0  0  0
 37 66  1  0  0  0
 37115  1  0  0  0
 38 43  2  0  0  0
 38 46  1  0  0  0
 38 47  1  0  0  0
 39 64  1  0  0  0
 39 67  2  0  0  0
 40 52  1  0  0  0
 40 53  2  0  0  0
 40 58  1  0  0  0
 41116  1  0  0  0
 41117  1  0  0  0
 41118  1  0  0  0
 41 48  1  0  0  0
 42 43  1  0  0  0
 42 66  1  0  0  0
 42119  1  0  0  0
 42120  1  0  0  0
 43 44  1  0  0  0
 44121  1  0  0  0
 45 46  2  0  0  0
 45122  1  0  0  0
 46123  1  0  0  0
 47124  1  0  0  0
 47125  1  0  0  0
 48 56  1  0  0  0
 48 65  1  0  0  0
 48126  1  0  0  0
 49 50  1  0  0  0
 49 53  1  0  0  0
 49 64  1  0  0  0
 49127  1  0  0  0
 50 51  1  0  0  0
 50128  1  0  0  0
 50129  1  0  0  0
 51 52  1  0  0  0
 51130  1  0  0  0
 51131  1  0  0  0
 52132  1  0  0  0
 52133  1  0  0  0
 53 54  1  0  0  0
 54 55  2  0  0  0
 54134  1  0  0  0
 55 57  1  0  0  0
 55135  1  0  0  0
 56 69  2  0  0  0
 57 58  2  0  0  0
 57136  1  0  0  0
 58137  1  0  0  0
 59 60  1  0  0  0
 59 61  1  0  0  0
 59 62  1  0  0  0
 60138  1  0  0  0
 60139  1  0  0  0
 60140  1  0  0  0
 61141  1  0  0  0
 61142  1  0  0  0
 61143  1  0  0  0
 62144  1  0  0  0
 62145  1  0  0  0
 62146  1  0  0  0
 63 65  1  0  0  0
 63147  1  0  0  0
 63148  1  0  0  0
 63149  1  0  0  0
 64150  1  0  0  0
 65151  1  0  0  0
 68 89  1  0  0  0
 71 72  2  0  0  0
 71 90  1  0  0  0
 71152  1  0  0  0
 72 83  1  0  0  0
 72 91  1  0  0  0
 73 87  1  0  0  0
 73 90  1  0  0  0
 73 91  2  0  0  0
 74153  1  0  0  0
 74154  1  0  0  0
 74155  1  0  0  0
 74 86  1  0  0  0
 75 86  1  0  0  0
 75156  1  0  0  0
 75157  1  0  0  0
 75158  1  0  0  0
 76159  1  0  0  0
 76160  1  0  0  0
 76161  1  0  0  0
 76 87  1  0  0  0
 77 87  1  0  0  0
 77162  1  0  0  0
 77163  1  0  0  0
 77164  1  0  0  0
 78165  1  0  0  0
 78166  1  0  0  0
 78167  1  0  0  0
 78 88  1  0  0  0
 79 88  1  0  0  0
 79168  1  0  0  0
 79169  1  0  0  0
 79170  1  0  0  0
 80171  1  0  0  0
 80172  1  0  0  0
 80173  1  0  0  0
 80 89  1  0  0  0
 81 89  1  0  0  0
 81174  1  0  0  0
 81175  1  0  0  0
 81176  1  0  0  0
 82 90  1  0  0  0
 82177  1  0  0  0
 82178  1  0  0  0
 82179  1  0  0  0
 83 84  1  0  0  0
 83180  1  0  0  0
 83181  1  0  0  0
 84 88  1  0  0  0
 84182  1  0  0  0
 84183  1  0  0  0
 85 87  1  0  0  0
 85 92  1  0  0  0
 85184  1  0  0  0
 85185  1  0  0  0
 86 92  1  0  0  0
 86186  1  0  0  0
 88 89  1  0  0  0
 91187  1  0  0  0
M  CHG  1  91   1
M  ISO  4   1 100  68 101  89 101  92 100
M  END
> <chiral flag>
0

> <version>
0

> <s_m_source_file>
/data/baiqing/PycharmProjects/Reinvent-master-3.2/result/LINK_invent/BTK/process_docking_weight1_custom_sum_contain_oxygen_bond_distance_aromatic_linkinvent_7_9_3/rearranged_h_0066.sdf

> <i_m_source_file_index>
39

> <r_mmod_Potential_Energy-OPLS-2005>
357.904571533203

> <r_mmod_Stretch_Energy-OPLS-2005>
72.5316925048828

> <r_mmod_Bend_Energy-OPLS-2005>
179.846786499023

> <r_mmod_Torsional_Energy-OPLS-2005>
395.545043945312

> <r_mmod_Improper_Torsional_Energy-OPLS-2005>
27.7131576538086

> <r_mmod_Van_der_Waal_Energy-OPLS-2005>
162.085510253906

> <r_mmod_Electrostatic_Energy-OPLS-2005>
-173.80061340332

> <r_mmod_Solvation_Energy-OPLS-2005>
-374.541381835938

> <b_mmod_Minimization_Converged-OPLS-2005>
0

> <r_mmod_RMS_Derivative-OPLS-2005>
1.77505528926849

$$$$
41
                    3D
 Structure written by MMmdl.
178186  0  0  1  0            999 V2000
  -30.6022  -14.7458   20.5266 C   0  0  0  0  0  0
  -30.4412  -12.4710   19.4808 C   0  0  0  0  0  0
  -29.5203  -12.5415   18.2416 C   0  0  0  0  0  0
  -28.0434  -12.3504   18.6411 C   0  0  0  0  0  0
  -27.6453  -13.2289   19.8535 C   0  0  2  0  0  0
  -28.6796  -13.1189   20.9886 C   0  0  0  0  0  0
  -25.2518  -13.8189   20.5682 C   0  0  0  0  0  0
  -24.1793  -13.0443   20.9176 C   0  0  0  0  0  0
  -24.6381  -11.6920   20.8714 C   0  0  0  0  0  0
  -23.9067  -10.4302   21.0391 C   0  0  0  0  0  0
  -24.3638   -9.4227   21.9171 C   0  0  0  0  0  0
  -23.6308   -8.2271   22.0772 C   0  0  0  0  0  0
  -22.4290   -8.0293   21.3562 C   0  0  0  0  0  0
  -21.9915   -9.0256   20.4663 C   0  0  0  0  0  0
  -22.7246  -10.2134   20.3046 C   0  0  0  0  0  0
  -21.6850   -6.0756   22.5304 C   0  0  0  0  0  0
  -21.4016   -6.5664   23.8242 C   0  0  0  0  0  0
  -21.3647   -5.6806   24.9200 C   0  0  0  0  0  0
  -21.6026   -4.3063   24.7224 C   0  0  0  0  0  0
  -21.8815   -3.8174   23.4344 C   0  0  0  0  0  0
  -21.9202   -4.6997   22.3420 C   0  0  0  0  0  0
  -22.7813  -13.5232   21.1845 C   0  0  0  0  0  0
  -22.1660   -4.2189   21.0981 F   0  0  0  0  0  0
  -21.5616   -3.4539   25.7726 F   0  0  0  0  0  0
  -29.9917  -13.5082   20.4408 N   0  0  0  0  0  0
  -26.2937  -12.9385   20.3245 N   0  0  0  0  0  0
  -25.9307  -11.6534   20.5701 N   0  0  0  0  0  0
  -22.0440  -12.8245   22.0409 N   0  0  0  0  0  0
  -25.4229  -15.1915   20.4163 N   0  0  0  0  0  0
  -31.7080  -14.9130   19.9986 O   0  0  0  0  0  0
  -21.6640   -6.8907   21.4266 O   0  0  0  0  0  0
  -22.3517  -14.5553   20.6710 O   0  0  0  0  0  0
  -24.6311  -31.8539   23.1963 C   0  0  0  0  0  0
  -25.9145  -32.4750   23.8313 C   0  0  1  0  0  0
  -27.1893  -27.2277   20.1414 C   0  0  0  0  0  0
  -25.5952  -33.8551   24.2247 N   0  0  0  0  0  0
  -23.4276  -30.4794   21.5358 C   0  0  2  0  0  0
  -24.8672  -28.9213   20.1045 C   0  0  0  0  0  0
  -22.7505  -29.4615   22.4845 C   0  0  0  0  0  0
  -18.0292  -28.1404   22.8487 C   0  0  0  0  0  0
  -24.1482  -36.7250   23.2659 C   0  0  0  0  0  0
  -25.9752  -30.7550   21.3817 C   0  0  0  0  0  0
  -26.0389  -29.3764   20.7233 C   0  0  0  0  0  0
  -27.1987  -28.5386   20.7325 C   0  0  0  0  0  0
  -26.0016  -26.8502   19.4790 C   0  0  0  0  0  0
  -24.8557  -27.6683   19.4745 C   0  0  0  0  0  0
  -23.6470  -29.8192   20.1486 C   0  0  0  0  0  0
  -25.4103  -36.3055   24.0349 C   0  0  1  0  0  0
  -20.5908  -28.3704   23.1267 C   0  0  2  0  0  0
  -20.6771  -26.9409   22.5405 C   0  0  0  0  0  0
  -19.5751  -26.6368   21.5211 C   0  0  0  0  0  0
  -18.1927  -26.7952   22.1608 C   0  0  0  0  0  0
  -19.1557  -28.8854   23.2885 C   0  0  0  0  0  0
  -18.9492  -30.1470   23.8900 C   0  0  0  0  0  0
  -17.6497  -30.6608   24.0567 C   0  0  0  0  0  0
  -25.9052  -34.9443   23.5082 C   0  0  0  0  0  0
  -16.5382  -29.9108   23.6346 C   0  0  0  0  0  0
  -16.7281  -28.6538   23.0357 C   0  0  0  0  0  0
  -26.4483  -31.6606   25.0725 C   0  0  0  0  0  0
  -25.3703  -31.3768   26.1448 C   0  0  0  0  0  0
  -27.0323  -30.3028   24.6212 C   0  0  0  0  0  0
  -27.6036  -32.4355   25.7483 C   0  0  0  0  0  0
  -27.5558  -37.1786   24.8486 C   0  0  0  0  0  0
  -21.4196  -29.3077   22.3650 N   0  0  0  0  0  0
  -26.4269  -37.3759   23.9433 N   0  0  0  0  0  0
  -24.6972  -31.0516   22.0930 N   0  0  0  0  0  0
  -23.4212  -28.8144   23.2927 O   0  0  0  0  0  0
  -28.2768  -26.3322   20.2411 O   0  0  0  0  0  0
  -26.5606  -34.8923   22.4644 O   0  0  0  0  0  0
  -23.5455  -32.1361   23.7245 O   0  0  0  0  0  0
  -28.6160  -21.7308   19.1746 C   0  0  0  0  0  0
  -28.6934  -22.1918   20.4678 C   0  0  0  0  0  0
  -29.4927  -19.9691   20.3018 C   0  0  0  0  0  0
  -28.0972  -23.9333   23.6597 C   0  0  0  0  0  0
  -25.6468  -24.4001   21.6522 C   0  0  0  0  0  0
  -28.4765  -19.9876   23.2900 C   0  0  0  0  0  0
  -31.2975  -18.5259   21.5597 C   0  0  0  0  0  0
  -31.0361  -18.3428   19.1362 C   0  0  0  0  0  0
  -29.8908  -15.7283   22.6057 C   0  0  0  0  0  0
  -28.8072  -24.1471   22.2937 C   0  0  0  0  0  0
  -26.6068  -23.2834   21.2093 C   0  0  0  0  0  0
  -29.4816  -20.9107   22.5904 C   0  0  0  0  0  0
  -29.3650  -17.1470   20.5891 C   0  0  0  0  0  0
  -28.2403  -24.8506   19.8984 C   0  0  0  0  0  0
  -28.1174  -23.6194   20.9845 C   0  0  0  0  0  0
  -30.2331  -18.5232   20.4470 C   0  0  0  0  0  0
  -29.2183  -21.0371   21.1491 N   0  0  0  0  0  0
  -29.0503  -20.4254   19.1193 N   0  3  0  0  0  0
  -29.9254  -15.8026   21.1361 N   0  0  0  0  0  0
  -31.4841  -12.6038   19.1881 H   0  0  0  0  0  0
  -30.3930  -11.4849   19.9452 H   0  0  0  0  0  0
  -29.8173  -11.7887   17.5107 H   0  0  0  0  0  0
  -29.6422  -13.5111   17.7569 H   0  0  0  0  0  0
  -27.8956  -11.2966   18.8817 H   0  0  0  0  0  0
  -27.3942  -12.5657   17.7927 H   0  0  0  0  0  0
  -27.6528  -14.2597   19.4977 H   0  0  0  0  0  0
  -28.7170  -12.1029   21.3830 H   0  0  0  0  0  0
  -28.3570  -13.7444   21.8168 H   0  0  0  0  0  0
  -25.2790   -9.5707   22.4736 H   0  0  0  0  0  0
  -24.0022   -7.4669   22.7497 H   0  0  0  0  0  0
  -21.0852   -8.8764   19.8962 H   0  0  0  0  0  0
  -22.3705  -10.9662   19.6150 H   0  0  0  0  0  0
  -21.2002   -7.6166   23.9759 H   0  0  0  0  0  0
  -21.1453   -6.0524   25.9099 H   0  0  0  0  0  0
  -22.0592   -2.7633   23.2830 H   0  0  0  0  0  0
  -22.4040  -11.9882   22.4773 H   0  0  0  0  0  0
  -21.1047  -13.1268   22.2592 H   0  0  0  0  0  0
  -24.6565  -15.8449   20.5369 H   0  0  0  0  0  0
  -26.2820  -15.6368   20.1202 H   0  0  0  0  0  0
  -26.7190  -32.5361   23.1033 H   0  0  0  0  0  0
  -25.0207  -33.9673   25.0476 H   0  0  0  0  0  0
  -22.7268  -31.3039   21.3902 H   0  0  0  0  0  0
  -23.3760  -35.9572   23.3337 H   0  0  0  0  0  0
  -24.3585  -36.8816   22.2071 H   0  0  0  0  0  0
  -23.7208  -37.6449   23.6650 H   0  0  0  0  0  0
  -26.1234  -31.5131   20.6110 H   0  0  0  0  0  0
  -26.8523  -30.7965   22.0165 H   0  0  0  0  0  0
  -28.0912  -28.8771   21.2411 H   0  0  0  0  0  0
  -25.9139  -25.8939   18.9877 H   0  0  0  0  0  0
  -23.9586  -27.3072   18.9919 H   0  0  0  0  0  0
  -23.7880  -30.6010   19.4026 H   0  0  0  0  0  0
  -22.7618  -29.2667   19.8297 H   0  0  0  0  0  0
  -25.1270  -36.1897   25.0836 H   0  0  0  0  0  0
  -21.0011  -28.3250   24.1379 H   0  0  0  0  0  0
  -20.5656  -26.2294   23.3599 H   0  0  0  0  0  0
  -21.6637  -26.7391   22.1214 H   0  0  0  0  0  0
  -19.6914  -25.6265   21.1262 H   0  0  0  0  0  0
  -19.6728  -27.3165   20.6745 H   0  0  0  0  0  0
  -17.4194  -26.6727   21.4009 H   0  0  0  0  0  0
  -18.0317  -26.0089   22.9000 H   0  0  0  0  0  0
  -19.7976  -30.7274   24.2262 H   0  0  0  0  0  0
  -17.5065  -31.6296   24.5150 H   0  0  0  0  0  0
  -15.5394  -30.3025   23.7683 H   0  0  0  0  0  0
  -15.8674  -28.0862   22.7073 H   0  0  0  0  0  0
  -24.5990  -30.6960   25.7839 H   0  0  0  0  0  0
  -24.8768  -32.2926   26.4734 H   0  0  0  0  0  0
  -25.8061  -30.9123   27.0320 H   0  0  0  0  0  0
  -26.2899  -29.6808   24.1209 H   0  0  0  0  0  0
  -27.3992  -29.7258   25.4720 H   0  0  0  0  0  0
  -27.8781  -30.4327   23.9453 H   0  0  0  0  0  0
  -27.2678  -33.3738   26.1933 H   0  0  0  0  0  0
  -28.3911  -32.6793   25.0335 H   0  0  0  0  0  0
  -28.0635  -31.8560   26.5499 H   0  0  0  0  0  0
  -28.2579  -38.0083   24.7492 H   0  0  0  0  0  0
  -28.1037  -36.2603   24.6333 H   0  0  0  0  0  0
  -27.2283  -37.1434   25.8895 H   0  0  0  0  0  0
  -20.9336  -29.8857   21.6923 H   0  0  0  0  0  0
  -26.0140  -38.2826   24.1457 H   0  0  0  0  0  0
  -28.2405  -22.2262   18.2895 H   0  0  0  0  0  0
  -28.7406  -24.2496   24.4806 H   0  0  0  0  0  0
  -27.7972  -22.9049   23.8569 H   0  0  0  0  0  0
  -27.1986  -24.5404   23.7500 H   0  0  0  0  0  0
  -24.9217  -24.6256   20.8680 H   0  0  0  0  0  0
  -26.1649  -25.3237   21.9045 H   0  0  0  0  0  0
  -25.0815  -24.0861   22.5322 H   0  0  0  0  0  0
  -28.5685  -20.0721   24.3744 H   0  0  0  0  0  0
  -28.6381  -18.9450   23.0234 H   0  0  0  0  0  0
  -27.4506  -20.2456   23.0245 H   0  0  0  0  0  0
  -31.9535  -19.3928   21.4864 H   0  0  0  0  0  0
  -31.9468  -17.6535   21.4833 H   0  0  0  0  0  0
  -30.8568  -18.4959   22.5542 H   0  0  0  0  0  0
  -31.7196  -19.1754   18.9653 H   0  0  0  0  0  0
  -30.3847  -18.2707   18.2649 H   0  0  0  0  0  0
  -31.6405  -17.4373   19.1407 H   0  0  0  0  0  0
  -29.0023  -16.1947   23.0297 H   0  0  0  0  0  0
  -30.7678  -16.2077   23.0368 H   0  0  0  0  0  0
  -29.9072  -14.7033   22.9795 H   0  0  0  0  0  0
  -29.8493  -23.8316   22.3180 H   0  0  0  0  0  0
  -28.8975  -25.2302   22.2460 H   0  0  0  0  0  0
  -26.1923  -22.8624   20.2936 H   0  0  0  0  0  0
  -26.5307  -22.4690   21.9310 H   0  0  0  0  0  0
  -30.5146  -20.6162   22.7449 H   0  0  0  0  0  0
  -29.4549  -21.8744   23.0565 H   0  0  0  0  0  0
  -28.9083  -16.9279   19.6226 H   0  0  0  0  0  0
  -28.5097  -17.3898   21.2189 H   0  0  0  0  0  0
  -27.5886  -24.6536   19.0482 H   0  0  0  0  0  0
  -29.2306  -24.7152   19.4615 H   0  0  0  0  0  0
  -29.0731  -19.8863   18.2631 H   0  0  0  0  0  0
  1 25  1  0  0  0
  1 30  2  0  0  0
  1 89  1  0  0  0
  2  3  1  0  0  0
  2 25  1  0  0  0
  2 90  1  0  0  0
  2 91  1  0  0  0
  3  4  1  0  0  0
  3 92  1  0  0  0
  3 93  1  0  0  0
  4  5  1  0  0  0
  4 94  1  0  0  0
  4 95  1  0  0  0
  5  6  1  0  0  0
  5 26  1  0  0  0
  5 96  1  0  0  0
  6 25  1  0  0  0
  6 97  1  0  0  0
  6 98  1  0  0  0
  7  8  2  0  0  0
  7 26  1  0  0  0
  7 29  1  0  0  0
  8  9  1  0  0  0
  8 22  1  0  0  0
  9 10  1  0  0  0
  9 27  2  0  0  0
 10 11  2  0  0  0
 10 15  1  0  0  0
 11 12  1  0  0  0
 11 99  1  0  0  0
 12 13  2  0  0  0
 12100  1  0  0  0
 13 14  1  0  0  0
 13 31  1  0  0  0
 14 15  2  0  0  0
 14101  1  0  0  0
 15102  1  0  0  0
 16 17  2  0  0  0
 16 21  1  0  0  0
 16 31  1  0  0  0
 17 18  1  0  0  0
 17103  1  0  0  0
 18 19  2  0  0  0
 18104  1  0  0  0
 19 20  1  0  0  0
 19 24  1  0  0  0
 20 21  2  0  0  0
 20105  1  0  0  0
 21 23  1  0  0  0
 22 28  1  0  0  0
 22 32  2  0  0  0
 26 27  1  0  0  0
 28106  1  0  0  0
 28107  1  0  0  0
 29108  1  0  0  0
 29109  1  0  0  0
 33 34  1  0  0  0
 33 66  1  0  0  0
 33 70  2  0  0  0
 34 36  1  0  0  0
 34 59  1  0  0  0
 34110  1  0  0  0
 35 44  2  0  0  0
 35 45  1  0  0  0
 35 68  1  0  0  0
 36 56  1  0  0  0
 36111  1  0  0  0
 37 39  1  0  0  0
 37 47  1  0  0  0
 37 66  1  0  0  0
 37112  1  0  0  0
 38 43  2  0  0  0
 38 46  1  0  0  0
 38 47  1  0  0  0
 39 64  1  0  0  0
 39 67  2  0  0  0
 40 52  1  0  0  0
 40 53  2  0  0  0
 40 58  1  0  0  0
 41113  1  0  0  0
 41114  1  0  0  0
 41115  1  0  0  0
 41 48  1  0  0  0
 42 43  1  0  0  0
 42 66  1  0  0  0
 42116  1  0  0  0
 42117  1  0  0  0
 43 44  1  0  0  0
 44118  1  0  0  0
 45 46  2  0  0  0
 45119  1  0  0  0
 46120  1  0  0  0
 47121  1  0  0  0
 47122  1  0  0  0
 48 56  1  0  0  0
 48 65  1  0  0  0
 48123  1  0  0  0
 49 50  1  0  0  0
 49 53  1  0  0  0
 49 64  1  0  0  0
 49124  1  0  0  0
 50 51  1  0  0  0
 50125  1  0  0  0
 50126  1  0  0  0
 51 52  1  0  0  0
 51127  1  0  0  0
 51128  1  0  0  0
 52129  1  0  0  0
 52130  1  0  0  0
 53 54  1  0  0  0
 54 55  2  0  0  0
 54131  1  0  0  0
 55 57  1  0  0  0
 55132  1  0  0  0
 56 69  2  0  0  0
 57 58  2  0  0  0
 57133  1  0  0  0
 58134  1  0  0  0
 59 60  1  0  0  0
 59 61  1  0  0  0
 59 62  1  0  0  0
 60135  1  0  0  0
 60136  1  0  0  0
 60137  1  0  0  0
 61138  1  0  0  0
 61139  1  0  0  0
 61140  1  0  0  0
 62141  1  0  0  0
 62142  1  0  0  0
 62143  1  0  0  0
 63 65  1  0  0  0
 63144  1  0  0  0
 63145  1  0  0  0
 63146  1  0  0  0
 64147  1  0  0  0
 65148  1  0  0  0
 68 84  1  0  0  0
 71 72  2  0  0  0
 71 88  1  0  0  0
 71149  1  0  0  0
 72 85  1  0  0  0
 72 87  1  0  0  0
 73 86  1  0  0  0
 73 87  1  0  0  0
 73 88  2  0  0  0
 74 80  1  0  0  0
 74150  1  0  0  0
 74151  1  0  0  0
 74152  1  0  0  0
 75 81  1  0  0  0
 75153  1  0  0  0
 75154  1  0  0  0
 75155  1  0  0  0
 76 82  1  0  0  0
 76156  1  0  0  0
 76157  1  0  0  0
 76158  1  0  0  0
 77159  1  0  0  0
 77160  1  0  0  0
 77161  1  0  0  0
 77 86  1  0  0  0
 78 86  1  0  0  0
 78162  1  0  0  0
 78163  1  0  0  0
 78164  1  0  0  0
 79 89  1  0  0  0
 79165  1  0  0  0
 79166  1  0  0  0
 79167  1  0  0  0
 80168  1  0  0  0
 80169  1  0  0  0
 80 85  1  0  0  0
 81 85  1  0  0  0
 81170  1  0  0  0
 81171  1  0  0  0
 82 87  1  0  0  0
 82172  1  0  0  0
 82173  1  0  0  0
 83 86  1  0  0  0
 83 89  1  0  0  0
 83174  1  0  0  0
 83175  1  0  0  0
 84 85  1  0  0  0
 84176  1  0  0  0
 84177  1  0  0  0
 88178  1  0  0  0
M  CHG  1  88   1
M  ISO  4   1 100  68 101  84 101  89 100
M  END
> <chiral flag>
0

> <version>
0

> <s_m_source_file>
/data/baiqing/PycharmProjects/Reinvent-master-3.2/result/LINK_invent/BTK/process_docking_weight1_custom_sum_contain_oxygen_bond_distance_aromatic_linkinvent_7_9_3/rearranged_h_0066.sdf

> <i_m_source_file_index>
40

> <r_mmod_Potential_Energy-OPLS-2005>
505.125030517578

> <r_mmod_Stretch_Energy-OPLS-2005>
181.219375610352

> <r_mmod_Bend_Energy-OPLS-2005>
254.61393737793

> <r_mmod_Torsional_Energy-OPLS-2005>
383.465240478516

> <r_mmod_Improper_Torsional_Energy-OPLS-2005>
3.26616883277893

> <r_mmod_Van_der_Waal_Energy-OPLS-2005>
131.545501708984

> <r_mmod_Electrostatic_Energy-OPLS-2005>
-157.298675537109

> <r_mmod_Solvation_Energy-OPLS-2005>
-387.340118408203

> <b_mmod_Minimization_Converged-OPLS-2005>
0

> <r_mmod_RMS_Derivative-OPLS-2005>
4.28468418121338

$$$$
42
                    3D
 Structure written by MMmdl.
193201  0  0  1  0            999 V2000
  -30.7420  -14.5570   20.6247 C   0  0  0  0  0  0
  -30.4079  -12.3722   19.4663 C   0  0  0  0  0  0
  -29.5001  -12.5162   18.2287 C   0  0  0  0  0  0
  -28.0259  -12.3385   18.6299 C   0  0  0  0  0  0
  -27.6475  -13.2142   19.8491 C   0  0  2  0  0  0
  -28.6791  -13.0956   20.9906 C   0  0  0  0  0  0
  -25.2546  -13.8171   20.5648 C   0  0  0  0  0  0
  -24.1819  -13.0435   20.9175 C   0  0  0  0  0  0
  -24.6384  -11.6909   20.8725 C   0  0  0  0  0  0
  -23.9055  -10.4295   21.0405 C   0  0  0  0  0  0
  -24.3609   -9.4213   21.9184 C   0  0  0  0  0  0
  -23.6288   -8.2248   22.0758 C   0  0  0  0  0  0
  -22.4272   -8.0280   21.3545 C   0  0  0  0  0  0
  -21.9902   -9.0254   20.4648 C   0  0  0  0  0  0
  -22.7226  -10.2135   20.3055 C   0  0  0  0  0  0
  -21.6854   -6.0732   22.5279 C   0  0  0  0  0  0
  -21.4016   -6.5636   23.8211 C   0  0  0  0  0  0
  -21.3659   -5.6791   24.9173 C   0  0  0  0  0  0
  -21.6044   -4.3053   24.7224 C   0  0  0  0  0  0
  -21.8819   -3.8145   23.4346 C   0  0  0  0  0  0
  -21.9193   -4.6960   22.3402 C   0  0  0  0  0  0
  -22.7847  -13.5235   21.1852 C   0  0  0  0  0  0
  -22.1661   -4.2146   21.0978 F   0  0  0  0  0  0
  -21.5627   -3.4537   25.7737 F   0  0  0  0  0  0
  -30.0153  -13.4011   20.4594 N   0  0  0  0  0  0
  -26.2949  -12.9344   20.3217 N   0  0  0  0  0  0
  -25.9302  -11.6503   20.5703 N   0  0  0  0  0  0
  -22.0496  -12.8226   22.0417 N   0  0  0  0  0  0
  -25.4250  -15.1887   20.4076 N   0  0  0  0  0  0
  -31.8046  -14.6683   20.0046 O   0  0  0  0  0  0
  -21.6638   -6.8876   21.4240 O   0  0  0  0  0  0
  -22.3526  -14.5535   20.6699 O   0  0  0  0  0  0
  -24.6218  -31.8633   23.2064 C   0  0  0  0  0  0
  -25.9090  -32.4794   23.8374 C   0  0  1  0  0  0
  -27.2179  -27.3555   20.1107 C   0  0  0  0  0  0
  -25.5930  -33.8595   24.2301 N   0  0  0  0  0  0
  -23.4131  -30.4875   21.5494 C   0  0  2  0  0  0
  -24.8575  -28.9539   20.1088 C   0  0  0  0  0  0
  -22.7460  -29.4620   22.4960 C   0  0  0  0  0  0
  -18.0282  -28.1362   22.8480 C   0  0  0  0  0  0
  -24.1491  -36.7294   23.2635 C   0  0  0  0  0  0
  -25.9509  -30.8059   21.3721 C   0  0  0  0  0  0
  -26.0253  -29.4380   20.7121 C   0  0  0  0  0  0
  -27.2100  -28.6498   20.7046 C   0  0  0  0  0  0
  -26.0280  -26.9187   19.4804 C   0  0  0  0  0  0
  -24.8593  -27.6986   19.4839 C   0  0  0  0  0  0
  -23.6240  -29.8285   20.1619 C   0  0  0  0  0  0
  -25.4114  -36.3089   24.0325 C   0  0  1  0  0  0
  -20.5878  -28.3660   23.1296 C   0  0  2  0  0  0
  -20.6773  -26.9387   22.5410 C   0  0  0  0  0  0
  -19.5755  -26.6369   21.5201 C   0  0  0  0  0  0
  -18.1932  -26.7910   22.1609 C   0  0  0  0  0  0
  -19.1533  -28.8829   23.2883 C   0  0  0  0  0  0
  -18.9462  -30.1438   23.8885 C   0  0  0  0  0  0
  -17.6464  -30.6574   24.0551 C   0  0  0  0  0  0
  -25.9048  -34.9461   23.5106 C   0  0  0  0  0  0
  -16.5353  -29.9069   23.6325 C   0  0  0  0  0  0
  -16.7270  -28.6487   23.0341 C   0  0  0  0  0  0
  -26.4494  -31.6586   25.0725 C   0  0  0  0  0  0
  -25.3742  -31.3709   26.1461 C   0  0  0  0  0  0
  -27.0335  -30.3020   24.6139 C   0  0  0  0  0  0
  -27.6054  -32.4322   25.7498 C   0  0  0  0  0  0
  -27.5587  -37.1800   24.8461 C   0  0  0  0  0  0
  -21.4176  -29.3022   22.3703 N   0  0  0  0  0  0
  -26.4292  -37.3784   23.9412 N   0  0  0  0  0  0
  -24.6807  -31.0678   22.0998 N   0  0  0  0  0  0
  -23.4202  -28.8156   23.3020 O   0  0  0  0  0  0
  -28.3385  -26.5234   20.1695 O   0  0  0  0  0  0
  -26.5611  -34.8922   22.4671 O   0  0  0  0  0  0
  -23.5392  -32.1417   23.7418 O   0  0  0  0  0  0
  -29.2102  -19.2614   20.6970 C   0  0  0  0  0  0
  -29.4492  -20.0484   19.5791 C   0  0  0  0  0  0
  -29.7867  -19.0243   18.6087 C   0  0  0  0  0  0
  -27.9855  -18.6050   16.0856 C   0  0  0  0  0  0
  -27.1119  -21.3943   18.1086 C   0  0  0  0  0  0
  -31.9667  -21.7771   20.0741 C   0  0  0  0  0  0
  -31.7843  -18.7606   17.1105 C   0  0  0  0  0  0
  -29.6069  -24.5657   22.0746 C   0  0  0  0  0  0
  -27.5914  -22.1671   21.2244 C   0  0  0  0  0  0
  -28.0990  -16.9408   22.2926 C   0  0  0  0  0  0
  -30.2908  -15.2173   23.0525 C   0  0  0  0  0  0
  -31.5966  -16.7313   21.6721 C   0  0  0  0  0  0
  -29.4745  -18.2446   16.1792 C   0  0  0  0  0  0
  -28.5274  -22.0007   18.1634 C   0  0  0  0  0  0
  -30.8950  -22.0245   18.9965 C   0  0  0  0  0  0
  -28.0864  -25.0766   20.1261 C   0  0  0  0  0  0
  -30.2877  -19.1090   17.1728 C   0  0  1  0  0  0
  -29.2256  -24.1152   20.6507 C   0  0  2  0  0  0
  -28.9802  -22.5152   20.6418 C   0  0  2  0  0  0
  -29.0954  -16.6419   21.1517 C   0  0  2  0  0  0
  -29.4332  -21.6237   19.3780 C   0  0  0  0  0  0
  -30.3712  -15.7693   21.5962 C   0  0  0  0  0  0
  -29.7124  -17.7901   19.0991 N   0  0  0  0  0  0
  -29.3437  -17.9014   20.3804 N   0  0  0  0  0  0
  -31.4560  -12.4379   19.1701 H   0  0  0  0  0  0
  -30.2981  -11.3782   19.9032 H   0  0  0  0  0  0
  -29.7727  -11.7800   17.4716 H   0  0  0  0  0  0
  -29.6468  -13.4976   17.7744 H   0  0  0  0  0  0
  -27.8690  -11.2854   18.8659 H   0  0  0  0  0  0
  -27.3725  -12.5627   17.7858 H   0  0  0  0  0  0
  -27.6604  -14.2409   19.4890 H   0  0  0  0  0  0
  -28.6698  -12.0951   21.4253 H   0  0  0  0  0  0
  -28.3707  -13.7729   21.7772 H   0  0  0  0  0  0
  -25.2757   -9.5691   22.4756 H   0  0  0  0  0  0
  -23.9998   -7.4643   22.7481 H   0  0  0  0  0  0
  -21.0832   -8.8766   19.8957 H   0  0  0  0  0  0
  -22.3679  -10.9670   19.6163 H   0  0  0  0  0  0
  -21.2012   -7.6145   23.9711 H   0  0  0  0  0  0
  -21.1479   -6.0521   25.9075 H   0  0  0  0  0  0
  -22.0600   -2.7607   23.2845 H   0  0  0  0  0  0
  -22.4114  -11.9885   22.4797 H   0  0  0  0  0  0
  -21.1115  -13.1252   22.2628 H   0  0  0  0  0  0
  -24.6584  -15.8418   20.5244 H   0  0  0  0  0  0
  -26.2740  -15.6299   20.0798 H   0  0  0  0  0  0
  -26.7158  -32.5481   23.1124 H   0  0  0  0  0  0
  -25.0101  -33.9746   25.0463 H   0  0  0  0  0  0
  -22.7035  -31.3059   21.4123 H   0  0  0  0  0  0
  -23.3754  -35.9628   23.3291 H   0  0  0  0  0  0
  -24.3586  -36.8927   22.2054 H   0  0  0  0  0  0
  -23.7240  -37.6491   23.6663 H   0  0  0  0  0  0
  -26.0795  -31.5729   20.6075 H   0  0  0  0  0  0
  -26.8314  -30.8513   22.0003 H   0  0  0  0  0  0
  -28.1063  -29.0137   21.1880 H   0  0  0  0  0  0
  -25.9713  -25.9600   18.9870 H   0  0  0  0  0  0
  -23.9638  -27.3236   19.0063 H   0  0  0  0  0  0
  -23.7399  -30.6079   19.4075 H   0  0  0  0  0  0
  -22.7449  -29.2562   19.8611 H   0  0  0  0  0  0
  -25.1289  -36.1948   25.0816 H   0  0  0  0  0  0
  -20.9958  -28.3225   24.1417 H   0  0  0  0  0  0
  -20.5674  -26.2257   23.3598 H   0  0  0  0  0  0
  -21.6647  -26.7428   22.1207 H   0  0  0  0  0  0
  -19.6919  -25.6283   21.1226 H   0  0  0  0  0  0
  -19.6697  -27.3183   20.6736 H   0  0  0  0  0  0
  -17.4204  -26.6648   21.4010 H   0  0  0  0  0  0
  -18.0332  -26.0049   22.8999 H   0  0  0  0  0  0
  -19.7942  -30.7250   24.2246 H   0  0  0  0  0  0
  -17.5023  -31.6251   24.5161 H   0  0  0  0  0  0
  -15.5352  -30.2964   23.7660 H   0  0  0  0  0  0
  -15.8667  -28.0811   22.7047 H   0  0  0  0  0  0
  -24.5920  -30.7049   25.7800 H   0  0  0  0  0  0
  -24.8923  -32.2870   26.4889 H   0  0  0  0  0  0
  -25.8083  -30.8896   27.0232 H   0  0  0  0  0  0
  -26.2896  -29.6770   24.1182 H   0  0  0  0  0  0
  -27.4081  -29.7271   25.4618 H   0  0  0  0  0  0
  -27.8746  -30.4323   23.9322 H   0  0  0  0  0  0
  -27.2662  -33.3626   26.2068 H   0  0  0  0  0  0
  -28.3868  -32.6878   25.0328 H   0  0  0  0  0  0
  -28.0712  -31.8450   26.5423 H   0  0  0  0  0  0
  -28.2581  -38.0122   24.7546 H   0  0  0  0  0  0
  -28.1107  -36.2654   24.6239 H   0  0  0  0  0  0
  -27.2311  -37.1394   25.8864 H   0  0  0  0  0  0
  -20.9344  -29.8763   21.6939 H   0  0  0  0  0  0
  -26.0172  -38.2852   24.1439 H   0  0  0  0  0  0
  -28.9328  -19.5591   21.6979 H   0  0  0  0  0  0
  -27.4895  -18.0099   15.3185 H   0  0  0  0  0  0
  -27.8492  -19.6552   15.8287 H   0  0  0  0  0  0
  -27.4726  -18.4148   17.0284 H   0  0  0  0  0  0
  -26.6901  -21.5168   17.1110 H   0  0  0  0  0  0
  -26.4205  -21.8808   18.7907 H   0  0  0  0  0  0
  -27.1061  -20.3296   18.3338 H   0  0  0  0  0  0
  -32.9616  -21.9732   19.6746 H   0  0  0  0  0  0
  -31.9570  -20.7456   20.4260 H   0  0  0  0  0  0
  -31.8359  -22.4299   20.9361 H   0  0  0  0  0  0
  -32.3643  -19.4118   17.7649 H   0  0  0  0  0  0
  -32.1752  -18.8722   16.0996 H   0  0  0  0  0  0
  -31.9653  -17.7332   17.4277 H   0  0  0  0  0  0
  -29.8831  -25.6204   22.0945 H   0  0  0  0  0  0
  -30.4619  -24.0082   22.4580 H   0  0  0  0  0  0
  -28.7794  -24.4332   22.7713 H   0  0  0  0  0  0
  -27.5382  -22.4316   22.2801 H   0  0  0  0  0  0
  -27.3536  -21.1086   21.1485 H   0  0  0  0  0  0
  -26.7866  -22.7047   20.7292 H   0  0  0  0  0  0
  -27.6785  -16.0297   22.7160 H   0  0  0  0  0  0
  -27.2517  -17.5234   21.9292 H   0  0  0  0  0  0
  -28.5674  -17.5076   23.0974 H   0  0  0  0  0  0
  -30.3769  -16.0181   23.7878 H   0  0  0  0  0  0
  -31.1074  -14.5225   23.2575 H   0  0  0  0  0  0
  -29.3735  -14.6934   23.3000 H   0  0  0  0  0  0
  -31.3949  -17.5828   22.3226 H   0  0  0  0  0  0
  -31.8736  -17.1346   20.6973 H   0  0  0  0  0  0
  -32.4816  -16.2299   22.0672 H   0  0  0  0  0  0
  -29.9133  -18.3446   15.1859 H   0  0  0  0  0  0
  -29.5701  -17.1898   16.4401 H   0  0  0  0  0  0
  -28.4587  -23.0794   18.0666 H   0  0  0  0  0  0
  -29.0112  -21.7179   17.2353 H   0  0  0  0  0  0
  -31.2141  -21.4830   18.1116 H   0  0  0  0  0  0
  -30.9502  -23.0601   18.6680 H   0  0  0  0  0  0
  -27.1929  -24.8790   20.7189 H   0  0  0  0  0  0
  -27.8441  -24.8179   19.0990 H   0  0  0  0  0  0
  -30.2080  -20.1207   16.7991 H   0  0  0  0  0  0
  -30.1004  -24.3468   20.0513 H   0  0  0  0  0  0
  -29.6504  -22.1391   21.4138 H   0  0  0  0  0  0
  -28.5288  -16.0159   20.4662 H   0  0  0  0  0  0
  1 25  1  0  0  0
  1 30  2  0  0  0
  1 92  1  0  0  0
  2  3  1  0  0  0
  2 25  1  0  0  0
  2 95  1  0  0  0
  2 96  1  0  0  0
  3  4  1  0  0  0
  3 97  1  0  0  0
  3 98  1  0  0  0
  4  5  1  0  0  0
  4 99  1  0  0  0
  4100  1  0  0  0
  5  6  1  0  0  0
  5 26  1  0  0  0
  5101  1  0  0  0
  6 25  1  0  0  0
  6102  1  0  0  0
  6103  1  0  0  0
  7  8  2  0  0  0
  7 26  1  0  0  0
  7 29  1  0  0  0
  8  9  1  0  0  0
  8 22  1  0  0  0
  9 10  1  0  0  0
  9 27  2  0  0  0
 10 11  2  0  0  0
 10 15  1  0  0  0
 11 12  1  0  0  0
 11104  1  0  0  0
 12 13  2  0  0  0
 12105  1  0  0  0
 13 14  1  0  0  0
 13 31  1  0  0  0
 14 15  2  0  0  0
 14106  1  0  0  0
 15107  1  0  0  0
 16 17  2  0  0  0
 16 21  1  0  0  0
 16 31  1  0  0  0
 17 18  1  0  0  0
 17108  1  0  0  0
 18 19  2  0  0  0
 18109  1  0  0  0
 19 20  1  0  0  0
 19 24  1  0  0  0
 20 21  2  0  0  0
 20110  1  0  0  0
 21 23  1  0  0  0
 22 28  1  0  0  0
 22 32  2  0  0  0
 26 27  1  0  0  0
 28111  1  0  0  0
 28112  1  0  0  0
 29113  1  0  0  0
 29114  1  0  0  0
 33 34  1  0  0  0
 33 66  1  0  0  0
 33 70  2  0  0  0
 34 36  1  0  0  0
 34 59  1  0  0  0
 34115  1  0  0  0
 35 44  2  0  0  0
 35 45  1  0  0  0
 35 68  1  0  0  0
 36 56  1  0  0  0
 36116  1  0  0  0
 37 39  1  0  0  0
 37 47  1  0  0  0
 37 66  1  0  0  0
 37117  1  0  0  0
 38 43  2  0  0  0
 38 46  1  0  0  0
 38 47  1  0  0  0
 39 64  1  0  0  0
 39 67  2  0  0  0
 40 52  1  0  0  0
 40 53  2  0  0  0
 40 58  1  0  0  0
 41118  1  0  0  0
 41119  1  0  0  0
 41120  1  0  0  0
 41 48  1  0  0  0
 42 43  1  0  0  0
 42 66  1  0  0  0
 42121  1  0  0  0
 42122  1  0  0  0
 43 44  1  0  0  0
 44123  1  0  0  0
 45 46  2  0  0  0
 45124  1  0  0  0
 46125  1  0  0  0
 47126  1  0  0  0
 47127  1  0  0  0
 48 56  1  0  0  0
 48 65  1  0  0  0
 48128  1  0  0  0
 49 50  1  0  0  0
 49 53  1  0  0  0
 49 64  1  0  0  0
 49129  1  0  0  0
 50 51  1  0  0  0
 50130  1  0  0  0
 50131  1  0  0  0
 51 52  1  0  0  0
 51132  1  0  0  0
 51133  1  0  0  0
 52134  1  0  0  0
 52135  1  0  0  0
 53 54  1  0  0  0
 54 55  2  0  0  0
 54136  1  0  0  0
 55 57  1  0  0  0
 55137  1  0  0  0
 56 69  2  0  0  0
 57 58  2  0  0  0
 57138  1  0  0  0
 58139  1  0  0  0
 59 60  1  0  0  0
 59 61  1  0  0  0
 59 62  1  0  0  0
 60140  1  0  0  0
 60141  1  0  0  0
 60142  1  0  0  0
 61143  1  0  0  0
 61144  1  0  0  0
 61145  1  0  0  0
 62146  1  0  0  0
 62147  1  0  0  0
 62148  1  0  0  0
 63 65  1  0  0  0
 63149  1  0  0  0
 63150  1  0  0  0
 63151  1  0  0  0
 64152  1  0  0  0
 65153  1  0  0  0
 68 86  1  0  0  0
 71 72  2  0  0  0
 71 94  1  0  0  0
 71154  1  0  0  0
 72 73  1  0  0  0
 72 91  1  0  0  0
 73 87  1  0  0  0
 73 93  2  0  0  0
 74 83  1  0  0  0
 74155  1  0  0  0
 74156  1  0  0  0
 74157  1  0  0  0
 75 84  1  0  0  0
 75158  1  0  0  0
 75159  1  0  0  0
 75160  1  0  0  0
 76 85  1  0  0  0
 76161  1  0  0  0
 76162  1  0  0  0
 76163  1  0  0  0
 77164  1  0  0  0
 77165  1  0  0  0
 77166  1  0  0  0
 77 87  1  0  0  0
 78167  1  0  0  0
 78168  1  0  0  0
 78169  1  0  0  0
 78 88  1  0  0  0
 79170  1  0  0  0
 79171  1  0  0  0
 79172  1  0  0  0
 79 89  1  0  0  0
 80173  1  0  0  0
 80174  1  0  0  0
 80175  1  0  0  0
 80 90  1  0  0  0
 81176  1  0  0  0
 81177  1  0  0  0
 81178  1  0  0  0
 81 92  1  0  0  0
 82 92  1  0  0  0
 82179  1  0  0  0
 82180  1  0  0  0
 82181  1  0  0  0
 83 87  1  0  0  0
 83182  1  0  0  0
 83183  1  0  0  0
 84184  1  0  0  0
 84185  1  0  0  0
 84 91  1  0  0  0
 85 91  1  0  0  0
 85186  1  0  0  0
 85187  1  0  0  0
 86 88  1  0  0  0
 86188  1  0  0  0
 86189  1  0  0  0
 87190  1  0  0  0
 88 89  1  0  0  0
 88191  1  0  0  0
 89 91  1  0  0  0
 89192  1  0  0  0
 90 92  1  0  0  0
 90 94  1  0  0  0
 90193  1  0  0  0
 93 94  1  0  0  0
M  ISO  4   1 100  68 101  86 101  92 100
M  END
> <chiral flag>
0

> <version>
0

> <s_m_source_file>
/data/baiqing/PycharmProjects/Reinvent-master-3.2/result/LINK_invent/BTK/process_docking_weight1_custom_sum_contain_oxygen_bond_distance_aromatic_linkinvent_7_9_3/rearranged_h_0066.sdf

> <i_m_source_file_index>
41

> <r_mmod_Potential_Energy-OPLS-2005>
177.340728759766

> <r_mmod_Stretch_Energy-OPLS-2005>
99.0564422607422

> <r_mmod_Bend_Energy-OPLS-2005>
182.370361328125

> <r_mmod_Torsional_Energy-OPLS-2005>
253.35075378418

> <r_mmod_Improper_Torsional_Energy-OPLS-2005>
2.05447912216187

> <r_mmod_Van_der_Waal_Energy-OPLS-2005>
140.47966003418

> <r_mmod_Electrostatic_Energy-OPLS-2005>
-363.723297119141

> <r_mmod_Solvation_Energy-OPLS-2005>
-168.917495727539

> <b_mmod_Minimization_Converged-OPLS-2005>
0

> <r_mmod_RMS_Derivative-OPLS-2005>
0.891680777072906

$$$$
43
                    3D
 Structure written by MMmdl.
191199  0  0  1  0            999 V2000
  -30.6540  -14.5279   20.3523 C   0  0  0  0  0  0
  -30.4365  -12.2613   19.4664 C   0  0  0  0  0  0
  -29.5124  -12.3420   18.2355 C   0  0  0  0  0  0
  -28.0166  -12.3038   18.6387 C   0  0  0  0  0  0
  -27.6514  -13.1820   19.8732 C   0  0  2  0  0  0
  -28.7098  -13.0494   20.9891 C   0  0  0  0  0  0
  -25.2571  -13.8081   20.5696 C   0  0  0  0  0  0
  -24.1795  -13.0404   20.9200 C   0  0  0  0  0  0
  -24.6319  -11.6861   20.8779 C   0  0  0  0  0  0
  -23.8986  -10.4251   21.0440 C   0  0  0  0  0  0
  -24.3560   -9.4162   21.9210 C   0  0  0  0  0  0
  -23.6231   -8.2206   22.0756 C   0  0  0  0  0  0
  -22.4232   -8.0240   21.3541 C   0  0  0  0  0  0
  -21.9861   -9.0218   20.4651 C   0  0  0  0  0  0
  -22.7164  -10.2099   20.3067 C   0  0  0  0  0  0
  -21.6815   -6.0716   22.5282 C   0  0  0  0  0  0
  -21.4001   -6.5628   23.8218 C   0  0  0  0  0  0
  -21.3662   -5.6790   24.9187 C   0  0  0  0  0  0
  -21.6053   -4.3053   24.7237 C   0  0  0  0  0  0
  -21.8814   -3.8140   23.4359 C   0  0  0  0  0  0
  -21.9168   -4.6954   22.3405 C   0  0  0  0  0  0
  -22.7823  -13.5233   21.1850 C   0  0  0  0  0  0
  -22.1627   -4.2143   21.0979 F   0  0  0  0  0  0
  -21.5636   -3.4534   25.7753 F   0  0  0  0  0  0
  -30.0236  -13.3240   20.3884 N   0  0  0  0  0  0
  -26.2975  -12.9179   20.3449 N   0  0  0  0  0  0
  -25.9242  -11.6382   20.5887 N   0  0  0  0  0  0
  -22.0433  -12.8279   22.0415 N   0  0  0  0  0  0
  -25.4308  -15.1804   20.4050 N   0  0  0  0  0  0
  -31.8715  -14.6337   20.1924 O   0  0  0  0  0  0
  -21.6587   -6.8853   21.4237 O   0  0  0  0  0  0
  -22.3521  -14.5523   20.6638 O   0  0  0  0  0  0
  -24.6100  -31.8730   23.2134 C   0  0  0  0  0  0
  -25.9015  -32.4847   23.8420 C   0  0  1  0  0  0
  -27.2318  -27.4702   20.0961 C   0  0  0  0  0  0
  -25.5896  -33.8646   24.2354 N   0  0  0  0  0  0
  -23.3947  -30.4968   21.5542 C   0  0  2  0  0  0
  -24.8387  -28.9673   20.1158 C   0  0  0  0  0  0
  -22.7384  -29.4687   22.5023 C   0  0  0  0  0  0
  -18.0266  -28.1380   22.8500 C   0  0  0  0  0  0
  -24.1488  -36.7319   23.2637 C   0  0  0  0  0  0
  -25.9185  -30.8521   21.3566 C   0  0  0  0  0  0
  -25.9972  -29.4891   20.7033 C   0  0  0  0  0  0
  -27.1974  -28.7500   20.6852 C   0  0  0  0  0  0
  -26.0551  -26.9517   19.5081 C   0  0  0  0  0  0
  -24.8612  -27.6967   19.5153 C   0  0  0  0  0  0
  -23.5983  -29.8284   20.1680 C   0  0  0  0  0  0
  -25.4110  -36.3130   24.0345 C   0  0  1  0  0  0
  -20.5856  -28.3665   23.1335 C   0  0  2  0  0  0
  -20.6765  -26.9409   22.5418 C   0  0  0  0  0  0
  -19.5743  -26.6392   21.5216 C   0  0  0  0  0  0
  -18.1920  -26.7929   22.1624 C   0  0  0  0  0  0
  -19.1515  -28.8836   23.2915 C   0  0  0  0  0  0
  -18.9445  -30.1443   23.8920 C   0  0  0  0  0  0
  -17.6450  -30.6590   24.0563 C   0  0  0  0  0  0
  -25.9036  -34.9489   23.5143 C   0  0  0  0  0  0
  -16.5341  -29.9092   23.6324 C   0  0  0  0  0  0
  -16.7256  -28.6505   23.0352 C   0  0  0  0  0  0
  -26.4454  -31.6613   25.0725 C   0  0  0  0  0  0
  -25.3733  -31.3696   26.1482 C   0  0  0  0  0  0
  -27.0272  -30.3069   24.6054 C   0  0  0  0  0  0
  -27.6052  -32.4317   25.7473 C   0  0  0  0  0  0
  -27.5588  -37.1815   24.8466 C   0  0  0  0  0  0
  -21.4121  -29.3037   22.3752 N   0  0  0  0  0  0
  -26.4299  -37.3809   23.9414 N   0  0  0  0  0  0
  -24.6595  -31.0871   22.1007 N   0  0  0  0  0  0
  -23.4173  -28.8236   23.3057 O   0  0  0  0  0  0
  -28.4151  -26.7727   20.1063 O   0  0  0  0  0  0
  -26.5586  -34.8931   22.4700 O   0  0  0  0  0  0
  -23.5309  -32.1461   23.7563 O   0  0  0  0  0  0
  -30.5714  -17.4064   18.2971 C   0  0  0  0  0  0
  -31.5448  -18.8744   17.1974 C   0  0  0  0  0  0
  -32.4834  -19.5508   16.2522 C   0  0  0  0  0  0
  -29.0418  -15.9481   16.0725 C   0  0  0  0  0  0
  -28.2126  -22.3909   15.2242 C   0  0  0  0  0  0
  -31.8530  -20.9539   19.7690 C   0  0  0  0  0  0
  -30.4771  -21.9542   21.4907 C   0  0  0  0  0  0
  -31.6623  -23.4450   19.9114 C   0  0  0  0  0  0
  -30.9082  -22.5811   16.8522 C   0  0  0  0  0  0
  -29.2226  -16.4478   20.8296 C   0  0  0  0  0  0
  -28.7923  -15.7914   17.5841 C   0  0  0  0  0  0
  -28.4544  -22.6472   16.7278 C   0  0  0  0  0  0
  -28.5371  -24.4986   19.2659 C   0  0  0  0  0  0
  -28.4198  -22.9926   19.5880 C   0  0  0  0  0  0
  -29.5260  -20.4303   16.9684 C   0  0  0  0  0  0
  -28.3342  -25.4018   20.4872 C   0  0  0  0  0  0
  -30.0437  -16.0067   18.4873 C   0  0  2  0  0  0
  -29.5590  -22.0473   19.0653 C   0  0  2  0  0  0
  -30.8663  -22.1178   19.9957 C   0  0  0  0  0  0
  -29.6486  -21.9156   17.4560 C   0  0  1  0  0  0
  -31.7714  -17.6605   17.6964 N   0  0  0  0  0  0
  -29.7393  -18.4458   18.3477 N   0  0  0  0  0  0
  -30.3381  -19.3605   17.5411 N   0  0  0  0  0  0
  -29.8547  -15.5220   19.8853 N   0  0  0  0  0  0
  -31.4800  -12.3595   19.1647 H   0  0  0  0  0  0
  -30.3536  -11.2874   19.9523 H   0  0  0  0  0  0
  -29.7248  -11.5025   17.5712 H   0  0  0  0  0  0
  -29.7580  -13.2223   17.6506 H   0  0  0  0  0  0
  -27.7855  -11.2600   18.8561 H   0  0  0  0  0  0
  -27.3866  -12.5727   17.7890 H   0  0  0  0  0  0
  -27.6431  -14.2173   19.5594 H   0  0  0  0  0  0
  -28.6983  -12.0441   21.4138 H   0  0  0  0  0  0
  -28.4952  -13.7298   21.8137 H   0  0  0  0  0  0
  -25.2711   -9.5606   22.4789 H   0  0  0  0  0  0
  -23.9926   -7.4577   22.7472 H   0  0  0  0  0  0
  -21.0790   -8.8687   19.8968 H   0  0  0  0  0  0
  -22.3605  -10.9612   19.6167 H   0  0  0  0  0  0
  -21.1992   -7.6139   23.9702 H   0  0  0  0  0  0
  -21.1499   -6.0540   25.9085 H   0  0  0  0  0  0
  -22.0603   -2.7604   23.2847 H   0  0  0  0  0  0
  -22.3993  -11.9948   22.4851 H   0  0  0  0  0  0
  -21.1050  -13.1342   22.2575 H   0  0  0  0  0  0
  -24.6658  -15.8369   20.5107 H   0  0  0  0  0  0
  -26.2950  -15.6185   20.1107 H   0  0  0  0  0  0
  -26.7086  -32.5567   23.1193 H   0  0  0  0  0  0
  -25.0076  -33.9828   25.0517 H   0  0  0  0  0  0
  -22.6810  -31.3122   21.4181 H   0  0  0  0  0  0
  -23.3759  -35.9642   23.3308 H   0  0  0  0  0  0
  -24.3583  -36.8920   22.2049 H   0  0  0  0  0  0
  -23.7228  -37.6525   23.6635 H   0  0  0  0  0  0
  -26.0216  -31.6208   20.5895 H   0  0  0  0  0  0
  -26.8102  -30.9077   21.9694 H   0  0  0  0  0  0
  -28.0948  -29.1525   21.1343 H   0  0  0  0  0  0
  -26.0473  -25.9802   19.0386 H   0  0  0  0  0  0
  -23.9671  -27.2900   19.0628 H   0  0  0  0  0  0
  -23.6974  -30.6019   19.4064 H   0  0  0  0  0  0
  -22.7230  -29.2447   19.8774 H   0  0  0  0  0  0
  -25.1282  -36.2008   25.0838 H   0  0  0  0  0  0
  -20.9941  -28.3224   24.1459 H   0  0  0  0  0  0
  -20.5696  -26.2268   23.3601 H   0  0  0  0  0  0
  -21.6637  -26.7480   22.1195 H   0  0  0  0  0  0
  -19.6916  -25.6306   21.1237 H   0  0  0  0  0  0
  -19.6684  -27.3209   20.6753 H   0  0  0  0  0  0
  -17.4196  -26.6682   21.4017 H   0  0  0  0  0  0
  -18.0317  -26.0060   22.9009 H   0  0  0  0  0  0
  -19.7920  -30.7253   24.2305 H   0  0  0  0  0  0
  -17.5003  -31.6275   24.5162 H   0  0  0  0  0  0
  -15.5344  -30.3003   23.7640 H   0  0  0  0  0  0
  -15.8650  -28.0828   22.7071 H   0  0  0  0  0  0
  -24.5905  -30.7047   25.7811 H   0  0  0  0  0  0
  -24.8915  -32.2836   26.4966 H   0  0  0  0  0  0
  -25.8095  -30.8836   27.0220 H   0  0  0  0  0  0
  -26.2794  -29.6852   24.1114 H   0  0  0  0  0  0
  -27.4077  -29.7282   25.4484 H   0  0  0  0  0  0
  -27.8612  -30.4415   23.9160 H   0  0  0  0  0  0
  -27.2700  -33.3616   26.2083 H   0  0  0  0  0  0
  -28.3835  -32.6891   25.0272 H   0  0  0  0  0  0
  -28.0747  -31.8417   26.5356 H   0  0  0  0  0  0
  -28.2612  -38.0109   24.7533 H   0  0  0  0  0  0
  -28.1080  -36.2649   24.6268 H   0  0  0  0  0  0
  -27.2304  -37.1431   25.8866 H   0  0  0  0  0  0
  -20.9286  -29.8732   21.6948 H   0  0  0  0  0  0
  -26.0200  -38.2891   24.1416 H   0  0  0  0  0  0
  -33.0697  -18.8048   15.7152 H   0  0  0  0  0  0
  -33.1680  -20.1962   16.8002 H   0  0  0  0  0  0
  -31.9506  -20.1491   15.5148 H   0  0  0  0  0  0
  -28.1348  -15.7221   15.5091 H   0  0  0  0  0  0
  -29.8187  -15.2656   15.7248 H   0  0  0  0  0  0
  -29.3448  -16.9621   15.8119 H   0  0  0  0  0  0
  -27.4388  -23.0639   14.8539 H   0  0  0  0  0  0
  -27.8482  -21.3806   15.0363 H   0  0  0  0  0  0
  -29.0963  -22.5598   14.6120 H   0  0  0  0  0  0
  -32.6940  -21.0025   20.4614 H   0  0  0  0  0  0
  -32.3045  -20.9510   18.7871 H   0  0  0  0  0  0
  -31.3771  -19.9875   19.9308 H   0  0  0  0  0  0
  -31.3531  -21.7988   22.1218 H   0  0  0  0  0  0
  -29.8155  -21.1014   21.6512 H   0  0  0  0  0  0
  -29.9910  -22.8370   21.9035 H   0  0  0  0  0  0
  -32.5499  -23.4040   20.5439 H   0  0  0  0  0  0
  -31.0911  -24.3000   20.2664 H   0  0  0  0  0  0
  -32.0242  -23.6859   18.9171 H   0  0  0  0  0  0
  -30.9716  -22.4261   15.7769 H   0  0  0  0  0  0
  -31.8410  -22.2049   17.2473 H   0  0  0  0  0  0
  -30.8971  -23.6608   17.0037 H   0  0  0  0  0  0
  -28.9956  -15.9768   21.7859 H   0  0  0  0  0  0
  -28.2862  -16.8278   20.4206 H   0  0  0  0  0  0
  -29.8784  -17.2957   21.0318 H   0  0  0  0  0  0
  -28.3718  -14.8047   17.7052 H   0  0  0  0  0  0
  -27.9994  -16.4756   17.8884 H   0  0  0  0  0  0
  -27.5022  -22.4017   17.1924 H   0  0  0  0  0  0
  -28.5808  -23.7234   16.8118 H   0  0  0  0  0  0
  -27.7834  -24.7568   18.5258 H   0  0  0  0  0  0
  -29.4904  -24.7227   18.7911 H   0  0  0  0  0  0
  -27.4498  -22.6409   19.2412 H   0  0  0  0  0  0
  -28.2818  -22.8684   20.6577 H   0  0  0  0  0  0
  -29.6957  -20.3828   15.8931 H   0  0  0  0  0  0
  -28.4865  -20.1214   17.0913 H   0  0  0  0  0  0
  -29.1189  -25.2182   21.2207 H   0  0  0  0  0  0
  -27.3964  -25.1674   20.9937 H   0  0  0  0  0  0
  -30.8011  -15.3637   18.0312 H   0  0  0  0  0  0
  -29.1422  -21.0794   19.3450 H   0  0  0  0  0  0
  1 25  1  0  0  0
  1 30  2  0  0  0
  1 94  1  0  0  0
  2  3  1  0  0  0
  2 25  1  0  0  0
  2 95  1  0  0  0
  2 96  1  0  0  0
  3  4  1  0  0  0
  3 97  1  0  0  0
  3 98  1  0  0  0
  4  5  1  0  0  0
  4 99  1  0  0  0
  4100  1  0  0  0
  5  6  1  0  0  0
  5 26  1  0  0  0
  5101  1  0  0  0
  6 25  1  0  0  0
  6102  1  0  0  0
  6103  1  0  0  0
  7  8  2  0  0  0
  7 26  1  0  0  0
  7 29  1  0  0  0
  8  9  1  0  0  0
  8 22  1  0  0  0
  9 10  1  0  0  0
  9 27  2  0  0  0
 10 11  2  0  0  0
 10 15  1  0  0  0
 11 12  1  0  0  0
 11104  1  0  0  0
 12 13  2  0  0  0
 12105  1  0  0  0
 13 14  1  0  0  0
 13 31  1  0  0  0
 14 15  2  0  0  0
 14106  1  0  0  0
 15107  1  0  0  0
 16 17  2  0  0  0
 16 21  1  0  0  0
 16 31  1  0  0  0
 17 18  1  0  0  0
 17108  1  0  0  0
 18 19  2  0  0  0
 18109  1  0  0  0
 19 20  1  0  0  0
 19 24  1  0  0  0
 20 21  2  0  0  0
 20110  1  0  0  0
 21 23  1  0  0  0
 22 28  1  0  0  0
 22 32  2  0  0  0
 26 27  1  0  0  0
 28111  1  0  0  0
 28112  1  0  0  0
 29113  1  0  0  0
 29114  1  0  0  0
 33 34  1  0  0  0
 33 66  1  0  0  0
 33 70  2  0  0  0
 34 36  1  0  0  0
 34 59  1  0  0  0
 34115  1  0  0  0
 35 44  2  0  0  0
 35 45  1  0  0  0
 35 68  1  0  0  0
 36 56  1  0  0  0
 36116  1  0  0  0
 37 39  1  0  0  0
 37 47  1  0  0  0
 37 66  1  0  0  0
 37117  1  0  0  0
 38 43  2  0  0  0
 38 46  1  0  0  0
 38 47  1  0  0  0
 39 64  1  0  0  0
 39 67  2  0  0  0
 40 52  1  0  0  0
 40 53  2  0  0  0
 40 58  1  0  0  0
 41118  1  0  0  0
 41119  1  0  0  0
 41120  1  0  0  0
 41 48  1  0  0  0
 42 43  1  0  0  0
 42 66  1  0  0  0
 42121  1  0  0  0
 42122  1  0  0  0
 43 44  1  0  0  0
 44123  1  0  0  0
 45 46  2  0  0  0
 45124  1  0  0  0
 46125  1  0  0  0
 47126  1  0  0  0
 47127  1  0  0  0
 48 56  1  0  0  0
 48 65  1  0  0  0
 48128  1  0  0  0
 49 50  1  0  0  0
 49 53  1  0  0  0
 49 64  1  0  0  0
 49129  1  0  0  0
 50 51  1  0  0  0
 50130  1  0  0  0
 50131  1  0  0  0
 51 52  1  0  0  0
 51132  1  0  0  0
 51133  1  0  0  0
 52134  1  0  0  0
 52135  1  0  0  0
 53 54  1  0  0  0
 54 55  2  0  0  0
 54136  1  0  0  0
 55 57  1  0  0  0
 55137  1  0  0  0
 56 69  2  0  0  0
 57 58  2  0  0  0
 57138  1  0  0  0
 58139  1  0  0  0
 59 60  1  0  0  0
 59 61  1  0  0  0
 59 62  1  0  0  0
 60140  1  0  0  0
 60141  1  0  0  0
 60142  1  0  0  0
 61143  1  0  0  0
 61144  1  0  0  0
 61145  1  0  0  0
 62146  1  0  0  0
 62147  1  0  0  0
 62148  1  0  0  0
 63 65  1  0  0  0
 63149  1  0  0  0
 63150  1  0  0  0
 63151  1  0  0  0
 64152  1  0  0  0
 65153  1  0  0  0
 68 86  1  0  0  0
 71 87  1  0  0  0
 71 91  1  0  0  0
 71 92  2  0  0  0
 72 73  1  0  0  0
 72 91  2  0  0  0
 72 93  1  0  0  0
 73154  1  0  0  0
 73155  1  0  0  0
 73156  1  0  0  0
 74 81  1  0  0  0
 74157  1  0  0  0
 74158  1  0  0  0
 74159  1  0  0  0
 75 82  1  0  0  0
 75160  1  0  0  0
 75161  1  0  0  0
 75162  1  0  0  0
 76163  1  0  0  0
 76164  1  0  0  0
 76165  1  0  0  0
 76 89  1  0  0  0
 77 89  1  0  0  0
 77166  1  0  0  0
 77167  1  0  0  0
 77168  1  0  0  0
 78 89  1  0  0  0
 78169  1  0  0  0
 78170  1  0  0  0
 78171  1  0  0  0
 79172  1  0  0  0
 79173  1  0  0  0
 79174  1  0  0  0
 79 90  1  0  0  0
 80 94  1  0  0  0
 80175  1  0  0  0
 80176  1  0  0  0
 80177  1  0  0  0
 81178  1  0  0  0
 81179  1  0  0  0
 81 87  1  0  0  0
 82 90  1  0  0  0
 82180  1  0  0  0
 82181  1  0  0  0
 83 84  1  0  0  0
 83 86  1  0  0  0
 83182  1  0  0  0
 83183  1  0  0  0
 84184  1  0  0  0
 84185  1  0  0  0
 84 88  1  0  0  0
 85 90  1  0  0  0
 85 93  1  0  0  0
 85186  1  0  0  0
 85187  1  0  0  0
 86188  1  0  0  0
 86189  1  0  0  0
 87 94  1  0  0  0
 87190  1  0  0  0
 88 89  1  0  0  0
 88 90  1  0  0  0
 88191  1  0  0  0
 92 93  1  0  0  0
M  ISO  4   1 100  68 101  86 101  94 100
M  END
> <chiral flag>
0

> <version>
0

> <s_m_source_file>
/data/baiqing/PycharmProjects/Reinvent-master-3.2/result/LINK_invent/BTK/process_docking_weight1_custom_sum_contain_oxygen_bond_distance_aromatic_linkinvent_7_9_3/rearranged_h_0066.sdf

> <i_m_source_file_index>
42

> <r_mmod_Potential_Energy-OPLS-2005>
288.383361816406

> <r_mmod_Stretch_Energy-OPLS-2005>
59.8110809326172

> <r_mmod_Bend_Energy-OPLS-2005>
180.940353393555

> <r_mmod_Torsional_Energy-OPLS-2005>
400.362487792969

> <r_mmod_Improper_Torsional_Energy-OPLS-2005>
27.9789447784424

> <r_mmod_Van_der_Waal_Energy-OPLS-2005>
158.896301269531

> <r_mmod_Electrostatic_Energy-OPLS-2005>
-379.083953857422

> <r_mmod_Solvation_Energy-OPLS-2005>
-192.969268798828

> <b_mmod_Minimization_Converged-OPLS-2005>
0

> <r_mmod_RMS_Derivative-OPLS-2005>
2.76082062721252

$$$$
45
                    3D
 Structure written by MMmdl.
163171  0  0  1  0            999 V2000
  -30.6956  -14.6552   20.4527 C   0  0  0  0  0  0
  -30.4360  -12.3928   19.4693 C   0  0  0  0  0  0
  -29.5230  -12.5030   18.2325 C   0  0  0  0  0  0
  -28.0471  -12.3278   18.6369 C   0  0  0  0  0  0
  -27.6594  -13.2209   19.8501 C   0  0  2  0  0  0
  -28.7112  -13.1489   20.9872 C   0  0  0  0  0  0
  -25.2596  -13.8202   20.5687 C   0  0  0  0  0  0
  -24.1866  -13.0453   20.9159 C   0  0  0  0  0  0
  -24.6416  -11.6926   20.8693 C   0  0  0  0  0  0
  -23.9050  -10.4320   21.0336 C   0  0  0  0  0  0
  -24.3607   -9.4245   21.9122 C   0  0  0  0  0  0
  -23.6297   -8.2277   22.0745 C   0  0  0  0  0  0
  -22.4280   -8.0308   21.3526 C   0  0  0  0  0  0
  -21.9899   -9.0264   20.4637 C   0  0  0  0  0  0
  -22.7203  -10.2146   20.3005 C   0  0  0  0  0  0
  -21.6856   -6.0710   22.5268 C   0  0  0  0  0  0
  -21.4041   -6.5582   23.8205 C   0  0  0  0  0  0
  -21.3658   -5.6740   24.9154 C   0  0  0  0  0  0
  -21.6062   -4.3012   24.7199 C   0  0  0  0  0  0
  -21.8816   -3.8107   23.4309 C   0  0  0  0  0  0
  -21.9213   -4.6941   22.3366 C   0  0  0  0  0  0
  -22.7909  -13.5276   21.1777 C   0  0  0  0  0  0
  -22.1666   -4.2099   21.0952 F   0  0  0  0  0  0
  -21.5626   -3.4504   25.7709 F   0  0  0  0  0  0
  -30.0291  -13.4539   20.4118 N   0  0  0  0  0  0
  -26.3029  -12.9381   20.3263 N   0  0  0  0  0  0
  -25.9361  -11.6522   20.5713 N   0  0  0  0  0  0
  -22.0456  -12.8381   22.0351 N   0  0  0  0  0  0
  -25.4340  -15.1946   20.4180 N   0  0  0  0  0  0
  -31.8603  -14.7500   20.0769 O   0  0  0  0  0  0
  -21.6645   -6.8891   21.4241 O   0  0  0  0  0  0
  -22.3610  -14.5529   20.6508 O   0  0  0  0  0  0
  -24.6310  -31.8576   23.2038 C   0  0  0  0  0  0
  -25.9163  -32.4770   23.8360 C   0  0  1  0  0  0
  -27.2309  -27.2799   20.0593 C   0  0  0  0  0  0
  -25.5989  -33.8573   24.2273 N   0  0  0  0  0  0
  -23.4261  -30.4809   21.5443 C   0  0  2  0  0  0
  -24.8697  -28.9230   20.0994 C   0  0  0  0  0  0
  -22.7497  -29.4627   22.4926 C   0  0  0  0  0  0
  -18.0271  -28.1411   22.8463 C   0  0  0  0  0  0
  -24.1475  -36.7274   23.2651 C   0  0  0  0  0  0
  -25.9735  -30.7524   21.3931 C   0  0  0  0  0  0
  -26.0374  -29.3776   20.7309 C   0  0  0  0  0  0
  -27.2061  -28.5507   20.7265 C   0  0  0  0  0  0
  -26.0555  -26.9136   19.3735 C   0  0  0  0  0  0
  -24.8828  -27.6942   19.4224 C   0  0  0  0  0  0
  -23.6430  -29.8136   20.1581 C   0  0  0  0  0  0
  -25.4100  -36.3075   24.0345 C   0  0  1  0  0  0
  -20.5891  -28.3730   23.1249 C   0  0  2  0  0  0
  -20.6762  -26.9432   22.5405 C   0  0  0  0  0  0
  -19.5751  -26.6377   21.5205 C   0  0  0  0  0  0
  -18.1935  -26.7927   22.1608 C   0  0  0  0  0  0
  -19.1523  -28.8856   23.2850 C   0  0  0  0  0  0
  -18.9464  -30.1436   23.8882 C   0  0  0  0  0  0
  -17.6477  -30.6621   24.0529 C   0  0  0  0  0  0
  -25.9066  -34.9462   23.5116 C   0  0  0  0  0  0
  -16.5338  -29.9128   23.6318 C   0  0  0  0  0  0
  -16.7268  -28.6525   23.0363 C   0  0  0  0  0  0
  -26.4515  -31.6622   25.0774 C   0  0  0  0  0  0
  -25.3752  -31.3798   26.1531 C   0  0  0  0  0  0
  -27.0399  -30.3040   24.6303 C   0  0  0  0  0  0
  -27.6051  -32.4406   25.7543 C   0  0  0  0  0  0
  -27.5567  -37.1796   24.8453 C   0  0  0  0  0  0
  -21.4199  -29.3107   22.3671 N   0  0  0  0  0  0
  -26.4246  -37.3796   23.9458 N   0  0  0  0  0  0
  -24.6961  -31.0518   22.0998 N   0  0  0  0  0  0
  -23.4200  -28.8166   23.3025 O   0  0  0  0  0  0
  -28.3320  -26.3919   20.1213 O   0  0  0  0  0  0
  -26.5618  -34.8942   22.4659 O   0  0  0  0  0  0
  -23.5489  -32.1393   23.7351 O   0  0  0  0  0  0
  -29.6482  -21.5704   19.0143 C   0  0  0  0  0  0
  -28.7971  -22.0764   21.1308 C   0  0  0  0  0  0
  -28.9094  -22.5128   19.7892 C   0  0  0  0  0  0
  -29.6894  -19.9397   20.6960 C   0  0  0  0  0  0
  -26.6027  -23.5975   19.7851 C   0  0  0  0  0  0
  -27.8321  -23.3836   17.6355 C   0  0  0  0  0  0
  -28.1182  -18.0491   21.3033 C   0  0  0  0  0  0
  -30.3259  -18.2358   22.5183 C   0  0  0  0  0  0
  -30.2456  -17.2300   20.2457 C   0  0  0  0  0  0
  -28.5532  -25.2735   19.1507 C   0  0  0  0  0  0
  -28.0289  -23.7144   19.1613 C   0  0  0  0  0  0
  -29.6156  -18.3959   21.1542 C   0  0  0  0  0  0
  -29.9707  -20.3020   19.4368 N   0  0  0  0  0  0
  -29.1862  -20.8394   21.5562 N   0  0  0  0  0  0
  -29.9563  -15.7892   20.6652 N   0  0  0  0  0  0
  -31.4820  -12.4751   19.1734 H   0  0  0  0  0  0
  -30.3480  -11.4081   19.9343 H   0  0  0  0  0  0
  -29.8107  -11.7553   17.4880 H   0  0  0  0  0  0
  -29.6585  -13.4772   17.7625 H   0  0  0  0  0  0
  -27.9124  -11.2786   18.9013 H   0  0  0  0  0  0
  -27.3898  -12.5179   17.7860 H   0  0  0  0  0  0
  -27.6571  -14.2428   19.4719 H   0  0  0  0  0  0
  -28.7315  -12.1590   21.4494 H   0  0  0  0  0  0
  -28.4585  -13.8530   21.7845 H   0  0  0  0  0  0
  -25.2734   -9.5719   22.4692 H   0  0  0  0  0  0
  -23.9967   -7.4691   22.7493 H   0  0  0  0  0  0
  -21.0804   -8.8778   19.8958 H   0  0  0  0  0  0
  -22.3656  -10.9667   19.6107 H   0  0  0  0  0  0
  -21.2042   -7.6102   23.9695 H   0  0  0  0  0  0
  -21.1484   -6.0460   25.9057 H   0  0  0  0  0  0
  -22.0615   -2.7578   23.2804 H   0  0  0  0  0  0
  -22.4019  -12.0097   22.4853 H   0  0  0  0  0  0
  -21.1052  -13.1471   22.2325 H   0  0  0  0  0  0
  -24.6750  -15.8566   20.5545 H   0  0  0  0  0  0
  -26.2993  -15.6362   20.1306 H   0  0  0  0  0  0
  -26.7219  -32.5364   23.1097 H   0  0  0  0  0  0
  -25.0222  -33.9683   25.0479 H   0  0  0  0  0  0
  -22.7253  -31.3023   21.4038 H   0  0  0  0  0  0
  -23.3765  -35.9576   23.3269 H   0  0  0  0  0  0
  -24.3545  -36.8912   22.2060 H   0  0  0  0  0  0
  -23.7178  -37.6457   23.6669 H   0  0  0  0  0  0
  -26.1272  -31.5071   20.6210 H   0  0  0  0  0  0
  -26.8474  -30.7897   22.0315 H   0  0  0  0  0  0
  -28.0904  -28.8825   21.2537 H   0  0  0  0  0  0
  -26.0244  -26.0096   18.7864 H   0  0  0  0  0  0
  -23.9993  -27.3495   18.8998 H   0  0  0  0  0  0
  -23.7777  -30.5948   19.4110 H   0  0  0  0  0  0
  -22.7524  -29.2635   19.8449 H   0  0  0  0  0  0
  -25.1267  -36.1917   25.0834 H   0  0  0  0  0  0
  -20.9920  -28.3310   24.1384 H   0  0  0  0  0  0
  -20.5659  -26.2364   23.3631 H   0  0  0  0  0  0
  -21.6654  -26.7509   22.1194 H   0  0  0  0  0  0
  -19.6942  -25.6275   21.1257 H   0  0  0  0  0  0
  -19.6682  -27.3152   20.6690 H   0  0  0  0  0  0
  -17.4212  -26.6620   21.3999 H   0  0  0  0  0  0
  -18.0347  -26.0069   22.8999 H   0  0  0  0  0  0
  -19.7962  -30.7204   24.2281 H   0  0  0  0  0  0
  -17.5086  -31.6283   24.5147 H   0  0  0  0  0  0
  -15.5362  -30.3059   23.7682 H   0  0  0  0  0  0
  -15.8637  -28.0847   22.7160 H   0  0  0  0  0  0
  -24.5832  -30.7259   25.7868 H   0  0  0  0  0  0
  -24.9102  -32.3013   26.5059 H   0  0  0  0  0  0
  -25.8092  -30.8873   27.0251 H   0  0  0  0  0  0
  -26.3016  -29.6778   24.1303 H   0  0  0  0  0  0
  -27.4036  -29.7322   25.4853 H   0  0  0  0  0  0
  -27.8912  -30.4323   23.9610 H   0  0  0  0  0  0
  -27.2606  -33.3693   26.2109 H   0  0  0  0  0  0
  -28.3868  -32.7003   25.0390 H   0  0  0  0  0  0
  -28.0736  -31.8576   26.5481 H   0  0  0  0  0  0
  -28.2566  -38.0116   24.7589 H   0  0  0  0  0  0
  -28.1069  -36.2668   24.6155 H   0  0  0  0  0  0
  -27.2309  -37.1307   25.8853 H   0  0  0  0  0  0
  -20.9416  -29.8845   21.6870 H   0  0  0  0  0  0
  -26.0118  -38.2860   24.1509 H   0  0  0  0  0  0
  -29.9004  -21.7741   17.9831 H   0  0  0  0  0  0
  -28.2600  -22.6694   21.8585 H   0  0  0  0  0  0
  -26.3517  -22.5670   20.0628 H   0  0  0  0  0  0
  -25.8003  -23.8920   19.1038 H   0  0  0  0  0  0
  -26.5023  -24.2054   20.6864 H   0  0  0  0  0  0
  -27.4624  -22.3674   17.4662 H   0  0  0  0  0  0
  -28.7543  -23.4974   17.0561 H   0  0  0  0  0  0
  -27.1042  -24.0379   17.1433 H   0  0  0  0  0  0
  -27.6454  -18.6861   22.0476 H   0  0  0  0  0  0
  -27.9467  -17.0229   21.6255 H   0  0  0  0  0  0
  -27.5965  -18.1982   20.3589 H   0  0  0  0  0  0
  -29.8940  -18.8806   23.2817 H   0  0  0  0  0  0
  -31.3822  -18.4983   22.4236 H   0  0  0  0  0  0
  -30.2684  -17.2153   22.8946 H   0  0  0  0  0  0
  -31.3247  -17.3731   20.1441 H   0  0  0  0  0  0
  -29.8469  -17.3469   19.2371 H   0  0  0  0  0  0
  -28.2235  -25.7203   18.2115 H   0  0  0  0  0  0
  -29.6349  -25.2183   19.0083 H   0  0  0  0  0  0
  -29.0225  -15.6137   21.0035 H   0  0  0  0  0  0
  1 25  1  0  0  0
  1 30  2  0  0  0
  1 85  1  0  0  0
  2  3  1  0  0  0
  2 25  1  0  0  0
  2 86  1  0  0  0
  2 87  1  0  0  0
  3  4  1  0  0  0
  3 88  1  0  0  0
  3 89  1  0  0  0
  4  5  1  0  0  0
  4 90  1  0  0  0
  4 91  1  0  0  0
  5  6  1  0  0  0
  5 26  1  0  0  0
  5 92  1  0  0  0
  6 25  1  0  0  0
  6 93  1  0  0  0
  6 94  1  0  0  0
  7  8  2  0  0  0
  7 26  1  0  0  0
  7 29  1  0  0  0
  8  9  1  0  0  0
  8 22  1  0  0  0
  9 10  1  0  0  0
  9 27  2  0  0  0
 10 11  2  0  0  0
 10 15  1  0  0  0
 11 12  1  0  0  0
 11 95  1  0  0  0
 12 13  2  0  0  0
 12 96  1  0  0  0
 13 14  1  0  0  0
 13 31  1  0  0  0
 14 15  2  0  0  0
 14 97  1  0  0  0
 15 98  1  0  0  0
 16 17  2  0  0  0
 16 21  1  0  0  0
 16 31  1  0  0  0
 17 18  1  0  0  0
 17 99  1  0  0  0
 18 19  2  0  0  0
 18100  1  0  0  0
 19 20  1  0  0  0
 19 24  1  0  0  0
 20 21  2  0  0  0
 20101  1  0  0  0
 21 23  1  0  0  0
 22 28  1  0  0  0
 22 32  2  0  0  0
 26 27  1  0  0  0
 28102  1  0  0  0
 28103  1  0  0  0
 29104  1  0  0  0
 29105  1  0  0  0
 33 34  1  0  0  0
 33 66  1  0  0  0
 33 70  2  0  0  0
 34 36  1  0  0  0
 34 59  1  0  0  0
 34106  1  0  0  0
 35 44  2  0  0  0
 35 45  1  0  0  0
 35 68  1  0  0  0
 36 56  1  0  0  0
 36107  1  0  0  0
 37 39  1  0  0  0
 37 47  1  0  0  0
 37 66  1  0  0  0
 37108  1  0  0  0
 38 43  2  0  0  0
 38 46  1  0  0  0
 38 47  1  0  0  0
 39 64  1  0  0  0
 39 67  2  0  0  0
 40 52  1  0  0  0
 40 53  2  0  0  0
 40 58  1  0  0  0
 41109  1  0  0  0
 41110  1  0  0  0
 41111  1  0  0  0
 41 48  1  0  0  0
 42 43  1  0  0  0
 42 66  1  0  0  0
 42112  1  0  0  0
 42113  1  0  0  0
 43 44  1  0  0  0
 44114  1  0  0  0
 45 46  2  0  0  0
 45115  1  0  0  0
 46116  1  0  0  0
 47117  1  0  0  0
 47118  1  0  0  0
 48 56  1  0  0  0
 48 65  1  0  0  0
 48119  1  0  0  0
 49 50  1  0  0  0
 49 53  1  0  0  0
 49 64  1  0  0  0
 49120  1  0  0  0
 50 51  1  0  0  0
 50121  1  0  0  0
 50122  1  0  0  0
 51 52  1  0  0  0
 51123  1  0  0  0
 51124  1  0  0  0
 52125  1  0  0  0
 52126  1  0  0  0
 53 54  1  0  0  0
 54 55  2  0  0  0
 54127  1  0  0  0
 55 57  1  0  0  0
 55128  1  0  0  0
 56 69  2  0  0  0
 57 58  2  0  0  0
 57129  1  0  0  0
 58130  1  0  0  0
 59 60  1  0  0  0
 59 61  1  0  0  0
 59 62  1  0  0  0
 60131  1  0  0  0
 60132  1  0  0  0
 60133  1  0  0  0
 61134  1  0  0  0
 61135  1  0  0  0
 61136  1  0  0  0
 62137  1  0  0  0
 62138  1  0  0  0
 62139  1  0  0  0
 63 65  1  0  0  0
 63140  1  0  0  0
 63141  1  0  0  0
 63142  1  0  0  0
 64143  1  0  0  0
 65144  1  0  0  0
 68 80  1  0  0  0
 71 73  2  0  0  0
 71 83  1  0  0  0
 71145  1  0  0  0
 72 73  1  0  0  0
 72 84  2  0  0  0
 72146  1  0  0  0
 73 81  1  0  0  0
 74 82  1  0  0  0
 74 83  2  0  0  0
 74 84  1  0  0  0
 75147  1  0  0  0
 75148  1  0  0  0
 75149  1  0  0  0
 75 81  1  0  0  0
 76 81  1  0  0  0
 76150  1  0  0  0
 76151  1  0  0  0
 76152  1  0  0  0
 77153  1  0  0  0
 77154  1  0  0  0
 77155  1  0  0  0
 77 82  1  0  0  0
 78 82  1  0  0  0
 78156  1  0  0  0
 78157  1  0  0  0
 78158  1  0  0  0
 79 82  1  0  0  0
 79 85  1  0  0  0
 79159  1  0  0  0
 79160  1  0  0  0
 80 81  1  0  0  0
 80161  1  0  0  0
 80162  1  0  0  0
 85163  1  0  0  0
M  ISO  4   1 100  68 101  80 101  85 100
M  END
> <chiral flag>
0

> <version>
0

> <s_m_source_file>
/data/baiqing/PycharmProjects/Reinvent-master-3.2/result/LINK_invent/BTK/process_docking_weight1_custom_sum_contain_oxygen_bond_distance_aromatic_linkinvent_7_9_3/rearranged_h_0066.sdf

> <i_m_source_file_index>
43

> <r_mmod_Potential_Energy-OPLS-2005>
-178.35920715332

> <r_mmod_Stretch_Energy-OPLS-2005>
126.420547485352

> <r_mmod_Bend_Energy-OPLS-2005>
219.473129272461

> <r_mmod_Torsional_Energy-OPLS-2005>
246.392990112305

> <r_mmod_Improper_Torsional_Energy-OPLS-2005>
10.6817045211792

> <r_mmod_Van_der_Waal_Energy-OPLS-2005>
155.09912109375

> <r_mmod_Electrostatic_Energy-OPLS-2005>
-782.619689941406

> <r_mmod_Solvation_Energy-OPLS-2005>
-221.102691650391

> <b_mmod_Minimization_Converged-OPLS-2005>
0

> <r_mmod_RMS_Derivative-OPLS-2005>
7.89750146865845

$$$$
46
                    3D
 Structure written by MMmdl.
180188  0  0  1  0            999 V2000
  -30.7182  -14.5976   20.6025 C   0  0  0  0  0  0
  -30.4104  -12.3900   19.4759 C   0  0  0  0  0  0
  -29.4922  -12.5141   18.2393 C   0  0  0  0  0  0
  -28.0149  -12.3472   18.6443 C   0  0  0  0  0  0
  -27.6445  -13.2197   19.8700 C   0  0  2  0  0  0
  -28.6895  -13.0721   21.0039 C   0  0  0  0  0  0
  -25.2259  -13.8017   20.5319 C   0  0  0  0  0  0
  -24.1673  -13.0286   20.9187 C   0  0  0  0  0  0
  -24.6380  -11.6834   20.8866 C   0  0  0  0  0  0
  -23.9078  -10.4228   21.0491 C   0  0  0  0  0  0
  -24.3634   -9.4146   21.9254 C   0  0  0  0  0  0
  -23.6299   -8.2193   22.0791 C   0  0  0  0  0  0
  -22.4292   -8.0260   21.3565 C   0  0  0  0  0  0
  -21.9930   -9.0233   20.4671 C   0  0  0  0  0  0
  -22.7267  -10.2100   20.3106 C   0  0  0  0  0  0
  -21.6836   -6.0733   22.5288 C   0  0  0  0  0  0
  -21.3982   -6.5640   23.8220 C   0  0  0  0  0  0
  -21.3659   -5.6793   24.9179 C   0  0  0  0  0  0
  -21.6052   -4.3064   24.7226 C   0  0  0  0  0  0
  -21.8817   -3.8149   23.4352 C   0  0  0  0  0  0
  -21.9180   -4.6957   22.3403 C   0  0  0  0  0  0
  -22.7720  -13.5110   21.1880 C   0  0  0  0  0  0
  -22.1650   -4.2137   21.0984 F   0  0  0  0  0  0
  -21.5661   -3.4559   25.7745 F   0  0  0  0  0  0
  -30.0109  -13.4228   20.4658 N   0  0  0  0  0  0
  -26.2895  -12.9348   20.3368 N   0  0  0  0  0  0
  -25.9354  -11.6509   20.6010 N   0  0  0  0  0  0
  -22.0410  -12.8103   22.0466 N   0  0  0  0  0  0
  -25.3346  -15.1630   20.2962 N   0  0  0  0  0  0
  -31.8113  -14.6674   20.0320 O   0  0  0  0  0  0
  -21.6643   -6.8876   21.4252 O   0  0  0  0  0  0
  -22.3416  -14.5444   20.6802 O   0  0  0  0  0  0
  -24.6175  -31.8655   23.2116 C   0  0  0  0  0  0
  -25.9057  -32.4821   23.8417 C   0  0  1  0  0  0
  -27.2340  -27.4181   20.0764 C   0  0  0  0  0  0
  -25.5910  -33.8624   24.2342 N   0  0  0  0  0  0
  -23.4041  -30.4856   21.5587 C   0  0  2  0  0  0
  -24.8475  -28.9485   20.1197 C   0  0  0  0  0  0
  -22.7395  -29.4616   22.5052 C   0  0  0  0  0  0
  -18.0265  -28.1299   22.8491 C   0  0  0  0  0  0
  -24.1479  -36.7298   23.2648 C   0  0  0  0  0  0
  -25.9361  -30.8248   21.3645 C   0  0  0  0  0  0
  -26.0126  -29.4605   20.7029 C   0  0  0  0  0  0
  -27.2129  -28.7088   20.6642 C   0  0  0  0  0  0
  -26.0475  -26.9197   19.4963 C   0  0  0  0  0  0
  -24.8604  -27.6813   19.5099 C   0  0  0  0  0  0
  -23.6104  -29.8198   20.1731 C   0  0  0  0  0  0
  -25.4108  -36.3122   24.0353 C   0  0  1  0  0  0
  -20.5839  -28.3597   23.1361 C   0  0  2  0  0  0
  -20.6733  -26.9347   22.5423 C   0  0  0  0  0  0
  -19.5726  -26.6353   21.5201 C   0  0  0  0  0  0
  -18.1927  -26.7850   22.1631 C   0  0  0  0  0  0
  -19.1506  -28.8775   23.2921 C   0  0  0  0  0  0
  -18.9386  -30.1383   23.8924 C   0  0  0  0  0  0
  -17.6375  -30.6501   24.0533 C   0  0  0  0  0  0
  -25.9041  -34.9482   23.5147 C   0  0  0  0  0  0
  -16.5296  -29.8981   23.6274 C   0  0  0  0  0  0
  -16.7248  -28.6402   23.0317 C   0  0  0  0  0  0
  -26.4485  -31.6611   25.0744 C   0  0  0  0  0  0
  -25.3751  -31.3682   26.1486 C   0  0  0  0  0  0
  -27.0323  -30.3065   24.6103 C   0  0  0  0  0  0
  -27.6065  -32.4343   25.7485 C   0  0  0  0  0  0
  -27.5582  -37.1812   24.8484 C   0  0  0  0  0  0
  -21.4129  -29.2979   22.3784 N   0  0  0  0  0  0
  -26.4299  -37.3804   23.9427 N   0  0  0  0  0  0
  -24.6715  -31.0733   22.1027 N   0  0  0  0  0  0
  -23.4160  -28.8175   23.3112 O   0  0  0  0  0  0
  -28.4083  -26.6880   20.0380 O   0  0  0  0  0  0
  -26.5597  -34.8947   22.4699 O   0  0  0  0  0  0
  -23.5368  -32.1416   23.7510 O   0  0  0  0  0  0
  -28.8098  -20.3218   19.9194 C   0  0  0  0  0  0
  -28.7582  -19.4070   20.9766 C   0  0  0  0  0  0
  -29.8023  -22.8252   23.7187 C   0  0  0  0  0  0
  -27.7176  -16.5433   21.5945 C   0  0  0  0  0  0
  -27.5404  -21.6349   18.1971 C   0  0  0  0  0  0
  -27.0660  -22.1488   20.5523 C   0  0  0  0  0  0
  -30.1222  -15.5865   22.9207 C   0  0  0  0  0  0
  -31.4956  -16.8982   21.4179 C   0  0  0  0  0  0
  -28.2611  -19.4554   22.4029 C   0  0  0  0  0  0
  -29.8428  -21.3925   23.1669 C   0  0  0  0  0  0
  -28.4668  -20.7147   23.2615 C   0  0  0  0  0  0
  -28.8516  -24.3496   19.1927 C   0  0  0  0  0  0
  -29.2743  -22.8781   19.5672 C   0  0  0  0  0  0
  -28.3590  -25.2749   20.3457 C   0  0  0  0  0  0
  -29.0287  -16.7334   20.8070 C   0  0  2  0  0  0
  -28.2006  -21.7314   19.5970 C   0  0  0  0  0  0
  -30.2810  -15.9219   21.4099 C   0  0  0  0  0  0
  -29.5280  -19.6806   18.9030 N   0  0  0  0  0  0
  -29.7073  -18.4272   19.1793 N   0  0  0  0  0  0
  -29.1812  -18.1832   20.4003 N   0  0  0  0  0  0
  -31.4559  -12.4632   19.1704 H   0  0  0  0  0  0
  -30.3195  -11.3978   19.9224 H   0  0  0  0  0  0
  -29.7664  -11.7621   17.4976 H   0  0  0  0  0  0
  -29.6303  -13.4871   17.7708 H   0  0  0  0  0  0
  -27.8592  -11.2938   18.8822 H   0  0  0  0  0  0
  -27.3567  -12.5683   17.8027 H   0  0  0  0  0  0
  -27.6604  -14.2576   19.5324 H   0  0  0  0  0  0
  -28.4082  -13.6650   21.8618 H   0  0  0  0  0  0
  -28.7035  -12.0520   21.3871 H   0  0  0  0  0  0
  -25.2767   -9.5618   22.4861 H   0  0  0  0  0  0
  -24.0017   -7.4567   22.7490 H   0  0  0  0  0  0
  -21.0880   -8.8748   19.8946 H   0  0  0  0  0  0
  -22.3755  -10.9677   19.6234 H   0  0  0  0  0  0
  -21.1949   -7.6147   23.9729 H   0  0  0  0  0  0
  -21.1499   -6.0525   25.9091 H   0  0  0  0  0  0
  -22.0602   -2.7610   23.2857 H   0  0  0  0  0  0
  -22.4034  -11.9717   22.4770 H   0  0  0  0  0  0
  -21.1095  -13.1212   22.2852 H   0  0  0  0  0  0
  -24.5406  -15.7879   20.3660 H   0  0  0  0  0  0
  -26.1627  -15.6118   19.9329 H   0  0  0  0  0  0
  -26.7107  -32.5528   23.1165 H   0  0  0  0  0  0
  -25.0108  -33.9778   25.0522 H   0  0  0  0  0  0
  -22.6948  -31.3044   21.4255 H   0  0  0  0  0  0
  -23.3763  -35.9610   23.3341 H   0  0  0  0  0  0
  -24.3559  -36.8866   22.2054 H   0  0  0  0  0  0
  -23.7198  -37.6504   23.6625 H   0  0  0  0  0  0
  -26.0531  -31.5944   20.6008 H   0  0  0  0  0  0
  -26.8210  -30.8726   21.9862 H   0  0  0  0  0  0
  -28.1224  -29.1112   21.0869 H   0  0  0  0  0  0
  -26.0461  -25.9490   19.0205 H   0  0  0  0  0  0
  -23.9640  -27.2890   19.0504 H   0  0  0  0  0  0
  -23.7239  -30.6019   19.4215 H   0  0  0  0  0  0
  -22.7297  -29.2482   19.8758 H   0  0  0  0  0  0
  -25.1276  -36.1994   25.0845 H   0  0  0  0  0  0
  -20.9928  -28.3110   24.1487 H   0  0  0  0  0  0
  -20.5589  -26.2188   23.3598 H   0  0  0  0  0  0
  -21.6616  -26.7376   22.1250 H   0  0  0  0  0  0
  -19.6894  -25.6263   21.1224 H   0  0  0  0  0  0
  -19.6624  -27.3173   20.6735 H   0  0  0  0  0  0
  -17.4167  -26.6547   21.4077 H   0  0  0  0  0  0
  -18.0416  -25.9968   22.9017 H   0  0  0  0  0  0
  -19.7829  -30.7213   24.2346 H   0  0  0  0  0  0
  -17.4875  -31.6189   24.5108 H   0  0  0  0  0  0
  -15.5274  -30.2856   23.7524 H   0  0  0  0  0  0
  -15.8687  -28.0678   22.7010 H   0  0  0  0  0  0
  -24.5917  -30.7049   25.7792 H   0  0  0  0  0  0
  -24.8966  -32.2832   26.4999 H   0  0  0  0  0  0
  -25.8113  -30.8784   27.0201 H   0  0  0  0  0  0
  -26.2857  -29.6813   24.1189 H   0  0  0  0  0  0
  -27.4145  -29.7303   25.4538 H   0  0  0  0  0  0
  -27.8670  -30.4419   23.9219 H   0  0  0  0  0  0
  -27.2689  -33.3629   26.2104 H   0  0  0  0  0  0
  -28.3836  -32.6930   25.0277 H   0  0  0  0  0  0
  -28.0786  -31.8451   26.5358 H   0  0  0  0  0  0
  -28.2629  -38.0082   24.7504 H   0  0  0  0  0  0
  -28.1045  -36.2614   24.6340 H   0  0  0  0  0  0
  -27.2301  -37.1491   25.8889 H   0  0  0  0  0  0
  -20.9307  -29.8638   21.6945 H   0  0  0  0  0  0
  -26.0197  -38.2884   24.1422 H   0  0  0  0  0  0
  -29.4480  -22.8570   24.7504 H   0  0  0  0  0  0
  -29.1400  -23.4499   23.1167 H   0  0  0  0  0  0
  -30.7897  -23.2834   23.6896 H   0  0  0  0  0  0
  -26.9022  -17.0998   21.1328 H   0  0  0  0  0  0
  -27.4297  -15.5024   21.6289 H   0  0  0  0  0  0
  -27.7708  -16.8429   22.6377 H   0  0  0  0  0  0
  -26.8168  -20.8187   18.1581 H   0  0  0  0  0  0
  -28.2776  -21.4555   17.4134 H   0  0  0  0  0  0
  -27.0059  -22.5406   17.9141 H   0  0  0  0  0  0
  -26.4352  -21.3062   20.8376 H   0  0  0  0  0  0
  -26.4092  -22.8905   20.0937 H   0  0  0  0  0  0
  -27.4587  -22.6377   21.4382 H   0  0  0  0  0  0
  -29.2330  -15.0149   23.1683 H   0  0  0  0  0  0
  -30.9731  -15.0148   23.2920 H   0  0  0  0  0  0
  -30.0609  -16.4956   23.5196 H   0  0  0  0  0  0
  -31.7975  -17.1988   20.4157 H   0  0  0  0  0  0
  -31.2742  -17.8115   21.9735 H   0  0  0  0  0  0
  -32.3714  -16.4476   21.8916 H   0  0  0  0  0  0
  -28.7850  -18.6792   22.9597 H   0  0  0  0  0  0
  -27.2027  -19.2020   22.4106 H   0  0  0  0  0  0
  -30.5849  -20.7993   23.7033 H   0  0  0  0  0  0
  -30.1898  -21.4188   22.1380 H   0  0  0  0  0  0
  -28.2864  -20.4505   24.3051 H   0  0  0  0  0  0
  -27.6724  -21.4165   23.0442 H   0  0  0  0  0  0
  -28.1328  -24.3669   18.3749 H   0  0  0  0  0  0
  -29.7434  -24.8226   18.7800 H   0  0  0  0  0  0
  -29.8042  -22.9036   20.5157 H   0  0  0  0  0  0
  -30.0310  -22.5756   18.8385 H   0  0  0  0  0  0
  -29.0321  -25.1430   21.1920 H   0  0  0  0  0  0
  -27.3782  -24.9705   20.7083 H   0  0  0  0  0  0
  -28.8148  -16.2362   19.8576 H   0  0  0  0  0  0
  1 25  1  0  0  0
  1 30  2  0  0  0
  1 87  1  0  0  0
  2  3  1  0  0  0
  2 25  1  0  0  0
  2 91  1  0  0  0
  2 92  1  0  0  0
  3  4  1  0  0  0
  3 93  1  0  0  0
  3 94  1  0  0  0
  4  5  1  0  0  0
  4 95  1  0  0  0
  4 96  1  0  0  0
  5  6  1  0  0  0
  5 26  1  0  0  0
  5 97  1  0  0  0
  6 25  1  0  0  0
  6 98  1  0  0  0
  6 99  1  0  0  0
  7  8  2  0  0  0
  7 26  1  0  0  0
  7 29  1  0  0  0
  8  9  1  0  0  0
  8 22  1  0  0  0
  9 10  1  0  0  0
  9 27  2  0  0  0
 10 11  2  0  0  0
 10 15  1  0  0  0
 11 12  1  0  0  0
 11100  1  0  0  0
 12 13  2  0  0  0
 12101  1  0  0  0
 13 14  1  0  0  0
 13 31  1  0  0  0
 14 15  2  0  0  0
 14102  1  0  0  0
 15103  1  0  0  0
 16 17  2  0  0  0
 16 21  1  0  0  0
 16 31  1  0  0  0
 17 18  1  0  0  0
 17104  1  0  0  0
 18 19  2  0  0  0
 18105  1  0  0  0
 19 20  1  0  0  0
 19 24  1  0  0  0
 20 21  2  0  0  0
 20106  1  0  0  0
 21 23  1  0  0  0
 22 28  1  0  0  0
 22 32  2  0  0  0
 26 27  1  0  0  0
 28107  1  0  0  0
 28108  1  0  0  0
 29109  1  0  0  0
 29110  1  0  0  0
 33 34  1  0  0  0
 33 66  1  0  0  0
 33 70  2  0  0  0
 34 36  1  0  0  0
 34 59  1  0  0  0
 34111  1  0  0  0
 35 44  2  0  0  0
 35 45  1  0  0  0
 35 68  1  0  0  0
 36 56  1  0  0  0
 36112  1  0  0  0
 37 39  1  0  0  0
 37 47  1  0  0  0
 37 66  1  0  0  0
 37113  1  0  0  0
 38 43  2  0  0  0
 38 46  1  0  0  0
 38 47  1  0  0  0
 39 64  1  0  0  0
 39 67  2  0  0  0
 40 52  1  0  0  0
 40 53  2  0  0  0
 40 58  1  0  0  0
 41114  1  0  0  0
 41115  1  0  0  0
 41116  1  0  0  0
 41 48  1  0  0  0
 42 43  1  0  0  0
 42 66  1  0  0  0
 42117  1  0  0  0
 42118  1  0  0  0
 43 44  1  0  0  0
 44119  1  0  0  0
 45 46  2  0  0  0
 45120  1  0  0  0
 46121  1  0  0  0
 47122  1  0  0  0
 47123  1  0  0  0
 48 56  1  0  0  0
 48 65  1  0  0  0
 48124  1  0  0  0
 49 50  1  0  0  0
 49 53  1  0  0  0
 49 64  1  0  0  0
 49125  1  0  0  0
 50 51  1  0  0  0
 50126  1  0  0  0
 50127  1  0  0  0
 51 52  1  0  0  0
 51128  1  0  0  0
 51129  1  0  0  0
 52130  1  0  0  0
 52131  1  0  0  0
 53 54  1  0  0  0
 54 55  2  0  0  0
 54132  1  0  0  0
 55 57  1  0  0  0
 55133  1  0  0  0
 56 69  2  0  0  0
 57 58  2  0  0  0
 57134  1  0  0  0
 58135  1  0  0  0
 59 60  1  0  0  0
 59 61  1  0  0  0
 59 62  1  0  0  0
 60136  1  0  0  0
 60137  1  0  0  0
 60138  1  0  0  0
 61139  1  0  0  0
 61140  1  0  0  0
 61141  1  0  0  0
 62142  1  0  0  0
 62143  1  0  0  0
 62144  1  0  0  0
 63 65  1  0  0  0
 63145  1  0  0  0
 63146  1  0  0  0
 63147  1  0  0  0
 64148  1  0  0  0
 65149  1  0  0  0
 68 84  1  0  0  0
 71 72  2  0  0  0
 71 86  1  0  0  0
 71 88  1  0  0  0
 72 79  1  0  0  0
 72 90  1  0  0  0
 73 80  1  0  0  0
 73150  1  0  0  0
 73151  1  0  0  0
 73152  1  0  0  0
 74153  1  0  0  0
 74154  1  0  0  0
 74155  1  0  0  0
 74 85  1  0  0  0
 75156  1  0  0  0
 75157  1  0  0  0
 75158  1  0  0  0
 75 86  1  0  0  0
 76 86  1  0  0  0
 76159  1  0  0  0
 76160  1  0  0  0
 76161  1  0  0  0
 77162  1  0  0  0
 77163  1  0  0  0
 77164  1  0  0  0
 77 87  1  0  0  0
 78 87  1  0  0  0
 78165  1  0  0  0
 78166  1  0  0  0
 78167  1  0  0  0
 79 81  1  0  0  0
 79168  1  0  0  0
 79169  1  0  0  0
 80 81  1  0  0  0
 80170  1  0  0  0
 80171  1  0  0  0
 81172  1  0  0  0
 81173  1  0  0  0
 82 83  1  0  0  0
 82 84  1  0  0  0
 82174  1  0  0  0
 82175  1  0  0  0
 83 86  1  0  0  0
 83176  1  0  0  0
 83177  1  0  0  0
 84178  1  0  0  0
 84179  1  0  0  0
 85 87  1  0  0  0
 85 90  1  0  0  0
 85180  1  0  0  0
 88 89  2  0  0  0
 89 90  1  0  0  0
M  ISO  4   1 100  68 101  84 101  87 100
M  END
> <chiral flag>
0

> <version>
0

> <s_m_source_file>
/data/baiqing/PycharmProjects/Reinvent-master-3.2/result/LINK_invent/BTK/process_docking_weight1_custom_sum_contain_oxygen_bond_distance_aromatic_linkinvent_7_9_3/rearranged_h_0066.sdf

> <i_m_source_file_index>
44

> <r_mmod_Potential_Energy-OPLS-2005>
187.024124145508

> <r_mmod_Stretch_Energy-OPLS-2005>
80.7390518188477

> <r_mmod_Bend_Energy-OPLS-2005>
186.664520263672

> <r_mmod_Torsional_Energy-OPLS-2005>
260.645355224609

> <r_mmod_Improper_Torsional_Energy-OPLS-2005>
2.85661244392395

> <r_mmod_Van_der_Waal_Energy-OPLS-2005>
148.023162841797

> <r_mmod_Electrostatic_Energy-OPLS-2005>
-340.624053955078

> <r_mmod_Solvation_Energy-OPLS-2005>
-178.770919799805

> <b_mmod_Minimization_Converged-OPLS-2005>
0

> <r_mmod_RMS_Derivative-OPLS-2005>
4.60506105422974

$$$$
47
                    3D
 Structure written by MMmdl.
164172  0  0  1  0            999 V2000
  -30.7541  -14.4997   20.7016 C   0  0  0  0  0  0
  -30.4031  -12.3607   19.4654 C   0  0  0  0  0  0
  -29.4896  -12.5313   18.2344 C   0  0  0  0  0  0
  -28.0188  -12.3461   18.6390 C   0  0  0  0  0  0
  -27.6502  -13.2140   19.8667 C   0  0  2  0  0  0
  -28.6791  -13.0307   20.9980 C   0  0  0  0  0  0
  -25.2539  -13.8194   20.5697 C   0  0  0  0  0  0
  -24.1792  -13.0469   20.9167 C   0  0  0  0  0  0
  -24.6348  -11.6927   20.8729 C   0  0  0  0  0  0
  -23.9028  -10.4300   21.0402 C   0  0  0  0  0  0
  -24.3581   -9.4212   21.9183 C   0  0  0  0  0  0
  -23.6262   -8.2243   22.0748 C   0  0  0  0  0  0
  -22.4249   -8.0273   21.3531 C   0  0  0  0  0  0
  -21.9880   -9.0244   20.4643 C   0  0  0  0  0  0
  -22.7197  -10.2131   20.3056 C   0  0  0  0  0  0
  -21.6845   -6.0726   22.5282 C   0  0  0  0  0  0
  -21.4024   -6.5633   23.8213 C   0  0  0  0  0  0
  -21.3660   -5.6784   24.9179 C   0  0  0  0  0  0
  -21.6038   -4.3050   24.7231 C   0  0  0  0  0  0
  -21.8807   -3.8136   23.4352 C   0  0  0  0  0  0
  -21.9179   -4.6947   22.3408 C   0  0  0  0  0  0
  -22.7817  -13.5258   21.1842 C   0  0  0  0  0  0
  -22.1635   -4.2128   21.0984 F   0  0  0  0  0  0
  -21.5626   -3.4535   25.7746 F   0  0  0  0  0  0
  -30.0168  -13.3582   20.4937 N   0  0  0  0  0  0
  -26.2945  -12.9367   20.3310 N   0  0  0  0  0  0
  -25.9277  -11.6524   20.5759 N   0  0  0  0  0  0
  -22.0451  -12.8268   22.0402 N   0  0  0  0  0  0
  -25.4341  -15.1919   20.4172 N   0  0  0  0  0  0
  -31.7544  -14.6599   19.9877 O   0  0  0  0  0  0
  -21.6626   -6.8864   21.4238 O   0  0  0  0  0  0
  -22.3503  -14.5563   20.6688 O   0  0  0  0  0  0
  -24.6206  -31.8632   23.2035 C   0  0  0  0  0  0
  -25.9076  -32.4782   23.8344 C   0  0  1  0  0  0
  -27.2220  -27.3811   20.1142 C   0  0  0  0  0  0
  -25.5927  -33.8588   24.2289 N   0  0  0  0  0  0
  -23.4100  -30.4860   21.5453 C   0  0  2  0  0  0
  -24.8561  -28.9421   20.1144 C   0  0  0  0  0  0
  -22.7428  -29.4652   22.4972 C   0  0  0  0  0  0
  -18.0278  -28.1397   22.8482 C   0  0  0  0  0  0
  -24.1492  -36.7296   23.2632 C   0  0  0  0  0  0
  -25.9432  -30.8148   21.3618 C   0  0  0  0  0  0
  -26.0209  -29.4442   20.7114 C   0  0  0  0  0  0
  -27.2123  -28.6736   20.7013 C   0  0  0  0  0  0
  -26.0421  -26.9055   19.5065 C   0  0  0  0  0  0
  -24.8638  -27.6747   19.5064 C   0  0  0  0  0  0
  -23.6213  -29.8156   20.1621 C   0  0  0  0  0  0
  -25.4113  -36.3085   24.0326 C   0  0  1  0  0  0
  -20.5865  -28.3703   23.1306 C   0  0  2  0  0  0
  -20.6788  -26.9439   22.5409 C   0  0  0  0  0  0
  -19.5760  -26.6408   21.5213 C   0  0  0  0  0  0
  -18.1939  -26.7939   22.1626 C   0  0  0  0  0  0
  -19.1525  -28.8862   23.2897 C   0  0  0  0  0  0
  -18.9450  -30.1463   23.8914 C   0  0  0  0  0  0
  -17.6455  -30.6603   24.0569 C   0  0  0  0  0  0
  -25.9041  -34.9452   23.5094 C   0  0  0  0  0  0
  -16.5347  -29.9105   23.6333 C   0  0  0  0  0  0
  -16.7268  -28.6521   23.0352 C   0  0  0  0  0  0
  -26.4488  -31.6551   25.0676 C   0  0  0  0  0  0
  -25.3747  -31.3658   26.1409 C   0  0  0  0  0  0
  -27.0319  -30.2987   24.6066 C   0  0  0  0  0  0
  -27.6058  -32.4273   25.7456 C   0  0  0  0  0  0
  -27.5575  -37.1807   24.8465 C   0  0  0  0  0  0
  -21.4144  -29.3063   22.3709 N   0  0  0  0  0  0
  -26.4297  -37.3783   23.9399 N   0  0  0  0  0  0
  -24.6763  -31.0701   22.0947 N   0  0  0  0  0  0
  -23.4175  -28.8219   23.3047 O   0  0  0  0  0  0
  -28.3487  -26.5759   20.1180 O   0  0  0  0  0  0
  -26.5602  -34.8909   22.4656 O   0  0  0  0  0  0
  -23.5387  -32.1416   23.7411 O   0  0  0  0  0  0
  -28.6907  -18.1869   19.9998 C   0  0  0  0  0  0
  -29.7397  -18.1236   21.9084 C   0  0  0  0  0  0
  -29.0518  -19.0044   21.1128 C   0  0  0  0  0  0
  -28.3970  -15.5477   23.4573 C   0  0  0  0  0  0
  -30.3292  -13.8499   23.7713 C   0  0  0  0  0  0
  -31.9556  -16.1388   22.1676 C   0  0  0  0  0  0
  -28.3874  -23.9810   20.0786 C   0  0  0  0  0  0
  -28.3377  -22.7058   20.9940 C   0  0  0  0  0  0
  -28.2313  -25.3311   20.8645 C   0  0  0  0  0  0
  -28.6540  -21.3103   20.3574 C   0  0  0  0  0  0
  -29.8932  -15.2229   23.2041 C   0  0  0  0  0  0
  -30.5123  -15.6472   21.8054 C   0  0  2  0  0  0
  -29.1292  -16.9267   20.1137 N   0  0  0  0  0  0
  -29.8193  -16.8763   21.2861 N   0  0  0  0  0  0
  -28.7504  -20.3305   21.4101 O   0  0  0  0  0  0
  -31.4488  -12.4304   19.1630 H   0  0  0  0  0  0
  -30.2954  -11.3565   19.8793 H   0  0  0  0  0  0
  -29.7591  -11.8146   17.4584 H   0  0  0  0  0  0
  -29.6280  -13.5265   17.8099 H   0  0  0  0  0  0
  -27.8729  -11.2926   18.8822 H   0  0  0  0  0  0
  -27.3555  -12.5613   17.8001 H   0  0  0  0  0  0
  -27.6931  -14.2563   19.5494 H   0  0  0  0  0  0
  -28.6676  -12.0051   21.3689 H   0  0  0  0  0  0
  -28.3748  -13.6393   21.8288 H   0  0  0  0  0  0
  -25.2708   -9.5689   22.4779 H   0  0  0  0  0  0
  -23.9953   -7.4631   22.7488 H   0  0  0  0  0  0
  -21.0795   -8.8758   19.8966 H   0  0  0  0  0  0
  -22.3623  -10.9667   19.6171 H   0  0  0  0  0  0
  -21.2032   -7.6143   23.9717 H   0  0  0  0  0  0
  -21.1487   -6.0524   25.9081 H   0  0  0  0  0  0
  -22.0584   -2.7601   23.2863 H   0  0  0  0  0  0
  -22.4058  -11.9929   22.4800 H   0  0  0  0  0  0
  -21.1099  -13.1349   22.2661 H   0  0  0  0  0  0
  -24.6933  -15.8680   20.5700 H   0  0  0  0  0  0
  -26.3123  -15.6164   20.1429 H   0  0  0  0  0  0
  -26.7142  -32.5492   23.1099 H   0  0  0  0  0  0
  -25.0127  -33.9740   25.0466 H   0  0  0  0  0  0
  -22.6998  -31.3030   21.4010 H   0  0  0  0  0  0
  -23.3748  -35.9639   23.3319 H   0  0  0  0  0  0
  -24.3589  -36.8894   22.2043 H   0  0  0  0  0  0
  -23.7257  -37.6507   23.6644 H   0  0  0  0  0  0
  -26.0576  -31.5781   20.5909 H   0  0  0  0  0  0
  -26.8299  -30.8701   21.9812 H   0  0  0  0  0  0
  -28.1117  -29.0555   21.1644 H   0  0  0  0  0  0
  -26.0312  -25.9319   19.0376 H   0  0  0  0  0  0
  -23.9692  -27.2820   19.0411 H   0  0  0  0  0  0
  -23.7329  -30.5888   19.4007 H   0  0  0  0  0  0
  -22.7427  -29.2402   19.8659 H   0  0  0  0  0  0
  -25.1297  -36.1940   25.0825 H   0  0  0  0  0  0
  -20.9954  -28.3289   24.1429 H   0  0  0  0  0  0
  -20.5714  -26.2312   23.3603 H   0  0  0  0  0  0
  -21.6662  -26.7499   22.1196 H   0  0  0  0  0  0
  -19.6935  -25.6324   21.1239 H   0  0  0  0  0  0
  -19.6699  -27.3215   20.6745 H   0  0  0  0  0  0
  -17.4211  -26.6668   21.4032 H   0  0  0  0  0  0
  -18.0355  -26.0086   22.9029 H   0  0  0  0  0  0
  -19.7924  -30.7276   24.2297 H   0  0  0  0  0  0
  -17.5016  -31.6276   24.5176 H   0  0  0  0  0  0
  -15.5353  -30.3025   23.7646 H   0  0  0  0  0  0
  -15.8669  -28.0852   22.7065 H   0  0  0  0  0  0
  -24.5914  -30.7015   25.7741 H   0  0  0  0  0  0
  -24.8946  -32.2820   26.4862 H   0  0  0  0  0  0
  -25.8091  -30.8818   27.0161 H   0  0  0  0  0  0
  -26.2863  -29.6761   24.1108 H   0  0  0  0  0  0
  -27.4060  -29.7212   25.4524 H   0  0  0  0  0  0
  -27.8714  -30.4294   23.9238 H   0  0  0  0  0  0
  -27.2661  -33.3551   26.2082 H   0  0  0  0  0  0
  -28.3859  -32.6881   25.0283 H   0  0  0  0  0  0
  -28.0738  -31.8363   26.5340 H   0  0  0  0  0  0
  -28.2608  -38.0086   24.7492 H   0  0  0  0  0  0
  -28.1052  -36.2616   24.6327 H   0  0  0  0  0  0
  -27.2290  -37.1501   25.8868 H   0  0  0  0  0  0
  -20.9317  -29.8765   21.6903 H   0  0  0  0  0  0
  -26.0169  -38.2855   24.1415 H   0  0  0  0  0  0
  -28.1074  -18.4592   19.1318 H   0  0  0  0  0  0
  -30.1850  -18.2904   22.8782 H   0  0  0  0  0  0
  -27.9572  -14.8754   24.1952 H   0  0  0  0  0  0
  -27.7831  -15.5144   22.5586 H   0  0  0  0  0  0
  -28.2854  -16.5565   23.8577 H   0  0  0  0  0  0
  -30.2409  -13.8406   24.8582 H   0  0  0  0  0  0
  -31.3714  -13.6295   23.5474 H   0  0  0  0  0  0
  -29.7345  -13.0128   23.4120 H   0  0  0  0  0  0
  -31.9792  -16.8787   22.9659 H   0  0  0  0  0  0
  -32.4521  -16.6153   21.3219 H   0  0  0  0  0  0
  -32.5943  -15.3135   22.4904 H   0  0  0  0  0  0
  -27.6107  -23.9073   19.3170 H   0  0  0  0  0  0
  -29.3364  -23.9900   19.5428 H   0  0  0  0  0  0
  -27.3549  -22.6496   21.4672 H   0  0  0  0  0  0
  -29.0439  -22.8581   21.8113 H   0  0  0  0  0  0
  -29.0174  -25.3646   21.6203 H   0  0  0  0  0  0
  -27.3020  -25.3099   21.4373 H   0  0  0  0  0  0
  -29.6006  -21.3567   19.8153 H   0  0  0  0  0  0
  -27.8798  -21.0282   19.6422 H   0  0  0  0  0  0
  -30.3508  -15.8949   23.9317 H   0  0  0  0  0  0
  1 25  1  0  0  0
  1 30  2  0  0  0
  1 82  1  0  0  0
  2  3  1  0  0  0
  2 25  1  0  0  0
  2 86  1  0  0  0
  2 87  1  0  0  0
  3  4  1  0  0  0
  3 88  1  0  0  0
  3 89  1  0  0  0
  4  5  1  0  0  0
  4 90  1  0  0  0
  4 91  1  0  0  0
  5  6  1  0  0  0
  5 26  1  0  0  0
  5 92  1  0  0  0
  6 25  1  0  0  0
  6 93  1  0  0  0
  6 94  1  0  0  0
  7  8  2  0  0  0
  7 26  1  0  0  0
  7 29  1  0  0  0
  8  9  1  0  0  0
  8 22  1  0  0  0
  9 10  1  0  0  0
  9 27  2  0  0  0
 10 11  2  0  0  0
 10 15  1  0  0  0
 11 12  1  0  0  0
 11 95  1  0  0  0
 12 13  2  0  0  0
 12 96  1  0  0  0
 13 14  1  0  0  0
 13 31  1  0  0  0
 14 15  2  0  0  0
 14 97  1  0  0  0
 15 98  1  0  0  0
 16 17  2  0  0  0
 16 21  1  0  0  0
 16 31  1  0  0  0
 17 18  1  0  0  0
 17 99  1  0  0  0
 18 19  2  0  0  0
 18100  1  0  0  0
 19 20  1  0  0  0
 19 24  1  0  0  0
 20 21  2  0  0  0
 20101  1  0  0  0
 21 23  1  0  0  0
 22 28  1  0  0  0
 22 32  2  0  0  0
 26 27  1  0  0  0
 28102  1  0  0  0
 28103  1  0  0  0
 29104  1  0  0  0
 29105  1  0  0  0
 33 34  1  0  0  0
 33 66  1  0  0  0
 33 70  2  0  0  0
 34 36  1  0  0  0
 34 59  1  0  0  0
 34106  1  0  0  0
 35 44  2  0  0  0
 35 45  1  0  0  0
 35 68  1  0  0  0
 36 56  1  0  0  0
 36107  1  0  0  0
 37 39  1  0  0  0
 37 47  1  0  0  0
 37 66  1  0  0  0
 37108  1  0  0  0
 38 43  2  0  0  0
 38 46  1  0  0  0
 38 47  1  0  0  0
 39 64  1  0  0  0
 39 67  2  0  0  0
 40 52  1  0  0  0
 40 53  2  0  0  0
 40 58  1  0  0  0
 41109  1  0  0  0
 41110  1  0  0  0
 41111  1  0  0  0
 41 48  1  0  0  0
 42 43  1  0  0  0
 42 66  1  0  0  0
 42112  1  0  0  0
 42113  1  0  0  0
 43 44  1  0  0  0
 44114  1  0  0  0
 45 46  2  0  0  0
 45115  1  0  0  0
 46116  1  0  0  0
 47117  1  0  0  0
 47118  1  0  0  0
 48 56  1  0  0  0
 48 65  1  0  0  0
 48119  1  0  0  0
 49 50  1  0  0  0
 49 53  1  0  0  0
 49 64  1  0  0  0
 49120  1  0  0  0
 50 51  1  0  0  0
 50121  1  0  0  0
 50122  1  0  0  0
 51 52  1  0  0  0
 51123  1  0  0  0
 51124  1  0  0  0
 52125  1  0  0  0
 52126  1  0  0  0
 53 54  1  0  0  0
 54 55  2  0  0  0
 54127  1  0  0  0
 55 57  1  0  0  0
 55128  1  0  0  0
 56 69  2  0  0  0
 57 58  2  0  0  0
 57129  1  0  0  0
 58130  1  0  0  0
 59 60  1  0  0  0
 59 61  1  0  0  0
 59 62  1  0  0  0
 60131  1  0  0  0
 60132  1  0  0  0
 60133  1  0  0  0
 61134  1  0  0  0
 61135  1  0  0  0
 61136  1  0  0  0
 62137  1  0  0  0
 62138  1  0  0  0
 62139  1  0  0  0
 63 65  1  0  0  0
 63140  1  0  0  0
 63141  1  0  0  0
 63142  1  0  0  0
 64143  1  0  0  0
 65144  1  0  0  0
 68 79  1  0  0  0
 71 73  1  0  0  0
 71 83  2  0  0  0
 71145  1  0  0  0
 72 73  2  0  0  0
 72 84  1  0  0  0
 72146  1  0  0  0
 73 85  1  0  0  0
 74147  1  0  0  0
 74148  1  0  0  0
 74149  1  0  0  0
 74 81  1  0  0  0
 75 81  1  0  0  0
 75150  1  0  0  0
 75151  1  0  0  0
 75152  1  0  0  0
 76153  1  0  0  0
 76154  1  0  0  0
 76155  1  0  0  0
 76 82  1  0  0  0
 77 78  1  0  0  0
 77 79  1  0  0  0
 77156  1  0  0  0
 77157  1  0  0  0
 78 80  1  0  0  0
 78158  1  0  0  0
 78159  1  0  0  0
 79160  1  0  0  0
 79161  1  0  0  0
 80 85  1  0  0  0
 80162  1  0  0  0
 80163  1  0  0  0
 81 82  1  0  0  0
 81164  1  0  0  0
 82 84  1  0  0  0
 83 84  1  0  0  0
M  ISO  4   1 100  68 101  79 101  82 100
M  END
> <chiral flag>
0

> <version>
0

> <s_m_source_file>
/data/baiqing/PycharmProjects/Reinvent-master-3.2/result/LINK_invent/BTK/process_docking_weight1_custom_sum_contain_oxygen_bond_distance_aromatic_linkinvent_7_9_3/rearranged_h_0066.sdf

> <i_m_source_file_index>
45

> <r_mmod_Potential_Energy-OPLS-2005>
219.27766418457

> <r_mmod_Stretch_Energy-OPLS-2005>
68.0025024414062

> <r_mmod_Bend_Energy-OPLS-2005>
164.935195922852

> <r_mmod_Torsional_Energy-OPLS-2005>
239.172424316406

> <r_mmod_Improper_Torsional_Energy-OPLS-2005>
1.76273572444916

> <r_mmod_Van_der_Waal_Energy-OPLS-2005>
137.170379638672

> <r_mmod_Electrostatic_Energy-OPLS-2005>
-223.847915649414

> <r_mmod_Solvation_Energy-OPLS-2005>
-190.293060302734

> <b_mmod_Minimization_Converged-OPLS-2005>
0

> <r_mmod_RMS_Derivative-OPLS-2005>
2.97431325912476

$$$$
48
                    3D
 Structure written by MMmdl.
178186  0  0  1  0            999 V2000
  -30.7477  -14.4030   20.6436 C   0  0  0  0  0  0
  -30.4173  -12.2918   19.4162 C   0  0  0  0  0  0
  -29.4884  -12.5163   18.2067 C   0  0  0  0  0  0
  -28.0120  -12.3751   18.6214 C   0  0  0  0  0  0
  -27.6663  -13.2053   19.8855 C   0  0  2  0  0  0
  -28.7043  -12.9652   21.0057 C   0  0  0  0  0  0
  -25.2599  -13.8160   20.5697 C   0  0  0  0  0  0
  -24.1838  -13.0443   20.9169 C   0  0  0  0  0  0
  -24.6386  -11.6907   20.8734 C   0  0  0  0  0  0
  -23.9055  -10.4293   21.0400 C   0  0  0  0  0  0
  -24.3604   -9.4212   21.9184 C   0  0  0  0  0  0
  -23.6276   -8.2251   22.0757 C   0  0  0  0  0  0
  -22.4263   -8.0282   21.3543 C   0  0  0  0  0  0
  -21.9899   -9.0258   20.4649 C   0  0  0  0  0  0
  -22.7225  -10.2137   20.3053 C   0  0  0  0  0  0
  -21.6851   -6.0733   22.5274 C   0  0  0  0  0  0
  -21.4017   -6.5636   23.8208 C   0  0  0  0  0  0
  -21.3662   -5.6787   24.9169 C   0  0  0  0  0  0
  -21.6042   -4.3046   24.7218 C   0  0  0  0  0  0
  -21.8823   -3.8143   23.4337 C   0  0  0  0  0  0
  -21.9194   -4.6965   22.3391 C   0  0  0  0  0  0
  -22.7865  -13.5257   21.1830 C   0  0  0  0  0  0
  -22.1662   -4.2146   21.0970 F   0  0  0  0  0  0
  -21.5632   -3.4530   25.7734 F   0  0  0  0  0  0
  -30.0434  -13.2555   20.4632 N   0  0  0  0  0  0
  -26.3043  -12.9333   20.3419 N   0  0  0  0  0  0
  -25.9316  -11.6494   20.5790 N   0  0  0  0  0  0
  -22.0496  -12.8251   22.0380 N   0  0  0  0  0  0
  -25.4316  -15.1881   20.4100 N   0  0  0  0  0  0
  -31.8117  -14.6392   20.0651 O   0  0  0  0  0  0
  -21.6630   -6.8876   21.4236 O   0  0  0  0  0  0
  -22.3565  -14.5568   20.6686 O   0  0  0  0  0  0
  -24.6110  -31.8707   23.2127 C   0  0  0  0  0  0
  -25.9011  -32.4836   23.8419 C   0  0  1  0  0  0
  -27.2374  -27.4605   20.1018 C   0  0  0  0  0  0
  -25.5875  -33.8631   24.2344 N   0  0  0  0  0  0
  -23.3984  -30.4930   21.5526 C   0  0  2  0  0  0
  -24.8465  -28.9564   20.1233 C   0  0  0  0  0  0
  -22.7391  -29.4670   22.5019 C   0  0  0  0  0  0
  -18.0265  -28.1374   22.8510 C   0  0  0  0  0  0
  -24.1480  -36.7326   23.2644 C   0  0  0  0  0  0
  -25.9228  -30.8420   21.3638 C   0  0  0  0  0  0
  -26.0017  -29.4723   20.7255 C   0  0  0  0  0  0
  -27.2009  -28.7284   20.7216 C   0  0  0  0  0  0
  -26.0732  -26.9540   19.4921 C   0  0  0  0  0  0
  -24.8734  -27.6913   19.5092 C   0  0  0  0  0  0
  -23.6072  -29.8220   20.1684 C   0  0  0  0  0  0
  -25.4097  -36.3117   24.0347 C   0  0  1  0  0  0
  -20.5853  -28.3650   23.1335 C   0  0  2  0  0  0
  -20.6750  -26.9394   22.5421 C   0  0  0  0  0  0
  -19.5724  -26.6386   21.5221 C   0  0  0  0  0  0
  -18.1902  -26.7927   22.1633 C   0  0  0  0  0  0
  -19.1516  -28.8831   23.2923 C   0  0  0  0  0  0
  -18.9443  -30.1444   23.8922 C   0  0  0  0  0  0
  -17.6445  -30.6583   24.0574 C   0  0  0  0  0  0
  -25.9028  -34.9485   23.5146 C   0  0  0  0  0  0
  -16.5340  -29.9085   23.6331 C   0  0  0  0  0  0
  -16.7257  -28.6504   23.0354 C   0  0  0  0  0  0
  -26.4454  -31.6598   25.0730 C   0  0  0  0  0  0
  -25.3739  -31.3688   26.1497 C   0  0  0  0  0  0
  -27.0264  -30.3039   24.6072 C   0  0  0  0  0  0
  -27.6053  -32.4300   25.7470 C   0  0  0  0  0  0
  -27.5578  -37.1811   24.8467 C   0  0  0  0  0  0
  -21.4124  -29.3030   22.3751 N   0  0  0  0  0  0
  -26.4285  -37.3797   23.9417 N   0  0  0  0  0  0
  -24.6618  -31.0828   22.1018 N   0  0  0  0  0  0
  -23.4171  -28.8227   23.3064 O   0  0  0  0  0  0
  -28.3934  -26.7316   19.9920 O   0  0  0  0  0  0
  -26.5601  -34.8931   22.4712 O   0  0  0  0  0  0
  -23.5307  -32.1450   23.7527 O   0  0  0  0  0  0
  -30.1442  -20.0226   21.7642 C   0  0  0  0  0  0
  -30.9527  -21.1001   22.0061 C   0  0  0  0  0  0
  -31.5880  -19.3954   23.3415 C   0  0  0  0  0  0
  -33.1048  -17.4197   24.0480 C   0  0  0  0  0  0
  -31.7922  -18.7465   25.7938 C   0  0  0  0  0  0
  -33.7423  -19.7002   24.6425 C   0  0  0  0  0  0
  -29.5483  -16.9909   23.8972 C   0  0  0  0  0  0
  -28.4720  -17.7098   21.8358 C   0  0  0  0  0  0
  -30.7311  -16.6697   21.6208 C   0  0  0  0  0  0
  -29.0278  -26.3165   21.2010 C   0  0  0  0  0  0
  -31.0996  -22.4451   21.3264 C   0  0  0  0  0  0
  -32.5001  -18.7894   24.4232 C   0  0  0  0  0  0
  -29.8672  -17.6048   22.5144 C   0  0  0  0  0  0
  -28.5860  -24.8775   21.5855 C   0  0  0  0  0  0
  -30.9262  -23.7046   22.2403 C   0  0  0  0  0  0
  -29.4776  -24.1384   22.6380 C   0  0  0  0  0  0
  -30.5158  -18.9747   22.5960 N   0  0  0  0  0  0
  -31.7860  -20.6756   22.9960 N   0  3  0  0  0  0
  -30.1909  -15.3162   21.4515 N   0  0  0  0  0  0
  -30.2995  -22.4821   20.2653 F   0  0  0  0  0  0
  -32.3551  -22.4510   20.8724 F   0  0  0  0  0  0
  -27.3626  -24.9907   22.1082 F   0  0  0  0  0  0
  -28.4838  -24.1564   20.4724 F   0  0  0  0  0  0
  -31.5929  -23.4589   23.3721 F   0  0  0  0  0  0
  -31.5347  -24.7267   21.6400 F   0  0  0  0  0  0
  -29.5796  -24.9713   23.6778 F   0  0  0  0  0  0
  -28.8362  -23.0409   23.0452 F   0  0  0  0  0  0
  -31.4622  -12.3856   19.1143 H   0  0  0  0  0  0
  -30.3124  -11.2749   19.7979 H   0  0  0  0  0  0
  -29.7223  -11.8053   17.4134 H   0  0  0  0  0  0
  -29.6585  -13.5096   17.7887 H   0  0  0  0  0  0
  -27.8211  -11.3176   18.8097 H   0  0  0  0  0  0
  -27.3590  -12.6593   17.7961 H   0  0  0  0  0  0
  -27.7191  -14.2571   19.6040 H   0  0  0  0  0  0
  -28.6688  -11.9265   21.3373 H   0  0  0  0  0  0
  -28.4597  -13.5559   21.8891 H   0  0  0  0  0  0
  -25.2749   -9.5688   22.4759 H   0  0  0  0  0  0
  -23.9981   -7.4649   22.7485 H   0  0  0  0  0  0
  -21.0829   -8.8782   19.8955 H   0  0  0  0  0  0
  -22.3688  -10.9678   19.6162 H   0  0  0  0  0  0
  -21.2008   -7.6139   23.9713 H   0  0  0  0  0  0
  -21.1483   -6.0510   25.9073 H   0  0  0  0  0  0
  -22.0601   -2.7602   23.2836 H   0  0  0  0  0  0
  -22.4097  -11.9894   22.4740 H   0  0  0  0  0  0
  -21.1131  -13.1314   22.2611 H   0  0  0  0  0  0
  -24.6637  -15.8412   20.5177 H   0  0  0  0  0  0
  -26.2840  -15.6273   20.0870 H   0  0  0  0  0  0
  -26.7092  -32.5569   23.1203 H   0  0  0  0  0  0
  -24.9992  -33.9803   25.0464 H   0  0  0  0  0  0
  -22.6857  -31.3084   21.4127 H   0  0  0  0  0  0
  -23.3731  -35.9669   23.3307 H   0  0  0  0  0  0
  -24.3581  -36.8937   22.2059 H   0  0  0  0  0  0
  -23.7241  -37.6536   23.6657 H   0  0  0  0  0  0
  -26.0244  -31.6012   20.5867 H   0  0  0  0  0  0
  -26.8155  -30.9066   21.9735 H   0  0  0  0  0  0
  -28.0971  -29.1371   21.1662 H   0  0  0  0  0  0
  -26.0997  -25.9906   19.0022 H   0  0  0  0  0  0
  -23.9867  -27.2886   19.0382 H   0  0  0  0  0  0
  -23.7144  -30.5955   19.4075 H   0  0  0  0  0  0
  -22.7321  -29.2400   19.8735 H   0  0  0  0  0  0
  -25.1269  -36.1989   25.0839 H   0  0  0  0  0  0
  -20.9950  -28.3208   24.1454 H   0  0  0  0  0  0
  -20.5648  -26.2265   23.3604 H   0  0  0  0  0  0
  -21.6619  -26.7432   22.1217 H   0  0  0  0  0  0
  -19.6878  -25.6300   21.1237 H   0  0  0  0  0  0
  -19.6652  -27.3213   20.6763 H   0  0  0  0  0  0
  -17.4173  -26.6698   21.4031 H   0  0  0  0  0  0
  -18.0287  -26.0054   22.9011 H   0  0  0  0  0  0
  -19.7920  -30.7266   24.2291 H   0  0  0  0  0  0
  -17.4998  -31.6269   24.5170 H   0  0  0  0  0  0
  -15.5342  -30.2996   23.7636 H   0  0  0  0  0  0
  -15.8662  -28.0840   22.7041 H   0  0  0  0  0  0
  -24.5874  -30.7080   25.7829 H   0  0  0  0  0  0
  -24.8977  -32.2840   26.5026 H   0  0  0  0  0  0
  -25.8106  -30.8783   27.0208 H   0  0  0  0  0  0
  -26.2777  -29.6803   24.1168 H   0  0  0  0  0  0
  -27.4081  -29.7270   25.4508 H   0  0  0  0  0  0
  -27.8600  -30.4359   23.9170 H   0  0  0  0  0  0
  -27.2713  -33.3620   26.2038 H   0  0  0  0  0  0
  -28.3858  -32.6815   25.0279 H   0  0  0  0  0  0
  -28.0714  -31.8416   26.5381 H   0  0  0  0  0  0
  -28.2598  -38.0103   24.7512 H   0  0  0  0  0  0
  -28.1067  -36.2638   24.6285 H   0  0  0  0  0  0
  -27.2310  -37.1465   25.8874 H   0  0  0  0  0  0
  -20.9273  -29.8768   21.6994 H   0  0  0  0  0  0
  -26.0177  -38.2878   24.1406 H   0  0  0  0  0  0
  -29.3591  -19.9471   21.0271 H   0  0  0  0  0  0
  -32.3979  -16.6016   24.0156 H   0  0  0  0  0  0
  -33.8530  -17.1105   24.7787 H   0  0  0  0  0  0
  -33.6121  -17.4641   23.0827 H   0  0  0  0  0  0
  -30.8910  -18.1460   25.8115 H   0  0  0  0  0  0
  -31.5021  -19.7466   26.1183 H   0  0  0  0  0  0
  -32.4511  -18.3388   26.5614 H   0  0  0  0  0  0
  -34.3350  -19.8056   23.7318 H   0  0  0  0  0  0
  -34.4114  -19.2896   25.4008 H   0  0  0  0  0  0
  -33.4770  -20.6991   24.9906 H   0  0  0  0  0  0
  -28.8746  -16.1382   23.8138 H   0  0  0  0  0  0
  -29.0459  -17.7135   24.5412 H   0  0  0  0  0  0
  -30.4063  -16.5980   24.4240 H   0  0  0  0  0  0
  -27.9199  -16.7696   21.8774 H   0  0  0  0  0  0
  -28.5401  -17.9586   20.7764 H   0  0  0  0  0  0
  -27.8448  -18.4581   22.3227 H   0  0  0  0  0  0
  -31.7499  -16.5842   21.9823 H   0  0  0  0  0  0
  -30.8251  -17.1200   20.6299 H   0  0  0  0  0  0
  -30.0909  -26.3633   20.9847 H   0  0  0  0  0  0
  -28.8600  -27.0106   22.0260 H   0  0  0  0  0  0
  -32.5223  -21.2402   23.4016 H   0  0  0  0  0  0
  -29.3192  -15.0815   21.9003 H   0  0  0  0  0  0
  1 25  1  0  0  0
  1 30  2  0  0  0
  1 89  1  0  0  0
  2  3  1  0  0  0
  2 25  1  0  0  0
  2 98  1  0  0  0
  2 99  1  0  0  0
  3  4  1  0  0  0
  3100  1  0  0  0
  3101  1  0  0  0
  4  5  1  0  0  0
  4102  1  0  0  0
  4103  1  0  0  0
  5  6  1  0  0  0
  5 26  1  0  0  0
  5104  1  0  0  0
  6 25  1  0  0  0
  6105  1  0  0  0
  6106  1  0  0  0
  7  8  2  0  0  0
  7 26  1  0  0  0
  7 29  1  0  0  0
  8  9  1  0  0  0
  8 22  1  0  0  0
  9 10  1  0  0  0
  9 27  2  0  0  0
 10 11  2  0  0  0
 10 15  1  0  0  0
 11 12  1  0  0  0
 11107  1  0  0  0
 12 13  2  0  0  0
 12108  1  0  0  0
 13 14  1  0  0  0
 13 31  1  0  0  0
 14 15  2  0  0  0
 14109  1  0  0  0
 15110  1  0  0  0
 16 17  2  0  0  0
 16 21  1  0  0  0
 16 31  1  0  0  0
 17 18  1  0  0  0
 17111  1  0  0  0
 18 19  2  0  0  0
 18112  1  0  0  0
 19 20  1  0  0  0
 19 24  1  0  0  0
 20 21  2  0  0  0
 20113  1  0  0  0
 21 23  1  0  0  0
 22 28  1  0  0  0
 22 32  2  0  0  0
 26 27  1  0  0  0
 28114  1  0  0  0
 28115  1  0  0  0
 29116  1  0  0  0
 29117  1  0  0  0
 33 34  1  0  0  0
 33 66  1  0  0  0
 33 70  2  0  0  0
 34 36  1  0  0  0
 34 59  1  0  0  0
 34118  1  0  0  0
 35 44  2  0  0  0
 35 45  1  0  0  0
 35 68  1  0  0  0
 36 56  1  0  0  0
 36119  1  0  0  0
 37 39  1  0  0  0
 37 47  1  0  0  0
 37 66  1  0  0  0
 37120  1  0  0  0
 38 43  2  0  0  0
 38 46  1  0  0  0
 38 47  1  0  0  0
 39 64  1  0  0  0
 39 67  2  0  0  0
 40 52  1  0  0  0
 40 53  2  0  0  0
 40 58  1  0  0  0
 41121  1  0  0  0
 41122  1  0  0  0
 41123  1  0  0  0
 41 48  1  0  0  0
 42 43  1  0  0  0
 42 66  1  0  0  0
 42124  1  0  0  0
 42125  1  0  0  0
 43 44  1  0  0  0
 44126  1  0  0  0
 45 46  2  0  0  0
 45127  1  0  0  0
 46128  1  0  0  0
 47129  1  0  0  0
 47130  1  0  0  0
 48 56  1  0  0  0
 48 65  1  0  0  0
 48131  1  0  0  0
 49 50  1  0  0  0
 49 53  1  0  0  0
 49 64  1  0  0  0
 49132  1  0  0  0
 50 51  1  0  0  0
 50133  1  0  0  0
 50134  1  0  0  0
 51 52  1  0  0  0
 51135  1  0  0  0
 51136  1  0  0  0
 52137  1  0  0  0
 52138  1  0  0  0
 53 54  1  0  0  0
 54 55  2  0  0  0
 54139  1  0  0  0
 55 57  1  0  0  0
 55140  1  0  0  0
 56 69  2  0  0  0
 57 58  2  0  0  0
 57141  1  0  0  0
 58142  1  0  0  0
 59 60  1  0  0  0
 59 61  1  0  0  0
 59 62  1  0  0  0
 60143  1  0  0  0
 60144  1  0  0  0
 60145  1  0  0  0
 61146  1  0  0  0
 61147  1  0  0  0
 61148  1  0  0  0
 62149  1  0  0  0
 62150  1  0  0  0
 62151  1  0  0  0
 63 65  1  0  0  0
 63152  1  0  0  0
 63153  1  0  0  0
 63154  1  0  0  0
 64155  1  0  0  0
 65156  1  0  0  0
 68 80  1  0  0  0
 71 72  2  0  0  0
 71 87  1  0  0  0
 71157  1  0  0  0
 72 81  1  0  0  0
 72 88  1  0  0  0
 73 82  1  0  0  0
 73 87  1  0  0  0
 73 88  2  0  0  0
 74158  1  0  0  0
 74159  1  0  0  0
 74160  1  0  0  0
 74 82  1  0  0  0
 75 82  1  0  0  0
 75161  1  0  0  0
 75162  1  0  0  0
 75163  1  0  0  0
 76 82  1  0  0  0
 76164  1  0  0  0
 76165  1  0  0  0
 76166  1  0  0  0
 77167  1  0  0  0
 77168  1  0  0  0
 77169  1  0  0  0
 77 83  1  0  0  0
 78 83  1  0  0  0
 78170  1  0  0  0
 78171  1  0  0  0
 78172  1  0  0  0
 79 83  1  0  0  0
 79 89  1  0  0  0
 79173  1  0  0  0
 79174  1  0  0  0
 80 84  1  0  0  0
 80175  1  0  0  0
 80176  1  0  0  0
 81 85  1  0  0  0
 81 90  1  0  0  0
 81 91  1  0  0  0
 83 87  1  0  0  0
 84 86  1  0  0  0
 84 92  1  0  0  0
 84 93  1  0  0  0
 85 86  1  0  0  0
 85 94  1  0  0  0
 85 95  1  0  0  0
 86 96  1  0  0  0
 86 97  1  0  0  0
 88177  1  0  0  0
 89178  1  0  0  0
M  CHG  1  88   1
M  ISO  4   1 100  68 101  80 101  89 100
M  END
> <chiral flag>
0

> <version>
0

> <s_m_source_file>
/data/baiqing/PycharmProjects/Reinvent-master-3.2/result/LINK_invent/BTK/process_docking_weight1_custom_sum_contain_oxygen_bond_distance_aromatic_linkinvent_7_9_3/rearranged_h_0066.sdf

> <i_m_source_file_index>
46

> <r_mmod_Potential_Energy-OPLS-2005>
-50.5159645080566

> <r_mmod_Stretch_Energy-OPLS-2005>
49.8964881896973

> <r_mmod_Bend_Energy-OPLS-2005>
152.023361206055

> <r_mmod_Torsional_Energy-OPLS-2005>
246.589385986328

> <r_mmod_Improper_Torsional_Energy-OPLS-2005>
3.05588841438293

> <r_mmod_Van_der_Waal_Energy-OPLS-2005>
159.804000854492

> <r_mmod_Electrostatic_Energy-OPLS-2005>
-290.24853515625

> <r_mmod_Solvation_Energy-OPLS-2005>
-378.494903564453

> <b_mmod_Minimization_Converged-OPLS-2005>
0

> <r_mmod_RMS_Derivative-OPLS-2005>
1.34811353683472

$$$$
50
                    3D
 Structure written by MMmdl.
185193  0  0  1  0            999 V2000
  -30.6413  -14.6987   20.6884 C   0  0  0  0  0  0
  -30.4662  -12.4907   19.4477 C   0  0  0  0  0  0
  -29.5154  -12.5570   18.2263 C   0  0  0  0  0  0
  -28.0429  -12.3487   18.6391 C   0  0  0  0  0  0
  -27.6693  -13.1977   19.8831 C   0  0  2  0  0  0
  -28.7247  -12.9617   20.9772 C   0  0  0  0  0  0
  -25.2658  -13.8128   20.5600 C   0  0  0  0  0  0
  -24.1944  -13.0487   20.9142 C   0  0  0  0  0  0
  -24.6434  -11.6904   20.8690 C   0  0  0  0  0  0
  -23.9073  -10.4320   21.0338 C   0  0  0  0  0  0
  -24.3671   -9.4261   21.9124 C   0  0  0  0  0  0
  -23.6398   -8.2304   22.0787 C   0  0  0  0  0  0
  -22.4364   -8.0280   21.3586 C   0  0  0  0  0  0
  -21.9941   -9.0205   20.4682 C   0  0  0  0  0  0
  -22.7221  -10.2108   20.3050 C   0  0  0  0  0  0
  -21.6929   -6.0722   22.5244 C   0  0  0  0  0  0
  -21.3970   -6.5598   23.8163 C   0  0  0  0  0  0
  -21.3607   -5.6736   24.9118 C   0  0  0  0  0  0
  -21.6058   -4.3001   24.7165 C   0  0  0  0  0  0
  -21.8859   -3.8115   23.4287 C   0  0  0  0  0  0
  -21.9207   -4.6945   22.3347 C   0  0  0  0  0  0
  -22.7943  -13.5259   21.1835 C   0  0  0  0  0  0
  -22.1712   -4.2118   21.0938 F   0  0  0  0  0  0
  -21.5758   -3.4510   25.7704 F   0  0  0  0  0  0
  -30.0098  -13.4728   20.4751 N   0  0  0  0  0  0
  -26.3111  -12.9277   20.3392 N   0  0  0  0  0  0
  -25.9357  -11.6467   20.5795 N   0  0  0  0  0  0
  -22.0569  -12.8258   22.0349 N   0  0  0  0  0  0
  -25.4286  -15.1860   20.3732 N   0  0  0  0  0  0
  -31.7257  -14.8708   20.1205 O   0  0  0  0  0  0
  -21.6827   -6.8837   21.4189 O   0  0  0  0  0  0
  -22.3611  -14.5620   20.6747 O   0  0  0  0  0  0
  -24.6270  -31.8627   23.1981 C   0  0  0  0  0  0
  -25.9128  -32.4787   23.8339 C   0  0  1  0  0  0
  -27.2065  -27.3255   20.0808 C   0  0  0  0  0  0
  -25.5930  -33.8586   24.2230 N   0  0  0  0  0  0
  -23.4175  -30.4880   21.5422 C   0  0  2  0  0  0
  -24.8622  -28.9562   20.1076 C   0  0  0  0  0  0
  -22.7497  -29.4644   22.4895 C   0  0  0  0  0  0
  -18.0297  -28.1410   22.8491 C   0  0  0  0  0  0
  -24.1494  -36.7274   23.2624 C   0  0  0  0  0  0
  -25.9652  -30.7973   21.3722 C   0  0  0  0  0  0
  -26.0388  -29.4318   20.7001 C   0  0  0  0  0  0
  -27.2217  -28.6283   20.6721 C   0  0  0  0  0  0
  -26.0141  -26.9284   19.4355 C   0  0  0  0  0  0
  -24.8478  -27.7106   19.4709 C   0  0  0  0  0  0
  -23.6279  -29.8256   20.1597 C   0  0  0  0  0  0
  -25.4127  -36.3041   24.0286 C   0  0  1  0  0  0
  -20.5909  -28.3696   23.1269 C   0  0  2  0  0  0
  -20.6786  -26.9396   22.5427 C   0  0  0  0  0  0
  -19.5755  -26.6383   21.5234 C   0  0  0  0  0  0
  -18.1928  -26.7952   22.1635 C   0  0  0  0  0  0
  -19.1555  -28.8862   23.2893 C   0  0  0  0  0  0
  -18.9469  -30.1462   23.8905 C   0  0  0  0  0  0
  -17.6469  -30.6601   24.0556 C   0  0  0  0  0  0
  -25.9072  -34.9438   23.5054 C   0  0  0  0  0  0
  -16.5356  -29.9096   23.6344 C   0  0  0  0  0  0
  -16.7283  -28.6526   23.0353 C   0  0  0  0  0  0
  -26.4492  -31.6606   25.0721 C   0  0  0  0  0  0
  -25.3706  -31.3781   26.1422 C   0  0  0  0  0  0
  -27.0331  -30.3008   24.6222 C   0  0  0  0  0  0
  -27.6029  -32.4371   25.7507 C   0  0  0  0  0  0
  -27.5587  -37.1768   24.8451 C   0  0  0  0  0  0
  -21.4202  -29.3063   22.3676 N   0  0  0  0  0  0
  -26.4290  -37.3755   23.9403 N   0  0  0  0  0  0
  -24.6887  -31.0663   22.0926 N   0  0  0  0  0  0
  -23.4236  -28.8183   23.2972 O   0  0  0  0  0  0
  -28.2838  -26.4236   20.1202 O   0  0  0  0  0  0
  -26.5649  -34.8899   22.4621 O   0  0  0  0  0  0
  -23.5442  -32.1410   23.7298 O   0  0  0  0  0  0
  -29.7684  -18.5499   21.8867 C   0  0  0  0  0  0
  -30.5455  -17.8886   19.8027 C   0  0  0  0  0  0
  -30.1539  -17.4417   21.0846 C   0  0  0  0  0  0
  -30.2376  -20.2039   20.2956 C   0  0  0  0  0  0
  -28.7862  -15.7074   22.3424 C   0  0  0  0  0  0
  -31.1770  -15.9457   22.8291 C   0  0  0  0  0  0
  -30.8474  -21.8171   18.4407 C   0  0  0  0  0  0
  -33.3510  -20.8566   19.5630 C   0  0  0  0  0  0
  -32.6155  -20.8178   21.9224 C   0  0  0  0  0  0
  -33.2245  -22.8925   20.7838 C   0  0  0  0  0  0
  -27.5629  -22.5689   20.4541 C   0  0  0  0  0  0
  -28.4336  -23.8366   18.5163 C   0  0  0  0  0  0
  -30.8743  -24.4526   20.1716 C   0  0  0  0  0  0
  -30.0080  -23.0568   22.0761 C   0  0  0  0  0  0
  -27.9830  -25.0536   20.6354 C   0  0  0  0  0  0
  -30.1624  -15.9328   21.6544 C   0  0  0  0  0  0
  -30.8582  -21.6932   20.0090 C   0  0  2  0  0  0
  -32.4197  -21.5855   20.5657 C   0  0  0  0  0  0
  -28.5861  -23.6456   20.0438 C   0  0  0  0  0  0
  -30.0714  -23.1354   20.5265 C   0  0  0  0  0  0
  -29.8063  -19.8600   21.5107 N   0  0  0  0  0  0
  -30.5659  -19.2083   19.4386 N   0  0  0  0  0  0
  -31.5004  -12.6610   19.1474 H   0  0  0  0  0  0
  -30.4622  -11.4665   19.8350 H   0  0  0  0  0  0
  -29.8081  -11.7930   17.5083 H   0  0  0  0  0  0
  -29.5969  -13.5194   17.7166 H   0  0  0  0  0  0
  -27.9040  -11.2846   18.8544 H   0  0  0  0  0  0
  -27.3783  -12.5655   17.8081 H   0  0  0  0  0  0
  -27.7070  -14.2516   19.6080 H   0  0  0  0  0  0
  -28.8206  -11.8876   21.1354 H   0  0  0  0  0  0
  -28.4226  -13.2969   21.9541 H   0  0  0  0  0  0
  -25.2840   -9.5851   22.4624 H   0  0  0  0  0  0
  -24.0155   -7.4747   22.7537 H   0  0  0  0  0  0
  -21.0878   -8.8614   19.9029 H   0  0  0  0  0  0
  -22.3597  -10.9612   19.6184 H   0  0  0  0  0  0
  -21.1963   -7.6101   23.9693 H   0  0  0  0  0  0
  -21.1433   -6.0448   25.9029 H   0  0  0  0  0  0
  -22.0781   -2.7601   23.2777 H   0  0  0  0  0  0
  -22.4258  -11.9995   22.4812 H   0  0  0  0  0  0
  -21.1233  -13.1324   22.2746 H   0  0  0  0  0  0
  -24.6335  -15.8099   20.4423 H   0  0  0  0  0  0
  -26.2659  -15.6331   20.0230 H   0  0  0  0  0  0
  -26.7205  -32.5438   23.1107 H   0  0  0  0  0  0
  -25.0034  -33.9779   25.0330 H   0  0  0  0  0  0
  -22.7090  -31.3055   21.3960 H   0  0  0  0  0  0
  -23.3766  -35.9602   23.3255 H   0  0  0  0  0  0
  -24.3576  -36.8954   22.2053 H   0  0  0  0  0  0
  -23.7275  -37.6452   23.6712 H   0  0  0  0  0  0
  -26.1114  -31.5726   20.6194 H   0  0  0  0  0  0
  -26.8439  -30.8339   22.0059 H   0  0  0  0  0  0
  -28.1315  -28.9800   21.1351 H   0  0  0  0  0  0
  -25.9614  -25.9865   18.9099 H   0  0  0  0  0  0
  -23.9359  -27.3590   19.0065 H   0  0  0  0  0  0
  -23.7220  -30.5953   19.3922 H   0  0  0  0  0  0
  -22.7565  -29.2326   19.8747 H   0  0  0  0  0  0
  -25.1317  -36.1835   25.0780 H   0  0  0  0  0  0
  -21.0000  -28.3269   24.1385 H   0  0  0  0  0  0
  -20.5692  -26.2274   23.3632 H   0  0  0  0  0  0
  -21.6644  -26.7429   22.1196 H   0  0  0  0  0  0
  -19.6900  -25.6292   21.1272 H   0  0  0  0  0  0
  -19.6717  -27.3184   20.6757 H   0  0  0  0  0  0
  -17.4202  -26.6710   21.4036 H   0  0  0  0  0  0
  -18.0308  -26.0108   22.9040 H   0  0  0  0  0  0
  -19.7927  -30.7297   24.2272 H   0  0  0  0  0  0
  -17.5003  -31.6272   24.5167 H   0  0  0  0  0  0
  -15.5348  -30.2992   23.7673 H   0  0  0  0  0  0
  -15.8681  -28.0848   22.7060 H   0  0  0  0  0  0
  -24.5888  -30.7125   25.7741 H   0  0  0  0  0  0
  -24.8894  -32.2970   26.4789 H   0  0  0  0  0  0
  -25.8008  -30.8995   27.0226 H   0  0  0  0  0  0
  -26.2910  -29.6766   24.1228 H   0  0  0  0  0  0
  -27.3966  -29.7279   25.4767 H   0  0  0  0  0  0
  -27.8810  -30.4255   23.9482 H   0  0  0  0  0  0
  -27.2608  -33.3691   26.2023 H   0  0  0  0  0  0
  -28.3870  -32.6917   25.0363 H   0  0  0  0  0  0
  -28.0648  -31.8541   26.5482 H   0  0  0  0  0  0
  -28.2523  -38.0131   24.7534 H   0  0  0  0  0  0
  -28.1148  -36.2659   24.6204 H   0  0  0  0  0  0
  -27.2301  -37.1302   25.8845 H   0  0  0  0  0  0
  -20.9356  -29.8712   21.6839 H   0  0  0  0  0  0
  -26.0130  -38.2794   24.1467 H   0  0  0  0  0  0
  -29.4576  -18.4013   22.9068 H   0  0  0  0  0  0
  -30.9052  -17.2044   19.0523 H   0  0  0  0  0  0
  -28.8241  -14.9242   23.0964 H   0  0  0  0  0  0
  -28.0070  -15.4722   21.6255 H   0  0  0  0  0  0
  -28.4398  -16.5663   22.9202 H   0  0  0  0  0  0
  -30.8434  -16.5755   23.6572 H   0  0  0  0  0  0
  -32.1494  -16.3369   22.5366 H   0  0  0  0  0  0
  -31.3431  -14.9514   23.2494 H   0  0  0  0  0  0
  -29.8669  -21.6173   18.0121 H   0  0  0  0  0  0
  -31.4704  -21.0893   17.9257 H   0  0  0  0  0  0
  -31.1726  -22.7920   18.0872 H   0  0  0  0  0  0
  -33.4674  -21.4407   18.6506 H   0  0  0  0  0  0
  -34.3546  -20.7495   19.9722 H   0  0  0  0  0  0
  -33.0200  -19.8542   19.2888 H   0  0  0  0  0  0
  -32.7420  -19.7415   21.7788 H   0  0  0  0  0  0
  -31.8266  -20.9740   22.6594 H   0  0  0  0  0  0
  -33.5309  -21.1132   22.4361 H   0  0  0  0  0  0
  -34.2386  -22.7010   21.1313 H   0  0  0  0  0  0
  -32.8048  -23.5384   21.5476 H   0  0  0  0  0  0
  -33.3811  -23.4465   19.8619 H   0  0  0  0  0  0
  -26.6001  -22.7632   19.9802 H   0  0  0  0  0  0
  -27.4038  -22.5483   21.5330 H   0  0  0  0  0  0
  -27.8769  -21.5749   20.1551 H   0  0  0  0  0  0
  -27.5322  -24.4127   18.3238 H   0  0  0  0  0  0
  -28.2750  -22.9030   17.9854 H   0  0  0  0  0  0
  -29.2456  -24.3919   18.0442 H   0  0  0  0  0  0
  -31.3242  -24.9454   21.0316 H   0  0  0  0  0  0
  -30.3053  -25.2512   19.7095 H   0  0  0  0  0  0
  -31.6242  -24.3324   19.4075 H   0  0  0  0  0  0
  -30.9831  -23.0317   22.5466 H   0  0  0  0  0  0
  -29.4817  -22.1752   22.4356 H   0  0  0  0  0  0
  -29.5104  -23.9167   22.5093 H   0  0  0  0  0  0
  -28.0428  -25.1160   21.7191 H   0  0  0  0  0  0
  -26.9142  -24.9143   20.5154 H   0  0  0  0  0  0
  1 25  1  0  0  0
  1 30  2  0  0  0
  1 86  1  0  0  0
  2  3  1  0  0  0
  2 25  1  0  0  0
  2 93  1  0  0  0
  2 94  1  0  0  0
  3  4  1  0  0  0
  3 95  1  0  0  0
  3 96  1  0  0  0
  4  5  1  0  0  0
  4 97  1  0  0  0
  4 98  1  0  0  0
  5  6  1  0  0  0
  5 26  1  0  0  0
  5 99  1  0  0  0
  6 25  1  0  0  0
  6100  1  0  0  0
  6101  1  0  0  0
  7  8  2  0  0  0
  7 26  1  0  0  0
  7 29  1  0  0  0
  8  9  1  0  0  0
  8 22  1  0  0  0
  9 10  1  0  0  0
  9 27  2  0  0  0
 10 11  2  0  0  0
 10 15  1  0  0  0
 11 12  1  0  0  0
 11102  1  0  0  0
 12 13  2  0  0  0
 12103  1  0  0  0
 13 14  1  0  0  0
 13 31  1  0  0  0
 14 15  2  0  0  0
 14104  1  0  0  0
 15105  1  0  0  0
 16 17  2  0  0  0
 16 21  1  0  0  0
 16 31  1  0  0  0
 17 18  1  0  0  0
 17106  1  0  0  0
 18 19  2  0  0  0
 18107  1  0  0  0
 19 20  1  0  0  0
 19 24  1  0  0  0
 20 21  2  0  0  0
 20108  1  0  0  0
 21 23  1  0  0  0
 22 28  1  0  0  0
 22 32  2  0  0  0
 26 27  1  0  0  0
 28109  1  0  0  0
 28110  1  0  0  0
 29111  1  0  0  0
 29112  1  0  0  0
 33 34  1  0  0  0
 33 66  1  0  0  0
 33 70  2  0  0  0
 34 36  1  0  0  0
 34 59  1  0  0  0
 34113  1  0  0  0
 35 44  2  0  0  0
 35 45  1  0  0  0
 35 68  1  0  0  0
 36 56  1  0  0  0
 36114  1  0  0  0
 37 39  1  0  0  0
 37 47  1  0  0  0
 37 66  1  0  0  0
 37115  1  0  0  0
 38 43  2  0  0  0
 38 46  1  0  0  0
 38 47  1  0  0  0
 39 64  1  0  0  0
 39 67  2  0  0  0
 40 52  1  0  0  0
 40 53  2  0  0  0
 40 58  1  0  0  0
 41116  1  0  0  0
 41117  1  0  0  0
 41118  1  0  0  0
 41 48  1  0  0  0
 42 43  1  0  0  0
 42 66  1  0  0  0
 42119  1  0  0  0
 42120  1  0  0  0
 43 44  1  0  0  0
 44121  1  0  0  0
 45 46  2  0  0  0
 45122  1  0  0  0
 46123  1  0  0  0
 47124  1  0  0  0
 47125  1  0  0  0
 48 56  1  0  0  0
 48 65  1  0  0  0
 48126  1  0  0  0
 49 50  1  0  0  0
 49 53  1  0  0  0
 49 64  1  0  0  0
 49127  1  0  0  0
 50 51  1  0  0  0
 50128  1  0  0  0
 50129  1  0  0  0
 51 52  1  0  0  0
 51130  1  0  0  0
 51131  1  0  0  0
 52132  1  0  0  0
 52133  1  0  0  0
 53 54  1  0  0  0
 54 55  2  0  0  0
 54134  1  0  0  0
 55 57  1  0  0  0
 55135  1  0  0  0
 56 69  2  0  0  0
 57 58  2  0  0  0
 57136  1  0  0  0
 58137  1  0  0  0
 59 60  1  0  0  0
 59 61  1  0  0  0
 59 62  1  0  0  0
 60138  1  0  0  0
 60139  1  0  0  0
 60140  1  0  0  0
 61141  1  0  0  0
 61142  1  0  0  0
 61143  1  0  0  0
 62144  1  0  0  0
 62145  1  0  0  0
 62146  1  0  0  0
 63 65  1  0  0  0
 63147  1  0  0  0
 63148  1  0  0  0
 63149  1  0  0  0
 64150  1  0  0  0
 65151  1  0  0  0
 68 85  1  0  0  0
 71 73  2  0  0  0
 71 91  1  0  0  0
 71152  1  0  0  0
 72 73  1  0  0  0
 72 92  2  0  0  0
 72153  1  0  0  0
 73 86  1  0  0  0
 74 87  1  0  0  0
 74 91  2  0  0  0
 74 92  1  0  0  0
 75154  1  0  0  0
 75155  1  0  0  0
 75156  1  0  0  0
 75 86  1  0  0  0
 76 86  1  0  0  0
 76157  1  0  0  0
 76158  1  0  0  0
 76159  1  0  0  0
 77160  1  0  0  0
 77161  1  0  0  0
 77162  1  0  0  0
 77 87  1  0  0  0
 78163  1  0  0  0
 78164  1  0  0  0
 78165  1  0  0  0
 78 88  1  0  0  0
 79 88  1  0  0  0
 79166  1  0  0  0
 79167  1  0  0  0
 79168  1  0  0  0
 80 88  1  0  0  0
 80169  1  0  0  0
 80170  1  0  0  0
 80171  1  0  0  0
 81172  1  0  0  0
 81173  1  0  0  0
 81174  1  0  0  0
 81 89  1  0  0  0
 82 89  1  0  0  0
 82175  1  0  0  0
 82176  1  0  0  0
 82177  1  0  0  0
 83178  1  0  0  0
 83179  1  0  0  0
 83180  1  0  0  0
 83 90  1  0  0  0
 84 90  1  0  0  0
 84181  1  0  0  0
 84182  1  0  0  0
 84183  1  0  0  0
 85 89  1  0  0  0
 85184  1  0  0  0
 85185  1  0  0  0
 87 88  1  0  0  0
 87 90  1  0  0  0
 89 90  1  0  0  0
M  ISO  4   1 100  68 101  85 101  86 100
M  END
> <chiral flag>
0

> <version>
0

> <s_m_source_file>
/data/baiqing/PycharmProjects/Reinvent-master-3.2/result/LINK_invent/BTK/process_docking_weight1_custom_sum_contain_oxygen_bond_distance_aromatic_linkinvent_7_9_3/rearranged_h_0066.sdf

> <i_m_source_file_index>
47

> <r_mmod_Potential_Energy-OPLS-2005>
342.099304199219

> <r_mmod_Stretch_Energy-OPLS-2005>
217.188140869141

> <r_mmod_Bend_Energy-OPLS-2005>
334.922271728516

> <r_mmod_Torsional_Energy-OPLS-2005>
277.947143554688

> <r_mmod_Improper_Torsional_Energy-OPLS-2005>
6.34459733963013

> <r_mmod_Van_der_Waal_Energy-OPLS-2005>
257.266510009766

> <r_mmod_Electrostatic_Energy-OPLS-2005>
-633.800720214844

> <r_mmod_Solvation_Energy-OPLS-2005>
-178.916625976562

> <b_mmod_Minimization_Converged-OPLS-2005>
0

> <r_mmod_RMS_Derivative-OPLS-2005>
12.0499134063721

$$$$
51
                    3D
 Structure written by MMmdl.
180189  0  0  1  0            999 V2000
  -30.7651  -14.5592   20.3844 C   0  0  0  0  0  0
  -30.3922  -12.3261   19.4594 C   0  0  0  0  0  0
  -29.4807  -12.4324   18.2225 C   0  0  0  0  0  0
  -28.0048  -12.3104   18.6413 C   0  0  0  0  0  0
  -27.6312  -13.2116   19.8500 C   0  0  2  0  0  0
  -28.6930  -13.1812   20.9685 C   0  0  0  0  0  0
  -25.2468  -13.8125   20.5747 C   0  0  0  0  0  0
  -24.1737  -13.0387   20.9184 C   0  0  0  0  0  0
  -24.6334  -11.6873   20.8780 C   0  0  0  0  0  0
  -23.9019  -10.4262   21.0428 C   0  0  0  0  0  0
  -24.3587   -9.4186   21.9202 C   0  0  0  0  0  0
  -23.6274   -8.2215   22.0760 C   0  0  0  0  0  0
  -22.4260   -8.0254   21.3540 C   0  0  0  0  0  0
  -21.9888   -9.0227   20.4642 C   0  0  0  0  0  0
  -22.7202  -10.2107   20.3066 C   0  0  0  0  0  0
  -21.6842   -6.0723   22.5278 C   0  0  0  0  0  0
  -21.4007   -6.5630   23.8213 C   0  0  0  0  0  0
  -21.3658   -5.6788   24.9172 C   0  0  0  0  0  0
  -21.6046   -4.3051   24.7227 C   0  0  0  0  0  0
  -21.8820   -3.8137   23.4350 C   0  0  0  0  0  0
  -21.9191   -4.6953   22.3401 C   0  0  0  0  0  0
  -22.7770  -13.5198   21.1837 C   0  0  0  0  0  0
  -22.1659   -4.2141   21.0980 F   0  0  0  0  0  0
  -21.5633   -3.4536   25.7740 F   0  0  0  0  0  0
  -30.0094  -13.4212   20.3682 N   0  0  0  0  0  0
  -26.2906  -12.9298   20.3435 N   0  0  0  0  0  0
  -25.9274  -11.6458   20.5883 N   0  0  0  0  0  0
  -22.0416  -12.8209   22.0404 N   0  0  0  0  0  0
  -25.4163  -15.1835   20.4223 N   0  0  0  0  0  0
  -31.9872  -14.4378   20.3073 O   0  0  0  0  0  0
  -21.6623   -6.8856   21.4237 O   0  0  0  0  0  0
  -22.3457  -14.5507   20.6684 O   0  0  0  0  0  0
  -24.6125  -31.8679   23.2073 C   0  0  0  0  0  0
  -25.9025  -32.4820   23.8370 C   0  0  1  0  0  0
  -27.2432  -27.4384   20.1104 C   0  0  0  0  0  0
  -25.5880  -33.8616   24.2334 N   0  0  0  0  0  0
  -23.3979  -30.4906   21.5468 C   0  0  2  0  0  0
  -24.8467  -28.9537   20.1163 C   0  0  0  0  0  0
  -22.7393  -29.4656   22.4972 C   0  0  0  0  0  0
  -18.0278  -28.1382   22.8493 C   0  0  0  0  0  0
  -24.1482  -36.7306   23.2640 C   0  0  0  0  0  0
  -25.9253  -30.8399   21.3532 C   0  0  0  0  0  0
  -26.0039  -29.4724   20.7082 C   0  0  0  0  0  0
  -27.2015  -28.7230   20.6962 C   0  0  0  0  0  0
  -26.0611  -26.9257   19.5227 C   0  0  0  0  0  0
  -24.8708  -27.6810   19.5229 C   0  0  0  0  0  0
  -23.6054  -29.8172   20.1634 C   0  0  0  0  0  0
  -25.4096  -36.3107   24.0345 C   0  0  1  0  0  0
  -20.5872  -28.3642   23.1328 C   0  0  2  0  0  0
  -20.6770  -26.9381   22.5425 C   0  0  0  0  0  0
  -19.5744  -26.6384   21.5220 C   0  0  0  0  0  0
  -18.1912  -26.7930   22.1636 C   0  0  0  0  0  0
  -19.1524  -28.8831   23.2911 C   0  0  0  0  0  0
  -18.9455  -30.1442   23.8910 C   0  0  0  0  0  0
  -17.6466  -30.6580   24.0564 C   0  0  0  0  0  0
  -25.9033  -34.9473   23.5135 C   0  0  0  0  0  0
  -16.5352  -29.9081   23.6334 C   0  0  0  0  0  0
  -16.7264  -28.6503   23.0338 C   0  0  0  0  0  0
  -26.4464  -31.6574   25.0679 C   0  0  0  0  0  0
  -25.3753  -31.3673   26.1440 C   0  0  0  0  0  0
  -27.0297  -30.3019   24.6019 C   0  0  0  0  0  0
  -27.6048  -32.4277   25.7443 C   0  0  0  0  0  0
  -27.5575  -37.1799   24.8467 C   0  0  0  0  0  0
  -21.4122  -29.3016   22.3729 N   0  0  0  0  0  0
  -26.4285  -37.3782   23.9414 N   0  0  0  0  0  0
  -24.6637  -31.0801   22.0961 N   0  0  0  0  0  0
  -23.4180  -28.8215   23.3010 O   0  0  0  0  0  0
  -28.4543  -26.7753   20.1142 O   0  0  0  0  0  0
  -26.5596  -34.8921   22.4694 O   0  0  0  0  0  0
  -23.5311  -32.1420   23.7484 O   0  0  0  0  0  0
  -28.1069  -23.0967   20.9930 C   0  0  0  0  0  0
  -27.5839  -17.6131   21.7523 C   0  0  0  0  0  0
  -29.7463  -17.7644   21.8763 C   0  0  0  0  0  0
  -28.6243  -18.4529   22.2517 C   0  0  0  0  0  0
  -28.0341  -22.3395   22.1745 C   0  0  0  0  0  0
  -28.3747  -24.4713   21.1106 C   0  0  0  0  0  0
  -28.4847  -24.2455   23.3958 C   0  0  0  0  0  0
  -27.8434  -19.5577   24.3417 C   0  0  0  0  0  0
  -29.9721  -20.3175   23.2771 C   0  0  0  0  0  0
  -30.5834  -24.5600   24.7333 C   0  0  0  0  0  0
  -28.4201  -24.1025   25.9379 C   0  0  0  0  0  0
  -28.7749  -26.3105   24.8681 C   0  0  0  0  0  0
  -31.5093  -16.9327   19.8312 C   0  0  0  0  0  0
  -29.6049  -16.0810   18.6264 C   0  0  0  0  0  0
  -27.6800  -20.8368   22.1553 C   0  0  0  0  0  0
  -28.5369  -25.3608   19.8743 C   0  0  0  0  0  0
  -28.5397  -19.8028   22.9863 C   0  0  0  0  0  0
  -29.0610  -24.7994   24.7147 C   0  0  0  0  0  0
  -30.2480  -16.0238   20.0390 C   0  0  0  0  0  0
  -28.0381  -16.5962   21.0209 N   0  0  0  0  0  0
  -28.1853  -22.9472   23.3666 N   0  0  0  0  0  0
  -28.5998  -25.0194   22.3201 N   0  0  0  0  0  0
  -29.3871  -16.7299   21.0211 N   0  0  0  0  0  0
  -31.4382  -12.3648   19.1501 H   0  0  0  0  0  0
  -30.2644  -11.3619   19.9538 H   0  0  0  0  0  0
  -29.7286  -11.6467   17.5073 H   0  0  0  0  0  0
  -29.6464  -13.3742   17.7021 H   0  0  0  0  0  0
  -27.8318  -11.2651   18.8975 H   0  0  0  0  0  0
  -27.3518  -12.5246   17.7951 H   0  0  0  0  0  0
  -27.5900  -14.2212   19.4726 H   0  0  0  0  0  0
  -28.6867  -12.2171   21.4796 H   0  0  0  0  0  0
  -28.4738  -13.9342   21.7269 H   0  0  0  0  0  0
  -25.2731   -9.5669   22.4774 H   0  0  0  0  0  0
  -23.9986   -7.4607   22.7481 H   0  0  0  0  0  0
  -21.0818   -8.8732   19.8948 H   0  0  0  0  0  0
  -22.3660  -10.9646   19.6171 H   0  0  0  0  0  0
  -21.1992   -7.6140   23.9709 H   0  0  0  0  0  0
  -21.1485   -6.0519   25.9078 H   0  0  0  0  0  0
  -22.0604   -2.7603   23.2848 H   0  0  0  0  0  0
  -22.4024  -11.9870   22.4803 H   0  0  0  0  0  0
  -21.1038  -13.1239   22.2619 H   0  0  0  0  0  0
  -24.6675  -15.8429   20.5988 H   0  0  0  0  0  0
  -26.3379  -15.6202   20.3890 H   0  0  0  0  0  0
  -26.7096  -32.5553   23.1141 H   0  0  0  0  0  0
  -25.0024  -33.9774   25.0469 H   0  0  0  0  0  0
  -22.6863  -31.3078   21.4054 H   0  0  0  0  0  0
  -23.3749  -35.9641   23.3305 H   0  0  0  0  0  0
  -24.3588  -36.8908   22.2059 H   0  0  0  0  0  0
  -23.7252  -37.6510   23.6653 H   0  0  0  0  0  0
  -26.0296  -31.6026   20.5805 H   0  0  0  0  0  0
  -26.8158  -30.9035   21.9658 H   0  0  0  0  0  0
  -28.0991  -29.1260   21.1446 H   0  0  0  0  0  0
  -26.0263  -25.9569   19.0501 H   0  0  0  0  0  0
  -23.9801  -27.2714   19.0661 H   0  0  0  0  0  0
  -23.7045  -30.5863   19.3967 H   0  0  0  0  0  0
  -22.7327  -29.2292   19.8763 H   0  0  0  0  0  0
  -25.1285  -36.1954   25.0844 H   0  0  0  0  0  0
  -20.9985  -28.3204   24.1443 H   0  0  0  0  0  0
  -20.5673  -26.2244   23.3595 H   0  0  0  0  0  0
  -21.6631  -26.7426   22.1210 H   0  0  0  0  0  0
  -19.6895  -25.6299   21.1217 H   0  0  0  0  0  0
  -19.6689  -27.3224   20.6768 H   0  0  0  0  0  0
  -17.4191  -26.6682   21.4024 H   0  0  0  0  0  0
  -18.0304  -26.0066   22.9032 H   0  0  0  0  0  0
  -19.7924  -30.7255   24.2267 H   0  0  0  0  0  0
  -17.5010  -31.6263   24.5158 H   0  0  0  0  0  0
  -15.5343  -30.2987   23.7645 H   0  0  0  0  0  0
  -15.8669  -28.0835   22.7031 H   0  0  0  0  0  0
  -24.5918  -30.7025   25.7779 H   0  0  0  0  0  0
  -24.8952  -32.2829   26.4904 H   0  0  0  0  0  0
  -25.8117  -30.8827   27.0185 H   0  0  0  0  0  0
  -26.2827  -29.6776   24.1091 H   0  0  0  0  0  0
  -27.4122  -29.7238   25.4449 H   0  0  0  0  0  0
  -27.8638  -30.4351   23.9125 H   0  0  0  0  0  0
  -27.2677  -33.3558   26.2059 H   0  0  0  0  0  0
  -28.3837  -32.6849   25.0264 H   0  0  0  0  0  0
  -28.0735  -31.8372   26.5321 H   0  0  0  0  0  0
  -28.2592  -38.0094   24.7515 H   0  0  0  0  0  0
  -28.1075  -36.2631   24.6294 H   0  0  0  0  0  0
  -27.2299  -37.1449   25.8870 H   0  0  0  0  0  0
  -20.9255  -29.8737   21.6971 H   0  0  0  0  0  0
  -26.0176  -38.2852   24.1424 H   0  0  0  0  0  0
  -27.9626  -22.6461   20.0205 H   0  0  0  0  0  0
  -26.5154  -17.7467   21.8401 H   0  0  0  0  0  0
  -30.7789  -18.0358   22.0318 H   0  0  0  0  0  0
  -28.4040  -18.8557   24.9610 H   0  0  0  0  0  0
  -26.8394  -19.1500   24.2119 H   0  0  0  0  0  0
  -27.7454  -20.4869   24.9073 H   0  0  0  0  0  0
  -30.5694  -19.5737   23.8051 H   0  0  0  0  0  0
  -29.9755  -21.1977   23.9176 H   0  0  0  0  0  0
  -30.4996  -20.5807   22.3589 H   0  0  0  0  0  0
  -31.0435  -24.9294   25.6486 H   0  0  0  0  0  0
  -31.0634  -25.0600   23.8912 H   0  0  0  0  0  0
  -30.8074  -23.4968   24.6490 H   0  0  0  0  0  0
  -28.6210  -23.0298   25.9412 H   0  0  0  0  0  0
  -27.3365  -24.2308   25.9419 H   0  0  0  0  0  0
  -28.8059  -24.5033   26.8755 H   0  0  0  0  0  0
  -29.2425  -26.8884   24.0704 H   0  0  0  0  0  0
  -29.1601  -26.7005   25.8106 H   0  0  0  0  0  0
  -27.7038  -26.5114   24.8363 H   0  0  0  0  0  0
  -31.2408  -17.9685   19.6173 H   0  0  0  0  0  0
  -32.1198  -16.6007   18.9906 H   0  0  0  0  0  0
  -32.1626  -16.9441   20.7055 H   0  0  0  0  0  0
  -29.5415  -17.1094   18.2695 H   0  0  0  0  0  0
  -28.5909  -15.7112   18.5724 H   0  0  0  0  0  0
  -30.1982  -15.5376   17.8930 H   0  0  0  0  0  0
  -27.7457  -20.5476   21.1057 H   0  0  0  0  0  0
  -26.6220  -20.7393   22.3962 H   0  0  0  0  0  0
  -29.5464  -25.1875   19.5011 H   0  0  0  0  0  0
  -27.8894  -25.0176   19.0717 H   0  0  0  0  0  0
  1 25  1  0  0  0
  1 30  2  0  0  0
  1 89  1  0  0  0
  2  3  1  0  0  0
  2 25  1  0  0  0
  2 94  1  0  0  0
  2 95  1  0  0  0
  3  4  1  0  0  0
  3 96  1  0  0  0
  3 97  1  0  0  0
  4  5  1  0  0  0
  4 98  1  0  0  0
  4 99  1  0  0  0
  5  6  1  0  0  0
  5 26  1  0  0  0
  5100  1  0  0  0
  6 25  1  0  0  0
  6101  1  0  0  0
  6102  1  0  0  0
  7  8  2  0  0  0
  7 26  1  0  0  0
  7 29  1  0  0  0
  8  9  1  0  0  0
  8 22  1  0  0  0
  9 10  1  0  0  0
  9 27  2  0  0  0
 10 11  2  0  0  0
 10 15  1  0  0  0
 11 12  1  0  0  0
 11103  1  0  0  0
 12 13  2  0  0  0
 12104  1  0  0  0
 13 14  1  0  0  0
 13 31  1  0  0  0
 14 15  2  0  0  0
 14105  1  0  0  0
 15106  1  0  0  0
 16 17  2  0  0  0
 16 21  1  0  0  0
 16 31  1  0  0  0
 17 18  1  0  0  0
 17107  1  0  0  0
 18 19  2  0  0  0
 18108  1  0  0  0
 19 20  1  0  0  0
 19 24  1  0  0  0
 20 21  2  0  0  0
 20109  1  0  0  0
 21 23  1  0  0  0
 22 28  1  0  0  0
 22 32  2  0  0  0
 26 27  1  0  0  0
 28110  1  0  0  0
 28111  1  0  0  0
 29112  1  0  0  0
 29113  1  0  0  0
 33 34  1  0  0  0
 33 66  1  0  0  0
 33 70  2  0  0  0
 34 36  1  0  0  0
 34 59  1  0  0  0
 34114  1  0  0  0
 35 44  2  0  0  0
 35 45  1  0  0  0
 35 68  1  0  0  0
 36 56  1  0  0  0
 36115  1  0  0  0
 37 39  1  0  0  0
 37 47  1  0  0  0
 37 66  1  0  0  0
 37116  1  0  0  0
 38 43  2  0  0  0
 38 46  1  0  0  0
 38 47  1  0  0  0
 39 64  1  0  0  0
 39 67  2  0  0  0
 40 52  1  0  0  0
 40 53  2  0  0  0
 40 58  1  0  0  0
 41117  1  0  0  0
 41118  1  0  0  0
 41119  1  0  0  0
 41 48  1  0  0  0
 42 43  1  0  0  0
 42 66  1  0  0  0
 42120  1  0  0  0
 42121  1  0  0  0
 43 44  1  0  0  0
 44122  1  0  0  0
 45 46  2  0  0  0
 45123  1  0  0  0
 46124  1  0  0  0
 47125  1  0  0  0
 47126  1  0  0  0
 48 56  1  0  0  0
 48 65  1  0  0  0
 48127  1  0  0  0
 49 50  1  0  0  0
 49 53  1  0  0  0
 49 64  1  0  0  0
 49128  1  0  0  0
 50 51  1  0  0  0
 50129  1  0  0  0
 50130  1  0  0  0
 51 52  1  0  0  0
 51131  1  0  0  0
 51132  1  0  0  0
 52133  1  0  0  0
 52134  1  0  0  0
 53 54  1  0  0  0
 54 55  2  0  0  0
 54135  1  0  0  0
 55 57  1  0  0  0
 55136  1  0  0  0
 56 69  2  0  0  0
 57 58  2  0  0  0
 57137  1  0  0  0
 58138  1  0  0  0
 59 60  1  0  0  0
 59 61  1  0  0  0
 59 62  1  0  0  0
 60139  1  0  0  0
 60140  1  0  0  0
 60141  1  0  0  0
 61142  1  0  0  0
 61143  1  0  0  0
 61144  1  0  0  0
 62145  1  0  0  0
 62146  1  0  0  0
 62147  1  0  0  0
 63 65  1  0  0  0
 63148  1  0  0  0
 63149  1  0  0  0
 63150  1  0  0  0
 64151  1  0  0  0
 65152  1  0  0  0
 68 86  1  0  0  0
 71 75  2  0  0  0
 71 76  1  0  0  0
 71153  1  0  0  0
 72 74  1  0  0  0
 72 90  2  0  0  0
 72154  1  0  0  0
 73 74  2  0  0  0
 73 93  1  0  0  0
 73155  1  0  0  0
 74 87  1  0  0  0
 75 85  1  0  0  0
 75 91  1  0  0  0
 76 86  1  0  0  0
 76 92  2  0  0  0
 77 88  1  0  0  0
 77 91  2  0  0  0
 77 92  1  0  0  0
 78156  1  0  0  0
 78157  1  0  0  0
 78158  1  0  0  0
 78 87  1  0  0  0
 79 87  1  0  0  0
 79159  1  0  0  0
 79160  1  0  0  0
 79161  1  0  0  0
 80162  1  0  0  0
 80163  1  0  0  0
 80164  1  0  0  0
 80 88  1  0  0  0
 81 88  1  0  0  0
 81165  1  0  0  0
 81166  1  0  0  0
 81167  1  0  0  0
 82 88  1  0  0  0
 82168  1  0  0  0
 82169  1  0  0  0
 82170  1  0  0  0
 83171  1  0  0  0
 83172  1  0  0  0
 83173  1  0  0  0
 83 89  1  0  0  0
 84 89  1  0  0  0
 84174  1  0  0  0
 84175  1  0  0  0
 84176  1  0  0  0
 85 87  1  0  0  0
 85177  1  0  0  0
 85178  1  0  0  0
 86179  1  0  0  0
 86180  1  0  0  0
 89 93  1  0  0  0
 90 93  1  0  0  0
M  ISO  4   1 100  68 101  86 101  89 100
M  END
> <chiral flag>
0

> <version>
0

> <s_m_source_file>
/data/baiqing/PycharmProjects/Reinvent-master-3.2/result/LINK_invent/BTK/process_docking_weight1_custom_sum_contain_oxygen_bond_distance_aromatic_linkinvent_7_9_3/rearranged_h_0066.sdf

> <i_m_source_file_index>
48

> <r_mmod_Potential_Energy-OPLS-2005>
-160.697998046875

> <r_mmod_Stretch_Energy-OPLS-2005>
53.5233497619629

> <r_mmod_Bend_Energy-OPLS-2005>
162.589813232422

> <r_mmod_Torsional_Energy-OPLS-2005>
250.70719909668

> <r_mmod_Improper_Torsional_Energy-OPLS-2005>
16.6554985046387

> <r_mmod_Van_der_Waal_Energy-OPLS-2005>
174.91145324707

> <r_mmod_Electrostatic_Energy-OPLS-2005>
-672.875244140625

> <r_mmod_Solvation_Energy-OPLS-2005>
-196.590835571289

> <b_mmod_Minimization_Converged-OPLS-2005>
0

> <r_mmod_RMS_Derivative-OPLS-2005>
2.81217265129089

$$$$
52
                    3D
 Structure written by MMmdl.
162170  0  0  1  0            999 V2000
  -30.7977  -14.5541   20.2917 C   0  0  0  0  0  0
  -30.4017  -12.3036   19.4351 C   0  0  0  0  0  0
  -29.4729  -12.3317   18.2096 C   0  0  0  0  0  0
  -27.9941  -12.2922   18.6353 C   0  0  0  0  0  0
  -27.6346  -13.2227   19.8284 C   0  0  2  0  0  0
  -28.7124  -13.2170   20.9304 C   0  0  0  0  0  0
  -25.2554  -13.8192   20.5749 C   0  0  0  0  0  0
  -24.1810  -13.0454   20.9223 C   0  0  0  0  0  0
  -24.6399  -11.6924   20.8808 C   0  0  0  0  0  0
  -23.9064  -10.4303   21.0443 C   0  0  0  0  0  0
  -24.3611   -9.4215   21.9212 C   0  0  0  0  0  0
  -23.6302   -8.2243   22.0760 C   0  0  0  0  0  0
  -22.4284   -8.0294   21.3553 C   0  0  0  0  0  0
  -21.9918   -9.0266   20.4661 C   0  0  0  0  0  0
  -22.7235  -10.2154   20.3094 C   0  0  0  0  0  0
  -21.6849   -6.0757   22.5282 C   0  0  0  0  0  0
  -21.4014   -6.5658   23.8213 C   0  0  0  0  0  0
  -21.3663   -5.6806   24.9173 C   0  0  0  0  0  0
  -21.6028   -4.3068   24.7214 C   0  0  0  0  0  0
  -21.8814   -3.8168   23.4338 C   0  0  0  0  0  0
  -21.9188   -4.6990   22.3398 C   0  0  0  0  0  0
  -22.7833  -13.5254   21.1840 C   0  0  0  0  0  0
  -22.1660   -4.2177   21.0978 F   0  0  0  0  0  0
  -21.5625   -3.4549   25.7730 F   0  0  0  0  0  0
  -30.0213  -13.4308   20.2977 N   0  0  0  0  0  0
  -26.2974  -12.9371   20.3387 N   0  0  0  0  0  0
  -25.9335  -11.6532   20.5886 N   0  0  0  0  0  0
  -22.0461  -12.8232   22.0385 N   0  0  0  0  0  0
  -25.4296  -15.1913   20.4223 N   0  0  0  0  0  0
  -32.0086  -14.4233   20.4363 O   0  0  0  0  0  0
  -21.6643   -6.8903   21.4244 O   0  0  0  0  0  0
  -22.3531  -14.5574   20.6717 O   0  0  0  0  0  0
  -24.6142  -31.8687   23.2067 C   0  0  0  0  0  0
  -25.9030  -32.4824   23.8383 C   0  0  1  0  0  0
  -27.2308  -27.4381   20.0980 C   0  0  0  0  0  0
  -25.5887  -33.8622   24.2320 N   0  0  0  0  0  0
  -23.4015  -30.4924   21.5481 C   0  0  2  0  0  0
  -24.8510  -28.9569   20.1122 C   0  0  0  0  0  0
  -22.7394  -29.4665   22.4976 C   0  0  0  0  0  0
  -18.0272  -28.1374   22.8471 C   0  0  0  0  0  0
  -24.1489  -36.7319   23.2638 C   0  0  0  0  0  0
  -25.9301  -30.8378   21.3569 C   0  0  0  0  0  0
  -26.0117  -29.4720   20.7050 C   0  0  0  0  0  0
  -27.2088  -28.7196   20.6940 C   0  0  0  0  0  0
  -26.0593  -26.9373   19.4963 C   0  0  0  0  0  0
  -24.8691  -27.6896   19.5031 C   0  0  0  0  0  0
  -23.6118  -29.8228   20.1636 C   0  0  0  0  0  0
  -25.4102  -36.3106   24.0339 C   0  0  1  0  0  0
  -20.5856  -28.3660   23.1308 C   0  0  2  0  0  0
  -20.6761  -26.9395   22.5415 C   0  0  0  0  0  0
  -19.5747  -26.6367   21.5207 C   0  0  0  0  0  0
  -18.1925  -26.7918   22.1613 C   0  0  0  0  0  0
  -19.1514  -28.8827   23.2894 C   0  0  0  0  0  0
  -18.9447  -30.1435   23.8907 C   0  0  0  0  0  0
  -17.6444  -30.6568   24.0556 C   0  0  0  0  0  0
  -25.9033  -34.9478   23.5120 C   0  0  0  0  0  0
  -16.5336  -29.9071   23.6303 C   0  0  0  0  0  0
  -16.7265  -28.6491   23.0324 C   0  0  0  0  0  0
  -26.4468  -31.6585   25.0697 C   0  0  0  0  0  0
  -25.3741  -31.3678   26.1444 C   0  0  0  0  0  0
  -27.0291  -30.3032   24.6040 C   0  0  0  0  0  0
  -27.6058  -32.4290   25.7457 C   0  0  0  0  0  0
  -27.5575  -37.1807   24.8463 C   0  0  0  0  0  0
  -21.4126  -29.3029   22.3708 N   0  0  0  0  0  0
  -26.4293  -37.3784   23.9411 N   0  0  0  0  0  0
  -24.6673  -31.0801   22.0959 N   0  0  0  0  0  0
  -23.4164  -28.8198   23.3018 O   0  0  0  0  0  0
  -28.3599  -26.6522   20.1286 O   0  0  0  0  0  0
  -26.5602  -34.8924   22.4688 O   0  0  0  0  0  0
  -23.5334  -32.1434   23.7457 O   0  0  0  0  0  0
  -30.1793  -17.7786   21.3722 C   0  0  0  0  0  0
  -29.5559  -16.9127   20.4320 C   0  0  0  0  0  0
  -27.7734  -18.3993   20.3248 C   0  0  0  0  0  0
  -28.4765  -19.3274   21.1353 C   0  0  0  0  0  0
  -26.4389  -18.7421   19.6952 C   0  0  0  0  0  0
  -31.7173  -16.6851   19.2033 C   0  0  0  0  0  0
  -29.7968  -15.7183   18.1720 C   0  0  0  0  0  0
  -28.5852  -24.1794   20.5356 C   0  0  0  0  0  0
  -28.3582  -23.0633   21.5928 C   0  0  0  0  0  0
  -28.2817  -25.5907   21.0982 C   0  0  0  0  0  0
  -28.9793  -21.6786   21.2726 C   0  0  0  0  0  0
  -30.3991  -15.9226   19.5892 C   0  0  0  0  0  0
  -29.6579  -18.9868   21.7059 N   0  0  0  0  0  0
  -28.3020  -17.1957   19.9827 N   0  0  0  0  0  0
  -28.0090  -20.6184   21.3246 O   0  0  0  0  0  0
  -31.4417  -12.3545   19.1052 H   0  0  0  0  0  0
  -30.3018  -11.3618   19.9780 H   0  0  0  0  0  0
  -29.6854  -11.4655   17.5829 H   0  0  0  0  0  0
  -29.6701  -13.1841   17.5714 H   0  0  0  0  0  0
  -27.7821  -11.2569   18.9066 H   0  0  0  0  0  0
  -27.3536  -12.5103   17.7790 H   0  0  0  0  0  0
  -27.5876  -14.2322   19.4384 H   0  0  0  0  0  0
  -28.7097  -12.2707   21.4730 H   0  0  0  0  0  0
  -28.5107  -14.0018   21.6609 H   0  0  0  0  0  0
  -25.2737   -9.5685   22.4810 H   0  0  0  0  0  0
  -24.0004   -7.4623   22.7471 H   0  0  0  0  0  0
  -21.0849   -8.8785   19.8967 H   0  0  0  0  0  0
  -22.3678  -10.9708   19.6237 H   0  0  0  0  0  0
  -21.2010   -7.6165   23.9723 H   0  0  0  0  0  0
  -21.1485   -6.0540   25.9073 H   0  0  0  0  0  0
  -22.0593   -2.7633   23.2823 H   0  0  0  0  0  0
  -22.4059  -11.9868   22.4719 H   0  0  0  0  0  0
  -21.1115  -13.1314   22.2652 H   0  0  0  0  0  0
  -24.6734  -15.8522   20.5591 H   0  0  0  0  0  0
  -26.3031  -15.6356   20.1575 H   0  0  0  0  0  0
  -26.7092  -32.5548   23.1152 H   0  0  0  0  0  0
  -25.0007  -33.9775   25.0442 H   0  0  0  0  0  0
  -22.6879  -31.3074   21.4059 H   0  0  0  0  0  0
  -23.3736  -35.9667   23.3309 H   0  0  0  0  0  0
  -24.3582  -36.8928   22.2048 H   0  0  0  0  0  0
  -23.7261  -37.6536   23.6651 H   0  0  0  0  0  0
  -26.0306  -31.6009   20.5837 H   0  0  0  0  0  0
  -26.8210  -30.8999   21.9709 H   0  0  0  0  0  0
  -28.1039  -29.1060   21.1610 H   0  0  0  0  0  0
  -26.0670  -25.9599   19.0349 H   0  0  0  0  0  0
  -23.9764  -27.2886   19.0419 H   0  0  0  0  0  0
  -23.7168  -30.5977   19.4028 H   0  0  0  0  0  0
  -22.7361  -29.2420   19.8682 H   0  0  0  0  0  0
  -25.1275  -36.1967   25.0832 H   0  0  0  0  0  0
  -20.9945  -28.3239   24.1439 H   0  0  0  0  0  0
  -20.5669  -26.2263   23.3608 H   0  0  0  0  0  0
  -21.6632  -26.7470   22.1199 H   0  0  0  0  0  0
  -19.6922  -25.6283   21.1228 H   0  0  0  0  0  0
  -19.6677  -27.3179   20.6747 H   0  0  0  0  0  0
  -17.4186  -26.6652   21.4028 H   0  0  0  0  0  0
  -18.0347  -26.0089   22.9040 H   0  0  0  0  0  0
  -19.7919  -30.7248   24.2290 H   0  0  0  0  0  0
  -17.4992  -31.6251   24.5147 H   0  0  0  0  0  0
  -15.5327  -30.2970   23.7612 H   0  0  0  0  0  0
  -15.8680  -28.0808   22.7021 H   0  0  0  0  0  0
  -24.5921  -30.7018   25.7776 H   0  0  0  0  0  0
  -24.8917  -32.2826   26.4896 H   0  0  0  0  0  0
  -25.8091  -30.8845   27.0197 H   0  0  0  0  0  0
  -26.2824  -29.6798   24.1103 H   0  0  0  0  0  0
  -27.4092  -29.7248   25.4467 H   0  0  0  0  0  0
  -27.8641  -30.4353   23.9155 H   0  0  0  0  0  0
  -27.2694  -33.3576   26.2071 H   0  0  0  0  0  0
  -28.3851  -32.6863   25.0276 H   0  0  0  0  0  0
  -28.0745  -31.8388   26.5338 H   0  0  0  0  0  0
  -28.2594  -38.0101   24.7494 H   0  0  0  0  0  0
  -28.1068  -36.2629   24.6304 H   0  0  0  0  0  0
  -27.2296  -37.1477   25.8869 H   0  0  0  0  0  0
  -20.9287  -29.8765   21.6942 H   0  0  0  0  0  0
  -26.0178  -38.2866   24.1405 H   0  0  0  0  0  0
  -31.1799  -17.5986   21.7344 H   0  0  0  0  0  0
  -26.2255  -18.0888   18.8494 H   0  0  0  0  0  0
  -26.4367  -19.7692   19.3299 H   0  0  0  0  0  0
  -25.6334  -18.6299   20.4204 H   0  0  0  0  0  0
  -32.3648  -16.8891   20.0554 H   0  0  0  0  0  0
  -31.5133  -17.6440   18.7253 H   0  0  0  0  0  0
  -32.3296  -16.1156   18.5030 H   0  0  0  0  0  0
  -30.4671  -15.1445   17.5337 H   0  0  0  0  0  0
  -28.8297  -15.2352   18.1637 H   0  0  0  0  0  0
  -29.6522  -16.6722   17.6621 H   0  0  0  0  0  0
  -27.9640  -23.9803   19.6611 H   0  0  0  0  0  0
  -29.6188  -24.1611   20.1895 H   0  0  0  0  0  0
  -27.2909  -22.9602   21.7899 H   0  0  0  0  0  0
  -28.7883  -23.3990   22.5367 H   0  0  0  0  0  0
  -27.3075  -25.5692   21.5922 H   0  0  0  0  0  0
  -29.0012  -25.8211   21.8856 H   0  0  0  0  0  0
  -29.7878  -21.4987   21.9828 H   0  0  0  0  0  0
  -29.4366  -21.6852   20.2822 H   0  0  0  0  0  0
  1 25  1  0  0  0
  1 30  2  0  0  0
  1 82  1  0  0  0
  2  3  1  0  0  0
  2 25  1  0  0  0
  2 86  1  0  0  0
  2 87  1  0  0  0
  3  4  1  0  0  0
  3 88  1  0  0  0
  3 89  1  0  0  0
  4  5  1  0  0  0
  4 90  1  0  0  0
  4 91  1  0  0  0
  5  6  1  0  0  0
  5 26  1  0  0  0
  5 92  1  0  0  0
  6 25  1  0  0  0
  6 93  1  0  0  0
  6 94  1  0  0  0
  7  8  2  0  0  0
  7 26  1  0  0  0
  7 29  1  0  0  0
  8  9  1  0  0  0
  8 22  1  0  0  0
  9 10  1  0  0  0
  9 27  2  0  0  0
 10 11  2  0  0  0
 10 15  1  0  0  0
 11 12  1  0  0  0
 11 95  1  0  0  0
 12 13  2  0  0  0
 12 96  1  0  0  0
 13 14  1  0  0  0
 13 31  1  0  0  0
 14 15  2  0  0  0
 14 97  1  0  0  0
 15 98  1  0  0  0
 16 17  2  0  0  0
 16 21  1  0  0  0
 16 31  1  0  0  0
 17 18  1  0  0  0
 17 99  1  0  0  0
 18 19  2  0  0  0
 18100  1  0  0  0
 19 20  1  0  0  0
 19 24  1  0  0  0
 20 21  2  0  0  0
 20101  1  0  0  0
 21 23  1  0  0  0
 22 28  1  0  0  0
 22 32  2  0  0  0
 26 27  1  0  0  0
 28102  1  0  0  0
 28103  1  0  0  0
 29104  1  0  0  0
 29105  1  0  0  0
 33 34  1  0  0  0
 33 66  1  0  0  0
 33 70  2  0  0  0
 34 36  1  0  0  0
 34 59  1  0  0  0
 34106  1  0  0  0
 35 44  2  0  0  0
 35 45  1  0  0  0
 35 68  1  0  0  0
 36 56  1  0  0  0
 36107  1  0  0  0
 37 39  1  0  0  0
 37 47  1  0  0  0
 37 66  1  0  0  0
 37108  1  0  0  0
 38 43  2  0  0  0
 38 46  1  0  0  0
 38 47  1  0  0  0
 39 64  1  0  0  0
 39 67  2  0  0  0
 40 52  1  0  0  0
 40 53  2  0  0  0
 40 58  1  0  0  0
 41109  1  0  0  0
 41110  1  0  0  0
 41111  1  0  0  0
 41 48  1  0  0  0
 42 43  1  0  0  0
 42 66  1  0  0  0
 42112  1  0  0  0
 42113  1  0  0  0
 43 44  1  0  0  0
 44114  1  0  0  0
 45 46  2  0  0  0
 45115  1  0  0  0
 46116  1  0  0  0
 47117  1  0  0  0
 47118  1  0  0  0
 48 56  1  0  0  0
 48 65  1  0  0  0
 48119  1  0  0  0
 49 50  1  0  0  0
 49 53  1  0  0  0
 49 64  1  0  0  0
 49120  1  0  0  0
 50 51  1  0  0  0
 50121  1  0  0  0
 50122  1  0  0  0
 51 52  1  0  0  0
 51123  1  0  0  0
 51124  1  0  0  0
 52125  1  0  0  0
 52126  1  0  0  0
 53 54  1  0  0  0
 54 55  2  0  0  0
 54127  1  0  0  0
 55 57  1  0  0  0
 55128  1  0  0  0
 56 69  2  0  0  0
 57 58  2  0  0  0
 57129  1  0  0  0
 58130  1  0  0  0
 59 60  1  0  0  0
 59 61  1  0  0  0
 59 62  1  0  0  0
 60131  1  0  0  0
 60132  1  0  0  0
 60133  1  0  0  0
 61134  1  0  0  0
 61135  1  0  0  0
 61136  1  0  0  0
 62137  1  0  0  0
 62138  1  0  0  0
 62139  1  0  0  0
 63 65  1  0  0  0
 63140  1  0  0  0
 63141  1  0  0  0
 63142  1  0  0  0
 64143  1  0  0  0
 65144  1  0  0  0
 68 80  1  0  0  0
 71 72  2  0  0  0
 71 83  1  0  0  0
 71145  1  0  0  0
 72 82  1  0  0  0
 72 84  1  0  0  0
 73 74  1  0  0  0
 73 75  1  0  0  0
 73 84  2  0  0  0
 74 83  2  0  0  0
 74 85  1  0  0  0
 75146  1  0  0  0
 75147  1  0  0  0
 75148  1  0  0  0
 76149  1  0  0  0
 76150  1  0  0  0
 76151  1  0  0  0
 76 82  1  0  0  0
 77 82  1  0  0  0
 77152  1  0  0  0
 77153  1  0  0  0
 77154  1  0  0  0
 78 79  1  0  0  0
 78 80  1  0  0  0
 78155  1  0  0  0
 78156  1  0  0  0
 79 81  1  0  0  0
 79157  1  0  0  0
 79158  1  0  0  0
 80159  1  0  0  0
 80160  1  0  0  0
 81 85  1  0  0  0
 81161  1  0  0  0
 81162  1  0  0  0
M  ISO  4   1 100  68 101  80 101  82 100
M  END
> <chiral flag>
0

> <version>
0

> <s_m_source_file>
/data/baiqing/PycharmProjects/Reinvent-master-3.2/result/LINK_invent/BTK/process_docking_weight1_custom_sum_contain_oxygen_bond_distance_aromatic_linkinvent_7_9_3/rearranged_h_0066.sdf

> <i_m_source_file_index>
49

> <r_mmod_Potential_Energy-OPLS-2005>
280.708038330078

> <r_mmod_Stretch_Energy-OPLS-2005>
49.6744117736816

> <r_mmod_Bend_Energy-OPLS-2005>
130.733413696289

> <r_mmod_Torsional_Energy-OPLS-2005>
300.764678955078

> <r_mmod_Improper_Torsional_Energy-OPLS-2005>
19.1047229766846

> <r_mmod_Van_der_Waal_Energy-OPLS-2005>
172.416168212891

> <r_mmod_Electrostatic_Energy-OPLS-2005>
-285.824981689453

> <r_mmod_Solvation_Energy-OPLS-2005>
-180.349090576172

> <b_mmod_Minimization_Converged-OPLS-2005>
0

> <r_mmod_RMS_Derivative-OPLS-2005>
2.80311012268066

$$$$
53
                    3D
 Structure written by MMmdl.
163171  0  0  1  0            999 V2000
  -30.6737  -14.6822   20.5105 C   0  0  0  0  0  0
  -30.4205  -12.4296   19.4613 C   0  0  0  0  0  0
  -29.4977  -12.5198   18.2275 C   0  0  0  0  0  0
  -28.0231  -12.3533   18.6412 C   0  0  0  0  0  0
  -27.6443  -13.2333   19.8641 C   0  0  2  0  0  0
  -28.6968  -13.1248   20.9932 C   0  0  0  0  0  0
  -25.2382  -13.8148   20.5480 C   0  0  0  0  0  0
  -24.1754  -13.0405   20.9208 C   0  0  0  0  0  0
  -24.6409  -11.6907   20.8825 C   0  0  0  0  0  0
  -23.9113  -10.4281   21.0469 C   0  0  0  0  0  0
  -24.3661   -9.4169   21.9228 C   0  0  0  0  0  0
  -23.6319   -8.2217   22.0770 C   0  0  0  0  0  0
  -22.4289   -8.0291   21.3568 C   0  0  0  0  0  0
  -21.9960   -9.0258   20.4659 C   0  0  0  0  0  0
  -22.7313  -10.2125   20.3084 C   0  0  0  0  0  0
  -21.6840   -6.0761   22.5291 C   0  0  0  0  0  0
  -21.3993   -6.5660   23.8231 C   0  0  0  0  0  0
  -21.3647   -5.6794   24.9185 C   0  0  0  0  0  0
  -21.6035   -4.3061   24.7214 C   0  0  0  0  0  0
  -21.8813   -3.8161   23.4335 C   0  0  0  0  0  0
  -21.9191   -4.6991   22.3403 C   0  0  0  0  0  0
  -22.7768  -13.5173   21.1872 C   0  0  0  0  0  0
  -22.1657   -4.2184   21.0980 F   0  0  0  0  0  0
  -21.5637   -3.4540   25.7729 F   0  0  0  0  0  0
  -29.9998  -13.4812   20.4189 N   0  0  0  0  0  0
  -26.2943  -12.9415   20.3355 N   0  0  0  0  0  0
  -25.9363  -11.6569   20.5892 N   0  0  0  0  0  0
  -22.0415  -12.8153   22.0408 N   0  0  0  0  0  0
  -25.3767  -15.1799   20.3360 N   0  0  0  0  0  0
  -31.8199  -14.7597   20.0531 O   0  0  0  0  0  0
  -21.6641   -6.8891   21.4256 O   0  0  0  0  0  0
  -22.3433  -14.5494   20.6760 O   0  0  0  0  0  0
  -24.6279  -31.8550   23.1948 C   0  0  0  0  0  0
  -25.9147  -32.4726   23.8288 C   0  0  1  0  0  0
  -27.2415  -27.3141   20.1098 C   0  0  0  0  0  0
  -25.5970  -33.8531   24.2228 N   0  0  0  0  0  0
  -23.4207  -30.4741   21.5376 C   0  0  2  0  0  0
  -24.8702  -28.9194   20.1070 C   0  0  0  0  0  0
  -22.7464  -29.4621   22.4934 C   0  0  0  0  0  0
  -18.0285  -28.1421   22.8485 C   0  0  0  0  0  0
  -24.1482  -36.7242   23.2635 C   0  0  0  0  0  0
  -25.9569  -30.7877   21.3579 C   0  0  0  0  0  0
  -26.0342  -29.4099   20.7085 C   0  0  0  0  0  0
  -27.2177  -28.6155   20.7054 C   0  0  0  0  0  0
  -26.0540  -26.8672   19.4920 C   0  0  0  0  0  0
  -24.8823  -27.6530   19.4947 C   0  0  0  0  0  0
  -23.6336  -29.7963   20.1561 C   0  0  0  0  0  0
  -25.4108  -36.3021   24.0311 C   0  0  1  0  0  0
  -20.5877  -28.3703   23.1302 C   0  0  2  0  0  0
  -20.6777  -26.9420   22.5444 C   0  0  0  0  0  0
  -19.5756  -26.6406   21.5239 C   0  0  0  0  0  0
  -18.1912  -26.7980   22.1600 C   0  0  0  0  0  0
  -19.1535  -28.8879   23.2894 C   0  0  0  0  0  0
  -18.9463  -30.1494   23.8905 C   0  0  0  0  0  0
  -17.6461  -30.6602   24.0602 C   0  0  0  0  0  0
  -25.9060  -34.9416   23.5053 C   0  0  0  0  0  0
  -16.5346  -29.9091   23.6370 C   0  0  0  0  0  0
  -16.7268  -28.6538   23.0344 C   0  0  0  0  0  0
  -26.4520  -31.6546   25.0673 C   0  0  0  0  0  0
  -25.3766  -31.3741   26.1423 C   0  0  0  0  0  0
  -27.0323  -30.2947   24.6127 C   0  0  0  0  0  0
  -27.6114  -32.4257   25.7430 C   0  0  0  0  0  0
  -27.5572  -37.1763   24.8452 C   0  0  0  0  0  0
  -21.4179  -29.3040   22.3685 N   0  0  0  0  0  0
  -26.4250  -37.3744   23.9431 N   0  0  0  0  0  0
  -24.6883  -31.0565   22.0887 N   0  0  0  0  0  0
  -23.4174  -28.8205   23.3064 O   0  0  0  0  0  0
  -28.3890  -26.5127   20.1871 O   0  0  0  0  0  0
  -26.5617  -34.8909   22.4606 O   0  0  0  0  0  0
  -23.5448  -32.1353   23.7286 O   0  0  0  0  0  0
  -29.8578  -20.4358   21.1226 C   0  0  0  0  0  0
  -29.1725  -21.0808   20.0623 C   0  0  0  0  0  0
  -28.5273  -20.1544   19.2011 C   0  0  0  0  0  0
  -29.3243  -18.2842   20.3852 C   0  0  0  0  0  0
  -26.1724  -20.5097   18.3037 C   0  0  0  0  0  0
  -27.8745  -16.6752   21.6209 C   0  0  0  0  0  0
  -31.0493  -16.3731   22.1723 C   0  0  0  0  0  0
  -29.3592  -22.6305   19.7629 C   0  0  0  0  0  0
  -27.6806  -20.5831   18.0108 C   0  0  0  0  0  0
  -28.3376  -23.7939   20.1813 C   0  0  0  0  0  0
  -28.5725  -25.2223   19.4841 C   0  0  0  0  0  0
  -29.0844  -16.7369   20.6750 C   0  0  2  0  0  0
  -29.9133  -19.0807   21.2826 N   0  0  0  0  0  0
  -28.6139  -18.8047   19.3777 N   0  0  0  0  0  0
  -30.1475  -15.7712   21.1831 N   0  0  0  0  0  0
  -31.4640  -12.5232   19.1549 H   0  0  0  0  0  0
  -30.3431  -11.4430   19.9230 H   0  0  0  0  0  0
  -29.7707  -11.7595   17.4959 H   0  0  0  0  0  0
  -29.6345  -13.4808   17.7307 H   0  0  0  0  0  0
  -27.8646  -11.3005   18.8772 H   0  0  0  0  0  0
  -27.3676  -12.5749   17.7973 H   0  0  0  0  0  0
  -27.6472  -14.2630   19.5089 H   0  0  0  0  0  0
  -28.7252  -12.1087   21.3878 H   0  0  0  0  0  0
  -28.4521  -13.7556   21.8451 H   0  0  0  0  0  0
  -25.2801   -9.5642   22.4822 H   0  0  0  0  0  0
  -24.0026   -7.4588   22.7471 H   0  0  0  0  0  0
  -21.0905   -8.8793   19.8927 H   0  0  0  0  0  0
  -22.3799  -10.9691   19.6192 H   0  0  0  0  0  0
  -21.1959   -7.6161   23.9752 H   0  0  0  0  0  0
  -21.1472   -6.0515   25.9090 H   0  0  0  0  0  0
  -22.0596   -2.7626   23.2829 H   0  0  0  0  0  0
  -22.4028  -11.9801   22.4763 H   0  0  0  0  0  0
  -21.1023  -13.1163   22.2632 H   0  0  0  0  0  0
  -24.5751  -15.7997   20.3700 H   0  0  0  0  0  0
  -26.1784  -15.6012   19.8871 H   0  0  0  0  0  0
  -26.7221  -32.5400   23.1053 H   0  0  0  0  0  0
  -25.0253  -33.9675   25.0462 H   0  0  0  0  0  0
  -22.7170  -31.2952   21.3863 H   0  0  0  0  0  0
  -23.3766  -35.9543   23.3187 H   0  0  0  0  0  0
  -24.3642  -36.8971   22.2082 H   0  0  0  0  0  0
  -23.7178  -37.6382   23.6739 H   0  0  0  0  0  0
  -26.0743  -31.5450   20.5809 H   0  0  0  0  0  0
  -26.8426  -30.8525   21.9780 H   0  0  0  0  0  0
  -28.1131  -28.9912   21.1799 H   0  0  0  0  0  0
  -26.0067  -25.8912   19.0328 H   0  0  0  0  0  0
  -23.9869  -27.2650   19.0297 H   0  0  0  0  0  0
  -23.7370  -30.5637   19.3878 H   0  0  0  0  0  0
  -22.7562  -29.2149   19.8676 H   0  0  0  0  0  0
  -25.1268  -36.1826   25.0791 H   0  0  0  0  0  0
  -20.9964  -28.3286   24.1430 H   0  0  0  0  0  0
  -20.5685  -26.2307   23.3647 H   0  0  0  0  0  0
  -21.6643  -26.7470   22.1231 H   0  0  0  0  0  0
  -19.6921  -25.6316   21.1278 H   0  0  0  0  0  0
  -19.6718  -27.3227   20.6776 H   0  0  0  0  0  0
  -17.4204  -26.6787   21.3969 H   0  0  0  0  0  0
  -18.0247  -26.0108   22.8951 H   0  0  0  0  0  0
  -19.7934  -30.7345   24.2245 H   0  0  0  0  0  0
  -17.4991  -31.6294   24.5181 H   0  0  0  0  0  0
  -15.5346  -30.2991   23.7731 H   0  0  0  0  0  0
  -15.8653  -28.0893   22.7014 H   0  0  0  0  0  0
  -24.6092  -30.6842   25.7881 H   0  0  0  0  0  0
  -24.8772  -32.2894   26.4612 H   0  0  0  0  0  0
  -25.8150  -30.9233   27.0333 H   0  0  0  0  0  0
  -26.2848  -29.6692   24.1222 H   0  0  0  0  0  0
  -27.4079  -29.7222   25.4622 H   0  0  0  0  0  0
  -27.8693  -30.4188   23.9252 H   0  0  0  0  0  0
  -27.2823  -33.3721   26.1733 H   0  0  0  0  0  0
  -28.4075  -32.6496   25.0315 H   0  0  0  0  0  0
  -28.0547  -31.8491   26.5560 H   0  0  0  0  0  0
  -28.2518  -38.0126   24.7528 H   0  0  0  0  0  0
  -28.1111  -36.2651   24.6153 H   0  0  0  0  0  0
  -27.2341  -37.1257   25.8869 H   0  0  0  0  0  0
  -20.9372  -29.8705   21.6848 H   0  0  0  0  0  0
  -26.0088  -38.2783   24.1503 H   0  0  0  0  0  0
  -30.4117  -21.0219   21.8421 H   0  0  0  0  0  0
  -25.5915  -20.8041   17.4295 H   0  0  0  0  0  0
  -25.8936  -21.1687   19.1276 H   0  0  0  0  0  0
  -25.8694  -19.4956   18.5694 H   0  0  0  0  0  0
  -27.0402  -17.2412   21.2063 H   0  0  0  0  0  0
  -28.1111  -17.1244   22.5851 H   0  0  0  0  0  0
  -27.5259  -15.6652   21.8042 H   0  0  0  0  0  0
  -30.4959  -16.9514   22.9116 H   0  0  0  0  0  0
  -31.7648  -17.0387   21.6870 H   0  0  0  0  0  0
  -31.6158  -15.6189   22.7211 H   0  0  0  0  0  0
  -29.5670  -22.7225   18.6974 H   0  0  0  0  0  0
  -30.3117  -22.8986   20.2218 H   0  0  0  0  0  0
  -27.9113  -19.9291   17.1683 H   0  0  0  0  0  0
  -27.9453  -21.5866   17.6859 H   0  0  0  0  0  0
  -28.3775  -23.9213   21.2630 H   0  0  0  0  0  0
  -27.3184  -23.4808   19.9557 H   0  0  0  0  0  0
  -28.0935  -25.2443   18.5068 H   0  0  0  0  0  0
  -29.6347  -25.2430   19.2339 H   0  0  0  0  0  0
  -28.7662  -16.3254   19.7158 H   0  0  0  0  0  0
  1 25  1  0  0  0
  1 30  2  0  0  0
  1 85  1  0  0  0
  2  3  1  0  0  0
  2 25  1  0  0  0
  2 86  1  0  0  0
  2 87  1  0  0  0
  3  4  1  0  0  0
  3 88  1  0  0  0
  3 89  1  0  0  0
  4  5  1  0  0  0
  4 90  1  0  0  0
  4 91  1  0  0  0
  5  6  1  0  0  0
  5 26  1  0  0  0
  5 92  1  0  0  0
  6 25  1  0  0  0
  6 93  1  0  0  0
  6 94  1  0  0  0
  7  8  2  0  0  0
  7 26  1  0  0  0
  7 29  1  0  0  0
  8  9  1  0  0  0
  8 22  1  0  0  0
  9 10  1  0  0  0
  9 27  2  0  0  0
 10 11  2  0  0  0
 10 15  1  0  0  0
 11 12  1  0  0  0
 11 95  1  0  0  0
 12 13  2  0  0  0
 12 96  1  0  0  0
 13 14  1  0  0  0
 13 31  1  0  0  0
 14 15  2  0  0  0
 14 97  1  0  0  0
 15 98  1  0  0  0
 16 17  2  0  0  0
 16 21  1  0  0  0
 16 31  1  0  0  0
 17 18  1  0  0  0
 17 99  1  0  0  0
 18 19  2  0  0  0
 18100  1  0  0  0
 19 20  1  0  0  0
 19 24  1  0  0  0
 20 21  2  0  0  0
 20101  1  0  0  0
 21 23  1  0  0  0
 22 28  1  0  0  0
 22 32  2  0  0  0
 26 27  1  0  0  0
 28102  1  0  0  0
 28103  1  0  0  0
 29104  1  0  0  0
 29105  1  0  0  0
 33 34  1  0  0  0
 33 66  1  0  0  0
 33 70  2  0  0  0
 34 36  1  0  0  0
 34 59  1  0  0  0
 34106  1  0  0  0
 35 44  2  0  0  0
 35 45  1  0  0  0
 35 68  1  0  0  0
 36 56  1  0  0  0
 36107  1  0  0  0
 37 39  1  0  0  0
 37 47  1  0  0  0
 37 66  1  0  0  0
 37108  1  0  0  0
 38 43  2  0  0  0
 38 46  1  0  0  0
 38 47  1  0  0  0
 39 64  1  0  0  0
 39 67  2  0  0  0
 40 52  1  0  0  0
 40 53  2  0  0  0
 40 58  1  0  0  0
 41109  1  0  0  0
 41110  1  0  0  0
 41111  1  0  0  0
 41 48  1  0  0  0
 42 43  1  0  0  0
 42 66  1  0  0  0
 42112  1  0  0  0
 42113  1  0  0  0
 43 44  1  0  0  0
 44114  1  0  0  0
 45 46  2  0  0  0
 45115  1  0  0  0
 46116  1  0  0  0
 47117  1  0  0  0
 47118  1  0  0  0
 48 56  1  0  0  0
 48 65  1  0  0  0
 48119  1  0  0  0
 49 50  1  0  0  0
 49 53  1  0  0  0
 49 64  1  0  0  0
 49120  1  0  0  0
 50 51  1  0  0  0
 50121  1  0  0  0
 50122  1  0  0  0
 51 52  1  0  0  0
 51123  1  0  0  0
 51124  1  0  0  0
 52125  1  0  0  0
 52126  1  0  0  0
 53 54  1  0  0  0
 54 55  2  0  0  0
 54127  1  0  0  0
 55 57  1  0  0  0
 55128  1  0  0  0
 56 69  2  0  0  0
 57 58  2  0  0  0
 57129  1  0  0  0
 58130  1  0  0  0
 59 60  1  0  0  0
 59 61  1  0  0  0
 59 62  1  0  0  0
 60131  1  0  0  0
 60132  1  0  0  0
 60133  1  0  0  0
 61134  1  0  0  0
 61135  1  0  0  0
 61136  1  0  0  0
 62137  1  0  0  0
 62138  1  0  0  0
 62139  1  0  0  0
 63 65  1  0  0  0
 63140  1  0  0  0
 63141  1  0  0  0
 63142  1  0  0  0
 64143  1  0  0  0
 65144  1  0  0  0
 68 81  1  0  0  0
 71 72  2  0  0  0
 71 83  1  0  0  0
 71145  1  0  0  0
 72 73  1  0  0  0
 72 78  1  0  0  0
 73 79  1  0  0  0
 73 84  2  0  0  0
 74 82  1  0  0  0
 74 83  2  0  0  0
 74 84  1  0  0  0
 75 79  1  0  0  0
 75146  1  0  0  0
 75147  1  0  0  0
 75148  1  0  0  0
 76149  1  0  0  0
 76150  1  0  0  0
 76151  1  0  0  0
 76 82  1  0  0  0
 77 85  1  0  0  0
 77152  1  0  0  0
 77153  1  0  0  0
 77154  1  0  0  0
 78 80  1  0  0  0
 78155  1  0  0  0
 78156  1  0  0  0
 79157  1  0  0  0
 79158  1  0  0  0
 80 81  1  0  0  0
 80159  1  0  0  0
 80160  1  0  0  0
 81161  1  0  0  0
 81162  1  0  0  0
 82 85  1  0  0  0
 82163  1  0  0  0
M  ISO  4   1 100  68 101  81 101  85 100
M  END
> <chiral flag>
0

> <version>
0

> <s_m_source_file>
/data/baiqing/PycharmProjects/Reinvent-master-3.2/result/LINK_invent/BTK/process_docking_weight1_custom_sum_contain_oxygen_bond_distance_aromatic_linkinvent_7_9_3/rearranged_h_0066.sdf

> <i_m_source_file_index>
50

> <r_mmod_Potential_Energy-OPLS-2005>
-220.322845458984

> <r_mmod_Stretch_Energy-OPLS-2005>
95.4232177734375

> <r_mmod_Bend_Energy-OPLS-2005>
202.038528442383

> <r_mmod_Torsional_Energy-OPLS-2005>
260.689666748047

> <r_mmod_Improper_Torsional_Energy-OPLS-2005>
9.03889179229736

> <r_mmod_Van_der_Waal_Energy-OPLS-2005>
144.023315429688

> <r_mmod_Electrostatic_Energy-OPLS-2005>
-779.14697265625

> <r_mmod_Solvation_Energy-OPLS-2005>
-207.534759521484

> <b_mmod_Minimization_Converged-OPLS-2005>
0

> <r_mmod_RMS_Derivative-OPLS-2005>
3.3962070941925

$$$$
54
                    3D
 Structure written by MMmdl.
164172  0  0  1  0            999 V2000
  -30.7061  -14.4911   20.5137 C   0  0  0  0  0  0
  -30.4146  -12.2989   19.4456 C   0  0  0  0  0  0
  -29.4989  -12.4934   18.2197 C   0  0  0  0  0  0
  -28.0185  -12.3598   18.6260 C   0  0  0  0  0  0
  -27.6574  -13.2134   19.8721 C   0  0  2  0  0  0
  -28.6993  -13.0345   21.0014 C   0  0  0  0  0  0
  -25.2561  -13.8164   20.5697 C   0  0  0  0  0  0
  -24.1821  -13.0435   20.9190 C   0  0  0  0  0  0
  -24.6389  -11.6909   20.8749 C   0  0  0  0  0  0
  -23.9056  -10.4292   21.0415 C   0  0  0  0  0  0
  -24.3609   -9.4207   21.9193 C   0  0  0  0  0  0
  -23.6292   -8.2236   22.0755 C   0  0  0  0  0  0
  -22.4276   -8.0274   21.3541 C   0  0  0  0  0  0
  -21.9907   -9.0247   20.4643 C   0  0  0  0  0  0
  -22.7228  -10.2134   20.3063 C   0  0  0  0  0  0
  -21.6850   -6.0738   22.5280 C   0  0  0  0  0  0
  -21.4006   -6.5641   23.8212 C   0  0  0  0  0  0
  -21.3665   -5.6796   24.9178 C   0  0  0  0  0  0
  -21.6048   -4.3058   24.7228 C   0  0  0  0  0  0
  -21.8810   -3.8150   23.4346 C   0  0  0  0  0  0
  -21.9187   -4.6967   22.3404 C   0  0  0  0  0  0
  -22.7838  -13.5232   21.1847 C   0  0  0  0  0  0
  -22.1656   -4.2152   21.0981 F   0  0  0  0  0  0
  -21.5639   -3.4542   25.7742 F   0  0  0  0  0  0
  -30.0314  -13.3116   20.4421 N   0  0  0  0  0  0
  -26.3001  -12.9353   20.3363 N   0  0  0  0  0  0
  -25.9318  -11.6508   20.5777 N   0  0  0  0  0  0
  -22.0479  -12.8234   22.0412 N   0  0  0  0  0  0
  -25.4266  -15.1880   20.4112 N   0  0  0  0  0  0
  -31.8770  -14.5886   20.1460 O   0  0  0  0  0  0
  -21.6634   -6.8877   21.4241 O   0  0  0  0  0  0
  -22.3526  -14.5539   20.6695 O   0  0  0  0  0  0
  -24.6174  -31.8698   23.2123 C   0  0  0  0  0  0
  -25.9065  -32.4828   23.8408 C   0  0  1  0  0  0
  -27.2170  -27.4074   20.0840 C   0  0  0  0  0  0
  -25.5917  -33.8626   24.2338 N   0  0  0  0  0  0
  -23.4043  -30.4990   21.5555 C   0  0  2  0  0  0
  -24.8444  -28.9736   20.1108 C   0  0  0  0  0  0
  -22.7424  -29.4679   22.4988 C   0  0  0  0  0  0
  -18.0278  -28.1382   22.8505 C   0  0  0  0  0  0
  -24.1486  -36.7310   23.2639 C   0  0  0  0  0  0
  -25.9400  -30.8234   21.3747 C   0  0  0  0  0  0
  -26.0109  -29.4594   20.7151 C   0  0  0  0  0  0
  -27.1970  -28.6826   20.7048 C   0  0  0  0  0  0
  -26.0296  -26.9689   19.4424 C   0  0  0  0  0  0
  -24.8502  -27.7270   19.4731 C   0  0  0  0  0  0
  -23.6106  -29.8443   20.1668 C   0  0  0  0  0  0
  -25.4111  -36.3118   24.0340 C   0  0  1  0  0  0
  -20.5875  -28.3674   23.1314 C   0  0  2  0  0  0
  -20.6768  -26.9409   22.5416 C   0  0  0  0  0  0
  -19.5739  -26.6392   21.5221 C   0  0  0  0  0  0
  -18.1921  -26.7929   22.1637 C   0  0  0  0  0  0
  -19.1530  -28.8845   23.2907 C   0  0  0  0  0  0
  -18.9453  -30.1450   23.8917 C   0  0  0  0  0  0
  -17.6452  -30.6587   24.0571 C   0  0  0  0  0  0
  -25.9041  -34.9480   23.5135 C   0  0  0  0  0  0
  -16.5346  -29.9091   23.6331 C   0  0  0  0  0  0
  -16.7267  -28.6508   23.0353 C   0  0  0  0  0  0
  -26.4477  -31.6601   25.0735 C   0  0  0  0  0  0
  -25.3730  -31.3715   26.1474 C   0  0  0  0  0  0
  -27.0302  -30.3035   24.6128 C   0  0  0  0  0  0
  -27.6055  -32.4316   25.7497 C   0  0  0  0  0  0
  -27.5585  -37.1814   24.8472 C   0  0  0  0  0  0
  -21.4153  -29.3039   22.3716 N   0  0  0  0  0  0
  -26.4302  -37.3798   23.9410 N   0  0  0  0  0  0
  -24.6726  -31.0780   22.1047 N   0  0  0  0  0  0
  -23.4188  -28.8209   23.3026 O   0  0  0  0  0  0
  -28.3624  -26.6178   20.1312 O   0  0  0  0  0  0
  -26.5597  -34.8933   22.4692 O   0  0  0  0  0  0
  -23.5361  -32.1471   23.7499 O   0  0  0  0  0  0
  -28.8504  -20.4101   20.7020 C   0  0  0  0  0  0
  -29.9050  -19.5185   21.0709 C   0  0  0  0  0  0
  -29.4651  -21.5670   20.3011 C   0  0  0  0  0  0
  -30.8263  -17.7696   22.6471 C   0  0  0  0  0  0
  -28.4252  -17.7948   22.1356 C   0  0  0  0  0  0
  -28.9772  -17.1617   19.2084 C   0  0  0  0  0  0
  -31.4036  -17.3003   19.5754 C   0  0  0  0  0  0
  -28.9409  -22.8096   19.6277 C   0  0  0  0  0  0
  -29.2181  -24.1958   20.2772 C   0  0  0  0  0  0
  -28.2095  -25.2360   19.7302 C   0  0  0  0  0  0
  -29.8191  -18.0294   21.4985 C   0  0  0  0  0  0
  -30.0613  -17.0005   20.3018 C   0  0  0  0  0  0
  -31.0743  -20.1477   20.9445 N   0  0  0  0  0  0
  -29.9379  -15.5776   20.7622 N   0  0  0  0  0  0
  -30.8070  -21.4341   20.4521 O   0  0  0  0  0  0
  -31.4624  -12.3711   19.1493 H   0  0  0  0  0  0
  -30.2937  -11.2979   19.8623 H   0  0  0  0  0  0
  -29.7424  -11.7627   17.4472 H   0  0  0  0  0  0
  -29.6730  -13.4764   17.7781 H   0  0  0  0  0  0
  -27.8274  -11.3057   18.8311 H   0  0  0  0  0  0
  -27.3728  -12.6269   17.7889 H   0  0  0  0  0  0
  -27.6887  -14.2547   19.5528 H   0  0  0  0  0  0
  -28.6694  -12.0153   21.3899 H   0  0  0  0  0  0
  -28.4716  -13.6823   21.8493 H   0  0  0  0  0  0
  -25.2751   -9.5686   22.4773 H   0  0  0  0  0  0
  -24.0006   -7.4621   22.7469 H   0  0  0  0  0  0
  -21.0840   -8.8752   19.8944 H   0  0  0  0  0  0
  -22.3675  -10.9674   19.6176 H   0  0  0  0  0  0
  -21.1987   -7.6147   23.9716 H   0  0  0  0  0  0
  -21.1508   -6.0530   25.9082 H   0  0  0  0  0  0
  -22.0587   -2.7612   23.2843 H   0  0  0  0  0  0
  -22.4098  -11.9906   22.4813 H   0  0  0  0  0  0
  -21.1093  -13.1257   22.2615 H   0  0  0  0  0  0
  -24.6546  -15.8375   20.5104 H   0  0  0  0  0  0
  -26.2717  -15.6261   20.0719 H   0  0  0  0  0  0
  -26.7128  -32.5524   23.1162 H   0  0  0  0  0  0
  -25.0064  -33.9784   25.0482 H   0  0  0  0  0  0
  -22.6943  -31.3180   21.4228 H   0  0  0  0  0  0
  -23.3748  -35.9642   23.3321 H   0  0  0  0  0  0
  -24.3584  -36.8899   22.2051 H   0  0  0  0  0  0
  -23.7231  -37.6520   23.6632 H   0  0  0  0  0  0
  -26.0639  -31.5913   20.6099 H   0  0  0  0  0  0
  -26.8243  -30.8673   21.9986 H   0  0  0  0  0  0
  -28.0912  -29.0490   21.1894 H   0  0  0  0  0  0
  -25.9714  -26.0368   18.9016 H   0  0  0  0  0  0
  -23.9575  -27.3539   18.9900 H   0  0  0  0  0  0
  -23.7217  -30.6262   19.4145 H   0  0  0  0  0  0
  -22.7307  -29.2721   19.8674 H   0  0  0  0  0  0
  -25.1282  -36.1998   25.0832 H   0  0  0  0  0  0
  -20.9973  -28.3238   24.1436 H   0  0  0  0  0  0
  -20.5688  -26.2281   23.3604 H   0  0  0  0  0  0
  -21.6635  -26.7456   22.1198 H   0  0  0  0  0  0
  -19.6898  -25.6310   21.1233 H   0  0  0  0  0  0
  -19.6672  -27.3220   20.6766 H   0  0  0  0  0  0
  -17.4191  -26.6693   21.4036 H   0  0  0  0  0  0
  -18.0313  -26.0063   22.9027 H   0  0  0  0  0  0
  -19.7926  -30.7265   24.2294 H   0  0  0  0  0  0
  -17.5007  -31.6272   24.5161 H   0  0  0  0  0  0
  -15.5346  -30.2995   23.7640 H   0  0  0  0  0  0
  -15.8670  -28.0830   22.7055 H   0  0  0  0  0  0
  -24.5907  -30.7058   25.7813 H   0  0  0  0  0  0
  -24.8912  -32.2871   26.4915 H   0  0  0  0  0  0
  -25.8072  -30.8892   27.0239 H   0  0  0  0  0  0
  -26.2857  -29.6809   24.1152 H   0  0  0  0  0  0
  -27.4027  -29.7264   25.4603 H   0  0  0  0  0  0
  -27.8718  -30.4342   23.9318 H   0  0  0  0  0  0
  -27.2677  -33.3609   26.2100 H   0  0  0  0  0  0
  -28.3850  -32.6888   25.0311 H   0  0  0  0  0  0
  -28.0736  -31.8420   26.5391 H   0  0  0  0  0  0
  -28.2620  -38.0097   24.7507 H   0  0  0  0  0  0
  -28.1060  -36.2627   24.6310 H   0  0  0  0  0  0
  -27.2300  -37.1486   25.8875 H   0  0  0  0  0  0
  -20.9311  -29.8768   21.6950 H   0  0  0  0  0  0
  -26.0196  -38.2882   24.1395 H   0  0  0  0  0  0
  -27.7910  -20.2032   20.6659 H   0  0  0  0  0  0
  -30.6516  -18.4417   23.4874 H   0  0  0  0  0  0
  -31.8583  -17.9199   22.3330 H   0  0  0  0  0  0
  -30.7532  -16.7523   23.0308 H   0  0  0  0  0  0
  -28.2739  -18.4560   22.9897 H   0  0  0  0  0  0
  -28.3012  -16.7757   22.5004 H   0  0  0  0  0  0
  -27.6075  -17.9968   21.4464 H   0  0  0  0  0  0
  -29.1747  -16.5076   18.3585 H   0  0  0  0  0  0
  -28.9409  -18.1789   18.8185 H   0  0  0  0  0  0
  -27.9768  -16.9131   19.5594 H   0  0  0  0  0  0
  -32.2647  -17.1991   20.2347 H   0  0  0  0  0  0
  -31.4323  -18.3057   19.1585 H   0  0  0  0  0  0
  -31.5629  -16.6399   18.7225 H   0  0  0  0  0  0
  -27.8625  -22.6818   19.5280 H   0  0  0  0  0  0
  -29.3114  -22.8304   18.6022 H   0  0  0  0  0  0
  -30.2475  -24.5027   20.0907 H   0  0  0  0  0  0
  -29.0973  -24.1280   21.3586 H   0  0  0  0  0  0
  -28.2054  -25.2004   18.6393 H   0  0  0  0  0  0
  -27.2459  -24.8565   20.0721 H   0  0  0  0  0  0
  -29.0251  -15.3389   21.1178 H   0  0  0  0  0  0
  1 25  1  0  0  0
  1 30  2  0  0  0
  1 84  1  0  0  0
  2  3  1  0  0  0
  2 25  1  0  0  0
  2 86  1  0  0  0
  2 87  1  0  0  0
  3  4  1  0  0  0
  3 88  1  0  0  0
  3 89  1  0  0  0
  4  5  1  0  0  0
  4 90  1  0  0  0
  4 91  1  0  0  0
  5  6  1  0  0  0
  5 26  1  0  0  0
  5 92  1  0  0  0
  6 25  1  0  0  0
  6 93  1  0  0  0
  6 94  1  0  0  0
  7  8  2  0  0  0
  7 26  1  0  0  0
  7 29  1  0  0  0
  8  9  1  0  0  0
  8 22  1  0  0  0
  9 10  1  0  0  0
  9 27  2  0  0  0
 10 11  2  0  0  0
 10 15  1  0  0  0
 11 12  1  0  0  0
 11 95  1  0  0  0
 12 13  2  0  0  0
 12 96  1  0  0  0
 13 14  1  0  0  0
 13 31  1  0  0  0
 14 15  2  0  0  0
 14 97  1  0  0  0
 15 98  1  0  0  0
 16 17  2  0  0  0
 16 21  1  0  0  0
 16 31  1  0  0  0
 17 18  1  0  0  0
 17 99  1  0  0  0
 18 19  2  0  0  0
 18100  1  0  0  0
 19 20  1  0  0  0
 19 24  1  0  0  0
 20 21  2  0  0  0
 20101  1  0  0  0
 21 23  1  0  0  0
 22 28  1  0  0  0
 22 32  2  0  0  0
 26 27  1  0  0  0
 28102  1  0  0  0
 28103  1  0  0  0
 29104  1  0  0  0
 29105  1  0  0  0
 33 34  1  0  0  0
 33 66  1  0  0  0
 33 70  2  0  0  0
 34 36  1  0  0  0
 34 59  1  0  0  0
 34106  1  0  0  0
 35 44  2  0  0  0
 35 45  1  0  0  0
 35 68  1  0  0  0
 36 56  1  0  0  0
 36107  1  0  0  0
 37 39  1  0  0  0
 37 47  1  0  0  0
 37 66  1  0  0  0
 37108  1  0  0  0
 38 43  2  0  0  0
 38 46  1  0  0  0
 38 47  1  0  0  0
 39 64  1  0  0  0
 39 67  2  0  0  0
 40 52  1  0  0  0
 40 53  2  0  0  0
 40 58  1  0  0  0
 41109  1  0  0  0
 41110  1  0  0  0
 41111  1  0  0  0
 41 48  1  0  0  0
 42 43  1  0  0  0
 42 66  1  0  0  0
 42112  1  0  0  0
 42113  1  0  0  0
 43 44  1  0  0  0
 44114  1  0  0  0
 45 46  2  0  0  0
 45115  1  0  0  0
 46116  1  0  0  0
 47117  1  0  0  0
 47118  1  0  0  0
 48 56  1  0  0  0
 48 65  1  0  0  0
 48119  1  0  0  0
 49 50  1  0  0  0
 49 53  1  0  0  0
 49 64  1  0  0  0
 49120  1  0  0  0
 50 51  1  0  0  0
 50121  1  0  0  0
 50122  1  0  0  0
 51 52  1  0  0  0
 51123  1  0  0  0
 51124  1  0  0  0
 52125  1  0  0  0
 52126  1  0  0  0
 53 54  1  0  0  0
 54 55  2  0  0  0
 54127  1  0  0  0
 55 57  1  0  0  0
 55128  1  0  0  0
 56 69  2  0  0  0
 57 58  2  0  0  0
 57129  1  0  0  0
 58130  1  0  0  0
 59 60  1  0  0  0
 59 61  1  0  0  0
 59 62  1  0  0  0
 60131  1  0  0  0
 60132  1  0  0  0
 60133  1  0  0  0
 61134  1  0  0  0
 61135  1  0  0  0
 61136  1  0  0  0
 62137  1  0  0  0
 62138  1  0  0  0
 62139  1  0  0  0
 63 65  1  0  0  0
 63140  1  0  0  0
 63141  1  0  0  0
 63142  1  0  0  0
 64143  1  0  0  0
 65144  1  0  0  0
 68 80  1  0  0  0
 71 72  1  0  0  0
 71 73  2  0  0  0
 71145  1  0  0  0
 72 81  1  0  0  0
 72 83  2  0  0  0
 73 78  1  0  0  0
 73 85  1  0  0  0
 74146  1  0  0  0
 74147  1  0  0  0
 74148  1  0  0  0
 74 81  1  0  0  0
 75 81  1  0  0  0
 75149  1  0  0  0
 75150  1  0  0  0
 75151  1  0  0  0
 76152  1  0  0  0
 76153  1  0  0  0
 76154  1  0  0  0
 76 82  1  0  0  0
 77 82  1  0  0  0
 77155  1  0  0  0
 77156  1  0  0  0
 77157  1  0  0  0
 78 79  1  0  0  0
 78158  1  0  0  0
 78159  1  0  0  0
 79 80  1  0  0  0
 79160  1  0  0  0
 79161  1  0  0  0
 80162  1  0  0  0
 80163  1  0  0  0
 81 82  1  0  0  0
 82 84  1  0  0  0
 83 85  1  0  0  0
 84164  1  0  0  0
M  ISO  4   1 100  68 101  80 101  84 100
M  END
> <chiral flag>
0

> <version>
0

> <s_m_source_file>
/data/baiqing/PycharmProjects/Reinvent-master-3.2/result/LINK_invent/BTK/process_docking_weight1_custom_sum_contain_oxygen_bond_distance_aromatic_linkinvent_7_9_3/rearranged_h_0066.sdf

> <i_m_source_file_index>
51

> <r_mmod_Potential_Energy-OPLS-2005>
-41.4196243286133

> <r_mmod_Stretch_Energy-OPLS-2005>
50.4989166259766

> <r_mmod_Bend_Energy-OPLS-2005>
123.743423461914

> <r_mmod_Torsional_Energy-OPLS-2005>
216.133895874023

> <r_mmod_Improper_Torsional_Energy-OPLS-2005>
7.38856649398804

> <r_mmod_Van_der_Waal_Energy-OPLS-2005>
151.421264648438

> <r_mmod_Electrostatic_Energy-OPLS-2005>
-394.813415527344

> <r_mmod_Solvation_Energy-OPLS-2005>
-217.919570922852

> <b_mmod_Minimization_Converged-OPLS-2005>
0

> <r_mmod_RMS_Derivative-OPLS-2005>
1.03269302845001

$$$$
55
                    3D
 Structure written by MMmdl.
171179  0  0  1  0            999 V2000
  -30.7953  -14.3828   20.6699 C   0  0  0  0  0  0
  -30.4077  -12.2973   19.4101 C   0  0  0  0  0  0
  -29.4825  -12.5157   18.1997 C   0  0  0  0  0  0
  -28.0102  -12.3556   18.6168 C   0  0  0  0  0  0
  -27.6587  -13.1998   19.8676 C   0  0  2  0  0  0
  -28.6990  -12.9985   20.9959 C   0  0  0  0  0  0
  -25.2558  -13.8137   20.5629 C   0  0  0  0  0  0
  -24.1834  -13.0423   20.9204 C   0  0  0  0  0  0
  -24.6385  -11.6894   20.8753 C   0  0  0  0  0  0
  -23.9052  -10.4283   21.0407 C   0  0  0  0  0  0
  -24.3608   -9.4202   21.9184 C   0  0  0  0  0  0
  -23.6288   -8.2237   22.0751 C   0  0  0  0  0  0
  -22.4271   -8.0272   21.3544 C   0  0  0  0  0  0
  -21.9904   -9.0243   20.4648 C   0  0  0  0  0  0
  -22.7223  -10.2129   20.3056 C   0  0  0  0  0  0
  -21.6853   -6.0729   22.5274 C   0  0  0  0  0  0
  -21.4013   -6.5632   23.8206 C   0  0  0  0  0  0
  -21.3662   -5.6786   24.9170 C   0  0  0  0  0  0
  -21.6049   -4.3049   24.7223 C   0  0  0  0  0  0
  -21.8818   -3.8140   23.4344 C   0  0  0  0  0  0
  -21.9194   -4.6958   22.3401 C   0  0  0  0  0  0
  -22.7857  -13.5231   21.1851 C   0  0  0  0  0  0
  -22.1661   -4.2146   21.0980 F   0  0  0  0  0  0
  -21.5636   -3.4533   25.7737 F   0  0  0  0  0  0
  -30.0419  -13.2697   20.4533 N   0  0  0  0  0  0
  -26.2998  -12.9308   20.3312 N   0  0  0  0  0  0
  -25.9307  -11.6480   20.5769 N   0  0  0  0  0  0
  -22.0489  -12.8237   22.0412 N   0  0  0  0  0  0
  -25.4180  -15.1852   20.3923 N   0  0  0  0  0  0
  -31.8402  -14.6078   20.0510 O   0  0  0  0  0  0
  -21.6642   -6.8866   21.4235 O   0  0  0  0  0  0
  -22.3553  -14.5539   20.6689 O   0  0  0  0  0  0
  -24.6090  -31.8710   23.2140 C   0  0  0  0  0  0
  -25.9004  -32.4843   23.8423 C   0  0  1  0  0  0
  -27.2538  -27.4798   20.0942 C   0  0  0  0  0  0
  -25.5877  -33.8639   24.2358 N   0  0  0  0  0  0
  -23.3967  -30.4932   21.5519 C   0  0  2  0  0  0
  -24.8492  -28.9619   20.1214 C   0  0  0  0  0  0
  -22.7384  -29.4670   22.5008 C   0  0  0  0  0  0
  -18.0260  -28.1382   22.8496 C   0  0  0  0  0  0
  -24.1486  -36.7329   23.2640 C   0  0  0  0  0  0
  -25.9198  -30.8509   21.3616 C   0  0  0  0  0  0
  -26.0028  -29.4848   20.7186 C   0  0  0  0  0  0
  -27.2067  -28.7516   20.7122 C   0  0  0  0  0  0
  -26.0853  -26.9653   19.4965 C   0  0  0  0  0  0
  -24.8814  -27.6951   19.5119 C   0  0  0  0  0  0
  -23.6069  -29.8218   20.1675 C   0  0  0  0  0  0
  -25.4101  -36.3124   24.0348 C   0  0  1  0  0  0
  -20.5849  -28.3662   23.1335 C   0  0  2  0  0  0
  -20.6754  -26.9404   22.5424 C   0  0  0  0  0  0
  -19.5736  -26.6392   21.5217 C   0  0  0  0  0  0
  -18.1912  -26.7931   22.1624 C   0  0  0  0  0  0
  -19.1510  -28.8836   23.2915 C   0  0  0  0  0  0
  -18.9443  -30.1443   23.8929 C   0  0  0  0  0  0
  -17.6447  -30.6591   24.0572 C   0  0  0  0  0  0
  -25.9020  -34.9487   23.5148 C   0  0  0  0  0  0
  -16.5337  -29.9098   23.6327 C   0  0  0  0  0  0
  -16.7249  -28.6512   23.0349 C   0  0  0  0  0  0
  -26.4461  -31.6598   25.0721 C   0  0  0  0  0  0
  -25.3751  -31.3684   26.1486 C   0  0  0  0  0  0
  -27.0286  -30.3050   24.6052 C   0  0  0  0  0  0
  -27.6052  -32.4306   25.7467 C   0  0  0  0  0  0
  -27.5583  -37.1819   24.8466 C   0  0  0  0  0  0
  -21.4115  -29.3029   22.3744 N   0  0  0  0  0  0
  -26.4294  -37.3801   23.9412 N   0  0  0  0  0  0
  -24.6597  -31.0849   22.1019 N   0  0  0  0  0  0
  -23.4171  -28.8218   23.3040 O   0  0  0  0  0  0
  -28.3830  -26.6995   20.0127 O   0  0  0  0  0  0
  -26.5581  -34.8929   22.4708 O   0  0  0  0  0  0
  -23.5296  -32.1436   23.7559 O   0  0  0  0  0  0
  -28.7084  -16.7493   20.7592 C   0  0  0  0  0  0
  -30.0251  -16.5272   21.2098 C   0  0  0  0  0  0
  -29.3093  -18.8498   20.0878 C   0  0  0  0  0  0
  -29.9216  -24.3487   22.8192 C   0  0  0  0  0  0
  -27.5625  -20.4650   19.1705 C   0  0  0  0  0  0
  -29.3219  -19.4947   17.6744 C   0  0  0  0  0  0
  -31.1095  -15.1334   22.9122 C   0  0  0  0  0  0
  -29.9546  -21.2543   19.3391 C   0  0  0  0  0  0
  -30.4540  -25.7916   20.7706 C   0  0  0  0  0  0
  -29.8076  -22.0120   20.6781 C   0  0  0  0  0  0
  -29.4754  -26.9749   20.8816 C   0  0  0  0  0  0
  -29.8691  -24.4522   21.2825 C   0  0  1  0  0  0
  -29.0425  -20.0089   19.1030 C   0  0  0  0  0  0
  -28.3561  -17.9142   20.1776 N   0  0  0  0  0  0
  -30.9199  -17.5485   21.1313 N   0  0  0  0  0  0
  -30.5685  -18.7020   20.5412 N   0  0  0  0  0  0
  -30.3873  -15.2253   21.6415 N   0  0  0  0  0  0
  -30.5475  -23.2988   20.6386 N   0  3  0  0  0  0
  -31.4521  -12.3767   19.1029 H   0  0  0  0  0  0
  -30.2949  -11.2839   19.7975 H   0  0  0  0  0  0
  -29.7245  -11.8083   17.4057 H   0  0  0  0  0  0
  -29.6449  -13.5112   17.7830 H   0  0  0  0  0  0
  -27.8308  -11.2984   18.8175 H   0  0  0  0  0  0
  -27.3538  -12.6216   17.7880 H   0  0  0  0  0  0
  -27.6970  -14.2380   19.5459 H   0  0  0  0  0  0
  -28.6644  -11.9728   21.3651 H   0  0  0  0  0  0
  -28.4514  -13.6263   21.8529 H   0  0  0  0  0  0
  -25.2747   -9.5692   22.4766 H   0  0  0  0  0  0
  -24.0002   -7.4628   22.7463 H   0  0  0  0  0  0
  -21.0839   -8.8746   19.8952 H   0  0  0  0  0  0
  -22.3659  -10.9668   19.6173 H   0  0  0  0  0  0
  -21.1998   -7.6136   23.9709 H   0  0  0  0  0  0
  -21.1492   -6.0517   25.9074 H   0  0  0  0  0  0
  -22.0602   -2.7604   23.2843 H   0  0  0  0  0  0
  -22.4091  -11.9898   22.4813 H   0  0  0  0  0  0
  -21.1103  -13.1262   22.2597 H   0  0  0  0  0  0
  -24.6249  -15.8128   20.4708 H   0  0  0  0  0  0
  -26.2048  -15.6138   19.9237 H   0  0  0  0  0  0
  -26.7083  -32.5591   23.1206 H   0  0  0  0  0  0
  -25.0033  -33.9811   25.0508 H   0  0  0  0  0  0
  -22.6830  -31.3078   21.4111 H   0  0  0  0  0  0
  -23.3735  -35.9676   23.3318 H   0  0  0  0  0  0
  -24.3583  -36.8925   22.2052 H   0  0  0  0  0  0
  -23.7255  -37.6549   23.6636 H   0  0  0  0  0  0
  -26.0194  -31.6143   20.5887 H   0  0  0  0  0  0
  -26.8116  -30.9141   21.9730 H   0  0  0  0  0  0
  -28.0876  -29.1794   21.1686 H   0  0  0  0  0  0
  -26.1107  -25.9952   19.0190 H   0  0  0  0  0  0
  -23.9942  -27.2833   19.0510 H   0  0  0  0  0  0
  -23.7134  -30.5951   19.4060 H   0  0  0  0  0  0
  -22.7344  -29.2370   19.8718 H   0  0  0  0  0  0
  -25.1276  -36.1997   25.0843 H   0  0  0  0  0  0
  -20.9933  -28.3226   24.1460 H   0  0  0  0  0  0
  -20.5667  -26.2270   23.3607 H   0  0  0  0  0  0
  -21.6628  -26.7462   22.1215 H   0  0  0  0  0  0
  -19.6904  -25.6308   21.1240 H   0  0  0  0  0  0
  -19.6690  -27.3214   20.6759 H   0  0  0  0  0  0
  -17.4188  -26.6690   21.4017 H   0  0  0  0  0  0
  -18.0307  -26.0067   22.9015 H   0  0  0  0  0  0
  -19.7918  -30.7247   24.2324 H   0  0  0  0  0  0
  -17.5004  -31.6279   24.5162 H   0  0  0  0  0  0
  -15.5341  -30.3017   23.7633 H   0  0  0  0  0  0
  -15.8644  -28.0844   22.7055 H   0  0  0  0  0  0
  -24.5911  -30.7046   25.7825 H   0  0  0  0  0  0
  -24.8957  -32.2837   26.4967 H   0  0  0  0  0  0
  -25.8122  -30.8827   27.0220 H   0  0  0  0  0  0
  -26.2809  -29.6811   24.1137 H   0  0  0  0  0  0
  -27.4114  -29.7279   25.4481 H   0  0  0  0  0  0
  -27.8622  -30.4389   23.9150 H   0  0  0  0  0  0
  -27.2673  -33.3581   26.2100 H   0  0  0  0  0  0
  -28.3820  -32.6905   25.0264 H   0  0  0  0  0  0
  -28.0763  -31.8399   26.5334 H   0  0  0  0  0  0
  -28.2605  -38.0109   24.7489 H   0  0  0  0  0  0
  -28.1070  -36.2640   24.6308 H   0  0  0  0  0  0
  -27.2302  -37.1487   25.8869 H   0  0  0  0  0  0
  -20.9267  -29.8750   21.6970 H   0  0  0  0  0  0
  -26.0190  -38.2885   24.1404 H   0  0  0  0  0  0
  -27.9538  -15.9853   20.8378 H   0  0  0  0  0  0
  -29.3894  -25.1763   23.2874 H   0  0  0  0  0  0
  -30.9471  -24.3698   23.1889 H   0  0  0  0  0  0
  -29.4575  -23.4297   23.1776 H   0  0  0  0  0  0
  -26.8876  -19.6852   18.8167 H   0  0  0  0  0  0
  -27.3835  -21.3433   18.5500 H   0  0  0  0  0  0
  -27.2535  -20.7020   20.1882 H   0  0  0  0  0  0
  -28.6882  -18.6417   17.4298 H   0  0  0  0  0  0
  -30.3576  -19.1703   17.5671 H   0  0  0  0  0  0
  -29.1361  -20.2640   16.9249 H   0  0  0  0  0  0
  -32.1621  -15.3957   22.7870 H   0  0  0  0  0  0
  -31.0549  -14.1226   23.3207 H   0  0  0  0  0  0
  -30.6806  -15.8101   23.6521 H   0  0  0  0  0  0
  -30.9998  -20.9691   19.2105 H   0  0  0  0  0  0
  -29.7549  -21.9617   18.5336 H   0  0  0  0  0  0
  -31.3763  -26.0249   21.3038 H   0  0  0  0  0  0
  -30.7337  -25.7006   19.7201 H   0  0  0  0  0  0
  -30.1679  -21.4118   21.5147 H   0  0  0  0  0  0
  -28.7548  -22.2093   20.8755 H   0  0  0  0  0  0
  -29.9715  -27.8960   20.5714 H   0  0  0  0  0  0
  -29.1402  -27.1054   21.9117 H   0  0  0  0  0  0
  -28.8232  -24.4187   20.9730 H   0  0  0  0  0  0
  -30.6551  -23.5393   19.6659 H   0  0  0  0  0  0
  -31.4761  -23.1753   21.0138 H   0  0  0  0  0  0
  1 25  1  0  0  0
  1 30  2  0  0  0
  1 87  1  0  0  0
  2  3  1  0  0  0
  2 25  1  0  0  0
  2 89  1  0  0  0
  2 90  1  0  0  0
  3  4  1  0  0  0
  3 91  1  0  0  0
  3 92  1  0  0  0
  4  5  1  0  0  0
  4 93  1  0  0  0
  4 94  1  0  0  0
  5  6  1  0  0  0
  5 26  1  0  0  0
  5 95  1  0  0  0
  6 25  1  0  0  0
  6 96  1  0  0  0
  6 97  1  0  0  0
  7  8  2  0  0  0
  7 26  1  0  0  0
  7 29  1  0  0  0
  8  9  1  0  0  0
  8 22  1  0  0  0
  9 10  1  0  0  0
  9 27  2  0  0  0
 10 11  2  0  0  0
 10 15  1  0  0  0
 11 12  1  0  0  0
 11 98  1  0  0  0
 12 13  2  0  0  0
 12 99  1  0  0  0
 13 14  1  0  0  0
 13 31  1  0  0  0
 14 15  2  0  0  0
 14100  1  0  0  0
 15101  1  0  0  0
 16 17  2  0  0  0
 16 21  1  0  0  0
 16 31  1  0  0  0
 17 18  1  0  0  0
 17102  1  0  0  0
 18 19  2  0  0  0
 18103  1  0  0  0
 19 20  1  0  0  0
 19 24  1  0  0  0
 20 21  2  0  0  0
 20104  1  0  0  0
 21 23  1  0  0  0
 22 28  1  0  0  0
 22 32  2  0  0  0
 26 27  1  0  0  0
 28105  1  0  0  0
 28106  1  0  0  0
 29107  1  0  0  0
 29108  1  0  0  0
 33 34  1  0  0  0
 33 66  1  0  0  0
 33 70  2  0  0  0
 34 36  1  0  0  0
 34 59  1  0  0  0
 34109  1  0  0  0
 35 44  2  0  0  0
 35 45  1  0  0  0
 35 68  1  0  0  0
 36 56  1  0  0  0
 36110  1  0  0  0
 37 39  1  0  0  0
 37 47  1  0  0  0
 37 66  1  0  0  0
 37111  1  0  0  0
 38 43  2  0  0  0
 38 46  1  0  0  0
 38 47  1  0  0  0
 39 64  1  0  0  0
 39 67  2  0  0  0
 40 52  1  0  0  0
 40 53  2  0  0  0
 40 58  1  0  0  0
 41112  1  0  0  0
 41113  1  0  0  0
 41114  1  0  0  0
 41 48  1  0  0  0
 42 43  1  0  0  0
 42 66  1  0  0  0
 42115  1  0  0  0
 42116  1  0  0  0
 43 44  1  0  0  0
 44117  1  0  0  0
 45 46  2  0  0  0
 45118  1  0  0  0
 46119  1  0  0  0
 47120  1  0  0  0
 47121  1  0  0  0
 48 56  1  0  0  0
 48 65  1  0  0  0
 48122  1  0  0  0
 49 50  1  0  0  0
 49 53  1  0  0  0
 49 64  1  0  0  0
 49123  1  0  0  0
 50 51  1  0  0  0
 50124  1  0  0  0
 50125  1  0  0  0
 51 52  1  0  0  0
 51126  1  0  0  0
 51127  1  0  0  0
 52128  1  0  0  0
 52129  1  0  0  0
 53 54  1  0  0  0
 54 55  2  0  0  0
 54130  1  0  0  0
 55 57  1  0  0  0
 55131  1  0  0  0
 56 69  2  0  0  0
 57 58  2  0  0  0
 57132  1  0  0  0
 58133  1  0  0  0
 59 60  1  0  0  0
 59 61  1  0  0  0
 59 62  1  0  0  0
 60134  1  0  0  0
 60135  1  0  0  0
 60136  1  0  0  0
 61137  1  0  0  0
 61138  1  0  0  0
 61139  1  0  0  0
 62140  1  0  0  0
 62141  1  0  0  0
 62142  1  0  0  0
 63 65  1  0  0  0
 63143  1  0  0  0
 63144  1  0  0  0
 63145  1  0  0  0
 64146  1  0  0  0
 65147  1  0  0  0
 68 81  1  0  0  0
 71 72  2  0  0  0
 71 84  1  0  0  0
 71148  1  0  0  0
 72 85  1  0  0  0
 72 87  1  0  0  0
 73 83  1  0  0  0
 73 84  2  0  0  0
 73 86  1  0  0  0
 74149  1  0  0  0
 74150  1  0  0  0
 74151  1  0  0  0
 74 82  1  0  0  0
 75152  1  0  0  0
 75153  1  0  0  0
 75154  1  0  0  0
 75 83  1  0  0  0
 76 83  1  0  0  0
 76155  1  0  0  0
 76156  1  0  0  0
 76157  1  0  0  0
 77 87  1  0  0  0
 77158  1  0  0  0
 77159  1  0  0  0
 77160  1  0  0  0
 78 80  1  0  0  0
 78 83  1  0  0  0
 78161  1  0  0  0
 78162  1  0  0  0
 79 81  1  0  0  0
 79 82  1  0  0  0
 79163  1  0  0  0
 79164  1  0  0  0
 80 88  1  0  0  0
 80165  1  0  0  0
 80166  1  0  0  0
 81167  1  0  0  0
 81168  1  0  0  0
 82 88  1  0  0  0
 82169  1  0  0  0
 85 86  2  0  0  0
 88170  1  0  0  0
 88171  1  0  0  0
M  CHG  1  88   1
M  ISO  4   1 100  68 101  81 101  87 100
M  END
> <chiral flag>
0

> <version>
0

> <s_m_source_file>
/data/baiqing/PycharmProjects/Reinvent-master-3.2/result/LINK_invent/BTK/process_docking_weight1_custom_sum_contain_oxygen_bond_distance_aromatic_linkinvent_7_9_3/rearranged_h_0066.sdf

> <i_m_source_file_index>
52

> <r_mmod_Potential_Energy-OPLS-2005>
-97.4122161865234

> <r_mmod_Stretch_Energy-OPLS-2005>
38.9130096435547

> <r_mmod_Bend_Energy-OPLS-2005>
117.449737548828

> <r_mmod_Torsional_Energy-OPLS-2005>
295.122650146484

> <r_mmod_Improper_Torsional_Energy-OPLS-2005>
8.59158706665039

> <r_mmod_Van_der_Waal_Energy-OPLS-2005>
165.562698364258

> <r_mmod_Electrostatic_Energy-OPLS-2005>
-297.610076904297

> <r_mmod_Solvation_Energy-OPLS-2005>
-432.830657958984

> <b_mmod_Minimization_Converged-OPLS-2005>
0

> <r_mmod_RMS_Derivative-OPLS-2005>
1.04379332065582

$$$$
56
                    3D
 Structure written by MMmdl.
184192  0  0  1  0            999 V2000
  -30.7264  -14.4320   20.6662 C   0  0  0  0  0  0
  -30.4221  -12.3101   19.4260 C   0  0  0  0  0  0
  -29.4993  -12.5267   18.2096 C   0  0  0  0  0  0
  -28.0194  -12.3740   18.6115 C   0  0  0  0  0  0
  -27.6626  -13.2027   19.8724 C   0  0  2  0  0  0
  -28.6901  -12.9556   20.9943 C   0  0  0  0  0  0
  -25.2588  -13.8151   20.5647 C   0  0  0  0  0  0
  -24.1836  -13.0440   20.9149 C   0  0  0  0  0  0
  -24.6380  -11.6901   20.8706 C   0  0  0  0  0  0
  -23.9048  -10.4293   21.0394 C   0  0  0  0  0  0
  -24.3606   -9.4212   21.9174 C   0  0  0  0  0  0
  -23.6285   -8.2247   22.0751 C   0  0  0  0  0  0
  -22.4264   -8.0282   21.3547 C   0  0  0  0  0  0
  -21.9896   -9.0249   20.4645 C   0  0  0  0  0  0
  -22.7221  -10.2130   20.3047 C   0  0  0  0  0  0
  -21.6849   -6.0730   22.5281 C   0  0  0  0  0  0
  -21.4014   -6.5636   23.8213 C   0  0  0  0  0  0
  -21.3659   -5.6791   24.9176 C   0  0  0  0  0  0
  -21.6042   -4.3053   24.7226 C   0  0  0  0  0  0
  -21.8818   -3.8145   23.4348 C   0  0  0  0  0  0
  -21.9191   -4.6961   22.3406 C   0  0  0  0  0  0
  -22.7863  -13.5242   21.1833 C   0  0  0  0  0  0
  -22.1660   -4.2148   21.0984 F   0  0  0  0  0  0
  -21.5628   -3.4539   25.7738 F   0  0  0  0  0  0
  -30.0355  -13.2696   20.4756 N   0  0  0  0  0  0
  -26.3008  -12.9312   20.3290 N   0  0  0  0  0  0
  -25.9296  -11.6477   20.5703 N   0  0  0  0  0  0
  -22.0506  -12.8247   22.0397 N   0  0  0  0  0  0
  -25.4330  -15.1873   20.4090 N   0  0  0  0  0  0
  -31.7594  -14.6866   20.0390 O   0  0  0  0  0  0
  -21.6634   -6.8874   21.4243 O   0  0  0  0  0  0
  -22.3555  -14.5551   20.6683 O   0  0  0  0  0  0
  -24.6135  -31.8668   23.2086 C   0  0  0  0  0  0
  -25.9032  -32.4812   23.8381 C   0  0  1  0  0  0
  -27.2315  -27.4298   20.1066 C   0  0  0  0  0  0
  -25.5900  -33.8613   24.2318 N   0  0  0  0  0  0
  -23.4015  -30.4889   21.5485 C   0  0  2  0  0  0
  -24.8469  -28.9526   20.1120 C   0  0  0  0  0  0
  -22.7403  -29.4646   22.4988 C   0  0  0  0  0  0
  -18.0267  -28.1380   22.8482 C   0  0  0  0  0  0
  -24.1489  -36.7308   23.2640 C   0  0  0  0  0  0
  -25.9278  -30.8345   21.3583 C   0  0  0  0  0  0
  -26.0053  -29.4689   20.7041 C   0  0  0  0  0  0
  -27.2007  -28.7180   20.6888 C   0  0  0  0  0  0
  -26.0607  -26.9297   19.4967 C   0  0  0  0  0  0
  -24.8701  -27.6845   19.5023 C   0  0  0  0  0  0
  -23.6081  -29.8189   20.1632 C   0  0  0  0  0  0
  -25.4110  -36.3105   24.0342 C   0  0  1  0  0  0
  -20.5859  -28.3660   23.1324 C   0  0  2  0  0  0
  -20.6762  -26.9401   22.5422 C   0  0  0  0  0  0
  -19.5746  -26.6387   21.5214 C   0  0  0  0  0  0
  -18.1918  -26.7924   22.1618 C   0  0  0  0  0  0
  -19.1519  -28.8836   23.2895 C   0  0  0  0  0  0
  -18.9453  -30.1439   23.8909 C   0  0  0  0  0  0
  -17.6459  -30.6583   24.0566 C   0  0  0  0  0  0
  -25.9042  -34.9471   23.5128 C   0  0  0  0  0  0
  -16.5347  -29.9089   23.6328 C   0  0  0  0  0  0
  -16.7260  -28.6510   23.0339 C   0  0  0  0  0  0
  -26.4466  -31.6586   25.0702 C   0  0  0  0  0  0
  -25.3743  -31.3693   26.1460 C   0  0  0  0  0  0
  -27.0294  -30.3034   24.6058 C   0  0  0  0  0  0
  -27.6044  -32.4303   25.7465 C   0  0  0  0  0  0
  -27.5580  -37.1806   24.8464 C   0  0  0  0  0  0
  -21.4133  -29.3028   22.3727 N   0  0  0  0  0  0
  -26.4295  -37.3790   23.9409 N   0  0  0  0  0  0
  -24.6659  -31.0777   22.0977 N   0  0  0  0  0  0
  -23.4176  -28.8187   23.3030 O   0  0  0  0  0  0
  -28.4108  -26.7149   20.1462 O   0  0  0  0  0  0
  -26.5598  -34.8923   22.4686 O   0  0  0  0  0  0
  -23.5333  -32.1418   23.7490 O   0  0  0  0  0  0
  -29.4048  -23.3246   23.4352 C   0  0  0  0  0  0
  -28.6588  -23.5685   22.3110 C   0  0  0  0  0  0
  -29.1163  -21.3596   22.4496 C   0  0  0  0  0  0
  -32.6315  -17.9112   19.8740 C   0  0  0  0  0  0
  -28.4068  -25.9824   22.8680 C   0  0  0  0  0  0
  -26.4707  -24.6624   21.9933 C   0  0  0  0  0  0
  -31.0213  -22.3915   25.6104 C   0  0  0  0  0  0
  -31.4187  -20.3333   24.3236 C   0  0  0  0  0  0
  -29.2506  -20.6536   25.6039 C   0  0  0  0  0  0
  -30.1064  -15.1595   22.9198 C   0  0  0  0  0  0
  -29.0676  -19.8761   22.1094 C   0  0  0  0  0  0
  -32.2270  -17.6874   21.3395 C   0  0  0  0  0  0
  -30.2701  -19.3289   21.2957 C   0  0  0  0  0  0
  -29.8330  -16.7426   21.0109 C   0  0  0  0  0  0
  -28.3906  -25.2932   20.4149 C   0  0  0  0  0  0
  -30.7195  -17.8677   21.6282 C   0  0  1  0  0  0
  -27.9916  -24.8719   21.8720 C   0  0  0  0  0  0
  -30.3179  -21.3347   24.7210 C   0  0  0  0  0  0
  -29.6607  -21.9769   23.5302 N   0  0  0  0  0  0
  -28.5355  -22.3311   21.7135 N   0  3  0  0  0  0
  -30.1389  -15.3613   21.4653 N   0  0  0  0  0  0
  -31.4681  -12.4114   19.1310 H   0  0  0  0  0  0
  -30.3235  -11.2912   19.8035 H   0  0  0  0  0  0
  -29.7478  -11.8195   17.4171 H   0  0  0  0  0  0
  -29.6667  -13.5224   17.7959 H   0  0  0  0  0  0
  -27.8318  -11.3159   18.7984 H   0  0  0  0  0  0
  -27.3718  -12.6548   17.7802 H   0  0  0  0  0  0
  -27.7176  -14.2558   19.5944 H   0  0  0  0  0  0
  -28.6602  -11.9132   21.3141 H   0  0  0  0  0  0
  -28.4018  -13.5307   21.8711 H   0  0  0  0  0  0
  -25.2755   -9.5691   22.4739 H   0  0  0  0  0  0
  -23.9994   -7.4643   22.7474 H   0  0  0  0  0  0
  -21.0825   -8.8764   19.8957 H   0  0  0  0  0  0
  -22.3677  -10.9663   19.6152 H   0  0  0  0  0  0
  -21.2007   -7.6144   23.9716 H   0  0  0  0  0  0
  -21.1481   -6.0521   25.9078 H   0  0  0  0  0  0
  -22.0597   -2.7606   23.2849 H   0  0  0  0  0  0
  -22.4115  -11.9909   22.4793 H   0  0  0  0  0  0
  -21.1125  -13.1280   22.2592 H   0  0  0  0  0  0
  -24.6719  -15.8473   20.5264 H   0  0  0  0  0  0
  -26.2959  -15.6261   20.1128 H   0  0  0  0  0  0
  -26.7097  -32.5523   23.1138 H   0  0  0  0  0  0
  -25.0056  -33.9770   25.0469 H   0  0  0  0  0  0
  -22.6910  -31.3063   21.4086 H   0  0  0  0  0  0
  -23.3753  -35.9641   23.3312 H   0  0  0  0  0  0
  -24.3573  -36.8916   22.2051 H   0  0  0  0  0  0
  -23.7246  -37.6519   23.6644 H   0  0  0  0  0  0
  -26.0383  -31.6019   20.5910 H   0  0  0  0  0  0
  -26.8160  -30.8879   21.9754 H   0  0  0  0  0  0
  -28.0960  -29.1111   21.1492 H   0  0  0  0  0  0
  -26.0567  -25.9612   19.0184 H   0  0  0  0  0  0
  -23.9800  -27.2859   19.0354 H   0  0  0  0  0  0
  -23.7149  -30.5927   19.4028 H   0  0  0  0  0  0
  -22.7319  -29.2382   19.8693 H   0  0  0  0  0  0
  -25.1288  -36.1970   25.0839 H   0  0  0  0  0  0
  -20.9948  -28.3227   24.1446 H   0  0  0  0  0  0
  -20.5680  -26.2265   23.3603 H   0  0  0  0  0  0
  -21.6630  -26.7451   22.1211 H   0  0  0  0  0  0
  -19.6923  -25.6302   21.1232 H   0  0  0  0  0  0
  -19.6697  -27.3203   20.6753 H   0  0  0  0  0  0
  -17.4194  -26.6671   21.4012 H   0  0  0  0  0  0
  -18.0312  -26.0064   22.9014 H   0  0  0  0  0  0
  -19.7934  -30.7242   24.2291 H   0  0  0  0  0  0
  -17.5020  -31.6270   24.5157 H   0  0  0  0  0  0
  -15.5349  -30.3000   23.7650 H   0  0  0  0  0  0
  -15.8654  -28.0842   22.7047 H   0  0  0  0  0  0
  -24.5917  -30.7036   25.7801 H   0  0  0  0  0  0
  -24.8929  -32.2848   26.4909 H   0  0  0  0  0  0
  -25.8105  -30.8864   27.0213 H   0  0  0  0  0  0
  -26.2831  -29.6796   24.1124 H   0  0  0  0  0  0
  -27.4097  -29.7260   25.4494 H   0  0  0  0  0  0
  -27.8645  -30.4362   23.9177 H   0  0  0  0  0  0
  -27.2669  -33.3597   26.2060 H   0  0  0  0  0  0
  -28.3841  -32.6875   25.0285 H   0  0  0  0  0  0
  -28.0721  -31.8419   26.5365 H   0  0  0  0  0  0
  -28.2603  -38.0096   24.7506 H   0  0  0  0  0  0
  -28.1074  -36.2630   24.6301 H   0  0  0  0  0  0
  -27.2291  -37.1468   25.8865 H   0  0  0  0  0  0
  -20.9290  -29.8750   21.6949 H   0  0  0  0  0  0
  -26.0191  -38.2872   24.1409 H   0  0  0  0  0  0
  -29.7126  -24.0245   24.1959 H   0  0  0  0  0  0
  -33.7029  -17.7556   19.7453 H   0  0  0  0  0  0
  -32.4090  -18.9256   19.5435 H   0  0  0  0  0  0
  -32.1205  -17.2217   19.2030 H   0  0  0  0  0  0
  -28.1481  -25.7223   23.8945 H   0  0  0  0  0  0
  -27.9016  -26.9250   22.6705 H   0  0  0  0  0  0
  -29.4795  -26.1756   22.8270 H   0  0  0  0  0  0
  -26.2023  -24.3144   22.9913 H   0  0  0  0  0  0
  -26.1056  -23.9226   21.2812 H   0  0  0  0  0  0
  -25.9182  -25.5848   21.8240 H   0  0  0  0  0  0
  -31.5498  -21.9241   26.4423 H   0  0  0  0  0  0
  -30.3148  -23.0876   26.0636 H   0  0  0  0  0  0
  -31.7581  -22.9681   25.0491 H   0  0  0  0  0  0
  -32.0461  -20.0697   25.1756 H   0  0  0  0  0  0
  -32.0776  -20.7368   23.5539 H   0  0  0  0  0  0
  -31.0092  -19.3945   23.9764 H   0  0  0  0  0  0
  -29.6923  -20.2444   26.5134 H   0  0  0  0  0  0
  -28.7425  -19.8304   25.1075 H   0  0  0  0  0  0
  -28.4816  -21.3643   25.9097 H   0  0  0  0  0  0
  -30.1219  -14.1050   23.1994 H   0  0  0  0  0  0
  -29.2101  -15.6042   23.3537 H   0  0  0  0  0  0
  -30.9777  -15.6142   23.3912 H   0  0  0  0  0  0
  -28.1400  -19.7048   21.5627 H   0  0  0  0  0  0
  -28.9513  -19.3342   23.0426 H   0  0  0  0  0  0
  -32.7913  -18.3825   21.9634 H   0  0  0  0  0  0
  -32.5547  -16.6982   21.6589 H   0  0  0  0  0  0
  -31.1145  -19.9854   21.5069 H   0  0  0  0  0  0
  -30.0871  -19.4513   20.2279 H   0  0  0  0  0  0
  -29.8784  -16.7921   19.9215 H   0  0  0  0  0  0
  -28.7891  -16.9374   21.2596 H   0  0  0  0  0  0
  -27.8156  -24.7451   19.6687 H   0  0  0  0  0  0
  -29.4225  -24.9804   20.2517 H   0  0  0  0  0  0
  -30.6226  -17.7552   22.7048 H   0  0  0  0  0  0
  -28.0222  -22.1536   20.8578 H   0  0  0  0  0  0
  1 25  1  0  0  0
  1 30  2  0  0  0
  1 91  1  0  0  0
  2  3  1  0  0  0
  2 25  1  0  0  0
  2 92  1  0  0  0
  2 93  1  0  0  0
  3  4  1  0  0  0
  3 94  1  0  0  0
  3 95  1  0  0  0
  4  5  1  0  0  0
  4 96  1  0  0  0
  4 97  1  0  0  0
  5  6  1  0  0  0
  5 26  1  0  0  0
  5 98  1  0  0  0
  6 25  1  0  0  0
  6 99  1  0  0  0
  6100  1  0  0  0
  7  8  2  0  0  0
  7 26  1  0  0  0
  7 29  1  0  0  0
  8  9  1  0  0  0
  8 22  1  0  0  0
  9 10  1  0  0  0
  9 27  2  0  0  0
 10 11  2  0  0  0
 10 15  1  0  0  0
 11 12  1  0  0  0
 11101  1  0  0  0
 12 13  2  0  0  0
 12102  1  0  0  0
 13 14  1  0  0  0
 13 31  1  0  0  0
 14 15  2  0  0  0
 14103  1  0  0  0
 15104  1  0  0  0
 16 17  2  0  0  0
 16 21  1  0  0  0
 16 31  1  0  0  0
 17 18  1  0  0  0
 17105  1  0  0  0
 18 19  2  0  0  0
 18106  1  0  0  0
 19 20  1  0  0  0
 19 24  1  0  0  0
 20 21  2  0  0  0
 20107  1  0  0  0
 21 23  1  0  0  0
 22 28  1  0  0  0
 22 32  2  0  0  0
 26 27  1  0  0  0
 28108  1  0  0  0
 28109  1  0  0  0
 29110  1  0  0  0
 29111  1  0  0  0
 33 34  1  0  0  0
 33 66  1  0  0  0
 33 70  2  0  0  0
 34 36  1  0  0  0
 34 59  1  0  0  0
 34112  1  0  0  0
 35 44  2  0  0  0
 35 45  1  0  0  0
 35 68  1  0  0  0
 36 56  1  0  0  0
 36113  1  0  0  0
 37 39  1  0  0  0
 37 47  1  0  0  0
 37 66  1  0  0  0
 37114  1  0  0  0
 38 43  2  0  0  0
 38 46  1  0  0  0
 38 47  1  0  0  0
 39 64  1  0  0  0
 39 67  2  0  0  0
 40 52  1  0  0  0
 40 53  2  0  0  0
 40 58  1  0  0  0
 41115  1  0  0  0
 41116  1  0  0  0
 41117  1  0  0  0
 41 48  1  0  0  0
 42 43  1  0  0  0
 42 66  1  0  0  0
 42118  1  0  0  0
 42119  1  0  0  0
 43 44  1  0  0  0
 44120  1  0  0  0
 45 46  2  0  0  0
 45121  1  0  0  0
 46122  1  0  0  0
 47123  1  0  0  0
 47124  1  0  0  0
 48 56  1  0  0  0
 48 65  1  0  0  0
 48125  1  0  0  0
 49 50  1  0  0  0
 49 53  1  0  0  0
 49 64  1  0  0  0
 49126  1  0  0  0
 50 51  1  0  0  0
 50127  1  0  0  0
 50128  1  0  0  0
 51 52  1  0  0  0
 51129  1  0  0  0
 51130  1  0  0  0
 52131  1  0  0  0
 52132  1  0  0  0
 53 54  1  0  0  0
 54 55  2  0  0  0
 54133  1  0  0  0
 55 57  1  0  0  0
 55134  1  0  0  0
 56 69  2  0  0  0
 57 58  2  0  0  0
 57135  1  0  0  0
 58136  1  0  0  0
 59 60  1  0  0  0
 59 61  1  0  0  0
 59 62  1  0  0  0
 60137  1  0  0  0
 60138  1  0  0  0
 60139  1  0  0  0
 61140  1  0  0  0
 61141  1  0  0  0
 61142  1  0  0  0
 62143  1  0  0  0
 62144  1  0  0  0
 62145  1  0  0  0
 63 65  1  0  0  0
 63146  1  0  0  0
 63147  1  0  0  0
 63148  1  0  0  0
 64149  1  0  0  0
 65150  1  0  0  0
 68 85  1  0  0  0
 71 72  2  0  0  0
 71 89  1  0  0  0
 71151  1  0  0  0
 72 87  1  0  0  0
 72 90  1  0  0  0
 73 81  1  0  0  0
 73 89  1  0  0  0
 73 90  2  0  0  0
 74 82  1  0  0  0
 74152  1  0  0  0
 74153  1  0  0  0
 74154  1  0  0  0
 75155  1  0  0  0
 75156  1  0  0  0
 75157  1  0  0  0
 75 87  1  0  0  0
 76 87  1  0  0  0
 76158  1  0  0  0
 76159  1  0  0  0
 76160  1  0  0  0
 77161  1  0  0  0
 77162  1  0  0  0
 77163  1  0  0  0
 77 88  1  0  0  0
 78 88  1  0  0  0
 78164  1  0  0  0
 78165  1  0  0  0
 78166  1  0  0  0
 79 88  1  0  0  0
 79167  1  0  0  0
 79168  1  0  0  0
 79169  1  0  0  0
 80 91  1  0  0  0
 80170  1  0  0  0
 80171  1  0  0  0
 80172  1  0  0  0
 81 83  1  0  0  0
 81173  1  0  0  0
 81174  1  0  0  0
 82175  1  0  0  0
 82176  1  0  0  0
 82 86  1  0  0  0
 83 86  1  0  0  0
 83177  1  0  0  0
 83178  1  0  0  0
 84 86  1  0  0  0
 84 91  1  0  0  0
 84179  1  0  0  0
 84180  1  0  0  0
 85 87  1  0  0  0
 85181  1  0  0  0
 85182  1  0  0  0
 86183  1  0  0  0
 88 89  1  0  0  0
 90184  1  0  0  0
M  CHG  1  90   1
M  ISO  4   1 100  68 101  85 101  91 100
M  END
> <chiral flag>
0

> <version>
0

> <s_m_source_file>
/data/baiqing/PycharmProjects/Reinvent-master-3.2/result/LINK_invent/BTK/process_docking_weight1_custom_sum_contain_oxygen_bond_distance_aromatic_linkinvent_7_9_3/rearranged_h_0066.sdf

> <i_m_source_file_index>
53

> <r_mmod_Potential_Energy-OPLS-2005>
162.176147460938

> <r_mmod_Stretch_Energy-OPLS-2005>
50.5262489318848

> <r_mmod_Bend_Energy-OPLS-2005>
131.322769165039

> <r_mmod_Torsional_Energy-OPLS-2005>
371.469207763672

> <r_mmod_Improper_Torsional_Energy-OPLS-2005>
4.76284885406494

> <r_mmod_Van_der_Waal_Energy-OPLS-2005>
136.243499755859

> <r_mmod_Electrostatic_Energy-OPLS-2005>
-172.200469970703

> <r_mmod_Solvation_Energy-OPLS-2005>
-370.789489746094

> <b_mmod_Minimization_Converged-OPLS-2005>
0

> <r_mmod_RMS_Derivative-OPLS-2005>
1.03930413722992

$$$$
57
                    3D
 Structure written by MMmdl.
193201  0  0  1  0            999 V2000
  -30.6772  -14.4645   20.5961 C   0  0  0  0  0  0
  -30.4380  -12.3204   19.3920 C   0  0  0  0  0  0
  -29.5061  -12.5107   18.1764 C   0  0  0  0  0  0
  -28.0230  -12.3710   18.5789 C   0  0  0  0  0  0
  -27.6681  -13.1824   19.8527 C   0  0  2  0  0  0
  -28.7031  -12.9348   20.9714 C   0  0  0  0  0  0
  -25.2676  -13.7826   20.5410 C   0  0  0  0  0  0
  -24.1941  -13.0356   20.9118 C   0  0  0  0  0  0
  -24.6440  -11.6805   20.8700 C   0  0  0  0  0  0
  -23.9079  -10.4256   21.0387 C   0  0  0  0  0  0
  -24.3615   -9.4238   21.9197 C   0  0  0  0  0  0
  -23.6333   -8.2282   22.0792 C   0  0  0  0  0  0
  -22.4356   -8.0263   21.3529 C   0  0  0  0  0  0
  -21.9912   -9.0261   20.4677 C   0  0  0  0  0  0
  -22.7250  -10.2125   20.3077 C   0  0  0  0  0  0
  -21.6915   -6.0770   22.5228 C   0  0  0  0  0  0
  -21.4051   -6.5687   23.8135 C   0  0  0  0  0  0
  -21.3630   -5.6832   24.9086 C   0  0  0  0  0  0
  -21.6049   -4.3098   24.7149 C   0  0  0  0  0  0
  -21.8882   -3.8188   23.4280 C   0  0  0  0  0  0
  -21.9253   -4.6999   22.3344 C   0  0  0  0  0  0
  -22.7968  -13.5251   21.1806 C   0  0  0  0  0  0
  -22.1745   -4.2189   21.0938 F   0  0  0  0  0  0
  -21.5550   -3.4601   25.7667 F   0  0  0  0  0  0
  -30.0283  -13.2799   20.4296 N   0  0  0  0  0  0
  -26.3071  -12.9058   20.3104 N   0  0  0  0  0  0
  -25.9351  -11.6281   20.5629 N   0  0  0  0  0  0
  -22.0542  -12.8249   22.0250 N   0  0  0  0  0  0
  -25.4481  -15.1305   20.3322 N   0  0  0  0  0  0
  -31.7776  -14.6949   20.0789 O   0  0  0  0  0  0
  -21.6732   -6.8878   21.4189 O   0  0  0  0  0  0
  -22.3775  -14.5677   20.6713 O   0  0  0  0  0  0
  -24.6071  -31.8688   23.2082 C   0  0  0  0  0  0
  -25.8956  -32.4847   23.8399 C   0  0  1  0  0  0
  -27.2545  -27.4814   20.0424 C   0  0  0  0  0  0
  -25.5836  -33.8665   24.2319 N   0  0  0  0  0  0
  -23.3971  -30.4861   21.5511 C   0  0  2  0  0  0
  -24.8408  -28.9472   20.1187 C   0  0  0  0  0  0
  -22.7380  -29.4621   22.5009 C   0  0  0  0  0  0
  -18.0317  -28.1361   22.8446 C   0  0  0  0  0  0
  -24.1490  -36.7337   23.2629 C   0  0  0  0  0  0
  -25.9203  -30.8308   21.3642 C   0  0  0  0  0  0
  -25.9942  -29.4651   20.7190 C   0  0  0  0  0  0
  -27.1965  -28.7273   20.6999 C   0  0  0  0  0  0
  -26.0751  -26.9586   19.4617 C   0  0  0  0  0  0
  -24.8715  -27.6887   19.5002 C   0  0  0  0  0  0
  -23.5985  -29.8058   20.1681 C   0  0  0  0  0  0
  -25.4116  -36.3162   24.0331 C   0  0  1  0  0  0
  -20.5874  -28.3638   23.1256 C   0  0  2  0  0  0
  -20.6807  -26.9376   22.5321 C   0  0  0  0  0  0
  -19.5752  -26.6312   21.5163 C   0  0  0  0  0  0
  -18.2037  -26.7803   22.1783 C   0  0  0  0  0  0
  -19.1548  -28.8849   23.2829 C   0  0  0  0  0  0
  -18.9496  -30.1469   23.8811 C   0  0  0  0  0  0
  -17.6488  -30.6556   24.0541 C   0  0  0  0  0  0
  -25.9020  -34.9511   23.5121 C   0  0  0  0  0  0
  -16.5396  -29.9022   23.6314 C   0  0  0  0  0  0
  -16.7297  -28.6450   23.0293 C   0  0  0  0  0  0
  -26.4401  -31.6637   25.0736 C   0  0  0  0  0  0
  -25.3676  -31.3714   26.1502 C   0  0  0  0  0  0
  -27.0222  -30.3086   24.6082 C   0  0  0  0  0  0
  -27.5992  -32.4355   25.7492 C   0  0  0  0  0  0
  -27.5592  -37.1829   24.8455 C   0  0  0  0  0  0
  -21.4125  -29.3012   22.3678 N   0  0  0  0  0  0
  -26.4331  -37.3818   23.9375 N   0  0  0  0  0  0
  -24.6588  -31.0778   22.0988 N   0  0  0  0  0  0
  -23.4126  -28.8132   23.3050 O   0  0  0  0  0  0
  -28.4633  -26.8236   19.9987 O   0  0  0  0  0  0
  -26.5605  -34.8951   22.4701 O   0  0  0  0  0  0
  -23.5263  -32.1464   23.7466 O   0  0  0  0  0  0
  -28.7712  -19.5254   19.4985 C   0  0  0  0  0  0
  -28.1420  -20.7497   19.5412 C   0  0  0  0  0  0
  -26.8771  -19.2741   20.6475 C   0  0  0  0  0  0
  -23.1745  -19.8039   22.0458 C   0  0  0  0  0  0
  -26.9663  -22.5430   18.3819 C   0  0  0  0  0  0
  -28.6742  -22.9923   20.2438 C   0  0  0  0  0  0
  -25.6617  -17.8810   22.3910 C   0  0  0  0  0  0
  -24.8511  -18.1407   19.9437 C   0  0  0  0  0  0
  -28.8238  -24.0846   16.1761 C   0  0  0  0  0  0
  -30.9125  -22.9099   16.0331 C   0  0  0  0  0  0
  -30.0758  -15.5864   22.6430 C   0  0  0  0  0  0
  -24.6193  -20.0428   21.5525 C   0  0  0  0  0  0
  -30.1870  -25.5051   18.9446 C   0  0  0  0  0  0
  -30.7331  -24.5592   17.8401 C   0  0  0  0  0  0
  -29.4587  -22.1767   17.9077 C   0  0  0  0  0  0
  -28.2831  -17.1904   20.4450 C   0  0  0  0  0  0
  -29.7784  -16.7718   20.5140 C   0  0  0  0  0  0
  -28.8028  -26.1676   18.7757 C   0  0  0  0  0  0
  -28.3344  -22.1493   18.9993 C   0  0  0  0  0  0
  -25.5179  -18.8122   21.1605 C   0  0  0  0  0  0
  -29.9079  -23.4597   17.0837 C   0  0  0  0  0  0
  -28.0044  -18.6346   20.2320 N   0  0  0  0  0  0
  -27.0480  -20.5407   20.3181 N   0  3  0  0  0  0
  -29.9607  -15.4575   21.1842 N   0  0  0  0  0  0
  -31.4802  -12.4454   19.0871 H   0  0  0  0  0  0
  -30.3569  -11.3003   19.7701 H   0  0  0  0  0  0
  -29.7462  -11.7767   17.4071 H   0  0  0  0  0  0
  -29.6807  -13.4946   17.7317 H   0  0  0  0  0  0
  -27.8131  -11.3144   18.7441 H   0  0  0  0  0  0
  -27.3790  -12.6760   17.7512 H   0  0  0  0  0  0
  -27.7215  -14.2368   19.5883 H   0  0  0  0  0  0
  -28.7036  -11.8868   21.2747 H   0  0  0  0  0  0
  -28.4520  -13.4938   21.8713 H   0  0  0  0  0  0
  -25.2768   -9.5810   22.4720 H   0  0  0  0  0  0
  -24.0118   -7.4759   22.7574 H   0  0  0  0  0  0
  -21.0804   -8.8786   19.9030 H   0  0  0  0  0  0
  -22.3722  -10.9647   19.6146 H   0  0  0  0  0  0
  -21.2087   -7.6206   23.9601 H   0  0  0  0  0  0
  -21.1345   -6.0581   25.8950 H   0  0  0  0  0  0
  -22.0692   -2.7677   23.2766 H   0  0  0  0  0  0
  -22.4183  -11.9874   22.4557 H   0  0  0  0  0  0
  -21.1056  -13.1161   22.2279 H   0  0  0  0  0  0
  -24.6216  -15.7183   20.3254 H   0  0  0  0  0  0
  -26.1108  -15.3890   19.6141 H   0  0  0  0  0  0
  -26.7000  -32.5517   23.1162 H   0  0  0  0  0  0
  -25.0023  -33.9853   25.0475 H   0  0  0  0  0  0
  -22.6878  -31.3002   21.4095 H   0  0  0  0  0  0
  -23.3762  -35.9654   23.3321 H   0  0  0  0  0  0
  -24.3563  -36.8935   22.2033 H   0  0  0  0  0  0
  -23.7249  -37.6561   23.6627 H   0  0  0  0  0  0
  -26.0296  -31.5891   20.5886 H   0  0  0  0  0  0
  -26.8066  -30.8855   21.9781 H   0  0  0  0  0  0
  -28.0910  -29.1225   21.1614 H   0  0  0  0  0  0
  -26.0585  -25.9952   18.9748 H   0  0  0  0  0  0
  -23.9852  -27.2867   19.0304 H   0  0  0  0  0  0
  -23.6796  -30.5681   19.3924 H   0  0  0  0  0  0
  -22.7291  -29.2097   19.8982 H   0  0  0  0  0  0
  -25.1309  -36.2067   25.0832 H   0  0  0  0  0  0
  -20.9970  -28.3152   24.1388 H   0  0  0  0  0  0
  -20.5664  -26.2208   23.3473 H   0  0  0  0  0  0
  -21.6660  -26.7364   22.1074 H   0  0  0  0  0  0
  -19.6594  -27.3093   20.6669 H   0  0  0  0  0  0
  -19.6932  -25.6232   21.1170 H   0  0  0  0  0  0
  -17.4154  -26.6163   21.4399 H   0  0  0  0  0  0
  -18.0844  -26.0127   22.9442 H   0  0  0  0  0  0
  -19.7951  -30.7318   24.2143 H   0  0  0  0  0  0
  -17.5034  -31.6252   24.5129 H   0  0  0  0  0  0
  -15.5390  -30.2857   23.7797 H   0  0  0  0  0  0
  -15.8711  -28.0738   22.7043 H   0  0  0  0  0  0
  -24.5851  -30.7071   25.7828 H   0  0  0  0  0  0
  -24.8847  -32.2854   26.4987 H   0  0  0  0  0  0
  -25.8049  -30.8874   27.0237 H   0  0  0  0  0  0
  -26.2746  -29.6895   24.1116 H   0  0  0  0  0  0
  -27.3985  -29.7318   25.4535 H   0  0  0  0  0  0
  -27.8592  -30.4442   23.9221 H   0  0  0  0  0  0
  -27.2623  -33.3631   26.2126 H   0  0  0  0  0  0
  -28.3777  -32.6935   25.0302 H   0  0  0  0  0  0
  -28.0674  -31.8435   26.5383 H   0  0  0  0  0  0
  -28.2651  -38.0086   24.7509 H   0  0  0  0  0  0
  -28.1068  -36.2642   24.6321 H   0  0  0  0  0  0
  -27.2284  -37.1519   25.8846 H   0  0  0  0  0  0
  -20.9356  -29.8675   21.6797 H   0  0  0  0  0  0
  -26.0253  -38.2917   24.1336 H   0  0  0  0  0  0
  -29.6739  -19.2302   18.9835 H   0  0  0  0  0  0
  -23.1040  -19.0911   22.8672 H   0  0  0  0  0  0
  -22.5140  -19.4646   21.2499 H   0  0  0  0  0  0
  -22.7540  -20.7483   22.4016 H   0  0  0  0  0  0
  -26.1394  -22.5079   19.0924 H   0  0  0  0  0  0
  -26.7054  -21.8741   17.5593 H   0  0  0  0  0  0
  -26.9430  -23.5507   17.9926 H   0  0  0  0  0  0
  -28.4183  -24.0326   20.1287 H   0  0  0  0  0  0
  -29.7332  -22.9066   20.4865 H   0  0  0  0  0  0
  -28.1150  -22.7062   21.1367 H   0  0  0  0  0  0
  -25.9758  -16.8827   22.1263 H   0  0  0  0  0  0
  -24.7360  -17.7275   22.9379 H   0  0  0  0  0  0
  -26.3951  -18.2733   23.0983 H   0  0  0  0  0  0
  -25.4769  -17.3641   19.5204 H   0  0  0  0  0  0
  -24.7465  -18.8365   19.1105 H   0  0  0  0  0  0
  -23.8651  -17.7325   20.1647 H   0  0  0  0  0  0
  -29.2596  -24.8095   15.4840 H   0  0  0  0  0  0
  -28.0450  -24.6407   16.6721 H   0  0  0  0  0  0
  -28.3284  -23.3272   15.5748 H   0  0  0  0  0  0
  -31.3381  -23.7115   15.4225 H   0  0  0  0  0  0
  -30.4467  -22.2012   15.3395 H   0  0  0  0  0  0
  -31.7505  -22.3922   16.4943 H   0  0  0  0  0  0
  -30.9617  -16.1652   22.9185 H   0  0  0  0  0  0
  -30.1613  -14.6202   23.1368 H   0  0  0  0  0  0
  -29.2094  -16.0870   23.0726 H   0  0  0  0  0  0
  -25.1297  -20.6481   22.3012 H   0  0  0  0  0  0
  -24.5066  -20.6995   20.6907 H   0  0  0  0  0  0
  -30.2696  -25.0181   19.9110 H   0  0  0  0  0  0
  -30.9141  -26.3105   19.0509 H   0  0  0  0  0  0
  -31.6097  -24.0722   18.2725 H   0  0  0  0  0  0
  -31.1385  -25.2293   17.0848 H   0  0  0  0  0  0
  -30.3593  -21.7455   18.3451 H   0  0  0  0  0  0
  -29.1422  -21.4384   17.1718 H   0  0  0  0  0  0
  -27.8511  -16.9213   21.3948 H   0  0  0  0  0  0
  -27.7542  -16.6342   19.6704 H   0  0  0  0  0  0
  -30.3588  -17.5247   21.0474 H   0  0  0  0  0  0
  -30.1835  -16.7407   19.5009 H   0  0  0  0  0  0
  -28.0574  -25.4207   18.5622 H   0  0  0  0  0  0
  -28.8077  -26.8816   17.9473 H   0  0  0  0  0  0
  -26.3797  -21.2648   20.5462 H   0  0  0  0  0  0
  1 25  1  0  0  0
  1 30  2  0  0  0
  1 94  1  0  0  0
  2  3  1  0  0  0
  2 25  1  0  0  0
  2 95  1  0  0  0
  2 96  1  0  0  0
  3  4  1  0  0  0
  3 97  1  0  0  0
  3 98  1  0  0  0
  4  5  1  0  0  0
  4 99  1  0  0  0
  4100  1  0  0  0
  5  6  1  0  0  0
  5 26  1  0  0  0
  5101  1  0  0  0
  6 25  1  0  0  0
  6102  1  0  0  0
  6103  1  0  0  0
  7  8  2  0  0  0
  7 26  1  0  0  0
  7 29  1  0  0  0
  8  9  1  0  0  0
  8 22  1  0  0  0
  9 10  1  0  0  0
  9 27  2  0  0  0
 10 11  2  0  0  0
 10 15  1  0  0  0
 11 12  1  0  0  0
 11104  1  0  0  0
 12 13  2  0  0  0
 12105  1  0  0  0
 13 14  1  0  0  0
 13 31  1  0  0  0
 14 15  2  0  0  0
 14106  1  0  0  0
 15107  1  0  0  0
 16 17  2  0  0  0
 16 21  1  0  0  0
 16 31  1  0  0  0
 17 18  1  0  0  0
 17108  1  0  0  0
 18 19  2  0  0  0
 18109  1  0  0  0
 19 20  1  0  0  0
 19 24  1  0  0  0
 20 21  2  0  0  0
 20110  1  0  0  0
 21 23  1  0  0  0
 22 28  1  0  0  0
 22 32  2  0  0  0
 26 27  1  0  0  0
 28111  1  0  0  0
 28112  1  0  0  0
 29113  1  0  0  0
 29114  1  0  0  0
 33 34  1  0  0  0
 33 66  1  0  0  0
 33 70  2  0  0  0
 34 36  1  0  0  0
 34 59  1  0  0  0
 34115  1  0  0  0
 35 44  2  0  0  0
 35 45  1  0  0  0
 35 68  1  0  0  0
 36 56  1  0  0  0
 36116  1  0  0  0
 37 39  1  0  0  0
 37 47  1  0  0  0
 37 66  1  0  0  0
 37117  1  0  0  0
 38 43  2  0  0  0
 38 46  1  0  0  0
 38 47  1  0  0  0
 39 64  1  0  0  0
 39 67  2  0  0  0
 40 52  1  0  0  0
 40 53  2  0  0  0
 40 58  1  0  0  0
 41118  1  0  0  0
 41119  1  0  0  0
 41120  1  0  0  0
 41 48  1  0  0  0
 42 43  1  0  0  0
 42 66  1  0  0  0
 42121  1  0  0  0
 42122  1  0  0  0
 43 44  1  0  0  0
 44123  1  0  0  0
 45 46  2  0  0  0
 45124  1  0  0  0
 46125  1  0  0  0
 47126  1  0  0  0
 47127  1  0  0  0
 48 56  1  0  0  0
 48 65  1  0  0  0
 48128  1  0  0  0
 49 50  1  0  0  0
 49 53  1  0  0  0
 49 64  1  0  0  0
 49129  1  0  0  0
 50 51  1  0  0  0
 50130  1  0  0  0
 50131  1  0  0  0
 51 52  1  0  0  0
 51132  1  0  0  0
 51133  1  0  0  0
 52134  1  0  0  0
 52135  1  0  0  0
 53 54  1  0  0  0
 54 55  2  0  0  0
 54136  1  0  0  0
 55 57  1  0  0  0
 55137  1  0  0  0
 56 69  2  0  0  0
 57 58  2  0  0  0
 57138  1  0  0  0
 58139  1  0  0  0
 59 60  1  0  0  0
 59 61  1  0  0  0
 59 62  1  0  0  0
 60140  1  0  0  0
 60141  1  0  0  0
 60142  1  0  0  0
 61143  1  0  0  0
 61144  1  0  0  0
 61145  1  0  0  0
 62146  1  0  0  0
 62147  1  0  0  0
 62148  1  0  0  0
 63 65  1  0  0  0
 63149  1  0  0  0
 63150  1  0  0  0
 63151  1  0  0  0
 64152  1  0  0  0
 65153  1  0  0  0
 68 88  1  0  0  0
 71 72  2  0  0  0
 71 92  1  0  0  0
 71154  1  0  0  0
 72 89  1  0  0  0
 72 93  1  0  0  0
 73 90  1  0  0  0
 73 92  1  0  0  0
 73 93  2  0  0  0
 74 82  1  0  0  0
 74155  1  0  0  0
 74156  1  0  0  0
 74157  1  0  0  0
 75158  1  0  0  0
 75159  1  0  0  0
 75160  1  0  0  0
 75 89  1  0  0  0
 76 89  1  0  0  0
 76161  1  0  0  0
 76162  1  0  0  0
 76163  1  0  0  0
 77164  1  0  0  0
 77165  1  0  0  0
 77166  1  0  0  0
 77 90  1  0  0  0
 78 90  1  0  0  0
 78167  1  0  0  0
 78168  1  0  0  0
 78169  1  0  0  0
 79170  1  0  0  0
 79171  1  0  0  0
 79172  1  0  0  0
 79 91  1  0  0  0
 80 91  1  0  0  0
 80173  1  0  0  0
 80174  1  0  0  0
 80175  1  0  0  0
 81 94  1  0  0  0
 81176  1  0  0  0
 81177  1  0  0  0
 81178  1  0  0  0
 82 90  1  0  0  0
 82179  1  0  0  0
 82180  1  0  0  0
 83 84  1  0  0  0
 83 88  1  0  0  0
 83181  1  0  0  0
 83182  1  0  0  0
 84 91  1  0  0  0
 84183  1  0  0  0
 84184  1  0  0  0
 85 89  1  0  0  0
 85 91  1  0  0  0
 85185  1  0  0  0
 85186  1  0  0  0
 86 87  1  0  0  0
 86 92  1  0  0  0
 86187  1  0  0  0
 86188  1  0  0  0
 87 94  1  0  0  0
 87189  1  0  0  0
 87190  1  0  0  0
 88191  1  0  0  0
 88192  1  0  0  0
 93193  1  0  0  0
M  CHG  1  93   1
M  ISO  4   1 100  68 101  88 101  94 100
M  END
> <chiral flag>
0

> <version>
0

> <s_m_source_file>
/data/baiqing/PycharmProjects/Reinvent-master-3.2/result/LINK_invent/BTK/process_docking_weight1_custom_sum_contain_oxygen_bond_distance_aromatic_linkinvent_7_9_3/rearranged_h_0066.sdf

> <i_m_source_file_index>
54

> <r_mmod_Potential_Energy-OPLS-2005>
275.699188232422

> <r_mmod_Stretch_Energy-OPLS-2005>
55.1664581298828

> <r_mmod_Bend_Energy-OPLS-2005>
202.686767578125

> <r_mmod_Torsional_Energy-OPLS-2005>
376.078247070312

> <r_mmod_Improper_Torsional_Energy-OPLS-2005>
12.5016174316406

> <r_mmod_Van_der_Waal_Energy-OPLS-2005>
171.095809936523

> <r_mmod_Electrostatic_Energy-OPLS-2005>
-197.550155639648

> <r_mmod_Solvation_Energy-OPLS-2005>
-358.161437988281

> <b_mmod_Minimization_Converged-OPLS-2005>
0

> <r_mmod_RMS_Derivative-OPLS-2005>
9.79082298278809

$$$$
58
                    3D
 Structure written by MMmdl.
196204  0  0  1  0            999 V2000
  -30.5803  -14.5878   20.2222 C   0  0  0  0  0  0
  -30.4271  -12.3144   19.3964 C   0  0  0  0  0  0
  -29.4639  -12.3992   18.1978 C   0  0  0  0  0  0
  -27.9922  -12.2853   18.6567 C   0  0  0  0  0  0
  -27.6356  -13.1719   19.8918 C   0  0  2  0  0  0
  -28.7144  -13.0456   20.9747 C   0  0  0  0  0  0
  -25.2530  -13.8027   20.6652 C   0  0  0  0  0  0
  -24.1655  -13.0366   20.9566 C   0  0  0  0  0  0
  -24.6101  -11.6837   20.8889 C   0  0  0  0  0  0
  -23.8754  -10.4270   21.0476 C   0  0  0  0  0  0
  -24.3450   -9.4077   21.9054 C   0  0  0  0  0  0
  -23.6173   -8.2120   22.0631 C   0  0  0  0  0  0
  -22.4138   -8.0058   21.3440 C   0  0  0  0  0  0
  -21.9671   -9.0081   20.4632 C   0  0  0  0  0  0
  -22.6879  -10.2048   20.3207 C   0  0  0  0  0  0
  -21.6750   -6.0540   22.5140 C   0  0  0  0  0  0
  -21.3887   -6.5542   23.8041 C   0  0  0  0  0  0
  -21.3646   -5.6814   24.9090 C   0  0  0  0  0  0
  -21.6166   -4.3042   24.7310 C   0  0  0  0  0  0
  -21.8833   -3.8091   23.4408 C   0  0  0  0  0  0
  -21.9138   -4.6787   22.3429 C   0  0  0  0  0  0
  -22.7693  -13.5283   21.1934 C   0  0  0  0  0  0
  -22.1708   -4.1958   21.1006 F   0  0  0  0  0  0
  -21.5765   -3.4643   25.7892 F   0  0  0  0  0  0
  -29.9985  -13.3656   20.3361 N   0  0  0  0  0  0
  -26.2782  -12.9184   20.3665 N   0  0  0  0  0  0
  -25.8952  -11.6357   20.5868 N   0  0  0  0  0  0
  -21.9923  -12.8496   22.0216 N   0  0  0  0  0  0
  -25.4362  -15.1780   20.6333 N   0  0  0  0  0  0
  -31.7974  -14.6898   20.0333 O   0  0  0  0  0  0
  -21.6659   -6.8565   21.4008 O   0  0  0  0  0  0
  -22.3801  -14.5871   20.6826 O   0  0  0  0  0  0
  -24.6131  -31.8733   23.2141 C   0  0  0  0  0  0
  -25.9048  -32.4826   23.8420 C   0  0  1  0  0  0
  -27.1972  -27.4231   20.0862 C   0  0  0  0  0  0
  -25.5932  -33.8639   24.2384 N   0  0  0  0  0  0
  -23.3994  -30.4995   21.5587 C   0  0  2  0  0  0
  -24.8338  -28.9754   20.0996 C   0  0  0  0  0  0
  -22.7429  -29.4699   22.5041 C   0  0  0  0  0  0
  -18.0274  -28.1362   22.8492 C   0  0  0  0  0  0
  -24.1486  -36.7316   23.2648 C   0  0  0  0  0  0
  -25.9367  -30.8303   21.3632 C   0  0  0  0  0  0
  -26.0038  -29.4710   20.6921 C   0  0  0  0  0  0
  -27.1960  -28.7101   20.6741 C   0  0  0  0  0  0
  -26.0202  -26.9543   19.4636 C   0  0  0  0  0  0
  -24.8485  -27.7250   19.4642 C   0  0  0  0  0  0
  -23.5959  -29.8403   20.1683 C   0  0  0  0  0  0
  -25.4097  -36.3122   24.0351 C   0  0  1  0  0  0
  -20.5870  -28.3656   23.1335 C   0  0  2  0  0  0
  -20.6762  -26.9398   22.5420 C   0  0  0  0  0  0
  -19.5735  -26.6376   21.5217 C   0  0  0  0  0  0
  -18.1917  -26.7911   22.1627 C   0  0  0  0  0  0
  -19.1518  -28.8826   23.2904 C   0  0  0  0  0  0
  -18.9453  -30.1438   23.8907 C   0  0  0  0  0  0
  -17.6447  -30.6570   24.0569 C   0  0  0  0  0  0
  -25.9024  -34.9478   23.5153 C   0  0  0  0  0  0
  -16.5346  -29.9075   23.6313 C   0  0  0  0  0  0
  -16.7263  -28.6487   23.0355 C   0  0  0  0  0  0
  -26.4447  -31.6591   25.0741 C   0  0  0  0  0  0
  -25.3724  -31.3672   26.1501 C   0  0  0  0  0  0
  -27.0278  -30.3055   24.6070 C   0  0  0  0  0  0
  -27.6062  -32.4305   25.7476 C   0  0  0  0  0  0
  -27.5577  -37.1804   24.8475 C   0  0  0  0  0  0
  -21.4167  -29.3030   22.3763 N   0  0  0  0  0  0
  -26.4296  -37.3798   23.9406 N   0  0  0  0  0  0
  -24.6707  -31.0806   22.1028 N   0  0  0  0  0  0
  -23.4239  -28.8215   23.3021 O   0  0  0  0  0  0
  -28.3084  -26.6126   20.1622 O   0  0  0  0  0  0
  -26.5612  -34.8928   22.4719 O   0  0  0  0  0  0
  -23.5332  -32.1566   23.7515 O   0  0  0  0  0  0
  -27.1537  -15.6057   17.7108 C   0  0  0  0  0  0
  -25.8518  -16.1476   17.6442 C   0  0  0  0  0  0
  -27.9967  -16.5701   18.2165 C   0  0  0  0  0  0
  -27.0552  -19.3268   15.2678 C   0  0  0  0  0  0
  -29.2222  -16.2931   22.3965 C   0  0  0  0  0  0
  -30.9889  -17.5809   21.0335 C   0  0  0  0  0  0
  -25.6918  -20.2784   19.4376 C   0  0  0  0  0  0
  -27.8115  -19.6406   20.4894 C   0  0  0  0  0  0
  -29.0269  -19.4078   17.5083 C   0  0  0  0  0  0
  -24.5418  -15.3628   17.5617 C   0  0  0  0  0  0
  -29.4654  -16.2804   18.6287 C   0  0  0  0  0  0
  -26.6934  -19.8046   16.6976 C   0  0  0  0  0  0
  -27.5548  -22.7823   20.0836 C   0  0  0  0  0  0
  -28.1469  -24.1618   19.6637 C   0  0  0  0  0  0
  -27.8044  -21.6959   18.9938 C   0  0  0  0  0  0
  -28.0478  -25.2993   20.7129 C   0  0  0  0  0  0
  -29.6986  -16.7353   21.0038 C   0  0  0  0  0  0
  -27.2237  -20.2162   19.1907 C   0  0  0  0  0  0
  -27.5464  -19.2592   17.9240 C   0  0  2  0  0  0
  -23.3878  -15.7907   16.6012 C   0  0  0  0  0  0
  -22.3029  -14.6786   16.5579 C   0  0  0  0  0  0
  -23.9126  -16.1055   15.1745 C   0  0  0  0  0  0
  -25.9159  -17.4323   17.9226 N   0  0  0  0  0  0
  -27.2333  -17.7721   18.0799 N   0  0  0  0  0  0
  -29.7292  -15.6550   19.9989 N   0  0  0  0  0  0
  -22.6671  -16.9036   17.1489 O   0  0  0  0  0  0
  -21.9174  -14.4082   17.8003 F   0  0  0  0  0  0
  -22.7483  -13.5520   16.0018 F   0  0  0  0  0  0
  -21.2140  -15.0650   15.8900 F   0  0  0  0  0  0
  -24.5809  -15.0623   14.6760 F   0  0  0  0  0  0
  -24.7249  -17.1628   15.1531 F   0  0  0  0  0  0
  -22.9055  -16.3670   14.3431 F   0  0  0  0  0  0
  -31.4538  -12.4615   19.0472 H   0  0  0  0  0  0
  -30.3997  -11.3231   19.8548 H   0  0  0  0  0  0
  -29.6965  -11.6171   17.4738 H   0  0  0  0  0  0
  -29.6304  -13.3237   17.6551 H   0  0  0  0  0  0
  -27.8310  -11.2399   18.9388 H   0  0  0  0  0  0
  -27.3069  -12.4646   17.8268 H   0  0  0  0  0  0
  -27.6813  -14.2115   19.6197 H   0  0  0  0  0  0
  -28.7622  -12.0350   21.3769 H   0  0  0  0  0  0
  -28.5094  -13.7048   21.8217 H   0  0  0  0  0  0
  -25.2781   -9.5253   22.4340 H   0  0  0  0  0  0
  -24.0005   -7.4506   22.7332 H   0  0  0  0  0  0
  -21.0648   -8.8772   19.8874 H   0  0  0  0  0  0
  -22.3119  -10.9705   19.6599 H   0  0  0  0  0  0
  -21.1822   -7.6057   23.9522 H   0  0  0  0  0  0
  -21.1459   -6.0578   25.8960 H   0  0  0  0  0  0
  -22.0665   -2.7579   23.3002 H   0  0  0  0  0  0
  -22.3037  -12.0224   22.5036 H   0  0  0  0  0  0
  -21.1036  -13.2538   22.2845 H   0  0  0  0  0  0
  -24.7262  -15.8027   20.9866 H   0  0  0  0  0  0
  -26.1135  -15.6693   20.0714 H   0  0  0  0  0  0
  -26.7158  -32.5495   23.1206 H   0  0  0  0  0  0
  -25.0026  -33.9843   25.0497 H   0  0  0  0  0  0
  -22.6853  -31.3167   21.4258 H   0  0  0  0  0  0
  -23.3754  -35.9657   23.3332 H   0  0  0  0  0  0
  -24.3593  -36.8906   22.2069 H   0  0  0  0  0  0
  -23.7227  -37.6519   23.6636 H   0  0  0  0  0  0
  -26.0570  -31.6069   20.6050 H   0  0  0  0  0  0
  -26.8291  -30.8833   21.9786 H   0  0  0  0  0  0
  -28.0965  -29.0875   21.1436 H   0  0  0  0  0  0
  -25.9945  -25.9858   18.9900 H   0  0  0  0  0  0
  -23.9579  -27.3439   18.9897 H   0  0  0  0  0  0
  -23.7037  -30.6251   19.4196 H   0  0  0  0  0  0
  -22.7192  -29.2630   19.8614 H   0  0  0  0  0  0
  -25.1262  -36.2036   25.0854 H   0  0  0  0  0  0
  -20.9977  -28.3204   24.1452 H   0  0  0  0  0  0
  -20.5660  -26.2272   23.3613 H   0  0  0  0  0  0
  -21.6631  -26.7433   22.1201 H   0  0  0  0  0  0
  -19.6911  -25.6290   21.1233 H   0  0  0  0  0  0
  -19.6655  -27.3205   20.6760 H   0  0  0  0  0  0
  -17.4191  -26.6688   21.4029 H   0  0  0  0  0  0
  -18.0309  -26.0045   22.9007 H   0  0  0  0  0  0
  -19.7924  -30.7265   24.2293 H   0  0  0  0  0  0
  -17.4993  -31.6250   24.5171 H   0  0  0  0  0  0
  -15.5345  -30.2989   23.7613 H   0  0  0  0  0  0
  -15.8669  -28.0811   22.7079 H   0  0  0  0  0  0
  -24.5909  -30.6998   25.7819 H   0  0  0  0  0  0
  -24.8875  -32.2817   26.4951 H   0  0  0  0  0  0
  -25.8104  -30.8834   27.0252 H   0  0  0  0  0  0
  -26.2817  -29.6828   24.1120 H   0  0  0  0  0  0
  -27.4099  -29.7238   25.4460 H   0  0  0  0  0  0
  -27.8619  -30.4410   23.9192 H   0  0  0  0  0  0
  -27.2724  -33.3634   26.2049 H   0  0  0  0  0  0
  -28.3848  -32.6846   25.0261 H   0  0  0  0  0  0
  -28.0770  -31.8431   26.5376 H   0  0  0  0  0  0
  -28.2607  -38.0083   24.7496 H   0  0  0  0  0  0
  -28.1055  -36.2610   24.6327 H   0  0  0  0  0  0
  -27.2304  -37.1504   25.8885 H   0  0  0  0  0  0
  -20.9371  -29.8746   21.6959 H   0  0  0  0  0  0
  -26.0198  -38.2892   24.1380 H   0  0  0  0  0  0
  -27.4003  -14.5820   17.5151 H   0  0  0  0  0  0
  -26.2235  -19.4401   14.5637 H   0  0  0  0  0  0
  -27.3698  -18.2733   15.2734 H   0  0  0  0  0  0
  -27.8596  -19.9502   14.8604 H   0  0  0  0  0  0
  -29.0743  -17.1670   23.0336 H   0  0  0  0  0  0
  -29.9376  -15.6451   22.8989 H   0  0  0  0  0  0
  -28.2531  -15.7929   22.3460 H   0  0  0  0  0  0
  -30.8683  -18.4122   21.7331 H   0  0  0  0  0  0
  -31.2135  -18.0317   20.0623 H   0  0  0  0  0  0
  -31.8781  -17.0243   21.3351 H   0  0  0  0  0  0
  -25.1405  -20.8395   18.6818 H   0  0  0  0  0  0
  -25.4513  -20.7106   20.4055 H   0  0  0  0  0  0
  -25.2570  -19.2820   19.4482 H   0  0  0  0  0  0
  -27.6002  -20.2761   21.3457 H   0  0  0  0  0  0
  -28.9000  -19.5573   20.4388 H   0  0  0  0  0  0
  -27.3606  -18.6694   20.7012 H   0  0  0  0  0  0
  -29.2141  -20.3625   17.0253 H   0  0  0  0  0  0
  -29.3232  -18.6568   16.7827 H   0  0  0  0  0  0
  -29.7075  -19.3394   18.3502 H   0  0  0  0  0  0
  -24.1214  -15.2624   18.5519 H   0  0  0  0  0  0
  -24.8016  -14.3328   17.2990 H   0  0  0  0  0  0
  -30.0699  -17.1659   18.4539 H   0  0  0  0  0  0
  -29.8544  -15.5937   17.8757 H   0  0  0  0  0  0
  -25.6349  -19.6047   16.8542 H   0  0  0  0  0  0
  -26.7572  -20.8890   16.6488 H   0  0  0  0  0  0
  -26.4799  -22.8896   20.2676 H   0  0  0  0  0  0
  -28.0099  -22.4469   21.0178 H   0  0  0  0  0  0
  -27.6439  -24.4809   18.7528 H   0  0  0  0  0  0
  -29.1940  -24.0387   19.3928 H   0  0  0  0  0  0
  -28.8873  -21.6448   18.8816 H   0  0  0  0  0  0
  -27.4751  -22.1370   18.0524 H   0  0  0  0  0  0
  -28.7664  -25.1201   21.5147 H   0  0  0  0  0  0
  -27.0739  -25.2561   21.1998 H   0  0  0  0  0  0
  -28.9215  -17.3873   20.6722 H   0  0  0  0  0  0
  -22.0806  -16.5279   17.8006 H   0  0  0  0  0  0
  1 25  1  0  0  0
  1 30  2  0  0  0
  1 95  1  0  0  0
  2  3  1  0  0  0
  2 25  1  0  0  0
  2103  1  0  0  0
  2104  1  0  0  0
  3  4  1  0  0  0
  3105  1  0  0  0
  3106  1  0  0  0
  4  5  1  0  0  0
  4107  1  0  0  0
  4108  1  0  0  0
  5  6  1  0  0  0
  5 26  1  0  0  0
  5109  1  0  0  0
  6 25  1  0  0  0
  6110  1  0  0  0
  6111  1  0  0  0
  7  8  2  0  0  0
  7 26  1  0  0  0
  7 29  1  0  0  0
  8  9  1  0  0  0
  8 22  1  0  0  0
  9 10  1  0  0  0
  9 27  2  0  0  0
 10 11  2  0  0  0
 10 15  1  0  0  0
 11 12  1  0  0  0
 11112  1  0  0  0
 12 13  2  0  0  0
 12113  1  0  0  0
 13 14  1  0  0  0
 13 31  1  0  0  0
 14 15  2  0  0  0
 14114  1  0  0  0
 15115  1  0  0  0
 16 17  2  0  0  0
 16 21  1  0  0  0
 16 31  1  0  0  0
 17 18  1  0  0  0
 17116  1  0  0  0
 18 19  2  0  0  0
 18117  1  0  0  0
 19 20  1  0  0  0
 19 24  1  0  0  0
 20 21  2  0  0  0
 20118  1  0  0  0
 21 23  1  0  0  0
 22 28  1  0  0  0
 22 32  2  0  0  0
 26 27  1  0  0  0
 28119  1  0  0  0
 28120  1  0  0  0
 29121  1  0  0  0
 29122  1  0  0  0
 33 34  1  0  0  0
 33 66  1  0  0  0
 33 70  2  0  0  0
 34 36  1  0  0  0
 34 59  1  0  0  0
 34123  1  0  0  0
 35 44  2  0  0  0
 35 45  1  0  0  0
 35 68  1  0  0  0
 36 56  1  0  0  0
 36124  1  0  0  0
 37 39  1  0  0  0
 37 47  1  0  0  0
 37 66  1  0  0  0
 37125  1  0  0  0
 38 43  2  0  0  0
 38 46  1  0  0  0
 38 47  1  0  0  0
 39 64  1  0  0  0
 39 67  2  0  0  0
 40 52  1  0  0  0
 40 53  2  0  0  0
 40 58  1  0  0  0
 41126  1  0  0  0
 41127  1  0  0  0
 41128  1  0  0  0
 41 48  1  0  0  0
 42 43  1  0  0  0
 42 66  1  0  0  0
 42129  1  0  0  0
 42130  1  0  0  0
 43 44  1  0  0  0
 44131  1  0  0  0
 45 46  2  0  0  0
 45132  1  0  0  0
 46133  1  0  0  0
 47134  1  0  0  0
 47135  1  0  0  0
 48 56  1  0  0  0
 48 65  1  0  0  0
 48136  1  0  0  0
 49 50  1  0  0  0
 49 53  1  0  0  0
 49 64  1  0  0  0
 49137  1  0  0  0
 50 51  1  0  0  0
 50138  1  0  0  0
 50139  1  0  0  0
 51 52  1  0  0  0
 51140  1  0  0  0
 51141  1  0  0  0
 52142  1  0  0  0
 52143  1  0  0  0
 53 54  1  0  0  0
 54 55  2  0  0  0
 54144  1  0  0  0
 55 57  1  0  0  0
 55145  1  0  0  0
 56 69  2  0  0  0
 57 58  2  0  0  0
 57146  1  0  0  0
 58147  1  0  0  0
 59 60  1  0  0  0
 59 61  1  0  0  0
 59 62  1  0  0  0
 60148  1  0  0  0
 60149  1  0  0  0
 60150  1  0  0  0
 61151  1  0  0  0
 61152  1  0  0  0
 61153  1  0  0  0
 62154  1  0  0  0
 62155  1  0  0  0
 62156  1  0  0  0
 63 65  1  0  0  0
 63157  1  0  0  0
 63158  1  0  0  0
 63159  1  0  0  0
 64160  1  0  0  0
 65161  1  0  0  0
 68 86  1  0  0  0
 71 72  1  0  0  0
 71 73  2  0  0  0
 71162  1  0  0  0
 72 80  1  0  0  0
 72 93  2  0  0  0
 73 81  1  0  0  0
 73 94  1  0  0  0
 74 82  1  0  0  0
 74163  1  0  0  0
 74164  1  0  0  0
 74165  1  0  0  0
 75166  1  0  0  0
 75167  1  0  0  0
 75168  1  0  0  0
 75 87  1  0  0  0
 76 87  1  0  0  0
 76169  1  0  0  0
 76170  1  0  0  0
 76171  1  0  0  0
 77172  1  0  0  0
 77173  1  0  0  0
 77174  1  0  0  0
 77 88  1  0  0  0
 78 88  1  0  0  0
 78175  1  0  0  0
 78176  1  0  0  0
 78177  1  0  0  0
 79178  1  0  0  0
 79179  1  0  0  0
 79180  1  0  0  0
 79 89  1  0  0  0
 80 90  1  0  0  0
 80181  1  0  0  0
 80182  1  0  0  0
 81 95  1  0  0  0
 81183  1  0  0  0
 81184  1  0  0  0
 82 89  1  0  0  0
 82185  1  0  0  0
 82186  1  0  0  0
 83 84  1  0  0  0
 83 85  1  0  0  0
 83187  1  0  0  0
 83188  1  0  0  0
 84 86  1  0  0  0
 84189  1  0  0  0
 84190  1  0  0  0
 85 88  1  0  0  0
 85191  1  0  0  0
 85192  1  0  0  0
 86193  1  0  0  0
 86194  1  0  0  0
 87 95  1  0  0  0
 87195  1  0  0  0
 88 89  1  0  0  0
 89 94  1  0  0  0
 90 91  1  0  0  0
 90 92  1  0  0  0
 90 96  1  0  0  0
 91 97  1  0  0  0
 91 98  1  0  0  0
 91 99  1  0  0  0
 92100  1  0  0  0
 92101  1  0  0  0
 92102  1  0  0  0
 93 94  1  0  0  0
 96196  1  0  0  0
M  ISO  4   1 100  68 101  86 101  95 100
M  END
> <chiral flag>
0

> <version>
0

> <s_m_source_file>
/data/baiqing/PycharmProjects/Reinvent-master-3.2/result/LINK_invent/BTK/process_docking_weight1_custom_sum_contain_oxygen_bond_distance_aromatic_linkinvent_7_9_3/rearranged_h_0066.sdf

> <i_m_source_file_index>
55

> <r_mmod_Potential_Energy-OPLS-2005>
512.312927246094

> <r_mmod_Stretch_Energy-OPLS-2005>
97.8426361083984

> <r_mmod_Bend_Energy-OPLS-2005>
202.305862426758

> <r_mmod_Torsional_Energy-OPLS-2005>
433.381134033203

> <r_mmod_Improper_Torsional_Energy-OPLS-2005>
15.4253168106079

> <r_mmod_Van_der_Waal_Energy-OPLS-2005>
149.716934204102

> <r_mmod_Electrostatic_Energy-OPLS-2005>
-279.040100097656

> <r_mmod_Solvation_Energy-OPLS-2005>
-167.045440673828

> <b_mmod_Minimization_Converged-OPLS-2005>
0

> <r_mmod_RMS_Derivative-OPLS-2005>
17.2148323059082

$$$$
59
                    3D
 Structure written by MMmdl.
167175  0  0  1  0            999 V2000
  -30.6669  -14.8549   20.5243 C   0  0  0  0  0  0
  -30.3867  -12.5233   19.5555 C   0  0  0  0  0  0
  -29.4964  -12.5566   18.2960 C   0  0  0  0  0  0
  -28.0285  -12.3455   18.6940 C   0  0  0  0  0  0
  -27.6193  -13.2423   19.8896 C   0  0  2  0  0  0
  -28.6654  -13.2678   21.0352 C   0  0  0  0  0  0
  -25.2275  -13.8095   20.5721 C   0  0  0  0  0  0
  -24.1639  -13.0290   20.9268 C   0  0  0  0  0  0
  -24.6341  -11.6825   20.8849 C   0  0  0  0  0  0
  -23.9036  -10.4205   21.0493 C   0  0  0  0  0  0
  -24.3601   -9.4136   21.9276 C   0  0  0  0  0  0
  -23.6282   -8.2160   22.0803 C   0  0  0  0  0  0
  -22.4282   -8.0201   21.3546 C   0  0  0  0  0  0
  -21.9921   -9.0198   20.4670 C   0  0  0  0  0  0
  -22.7232  -10.2075   20.3104 C   0  0  0  0  0  0
  -21.6849   -6.0713   22.5272 C   0  0  0  0  0  0
  -21.4032   -6.5643   23.8193 C   0  0  0  0  0  0
  -21.3673   -5.6796   24.9162 C   0  0  0  0  0  0
  -21.6061   -4.3059   24.7216 C   0  0  0  0  0  0
  -21.8827   -3.8134   23.4345 C   0  0  0  0  0  0
  -21.9211   -4.6953   22.3389 C   0  0  0  0  0  0
  -22.7699  -13.5093   21.1939 C   0  0  0  0  0  0
  -22.1679   -4.2120   21.0980 F   0  0  0  0  0  0
  -21.5629   -3.4553   25.7745 F   0  0  0  0  0  0
  -29.9642  -13.6437   20.4625 N   0  0  0  0  0  0
  -26.2802  -12.9373   20.3579 N   0  0  0  0  0  0
  -25.9293  -11.6497   20.6014 N   0  0  0  0  0  0
  -22.0402  -12.8020   22.0505 N   0  0  0  0  0  0
  -25.3559  -15.1790   20.3941 N   0  0  0  0  0  0
  -31.7727  -14.7672   19.9841 O   0  0  0  0  0  0
  -21.6628   -6.8824   21.4220 O   0  0  0  0  0  0
  -22.3358  -14.5410   20.6864 O   0  0  0  0  0  0
  -24.6358  -31.8514   23.1946 C   0  0  0  0  0  0
  -25.9168  -32.4737   23.8302 C   0  0  1  0  0  0
  -27.2139  -27.2097   20.1788 C   0  0  0  0  0  0
  -25.5925  -33.8530   24.2218 N   0  0  0  0  0  0
  -23.4353  -30.4748   21.5356 C   0  0  2  0  0  0
  -24.8839  -28.9093   20.1123 C   0  0  0  0  0  0
  -22.7509  -29.4641   22.4908 C   0  0  0  0  0  0
  -18.0310  -28.1410   22.8469 C   0  0  0  0  0  0
  -24.1498  -36.7267   23.2656 C   0  0  0  0  0  0
  -25.9848  -30.7523   21.3815 C   0  0  0  0  0  0
  -26.0566  -29.3690   20.7275 C   0  0  0  0  0  0
  -27.2257  -28.5337   20.7463 C   0  0  0  0  0  0
  -26.0300  -26.8375   19.5037 C   0  0  0  0  0  0
  -24.8799  -27.6527   19.4844 C   0  0  0  0  0  0
  -23.6548  -29.8014   20.1573 C   0  0  0  0  0  0
  -25.4119  -36.3060   24.0344 C   0  0  1  0  0  0
  -20.5915  -28.3725   23.1257 C   0  0  2  0  0  0
  -20.6841  -26.9446   22.5419 C   0  0  0  0  0  0
  -19.5796  -26.6394   21.5261 C   0  0  0  0  0  0
  -18.1952  -26.7947   22.1641 C   0  0  0  0  0  0
  -19.1547  -28.8892   23.2844 C   0  0  0  0  0  0
  -18.9482  -30.1479   23.8892 C   0  0  0  0  0  0
  -17.6472  -30.6601   24.0569 C   0  0  0  0  0  0
  -25.9060  -34.9442   23.5104 C   0  0  0  0  0  0
  -16.5373  -29.9095   23.6373 C   0  0  0  0  0  0
  -16.7293  -28.6520   23.0371 C   0  0  0  0  0  0
  -26.4487  -31.6561   25.0705 C   0  0  0  0  0  0
  -25.3676  -31.3688   26.1413 C   0  0  0  0  0  0
  -27.0387  -30.2973   24.6235 C   0  0  0  0  0  0
  -27.6038  -32.4346   25.7450 C   0  0  0  0  0  0
  -27.5593  -37.1762   24.8466 C   0  0  0  0  0  0
  -21.4229  -29.3039   22.3610 N   0  0  0  0  0  0
  -26.4304  -37.3752   23.9421 N   0  0  0  0  0  0
  -24.7023  -31.0465   22.0919 N   0  0  0  0  0  0
  -23.4179  -28.8225   23.3060 O   0  0  0  0  0  0
  -28.2817  -26.2710   20.2575 O   0  0  0  0  0  0
  -26.5673  -34.8953   22.4693 O   0  0  0  0  0  0
  -23.5506  -32.1405   23.7203 O   0  0  0  0  0  0
  -29.1586  -19.8946   19.4984 C   0  0  0  0  0  0
  -29.1495  -19.1048   20.7022 C   0  0  0  0  0  0
  -29.0741  -20.0196   21.8162 C   0  0  0  0  0  0
  -28.9402  -22.0219   20.5068 C   0  0  0  0  0  0
  -29.2039  -19.5929   23.2702 C   0  0  0  0  0  0
  -27.7905  -24.9009   22.1983 C   0  0  0  0  0  0
  -27.7593  -17.0315   21.3973 C   0  0  0  0  0  0
  -28.8094  -17.0279   19.2277 C   0  0  0  0  0  0
  -30.2893  -16.1573   22.7559 C   0  0  0  0  0  0
  -29.1220  -23.6367   20.3816 C   0  0  0  0  0  0
  -28.0174  -24.8182   20.6741 C   0  0  2  0  0  0
  -29.0917  -17.4292   20.6948 C   0  0  0  0  0  0
  -30.3422  -16.3791   21.2022 C   0  0  1  0  0  0
  -31.6779  -17.2124   21.0033 C   0  0  0  0  0  0
  -29.0520  -21.2641   19.4087 N   0  0  0  0  0  0
  -28.9764  -21.3968   21.6975 N   0  0  0  0  0  0
  -31.9281  -17.4345   19.7109 F   0  0  0  0  0  0
  -32.7552  -16.6136   21.5298 F   0  0  0  0  0  0
  -31.6339  -18.4097   21.5892 F   0  0  0  0  0  0
  -31.4355  -12.5681   19.2638 H   0  0  0  0  0  0
  -30.2805  -11.5663   20.0706 H   0  0  0  0  0  0
  -29.8094  -11.8004   17.5765 H   0  0  0  0  0  0
  -29.6063  -13.5171   17.7955 H   0  0  0  0  0  0
  -27.9009  -11.2955   18.9566 H   0  0  0  0  0  0
  -27.3770  -12.5291   17.8384 H   0  0  0  0  0  0
  -27.5538  -14.2391   19.4796 H   0  0  0  0  0  0
  -28.7198  -12.2998   21.5372 H   0  0  0  0  0  0
  -28.3805  -13.9688   21.8159 H   0  0  0  0  0  0
  -25.2745   -9.5608   22.4863 H   0  0  0  0  0  0
  -23.9998   -7.4561   22.7543 H   0  0  0  0  0  0
  -21.0859   -8.8746   19.8955 H   0  0  0  0  0  0
  -22.3754  -10.9650   19.6201 H   0  0  0  0  0  0
  -21.2011   -7.6151   23.9674 H   0  0  0  0  0  0
  -21.1509   -6.0547   25.9067 H   0  0  0  0  0  0
  -22.0596   -2.7594   23.2864 H   0  0  0  0  0  0
  -22.4105  -11.9621   22.4679 H   0  0  0  0  0  0
  -21.1107  -13.1115   22.2955 H   0  0  0  0  0  0
  -24.5662  -15.8025   20.5150 H   0  0  0  0  0  0
  -26.1900  -15.6644   20.0916 H   0  0  0  0  0  0
  -26.7231  -32.5394   23.1040 H   0  0  0  0  0  0
  -24.9958  -33.9598   25.0282 H   0  0  0  0  0  0
  -22.7395  -31.3004   21.3880 H   0  0  0  0  0  0
  -23.3787  -35.9570   23.3274 H   0  0  0  0  0  0
  -24.3593  -36.8930   22.2088 H   0  0  0  0  0  0
  -23.7243  -37.6442   23.6707 H   0  0  0  0  0  0
  -26.1436  -31.5074   20.6106 H   0  0  0  0  0  0
  -26.8589  -30.7936   22.0208 H   0  0  0  0  0  0
  -28.1226  -28.8788   21.2465 H   0  0  0  0  0  0
  -25.9673  -25.8831   19.0047 H   0  0  0  0  0  0
  -23.9837  -27.2906   18.9963 H   0  0  0  0  0  0
  -23.7760  -30.5743   19.3975 H   0  0  0  0  0  0
  -22.7704  -29.2314   19.8637 H   0  0  0  0  0  0
  -25.1286  -36.1908   25.0830 H   0  0  0  0  0  0
  -21.0004  -28.3408   24.1374 H   0  0  0  0  0  0
  -20.5868  -26.2343   23.3625 H   0  0  0  0  0  0
  -21.6689  -26.7552   22.1127 H   0  0  0  0  0  0
  -19.6964  -25.6310   21.1287 H   0  0  0  0  0  0
  -19.6762  -27.3231   20.6816 H   0  0  0  0  0  0
  -17.4243  -26.6715   21.4009 H   0  0  0  0  0  0
  -18.0281  -26.0108   22.9050 H   0  0  0  0  0  0
  -19.7963  -30.7251   24.2289 H   0  0  0  0  0  0
  -17.5062  -31.6311   24.5120 H   0  0  0  0  0  0
  -15.5359  -30.2983   23.7742 H   0  0  0  0  0  0
  -15.8699  -28.0849   22.7100 H   0  0  0  0  0  0
  -24.5842  -30.7069   25.7672 H   0  0  0  0  0  0
  -24.8868  -32.2844   26.4868 H   0  0  0  0  0  0
  -25.7972  -30.8807   27.0172 H   0  0  0  0  0  0
  -26.2982  -29.6607   24.1372 H   0  0  0  0  0  0
  -27.4166  -29.7360   25.4782 H   0  0  0  0  0  0
  -27.8816  -30.4218   23.9450 H   0  0  0  0  0  0
  -27.2626  -33.3666   26.1973 H   0  0  0  0  0  0
  -28.3826  -32.6864   25.0233 H   0  0  0  0  0  0
  -28.0721  -31.8510   26.5381 H   0  0  0  0  0  0
  -28.2565  -38.0100   24.7577 H   0  0  0  0  0  0
  -28.1145  -36.2646   24.6216 H   0  0  0  0  0  0
  -27.2329  -37.1316   25.8868 H   0  0  0  0  0  0
  -20.9468  -29.8604   21.6650 H   0  0  0  0  0  0
  -26.0197  -38.2824   24.1409 H   0  0  0  0  0  0
  -29.2497  -19.4337   18.5240 H   0  0  0  0  0  0
  -29.0865  -20.4506   23.9366 H   0  0  0  0  0  0
  -30.1978  -19.1887   23.4509 H   0  0  0  0  0  0
  -28.4703  -18.8646   23.5983 H   0  0  0  0  0  0
  -27.6161  -23.9160   22.6349 H   0  0  0  0  0  0
  -26.9251  -25.5157   22.4398 H   0  0  0  0  0  0
  -28.6577  -25.3314   22.7081 H   0  0  0  0  0  0
  -26.8992  -17.4753   20.8990 H   0  0  0  0  0  0
  -27.6670  -17.3435   22.4318 H   0  0  0  0  0  0
  -27.5956  -15.9561   21.4014 H   0  0  0  0  0  0
  -27.9494  -17.5489   18.8013 H   0  0  0  0  0  0
  -28.5569  -15.9802   19.1517 H   0  0  0  0  0  0
  -29.6688  -17.1943   18.5786 H   0  0  0  0  0  0
  -29.3573  -16.4070   23.2553 H   0  0  0  0  0  0
  -31.0293  -16.7702   23.2729 H   0  0  0  0  0  0
  -30.5197  -15.1270   23.0315 H   0  0  0  0  0  0
  -29.4966  -23.8275   19.3750 H   0  0  0  0  0  0
  -29.9690  -23.8617   21.0268 H   0  0  0  0  0  0
  -27.0928  -24.4776   20.2060 H   0  0  0  0  0  0
  1 25  1  0  0  0
  1 30  2  0  0  0
  1 83  1  0  0  0
  2  3  1  0  0  0
  2 25  1  0  0  0
  2 90  1  0  0  0
  2 91  1  0  0  0
  3  4  1  0  0  0
  3 92  1  0  0  0
  3 93  1  0  0  0
  4  5  1  0  0  0
  4 94  1  0  0  0
  4 95  1  0  0  0
  5  6  1  0  0  0
  5 26  1  0  0  0
  5 96  1  0  0  0
  6 25  1  0  0  0
  6 97  1  0  0  0
  6 98  1  0  0  0
  7  8  2  0  0  0
  7 26  1  0  0  0
  7 29  1  0  0  0
  8  9  1  0  0  0
  8 22  1  0  0  0
  9 10  1  0  0  0
  9 27  2  0  0  0
 10 11  2  0  0  0
 10 15  1  0  0  0
 11 12  1  0  0  0
 11 99  1  0  0  0
 12 13  2  0  0  0
 12100  1  0  0  0
 13 14  1  0  0  0
 13 31  1  0  0  0
 14 15  2  0  0  0
 14101  1  0  0  0
 15102  1  0  0  0
 16 17  2  0  0  0
 16 21  1  0  0  0
 16 31  1  0  0  0
 17 18  1  0  0  0
 17103  1  0  0  0
 18 19  2  0  0  0
 18104  1  0  0  0
 19 20  1  0  0  0
 19 24  1  0  0  0
 20 21  2  0  0  0
 20105  1  0  0  0
 21 23  1  0  0  0
 22 28  1  0  0  0
 22 32  2  0  0  0
 26 27  1  0  0  0
 28106  1  0  0  0
 28107  1  0  0  0
 29108  1  0  0  0
 29109  1  0  0  0
 33 34  1  0  0  0
 33 66  1  0  0  0
 33 70  2  0  0  0
 34 36  1  0  0  0
 34 59  1  0  0  0
 34110  1  0  0  0
 35 44  2  0  0  0
 35 45  1  0  0  0
 35 68  1  0  0  0
 36 56  1  0  0  0
 36111  1  0  0  0
 37 39  1  0  0  0
 37 47  1  0  0  0
 37 66  1  0  0  0
 37112  1  0  0  0
 38 43  2  0  0  0
 38 46  1  0  0  0
 38 47  1  0  0  0
 39 64  1  0  0  0
 39 67  2  0  0  0
 40 52  1  0  0  0
 40 53  2  0  0  0
 40 58  1  0  0  0
 41113  1  0  0  0
 41114  1  0  0  0
 41115  1  0  0  0
 41 48  1  0  0  0
 42 43  1  0  0  0
 42 66  1  0  0  0
 42116  1  0  0  0
 42117  1  0  0  0
 43 44  1  0  0  0
 44118  1  0  0  0
 45 46  2  0  0  0
 45119  1  0  0  0
 46120  1  0  0  0
 47121  1  0  0  0
 47122  1  0  0  0
 48 56  1  0  0  0
 48 65  1  0  0  0
 48123  1  0  0  0
 49 50  1  0  0  0
 49 53  1  0  0  0
 49 64  1  0  0  0
 49124  1  0  0  0
 50 51  1  0  0  0
 50125  1  0  0  0
 50126  1  0  0  0
 51 52  1  0  0  0
 51127  1  0  0  0
 51128  1  0  0  0
 52129  1  0  0  0
 52130  1  0  0  0
 53 54  1  0  0  0
 54 55  2  0  0  0
 54131  1  0  0  0
 55 57  1  0  0  0
 55132  1  0  0  0
 56 69  2  0  0  0
 57 58  2  0  0  0
 57133  1  0  0  0
 58134  1  0  0  0
 59 60  1  0  0  0
 59 61  1  0  0  0
 59 62  1  0  0  0
 60135  1  0  0  0
 60136  1  0  0  0
 60137  1  0  0  0
 61138  1  0  0  0
 61139  1  0  0  0
 61140  1  0  0  0
 62141  1  0  0  0
 62142  1  0  0  0
 62143  1  0  0  0
 63 65  1  0  0  0
 63144  1  0  0  0
 63145  1  0  0  0
 63146  1  0  0  0
 64147  1  0  0  0
 65148  1  0  0  0
 68 81  1  0  0  0
 71 72  2  0  0  0
 71 85  1  0  0  0
 71149  1  0  0  0
 72 73  1  0  0  0
 72 82  1  0  0  0
 73 75  1  0  0  0
 73 86  2  0  0  0
 74 80  1  0  0  0
 74 85  2  0  0  0
 74 86  1  0  0  0
 75150  1  0  0  0
 75151  1  0  0  0
 75152  1  0  0  0
 76153  1  0  0  0
 76154  1  0  0  0
 76155  1  0  0  0
 76 81  1  0  0  0
 77156  1  0  0  0
 77157  1  0  0  0
 77158  1  0  0  0
 77 82  1  0  0  0
 78 82  1  0  0  0
 78159  1  0  0  0
 78160  1  0  0  0
 78161  1  0  0  0
 79162  1  0  0  0
 79163  1  0  0  0
 79164  1  0  0  0
 79 83  1  0  0  0
 80 81  1  0  0  0
 80165  1  0  0  0
 80166  1  0  0  0
 81167  1  0  0  0
 82 83  1  0  0  0
 83 84  1  0  0  0
 84 87  1  0  0  0
 84 88  1  0  0  0
 84 89  1  0  0  0
M  ISO  4   1 100  68 101  81 101  83 100
M  END
> <chiral flag>
0

> <version>
0

> <s_m_source_file>
/data/baiqing/PycharmProjects/Reinvent-master-3.2/result/LINK_invent/BTK/process_docking_weight1_custom_sum_contain_oxygen_bond_distance_aromatic_linkinvent_7_9_3/rearranged_h_0066.sdf

> <i_m_source_file_index>
56

> <r_mmod_Potential_Energy-OPLS-2005>
391.111541748047

> <r_mmod_Stretch_Energy-OPLS-2005>
246.95002746582

> <r_mmod_Bend_Energy-OPLS-2005>
312.519744873047

> <r_mmod_Torsional_Energy-OPLS-2005>
184.390899658203

> <r_mmod_Improper_Torsional_Energy-OPLS-2005>
4.33639049530029

> <r_mmod_Van_der_Waal_Energy-OPLS-2005>
181.770050048828

> <r_mmod_Electrostatic_Energy-OPLS-2005>
-465.160034179688

> <r_mmod_Solvation_Energy-OPLS-2005>
-204.937942504883

> <b_mmod_Minimization_Converged-OPLS-2005>
0

> <r_mmod_RMS_Derivative-OPLS-2005>
7.8564920425415

$$$$
60
                    3D
 Structure written by MMmdl.
173181  0  0  1  0            999 V2000
  -30.4918  -15.0652   20.4098 C   0  0  0  0  0  0
  -30.4463  -12.6718   19.4972 C   0  0  0  0  0  0
  -29.5260  -12.5412   18.2600 C   0  0  0  0  0  0
  -28.0629  -12.3055   18.6846 C   0  0  0  0  0  0
  -27.6213  -13.2551   19.8284 C   0  0  2  0  0  0
  -28.6650  -13.3340   20.9609 C   0  0  0  0  0  0
  -25.2427  -13.8213   20.5725 C   0  0  0  0  0  0
  -24.1759  -13.0420   20.9251 C   0  0  0  0  0  0
  -24.6391  -11.6915   20.8764 C   0  0  0  0  0  0
  -23.9083  -10.4278   21.0416 C   0  0  0  0  0  0
  -24.3636   -9.4198   21.9200 C   0  0  0  0  0  0
  -23.6305   -8.2236   22.0760 C   0  0  0  0  0  0
  -22.4288   -8.0274   21.3554 C   0  0  0  0  0  0
  -21.9929   -9.0247   20.4650 C   0  0  0  0  0  0
  -22.7257  -10.2123   20.3065 C   0  0  0  0  0  0
  -21.6850   -6.0740   22.5291 C   0  0  0  0  0  0
  -21.4016   -6.5651   23.8221 C   0  0  0  0  0  0
  -21.3658   -5.6800   24.9186 C   0  0  0  0  0  0
  -21.6043   -4.3059   24.7239 C   0  0  0  0  0  0
  -21.8816   -3.8157   23.4357 C   0  0  0  0  0  0
  -21.9189   -4.6971   22.3408 C   0  0  0  0  0  0
  -22.7778  -13.5179   21.1901 C   0  0  0  0  0  0
  -22.1654   -4.2152   21.0986 F   0  0  0  0  0  0
  -21.5635   -3.4549   25.7753 F   0  0  0  0  0  0
  -29.9202  -13.7859   20.3441 N   0  0  0  0  0  0
  -26.2853  -12.9457   20.3226 N   0  0  0  0  0  0
  -25.9325  -11.6580   20.5739 N   0  0  0  0  0  0
  -22.0432  -12.8157   22.0452 N   0  0  0  0  0  0
  -25.4034  -15.1945   20.4126 N   0  0  0  0  0  0
  -31.7151  -15.1172   20.2374 O   0  0  0  0  0  0
  -21.6644   -6.8879   21.4249 O   0  0  0  0  0  0
  -22.3452  -14.5477   20.6731 O   0  0  0  0  0  0
  -24.6514  -31.8364   23.1811 C   0  0  0  0  0  0
  -25.9249  -32.4659   23.8235 C   0  0  1  0  0  0
  -27.2261  -27.0658   20.1813 C   0  0  0  0  0  0
  -25.5975  -33.8467   24.2156 N   0  0  0  0  0  0
  -23.4605  -30.4511   21.5279 C   0  0  2  0  0  0
  -24.9146  -28.8584   20.1209 C   0  0  0  0  0  0
  -22.7608  -29.4505   22.4832 C   0  0  0  0  0  0
  -18.0315  -28.1399   22.8478 C   0  0  0  0  0  0
  -24.1492  -36.7230   23.2642 C   0  0  0  0  0  0
  -26.0212  -30.6894   21.3897 C   0  0  0  0  0  0
  -26.0949  -29.2900   20.7406 C   0  0  0  0  0  0
  -27.2548  -28.4146   20.7441 C   0  0  0  0  0  0
  -26.0171  -26.7446   19.5309 C   0  0  0  0  0  0
  -24.8923  -27.6013   19.4973 C   0  0  0  0  0  0
  -23.6941  -29.7699   20.1526 C   0  0  0  0  0  0
  -25.4127  -36.3006   24.0312 C   0  0  1  0  0  0
  -20.5933  -28.3729   23.1218 C   0  0  2  0  0  0
  -20.6791  -26.9422   22.5399 C   0  0  0  0  0  0
  -19.5764  -26.6381   21.5208 C   0  0  0  0  0  0
  -18.1948  -26.7943   22.1615 C   0  0  0  0  0  0
  -19.1574  -28.8885   23.2840 C   0  0  0  0  0  0
  -18.9482  -30.1482   23.8867 C   0  0  0  0  0  0
  -17.6474  -30.6592   24.0560 C   0  0  0  0  0  0
  -25.9083  -34.9386   23.5043 C   0  0  0  0  0  0
  -16.5367  -29.9076   23.6346 C   0  0  0  0  0  0
  -16.7296  -28.6497   23.0366 C   0  0  0  0  0  0
  -26.4552  -31.6552   25.0703 C   0  0  0  0  0  0
  -25.3718  -31.3760   26.1384 C   0  0  0  0  0  0
  -27.0432  -30.2944   24.6331 C   0  0  0  0  0  0
  -27.6071  -32.4337   25.7492 C   0  0  0  0  0  0
  -27.5583  -37.1763   24.8460 C   0  0  0  0  0  0
  -21.4293  -29.3043   22.3581 N   0  0  0  0  0  0
  -26.4278  -37.3733   23.9423 N   0  0  0  0  0  0
  -24.7313  -31.0157   22.0878 N   0  0  0  0  0  0
  -23.4214  -28.8061   23.3023 O   0  0  0  0  0  0
  -28.2653  -26.0461   20.1517 O   0  0  0  0  0  0
  -26.5665  -34.8899   22.4622 O   0  0  0  0  0  0
  -23.5610  -32.1265   23.6982 O   0  0  0  0  0  0
  -28.4945  -23.1228   20.2467 C   0  0  0  0  0  0
  -28.9368  -20.8398   19.9191 C   0  0  0  0  0  0
  -28.2234  -18.5729   18.9471 C   0  0  0  0  0  0
  -30.5935  -20.3259   17.5192 C   0  0  0  0  0  0
  -30.9067  -17.9102   17.8487 C   0  0  0  0  0  0
  -32.0271  -19.5547   19.3402 C   0  0  0  0  0  0
  -28.7982  -22.2760   23.2666 C   0  0  0  0  0  0
  -30.9836  -22.9392   22.1477 C   0  0  0  0  0  0
  -30.3874  -20.5652   22.5202 C   0  0  0  0  0  0
  -28.1246  -24.6464   20.8715 C   0  0  0  0  0  0
  -29.7833  -17.8614   20.7367 C   0  0  0  0  0  0
  -29.4615  -19.1969   19.6589 C   0  0  2  0  0  0
  -30.6968  -19.2382   18.6218 C   0  0  0  0  0  0
  -29.8069  -21.9395   22.1446 C   0  0  0  0  0  0
  -27.9573  -22.7427   19.0887 N   0  0  0  0  0  0
  -28.1911  -21.3754   18.9177 N   0  0  0  0  0  0
  -29.1314  -21.9503   20.8224 N   0  0  0  0  0  0
  -29.6741  -16.2554   20.4659 N   0  0  0  0  0  0
  -31.4712  -12.8602   19.1756 H   0  0  0  0  0  0
  -30.4778  -11.7373   20.0595 H   0  0  0  0  0  0
  -29.8648  -11.7254   17.6186 H   0  0  0  0  0  0
  -29.5917  -13.4507   17.6612 H   0  0  0  0  0  0
  -27.9809  -11.2691   19.0168 H   0  0  0  0  0  0
  -27.3951  -12.4019   17.8279 H   0  0  0  0  0  0
  -27.5639  -14.2447   19.3753 H   0  0  0  0  0  0
  -28.7865  -12.3706   21.4579 H   0  0  0  0  0  0
  -28.3456  -14.0419   21.7273 H   0  0  0  0  0  0
  -25.2784   -9.5674   22.4778 H   0  0  0  0  0  0
  -24.0018   -7.4626   22.7475 H   0  0  0  0  0  0
  -21.0867   -8.8750   19.8953 H   0  0  0  0  0  0
  -22.3711  -10.9660   19.6171 H   0  0  0  0  0  0
  -21.2007   -7.6158   23.9728 H   0  0  0  0  0  0
  -21.1485   -6.0535   25.9078 H   0  0  0  0  0  0
  -22.0593   -2.7625   23.2858 H   0  0  0  0  0  0
  -22.4052  -11.9835   22.4863 H   0  0  0  0  0  0
  -21.1041  -13.1168   22.2645 H   0  0  0  0  0  0
  -24.6261  -15.8356   20.5299 H   0  0  0  0  0  0
  -26.2300  -15.6423   20.0420 H   0  0  0  0  0  0
  -26.7324  -32.5252   23.0965 H   0  0  0  0  0  0
  -25.0145  -33.9570   25.0321 H   0  0  0  0  0  0
  -22.7671  -31.2785   21.3635 H   0  0  0  0  0  0
  -23.3774  -35.9537   23.3249 H   0  0  0  0  0  0
  -24.3587  -36.8914   22.2069 H   0  0  0  0  0  0
  -23.7213  -37.6396   23.6716 H   0  0  0  0  0  0
  -26.1810  -31.4347   20.6095 H   0  0  0  0  0  0
  -26.8901  -30.7486   22.0338 H   0  0  0  0  0  0
  -28.1616  -28.7507   21.2269 H   0  0  0  0  0  0
  -25.9302  -25.7785   19.0538 H   0  0  0  0  0  0
  -23.9935  -27.2651   18.9983 H   0  0  0  0  0  0
  -23.8377  -30.5392   19.3926 H   0  0  0  0  0  0
  -22.8086  -29.2127   19.8412 H   0  0  0  0  0  0
  -25.1311  -36.1820   25.0801 H   0  0  0  0  0  0
  -21.0031  -28.3317   24.1336 H   0  0  0  0  0  0
  -20.5677  -26.2333   23.3623 H   0  0  0  0  0  0
  -21.6652  -26.7404   22.1199 H   0  0  0  0  0  0
  -19.6914  -25.6282   21.1259 H   0  0  0  0  0  0
  -19.6714  -27.3174   20.6732 H   0  0  0  0  0  0
  -17.4218  -26.6706   21.4016 H   0  0  0  0  0  0
  -18.0331  -26.0082   22.9009 H   0  0  0  0  0  0
  -19.7953  -30.7318   24.2211 H   0  0  0  0  0  0
  -17.5018  -31.6272   24.5157 H   0  0  0  0  0  0
  -15.5363  -30.2962   23.7690 H   0  0  0  0  0  0
  -15.8699  -28.0803   22.7099 H   0  0  0  0  0  0
  -24.5927  -30.7072   25.7702 H   0  0  0  0  0  0
  -24.8874  -32.2943   26.4720 H   0  0  0  0  0  0
  -25.7991  -30.9003   27.0220 H   0  0  0  0  0  0
  -26.3069  -29.6650   24.1321 H   0  0  0  0  0  0
  -27.4006  -29.7268   25.4932 H   0  0  0  0  0  0
  -27.8988  -30.4164   23.9685 H   0  0  0  0  0  0
  -27.2670  -33.3681   26.1975 H   0  0  0  0  0  0
  -28.3939  -32.6830   25.0354 H   0  0  0  0  0  0
  -28.0685  -31.8523   26.5488 H   0  0  0  0  0  0
  -28.2549  -38.0111   24.7564 H   0  0  0  0  0  0
  -28.1131  -36.2641   24.6210 H   0  0  0  0  0  0
  -27.2312  -37.1311   25.8863 H   0  0  0  0  0  0
  -20.9515  -29.8744   21.6740 H   0  0  0  0  0  0
  -26.0133  -38.2783   24.1471 H   0  0  0  0  0  0
  -27.3421  -18.6471   19.5844 H   0  0  0  0  0  0
  -28.3396  -17.5214   18.6988 H   0  0  0  0  0  0
  -27.9817  -19.0568   18.0009 H   0  0  0  0  0  0
  -31.4142  -20.2503   16.8047 H   0  0  0  0  0  0
  -30.6547  -21.3374   17.9228 H   0  0  0  0  0  0
  -29.6742  -20.2446   16.9397 H   0  0  0  0  0  0
  -31.7434  -17.9836   17.1531 H   0  0  0  0  0  0
  -30.0417  -17.6272   17.2498 H   0  0  0  0  0  0
  -31.1513  -17.0810   18.5047 H   0  0  0  0  0  0
  -32.8524  -19.6114   18.6302 H   0  0  0  0  0  0
  -32.3139  -18.8000   20.0699 H   0  0  0  0  0  0
  -31.9923  -20.5231   19.8371 H   0  0  0  0  0  0
  -29.2404  -22.1336   24.2539 H   0  0  0  0  0  0
  -27.9212  -21.6289   23.2175 H   0  0  0  0  0  0
  -28.4414  -23.3009   23.2513 H   0  0  0  0  0  0
  -31.5119  -22.9250   23.1019 H   0  0  0  0  0  0
  -30.6767  -23.9681   21.9812 H   0  0  0  0  0  0
  -31.7102  -22.6937   21.3732 H   0  0  0  0  0  0
  -30.9146  -20.6068   23.4755 H   0  0  0  0  0  0
  -31.1167  -20.2126   21.8001 H   0  0  0  0  0  0
  -29.6053  -19.8181   22.6380 H   0  0  0  0  0  0
  -28.6866  -24.7872   21.7879 H   0  0  0  0  0  0
  -27.0875  -24.5780   21.1989 H   0  0  0  0  0  0
  -29.0400  -17.9815   21.5244 H   0  0  0  0  0  0
  -30.7236  -18.0152   21.2571 H   0  0  0  0  0  0
  -28.7051  -15.9786   20.4452 H   0  0  0  0  0  0
  1 25  1  0  0  0
  1 30  2  0  0  0
  1 88  1  0  0  0
  2  3  1  0  0  0
  2 25  1  0  0  0
  2 89  1  0  0  0
  2 90  1  0  0  0
  3  4  1  0  0  0
  3 91  1  0  0  0
  3 92  1  0  0  0
  4  5  1  0  0  0
  4 93  1  0  0  0
  4 94  1  0  0  0
  5  6  1  0  0  0
  5 26  1  0  0  0
  5 95  1  0  0  0
  6 25  1  0  0  0
  6 96  1  0  0  0
  6 97  1  0  0  0
  7  8  2  0  0  0
  7 26  1  0  0  0
  7 29  1  0  0  0
  8  9  1  0  0  0
  8 22  1  0  0  0
  9 10  1  0  0  0
  9 27  2  0  0  0
 10 11  2  0  0  0
 10 15  1  0  0  0
 11 12  1  0  0  0
 11 98  1  0  0  0
 12 13  2  0  0  0
 12 99  1  0  0  0
 13 14  1  0  0  0
 13 31  1  0  0  0
 14 15  2  0  0  0
 14100  1  0  0  0
 15101  1  0  0  0
 16 17  2  0  0  0
 16 21  1  0  0  0
 16 31  1  0  0  0
 17 18  1  0  0  0
 17102  1  0  0  0
 18 19  2  0  0  0
 18103  1  0  0  0
 19 20  1  0  0  0
 19 24  1  0  0  0
 20 21  2  0  0  0
 20104  1  0  0  0
 21 23  1  0  0  0
 22 28  1  0  0  0
 22 32  2  0  0  0
 26 27  1  0  0  0
 28105  1  0  0  0
 28106  1  0  0  0
 29107  1  0  0  0
 29108  1  0  0  0
 33 34  1  0  0  0
 33 66  1  0  0  0
 33 70  2  0  0  0
 34 36  1  0  0  0
 34 59  1  0  0  0
 34109  1  0  0  0
 35 44  2  0  0  0
 35 45  1  0  0  0
 35 68  1  0  0  0
 36 56  1  0  0  0
 36110  1  0  0  0
 37 39  1  0  0  0
 37 47  1  0  0  0
 37 66  1  0  0  0
 37111  1  0  0  0
 38 43  2  0  0  0
 38 46  1  0  0  0
 38 47  1  0  0  0
 39 64  1  0  0  0
 39 67  2  0  0  0
 40 52  1  0  0  0
 40 53  2  0  0  0
 40 58  1  0  0  0
 41112  1  0  0  0
 41113  1  0  0  0
 41114  1  0  0  0
 41 48  1  0  0  0
 42 43  1  0  0  0
 42 66  1  0  0  0
 42115  1  0  0  0
 42116  1  0  0  0
 43 44  1  0  0  0
 44117  1  0  0  0
 45 46  2  0  0  0
 45118  1  0  0  0
 46119  1  0  0  0
 47120  1  0  0  0
 47121  1  0  0  0
 48 56  1  0  0  0
 48 65  1  0  0  0
 48122  1  0  0  0
 49 50  1  0  0  0
 49 53  1  0  0  0
 49 64  1  0  0  0
 49123  1  0  0  0
 50 51  1  0  0  0
 50124  1  0  0  0
 50125  1  0  0  0
 51 52  1  0  0  0
 51126  1  0  0  0
 51127  1  0  0  0
 52128  1  0  0  0
 52129  1  0  0  0
 53 54  1  0  0  0
 54 55  2  0  0  0
 54130  1  0  0  0
 55 57  1  0  0  0
 55131  1  0  0  0
 56 69  2  0  0  0
 57 58  2  0  0  0
 57132  1  0  0  0
 58133  1  0  0  0
 59 60  1  0  0  0
 59 61  1  0  0  0
 59 62  1  0  0  0
 60134  1  0  0  0
 60135  1  0  0  0
 60136  1  0  0  0
 61137  1  0  0  0
 61138  1  0  0  0
 61139  1  0  0  0
 62140  1  0  0  0
 62141  1  0  0  0
 62142  1  0  0  0
 63 65  1  0  0  0
 63143  1  0  0  0
 63144  1  0  0  0
 63145  1  0  0  0
 64146  1  0  0  0
 65147  1  0  0  0
 68 80  1  0  0  0
 71 80  1  0  0  0
 71 85  2  0  0  0
 71 87  1  0  0  0
 72 82  1  0  0  0
 72 86  2  0  0  0
 72 87  1  0  0  0
 73148  1  0  0  0
 73149  1  0  0  0
 73150  1  0  0  0
 73 82  1  0  0  0
 74151  1  0  0  0
 74152  1  0  0  0
 74153  1  0  0  0
 74 83  1  0  0  0
 75 83  1  0  0  0
 75154  1  0  0  0
 75155  1  0  0  0
 75156  1  0  0  0
 76 83  1  0  0  0
 76157  1  0  0  0
 76158  1  0  0  0
 76159  1  0  0  0
 77160  1  0  0  0
 77161  1  0  0  0
 77162  1  0  0  0
 77 84  1  0  0  0
 78 84  1  0  0  0
 78163  1  0  0  0
 78164  1  0  0  0
 78165  1  0  0  0
 79 84  1  0  0  0
 79166  1  0  0  0
 79167  1  0  0  0
 79168  1  0  0  0
 80169  1  0  0  0
 80170  1  0  0  0
 81 82  1  0  0  0
 81 88  1  0  0  0
 81171  1  0  0  0
 81172  1  0  0  0
 82 83  1  0  0  0
 84 87  1  0  0  0
 85 86  1  0  0  0
 88173  1  0  0  0
M  ISO  4   1 100  68 101  80 101  88 100
M  END
> <chiral flag>
0

> <version>
0

> <s_m_source_file>
/data/baiqing/PycharmProjects/Reinvent-master-3.2/result/LINK_invent/BTK/process_docking_weight1_custom_sum_contain_oxygen_bond_distance_aromatic_linkinvent_7_9_3/rearranged_h_0066.sdf

> <i_m_source_file_index>
57

> <r_mmod_Potential_Energy-OPLS-2005>
1058.75476074219

> <r_mmod_Stretch_Energy-OPLS-2005>
427.930358886719

> <r_mmod_Bend_Energy-OPLS-2005>
450.919799804688

> <r_mmod_Torsional_Energy-OPLS-2005>
307.778686523438

> <r_mmod_Improper_Torsional_Energy-OPLS-2005>
6.5562858581543

> <r_mmod_Van_der_Waal_Energy-OPLS-2005>
133.257217407227

> <r_mmod_Electrostatic_Energy-OPLS-2005>
-316.305267333984

> <r_mmod_Solvation_Energy-OPLS-2005>
-225.149795532227

> <b_mmod_Minimization_Converged-OPLS-2005>
0

> <r_mmod_RMS_Derivative-OPLS-2005>
1.6948709487915

$$$$
61
                    3D
 Structure written by MMmdl.
158166  0  0  1  0            999 V2000
  -30.7090  -14.6145   20.5963 C   0  0  0  0  0  0
  -30.4230  -12.4000   19.4725 C   0  0  0  0  0  0
  -29.5000  -12.5699   18.2447 C   0  0  0  0  0  0
  -28.0210  -12.4036   18.6367 C   0  0  0  0  0  0
  -27.6629  -13.2187   19.9012 C   0  0  2  0  0  0
  -28.7111  -12.9985   21.0139 C   0  0  0  0  0  0
  -25.2514  -13.8132   20.5655 C   0  0  0  0  0  0
  -24.1795  -13.0400   20.9116 C   0  0  0  0  0  0
  -24.6382  -11.6878   20.8731 C   0  0  0  0  0  0
  -23.9039  -10.4253   21.0410 C   0  0  0  0  0  0
  -24.3553   -9.4165   21.9213 C   0  0  0  0  0  0
  -23.6198   -8.2222   22.0782 C   0  0  0  0  0  0
  -22.4209   -8.0235   21.3523 C   0  0  0  0  0  0
  -21.9853   -9.0241   20.4635 C   0  0  0  0  0  0
  -22.7193  -10.2108   20.3060 C   0  0  0  0  0  0
  -21.6838   -6.0673   22.5253 C   0  0  0  0  0  0
  -21.4022   -6.5607   23.8170 C   0  0  0  0  0  0
  -21.3707   -5.6770   24.9159 C   0  0  0  0  0  0
  -21.6071   -4.3032   24.7212 C   0  0  0  0  0  0
  -21.8834   -3.8083   23.4356 C   0  0  0  0  0  0
  -21.9187   -4.6890   22.3382 C   0  0  0  0  0  0
  -22.7802  -13.5195   21.1777 C   0  0  0  0  0  0
  -22.1645   -4.2047   21.0963 F   0  0  0  0  0  0
  -21.5640   -3.4550   25.7759 F   0  0  0  0  0  0
  -30.0233  -13.4139   20.4865 N   0  0  0  0  0  0
  -26.3027  -12.9366   20.3540 N   0  0  0  0  0  0
  -25.9348  -11.6502   20.5897 N   0  0  0  0  0  0
  -22.0501  -12.8171   22.0351 N   0  0  0  0  0  0
  -25.4138  -15.1836   20.3964 N   0  0  0  0  0  0
  -31.8163  -14.6571   20.0474 O   0  0  0  0  0  0
  -21.6589   -6.8809   21.4185 O   0  0  0  0  0  0
  -22.3468  -14.5493   20.6617 O   0  0  0  0  0  0
  -24.6242  -31.8639   23.2087 C   0  0  0  0  0  0
  -25.9100  -32.4802   23.8400 C   0  0  1  0  0  0
  -27.2276  -27.3806   20.1010 C   0  0  0  0  0  0
  -25.5932  -33.8601   24.2323 N   0  0  0  0  0  0
  -23.4118  -30.4871   21.5540 C   0  0  2  0  0  0
  -24.8576  -28.9512   20.1100 C   0  0  0  0  0  0
  -22.7454  -29.4620   22.5003 C   0  0  0  0  0  0
  -18.0267  -28.1356   22.8517 C   0  0  0  0  0  0
  -24.1484  -36.7315   23.2646 C   0  0  0  0  0  0
  -25.9450  -30.8168   21.3645 C   0  0  0  0  0  0
  -26.0245  -29.4475   20.7073 C   0  0  0  0  0  0
  -27.2164  -28.6734   20.6926 C   0  0  0  0  0  0
  -26.0449  -26.9210   19.4839 C   0  0  0  0  0  0
  -24.8643  -27.6892   19.4936 C   0  0  0  0  0  0
  -23.6223  -29.8251   20.1670 C   0  0  0  0  0  0
  -25.4094  -36.3087   24.0343 C   0  0  1  0  0  0
  -20.5883  -28.3651   23.1320 C   0  0  2  0  0  0
  -20.6759  -26.9384   22.5418 C   0  0  0  0  0  0
  -19.5727  -26.6378   21.5212 C   0  0  0  0  0  0
  -18.1892  -26.7914   22.1613 C   0  0  0  0  0  0
  -19.1526  -28.8822   23.2911 C   0  0  0  0  0  0
  -18.9448  -30.1435   23.8900 C   0  0  0  0  0  0
  -17.6447  -30.6565   24.0570 C   0  0  0  0  0  0
  -25.9039  -34.9458   23.5120 C   0  0  0  0  0  0
  -16.5339  -29.9063   23.6327 C   0  0  0  0  0  0
  -16.7258  -28.6472   23.0376 C   0  0  0  0  0  0
  -26.4501  -31.6595   25.0743 C   0  0  0  0  0  0
  -25.3722  -31.3696   26.1445 C   0  0  0  0  0  0
  -27.0381  -30.3051   24.6148 C   0  0  0  0  0  0
  -27.6061  -32.4308   25.7558 C   0  0  0  0  0  0
  -27.5562  -37.1813   24.8452 C   0  0  0  0  0  0
  -21.4181  -29.3008   22.3733 N   0  0  0  0  0  0
  -26.4272  -37.3776   23.9406 N   0  0  0  0  0  0
  -24.6793  -31.0717   22.1002 N   0  0  0  0  0  0
  -23.4206  -28.8139   23.3039 O   0  0  0  0  0  0
  -28.3417  -26.5492   20.1091 O   0  0  0  0  0  0
  -26.5607  -34.8918   22.4686 O   0  0  0  0  0  0
  -23.5427  -32.1395   23.7472 O   0  0  0  0  0  0
  -28.1164  -20.2668   21.0806 C   0  0  0  0  0  0
  -30.3662  -20.8812   20.6929 C   0  0  0  0  0  0
  -29.0611  -21.3141   20.9907 C   0  0  0  0  0  0
  -29.7078  -18.6436   20.6035 C   0  0  0  0  0  0
  -31.4968  -16.4292   22.1643 C   0  0  0  0  0  0
  -28.7178  -22.7840   21.3817 C   0  0  0  0  0  0
  -28.8196  -23.9673   20.3401 C   0  0  0  0  0  0
  -28.1775  -25.3119   20.8681 C   0  0  0  0  0  0
  -30.0569  -17.1617   20.1869 C   0  0  0  0  0  0
  -30.2787  -16.0135   21.2879 C   0  0  1  0  0  0
  -29.0686  -15.9833   22.2678 C   0  0  0  0  0  0
  -28.4387  -18.9644   20.8747 N   0  0  0  0  0  0
  -30.6746  -19.5681   20.5204 N   0  0  0  0  0  0
  -31.1587  -17.2469   19.4318 F   0  0  0  0  0  0
  -29.0939  -16.7470   19.3565 F   0  0  0  0  0  0
  -29.2376  -15.0503   23.2102 F   0  0  0  0  0  0
  -28.9304  -17.1292   22.9338 F   0  0  0  0  0  0
  -27.9323  -15.7596   21.6141 F   0  0  0  0  0  0
  -31.4656  -12.4774   19.1555 H   0  0  0  0  0  0
  -30.3345  -11.3910   19.8815 H   0  0  0  0  0  0
  -29.7627  -11.8654   17.4546 H   0  0  0  0  0  0
  -29.6428  -13.5706   17.8284 H   0  0  0  0  0  0
  -27.8304  -11.3444   18.8088 H   0  0  0  0  0  0
  -27.3770  -12.7120   17.8116 H   0  0  0  0  0  0
  -27.7102  -14.2706   19.6194 H   0  0  0  0  0  0
  -28.7397  -11.9408   21.2902 H   0  0  0  0  0  0
  -28.4135  -13.4644   21.9392 H   0  0  0  0  0  0
  -25.2696   -9.5618   22.4800 H   0  0  0  0  0  0
  -23.9883   -7.4628   22.7535 H   0  0  0  0  0  0
  -21.0784   -8.8765   19.8927 H   0  0  0  0  0  0
  -22.3650  -10.9650   19.6166 H   0  0  0  0  0  0
  -21.2017   -7.6114   23.9607 H   0  0  0  0  0  0
  -21.1543   -6.0537   25.9045 H   0  0  0  0  0  0
  -22.0575   -2.7536   23.2879 H   0  0  0  0  0  0
  -22.4141  -11.9767   22.4580 H   0  0  0  0  0  0
  -21.1181  -13.1223   22.2746 H   0  0  0  0  0  0
  -24.6553  -15.8376   20.5433 H   0  0  0  0  0  0
  -26.3046  -15.6338   20.2210 H   0  0  0  0  0  0
  -26.7171  -32.5532   23.1186 H   0  0  0  0  0  0
  -25.0024  -33.9728   25.0427 H   0  0  0  0  0  0
  -22.7003  -31.3042   21.4215 H   0  0  0  0  0  0
  -23.3744  -35.9652   23.3284 H   0  0  0  0  0  0
  -24.3574  -36.8970   22.2066 H   0  0  0  0  0  0
  -23.7248  -37.6512   23.6698 H   0  0  0  0  0  0
  -26.0551  -31.5825   20.5959 H   0  0  0  0  0  0
  -26.8349  -30.8760   21.9793 H   0  0  0  0  0  0
  -28.1156  -29.0558   21.1578 H   0  0  0  0  0  0
  -26.0351  -25.9533   19.0032 H   0  0  0  0  0  0
  -23.9668  -27.3028   19.0284 H   0  0  0  0  0  0
  -23.7305  -30.6057   19.4130 H   0  0  0  0  0  0
  -22.7409  -29.2555   19.8726 H   0  0  0  0  0  0
  -25.1263  -36.1955   25.0840 H   0  0  0  0  0  0
  -20.9946  -28.3193   24.1459 H   0  0  0  0  0  0
  -20.5623  -26.2236   23.3590 H   0  0  0  0  0  0
  -21.6633  -26.7363   22.1246 H   0  0  0  0  0  0
  -19.6879  -25.6300   21.1212 H   0  0  0  0  0  0
  -19.6653  -27.3210   20.6756 H   0  0  0  0  0  0
  -17.4178  -26.6689   21.4014 H   0  0  0  0  0  0
  -18.0260  -26.0024   22.8958 H   0  0  0  0  0  0
  -19.7927  -30.7258   24.2248 H   0  0  0  0  0  0
  -17.5002  -31.6243   24.5179 H   0  0  0  0  0  0
  -15.5340  -30.2972   23.7613 H   0  0  0  0  0  0
  -15.8658  -28.0770   22.7112 H   0  0  0  0  0  0
  -24.5940  -30.7005   25.7763 H   0  0  0  0  0  0
  -24.8847  -32.2842   26.4834 H   0  0  0  0  0  0
  -25.8042  -30.8905   27.0236 H   0  0  0  0  0  0
  -26.2959  -29.6807   24.1160 H   0  0  0  0  0  0
  -27.4120  -29.7312   25.4640 H   0  0  0  0  0  0
  -27.8806  -30.4406   23.9351 H   0  0  0  0  0  0
  -27.2680  -33.3609   26.2150 H   0  0  0  0  0  0
  -28.3905  -32.6842   25.0412 H   0  0  0  0  0  0
  -28.0688  -31.8395   26.5480 H   0  0  0  0  0  0
  -28.2566  -38.0119   24.7514 H   0  0  0  0  0  0
  -28.1065  -36.2654   24.6266 H   0  0  0  0  0  0
  -27.2279  -37.1461   25.8850 H   0  0  0  0  0  0
  -20.9332  -29.8776   21.7007 H   0  0  0  0  0  0
  -26.0167  -38.2860   24.1401 H   0  0  0  0  0  0
  -27.0881  -20.4645   21.3520 H   0  0  0  0  0  0
  -31.1785  -21.5958   20.6175 H   0  0  0  0  0  0
  -31.3281  -17.3822   22.6680 H   0  0  0  0  0  0
  -32.4140  -16.5481   21.5879 H   0  0  0  0  0  0
  -31.7002  -15.6819   22.9314 H   0  0  0  0  0  0
  -29.3679  -23.0324   22.2228 H   0  0  0  0  0  0
  -27.7087  -22.7801   21.7975 H   0  0  0  0  0  0
  -28.3276  -23.6811   19.4100 H   0  0  0  0  0  0
  -29.8680  -24.1463   20.0941 H   0  0  0  0  0  0
  -28.6119  -25.5254   21.8433 H   0  0  0  0  0  0
  -27.1223  -25.1147   21.0692 H   0  0  0  0  0  0
  1 25  1  0  0  0
  1 30  2  0  0  0
  1 80  1  0  0  0
  2  3  1  0  0  0
  2 25  1  0  0  0
  2 89  1  0  0  0
  2 90  1  0  0  0
  3  4  1  0  0  0
  3 91  1  0  0  0
  3 92  1  0  0  0
  4  5  1  0  0  0
  4 93  1  0  0  0
  4 94  1  0  0  0
  5  6  1  0  0  0
  5 26  1  0  0  0
  5 95  1  0  0  0
  6 25  1  0  0  0
  6 96  1  0  0  0
  6 97  1  0  0  0
  7  8  2  0  0  0
  7 26  1  0  0  0
  7 29  1  0  0  0
  8  9  1  0  0  0
  8 22  1  0  0  0
  9 10  1  0  0  0
  9 27  2  0  0  0
 10 11  2  0  0  0
 10 15  1  0  0  0
 11 12  1  0  0  0
 11 98  1  0  0  0
 12 13  2  0  0  0
 12 99  1  0  0  0
 13 14  1  0  0  0
 13 31  1  0  0  0
 14 15  2  0  0  0
 14100  1  0  0  0
 15101  1  0  0  0
 16 17  2  0  0  0
 16 21  1  0  0  0
 16 31  1  0  0  0
 17 18  1  0  0  0
 17102  1  0  0  0
 18 19  2  0  0  0
 18103  1  0  0  0
 19 20  1  0  0  0
 19 24  1  0  0  0
 20 21  2  0  0  0
 20104  1  0  0  0
 21 23  1  0  0  0
 22 28  1  0  0  0
 22 32  2  0  0  0
 26 27  1  0  0  0
 28105  1  0  0  0
 28106  1  0  0  0
 29107  1  0  0  0
 29108  1  0  0  0
 33 34  1  0  0  0
 33 66  1  0  0  0
 33 70  2  0  0  0
 34 36  1  0  0  0
 34 59  1  0  0  0
 34109  1  0  0  0
 35 44  2  0  0  0
 35 45  1  0  0  0
 35 68  1  0  0  0
 36 56  1  0  0  0
 36110  1  0  0  0
 37 39  1  0  0  0
 37 47  1  0  0  0
 37 66  1  0  0  0
 37111  1  0  0  0
 38 43  2  0  0  0
 38 46  1  0  0  0
 38 47  1  0  0  0
 39 64  1  0  0  0
 39 67  2  0  0  0
 40 52  1  0  0  0
 40 53  2  0  0  0
 40 58  1  0  0  0
 41112  1  0  0  0
 41113  1  0  0  0
 41114  1  0  0  0
 41 48  1  0  0  0
 42 43  1  0  0  0
 42 66  1  0  0  0
 42115  1  0  0  0
 42116  1  0  0  0
 43 44  1  0  0  0
 44117  1  0  0  0
 45 46  2  0  0  0
 45118  1  0  0  0
 46119  1  0  0  0
 47120  1  0  0  0
 47121  1  0  0  0
 48 56  1  0  0  0
 48 65  1  0  0  0
 48122  1  0  0  0
 49 50  1  0  0  0
 49 53  1  0  0  0
 49 64  1  0  0  0
 49123  1  0  0  0
 50 51  1  0  0  0
 50124  1  0  0  0
 50125  1  0  0  0
 51 52  1  0  0  0
 51126  1  0  0  0
 51127  1  0  0  0
 52128  1  0  0  0
 52129  1  0  0  0
 53 54  1  0  0  0
 54 55  2  0  0  0
 54130  1  0  0  0
 55 57  1  0  0  0
 55131  1  0  0  0
 56 69  2  0  0  0
 57 58  2  0  0  0
 57132  1  0  0  0
 58133  1  0  0  0
 59 60  1  0  0  0
 59 61  1  0  0  0
 59 62  1  0  0  0
 60134  1  0  0  0
 60135  1  0  0  0
 60136  1  0  0  0
 61137  1  0  0  0
 61138  1  0  0  0
 61139  1  0  0  0
 62140  1  0  0  0
 62141  1  0  0  0
 62142  1  0  0  0
 63 65  1  0  0  0
 63143  1  0  0  0
 63144  1  0  0  0
 63145  1  0  0  0
 64146  1  0  0  0
 65147  1  0  0  0
 68 78  1  0  0  0
 71 73  2  0  0  0
 71 82  1  0  0  0
 71148  1  0  0  0
 72 73  1  0  0  0
 72 83  2  0  0  0
 72149  1  0  0  0
 73 76  1  0  0  0
 74 79  1  0  0  0
 74 82  2  0  0  0
 74 83  1  0  0  0
 75150  1  0  0  0
 75151  1  0  0  0
 75152  1  0  0  0
 75 80  1  0  0  0
 76 77  1  0  0  0
 76153  1  0  0  0
 76154  1  0  0  0
 77 78  1  0  0  0
 77155  1  0  0  0
 77156  1  0  0  0
 78157  1  0  0  0
 78158  1  0  0  0
 79 80  1  0  0  0
 79 84  1  0  0  0
 79 85  1  0  0  0
 80 81  1  0  0  0
 81 86  1  0  0  0
 81 87  1  0  0  0
 81 88  1  0  0  0
M  ISO  4   1 100  68 101  78 101  80 100
M  END
> <chiral flag>
0

> <version>
0

> <s_m_source_file>
/data/baiqing/PycharmProjects/Reinvent-master-3.2/result/LINK_invent/BTK/process_docking_weight1_custom_sum_contain_oxygen_bond_distance_aromatic_linkinvent_7_9_3/rearranged_h_0066.sdf

> <i_m_source_file_index>
58

> <r_mmod_Potential_Energy-OPLS-2005>
-286.509338378906

> <r_mmod_Stretch_Energy-OPLS-2005>
80.9152374267578

> <r_mmod_Bend_Energy-OPLS-2005>
174.397003173828

> <r_mmod_Torsional_Energy-OPLS-2005>
170.598434448242

> <r_mmod_Improper_Torsional_Energy-OPLS-2005>
3.3572461605072

> <r_mmod_Van_der_Waal_Energy-OPLS-2005>
173.198989868164

> <r_mmod_Electrostatic_Energy-OPLS-2005>
-734.83642578125

> <r_mmod_Solvation_Energy-OPLS-2005>
-184.911041259766

> <b_mmod_Minimization_Converged-OPLS-2005>
0

> <r_mmod_RMS_Derivative-OPLS-2005>
5.41280126571655

$$$$
62
                    3D
 Structure written by MMmdl.
165173  0  0  1  0            999 V2000
  -30.6545  -14.7182   20.5822 C   0  0  0  0  0  0
  -30.4403  -12.4727   19.4844 C   0  0  0  0  0  0
  -29.5243  -12.5998   18.2475 C   0  0  0  0  0  0
  -28.0561  -12.3634   18.6472 C   0  0  0  0  0  0
  -27.6507  -13.2281   19.8710 C   0  0  2  0  0  0
  -28.6981  -13.1328   21.0050 C   0  0  0  0  0  0
  -25.2497  -13.8162   20.5847 C   0  0  0  0  0  0
  -24.1800  -13.0461   20.9272 C   0  0  0  0  0  0
  -24.6346  -11.6910   20.8636 C   0  0  0  0  0  0
  -23.9023  -10.4340   21.0305 C   0  0  0  0  0  0
  -24.3650   -9.4328   21.9108 C   0  0  0  0  0  0
  -23.6398   -8.2352   22.0775 C   0  0  0  0  0  0
  -22.4307   -8.0362   21.3657 C   0  0  0  0  0  0
  -21.9885   -9.0262   20.4713 C   0  0  0  0  0  0
  -22.7162  -10.2155   20.3015 C   0  0  0  0  0  0
  -21.6822   -6.0817   22.5318 C   0  0  0  0  0  0
  -21.3921   -6.5693   23.8247 C   0  0  0  0  0  0
  -21.3692   -5.6830   24.9203 C   0  0  0  0  0  0
  -21.6092   -4.3093   24.7191 C   0  0  0  0  0  0
  -21.8795   -3.8215   23.4281 C   0  0  0  0  0  0
  -21.9187   -4.7075   22.3389 C   0  0  0  0  0  0
  -22.7781  -13.5252   21.1979 C   0  0  0  0  0  0
  -22.1677   -4.2307   21.0941 F   0  0  0  0  0  0
  -21.5697   -3.4554   25.7685 F   0  0  0  0  0  0
  -30.0154  -13.5002   20.4582 N   0  0  0  0  0  0
  -26.2955  -12.9374   20.3361 N   0  0  0  0  0  0
  -25.9268  -11.6497   20.5589 N   0  0  0  0  0  0
  -22.0371  -12.8252   22.0459 N   0  0  0  0  0  0
  -25.4091  -15.1952   20.4522 N   0  0  0  0  0  0
  -31.7782  -14.8464   20.0813 O   0  0  0  0  0  0
  -21.6692   -6.8942   21.4292 O   0  0  0  0  0  0
  -22.3567  -14.5686   20.6961 O   0  0  0  0  0  0
  -24.6276  -31.8601   23.2007 C   0  0  0  0  0  0
  -25.9120  -32.4772   23.8347 C   0  0  1  0  0  0
  -27.2092  -27.3287   20.1220 C   0  0  0  0  0  0
  -25.5936  -33.8562   24.2299 N   0  0  0  0  0  0
  -23.4181  -30.4868   21.5416 C   0  0  2  0  0  0
  -24.8616  -28.9517   20.1046 C   0  0  0  0  0  0
  -22.7488  -29.4622   22.4868 C   0  0  0  0  0  0
  -18.0349  -28.1368   22.8475 C   0  0  0  0  0  0
  -24.1493  -36.7327   23.2628 C   0  0  0  0  0  0
  -25.9565  -30.7995   21.3642 C   0  0  0  0  0  0
  -26.0293  -29.4236   20.7164 C   0  0  0  0  0  0
  -27.2063  -28.6207   20.7243 C   0  0  0  0  0  0
  -26.0217  -26.9185   19.4675 C   0  0  0  0  0  0
  -24.8569  -27.7016   19.4730 C   0  0  0  0  0  0
  -23.6333  -29.8335   20.1510 C   0  0  0  0  0  0
  -25.4101  -36.3080   24.0339 C   0  0  1  0  0  0
  -20.5931  -28.3684   23.1284 C   0  0  2  0  0  0
  -20.6831  -26.9409   22.5401 C   0  0  0  0  0  0
  -19.5751  -26.6280   21.5272 C   0  0  0  0  0  0
  -18.1957  -26.7894   22.1649 C   0  0  0  0  0  0
  -19.1570  -28.8851   23.2880 C   0  0  0  0  0  0
  -18.9447  -30.1444   23.8908 C   0  0  0  0  0  0
  -17.6431  -30.6541   24.0535 C   0  0  0  0  0  0
  -25.9046  -34.9437   23.5125 C   0  0  0  0  0  0
  -16.5342  -29.9041   23.6276 C   0  0  0  0  0  0
  -16.7322  -28.6482   23.0278 C   0  0  0  0  0  0
  -26.4507  -31.6532   25.0671 C   0  0  0  0  0  0
  -25.3766  -31.3662   26.1420 C   0  0  0  0  0  0
  -27.0299  -30.2953   24.6059 C   0  0  0  0  0  0
  -27.6086  -32.4216   25.7464 C   0  0  0  0  0  0
  -27.5576  -37.1819   24.8451 C   0  0  0  0  0  0
  -21.4205  -29.3035   22.3639 N   0  0  0  0  0  0
  -26.4275  -37.3780   23.9413 N   0  0  0  0  0  0
  -24.6850  -31.0660   22.0950 N   0  0  0  0  0  0
  -23.4228  -28.8118   23.2909 O   0  0  0  0  0  0
  -28.3095  -26.4604   20.1964 O   0  0  0  0  0  0
  -26.5594  -34.8925   22.4671 O   0  0  0  0  0  0
  -23.5442  -32.1364   23.7369 O   0  0  0  0  0  0
  -27.0316  -18.7754   22.1022 C   0  0  0  0  0  0
  -28.6277  -19.8174   21.2225 C   0  0  0  0  0  0
  -25.7398  -18.4916   22.8005 C   0  0  0  0  0  0
  -29.5597  -17.3307   19.0705 C   0  0  0  0  0  0
  -31.3658  -18.1338   20.5920 C   0  0  0  0  0  0
  -29.3748  -21.1031   20.7566 C   0  0  0  0  0  0
  -28.4449  -22.4015   20.5180 C   0  0  0  0  0  0
  -29.0086  -23.8906   20.5840 C   0  0  0  0  0  0
  -28.0066  -25.0176   20.0821 C   0  0  0  0  0  0
  -29.9766  -16.0007   21.2703 C   0  0  2  0  0  0
  -29.9528  -17.4949   20.5554 C   0  0  0  0  0  0
  -30.4034  -16.0551   22.7836 C   0  0  0  0  0  0
  -27.4978  -20.0293   21.9070 N   0  0  0  0  0  0
  -27.8037  -17.8113   21.6284 N   0  0  0  0  0  0
  -28.9146  -18.4480   21.1511 N   0  0  0  0  0  0
  -31.6989  -16.3365   22.9508 F   0  0  0  0  0  0
  -29.6974  -16.9503   23.4756 F   0  0  0  0  0  0
  -30.2040  -14.8803   23.3810 F   0  0  0  0  0  0
  -31.4862  -12.5852   19.1996 H   0  0  0  0  0  0
  -30.3623  -11.4767   19.9278 H   0  0  0  0  0  0
  -29.8359  -11.9067   17.4677 H   0  0  0  0  0  0
  -29.6260  -13.5995   17.8174 H   0  0  0  0  0  0
  -27.9289  -11.2958   18.8503 H   0  0  0  0  0  0
  -27.4032  -12.5899   17.8049 H   0  0  0  0  0  0
  -27.6376  -14.2611   19.5303 H   0  0  0  0  0  0
  -28.7521  -12.1220   21.4024 H   0  0  0  0  0  0
  -28.3967  -13.7573   21.8419 H   0  0  0  0  0  0
  -25.2852   -9.5926   22.4532 H   0  0  0  0  0  0
  -24.0282   -7.4775   22.7426 H   0  0  0  0  0  0
  -21.0833   -8.8637   19.9031 H   0  0  0  0  0  0
  -22.3580  -10.9619   19.6072 H   0  0  0  0  0  0
  -21.1748   -7.6168   23.9768 H   0  0  0  0  0  0
  -21.1600   -6.0550   25.9135 H   0  0  0  0  0  0
  -22.0522   -2.7688   23.2676 H   0  0  0  0  0  0
  -22.4044  -12.0000   22.4914 H   0  0  0  0  0  0
  -21.0966  -13.1229   22.2643 H   0  0  0  0  0  0
  -24.6463  -15.8246   20.6733 H   0  0  0  0  0  0
  -26.2434  -15.6770   20.1481 H   0  0  0  0  0  0
  -26.7195  -32.5451   23.1107 H   0  0  0  0  0  0
  -25.0078  -33.9703   25.0464 H   0  0  0  0  0  0
  -22.7136  -31.3082   21.4028 H   0  0  0  0  0  0
  -23.3727  -35.9679   23.3253 H   0  0  0  0  0  0
  -24.3614  -36.8987   22.2045 H   0  0  0  0  0  0
  -23.7285  -37.6547   23.6664 H   0  0  0  0  0  0
  -26.0633  -31.5482   20.5768 H   0  0  0  0  0  0
  -26.8498  -30.8699   21.9714 H   0  0  0  0  0  0
  -28.0915  -28.9724   21.2360 H   0  0  0  0  0  0
  -25.9472  -25.9666   18.9659 H   0  0  0  0  0  0
  -23.9597  -27.3397   18.9883 H   0  0  0  0  0  0
  -23.7676  -30.6141   19.4021 H   0  0  0  0  0  0
  -22.7578  -29.2650   19.8347 H   0  0  0  0  0  0
  -25.1280  -36.1915   25.0832 H   0  0  0  0  0  0
  -21.0023  -28.3301   24.1398 H   0  0  0  0  0  0
  -20.5776  -26.2315   23.3629 H   0  0  0  0  0  0
  -21.6664  -26.7461   22.1153 H   0  0  0  0  0  0
  -19.6873  -25.6150   21.1436 H   0  0  0  0  0  0
  -19.6724  -27.2944   20.6716 H   0  0  0  0  0  0
  -17.4261  -26.6720   21.3980 H   0  0  0  0  0  0
  -18.0261  -26.0070   22.9060 H   0  0  0  0  0  0
  -19.7895  -30.7289   24.2334 H   0  0  0  0  0  0
  -17.4951  -31.6220   24.5143 H   0  0  0  0  0  0
  -15.5326  -30.2917   23.7516 H   0  0  0  0  0  0
  -15.8783  -28.0769   22.6917 H   0  0  0  0  0  0
  -24.6034  -30.6881   25.7805 H   0  0  0  0  0  0
  -24.8843  -32.2803   26.4730 H   0  0  0  0  0  0
  -25.8138  -30.8979   27.0258 H   0  0  0  0  0  0
  -26.2813  -29.6717   24.1155 H   0  0  0  0  0  0
  -27.4108  -29.7166   25.4492 H   0  0  0  0  0  0
  -27.8649  -30.4235   23.9166 H   0  0  0  0  0  0
  -27.2758  -33.3591   26.1940 H   0  0  0  0  0  0
  -28.3974  -32.6634   25.0324 H   0  0  0  0  0  0
  -28.0646  -31.8360   26.5464 H   0  0  0  0  0  0
  -28.2570  -38.0135   24.7507 H   0  0  0  0  0  0
  -28.1090  -36.2670   24.6235 H   0  0  0  0  0  0
  -27.2312  -37.1450   25.8860 H   0  0  0  0  0  0
  -20.9314  -29.8823   21.6947 H   0  0  0  0  0  0
  -26.0133  -38.2856   24.1405 H   0  0  0  0  0  0
  -25.9138  -17.9845   23.7525 H   0  0  0  0  0  0
  -25.1019  -17.8587   22.1826 H   0  0  0  0  0  0
  -25.1857  -19.4077   23.0090 H   0  0  0  0  0  0
  -29.4173  -18.2918   18.5834 H   0  0  0  0  0  0
  -28.6260  -16.7788   18.9633 H   0  0  0  0  0  0
  -30.3270  -16.8019   18.5060 H   0  0  0  0  0  0
  -32.0492  -17.5428   19.9842 H   0  0  0  0  0  0
  -31.7837  -18.1629   21.5934 H   0  0  0  0  0  0
  -31.4194  -19.1699   20.2548 H   0  0  0  0  0  0
  -29.9145  -20.8911   19.8321 H   0  0  0  0  0  0
  -30.1424  -21.3319   21.4994 H   0  0  0  0  0  0
  -27.6477  -22.4078   21.2602 H   0  0  0  0  0  0
  -27.9185  -22.2627   19.5728 H   0  0  0  0  0  0
  -29.9351  -23.9529   20.0147 H   0  0  0  0  0  0
  -29.2638  -24.1044   21.6219 H   0  0  0  0  0  0
  -27.0587  -24.8486   20.5961 H   0  0  0  0  0  0
  -27.8342  -24.8190   19.0247 H   0  0  0  0  0  0
  -28.9372  -15.7004   21.2310 H   0  0  0  0  0  0
  1 25  1  0  0  0
  1 30  2  0  0  0
  1 80  1  0  0  0
  2  3  1  0  0  0
  2 25  1  0  0  0
  2 89  1  0  0  0
  2 90  1  0  0  0
  3  4  1  0  0  0
  3 91  1  0  0  0
  3 92  1  0  0  0
  4  5  1  0  0  0
  4 93  1  0  0  0
  4 94  1  0  0  0
  5  6  1  0  0  0
  5 26  1  0  0  0
  5 95  1  0  0  0
  6 25  1  0  0  0
  6 96  1  0  0  0
  6 97  1  0  0  0
  7  8  2  0  0  0
  7 26  1  0  0  0
  7 29  1  0  0  0
  8  9  1  0  0  0
  8 22  1  0  0  0
  9 10  1  0  0  0
  9 27  2  0  0  0
 10 11  2  0  0  0
 10 15  1  0  0  0
 11 12  1  0  0  0
 11 98  1  0  0  0
 12 13  2  0  0  0
 12 99  1  0  0  0
 13 14  1  0  0  0
 13 31  1  0  0  0
 14 15  2  0  0  0
 14100  1  0  0  0
 15101  1  0  0  0
 16 17  2  0  0  0
 16 21  1  0  0  0
 16 31  1  0  0  0
 17 18  1  0  0  0
 17102  1  0  0  0
 18 19  2  0  0  0
 18103  1  0  0  0
 19 20  1  0  0  0
 19 24  1  0  0  0
 20 21  2  0  0  0
 20104  1  0  0  0
 21 23  1  0  0  0
 22 28  1  0  0  0
 22 32  2  0  0  0
 26 27  1  0  0  0
 28105  1  0  0  0
 28106  1  0  0  0
 29107  1  0  0  0
 29108  1  0  0  0
 33 34  1  0  0  0
 33 66  1  0  0  0
 33 70  2  0  0  0
 34 36  1  0  0  0
 34 59  1  0  0  0
 34109  1  0  0  0
 35 44  2  0  0  0
 35 45  1  0  0  0
 35 68  1  0  0  0
 36 56  1  0  0  0
 36110  1  0  0  0
 37 39  1  0  0  0
 37 47  1  0  0  0
 37 66  1  0  0  0
 37111  1  0  0  0
 38 43  2  0  0  0
 38 46  1  0  0  0
 38 47  1  0  0  0
 39 64  1  0  0  0
 39 67  2  0  0  0
 40 52  1  0  0  0
 40 53  2  0  0  0
 40 58  1  0  0  0
 41112  1  0  0  0
 41113  1  0  0  0
 41114  1  0  0  0
 41 48  1  0  0  0
 42 43  1  0  0  0
 42 66  1  0  0  0
 42115  1  0  0  0
 42116  1  0  0  0
 43 44  1  0  0  0
 44117  1  0  0  0
 45 46  2  0  0  0
 45118  1  0  0  0
 46119  1  0  0  0
 47120  1  0  0  0
 47121  1  0  0  0
 48 56  1  0  0  0
 48 65  1  0  0  0
 48122  1  0  0  0
 49 50  1  0  0  0
 49 53  1  0  0  0
 49 64  1  0  0  0
 49123  1  0  0  0
 50 51  1  0  0  0
 50124  1  0  0  0
 50125  1  0  0  0
 51 52  1  0  0  0
 51126  1  0  0  0
 51127  1  0  0  0
 52128  1  0  0  0
 52129  1  0  0  0
 53 54  1  0  0  0
 54 55  2  0  0  0
 54130  1  0  0  0
 55 57  1  0  0  0
 55131  1  0  0  0
 56 69  2  0  0  0
 57 58  2  0  0  0
 57132  1  0  0  0
 58133  1  0  0  0
 59 60  1  0  0  0
 59 61  1  0  0  0
 59 62  1  0  0  0
 60134  1  0  0  0
 60135  1  0  0  0
 60136  1  0  0  0
 61137  1  0  0  0
 61138  1  0  0  0
 61139  1  0  0  0
 62140  1  0  0  0
 62141  1  0  0  0
 62142  1  0  0  0
 63 65  1  0  0  0
 63143  1  0  0  0
 63144  1  0  0  0
 63145  1  0  0  0
 64146  1  0  0  0
 65147  1  0  0  0
 68 79  1  0  0  0
 71 73  1  0  0  0
 71 83  1  0  0  0
 71 84  2  0  0  0
 72 76  1  0  0  0
 72 83  2  0  0  0
 72 85  1  0  0  0
 73148  1  0  0  0
 73149  1  0  0  0
 73150  1  0  0  0
 74151  1  0  0  0
 74152  1  0  0  0
 74153  1  0  0  0
 74 81  1  0  0  0
 75 81  1  0  0  0
 75154  1  0  0  0
 75155  1  0  0  0
 75156  1  0  0  0
 76 77  1  0  0  0
 76157  1  0  0  0
 76158  1  0  0  0
 77 78  1  0  0  0
 77159  1  0  0  0
 77160  1  0  0  0
 78 79  1  0  0  0
 78161  1  0  0  0
 78162  1  0  0  0
 79163  1  0  0  0
 79164  1  0  0  0
 80 81  1  0  0  0
 80 82  1  0  0  0
 80165  1  0  0  0
 81 85  1  0  0  0
 82 86  1  0  0  0
 82 87  1  0  0  0
 82 88  1  0  0  0
 84 85  1  0  0  0
M  ISO  4   1 100  68 101  79 101  80 100
M  END
> <chiral flag>
0

> <version>
0

> <s_m_source_file>
/data/baiqing/PycharmProjects/Reinvent-master-3.2/result/LINK_invent/BTK/process_docking_weight1_custom_sum_contain_oxygen_bond_distance_aromatic_linkinvent_7_9_3/rearranged_h_0066.sdf

> <i_m_source_file_index>
59

> <r_mmod_Potential_Energy-OPLS-2005>
189.282440185547

> <r_mmod_Stretch_Energy-OPLS-2005>
116.785148620605

> <r_mmod_Bend_Energy-OPLS-2005>
197.302673339844

> <r_mmod_Torsional_Energy-OPLS-2005>
188.847122192383

> <r_mmod_Improper_Torsional_Energy-OPLS-2005>
2.97725343704224

> <r_mmod_Van_der_Waal_Energy-OPLS-2005>
134.44921875

> <r_mmod_Electrostatic_Energy-OPLS-2005>
-330.401885986328

> <r_mmod_Solvation_Energy-OPLS-2005>
-185.174102783203

> <b_mmod_Minimization_Converged-OPLS-2005>
0

> <r_mmod_RMS_Derivative-OPLS-2005>
10.2732229232788

$$$$
63
                    3D
 Structure written by MMmdl.
194201  0  0  1  0            999 V2000
  -30.8260  -14.5274   20.4603 C   0  0  0  0  0  0
  -30.3862  -12.3492   19.4213 C   0  0  0  0  0  0
  -29.4685  -12.4456   18.1937 C   0  0  0  0  0  0
  -28.0000  -12.2902   18.6295 C   0  0  0  0  0  0
  -27.6206  -13.2013   19.8273 C   0  0  2  0  0  0
  -28.6921  -13.1972   20.9438 C   0  0  0  0  0  0
  -25.2498  -13.8116   20.5759 C   0  0  0  0  0  0
  -24.1767  -13.0383   20.9273 C   0  0  0  0  0  0
  -24.6324  -11.6865   20.8817 C   0  0  0  0  0  0
  -23.9002  -10.4252   21.0454 C   0  0  0  0  0  0
  -24.3568   -9.4166   21.9208 C   0  0  0  0  0  0
  -23.6257   -8.2201   22.0754 C   0  0  0  0  0  0
  -22.4251   -8.0244   21.3536 C   0  0  0  0  0  0
  -21.9875   -9.0217   20.4642 C   0  0  0  0  0  0
  -22.7191  -10.2105   20.3070 C   0  0  0  0  0  0
  -21.6834   -6.0717   22.5279 C   0  0  0  0  0  0
  -21.3996   -6.5622   23.8211 C   0  0  0  0  0  0
  -21.3664   -5.6785   24.9182 C   0  0  0  0  0  0
  -21.6046   -4.3049   24.7237 C   0  0  0  0  0  0
  -21.8818   -3.8132   23.4359 C   0  0  0  0  0  0
  -21.9179   -4.6943   22.3409 C   0  0  0  0  0  0
  -22.7804  -13.5211   21.1900 C   0  0  0  0  0  0
  -22.1654   -4.2126   21.0989 F   0  0  0  0  0  0
  -21.5637   -3.4535   25.7753 F   0  0  0  0  0  0
  -29.9928  -13.4540   20.3120 N   0  0  0  0  0  0
  -26.2853  -12.9239   20.3312 N   0  0  0  0  0  0
  -25.9239  -11.6422   20.5821 N   0  0  0  0  0  0
  -22.0421  -12.8202   22.0455 N   0  0  0  0  0  0
  -25.4197  -15.1831   20.4125 N   0  0  0  0  0  0
  -32.0259  -14.3240   20.4765 O   0  0  0  0  0  0
  -21.6613   -6.8848   21.4234 O   0  0  0  0  0  0
  -22.3500  -14.5511   20.6741 O   0  0  0  0  0  0
  -24.6184  -31.8710   23.2066 C   0  0  0  0  0  0
  -25.9095  -32.4831   23.8367 C   0  0  1  0  0  0
  -27.2064  -27.3917   20.1200 C   0  0  0  0  0  0
  -25.5927  -33.8628   24.2316 N   0  0  0  0  0  0
  -23.4053  -30.4915   21.5523 C   0  0  2  0  0  0
  -24.8466  -28.9489   20.1129 C   0  0  0  0  0  0
  -22.7428  -29.4703   22.5047 C   0  0  0  0  0  0
  -18.0301  -28.1354   22.8509 C   0  0  0  0  0  0
  -24.1492  -36.7294   23.2636 C   0  0  0  0  0  0
  -25.9366  -30.8142   21.3696 C   0  0  0  0  0  0
  -26.0082  -29.4468   20.7158 C   0  0  0  0  0  0
  -27.1966  -28.6774   20.7120 C   0  0  0  0  0  0
  -26.0400  -26.9163   19.4913 C   0  0  0  0  0  0
  -24.8605  -27.6866   19.4884 C   0  0  0  0  0  0
  -23.6119  -29.8223   20.1665 C   0  0  0  0  0  0
  -25.4116  -36.3115   24.0331 C   0  0  1  0  0  0
  -20.5901  -28.3656   23.1330 C   0  0  2  0  0  0
  -20.6812  -26.9397   22.5418 C   0  0  0  0  0  0
  -19.5772  -26.6373   21.5235 C   0  0  0  0  0  0
  -18.1941  -26.7917   22.1625 C   0  0  0  0  0  0
  -19.1550  -28.8824   23.2916 C   0  0  0  0  0  0
  -18.9473  -30.1443   23.8895 C   0  0  0  0  0  0
  -17.6472  -30.6569   24.0564 C   0  0  0  0  0  0
  -25.9052  -34.9488   23.5116 C   0  0  0  0  0  0
  -16.5360  -29.9062   23.6338 C   0  0  0  0  0  0
  -16.7292  -28.6483   23.0353 C   0  0  0  0  0  0
  -26.4485  -31.6609   25.0729 C   0  0  0  0  0  0
  -25.3724  -31.3734   26.1476 C   0  0  0  0  0  0
  -27.0346  -30.3050   24.6155 C   0  0  0  0  0  0
  -27.6061  -32.4347   25.7450 C   0  0  0  0  0  0
  -27.5573  -37.1815   24.8462 C   0  0  0  0  0  0
  -21.4173  -29.3019   22.3717 N   0  0  0  0  0  0
  -26.4294  -37.3804   23.9397 N   0  0  0  0  0  0
  -24.6713  -31.0755   22.1000 N   0  0  0  0  0  0
  -23.4167  -28.8353   23.3198 O   0  0  0  0  0  0
  -28.3400  -26.6092   20.1213 O   0  0  0  0  0  0
  -26.5619  -34.8943   22.4688 O   0  0  0  0  0  0
  -23.5386  -32.1557   23.7407 O   0  0  0  0  0  0
  -26.4498  -25.6807   22.8235 C   0  0  0  0  0  0
  -32.6344  -16.4116   18.4401 C   0  0  0  0  0  0
  -33.9304  -16.6871   20.6498 C   0  0  0  0  0  0
  -29.9483  -16.5989   23.4967 C   0  0  0  0  0  0
  -27.6389  -17.3353   23.2166 C   0  0  0  0  0  0
  -29.2817  -18.6361   24.5803 C   0  0  0  0  0  0
  -31.8528  -19.1872   21.8569 C   0  0  0  0  0  0
  -30.5615  -19.1812   19.6765 C   0  0  0  0  0  0
  -30.4054  -23.2464   21.6112 C   0  0  0  0  0  0
  -29.1872  -16.1611   19.5861 C   0  0  0  0  0  0
  -27.9445  -25.9243   22.5292 C   0  0  0  0  0  0
  -32.6506  -17.0511   19.8512 C   0  0  0  0  0  0
  -29.3591  -18.7199   21.8920 C   0  0  2  0  0  0
  -31.3098  -16.9792   20.7250 C   0  0  1  0  0  0
  -28.4601  -25.5464   21.1088 C   0  0  1  0  0  0
  -28.7502  -21.4026   21.0317 C   0  0  1  0  0  0
  -29.0933  -17.8594   23.2467 C   0  0  0  0  0  0
  -30.7272  -18.4653   21.0556 C   0  0  0  0  0  0
  -28.8941  -22.9138   21.5050 C   0  0  2  0  0  0
  -28.9725  -20.2825   22.1520 C   0  0  0  0  0  0
  -28.2031  -24.0488   20.6312 C   0  0  0  0  0  0
  -30.3857  -15.8313   20.3538 N   0  0  0  0  0  0
  -27.5623  -21.1838   20.4569 F   0  0  0  0  0  0
  -28.3713  -22.9899   22.7308 F   0  0  0  0  0  0
  -29.8357  -20.7809   23.0358 F   0  0  0  0  0  0
  -27.7809  -20.3019   22.7537 F   0  0  0  0  0  0
  -28.6843  -23.9522   19.3877 F   0  0  0  0  0  0
  -26.8927  -23.8116   20.5514 F   0  0  0  0  0  0
  -31.4288  -12.3985   19.1016 H   0  0  0  0  0  0
  -30.2706  -11.3879   19.9259 H   0  0  0  0  0  0
  -29.7276  -11.6717   17.4693 H   0  0  0  0  0  0
  -29.6142  -13.4010   17.6860 H   0  0  0  0  0  0
  -27.8522  -11.2442   18.9003 H   0  0  0  0  0  0
  -27.3347  -12.4795   17.7853 H   0  0  0  0  0  0
  -27.5566  -14.1912   19.3996 H   0  0  0  0  0  0
  -28.7069  -12.2388   21.4640 H   0  0  0  0  0  0
  -28.4683  -13.9572   21.6932 H   0  0  0  0  0  0
  -25.2712   -9.5641   22.4793 H   0  0  0  0  0  0
  -23.9969   -7.4576   22.7455 H   0  0  0  0  0  0
  -21.0824   -8.8728   19.8932 H   0  0  0  0  0  0
  -22.3654  -10.9651   19.6189 H   0  0  0  0  0  0
  -21.1983   -7.6127   23.9709 H   0  0  0  0  0  0
  -21.1496   -6.0520   25.9087 H   0  0  0  0  0  0
  -22.0594   -2.7591   23.2870 H   0  0  0  0  0  0
  -22.4024  -11.9866   22.4875 H   0  0  0  0  0  0
  -21.1023  -13.1211   22.2612 H   0  0  0  0  0  0
  -24.6537  -15.8364   20.5327 H   0  0  0  0  0  0
  -26.2691  -15.6214   20.0858 H   0  0  0  0  0  0
  -26.7179  -32.5525   23.1109 H   0  0  0  0  0  0
  -25.0052  -33.9800   25.0443 H   0  0  0  0  0  0
  -22.7006  -31.3134   21.4129 H   0  0  0  0  0  0
  -23.3758  -35.9617   23.3314 H   0  0  0  0  0  0
  -24.3577  -36.8919   22.2051 H   0  0  0  0  0  0
  -23.7251  -37.6493   23.6669 H   0  0  0  0  0  0
  -26.0754  -31.5792   20.6046 H   0  0  0  0  0  0
  -26.8139  -30.8567   22.0009 H   0  0  0  0  0  0
  -28.0938  -29.0511   21.1873 H   0  0  0  0  0  0
  -26.0445  -25.9438   19.0186 H   0  0  0  0  0  0
  -23.9728  -27.3025   19.0043 H   0  0  0  0  0  0
  -23.7181  -30.5980   19.4076 H   0  0  0  0  0  0
  -22.7306  -29.2458   19.8794 H   0  0  0  0  0  0
  -25.1305  -36.1952   25.0827 H   0  0  0  0  0  0
  -20.9991  -28.3197   24.1461 H   0  0  0  0  0  0
  -20.5780  -26.2244   23.3584 H   0  0  0  0  0  0
  -21.6676  -26.7494   22.1162 H   0  0  0  0  0  0
  -19.6928  -25.6295   21.1234 H   0  0  0  0  0  0
  -19.6703  -27.3220   20.6788 H   0  0  0  0  0  0
  -17.4245  -26.6739   21.3984 H   0  0  0  0  0  0
  -18.0268  -26.0042   22.8984 H   0  0  0  0  0  0
  -19.7956  -30.7273   24.2226 H   0  0  0  0  0  0
  -17.5035  -31.6252   24.5154 H   0  0  0  0  0  0
  -15.5360  -30.2939   23.7680 H   0  0  0  0  0  0
  -15.8705  -28.0798   22.7035 H   0  0  0  0  0  0
  -24.5882  -30.7137   25.7751 H   0  0  0  0  0  0
  -24.8925  -32.2919   26.4901 H   0  0  0  0  0  0
  -25.8018  -30.8888   27.0263 H   0  0  0  0  0  0
  -26.2943  -29.6762   24.1217 H   0  0  0  0  0  0
  -27.4143  -29.7362   25.4643 H   0  0  0  0  0  0
  -27.8746  -30.4358   23.9323 H   0  0  0  0  0  0
  -27.2723  -33.3666   26.2018 H   0  0  0  0  0  0
  -28.3816  -32.6898   25.0221 H   0  0  0  0  0  0
  -28.0795  -31.8494   26.5353 H   0  0  0  0  0  0
  -28.2596  -38.0102   24.7529 H   0  0  0  0  0  0
  -28.1086  -36.2664   24.6276 H   0  0  0  0  0  0
  -27.2312  -37.1418   25.8866 H   0  0  0  0  0  0
  -20.9342  -29.8651   21.6862 H   0  0  0  0  0  0
  -26.0181  -38.2877   24.1406 H   0  0  0  0  0  0
  -26.1744  -24.6360   22.6822 H   0  0  0  0  0  0
  -25.7936  -26.2854   22.2012 H   0  0  0  0  0  0
  -26.2174  -25.9357   23.8580 H   0  0  0  0  0  0
  -33.4441  -16.8158   17.8328 H   0  0  0  0  0  0
  -31.7052  -16.6178   17.9126 H   0  0  0  0  0  0
  -32.7823  -15.3338   18.4425 H   0  0  0  0  0  0
  -34.8073  -17.1515   20.2000 H   0  0  0  0  0  0
  -34.1266  -15.6164   20.6986 H   0  0  0  0  0  0
  -33.8865  -17.0467   21.6792 H   0  0  0  0  0  0
  -29.6407  -16.0893   24.4119 H   0  0  0  0  0  0
  -30.9997  -16.8373   23.6455 H   0  0  0  0  0  0
  -29.8266  -15.8392   22.7367 H   0  0  0  0  0  0
  -27.3949  -16.7940   24.1316 H   0  0  0  0  0  0
  -27.4804  -16.6405   22.3923 H   0  0  0  0  0  0
  -26.9059  -18.1330   23.1122 H   0  0  0  0  0  0
  -29.1486  -17.9898   25.4496 H   0  0  0  0  0  0
  -28.5651  -19.4410   24.7293 H   0  0  0  0  0  0
  -30.2852  -19.0482   24.6674 H   0  0  0  0  0  0
  -31.7414  -20.2663   21.8697 H   0  0  0  0  0  0
  -32.8584  -19.0449   21.4733 H   0  0  0  0  0  0
  -31.8757  -18.8464   22.8914 H   0  0  0  0  0  0
  -31.1071  -20.1241   19.6232 H   0  0  0  0  0  0
  -29.5168  -19.3594   19.4303 H   0  0  0  0  0  0
  -30.9068  -18.6053   18.8238 H   0  0  0  0  0  0
  -30.6002  -24.0643   22.3046 H   0  0  0  0  0  0
  -30.8013  -23.5351   20.6355 H   0  0  0  0  0  0
  -31.0163  -22.4170   21.9485 H   0  0  0  0  0  0
  -29.2141  -17.1440   19.1397 H   0  0  0  0  0  0
  -28.3037  -16.1101   20.2182 H   0  0  0  0  0  0
  -29.0808  -15.4869   18.7370 H   0  0  0  0  0  0
  -28.5151  -25.3583   23.2634 H   0  0  0  0  0  0
  -28.1955  -26.9635   22.7469 H   0  0  0  0  0  0
  -32.8337  -18.0942   19.6058 H   0  0  0  0  0  0
  -28.5903  -18.3655   21.2056 H   0  0  0  0  0  0
  -31.6870  -16.6375   21.6812 H   0  0  0  0  0  0
  -29.5385  -25.6157   21.2265 H   0  0  0  0  0  0
  -29.4486  -21.3295   20.2142 H   0  0  0  0  0  0
  1 25  1  0  0  0
  1 30  2  0  0  0
  1 92  1  0  0  0
  2  3  1  0  0  0
  2 25  1  0  0  0
  2 99  1  0  0  0
  2100  1  0  0  0
  3  4  1  0  0  0
  3101  1  0  0  0
  3102  1  0  0  0
  4  5  1  0  0  0
  4103  1  0  0  0
  4104  1  0  0  0
  5  6  1  0  0  0
  5 26  1  0  0  0
  5105  1  0  0  0
  6 25  1  0  0  0
  6106  1  0  0  0
  6107  1  0  0  0
  7  8  2  0  0  0
  7 26  1  0  0  0
  7 29  1  0  0  0
  8  9  1  0  0  0
  8 22  1  0  0  0
  9 10  1  0  0  0
  9 27  2  0  0  0
 10 11  2  0  0  0
 10 15  1  0  0  0
 11 12  1  0  0  0
 11108  1  0  0  0
 12 13  2  0  0  0
 12109  1  0  0  0
 13 14  1  0  0  0
 13 31  1  0  0  0
 14 15  2  0  0  0
 14110  1  0  0  0
 15111  1  0  0  0
 16 17  2  0  0  0
 16 21  1  0  0  0
 16 31  1  0  0  0
 17 18  1  0  0  0
 17112  1  0  0  0
 18 19  2  0  0  0
 18113  1  0  0  0
 19 20  1  0  0  0
 19 24  1  0  0  0
 20 21  2  0  0  0
 20114  1  0  0  0
 21 23  1  0  0  0
 22 28  1  0  0  0
 22 32  2  0  0  0
 26 27  1  0  0  0
 28115  1  0  0  0
 28116  1  0  0  0
 29117  1  0  0  0
 29118  1  0  0  0
 33 34  1  0  0  0
 33 66  1  0  0  0
 33 70  2  0  0  0
 34 36  1  0  0  0
 34 59  1  0  0  0
 34119  1  0  0  0
 35 44  2  0  0  0
 35 45  1  0  0  0
 35 68  1  0  0  0
 36 56  1  0  0  0
 36120  1  0  0  0
 37 39  1  0  0  0
 37 47  1  0  0  0
 37 66  1  0  0  0
 37121  1  0  0  0
 38 43  2  0  0  0
 38 46  1  0  0  0
 38 47  1  0  0  0
 39 64  1  0  0  0
 39 67  2  0  0  0
 40 52  1  0  0  0
 40 53  2  0  0  0
 40 58  1  0  0  0
 41122  1  0  0  0
 41123  1  0  0  0
 41124  1  0  0  0
 41 48  1  0  0  0
 42 43  1  0  0  0
 42 66  1  0  0  0
 42125  1  0  0  0
 42126  1  0  0  0
 43 44  1  0  0  0
 44127  1  0  0  0
 45 46  2  0  0  0
 45128  1  0  0  0
 46129  1  0  0  0
 47130  1  0  0  0
 47131  1  0  0  0
 48 56  1  0  0  0
 48 65  1  0  0  0
 48132  1  0  0  0
 49 50  1  0  0  0
 49 53  1  0  0  0
 49 64  1  0  0  0
 49133  1  0  0  0
 50 51  1  0  0  0
 50134  1  0  0  0
 50135  1  0  0  0
 51 52  1  0  0  0
 51136  1  0  0  0
 51137  1  0  0  0
 52138  1  0  0  0
 52139  1  0  0  0
 53 54  1  0  0  0
 54 55  2  0  0  0
 54140  1  0  0  0
 55 57  1  0  0  0
 55141  1  0  0  0
 56 69  2  0  0  0
 57 58  2  0  0  0
 57142  1  0  0  0
 58143  1  0  0  0
 59 60  1  0  0  0
 59 61  1  0  0  0
 59 62  1  0  0  0
 60144  1  0  0  0
 60145  1  0  0  0
 60146  1  0  0  0
 61147  1  0  0  0
 61148  1  0  0  0
 61149  1  0  0  0
 62150  1  0  0  0
 62151  1  0  0  0
 62152  1  0  0  0
 63 65  1  0  0  0
 63153  1  0  0  0
 63154  1  0  0  0
 63155  1  0  0  0
 64156  1  0  0  0
 65157  1  0  0  0
 68 85  1  0  0  0
 71 81  1  0  0  0
 71158  1  0  0  0
 71159  1  0  0  0
 71160  1  0  0  0
 72161  1  0  0  0
 72162  1  0  0  0
 72163  1  0  0  0
 72 82  1  0  0  0
 73 82  1  0  0  0
 73164  1  0  0  0
 73165  1  0  0  0
 73166  1  0  0  0
 74167  1  0  0  0
 74168  1  0  0  0
 74169  1  0  0  0
 74 87  1  0  0  0
 75 87  1  0  0  0
 75170  1  0  0  0
 75171  1  0  0  0
 75172  1  0  0  0
 76 87  1  0  0  0
 76173  1  0  0  0
 76174  1  0  0  0
 76175  1  0  0  0
 77176  1  0  0  0
 77177  1  0  0  0
 77178  1  0  0  0
 77 88  1  0  0  0
 78 88  1  0  0  0
 78179  1  0  0  0
 78180  1  0  0  0
 78181  1  0  0  0
 79182  1  0  0  0
 79183  1  0  0  0
 79184  1  0  0  0
 79 89  1  0  0  0
 80 92  1  0  0  0
 80185  1  0  0  0
 80186  1  0  0  0
 80187  1  0  0  0
 81188  1  0  0  0
 81189  1  0  0  0
 81 85  1  0  0  0
 82 84  1  0  0  0
 82190  1  0  0  0
 83 87  1  0  0  0
 83 88  1  0  0  0
 83 90  1  0  0  0
 83191  1  0  0  0
 84 88  1  0  0  0
 84 92  1  0  0  0
 84192  1  0  0  0
 85 91  1  0  0  0
 85193  1  0  0  0
 86 89  1  0  0  0
 86 90  1  0  0  0
 86 93  1  0  0  0
 86194  1  0  0  0
 89 91  1  0  0  0
 89 94  1  0  0  0
 90 95  1  0  0  0
 90 96  1  0  0  0
 91 97  1  0  0  0
 91 98  1  0  0  0
M  ISO  4   1 100  68 101  85 101  92 100
M  END
> <chiral flag>
0

> <version>
0

> <s_m_source_file>
/data/baiqing/PycharmProjects/Reinvent-master-3.2/result/LINK_invent/BTK/process_docking_weight1_custom_sum_contain_oxygen_bond_distance_aromatic_linkinvent_7_9_3/rearranged_h_0066.sdf

> <i_m_source_file_index>
60

> <r_mmod_Potential_Energy-OPLS-2005>
734.724548339844

> <r_mmod_Stretch_Energy-OPLS-2005>
119.970329284668

> <r_mmod_Bend_Energy-OPLS-2005>
260.606201171875

> <r_mmod_Torsional_Energy-OPLS-2005>
431.271057128906

> <r_mmod_Improper_Torsional_Energy-OPLS-2005>
5.56679058074951

> <r_mmod_Van_der_Waal_Energy-OPLS-2005>
211.91780090332

> <r_mmod_Electrostatic_Energy-OPLS-2005>
-211.745101928711

> <r_mmod_Solvation_Energy-OPLS-2005>
-157.779388427734

> <b_mmod_Minimization_Converged-OPLS-2005>
0

> <r_mmod_RMS_Derivative-OPLS-2005>
4.57905197143555

$$$$
64
                    3D
 Structure written by MMmdl.
182190  0  0  1  0            999 V2000
  -30.6815  -14.4514   20.6181 C   0  0  0  0  0  0
  -30.4375  -12.3066   19.4082 C   0  0  0  0  0  0
  -29.4912  -12.4835   18.2017 C   0  0  0  0  0  0
  -28.0070  -12.3836   18.6146 C   0  0  0  0  0  0
  -27.6692  -13.1855   19.9028 C   0  0  2  0  0  0
  -28.7150  -12.8983   20.9967 C   0  0  0  0  0  0
  -25.2613  -13.8105   20.5747 C   0  0  0  0  0  0
  -24.1827  -13.0405   20.9175 C   0  0  0  0  0  0
  -24.6352  -11.6864   20.8761 C   0  0  0  0  0  0
  -23.9006  -10.4269   21.0409 C   0  0  0  0  0  0
  -24.3564   -9.4188   21.9178 C   0  0  0  0  0  0
  -23.6252   -8.2215   22.0745 C   0  0  0  0  0  0
  -22.4236   -8.0249   21.3530 C   0  0  0  0  0  0
  -21.9858   -9.0235   20.4652 C   0  0  0  0  0  0
  -22.7178  -10.2121   20.3065 C   0  0  0  0  0  0
  -21.6841   -6.0711   22.5277 C   0  0  0  0  0  0
  -21.4007   -6.5612   23.8213 C   0  0  0  0  0  0
  -21.3669   -5.6772   24.9185 C   0  0  0  0  0  0
  -21.6051   -4.3032   24.7232 C   0  0  0  0  0  0
  -21.8810   -3.8123   23.4350 C   0  0  0  0  0  0
  -21.9195   -4.6942   22.3410 C   0  0  0  0  0  0
  -22.7862  -13.5239   21.1810 C   0  0  0  0  0  0
  -22.1655   -4.2122   21.0993 F   0  0  0  0  0  0
  -21.5669   -3.4522   25.7748 F   0  0  0  0  0  0
  -30.0334  -13.2624   20.4512 N   0  0  0  0  0  0
  -26.3057  -12.9229   20.3555 N   0  0  0  0  0  0
  -25.9288  -11.6405   20.5870 N   0  0  0  0  0  0
  -22.0485  -12.8304   22.0405 N   0  0  0  0  0  0
  -25.4357  -15.1822   20.4140 N   0  0  0  0  0  0
  -31.7545  -14.6910   20.0536 O   0  0  0  0  0  0
  -21.6615   -6.8839   21.4226 O   0  0  0  0  0  0
  -22.3567  -14.5537   20.6637 O   0  0  0  0  0  0
  -24.6131  -31.8669   23.2106 C   0  0  0  0  0  0
  -25.9033  -32.4819   23.8382 C   0  0  1  0  0  0
  -27.2463  -27.4617   20.0986 C   0  0  0  0  0  0
  -25.5891  -33.8618   24.2340 N   0  0  0  0  0  0
  -23.4005  -30.4889   21.5502 C   0  0  2  0  0  0
  -24.8528  -28.9542   20.1150 C   0  0  0  0  0  0
  -22.7402  -29.4648   22.5021 C   0  0  0  0  0  0
  -18.0271  -28.1312   22.8568 C   0  0  0  0  0  0
  -24.1482  -36.7317   23.2631 C   0  0  0  0  0  0
  -25.9244  -30.8434   21.3595 C   0  0  0  0  0  0
  -26.0084  -29.4770   20.7126 C   0  0  0  0  0  0
  -27.2092  -28.7354   20.7048 C   0  0  0  0  0  0
  -26.0829  -26.9431   19.4954 C   0  0  0  0  0  0
  -24.8835  -27.6846   19.5067 C   0  0  0  0  0  0
  -23.6107  -29.8151   20.1669 C   0  0  0  0  0  0
  -25.4099  -36.3113   24.0341 C   0  0  1  0  0  0
  -20.5867  -28.3670   23.1308 C   0  0  2  0  0  0
  -20.6853  -26.9470   22.5299 C   0  0  0  0  0  0
  -19.5692  -26.6318   21.5264 C   0  0  0  0  0  0
  -18.1954  -26.7780   22.1886 C   0  0  0  0  0  0
  -19.1515  -28.8835   23.2881 C   0  0  0  0  0  0
  -18.9438  -30.1491   23.8780 C   0  0  0  0  0  0
  -17.6439  -30.6638   24.0399 C   0  0  0  0  0  0
  -25.9023  -34.9474   23.5145 C   0  0  0  0  0  0
  -16.5339  -29.9076   23.6260 C   0  0  0  0  0  0
  -16.7258  -28.6421   23.0417 C   0  0  0  0  0  0
  -26.4476  -31.6586   25.0698 C   0  0  0  0  0  0
  -25.3753  -31.3686   26.1463 C   0  0  0  0  0  0
  -27.0286  -30.3026   24.6042 C   0  0  0  0  0  0
  -27.6075  -32.4277   25.7462 C   0  0  0  0  0  0
  -27.5582  -37.1815   24.8467 C   0  0  0  0  0  0
  -21.4123  -29.3084   22.3788 N   0  0  0  0  0  0
  -26.4294  -37.3795   23.9413 N   0  0  0  0  0  0
  -24.6633  -31.0805   22.0989 N   0  0  0  0  0  0
  -23.4166  -28.8183   23.3046 O   0  0  0  0  0  0
  -28.4014  -26.7226   20.0905 O   0  0  0  0  0  0
  -26.5587  -34.8931   22.4702 O   0  0  0  0  0  0
  -23.5343  -32.1413   23.7530 O   0  0  0  0  0  0
  -28.8458  -17.2862   20.1637 C   0  0  0  0  0  0
  -29.9123  -18.3274   18.1528 C   0  0  0  0  0  0
  -27.4144  -18.3018   18.3610 C   0  0  0  0  0  0
  -28.6605  -16.1883   17.8846 C   0  0  0  0  0  0
  -28.3799  -21.5178   24.5754 C   0  0  0  0  0  0
  -27.1796  -20.3045   22.7502 C   0  0  0  0  0  0
  -27.0130  -23.9039   22.7978 C   0  0  0  0  0  0
  -26.8411  -22.6903   20.6330 C   0  0  0  0  0  0
  -30.0958  -15.5539   21.5320 C   0  0  0  0  0  0
  -29.6489  -19.9648   23.1320 C   0  0  0  0  0  0
  -28.6525  -24.4003   20.8481 C   0  0  0  0  0  0
  -28.8658  -22.2072   22.1426 C   0  0  0  0  0  0
  -29.9292  -19.1427   21.8507 C   0  0  0  0  0  0
  -28.5714  -25.9013   21.2508 C   0  0  0  0  0  0
  -28.7064  -17.5110   18.6541 C   0  0  0  0  0  0
  -28.4925  -21.0183   23.1147 C   0  0  0  0  0  0
  -27.8418  -23.3000   21.6431 C   0  0  0  0  0  0
  -28.1490  -17.6842   21.1185 N   0  0  0  0  0  0
  -29.9333  -16.8802   20.9074 N   0  0  0  0  0  0
  -29.3201  -17.7862   21.8229 N   0  0  0  0  0  0
  -31.4742  -12.4402   19.0933 H   0  0  0  0  0  0
  -30.3838  -11.2871   19.7923 H   0  0  0  0  0  0
  -29.7122  -11.7308   17.4448 H   0  0  0  0  0  0
  -29.6754  -13.4412   17.7209 H   0  0  0  0  0  0
  -27.7834  -11.3279   18.7763 H   0  0  0  0  0  0
  -27.3686  -12.7049   17.7908 H   0  0  0  0  0  0
  -27.7363  -14.2453   19.6793 H   0  0  0  0  0  0
  -28.7000  -11.8336   21.2360 H   0  0  0  0  0  0
  -28.4584  -13.3757   21.9386 H   0  0  0  0  0  0
  -25.2693   -9.5678   22.4766 H   0  0  0  0  0  0
  -23.9976   -7.4602   22.7447 H   0  0  0  0  0  0
  -21.0786   -8.8742   19.8961 H   0  0  0  0  0  0
  -22.3590  -10.9670   19.6202 H   0  0  0  0  0  0
  -21.1965   -7.6114   23.9707 H   0  0  0  0  0  0
  -21.1517   -6.0511   25.9093 H   0  0  0  0  0  0
  -22.0573   -2.7577   23.2877 H   0  0  0  0  0  0
  -22.4045  -11.9969   22.4843 H   0  0  0  0  0  0
  -21.1135  -13.1441   22.2596 H   0  0  0  0  0  0
  -24.6686  -15.8382   20.5089 H   0  0  0  0  0  0
  -26.3028  -15.6259   20.1442 H   0  0  0  0  0  0
  -26.7103  -32.5561   23.1154 H   0  0  0  0  0  0
  -25.0043  -33.9765   25.0491 H   0  0  0  0  0  0
  -22.6890  -31.3052   21.4090 H   0  0  0  0  0  0
  -23.3735  -35.9657   23.3300 H   0  0  0  0  0  0
  -24.3584  -36.8918   22.2046 H   0  0  0  0  0  0
  -23.7264  -37.6537   23.6639 H   0  0  0  0  0  0
  -26.0269  -31.6080   20.5884 H   0  0  0  0  0  0
  -26.8131  -30.9029   21.9735 H   0  0  0  0  0  0
  -28.1043  -29.1332   21.1661 H   0  0  0  0  0  0
  -26.1090  -25.9669   19.0291 H   0  0  0  0  0  0
  -23.9957  -27.2739   19.0472 H   0  0  0  0  0  0
  -23.7117  -30.5889   19.4036 H   0  0  0  0  0  0
  -22.7377  -29.2274   19.8760 H   0  0  0  0  0  0
  -25.1286  -36.1971   25.0837 H   0  0  0  0  0  0
  -20.9949  -28.3204   24.1439 H   0  0  0  0  0  0
  -20.6025  -26.2267   23.3435 H   0  0  0  0  0  0
  -21.6664  -26.7669   22.0887 H   0  0  0  0  0  0
  -19.6932  -25.6219   21.1333 H   0  0  0  0  0  0
  -19.6459  -27.3063   20.6724 H   0  0  0  0  0  0
  -17.4057  -26.6203   21.4520 H   0  0  0  0  0  0
  -18.0649  -26.0072   22.9507 H   0  0  0  0  0  0
  -19.7912  -30.7375   24.2056 H   0  0  0  0  0  0
  -17.4984  -31.6384   24.4853 H   0  0  0  0  0  0
  -15.5330  -30.2960   23.7585 H   0  0  0  0  0  0
  -15.8653  -28.0666   22.7272 H   0  0  0  0  0  0
  -24.5938  -30.7017   25.7821 H   0  0  0  0  0  0
  -24.8921  -32.2827   26.4912 H   0  0  0  0  0  0
  -25.8113  -30.8875   27.0224 H   0  0  0  0  0  0
  -26.2810  -29.6803   24.1114 H   0  0  0  0  0  0
  -27.4086  -29.7258   25.4483 H   0  0  0  0  0  0
  -27.8630  -30.4338   23.9149 H   0  0  0  0  0  0
  -27.2710  -33.3557   26.2095 H   0  0  0  0  0  0
  -28.3855  -32.6859   25.0267 H   0  0  0  0  0  0
  -28.0763  -31.8350   26.5327 H   0  0  0  0  0  0
  -28.2622  -38.0092   24.7506 H   0  0  0  0  0  0
  -28.1054  -36.2636   24.6288 H   0  0  0  0  0  0
  -27.2310  -37.1475   25.8872 H   0  0  0  0  0  0
  -20.9290  -29.8845   21.7054 H   0  0  0  0  0  0
  -26.0181  -38.2875   24.1399 H   0  0  0  0  0  0
  -29.9564  -19.3082   18.6286 H   0  0  0  0  0  0
  -29.8565  -18.4916   17.0762 H   0  0  0  0  0  0
  -30.8558  -17.8202   18.3579 H   0  0  0  0  0  0
  -27.4364  -19.2897   18.8252 H   0  0  0  0  0  0
  -26.5372  -17.7796   18.7471 H   0  0  0  0  0  0
  -27.2670  -18.4462   17.2901 H   0  0  0  0  0  0
  -29.5141  -15.5666   18.1413 H   0  0  0  0  0  0
  -28.6877  -16.3544   16.8068 H   0  0  0  0  0  0
  -27.7414  -15.6424   18.0864 H   0  0  0  0  0  0
  -28.1986  -20.6904   25.2629 H   0  0  0  0  0  0
  -27.5594  -22.2108   24.7406 H   0  0  0  0  0  0
  -29.2981  -22.0101   24.9019 H   0  0  0  0  0  0
  -27.0591  -19.3795   23.3160 H   0  0  0  0  0  0
  -27.1459  -20.0530   21.6912 H   0  0  0  0  0  0
  -26.3048  -20.9105   22.9764 H   0  0  0  0  0  0
  -26.3329  -24.6816   22.4492 H   0  0  0  0  0  0
  -27.6494  -24.3247   23.5767 H   0  0  0  0  0  0
  -26.3556  -23.1684   23.2557 H   0  0  0  0  0  0
  -26.2641  -23.4732   20.1390 H   0  0  0  0  0  0
  -26.1076  -22.0367   21.0989 H   0  0  0  0  0  0
  -27.3426  -22.1155   19.8530 H   0  0  0  0  0  0
  -29.1556  -15.2736   21.9922 H   0  0  0  0  0  0
  -30.7951  -15.6600   22.3621 H   0  0  0  0  0  0
  -30.5697  -20.4956   23.3765 H   0  0  0  0  0  0
  -29.5095  -19.2630   23.9555 H   0  0  0  0  0  0
  -29.7129  -24.1484   20.8493 H   0  0  0  0  0  0
  -28.4040  -24.3360   19.7883 H   0  0  0  0  0  0
  -29.3003  -21.7802   21.2393 H   0  0  0  0  0  0
  -29.7056  -22.7288   22.6075 H   0  0  0  0  0  0
  -31.0087  -19.0107   21.7658 H   0  0  0  0  0  0
  -29.6351  -19.6996   20.9629 H   0  0  0  0  0  0
  -29.5091  -26.1933   21.7259 H   0  0  0  0  0  0
  -27.8112  -26.1309   21.9923 H   0  0  0  0  0  0
  1 25  1  0  0  0
  1 30  2  0  0  0
  1 79  1  0  0  0
  2  3  1  0  0  0
  2 25  1  0  0  0
  2 91  1  0  0  0
  2 92  1  0  0  0
  3  4  1  0  0  0
  3 93  1  0  0  0
  3 94  1  0  0  0
  4  5  1  0  0  0
  4 95  1  0  0  0
  4 96  1  0  0  0
  5  6  1  0  0  0
  5 26  1  0  0  0
  5 97  1  0  0  0
  6 25  1  0  0  0
  6 98  1  0  0  0
  6 99  1  0  0  0
  7  8  2  0  0  0
  7 26  1  0  0  0
  7 29  1  0  0  0
  8  9  1  0  0  0
  8 22  1  0  0  0
  9 10  1  0  0  0
  9 27  2  0  0  0
 10 11  2  0  0  0
 10 15  1  0  0  0
 11 12  1  0  0  0
 11100  1  0  0  0
 12 13  2  0  0  0
 12101  1  0  0  0
 13 14  1  0  0  0
 13 31  1  0  0  0
 14 15  2  0  0  0
 14102  1  0  0  0
 15103  1  0  0  0
 16 17  2  0  0  0
 16 21  1  0  0  0
 16 31  1  0  0  0
 17 18  1  0  0  0
 17104  1  0  0  0
 18 19  2  0  0  0
 18105  1  0  0  0
 19 20  1  0  0  0
 19 24  1  0  0  0
 20 21  2  0  0  0
 20106  1  0  0  0
 21 23  1  0  0  0
 22 28  1  0  0  0
 22 32  2  0  0  0
 26 27  1  0  0  0
 28107  1  0  0  0
 28108  1  0  0  0
 29109  1  0  0  0
 29110  1  0  0  0
 33 34  1  0  0  0
 33 66  1  0  0  0
 33 70  2  0  0  0
 34 36  1  0  0  0
 34 59  1  0  0  0
 34111  1  0  0  0
 35 44  2  0  0  0
 35 45  1  0  0  0
 35 68  1  0  0  0
 36 56  1  0  0  0
 36112  1  0  0  0
 37 39  1  0  0  0
 37 47  1  0  0  0
 37 66  1  0  0  0
 37113  1  0  0  0
 38 43  2  0  0  0
 38 46  1  0  0  0
 38 47  1  0  0  0
 39 64  1  0  0  0
 39 67  2  0  0  0
 40 52  1  0  0  0
 40 53  2  0  0  0
 40 58  1  0  0  0
 41114  1  0  0  0
 41115  1  0  0  0
 41116  1  0  0  0
 41 48  1  0  0  0
 42 43  1  0  0  0
 42 66  1  0  0  0
 42117  1  0  0  0
 42118  1  0  0  0
 43 44  1  0  0  0
 44119  1  0  0  0
 45 46  2  0  0  0
 45120  1  0  0  0
 46121  1  0  0  0
 47122  1  0  0  0
 47123  1  0  0  0
 48 56  1  0  0  0
 48 65  1  0  0  0
 48124  1  0  0  0
 49 50  1  0  0  0
 49 53  1  0  0  0
 49 64  1  0  0  0
 49125  1  0  0  0
 50 51  1  0  0  0
 50126  1  0  0  0
 50127  1  0  0  0
 51 52  1  0  0  0
 51128  1  0  0  0
 51129  1  0  0  0
 52130  1  0  0  0
 52131  1  0  0  0
 53 54  1  0  0  0
 54 55  2  0  0  0
 54132  1  0  0  0
 55 57  1  0  0  0
 55133  1  0  0  0
 56 69  2  0  0  0
 57 58  2  0  0  0
 57134  1  0  0  0
 58135  1  0  0  0
 59 60  1  0  0  0
 59 61  1  0  0  0
 59 62  1  0  0  0
 60136  1  0  0  0
 60137  1  0  0  0
 60138  1  0  0  0
 61139  1  0  0  0
 61140  1  0  0  0
 61141  1  0  0  0
 62142  1  0  0  0
 62143  1  0  0  0
 62144  1  0  0  0
 63 65  1  0  0  0
 63145  1  0  0  0
 63146  1  0  0  0
 63147  1  0  0  0
 64148  1  0  0  0
 65149  1  0  0  0
 68 84  1  0  0  0
 71 85  1  0  0  0
 71 88  2  0  0  0
 71 89  1  0  0  0
 72150  1  0  0  0
 72151  1  0  0  0
 72152  1  0  0  0
 72 85  1  0  0  0
 73 85  1  0  0  0
 73153  1  0  0  0
 73154  1  0  0  0
 73155  1  0  0  0
 74 85  1  0  0  0
 74156  1  0  0  0
 74157  1  0  0  0
 74158  1  0  0  0
 75159  1  0  0  0
 75160  1  0  0  0
 75161  1  0  0  0
 75 86  1  0  0  0
 76 86  1  0  0  0
 76162  1  0  0  0
 76163  1  0  0  0
 76164  1  0  0  0
 77165  1  0  0  0
 77166  1  0  0  0
 77167  1  0  0  0
 77 87  1  0  0  0
 78 87  1  0  0  0
 78168  1  0  0  0
 78169  1  0  0  0
 78170  1  0  0  0
 79 89  1  0  0  0
 79171  1  0  0  0
 79172  1  0  0  0
 80 83  1  0  0  0
 80 86  1  0  0  0
 80173  1  0  0  0
 80174  1  0  0  0
 81 84  1  0  0  0
 81 87  1  0  0  0
 81175  1  0  0  0
 81176  1  0  0  0
 82 86  1  0  0  0
 82 87  1  0  0  0
 82177  1  0  0  0
 82178  1  0  0  0
 83 90  1  0  0  0
 83179  1  0  0  0
 83180  1  0  0  0
 84181  1  0  0  0
 84182  1  0  0  0
 88 90  1  0  0  0
 89 90  1  0  0  0
M  ISO  4   1 100  68 101  79 100  84 101
M  END
> <chiral flag>
0

> <version>
0

> <s_m_source_file>
/data/baiqing/PycharmProjects/Reinvent-master-3.2/result/LINK_invent/BTK/process_docking_weight1_custom_sum_contain_oxygen_bond_distance_aromatic_linkinvent_7_9_3/rearranged_h_0066.sdf

> <i_m_source_file_index>
61

> <r_mmod_Potential_Energy-OPLS-2005>
177.030670166016

> <r_mmod_Stretch_Energy-OPLS-2005>
49.3665351867676

> <r_mmod_Bend_Energy-OPLS-2005>
179.719955444336

> <r_mmod_Torsional_Energy-OPLS-2005>
274.376251220703

> <r_mmod_Improper_Torsional_Energy-OPLS-2005>
18.1623992919922

> <r_mmod_Van_der_Waal_Energy-OPLS-2005>
142.593780517578

> <r_mmod_Electrostatic_Energy-OPLS-2005>
-334.042572021484

> <r_mmod_Solvation_Energy-OPLS-2005>
-163.149871826172

> <b_mmod_Minimization_Converged-OPLS-2005>
0

> <r_mmod_RMS_Derivative-OPLS-2005>
3.03464150428772

$$$$
65
                    3D
 Structure written by MMmdl.
192200  0  0  1  0            999 V2000
  -30.7326  -14.5438   20.4804 C   0  0  0  0  0  0
  -30.4004  -12.3282   19.4467 C   0  0  0  0  0  0
  -29.4866  -12.4904   18.2168 C   0  0  0  0  0  0
  -28.0136  -12.3122   18.6312 C   0  0  0  0  0  0
  -27.6398  -13.1809   19.8563 C   0  0  2  0  0  0
  -28.6941  -13.0676   20.9857 C   0  0  0  0  0  0
  -25.2519  -13.8053   20.5676 C   0  0  0  0  0  0
  -24.1764  -13.0371   20.9211 C   0  0  0  0  0  0
  -24.6300  -11.6838   20.8788 C   0  0  0  0  0  0
  -23.8959  -10.4244   21.0465 C   0  0  0  0  0  0
  -24.3543   -9.4153   21.9219 C   0  0  0  0  0  0
  -23.6241   -8.2175   22.0761 C   0  0  0  0  0  0
  -22.4225   -8.0226   21.3542 C   0  0  0  0  0  0
  -21.9846   -9.0186   20.4642 C   0  0  0  0  0  0
  -22.7155  -10.2083   20.3081 C   0  0  0  0  0  0
  -21.6830   -6.0689   22.5259 C   0  0  0  0  0  0
  -21.3996   -6.5602   23.8195 C   0  0  0  0  0  0
  -21.3675   -5.6779   24.9167 C   0  0  0  0  0  0
  -21.6063   -4.3036   24.7241 C   0  0  0  0  0  0
  -21.8824   -3.8113   23.4362 C   0  0  0  0  0  0
  -21.9179   -4.6912   22.3412 C   0  0  0  0  0  0
  -22.7809  -13.5204   21.1911 C   0  0  0  0  0  0
  -22.1653   -4.2099   21.0994 F   0  0  0  0  0  0
  -21.5656   -3.4520   25.7756 F   0  0  0  0  0  0
  -30.0129  -13.3768   20.4169 N   0  0  0  0  0  0
  -26.2894  -12.9162   20.3329 N   0  0  0  0  0  0
  -25.9213  -11.6364   20.5810 N   0  0  0  0  0  0
  -22.0443  -12.8182   22.0467 N   0  0  0  0  0  0
  -25.4273  -15.1768   20.4056 N   0  0  0  0  0  0
  -31.9156  -14.5208   20.1245 O   0  0  0  0  0  0
  -21.6625   -6.8805   21.4220 O   0  0  0  0  0  0
  -22.3492  -14.5520   20.6781 O   0  0  0  0  0  0
  -24.6136  -31.8689   23.2120 C   0  0  0  0  0  0
  -25.9038  -32.4832   23.8389 C   0  0  1  0  0  0
  -27.2389  -27.4616   20.0974 C   0  0  0  0  0  0
  -25.5910  -33.8625   24.2325 N   0  0  0  0  0  0
  -23.3998  -30.4926   21.5524 C   0  0  2  0  0  0
  -24.8456  -28.9656   20.1087 C   0  0  0  0  0  0
  -22.7392  -29.4665   22.4997 C   0  0  0  0  0  0
  -18.0274  -28.1382   22.8488 C   0  0  0  0  0  0
  -24.1499  -36.7332   23.2644 C   0  0  0  0  0  0
  -25.9225  -30.8475   21.3563 C   0  0  0  0  0  0
  -26.0033  -29.4844   20.7039 C   0  0  0  0  0  0
  -27.2012  -28.7406   20.6922 C   0  0  0  0  0  0
  -26.0734  -26.9627   19.4736 C   0  0  0  0  0  0
  -24.8756  -27.7038   19.4905 C   0  0  0  0  0  0
  -23.6049  -29.8272   20.1649 C   0  0  0  0  0  0
  -25.4118  -36.3124   24.0340 C   0  0  1  0  0  0
  -20.5860  -28.3675   23.1334 C   0  0  2  0  0  0
  -20.6769  -26.9419   22.5425 C   0  0  0  0  0  0
  -19.5753  -26.6392   21.5222 C   0  0  0  0  0  0
  -18.1924  -26.7933   22.1619 C   0  0  0  0  0  0
  -19.1516  -28.8849   23.2909 C   0  0  0  0  0  0
  -18.9444  -30.1454   23.8911 C   0  0  0  0  0  0
  -17.6444  -30.6586   24.0578 C   0  0  0  0  0  0
  -25.9036  -34.9488   23.5127 C   0  0  0  0  0  0
  -16.5338  -29.9085   23.6335 C   0  0  0  0  0  0
  -16.7263  -28.6517   23.0335 C   0  0  0  0  0  0
  -26.4490  -31.6600   25.0707 C   0  0  0  0  0  0
  -25.3744  -31.3685   26.1449 C   0  0  0  0  0  0
  -27.0324  -30.3047   24.6051 C   0  0  0  0  0  0
  -27.6066  -32.4329   25.7466 C   0  0  0  0  0  0
  -27.5584  -37.1820   24.8457 C   0  0  0  0  0  0
  -21.4127  -29.3054   22.3744 N   0  0  0  0  0  0
  -26.4297  -37.3810   23.9408 N   0  0  0  0  0  0
  -24.6640  -31.0812   22.1006 N   0  0  0  0  0  0
  -23.4171  -28.8201   23.3029 O   0  0  0  0  0  0
  -28.4214  -26.7598   20.1429 O   0  0  0  0  0  0
  -26.5589  -34.8939   22.4686 O   0  0  0  0  0  0
  -23.5339  -32.1433   23.7551 O   0  0  0  0  0  0
  -32.0252  -16.8805   22.2639 C   0  0  0  0  0  0
  -31.7479  -18.1635   22.4833 C   0  0  0  0  0  0
  -26.3182  -24.7046   21.6937 C   0  0  0  0  0  0
  -27.5353  -25.4972   24.1824 C   0  0  0  0  0  0
  -30.9876  -25.8968   22.4399 C   0  0  0  0  0  0
  -30.9418  -23.6150   24.9976 C   0  0  0  0  0  0
  -33.3970  -19.8369   23.3662 C   0  0  0  0  0  0
  -33.5206  -19.1110   20.9884 C   0  0  0  0  0  0
  -28.6606  -16.2318   20.7032 C   0  0  0  0  0  0
  -30.7122  -16.8930   19.6003 C   0  0  0  0  0  0
  -29.4149  -18.1994   23.3535 C   0  0  0  0  0  0
  -30.7930  -21.3646   22.7095 C   0  0  0  0  0  0
  -31.6375  -20.6058   21.6526 C   0  0  0  0  0  0
  -28.3822  -25.3361   20.3088 C   0  0  0  0  0  0
  -27.8588  -24.8237   21.6870 C   0  0  1  0  0  0
  -28.4389  -25.5904   22.9255 C   0  0  2  0  0  0
  -29.9084  -25.2359   23.3242 C   0  0  1  0  0  0
  -30.1687  -23.7279   23.6674 C   0  0  1  0  0  0
  -30.8597  -22.9030   22.5443 C   0  0  1  0  0  0
  -32.5439  -19.4314   22.1446 C   0  0  0  0  0  0
  -30.1876  -16.0093   20.7799 C   0  0  0  0  0  0
  -30.6892  -16.5561   22.0675 N   0  0  0  0  0  0
  -30.3951  -17.9570   22.2992 N   0  0  0  0  0  0
  -32.1449  -23.2657   22.4903 F   0  0  0  0  0  0
  -31.4475  -12.3739   19.1425 H   0  0  0  0  0  0
  -30.2681  -11.3354   19.8795 H   0  0  0  0  0  0
  -29.7502  -11.7667   17.4446 H   0  0  0  0  0  0
  -29.6357  -13.4773   17.7764 H   0  0  0  0  0  0
  -27.8610  -11.2574   18.8614 H   0  0  0  0  0  0
  -27.3525  -12.5409   17.7948 H   0  0  0  0  0  0
  -27.6256  -14.1832   19.4591 H   0  0  0  0  0  0
  -28.6968  -12.0504   21.3764 H   0  0  0  0  0  0
  -28.4617  -13.6830   21.8521 H   0  0  0  0  0  0
  -25.2690   -9.5640   22.4796 H   0  0  0  0  0  0
  -23.9961   -7.4553   22.7472 H   0  0  0  0  0  0
  -21.0780   -8.8683   19.8929 H   0  0  0  0  0  0
  -22.3608  -10.9622   19.6192 H   0  0  0  0  0  0
  -21.1976   -7.6109   23.9671 H   0  0  0  0  0  0
  -21.1519   -6.0525   25.9075 H   0  0  0  0  0  0
  -22.0603   -2.7570   23.2885 H   0  0  0  0  0  0
  -22.4030  -11.9800   22.4802 H   0  0  0  0  0  0
  -21.1080  -13.1233   22.2731 H   0  0  0  0  0  0
  -24.6715  -15.8403   20.5318 H   0  0  0  0  0  0
  -26.2943  -15.6096   20.1143 H   0  0  0  0  0  0
  -26.7125  -32.5573   23.1167 H   0  0  0  0  0  0
  -25.0071  -33.9782   25.0482 H   0  0  0  0  0  0
  -22.6889  -31.3110   21.4172 H   0  0  0  0  0  0
  -23.3748  -35.9672   23.3309 H   0  0  0  0  0  0
  -24.3602  -36.8948   22.2055 H   0  0  0  0  0  0
  -23.7244  -37.6541   23.6655 H   0  0  0  0  0  0
  -26.0184  -31.6171   20.5900 H   0  0  0  0  0  0
  -26.8162  -30.9093   21.9641 H   0  0  0  0  0  0
  -28.0954  -29.1334   21.1557 H   0  0  0  0  0  0
  -26.0709  -25.9992   18.9855 H   0  0  0  0  0  0
  -23.9895  -27.3007   19.0193 H   0  0  0  0  0  0
  -23.7113  -30.6057   19.4083 H   0  0  0  0  0  0
  -22.7285  -29.2473   19.8713 H   0  0  0  0  0  0
  -25.1294  -36.1995   25.0827 H   0  0  0  0  0  0
  -20.9950  -28.3250   24.1459 H   0  0  0  0  0  0
  -20.5711  -26.2282   23.3602 H   0  0  0  0  0  0
  -21.6634  -26.7499   22.1202 H   0  0  0  0  0  0
  -19.6926  -25.6310   21.1246 H   0  0  0  0  0  0
  -19.6691  -27.3209   20.6755 H   0  0  0  0  0  0
  -17.4202  -26.6699   21.4004 H   0  0  0  0  0  0
  -18.0311  -26.0062   22.8999 H   0  0  0  0  0  0
  -19.7919  -30.7269   24.2273 H   0  0  0  0  0  0
  -17.5005  -31.6265   24.5176 H   0  0  0  0  0  0
  -15.5342  -30.2985   23.7668 H   0  0  0  0  0  0
  -15.8663  -28.0857   22.7008 H   0  0  0  0  0  0
  -24.5912  -30.7062   25.7753 H   0  0  0  0  0  0
  -24.8942  -32.2832   26.4934 H   0  0  0  0  0  0
  -25.8089  -30.8806   27.0179 H   0  0  0  0  0  0
  -26.2857  -29.6794   24.1143 H   0  0  0  0  0  0
  -27.4163  -29.7305   25.4494 H   0  0  0  0  0  0
  -27.8653  -30.4399   23.9142 H   0  0  0  0  0  0
  -27.2684  -33.3623   26.2063 H   0  0  0  0  0  0
  -28.3860  -32.6901   25.0277 H   0  0  0  0  0  0
  -28.0750  -31.8435   26.5360 H   0  0  0  0  0  0
  -28.2605  -38.0121   24.7531 H   0  0  0  0  0  0
  -28.1085  -36.2651   24.6260 H   0  0  0  0  0  0
  -27.2305  -37.1441   25.8864 H   0  0  0  0  0  0
  -20.9268  -29.8772   21.6970 H   0  0  0  0  0  0
  -26.0195  -38.2899   24.1394 H   0  0  0  0  0  0
  -32.8191  -16.1835   22.0028 H   0  0  0  0  0  0
  -25.9613  -24.2082   20.7928 H   0  0  0  0  0  0
  -25.8277  -25.6749   21.7587 H   0  0  0  0  0  0
  -25.9639  -24.1020   22.5302 H   0  0  0  0  0  0
  -27.3374  -24.4659   24.4766 H   0  0  0  0  0  0
  -26.5759  -25.9931   24.0230 H   0  0  0  0  0  0
  -27.9909  -25.9915   25.0413 H   0  0  0  0  0  0
  -30.7906  -26.9590   22.2871 H   0  0  0  0  0  0
  -31.0810  -25.4343   21.4606 H   0  0  0  0  0  0
  -31.9670  -25.8225   22.9161 H   0  0  0  0  0  0
  -30.3975  -24.0901   25.8142 H   0  0  0  0  0  0
  -31.9197  -24.0909   24.9208 H   0  0  0  0  0  0
  -31.1049  -22.5802   25.2911 H   0  0  0  0  0  0
  -34.1972  -19.1154   23.5391 H   0  0  0  0  0  0
  -32.8151  -19.8691   24.2853 H   0  0  0  0  0  0
  -33.8612  -20.8153   23.2306 H   0  0  0  0  0  0
  -34.2033  -18.3000   21.2447 H   0  0  0  0  0  0
  -34.1332  -19.9710   20.7147 H   0  0  0  0  0  0
  -32.9824  -18.8129   20.0890 H   0  0  0  0  0  0
  -28.4032  -17.2773   20.8613 H   0  0  0  0  0  0
  -28.0886  -15.6809   21.4416 H   0  0  0  0  0  0
  -28.2905  -16.0517   19.7009 H   0  0  0  0  0  0
  -30.3107  -17.9075   19.6269 H   0  0  0  0  0  0
  -30.4365  -16.4716   18.6321 H   0  0  0  0  0  0
  -31.7961  -16.9841   19.5951 H   0  0  0  0  0  0
  -28.8627  -17.2937   23.6091 H   0  0  0  0  0  0
  -28.6868  -18.9422   23.0245 H   0  0  0  0  0  0
  -29.8884  -18.5826   24.2609 H   0  0  0  0  0  0
  -31.0964  -21.0849   23.7136 H   0  0  0  0  0  0
  -29.7534  -21.0444   22.6288 H   0  0  0  0  0  0
  -32.2816  -21.3275   21.1503 H   0  0  0  0  0  0
  -30.9776  -20.2573   20.8562 H   0  0  0  0  0  0
  -27.8565  -24.8563   19.4840 H   0  0  0  0  0  0
  -29.4081  -24.9980   20.1827 H   0  0  0  0  0  0
  -28.1838  -23.7870   21.7617 H   0  0  0  0  0  0
  -28.4312  -26.6541   22.6798 H   0  0  0  0  0  0
  -30.0484  -25.7773   24.2608 H   0  0  0  0  0  0
  -29.1985  -23.2621   23.8427 H   0  0  0  0  0  0
  -30.4264  -23.1625   21.5770 H   0  0  0  0  0  0
  1 25  1  0  0  0
  1 30  2  0  0  0
  1 91  1  0  0  0
  2  3  1  0  0  0
  2 25  1  0  0  0
  2 95  1  0  0  0
  2 96  1  0  0  0
  3  4  1  0  0  0
  3 97  1  0  0  0
  3 98  1  0  0  0
  4  5  1  0  0  0
  4 99  1  0  0  0
  4100  1  0  0  0
  5  6  1  0  0  0
  5 26  1  0  0  0
  5101  1  0  0  0
  6 25  1  0  0  0
  6102  1  0  0  0
  6103  1  0  0  0
  7  8  2  0  0  0
  7 26  1  0  0  0
  7 29  1  0  0  0
  8  9  1  0  0  0
  8 22  1  0  0  0
  9 10  1  0  0  0
  9 27  2  0  0  0
 10 11  2  0  0  0
 10 15  1  0  0  0
 11 12  1  0  0  0
 11104  1  0  0  0
 12 13  2  0  0  0
 12105  1  0  0  0
 13 14  1  0  0  0
 13 31  1  0  0  0
 14 15  2  0  0  0
 14106  1  0  0  0
 15107  1  0  0  0
 16 17  2  0  0  0
 16 21  1  0  0  0
 16 31  1  0  0  0
 17 18  1  0  0  0
 17108  1  0  0  0
 18 19  2  0  0  0
 18109  1  0  0  0
 19 20  1  0  0  0
 19 24  1  0  0  0
 20 21  2  0  0  0
 20110  1  0  0  0
 21 23  1  0  0  0
 22 28  1  0  0  0
 22 32  2  0  0  0
 26 27  1  0  0  0
 28111  1  0  0  0
 28112  1  0  0  0
 29113  1  0  0  0
 29114  1  0  0  0
 33 34  1  0  0  0
 33 66  1  0  0  0
 33 70  2  0  0  0
 34 36  1  0  0  0
 34 59  1  0  0  0
 34115  1  0  0  0
 35 44  2  0  0  0
 35 45  1  0  0  0
 35 68  1  0  0  0
 36 56  1  0  0  0
 36116  1  0  0  0
 37 39  1  0  0  0
 37 47  1  0  0  0
 37 66  1  0  0  0
 37117  1  0  0  0
 38 43  2  0  0  0
 38 46  1  0  0  0
 38 47  1  0  0  0
 39 64  1  0  0  0
 39 67  2  0  0  0
 40 52  1  0  0  0
 40 53  2  0  0  0
 40 58  1  0  0  0
 41118  1  0  0  0
 41119  1  0  0  0
 41120  1  0  0  0
 41 48  1  0  0  0
 42 43  1  0  0  0
 42 66  1  0  0  0
 42121  1  0  0  0
 42122  1  0  0  0
 43 44  1  0  0  0
 44123  1  0  0  0
 45 46  2  0  0  0
 45124  1  0  0  0
 46125  1  0  0  0
 47126  1  0  0  0
 47127  1  0  0  0
 48 56  1  0  0  0
 48 65  1  0  0  0
 48128  1  0  0  0
 49 50  1  0  0  0
 49 53  1  0  0  0
 49 64  1  0  0  0
 49129  1  0  0  0
 50 51  1  0  0  0
 50130  1  0  0  0
 50131  1  0  0  0
 51 52  1  0  0  0
 51132  1  0  0  0
 51133  1  0  0  0
 52134  1  0  0  0
 52135  1  0  0  0
 53 54  1  0  0  0
 54 55  2  0  0  0
 54136  1  0  0  0
 55 57  1  0  0  0
 55137  1  0  0  0
 56 69  2  0  0  0
 57 58  2  0  0  0
 57138  1  0  0  0
 58139  1  0  0  0
 59 60  1  0  0  0
 59 61  1  0  0  0
 59 62  1  0  0  0
 60140  1  0  0  0
 60141  1  0  0  0
 60142  1  0  0  0
 61143  1  0  0  0
 61144  1  0  0  0
 61145  1  0  0  0
 62146  1  0  0  0
 62147  1  0  0  0
 62148  1  0  0  0
 63 65  1  0  0  0
 63149  1  0  0  0
 63150  1  0  0  0
 63151  1  0  0  0
 64152  1  0  0  0
 65153  1  0  0  0
 68 84  1  0  0  0
 71 72  2  0  0  0
 71 92  1  0  0  0
 71154  1  0  0  0
 72 90  1  0  0  0
 72 93  1  0  0  0
 73155  1  0  0  0
 73156  1  0  0  0
 73157  1  0  0  0
 73 85  1  0  0  0
 74158  1  0  0  0
 74159  1  0  0  0
 74160  1  0  0  0
 74 86  1  0  0  0
 75161  1  0  0  0
 75162  1  0  0  0
 75163  1  0  0  0
 75 87  1  0  0  0
 76164  1  0  0  0
 76165  1  0  0  0
 76166  1  0  0  0
 76 88  1  0  0  0
 77167  1  0  0  0
 77168  1  0  0  0
 77169  1  0  0  0
 77 90  1  0  0  0
 78 90  1  0  0  0
 78170  1  0  0  0
 78171  1  0  0  0
 78172  1  0  0  0
 79173  1  0  0  0
 79174  1  0  0  0
 79175  1  0  0  0
 79 91  1  0  0  0
 80 91  1  0  0  0
 80176  1  0  0  0
 80177  1  0  0  0
 80178  1  0  0  0
 81 93  1  0  0  0
 81179  1  0  0  0
 81180  1  0  0  0
 81181  1  0  0  0
 82 83  1  0  0  0
 82 89  1  0  0  0
 82182  1  0  0  0
 82183  1  0  0  0
 83 90  1  0  0  0
 83184  1  0  0  0
 83185  1  0  0  0
 84 85  1  0  0  0
 84186  1  0  0  0
 84187  1  0  0  0
 85 86  1  0  0  0
 85188  1  0  0  0
 86 87  1  0  0  0
 86189  1  0  0  0
 87 88  1  0  0  0
 87190  1  0  0  0
 88 89  1  0  0  0
 88191  1  0  0  0
 89 94  1  0  0  0
 89192  1  0  0  0
 91 92  1  0  0  0
 92 93  1  0  0  0
M  ISO  4   1 100  68 101  84 101  91 100
M  END
> <chiral flag>
0

> <version>
0

> <s_m_source_file>
/data/baiqing/PycharmProjects/Reinvent-master-3.2/result/LINK_invent/BTK/process_docking_weight1_custom_sum_contain_oxygen_bond_distance_aromatic_linkinvent_7_9_3/rearranged_h_0066.sdf

> <i_m_source_file_index>
62

> <r_mmod_Potential_Energy-OPLS-2005>
297.406372070312

> <r_mmod_Stretch_Energy-OPLS-2005>
58.0746040344238

> <r_mmod_Bend_Energy-OPLS-2005>
200.983963012695

> <r_mmod_Torsional_Energy-OPLS-2005>
293.939208984375

> <r_mmod_Improper_Torsional_Energy-OPLS-2005>
20.4834156036377

> <r_mmod_Van_der_Waal_Energy-OPLS-2005>
161.978240966797

> <r_mmod_Electrostatic_Energy-OPLS-2005>
-299.710418701172

> <r_mmod_Solvation_Energy-OPLS-2005>
-164.967056274414

> <b_mmod_Minimization_Converged-OPLS-2005>
0

> <r_mmod_RMS_Derivative-OPLS-2005>
3.5288667678833

$$$$
66
                    3D
 Structure written by MMmdl.
156164  0  0  1  0            999 V2000
  -30.6724  -14.6319   20.4815 C   0  0  0  0  0  0
  -30.4191  -12.3872   19.4602 C   0  0  0  0  0  0
  -29.5002  -12.4948   18.2255 C   0  0  0  0  0  0
  -28.0242  -12.3413   18.6389 C   0  0  0  0  0  0
  -27.6455  -13.2279   19.8560 C   0  0  2  0  0  0
  -28.6909  -13.1279   20.9891 C   0  0  0  0  0  0
  -25.2520  -13.8202   20.5696 C   0  0  0  0  0  0
  -24.1805  -13.0446   20.9203 C   0  0  0  0  0  0
  -24.6392  -11.6923   20.8749 C   0  0  0  0  0  0
  -23.9071  -10.4296   21.0410 C   0  0  0  0  0  0
  -24.3623   -9.4209   21.9185 C   0  0  0  0  0  0
  -23.6297   -8.2244   22.0756 C   0  0  0  0  0  0
  -22.4278   -8.0283   21.3546 C   0  0  0  0  0  0
  -21.9916   -9.0257   20.4647 C   0  0  0  0  0  0
  -22.7246  -10.2136   20.3057 C   0  0  0  0  0  0
  -21.6854   -6.0736   22.5279 C   0  0  0  0  0  0
  -21.4014   -6.5641   23.8212 C   0  0  0  0  0  0
  -21.3660   -5.6794   24.9174 C   0  0  0  0  0  0
  -21.6045   -4.3056   24.7225 C   0  0  0  0  0  0
  -21.8819   -3.8148   23.4346 C   0  0  0  0  0  0
  -21.9192   -4.6965   22.3402 C   0  0  0  0  0  0
  -22.7824  -13.5226   21.1863 C   0  0  0  0  0  0
  -22.1662   -4.2149   21.0980 F   0  0  0  0  0  0
  -21.5629   -3.4540   25.7737 F   0  0  0  0  0  0
  -30.0023  -13.4399   20.4095 N   0  0  0  0  0  0
  -26.2952  -12.9406   20.3309 N   0  0  0  0  0  0
  -25.9323  -11.6550   20.5767 N   0  0  0  0  0  0
  -22.0475  -12.8208   22.0419 N   0  0  0  0  0  0
  -25.4211  -15.1925   20.4103 N   0  0  0  0  0  0
  -31.8566  -14.7072   20.1484 O   0  0  0  0  0  0
  -21.6642   -6.8881   21.4241 O   0  0  0  0  0  0
  -22.3502  -14.5530   20.6713 O   0  0  0  0  0  0
  -24.6247  -31.8609   23.2031 C   0  0  0  0  0  0
  -25.9099  -32.4785   23.8359 C   0  0  1  0  0  0
  -27.2206  -27.3344   20.1218 C   0  0  0  0  0  0
  -25.5920  -33.8584   24.2288 N   0  0  0  0  0  0
  -23.4188  -30.4836   21.5450 C   0  0  2  0  0  0
  -24.8678  -28.9415   20.1091 C   0  0  0  0  0  0
  -22.7471  -29.4624   22.4937 C   0  0  0  0  0  0
  -18.0285  -28.1383   22.8487 C   0  0  0  0  0  0
  -24.1488  -36.7296   23.2639 C   0  0  0  0  0  0
  -25.9581  -30.7968   21.3723 C   0  0  0  0  0  0
  -26.0355  -29.4249   20.7156 C   0  0  0  0  0  0
  -27.2203  -28.6319   20.7144 C   0  0  0  0  0  0
  -26.0400  -26.9016   19.4843 C   0  0  0  0  0  0
  -24.8708  -27.6845   19.4833 C   0  0  0  0  0  0
  -23.6339  -29.8188   20.1597 C   0  0  0  0  0  0
  -25.4111  -36.3088   24.0332 C   0  0  1  0  0  0
  -20.5884  -28.3685   23.1286 C   0  0  2  0  0  0
  -20.6773  -26.9409   22.5410 C   0  0  0  0  0  0
  -19.5751  -26.6384   21.5210 C   0  0  0  0  0  0
  -18.1930  -26.7926   22.1622 C   0  0  0  0  0  0
  -19.1536  -28.8850   23.2882 C   0  0  0  0  0  0
  -18.9461  -30.1452   23.8898 C   0  0  0  0  0  0
  -17.6461  -30.6586   24.0561 C   0  0  0  0  0  0
  -25.9048  -34.9456   23.5112 C   0  0  0  0  0  0
  -16.5352  -29.9085   23.6329 C   0  0  0  0  0  0
  -16.7272  -28.6501   23.0353 C   0  0  0  0  0  0
  -26.4491  -31.6585   25.0719 C   0  0  0  0  0  0
  -25.3731  -31.3710   26.1449 C   0  0  0  0  0  0
  -27.0331  -30.3014   24.6153 C   0  0  0  0  0  0
  -27.6055  -32.4311   25.7491 C   0  0  0  0  0  0
  -27.5580  -37.1801   24.8463 C   0  0  0  0  0  0
  -21.4185  -29.3041   22.3683 N   0  0  0  0  0  0
  -26.4290  -37.3783   23.9411 N   0  0  0  0  0  0
  -24.6858  -31.0630   22.0976 N   0  0  0  0  0  0
  -23.4200  -28.8163   23.3012 O   0  0  0  0  0  0
  -28.2952  -26.4429   20.1659 O   0  0  0  0  0  0
  -26.5617  -34.8922   22.4677 O   0  0  0  0  0  0
  -23.5413  -32.1399   23.7365 O   0  0  0  0  0  0
  -28.4505  -22.7611   21.6078 C   0  0  0  0  0  0
  -28.5842  -23.8204   20.6704 C   0  0  0  0  0  0
  -29.4504  -21.2453   20.1489 C   0  0  0  0  0  0
  -28.0430  -25.2586   21.0135 C   0  0  0  0  0  0
  -30.5400  -17.1670   20.5461 C   0  0  0  0  0  0
  -30.2608  -19.8764   19.9005 C   0  0  0  0  0  0
  -29.5951  -18.4674   20.4249 C   0  0  0  0  0  0
  -30.4701  -19.7200   18.3435 C   0  0  0  0  0  0
  -31.6574  -20.0620   20.5795 C   0  0  0  0  0  0
  -28.8921  -21.4919   21.3522 N   0  0  0  0  0  0
  -29.1439  -23.5181   19.4718 N   0  0  0  0  0  0
  -29.5782  -22.2531   19.2343 N   0  0  0  0  0  0
  -29.9598  -15.7832   20.7048 N   0  0  0  0  0  0
  -29.1079  -18.6296   21.6557 F   0  0  0  0  0  0
  -28.5629  -18.1407   19.6446 F   0  0  0  0  0  0
  -31.2690  -20.6541   17.8203 F   0  0  0  0  0  0
  -31.0308  -18.5605   18.0044 F   0  0  0  0  0  0
  -29.3043  -19.7694   17.6908 F   0  0  0  0  0  0
  -31.5496  -19.9943   21.9087 F   0  0  0  0  0  0
  -32.2169  -21.2390   20.2895 F   0  0  0  0  0  0
  -32.5319  -19.1246   20.2087 F   0  0  0  0  0  0
  -31.4640  -12.4813   19.1593 H   0  0  0  0  0  0
  -30.3303  -11.4032   19.9233 H   0  0  0  0  0  0
  -29.7627  -11.7324   17.4907 H   0  0  0  0  0  0
  -29.6486  -13.4582   17.7348 H   0  0  0  0  0  0
  -27.8603  -11.2908   18.8820 H   0  0  0  0  0  0
  -27.3705  -12.5622   17.7944 H   0  0  0  0  0  0
  -27.6523  -14.2561   19.4945 H   0  0  0  0  0  0
  -28.6984  -12.1264   21.4216 H   0  0  0  0  0  0
  -28.4460  -13.8104   21.8044 H   0  0  0  0  0  0
  -25.2770   -9.5682   22.4758 H   0  0  0  0  0  0
  -24.0006   -7.4634   22.7473 H   0  0  0  0  0  0
  -21.0850   -8.8778   19.8947 H   0  0  0  0  0  0
  -22.3710  -10.9676   19.6164 H   0  0  0  0  0  0
  -21.2008   -7.6149   23.9715 H   0  0  0  0  0  0
  -21.1482   -6.0525   25.9077 H   0  0  0  0  0  0
  -22.0598   -2.7609   23.2848 H   0  0  0  0  0  0
  -22.4100  -11.9869   22.4799 H   0  0  0  0  0  0
  -21.1090  -13.1222   22.2629 H   0  0  0  0  0  0
  -24.6524  -15.8448   20.5199 H   0  0  0  0  0  0
  -26.2664  -15.6335   20.0721 H   0  0  0  0  0  0
  -26.7169  -32.5467   23.1112 H   0  0  0  0  0  0
  -25.0065  -33.9732   25.0431 H   0  0  0  0  0  0
  -22.7119  -31.3035   21.4022 H   0  0  0  0  0  0
  -23.3752  -35.9626   23.3299 H   0  0  0  0  0  0
  -24.3581  -36.8918   22.2054 H   0  0  0  0  0  0
  -23.7237  -37.6496   23.6660 H   0  0  0  0  0  0
  -26.0856  -31.5602   20.6035 H   0  0  0  0  0  0
  -26.8399  -30.8478   21.9993 H   0  0  0  0  0  0
  -28.1148  -28.9927   21.2029 H   0  0  0  0  0  0
  -26.0154  -25.9312   19.0082 H   0  0  0  0  0  0
  -23.9769  -27.3091   19.0043 H   0  0  0  0  0  0
  -23.7506  -30.5958   19.4032 H   0  0  0  0  0  0
  -22.7549  -29.2463   19.8580 H   0  0  0  0  0  0
  -25.1289  -36.1944   25.0825 H   0  0  0  0  0  0
  -20.9974  -28.3258   24.1407 H   0  0  0  0  0  0
  -20.5672  -26.2294   23.3608 H   0  0  0  0  0  0
  -21.6644  -26.7439   22.1206 H   0  0  0  0  0  0
  -19.6914  -25.6296   21.1238 H   0  0  0  0  0  0
  -19.6689  -27.3195   20.6740 H   0  0  0  0  0  0
  -17.4199  -26.6670   21.4026 H   0  0  0  0  0  0
  -18.0335  -26.0066   22.9018 H   0  0  0  0  0  0
  -19.7937  -30.7264   24.2272 H   0  0  0  0  0  0
  -17.5018  -31.6268   24.5161 H   0  0  0  0  0  0
  -15.5353  -30.2988   23.7653 H   0  0  0  0  0  0
  -15.8671  -28.0820   22.7070 H   0  0  0  0  0  0
  -24.5908  -30.7057   25.7776 H   0  0  0  0  0  0
  -24.8917  -32.2869   26.4886 H   0  0  0  0  0  0
  -25.8062  -30.8880   27.0217 H   0  0  0  0  0  0
  -26.2898  -29.6768   24.1184 H   0  0  0  0  0  0
  -27.4050  -29.7263   25.4643 H   0  0  0  0  0  0
  -27.8759  -30.4312   23.9358 H   0  0  0  0  0  0
  -27.2672  -33.3611   26.2074 H   0  0  0  0  0  0
  -28.3866  -32.6869   25.0319 H   0  0  0  0  0  0
  -28.0721  -31.8429   26.5403 H   0  0  0  0  0  0
  -28.2590  -38.0107   24.7525 H   0  0  0  0  0  0
  -28.1085  -36.2639   24.6270 H   0  0  0  0  0  0
  -27.2301  -37.1429   25.8867 H   0  0  0  0  0  0
  -20.9359  -29.8768   21.6899 H   0  0  0  0  0  0
  -26.0173  -38.2857   24.1418 H   0  0  0  0  0  0
  -27.9968  -22.9353   22.5729 H   0  0  0  0  0  0
  -28.4479  -25.5088   21.9946 H   0  0  0  0  0  0
  -26.9736  -25.1295   21.1864 H   0  0  0  0  0  0
  -31.2155  -17.3096   21.3911 H   0  0  0  0  0  0
  -31.1951  -17.0984   19.6829 H   0  0  0  0  0  0
  -28.9804  -15.7021   20.9296 H   0  0  0  0  0  0
  1 25  1  0  0  0
  1 30  2  0  0  0
  1 83  1  0  0  0
  2  3  1  0  0  0
  2 25  1  0  0  0
  2 92  1  0  0  0
  2 93  1  0  0  0
  3  4  1  0  0  0
  3 94  1  0  0  0
  3 95  1  0  0  0
  4  5  1  0  0  0
  4 96  1  0  0  0
  4 97  1  0  0  0
  5  6  1  0  0  0
  5 26  1  0  0  0
  5 98  1  0  0  0
  6 25  1  0  0  0
  6 99  1  0  0  0
  6100  1  0  0  0
  7  8  2  0  0  0
  7 26  1  0  0  0
  7 29  1  0  0  0
  8  9  1  0  0  0
  8 22  1  0  0  0
  9 10  1  0  0  0
  9 27  2  0  0  0
 10 11  2  0  0  0
 10 15  1  0  0  0
 11 12  1  0  0  0
 11101  1  0  0  0
 12 13  2  0  0  0
 12102  1  0  0  0
 13 14  1  0  0  0
 13 31  1  0  0  0
 14 15  2  0  0  0
 14103  1  0  0  0
 15104  1  0  0  0
 16 17  2  0  0  0
 16 21  1  0  0  0
 16 31  1  0  0  0
 17 18  1  0  0  0
 17105  1  0  0  0
 18 19  2  0  0  0
 18106  1  0  0  0
 19 20  1  0  0  0
 19 24  1  0  0  0
 20 21  2  0  0  0
 20107  1  0  0  0
 21 23  1  0  0  0
 22 28  1  0  0  0
 22 32  2  0  0  0
 26 27  1  0  0  0
 28108  1  0  0  0
 28109  1  0  0  0
 29110  1  0  0  0
 29111  1  0  0  0
 33 34  1  0  0  0
 33 66  1  0  0  0
 33 70  2  0  0  0
 34 36  1  0  0  0
 34 59  1  0  0  0
 34112  1  0  0  0
 35 44  2  0  0  0
 35 45  1  0  0  0
 35 68  1  0  0  0
 36 56  1  0  0  0
 36113  1  0  0  0
 37 39  1  0  0  0
 37 47  1  0  0  0
 37 66  1  0  0  0
 37114  1  0  0  0
 38 43  2  0  0  0
 38 46  1  0  0  0
 38 47  1  0  0  0
 39 64  1  0  0  0
 39 67  2  0  0  0
 40 52  1  0  0  0
 40 53  2  0  0  0
 40 58  1  0  0  0
 41115  1  0  0  0
 41116  1  0  0  0
 41117  1  0  0  0
 41 48  1  0  0  0
 42 43  1  0  0  0
 42 66  1  0  0  0
 42118  1  0  0  0
 42119  1  0  0  0
 43 44  1  0  0  0
 44120  1  0  0  0
 45 46  2  0  0  0
 45121  1  0  0  0
 46122  1  0  0  0
 47123  1  0  0  0
 47124  1  0  0  0
 48 56  1  0  0  0
 48 65  1  0  0  0
 48125  1  0  0  0
 49 50  1  0  0  0
 49 53  1  0  0  0
 49 64  1  0  0  0
 49126  1  0  0  0
 50 51  1  0  0  0
 50127  1  0  0  0
 50128  1  0  0  0
 51 52  1  0  0  0
 51129  1  0  0  0
 51130  1  0  0  0
 52131  1  0  0  0
 52132  1  0  0  0
 53 54  1  0  0  0
 54 55  2  0  0  0
 54133  1  0  0  0
 55 57  1  0  0  0
 55134  1  0  0  0
 56 69  2  0  0  0
 57 58  2  0  0  0
 57135  1  0  0  0
 58136  1  0  0  0
 59 60  1  0  0  0
 59 61  1  0  0  0
 59 62  1  0  0  0
 60137  1  0  0  0
 60138  1  0  0  0
 60139  1  0  0  0
 61140  1  0  0  0
 61141  1  0  0  0
 61142  1  0  0  0
 62143  1  0  0  0
 62144  1  0  0  0
 62145  1  0  0  0
 63 65  1  0  0  0
 63146  1  0  0  0
 63147  1  0  0  0
 63148  1  0  0  0
 64149  1  0  0  0
 65150  1  0  0  0
 68 74  1  0  0  0
 71 72  2  0  0  0
 71 80  1  0  0  0
 71151  1  0  0  0
 72 74  1  0  0  0
 72 81  1  0  0  0
 73 80  2  0  0  0
 73 82  1  0  0  0
 73 76  1  0  0  0
 74152  1  0  0  0
 74153  1  0  0  0
 75 77  1  0  0  0
 75 83  1  0  0  0
 75154  1  0  0  0
 75155  1  0  0  0
 76 77  1  0  0  0
 76 78  1  0  0  0
 76 79  1  0  0  0
 77 84  1  0  0  0
 77 85  1  0  0  0
 78 86  1  0  0  0
 78 87  1  0  0  0
 78 88  1  0  0  0
 79 89  1  0  0  0
 79 90  1  0  0  0
 79 91  1  0  0  0
 81 82  2  0  0  0
 83156  1  0  0  0
M  ISO  4   1 100  68 101  74 101  83 100
M  END
> <chiral flag>
0

> <version>
0

> <s_m_source_file>
/data/baiqing/PycharmProjects/Reinvent-master-3.2/result/LINK_invent/BTK/process_docking_weight1_custom_sum_contain_oxygen_bond_distance_aromatic_linkinvent_7_9_3/rearranged_h_0066.sdf

> <i_m_source_file_index>
63

> <r_mmod_Potential_Energy-OPLS-2005>
366.088928222656

> <r_mmod_Stretch_Energy-OPLS-2005>
106.428375244141

> <r_mmod_Bend_Energy-OPLS-2005>
166.618545532227

> <r_mmod_Torsional_Energy-OPLS-2005>
267.414855957031

> <r_mmod_Improper_Torsional_Energy-OPLS-2005>
6.9563102722168

> <r_mmod_Van_der_Waal_Energy-OPLS-2005>
169.999267578125

> <r_mmod_Electrostatic_Energy-OPLS-2005>
-197.376800537109

> <r_mmod_Solvation_Energy-OPLS-2005>
-205.009140014648

> <b_mmod_Minimization_Converged-OPLS-2005>
0

> <r_mmod_RMS_Derivative-OPLS-2005>
0.326714754104614

$$$$
67
                    3D
 Structure written by MMmdl.
191199  0  0  1  0            999 V2000
  -30.8782  -14.2340   20.7537 C   0  0  0  0  0  0
  -30.3972  -12.2683   19.3701 C   0  0  0  0  0  0
  -29.4675  -12.5484   18.1827 C   0  0  0  0  0  0
  -27.9997  -12.3990   18.6123 C   0  0  0  0  0  0
  -27.6717  -13.2128   19.8890 C   0  0  2  0  0  0
  -28.7143  -12.9719   21.0051 C   0  0  0  0  0  0
  -25.2618  -13.8185   20.5709 C   0  0  0  0  0  0
  -24.1865  -13.0458   20.9179 C   0  0  0  0  0  0
  -24.6426  -11.6924   20.8757 C   0  0  0  0  0  0
  -23.9093  -10.4292   21.0401 C   0  0  0  0  0  0
  -24.3625   -9.4204   21.9195 C   0  0  0  0  0  0
  -23.6286   -8.2251   22.0762 C   0  0  0  0  0  0
  -22.4278   -8.0288   21.3536 C   0  0  0  0  0  0
  -21.9931   -9.0262   20.4639 C   0  0  0  0  0  0
  -22.7267  -10.2145   20.3048 C   0  0  0  0  0  0
  -21.6858   -6.0743   22.5274 C   0  0  0  0  0  0
  -21.4013   -6.5641   23.8207 C   0  0  0  0  0  0
  -21.3673   -5.6780   24.9169 C   0  0  0  0  0  0
  -21.6043   -4.3042   24.7222 C   0  0  0  0  0  0
  -21.8822   -3.8148   23.4331 C   0  0  0  0  0  0
  -21.9183   -4.6961   22.3390 C   0  0  0  0  0  0
  -22.7871  -13.5220   21.1829 C   0  0  0  0  0  0
  -22.1666   -4.2158   21.0967 F   0  0  0  0  0  0
  -21.5629   -3.4524   25.7737 F   0  0  0  0  0  0
  -30.0657  -13.1935   20.4612 N   0  0  0  0  0  0
  -26.3090  -12.9385   20.3461 N   0  0  0  0  0  0
  -25.9365  -11.6530   20.5796 N   0  0  0  0  0  0
  -22.0517  -12.8204   22.0379 N   0  0  0  0  0  0
  -25.4330  -15.1903   20.4118 N   0  0  0  0  0  0
  -31.7598  -14.6378   19.9930 O   0  0  0  0  0  0
  -21.6647   -6.8897   21.4229 O   0  0  0  0  0  0
  -22.3574  -14.5544   20.6704 O   0  0  0  0  0  0
  -24.6183  -31.8796   23.2129 C   0  0  0  0  0  0
  -25.9096  -32.4884   23.8448 C   0  0  1  0  0  0
  -27.1947  -27.4489   20.0888 C   0  0  0  0  0  0
  -25.5942  -33.8660   24.2357 N   0  0  0  0  0  0
  -23.4011  -30.5047   21.5605 C   0  0  2  0  0  0
  -24.8391  -28.9847   20.1054 C   0  0  0  0  0  0
  -22.7433  -29.4748   22.5095 C   0  0  0  0  0  0
  -18.0231  -28.1459   22.8515 C   0  0  0  0  0  0
  -24.1479  -36.7335   23.2652 C   0  0  0  0  0  0
  -25.9330  -30.8438   21.3653 C   0  0  0  0  0  0
  -25.9990  -29.4777   20.7206 C   0  0  0  0  0  0
  -27.1814  -28.7067   20.7286 C   0  0  0  0  0  0
  -26.0592  -27.0163   19.3921 C   0  0  0  0  0  0
  -24.8607  -27.7494   19.4366 C   0  0  0  0  0  0
  -23.5998  -29.8492   20.1720 C   0  0  0  0  0  0
  -25.4091  -36.3133   24.0354 C   0  0  1  0  0  0
  -20.5840  -28.3769   23.1354 C   0  0  2  0  0  0
  -20.6795  -26.9496   22.5461 C   0  0  0  0  0  0
  -19.5734  -26.6439   21.5302 C   0  0  0  0  0  0
  -18.1886  -26.7996   22.1645 C   0  0  0  0  0  0
  -19.1496  -28.8922   23.2921 C   0  0  0  0  0  0
  -18.9412  -30.1534   23.8924 C   0  0  0  0  0  0
  -17.6401  -30.6638   24.0646 C   0  0  0  0  0  0
  -25.9019  -34.9500   23.5135 C   0  0  0  0  0  0
  -16.5313  -29.9165   23.6361 C   0  0  0  0  0  0
  -16.7228  -28.6603   23.0323 C   0  0  0  0  0  0
  -26.4434  -31.6640   25.0797 C   0  0  0  0  0  0
  -25.3578  -31.3697   26.1435 C   0  0  0  0  0  0
  -27.0418  -30.3123   24.6256 C   0  0  0  0  0  0
  -27.5944  -32.4438   25.7588 C   0  0  0  0  0  0
  -27.5560  -37.1816   24.8481 C   0  0  0  0  0  0
  -21.4172  -29.3116   22.3762 N   0  0  0  0  0  0
  -26.4282  -37.3803   23.9409 N   0  0  0  0  0  0
  -24.6695  -31.0935   22.1026 N   0  0  0  0  0  0
  -23.4186  -28.8307   23.3138 O   0  0  0  0  0  0
  -28.3144  -26.6652   20.0698 O   0  0  0  0  0  0
  -26.5552  -34.8951   22.4677 O   0  0  0  0  0  0
  -23.5387  -32.1539   23.7533 O   0  0  0  0  0  0
  -28.6165  -20.1198   21.3242 C   0  0  0  0  0  0
  -27.2507  -20.1435   21.2873 C   0  0  0  0  0  0
  -29.9704  -16.8770   24.4720 C   0  0  0  0  0  0
  -30.4665  -19.7732   24.1131 C   0  0  0  0  0  0
  -26.9883  -21.5126   19.2347 C   0  0  0  0  0  0
  -25.0347  -20.4204   20.1812 C   0  0  0  0  0  0
  -32.3124  -17.3015   21.2953 C   0  0  0  0  0  0
  -32.9765  -17.3319   23.6793 C   0  0  0  0  0  0
  -25.1050  -24.1252   20.0881 C   0  0  0  0  0  0
  -25.7871  -24.7467   22.3901 C   0  0  0  0  0  0
  -31.9243  -15.2775   22.7608 C   0  0  0  0  0  0
  -30.4519  -17.3650   23.0816 C   0  0  1  0  0  0
  -30.2240  -18.8989   22.8688 C   0  0  1  0  0  0
  -27.6748  -24.2809   20.6758 C   0  0  1  0  0  0
  -26.3422  -21.1448   20.5953 C   0  0  0  0  0  0
  -31.8846  -16.8331   22.7090 C   0  0  0  0  0  0
  -26.1956  -23.8880   21.1658 C   0  0  0  0  0  0
  -28.4422  -25.6499   20.9877 C   0  0  1  0  0  0
  -26.0601  -22.3627   21.6057 C   0  0  0  0  0  0
  -29.9953  -25.4492   20.9189 C   0  0  0  0  0  0
  -26.7822  -19.1894   22.1991 N   0  0  0  0  0  0
  -27.7853  -18.6414   22.8035 N   0  0  0  0  0  0
  -28.9146  -19.1957   22.2994 N   0  0  0  0  0  0
  -30.8486  -14.5904   22.0405 N   0  0  0  0  0  0
  -28.4770  -23.3135   21.1177 F   0  0  0  0  0  0
  -28.2305  -26.1190   22.2474 F   0  0  0  0  0  0
  -26.8413  -22.2418   22.6841 F   0  0  0  0  0  0
  -24.8243  -22.1870   22.0909 F   0  0  0  0  0  0
  -30.3524  -24.9169   19.7461 F   0  0  0  0  0  0
  -30.4654  -24.6682   21.8948 F   0  0  0  0  0  0
  -30.6240  -26.6232   21.0349 F   0  0  0  0  0  0
  -31.4399  -12.3507   19.0606 H   0  0  0  0  0  0
  -30.2733  -11.2418   19.7187 H   0  0  0  0  0  0
  -29.6893  -11.8698   17.3567 H   0  0  0  0  0  0
  -29.6441  -13.5582   17.8075 H   0  0  0  0  0  0
  -27.8055  -11.3397   18.7836 H   0  0  0  0  0  0
  -27.3404  -12.7041   17.7994 H   0  0  0  0  0  0
  -27.7296  -14.2659   19.6157 H   0  0  0  0  0  0
  -28.6458  -11.9501   21.3835 H   0  0  0  0  0  0
  -28.4913  -13.6245   21.8509 H   0  0  0  0  0  0
  -25.2749   -9.5696   22.4790 H   0  0  0  0  0  0
  -23.9992   -7.4658   22.7499 H   0  0  0  0  0  0
  -21.0878   -8.8782   19.8941 H   0  0  0  0  0  0
  -22.3716  -10.9689   19.6174 H   0  0  0  0  0  0
  -21.2025   -7.6157   23.9720 H   0  0  0  0  0  0
  -21.1491   -6.0516   25.9080 H   0  0  0  0  0  0
  -22.0592   -2.7605   23.2829 H   0  0  0  0  0  0
  -22.4114  -11.9824   22.4697 H   0  0  0  0  0  0
  -21.1134  -13.1220   22.2590 H   0  0  0  0  0  0
  -24.6768  -15.8518   20.5459 H   0  0  0  0  0  0
  -26.3015  -15.6329   20.1357 H   0  0  0  0  0  0
  -26.7227  -32.5597   23.1275 H   0  0  0  0  0  0
  -25.0219  -33.9811   25.0598 H   0  0  0  0  0  0
  -22.6834  -31.3173   21.4339 H   0  0  0  0  0  0
  -23.3733  -35.9672   23.3345 H   0  0  0  0  0  0
  -24.3581  -36.8940   22.2061 H   0  0  0  0  0  0
  -23.7240  -37.6545   23.6676 H   0  0  0  0  0  0
  -26.0371  -31.5991   20.5837 H   0  0  0  0  0  0
  -26.8270  -30.9045   21.9777 H   0  0  0  0  0  0
  -28.0782  -29.0652   21.2122 H   0  0  0  0  0  0
  -26.1167  -26.1190   18.7983 H   0  0  0  0  0  0
  -23.9821  -27.3777   18.9229 H   0  0  0  0  0  0
  -23.6855  -30.6350   19.4183 H   0  0  0  0  0  0
  -22.7205  -29.2693   19.8901 H   0  0  0  0  0  0
  -25.1234  -36.2009   25.0842 H   0  0  0  0  0  0
  -20.9899  -28.3434   24.1494 H   0  0  0  0  0  0
  -20.5869  -26.2359   23.3656 H   0  0  0  0  0  0
  -21.6640  -26.7637   22.1161 H   0  0  0  0  0  0
  -19.6928  -25.6349   21.1347 H   0  0  0  0  0  0
  -19.6721  -27.3258   20.6847 H   0  0  0  0  0  0
  -17.4191  -26.6809   21.4010 H   0  0  0  0  0  0
  -18.0169  -26.0140   22.9008 H   0  0  0  0  0  0
  -19.7858  -30.7399   24.2287 H   0  0  0  0  0  0
  -17.4940  -31.6290   24.5281 H   0  0  0  0  0  0
  -15.5295  -30.3100   23.7708 H   0  0  0  0  0  0
  -15.8584  -28.1050   22.6924 H   0  0  0  0  0  0
  -24.5903  -30.6909   25.7720 H   0  0  0  0  0  0
  -24.8499  -32.2772   26.4692 H   0  0  0  0  0  0
  -25.7761  -30.9024   27.0344 H   0  0  0  0  0  0
  -26.3096  -29.6722   24.1336 H   0  0  0  0  0  0
  -27.4254  -29.7519   25.4787 H   0  0  0  0  0  0
  -27.8824  -30.4518   23.9463 H   0  0  0  0  0  0
  -27.2554  -33.3830   26.1979 H   0  0  0  0  0  0
  -28.3775  -32.6859   25.0398 H   0  0  0  0  0  0
  -28.0559  -31.8688   26.5627 H   0  0  0  0  0  0
  -28.2573  -38.0120   24.7514 H   0  0  0  0  0  0
  -28.1037  -36.2631   24.6290 H   0  0  0  0  0  0
  -27.2277  -37.1454   25.8891 H   0  0  0  0  0  0
  -20.9336  -29.8839   21.6995 H   0  0  0  0  0  0
  -26.0195  -38.2904   24.1341 H   0  0  0  0  0  0
  -29.3620  -20.7290   20.8319 H   0  0  0  0  0  0
  -28.9932  -17.2811   24.7228 H   0  0  0  0  0  0
  -30.6496  -17.1757   25.2676 H   0  0  0  0  0  0
  -29.8677  -15.7936   24.5135 H   0  0  0  0  0  0
  -31.4556  -19.6071   24.5363 H   0  0  0  0  0  0
  -29.7360  -19.5829   24.8981 H   0  0  0  0  0  0
  -30.3964  -20.8296   23.8546 H   0  0  0  0  0  0
  -27.1377  -20.6204   18.6269 H   0  0  0  0  0  0
  -27.9724  -21.9619   19.3090 H   0  0  0  0  0  0
  -26.3562  -22.1635   18.6374 H   0  0  0  0  0  0
  -25.2459  -19.5621   19.5385 H   0  0  0  0  0  0
  -24.3658  -21.0811   19.6334 H   0  0  0  0  0  0
  -24.4863  -20.0392   21.0422 H   0  0  0  0  0  0
  -33.1940  -16.7617   20.9498 H   0  0  0  0  0  0
  -32.5950  -18.3530   21.2638 H   0  0  0  0  0  0
  -31.5227  -17.1541   20.5591 H   0  0  0  0  0  0
  -33.9558  -16.9526   23.3849 H   0  0  0  0  0  0
  -32.8096  -17.0033   24.7053 H   0  0  0  0  0  0
  -33.0559  -18.4170   23.6830 H   0  0  0  0  0  0
  -24.5903  -25.0731   20.2219 H   0  0  0  0  0  0
  -24.3101  -23.3821   20.1243 H   0  0  0  0  0  0
  -25.4997  -24.0958   19.0776 H   0  0  0  0  0  0
  -25.7123  -25.8055   22.1403 H   0  0  0  0  0  0
  -26.5094  -24.6531   23.2001 H   0  0  0  0  0  0
  -24.8137  -24.4592   22.7910 H   0  0  0  0  0  0
  -31.8712  -14.9434   23.7969 H   0  0  0  0  0  0
  -32.8896  -14.9127   22.4053 H   0  0  0  0  0  0
  -29.7839  -16.8897   22.3618 H   0  0  0  0  0  0
  -30.9193  -19.2632   22.1196 H   0  0  0  0  0  0
  -27.7328  -24.1621   19.5973 H   0  0  0  0  0  0
  -30.1413  -14.1455   22.6053 H   0  0  0  0  0  0
  1 25  1  0  0  0
  1 30  2  0  0  0
  1 94  1  0  0  0
  2  3  1  0  0  0
  2 25  1  0  0  0
  2102  1  0  0  0
  2103  1  0  0  0
  3  4  1  0  0  0
  3104  1  0  0  0
  3105  1  0  0  0
  4  5  1  0  0  0
  4106  1  0  0  0
  4107  1  0  0  0
  5  6  1  0  0  0
  5 26  1  0  0  0
  5108  1  0  0  0
  6 25  1  0  0  0
  6109  1  0  0  0
  6110  1  0  0  0
  7  8  2  0  0  0
  7 26  1  0  0  0
  7 29  1  0  0  0
  8  9  1  0  0  0
  8 22  1  0  0  0
  9 10  1  0  0  0
  9 27  2  0  0  0
 10 11  2  0  0  0
 10 15  1  0  0  0
 11 12  1  0  0  0
 11111  1  0  0  0
 12 13  2  0  0  0
 12112  1  0  0  0
 13 14  1  0  0  0
 13 31  1  0  0  0
 14 15  2  0  0  0
 14113  1  0  0  0
 15114  1  0  0  0
 16 17  2  0  0  0
 16 21  1  0  0  0
 16 31  1  0  0  0
 17 18  1  0  0  0
 17115  1  0  0  0
 18 19  2  0  0  0
 18116  1  0  0  0
 19 20  1  0  0  0
 19 24  1  0  0  0
 20 21  2  0  0  0
 20117  1  0  0  0
 21 23  1  0  0  0
 22 28  1  0  0  0
 22 32  2  0  0  0
 26 27  1  0  0  0
 28118  1  0  0  0
 28119  1  0  0  0
 29120  1  0  0  0
 29121  1  0  0  0
 33 34  1  0  0  0
 33 66  1  0  0  0
 33 70  2  0  0  0
 34 36  1  0  0  0
 34 59  1  0  0  0
 34122  1  0  0  0
 35 44  2  0  0  0
 35 45  1  0  0  0
 35 68  1  0  0  0
 36 56  1  0  0  0
 36123  1  0  0  0
 37 39  1  0  0  0
 37 47  1  0  0  0
 37 66  1  0  0  0
 37124  1  0  0  0
 38 43  2  0  0  0
 38 46  1  0  0  0
 38 47  1  0  0  0
 39 64  1  0  0  0
 39 67  2  0  0  0
 40 52  1  0  0  0
 40 53  2  0  0  0
 40 58  1  0  0  0
 41125  1  0  0  0
 41126  1  0  0  0
 41127  1  0  0  0
 41 48  1  0  0  0
 42 43  1  0  0  0
 42 66  1  0  0  0
 42128  1  0  0  0
 42129  1  0  0  0
 43 44  1  0  0  0
 44130  1  0  0  0
 45 46  2  0  0  0
 45131  1  0  0  0
 46132  1  0  0  0
 47133  1  0  0  0
 47134  1  0  0  0
 48 56  1  0  0  0
 48 65  1  0  0  0
 48135  1  0  0  0
 49 50  1  0  0  0
 49 53  1  0  0  0
 49 64  1  0  0  0
 49136  1  0  0  0
 50 51  1  0  0  0
 50137  1  0  0  0
 50138  1  0  0  0
 51 52  1  0  0  0
 51139  1  0  0  0
 51140  1  0  0  0
 52141  1  0  0  0
 52142  1  0  0  0
 53 54  1  0  0  0
 54 55  2  0  0  0
 54143  1  0  0  0
 55 57  1  0  0  0
 55144  1  0  0  0
 56 69  2  0  0  0
 57 58  2  0  0  0
 57145  1  0  0  0
 58146  1  0  0  0
 59 60  1  0  0  0
 59 61  1  0  0  0
 59 62  1  0  0  0
 60147  1  0  0  0
 60148  1  0  0  0
 60149  1  0  0  0
 61150  1  0  0  0
 61151  1  0  0  0
 61152  1  0  0  0
 62153  1  0  0  0
 62154  1  0  0  0
 62155  1  0  0  0
 63 65  1  0  0  0
 63156  1  0  0  0
 63157  1  0  0  0
 63158  1  0  0  0
 64159  1  0  0  0
 65160  1  0  0  0
 68 88  1  0  0  0
 71 72  2  0  0  0
 71 93  1  0  0  0
 71161  1  0  0  0
 72 85  1  0  0  0
 72 91  1  0  0  0
 73162  1  0  0  0
 73163  1  0  0  0
 73164  1  0  0  0
 73 82  1  0  0  0
 74165  1  0  0  0
 74166  1  0  0  0
 74167  1  0  0  0
 74 83  1  0  0  0
 75168  1  0  0  0
 75169  1  0  0  0
 75170  1  0  0  0
 75 85  1  0  0  0
 76 85  1  0  0  0
 76171  1  0  0  0
 76172  1  0  0  0
 76173  1  0  0  0
 77174  1  0  0  0
 77175  1  0  0  0
 77176  1  0  0  0
 77 86  1  0  0  0
 78 86  1  0  0  0
 78177  1  0  0  0
 78178  1  0  0  0
 78179  1  0  0  0
 79180  1  0  0  0
 79181  1  0  0  0
 79182  1  0  0  0
 79 87  1  0  0  0
 80 87  1  0  0  0
 80183  1  0  0  0
 80184  1  0  0  0
 80185  1  0  0  0
 81 86  1  0  0  0
 81 94  1  0  0  0
 81186  1  0  0  0
 81187  1  0  0  0
 82 83  1  0  0  0
 82 86  1  0  0  0
 82188  1  0  0  0
 83 93  1  0  0  0
 83189  1  0  0  0
 84 87  1  0  0  0
 84 88  1  0  0  0
 84 95  1  0  0  0
 84190  1  0  0  0
 85 89  1  0  0  0
 87 89  1  0  0  0
 88 90  1  0  0  0
 88 96  1  0  0  0
 89 97  1  0  0  0
 89 98  1  0  0  0
 90 99  1  0  0  0
 90100  1  0  0  0
 90101  1  0  0  0
 91 92  2  0  0  0
 92 93  1  0  0  0
 94191  1  0  0  0
M  ISO  4   1 100  68 101  88 101  94 100
M  END
> <chiral flag>
0

> <version>
0

> <s_m_source_file>
/data/baiqing/PycharmProjects/Reinvent-master-3.2/result/LINK_invent/BTK/process_docking_weight1_custom_sum_contain_oxygen_bond_distance_aromatic_linkinvent_7_9_3/rearranged_h_0066.sdf

> <i_m_source_file_index>
64

> <r_mmod_Potential_Energy-OPLS-2005>
249.886138916016

> <r_mmod_Stretch_Energy-OPLS-2005>
64.3992385864258

> <r_mmod_Bend_Energy-OPLS-2005>
173.917770385742

> <r_mmod_Torsional_Energy-OPLS-2005>
322.029510498047

> <r_mmod_Improper_Torsional_Energy-OPLS-2005>
8.65346240997314

> <r_mmod_Van_der_Waal_Energy-OPLS-2005>
181.455856323242

> <r_mmod_Electrostatic_Energy-OPLS-2005>
-331.406524658203

> <r_mmod_Solvation_Energy-OPLS-2005>
-185.342224121094

> <b_mmod_Minimization_Converged-OPLS-2005>
0

> <r_mmod_RMS_Derivative-OPLS-2005>
5.49271392822266

$$$$
68
                    3D
 Structure written by MMmdl.
175183  0  0  1  0            999 V2000
  -30.8449  -14.2406   20.7260 C   0  0  0  0  0  0
  -30.3984  -12.2511   19.3645 C   0  0  0  0  0  0
  -29.4675  -12.5500   18.1816 C   0  0  0  0  0  0
  -27.9990  -12.3956   18.6111 C   0  0  0  0  0  0
  -27.6724  -13.2029   19.8933 C   0  0  2  0  0  0
  -28.7142  -12.9264   21.0016 C   0  0  0  0  0  0
  -25.2631  -13.8169   20.5723 C   0  0  0  0  0  0
  -24.1872  -13.0462   20.9199 C   0  0  0  0  0  0
  -24.6417  -11.6919   20.8766 C   0  0  0  0  0  0
  -23.9081  -10.4305   21.0426 C   0  0  0  0  0  0
  -24.3624   -9.4212   21.9199 C   0  0  0  0  0  0
  -23.6302   -8.2247   22.0748 C   0  0  0  0  0  0
  -22.4283   -8.0293   21.3542 C   0  0  0  0  0  0
  -21.9930   -9.0271   20.4639 C   0  0  0  0  0  0
  -22.7263  -10.2150   20.3063 C   0  0  0  0  0  0
  -21.6858   -6.0749   22.5282 C   0  0  0  0  0  0
  -21.4018   -6.5648   23.8221 C   0  0  0  0  0  0
  -21.3658   -5.6799   24.9179 C   0  0  0  0  0  0
  -21.6041   -4.3063   24.7225 C   0  0  0  0  0  0
  -21.8820   -3.8157   23.4349 C   0  0  0  0  0  0
  -21.9192   -4.6974   22.3402 C   0  0  0  0  0  0
  -22.7883  -13.5243   21.1876 C   0  0  0  0  0  0
  -22.1664   -4.2162   21.0977 F   0  0  0  0  0  0
  -21.5624   -3.4542   25.7733 F   0  0  0  0  0  0
  -30.0651  -13.1668   20.4613 N   0  0  0  0  0  0
  -26.3093  -12.9345   20.3487 N   0  0  0  0  0  0
  -25.9344  -11.6505   20.5820 N   0  0  0  0  0  0
  -22.0526  -12.8213   22.0403 N   0  0  0  0  0  0
  -25.4403  -15.1885   20.4114 N   0  0  0  0  0  0
  -31.7399  -14.6345   19.9714 O   0  0  0  0  0  0
  -21.6645   -6.8892   21.4239 O   0  0  0  0  0  0
  -22.3572  -14.5578   20.6759 O   0  0  0  0  0  0
  -24.6138  -31.8686   23.2156 C   0  0  0  0  0  0
  -25.9047  -32.4825   23.8414 C   0  0  1  0  0  0
  -27.2333  -27.4629   20.0667 C   0  0  0  0  0  0
  -25.5927  -33.8624   24.2362 N   0  0  0  0  0  0
  -23.3986  -30.5013   21.5542 C   0  0  2  0  0  0
  -24.8384  -28.9711   20.1174 C   0  0  0  0  0  0
  -22.7397  -29.4692   22.4974 C   0  0  0  0  0  0
  -18.0300  -28.1380   22.8484 C   0  0  0  0  0  0
  -24.1492  -36.7326   23.2625 C   0  0  0  0  0  0
  -25.9248  -30.8434   21.3619 C   0  0  0  0  0  0
  -25.9985  -29.4781   20.7134 C   0  0  0  0  0  0
  -27.1948  -28.7294   20.6917 C   0  0  0  0  0  0
  -26.0468  -26.9680   19.4692 C   0  0  0  0  0  0
  -24.8559  -27.7118   19.4985 C   0  0  0  0  0  0
  -23.6049  -29.8403   20.1667 C   0  0  0  0  0  0
  -25.4112  -36.3106   24.0327 C   0  0  1  0  0  0
  -20.5888  -28.3660   23.1317 C   0  0  2  0  0  0
  -20.6792  -26.9396   22.5410 C   0  0  0  0  0  0
  -19.5776  -26.6391   21.5198 C   0  0  0  0  0  0
  -18.1953  -26.7935   22.1602 C   0  0  0  0  0  0
  -19.1546  -28.8836   23.2901 C   0  0  0  0  0  0
  -18.9455  -30.1445   23.8896 C   0  0  0  0  0  0
  -17.6457  -30.6558   24.0586 C   0  0  0  0  0  0
  -25.9023  -34.9466   23.5128 C   0  0  0  0  0  0
  -16.5354  -29.9076   23.6311 C   0  0  0  0  0  0
  -16.7290  -28.6519   23.0295 C   0  0  0  0  0  0
  -26.4502  -31.6583   25.0710 C   0  0  0  0  0  0
  -25.3780  -31.3651   26.1470 C   0  0  0  0  0  0
  -27.0341  -30.3046   24.6022 C   0  0  0  0  0  0
  -27.6096  -32.4290   25.7465 C   0  0  0  0  0  0
  -27.5594  -37.1801   24.8458 C   0  0  0  0  0  0
  -21.4134  -29.3035   22.3702 N   0  0  0  0  0  0
  -26.4300  -37.3780   23.9411 N   0  0  0  0  0  0
  -24.6649  -31.0830   22.1036 N   0  0  0  0  0  0
  -23.4193  -28.8195   23.2969 O   0  0  0  0  0  0
  -28.4311  -26.7794   20.0721 O   0  0  0  0  0  0
  -26.5530  -34.8915   22.4657 O   0  0  0  0  0  0
  -23.5347  -32.1429   23.7572 O   0  0  0  0  0  0
  -31.8509  -18.2105   25.4217 C   0  0  0  0  0  0
  -30.7322  -16.7176   23.4746 C   0  0  0  0  0  0
  -30.4539  -16.5067   24.8414 C   0  0  0  0  0  0
  -31.6288  -17.7817   23.1767 C   0  0  0  0  0  0
  -29.5150  -15.4155   25.3243 C   0  0  0  0  0  0
  -29.7337  -18.9494   20.9436 C   0  0  0  0  0  0
  -32.0377  -14.2825   22.7996 C   0  0  0  0  0  0
  -30.0799  -15.8163   22.4109 C   0  0  0  0  0  0
  -28.5356  -25.5612   19.3375 C   0  0  0  0  0  0
  -32.0574  -18.2175   21.7586 C   0  0  0  0  0  0
  -31.2054  -19.3811   21.1484 C   0  0  1  0  0  0
  -29.6855  -24.7080   19.8780 C   0  0  0  0  0  0
  -31.8453  -19.9624   19.8439 C   0  0  0  0  0  0
  -29.9232  -23.4201   19.0427 C   0  0  0  0  0  0
  -31.0720  -21.0550   19.0448 C   0  0  0  0  0  0
  -30.6552  -22.3204   19.8414 C   0  0  0  0  0  0
  -31.0141  -17.2570   25.8021 N   0  0  0  0  0  0
  -32.1776  -18.5043   24.1758 N   0  0  0  0  0  0
  -30.8391  -14.6137   22.0204 N   0  0  0  0  0  0
  -32.0386  -17.1900   20.9182 F   0  0  0  0  0  0
  -33.3362  -18.5942   21.8375 F   0  0  0  0  0  0
  -31.1817  -20.3576   22.0564 F   0  0  0  0  0  0
  -30.8134  -25.4211   19.9077 F   0  0  0  0  0  0
  -29.3635  -24.4045   21.1362 F   0  0  0  0  0  0
  -33.0367  -20.4739   20.1578 F   0  0  0  0  0  0
  -32.0616  -18.9577   18.9923 F   0  0  0  0  0  0
  -28.7538  -22.9209   18.6315 F   0  0  0  0  0  0
  -30.6084  -23.7457   17.9446 F   0  0  0  0  0  0
  -29.9933  -20.5163   18.4746 F   0  0  0  0  0  0
  -31.8764  -21.4330   18.0490 F   0  0  0  0  0  0
  -29.8069  -21.9701   20.8041 F   0  0  0  0  0  0
  -31.7332  -22.8489   20.4211 F   0  0  0  0  0  0
  -31.4432  -12.3278   19.0569 H   0  0  0  0  0  0
  -30.2692  -11.2194   19.6974 H   0  0  0  0  0  0
  -29.6894  -11.8863   17.3451 H   0  0  0  0  0  0
  -29.6429  -13.5665   17.8258 H   0  0  0  0  0  0
  -27.8089  -11.3341   18.7806 H   0  0  0  0  0  0
  -27.3356  -12.6971   17.8004 H   0  0  0  0  0  0
  -27.7403  -14.2606   19.6387 H   0  0  0  0  0  0
  -28.6449  -11.8896   21.3352 H   0  0  0  0  0  0
  -28.4903  -13.5273   21.8815 H   0  0  0  0  0  0
  -25.2767   -9.5686   22.4789 H   0  0  0  0  0  0
  -24.0018   -7.4624   22.7459 H   0  0  0  0  0  0
  -21.0870   -8.8806   19.8927 H   0  0  0  0  0  0
  -22.3745  -10.9702   19.6177 H   0  0  0  0  0  0
  -21.2021   -7.6159   23.9731 H   0  0  0  0  0  0
  -21.1478   -6.0524   25.9082 H   0  0  0  0  0  0
  -22.0599   -2.7619   23.2842 H   0  0  0  0  0  0
  -22.4112  -11.9824   22.4719 H   0  0  0  0  0  0
  -21.1152  -13.1244   22.2658 H   0  0  0  0  0  0
  -24.6803  -15.8528   20.5173 H   0  0  0  0  0  0
  -26.3016  -15.6201   20.1014 H   0  0  0  0  0  0
  -26.7107  -32.5542   23.1170 H   0  0  0  0  0  0
  -25.0186  -33.9778   25.0588 H   0  0  0  0  0  0
  -22.6856  -31.3171   21.4236 H   0  0  0  0  0  0
  -23.3726  -35.9676   23.3289 H   0  0  0  0  0  0
  -24.3588  -36.8943   22.2033 H   0  0  0  0  0  0
  -23.7269  -37.6550   23.6631 H   0  0  0  0  0  0
  -26.0242  -31.6050   20.5862 H   0  0  0  0  0  0
  -26.8215  -30.9048   21.9680 H   0  0  0  0  0  0
  -28.0953  -29.1253   21.1394 H   0  0  0  0  0  0
  -25.9980  -26.0215   18.9558 H   0  0  0  0  0  0
  -23.9632  -27.3168   19.0312 H   0  0  0  0  0  0
  -23.7200  -30.6208   19.4135 H   0  0  0  0  0  0
  -22.7280  -29.2662   19.8645 H   0  0  0  0  0  0
  -25.1288  -36.1968   25.0813 H   0  0  0  0  0  0
  -20.9999  -28.3218   24.1433 H   0  0  0  0  0  0
  -20.5725  -26.2235   23.3574 H   0  0  0  0  0  0
  -21.6651  -26.7454   22.1172 H   0  0  0  0  0  0
  -19.6919  -25.6302   21.1217 H   0  0  0  0  0  0
  -19.6737  -27.3189   20.6722 H   0  0  0  0  0  0
  -17.4224  -26.6690   21.3993 H   0  0  0  0  0  0
  -18.0352  -26.0069   22.8988 H   0  0  0  0  0  0
  -19.7925  -30.7291   24.2238 H   0  0  0  0  0  0
  -17.5001  -31.6234   24.5197 H   0  0  0  0  0  0
  -15.5347  -30.2975   23.7645 H   0  0  0  0  0  0
  -15.8703  -28.0879   22.6939 H   0  0  0  0  0  0
  -24.5955  -30.6997   25.7810 H   0  0  0  0  0  0
  -24.8956  -32.2789   26.4929 H   0  0  0  0  0  0
  -25.8149  -30.8813   27.0212 H   0  0  0  0  0  0
  -26.2856  -29.6757   24.1174 H   0  0  0  0  0  0
  -27.4294  -29.7316   25.4416 H   0  0  0  0  0  0
  -27.8604  -30.4423   23.9042 H   0  0  0  0  0  0
  -27.2741  -33.3589   26.2054 H   0  0  0  0  0  0
  -28.3889  -32.6842   25.0274 H   0  0  0  0  0  0
  -28.0759  -31.8391   26.5356 H   0  0  0  0  0  0
  -28.2589  -38.0122   24.7544 H   0  0  0  0  0  0
  -28.1134  -36.2661   24.6257 H   0  0  0  0  0  0
  -27.2314  -37.1411   25.8859 H   0  0  0  0  0  0
  -20.9247  -29.8804   21.6995 H   0  0  0  0  0  0
  -26.0196  -38.2858   24.1437 H   0  0  0  0  0  0
  -32.3129  -18.7980   26.1993 H   0  0  0  0  0  0
  -29.7385  -14.4650   24.8419 H   0  0  0  0  0  0
  -28.4828  -15.6793   25.0962 H   0  0  0  0  0  0
  -29.5961  -15.2653   26.4003 H   0  0  0  0  0  0
  -29.6690  -18.1243   20.2363 H   0  0  0  0  0  0
  -29.0970  -19.7397   20.5562 H   0  0  0  0  0  0
  -29.2809  -18.6365   21.8847 H   0  0  0  0  0  0
  -31.8081  -14.1842   23.8588 H   0  0  0  0  0  0
  -32.8113  -15.0405   22.6737 H   0  0  0  0  0  0
  -32.4640  -13.3280   22.4830 H   0  0  0  0  0  0
  -29.8406  -16.3980   21.5266 H   0  0  0  0  0  0
  -29.0997  -15.5005   22.7609 H   0  0  0  0  0  0
  -27.6479  -24.9423   19.4488 H   0  0  0  0  0  0
  -28.6718  -25.7817   18.2801 H   0  0  0  0  0  0
  1 25  1  0  0  0
  1 30  2  0  0  0
  1 89  1  0  0  0
  2  3  1  0  0  0
  2 25  1  0  0  0
  2103  1  0  0  0
  2104  1  0  0  0
  3  4  1  0  0  0
  3105  1  0  0  0
  3106  1  0  0  0
  4  5  1  0  0  0
  4107  1  0  0  0
  4108  1  0  0  0
  5  6  1  0  0  0
  5 26  1  0  0  0
  5109  1  0  0  0
  6 25  1  0  0  0
  6110  1  0  0  0
  6111  1  0  0  0
  7  8  2  0  0  0
  7 26  1  0  0  0
  7 29  1  0  0  0
  8  9  1  0  0  0
  8 22  1  0  0  0
  9 10  1  0  0  0
  9 27  2  0  0  0
 10 11  2  0  0  0
 10 15  1  0  0  0
 11 12  1  0  0  0
 11112  1  0  0  0
 12 13  2  0  0  0
 12113  1  0  0  0
 13 14  1  0  0  0
 13 31  1  0  0  0
 14 15  2  0  0  0
 14114  1  0  0  0
 15115  1  0  0  0
 16 17  2  0  0  0
 16 21  1  0  0  0
 16 31  1  0  0  0
 17 18  1  0  0  0
 17116  1  0  0  0
 18 19  2  0  0  0
 18117  1  0  0  0
 19 20  1  0  0  0
 19 24  1  0  0  0
 20 21  2  0  0  0
 20118  1  0  0  0
 21 23  1  0  0  0
 22 28  1  0  0  0
 22 32  2  0  0  0
 26 27  1  0  0  0
 28119  1  0  0  0
 28120  1  0  0  0
 29121  1  0  0  0
 29122  1  0  0  0
 33 34  1  0  0  0
 33 66  1  0  0  0
 33 70  2  0  0  0
 34 36  1  0  0  0
 34 59  1  0  0  0
 34123  1  0  0  0
 35 44  2  0  0  0
 35 45  1  0  0  0
 35 68  1  0  0  0
 36 56  1  0  0  0
 36124  1  0  0  0
 37 39  1  0  0  0
 37 47  1  0  0  0
 37 66  1  0  0  0
 37125  1  0  0  0
 38 43  2  0  0  0
 38 46  1  0  0  0
 38 47  1  0  0  0
 39 64  1  0  0  0
 39 67  2  0  0  0
 40 52  1  0  0  0
 40 53  2  0  0  0
 40 58  1  0  0  0
 41126  1  0  0  0
 41127  1  0  0  0
 41128  1  0  0  0
 41 48  1  0  0  0
 42 43  1  0  0  0
 42 66  1  0  0  0
 42129  1  0  0  0
 42130  1  0  0  0
 43 44  1  0  0  0
 44131  1  0  0  0
 45 46  2  0  0  0
 45132  1  0  0  0
 46133  1  0  0  0
 47134  1  0  0  0
 47135  1  0  0  0
 48 56  1  0  0  0
 48 65  1  0  0  0
 48136  1  0  0  0
 49 50  1  0  0  0
 49 53  1  0  0  0
 49 64  1  0  0  0
 49137  1  0  0  0
 50 51  1  0  0  0
 50138  1  0  0  0
 50139  1  0  0  0
 51 52  1  0  0  0
 51140  1  0  0  0
 51141  1  0  0  0
 52142  1  0  0  0
 52143  1  0  0  0
 53 54  1  0  0  0
 54 55  2  0  0  0
 54144  1  0  0  0
 55 57  1  0  0  0
 55145  1  0  0  0
 56 69  2  0  0  0
 57 58  2  0  0  0
 57146  1  0  0  0
 58147  1  0  0  0
 59 60  1  0  0  0
 59 61  1  0  0  0
 59 62  1  0  0  0
 60148  1  0  0  0
 60149  1  0  0  0
 60150  1  0  0  0
 61151  1  0  0  0
 61152  1  0  0  0
 61153  1  0  0  0
 62154  1  0  0  0
 62155  1  0  0  0
 62156  1  0  0  0
 63 65  1  0  0  0
 63157  1  0  0  0
 63158  1  0  0  0
 63159  1  0  0  0
 64160  1  0  0  0
 65161  1  0  0  0
 68 79  1  0  0  0
 71 87  2  0  0  0
 71 88  1  0  0  0
 71162  1  0  0  0
 72 73  2  0  0  0
 72 74  1  0  0  0
 72 78  1  0  0  0
 73 75  1  0  0  0
 73 87  1  0  0  0
 74 80  1  0  0  0
 74 88  2  0  0  0
 75163  1  0  0  0
 75164  1  0  0  0
 75165  1  0  0  0
 76166  1  0  0  0
 76167  1  0  0  0
 76168  1  0  0  0
 76 81  1  0  0  0
 77 89  1  0  0  0
 77169  1  0  0  0
 77170  1  0  0  0
 77171  1  0  0  0
 78 89  1  0  0  0
 78172  1  0  0  0
 78173  1  0  0  0
 79 82  1  0  0  0
 79174  1  0  0  0
 79175  1  0  0  0
 80 81  1  0  0  0
 80 90  1  0  0  0
 80 91  1  0  0  0
 81 83  1  0  0  0
 81 92  1  0  0  0
 82 84  1  0  0  0
 82 93  1  0  0  0
 82 94  1  0  0  0
 83 85  1  0  0  0
 83 95  1  0  0  0
 83 96  1  0  0  0
 84 86  1  0  0  0
 84 97  1  0  0  0
 84 98  1  0  0  0
 85 86  1  0  0  0
 85 99  1  0  0  0
 85100  1  0  0  0
 86101  1  0  0  0
 86102  1  0  0  0
M  ISO  4   1 100  68 101  79 101  89 100
M  END
> <chiral flag>
0

> <version>
0

> <s_m_source_file>
/data/baiqing/PycharmProjects/Reinvent-master-3.2/result/LINK_invent/BTK/process_docking_weight1_custom_sum_contain_oxygen_bond_distance_aromatic_linkinvent_7_9_3/rearranged_h_0066.sdf

> <i_m_source_file_index>
65

> <r_mmod_Potential_Energy-OPLS-2005>
-87.9926147460938

> <r_mmod_Stretch_Energy-OPLS-2005>
40.4114837646484

> <r_mmod_Bend_Energy-OPLS-2005>
116.126174926758

> <r_mmod_Torsional_Energy-OPLS-2005>
236.318145751953

> <r_mmod_Improper_Torsional_Energy-OPLS-2005>
11.6008186340332

> <r_mmod_Van_der_Waal_Energy-OPLS-2005>
206.313186645508

> <r_mmod_Electrostatic_Energy-OPLS-2005>
-523.217468261719

> <r_mmod_Solvation_Energy-OPLS-2005>
-187.00959777832

> <b_mmod_Minimization_Converged-OPLS-2005>
0

> <r_mmod_RMS_Derivative-OPLS-2005>
3.40103483200073

$$$$
69
                    3D
 Structure written by MMmdl.
174182  0  0  1  0            999 V2000
  -30.7664  -14.4135   20.5691 C   0  0  0  0  0  0
  -30.4039  -12.2725   19.4224 C   0  0  0  0  0  0
  -29.4851  -12.4698   18.1999 C   0  0  0  0  0  0
  -28.0084  -12.3249   18.6140 C   0  0  0  0  0  0
  -27.6462  -13.1964   19.8440 C   0  0  2  0  0  0
  -28.6887  -13.0449   20.9731 C   0  0  0  0  0  0
  -25.2577  -13.8124   20.5663 C   0  0  0  0  0  0
  -24.1823  -13.0429   20.9164 C   0  0  0  0  0  0
  -24.6360  -11.6887   20.8728 C   0  0  0  0  0  0
  -23.9030  -10.4287   21.0407 C   0  0  0  0  0  0
  -24.3597   -9.4204   21.9178 C   0  0  0  0  0  0
  -23.6281   -8.2237   22.0745 C   0  0  0  0  0  0
  -22.4260   -8.0274   21.3539 C   0  0  0  0  0  0
  -21.9892   -9.0247   20.4637 C   0  0  0  0  0  0
  -22.7210  -10.2129   20.3050 C   0  0  0  0  0  0
  -21.6852   -6.0729   22.5283 C   0  0  0  0  0  0
  -21.4016   -6.5638   23.8212 C   0  0  0  0  0  0
  -21.3658   -5.6789   24.9176 C   0  0  0  0  0  0
  -21.6046   -4.3051   24.7226 C   0  0  0  0  0  0
  -21.8820   -3.8143   23.4348 C   0  0  0  0  0  0
  -21.9193   -4.6961   22.3404 C   0  0  0  0  0  0
  -22.7854  -13.5239   21.1853 C   0  0  0  0  0  0
  -22.1661   -4.2147   21.0983 F   0  0  0  0  0  0
  -21.5631   -3.4534   25.7742 F   0  0  0  0  0  0
  -30.0275  -13.2841   20.4190 N   0  0  0  0  0  0
  -26.2955  -12.9263   20.3242 N   0  0  0  0  0  0
  -25.9271  -11.6441   20.5719 N   0  0  0  0  0  0
  -22.0501  -12.8238   22.0413 N   0  0  0  0  0  0
  -25.4396  -15.1835   20.4132 N   0  0  0  0  0  0
  -31.9439  -14.5053   20.2035 O   0  0  0  0  0  0
  -21.6632   -6.8868   21.4239 O   0  0  0  0  0  0
  -22.3547  -14.5553   20.6701 O   0  0  0  0  0  0
  -24.6122  -31.8724   23.2182 C   0  0  0  0  0  0
  -25.9040  -32.4841   23.8440 C   0  0  1  0  0  0
  -27.2213  -27.4569   20.0883 C   0  0  0  0  0  0
  -25.5907  -33.8636   24.2368 N   0  0  0  0  0  0
  -23.3955  -30.5032   21.5583 C   0  0  2  0  0  0
  -24.8368  -28.9783   20.1217 C   0  0  0  0  0  0
  -22.7386  -29.4704   22.5022 C   0  0  0  0  0  0
  -18.0266  -28.1364   22.8489 C   0  0  0  0  0  0
  -24.1478  -36.7311   23.2644 C   0  0  0  0  0  0
  -25.9265  -30.8427   21.3727 C   0  0  0  0  0  0
  -25.9987  -29.4810   20.7197 C   0  0  0  0  0  0
  -27.1935  -28.7277   20.7024 C   0  0  0  0  0  0
  -26.0426  -26.9847   19.4643 C   0  0  0  0  0  0
  -24.8521  -27.7249   19.4953 C   0  0  0  0  0  0
  -23.6011  -29.8439   20.1707 C   0  0  0  0  0  0
  -25.4091  -36.3121   24.0359 C   0  0  1  0  0  0
  -20.5856  -28.3660   23.1305 C   0  0  2  0  0  0
  -20.6768  -26.9402   22.5404 C   0  0  0  0  0  0
  -19.5752  -26.6385   21.5195 C   0  0  0  0  0  0
  -18.1920  -26.7914   22.1599 C   0  0  0  0  0  0
  -19.1516  -28.8826   23.2892 C   0  0  0  0  0  0
  -18.9457  -30.1435   23.8901 C   0  0  0  0  0  0
  -17.6463  -30.6580   24.0562 C   0  0  0  0  0  0
  -25.9025  -34.9484   23.5150 C   0  0  0  0  0  0
  -16.5348  -29.9084   23.6329 C   0  0  0  0  0  0
  -16.7256  -28.6495   23.0352 C   0  0  0  0  0  0
  -26.4480  -31.6609   25.0747 C   0  0  0  0  0  0
  -25.3763  -31.3700   26.1511 C   0  0  0  0  0  0
  -27.0314  -30.3046   24.6129 C   0  0  0  0  0  0
  -27.6067  -32.4337   25.7483 C   0  0  0  0  0  0
  -27.5574  -37.1798   24.8470 C   0  0  0  0  0  0
  -21.4127  -29.3038   22.3721 N   0  0  0  0  0  0
  -26.4283  -37.3800   23.9416 N   0  0  0  0  0  0
  -24.6624  -31.0869   22.1067 N   0  0  0  0  0  0
  -23.4169  -28.8235   23.3047 O   0  0  0  0  0  0
  -28.4114  -26.7623   20.0426 O   0  0  0  0  0  0
  -26.5582  -34.8928   22.4706 O   0  0  0  0  0  0
  -23.5331  -32.1472   23.7604 O   0  0  0  0  0  0
  -30.8593  -16.6902   21.3706 C   0  0  0  0  0  0
  -29.2396  -17.4946   20.3739 C   0  0  0  0  0  0
  -29.1501  -19.6897   16.1296 C   0  0  0  0  0  0
  -30.7202  -20.6943   17.8241 C   0  0  0  0  0  0
  -29.3451  -22.0909   16.3504 C   0  0  0  0  0  0
  -26.6179  -22.6503   17.5187 C   0  0  0  0  0  0
  -26.1628  -21.6367   19.6895 C   0  0  0  0  0  0
  -28.6844  -18.3241   19.2657 C   0  0  0  0  0  0
  -28.5272  -19.8246   19.5533 C   0  0  0  0  0  0
  -27.7294  -24.4229   19.5556 C   0  0  0  0  0  0
  -28.2754  -22.9888   19.5029 C   0  0  0  0  0  0
  -28.4321  -25.4064   20.5050 C   0  0  0  0  0  0
  -28.1300  -20.6884   18.2996 C   0  0  2  0  0  0
  -29.3056  -20.7999   17.2023 C   0  0  0  0  0  0
  -27.3422  -21.9975   18.7365 C   0  0  0  0  0  0
  -30.3267  -17.8840   21.1117 N   0  0  0  0  0  0
  -29.0013  -16.1840   20.3416 N   0  0  0  0  0  0
  -30.1380  -15.6779   20.8810 N   0  0  0  0  0  0
  -31.4512  -12.3393   19.1212 H   0  0  0  0  0  0
  -30.2759  -11.2724   19.8400 H   0  0  0  0  0  0
  -29.7259  -11.7383   17.4273 H   0  0  0  0  0  0
  -29.6515  -13.4519   17.7554 H   0  0  0  0  0  0
  -27.8313  -11.2724   18.8398 H   0  0  0  0  0  0
  -27.3545  -12.5668   17.7751 H   0  0  0  0  0  0
  -27.6583  -14.2221   19.4864 H   0  0  0  0  0  0
  -28.6467  -12.0413   21.3986 H   0  0  0  0  0  0
  -28.4654  -13.7304   21.7920 H   0  0  0  0  0  0
  -25.2748   -9.5689   22.4740 H   0  0  0  0  0  0
  -24.0005   -7.4625   22.7455 H   0  0  0  0  0  0
  -21.0832   -8.8761   19.8933 H   0  0  0  0  0  0
  -22.3674  -10.9670   19.6159 H   0  0  0  0  0  0
  -21.2006   -7.6143   23.9721 H   0  0  0  0  0  0
  -21.1479   -6.0514   25.9080 H   0  0  0  0  0  0
  -22.0597   -2.7606   23.2851 H   0  0  0  0  0  0
  -22.4135  -11.9918   22.4828 H   0  0  0  0  0  0
  -21.1111  -13.1252   22.2601 H   0  0  0  0  0  0
  -24.6872  -15.8533   20.5249 H   0  0  0  0  0  0
  -26.3295  -15.6100   20.1818 H   0  0  0  0  0  0
  -26.7107  -32.5556   23.1201 H   0  0  0  0  0  0
  -25.0076  -33.9811   25.0525 H   0  0  0  0  0  0
  -22.6829  -31.3193   21.4246 H   0  0  0  0  0  0
  -23.3741  -35.9644   23.3316 H   0  0  0  0  0  0
  -24.3571  -36.8914   22.2058 H   0  0  0  0  0  0
  -23.7231  -37.6521   23.6646 H   0  0  0  0  0  0
  -26.0475  -31.6103   20.6077 H   0  0  0  0  0  0
  -26.8129  -30.8852   21.9944 H   0  0  0  0  0  0
  -28.0934  -29.1197   21.1561 H   0  0  0  0  0  0
  -26.0086  -26.0773   18.8907 H   0  0  0  0  0  0
  -23.9661  -27.3390   19.0101 H   0  0  0  0  0  0
  -23.7077  -30.6211   19.4133 H   0  0  0  0  0  0
  -22.7246  -29.2646   19.8733 H   0  0  0  0  0  0
  -25.1255  -36.1996   25.0856 H   0  0  0  0  0  0
  -20.9941  -28.3234   24.1428 H   0  0  0  0  0  0
  -20.5673  -26.2270   23.3588 H   0  0  0  0  0  0
  -21.6641  -26.7449   22.1202 H   0  0  0  0  0  0
  -19.6924  -25.6303   21.1216 H   0  0  0  0  0  0
  -19.6697  -27.3205   20.6732 H   0  0  0  0  0  0
  -17.4199  -26.6671   21.3995 H   0  0  0  0  0  0
  -18.0315  -26.0046   22.8981 H   0  0  0  0  0  0
  -19.7941  -30.7234   24.2285 H   0  0  0  0  0  0
  -17.5031  -31.6271   24.5144 H   0  0  0  0  0  0
  -15.5354  -30.2987   23.7675 H   0  0  0  0  0  0
  -15.8650  -28.0821   22.7072 H   0  0  0  0  0  0
  -24.6006  -30.6942   25.7890 H   0  0  0  0  0  0
  -24.8860  -32.2833   26.4895 H   0  0  0  0  0  0
  -25.8170  -30.8974   27.0297 H   0  0  0  0  0  0
  -26.2849  -29.6771   24.1249 H   0  0  0  0  0  0
  -27.4140  -29.7325   25.4586 H   0  0  0  0  0  0
  -27.8660  -30.4344   23.9236 H   0  0  0  0  0  0
  -27.2704  -33.3645   26.2062 H   0  0  0  0  0  0
  -28.3865  -32.6887   25.0297 H   0  0  0  0  0  0
  -28.0743  -31.8457   26.5394 H   0  0  0  0  0  0
  -28.2615  -38.0075   24.7510 H   0  0  0  0  0  0
  -28.1049  -36.2611   24.6296 H   0  0  0  0  0  0
  -27.2296  -37.1458   25.8877 H   0  0  0  0  0  0
  -20.9293  -29.8745   21.6927 H   0  0  0  0  0  0
  -26.0178  -38.2881   24.1415 H   0  0  0  0  0  0
  -31.8396  -16.5639   21.8126 H   0  0  0  0  0  0
  -29.9050  -19.7872   15.3486 H   0  0  0  0  0  0
  -28.1790  -19.7473   15.6363 H   0  0  0  0  0  0
  -29.2500  -18.6757   16.4976 H   0  0  0  0  0  0
  -31.4992  -20.8258   17.0725 H   0  0  0  0  0  0
  -30.9202  -19.7275   18.2806 H   0  0  0  0  0  0
  -30.8852  -21.4553   18.5867 H   0  0  0  0  0  0
  -30.2138  -22.1059   15.6899 H   0  0  0  0  0  0
  -29.4225  -22.9978   16.9445 H   0  0  0  0  0  0
  -28.4848  -22.1712   15.6870 H   0  0  0  0  0  0
  -25.7447  -23.2357   17.8089 H   0  0  0  0  0  0
  -26.2555  -21.8999   16.8154 H   0  0  0  0  0  0
  -27.2298  -23.3570   16.9663 H   0  0  0  0  0  0
  -25.4406  -22.4475   19.7874 H   0  0  0  0  0  0
  -26.4783  -21.4416   20.7136 H   0  0  0  0  0  0
  -25.6093  -20.7657   19.3375 H   0  0  0  0  0  0
  -27.7271  -17.9120   18.9466 H   0  0  0  0  0  0
  -29.3734  -18.1621   18.4488 H   0  0  0  0  0  0
  -29.4251  -20.2299   20.0178 H   0  0  0  0  0  0
  -27.7852  -19.8586   20.3433 H   0  0  0  0  0  0
  -26.6829  -24.3679   19.8475 H   0  0  0  0  0  0
  -27.7820  -24.8365   18.5490 H   0  0  0  0  0  0
  -28.4419  -22.6238   20.5168 H   0  0  0  0  0  0
  -29.2707  -23.0235   19.0671 H   0  0  0  0  0  0
  -29.4814  -25.1274   20.5988 H   0  0  0  0  0  0
  -28.0069  -25.3464   21.5084 H   0  0  0  0  0  0
  -27.3510  -20.0980   17.8141 H   0  0  0  0  0  0
  1 25  1  0  0  0
  1 30  2  0  0  0
  1 88  1  0  0  0
  2  3  1  0  0  0
  2 25  1  0  0  0
  2 89  1  0  0  0
  2 90  1  0  0  0
  3  4  1  0  0  0
  3 91  1  0  0  0
  3 92  1  0  0  0
  4  5  1  0  0  0
  4 93  1  0  0  0
  4 94  1  0  0  0
  5  6  1  0  0  0
  5 26  1  0  0  0
  5 95  1  0  0  0
  6 25  1  0  0  0
  6 96  1  0  0  0
  6 97  1  0  0  0
  7  8  2  0  0  0
  7 26  1  0  0  0
  7 29  1  0  0  0
  8  9  1  0  0  0
  8 22  1  0  0  0
  9 10  1  0  0  0
  9 27  2  0  0  0
 10 11  2  0  0  0
 10 15  1  0  0  0
 11 12  1  0  0  0
 11 98  1  0  0  0
 12 13  2  0  0  0
 12 99  1  0  0  0
 13 14  1  0  0  0
 13 31  1  0  0  0
 14 15  2  0  0  0
 14100  1  0  0  0
 15101  1  0  0  0
 16 17  2  0  0  0
 16 21  1  0  0  0
 16 31  1  0  0  0
 17 18  1  0  0  0
 17102  1  0  0  0
 18 19  2  0  0  0
 18103  1  0  0  0
 19 20  1  0  0  0
 19 24  1  0  0  0
 20 21  2  0  0  0
 20104  1  0  0  0
 21 23  1  0  0  0
 22 28  1  0  0  0
 22 32  2  0  0  0
 26 27  1  0  0  0
 28105  1  0  0  0
 28106  1  0  0  0
 29107  1  0  0  0
 29108  1  0  0  0
 33 34  1  0  0  0
 33 66  1  0  0  0
 33 70  2  0  0  0
 34 36  1  0  0  0
 34 59  1  0  0  0
 34109  1  0  0  0
 35 44  2  0  0  0
 35 45  1  0  0  0
 35 68  1  0  0  0
 36 56  1  0  0  0
 36110  1  0  0  0
 37 39  1  0  0  0
 37 47  1  0  0  0
 37 66  1  0  0  0
 37111  1  0  0  0
 38 43  2  0  0  0
 38 46  1  0  0  0
 38 47  1  0  0  0
 39 64  1  0  0  0
 39 67  2  0  0  0
 40 52  1  0  0  0
 40 53  2  0  0  0
 40 58  1  0  0  0
 41112  1  0  0  0
 41113  1  0  0  0
 41114  1  0  0  0
 41 48  1  0  0  0
 42 43  1  0  0  0
 42 66  1  0  0  0
 42115  1  0  0  0
 42116  1  0  0  0
 43 44  1  0  0  0
 44117  1  0  0  0
 45 46  2  0  0  0
 45118  1  0  0  0
 46119  1  0  0  0
 47120  1  0  0  0
 47121  1  0  0  0
 48 56  1  0  0  0
 48 65  1  0  0  0
 48122  1  0  0  0
 49 50  1  0  0  0
 49 53  1  0  0  0
 49 64  1  0  0  0
 49123  1  0  0  0
 50 51  1  0  0  0
 50124  1  0  0  0
 50125  1  0  0  0
 51 52  1  0  0  0
 51126  1  0  0  0
 51127  1  0  0  0
 52128  1  0  0  0
 52129  1  0  0  0
 53 54  1  0  0  0
 54 55  2  0  0  0
 54130  1  0  0  0
 55 57  1  0  0  0
 55131  1  0  0  0
 56 69  2  0  0  0
 57 58  2  0  0  0
 57132  1  0  0  0
 58133  1  0  0  0
 59 60  1  0  0  0
 59 61  1  0  0  0
 59 62  1  0  0  0
 60134  1  0  0  0
 60135  1  0  0  0
 60136  1  0  0  0
 61137  1  0  0  0
 61138  1  0  0  0
 61139  1  0  0  0
 62140  1  0  0  0
 62141  1  0  0  0
 62142  1  0  0  0
 63 65  1  0  0  0
 63143  1  0  0  0
 63144  1  0  0  0
 63145  1  0  0  0
 64146  1  0  0  0
 65147  1  0  0  0
 68 82  1  0  0  0
 71 86  2  0  0  0
 71 88  1  0  0  0
 71148  1  0  0  0
 72 78  1  0  0  0
 72 86  1  0  0  0
 72 87  2  0  0  0
 73149  1  0  0  0
 73150  1  0  0  0
 73151  1  0  0  0
 73 84  1  0  0  0
 74 84  1  0  0  0
 74152  1  0  0  0
 74153  1  0  0  0
 74154  1  0  0  0
 75 84  1  0  0  0
 75155  1  0  0  0
 75156  1  0  0  0
 75157  1  0  0  0
 76158  1  0  0  0
 76159  1  0  0  0
 76160  1  0  0  0
 76 85  1  0  0  0
 77 85  1  0  0  0
 77161  1  0  0  0
 77162  1  0  0  0
 77163  1  0  0  0
 78 79  1  0  0  0
 78164  1  0  0  0
 78165  1  0  0  0
 79166  1  0  0  0
 79167  1  0  0  0
 79 83  1  0  0  0
 80 81  1  0  0  0
 80 82  1  0  0  0
 80168  1  0  0  0
 80169  1  0  0  0
 81 85  1  0  0  0
 81170  1  0  0  0
 81171  1  0  0  0
 82172  1  0  0  0
 82173  1  0  0  0
 83 84  1  0  0  0
 83 85  1  0  0  0
 83174  1  0  0  0
 87 88  1  0  0  0
M  ISO  4   1 100  68 101  82 101  88 100
M  END
> <chiral flag>
0

> <version>
0

> <s_m_source_file>
/data/baiqing/PycharmProjects/Reinvent-master-3.2/result/LINK_invent/BTK/process_docking_weight1_custom_sum_contain_oxygen_bond_distance_aromatic_linkinvent_7_9_3/rearranged_h_0066.sdf

> <i_m_source_file_index>
66

> <r_mmod_Potential_Energy-OPLS-2005>
232.121856689453

> <r_mmod_Stretch_Energy-OPLS-2005>
49.1908073425293

> <r_mmod_Bend_Energy-OPLS-2005>
154.696273803711

> <r_mmod_Torsional_Energy-OPLS-2005>
304.138885498047

> <r_mmod_Improper_Torsional_Energy-OPLS-2005>
16.4695243835449

> <r_mmod_Van_der_Waal_Energy-OPLS-2005>
175.302398681641

> <r_mmod_Electrostatic_Energy-OPLS-2005>
-306.663635253906

> <r_mmod_Solvation_Energy-OPLS-2005>
-180.141479492188

> <b_mmod_Minimization_Converged-OPLS-2005>
0

> <r_mmod_RMS_Derivative-OPLS-2005>
1.70429050922394

$$$$
70
                    3D
 Structure written by MMmdl.
190198  0  0  1  0            999 V2000
  -30.7959  -14.3127   20.7302 C   0  0  0  0  0  0
  -30.3996  -12.2948   19.3713 C   0  0  0  0  0  0
  -29.4640  -12.5304   18.1747 C   0  0  0  0  0  0
  -27.9924  -12.3877   18.5973 C   0  0  0  0  0  0
  -27.6560  -13.2036   19.8723 C   0  0  2  0  0  0
  -28.6929  -12.9491   20.9867 C   0  0  0  0  0  0
  -25.2526  -13.8197   20.5649 C   0  0  0  0  0  0
  -24.1803  -13.0462   20.9159 C   0  0  0  0  0  0
  -24.6372  -11.6916   20.8725 C   0  0  0  0  0  0
  -23.9044  -10.4310   21.0409 C   0  0  0  0  0  0
  -24.3606   -9.4217   21.9187 C   0  0  0  0  0  0
  -23.6300   -8.2242   22.0760 C   0  0  0  0  0  0
  -22.4305   -8.0248   21.3534 C   0  0  0  0  0  0
  -21.9931   -9.0219   20.4649 C   0  0  0  0  0  0
  -22.7228  -10.2106   20.3055 C   0  0  0  0  0  0
  -21.6841   -6.0716   22.5287 C   0  0  0  0  0  0
  -21.3998   -6.5637   23.8219 C   0  0  0  0  0  0
  -21.3656   -5.6787   24.9182 C   0  0  0  0  0  0
  -21.6053   -4.3054   24.7251 C   0  0  0  0  0  0
  -21.8808   -3.8130   23.4376 C   0  0  0  0  0  0
  -21.9181   -4.6936   22.3419 C   0  0  0  0  0  0
  -22.7832  -13.5225   21.1851 C   0  0  0  0  0  0
  -22.1638   -4.2107   21.0987 F   0  0  0  0  0  0
  -21.5653   -3.4555   25.7778 F   0  0  0  0  0  0
  -30.0354  -13.2311   20.4450 N   0  0  0  0  0  0
  -26.2965  -12.9360   20.3347 N   0  0  0  0  0  0
  -25.9278  -11.6517   20.5744 N   0  0  0  0  0  0
  -22.0486  -12.8202   22.0398 N   0  0  0  0  0  0
  -25.4202  -15.1934   20.4035 N   0  0  0  0  0  0
  -31.8040  -14.6133   20.0818 O   0  0  0  0  0  0
  -21.6634   -6.8863   21.4254 O   0  0  0  0  0  0
  -22.3491  -14.5510   20.6658 O   0  0  0  0  0  0
  -24.6080  -31.8709   23.2149 C   0  0  0  0  0  0
  -25.8992  -32.4842   23.8414 C   0  0  1  0  0  0
  -27.2330  -27.4727   20.0748 C   0  0  0  0  0  0
  -25.5882  -33.8641   24.2350 N   0  0  0  0  0  0
  -23.3942  -30.4982   21.5558 C   0  0  2  0  0  0
  -24.8387  -28.9711   20.1149 C   0  0  0  0  0  0
  -22.7344  -29.4656   22.4993 C   0  0  0  0  0  0
  -18.0254  -28.1380   22.8469 C   0  0  0  0  0  0
  -24.1482  -36.7310   23.2650 C   0  0  0  0  0  0
  -25.9200  -30.8474   21.3618 C   0  0  0  0  0  0
  -25.9978  -29.4859   20.7065 C   0  0  0  0  0  0
  -27.1998  -28.7461   20.6790 C   0  0  0  0  0  0
  -26.0526  -26.9594   19.4876 C   0  0  0  0  0  0
  -24.8597  -27.7054   19.5054 C   0  0  0  0  0  0
  -23.5996  -29.8375   20.1682 C   0  0  0  0  0  0
  -25.4120  -36.3127   24.0334 C   0  0  1  0  0  0
  -20.5831  -28.3664   23.1318 C   0  0  2  0  0  0
  -20.6742  -26.9406   22.5420 C   0  0  0  0  0  0
  -19.5737  -26.6397   21.5193 C   0  0  0  0  0  0
  -18.1911  -26.7926   22.1608 C   0  0  0  0  0  0
  -19.1501  -28.8839   23.2891 C   0  0  0  0  0  0
  -18.9433  -30.1443   23.8903 C   0  0  0  0  0  0
  -17.6459  -30.6604   24.0548 C   0  0  0  0  0  0
  -25.9040  -34.9477   23.5147 C   0  0  0  0  0  0
  -16.5346  -29.9106   23.6332 C   0  0  0  0  0  0
  -16.7252  -28.6520   23.0340 C   0  0  0  0  0  0
  -26.4462  -31.6597   25.0708 C   0  0  0  0  0  0
  -25.3750  -31.3623   26.1448 C   0  0  0  0  0  0
  -27.0321  -30.3071   24.6028 C   0  0  0  0  0  0
  -27.6011  -32.4306   25.7538 C   0  0  0  0  0  0
  -27.5589  -37.1827   24.8469 C   0  0  0  0  0  0
  -21.4080  -29.3031   22.3724 N   0  0  0  0  0  0
  -26.4316  -37.3804   23.9397 N   0  0  0  0  0  0
  -24.6594  -31.0841   22.1046 N   0  0  0  0  0  0
  -23.4125  -28.8167   23.2993 O   0  0  0  0  0  0
  -28.4286  -26.7930   20.0500 O   0  0  0  0  0  0
  -26.5586  -34.8922   22.4697 O   0  0  0  0  0  0
  -23.5280  -32.1455   23.7569 O   0  0  0  0  0  0
  -33.1890  -18.1103   20.5982 C   0  0  0  0  0  0
  -32.4973  -19.0779   21.2882 C   0  0  0  0  0  0
  -31.8307  -17.0401   21.9892 C   0  0  0  0  0  0
  -28.2738  -19.4634   23.7363 C   0  0  0  0  0  0
  -30.5348  -20.3775   19.5191 C   0  0  0  0  0  0
  -33.6322  -20.9096   20.0055 C   0  0  0  0  0  0
  -33.1310  -21.2386   22.4082 C   0  0  0  0  0  0
  -31.3035  -14.1835   24.6328 C   0  0  0  0  0  0
  -32.9044  -16.1040   24.6309 C   0  0  0  0  0  0
  -33.1988  -14.2338   23.0099 C   0  0  0  0  0  0
  -29.2393  -18.8610   22.7054 C   0  0  0  0  0  0
  -29.8015  -23.3114   20.4465 C   0  0  0  0  0  0
  -29.7903  -24.8137   20.1464 C   0  0  0  0  0  0
  -31.2006  -22.6823   20.3510 C   0  0  0  0  0  0
  -30.7106  -18.9068   23.1639 C   0  0  0  0  0  0
  -28.3692  -25.3836   20.2246 C   0  0  0  0  0  0
  -31.1979  -15.8668   22.7325 C   0  0  2  0  0  0
  -31.1986  -21.1702   20.6764 C   0  0  2  0  0  0
  -32.5904  -20.5910   21.1077 C   0  0  0  0  0  0
  -32.1467  -15.1088   23.7262 C   0  0  0  0  0  0
  -31.6632  -18.3743   22.1618 N   0  0  0  0  0  0
  -32.7479  -16.9047   21.0392 N   0  3  0  0  0  0
  -30.4489  -14.9489   21.8574 N   0  0  0  0  0  0
  -31.4362  -12.4042   19.0502 H   0  0  0  0  0  0
  -30.3121  -11.2693   19.7343 H   0  0  0  0  0  0
  -29.6922  -11.8254   17.3725 H   0  0  0  0  0  0
  -29.6282  -13.5283   17.7627 H   0  0  0  0  0  0
  -27.7975  -11.3274   18.7610 H   0  0  0  0  0  0
  -27.3383  -12.6862   17.7771 H   0  0  0  0  0  0
  -27.7098  -14.2586   19.5991 H   0  0  0  0  0  0
  -28.6591  -11.9121   21.3203 H   0  0  0  0  0  0
  -28.4286  -13.5407   21.8635 H   0  0  0  0  0  0
  -25.2738   -9.5705   22.4769 H   0  0  0  0  0  0
  -24.0003   -7.4650   22.7524 H   0  0  0  0  0  0
  -21.0855   -8.8699   19.8975 H   0  0  0  0  0  0
  -22.3657  -10.9614   19.6161 H   0  0  0  0  0  0
  -21.1969   -7.6156   23.9689 H   0  0  0  0  0  0
  -21.1505   -6.0546   25.9076 H   0  0  0  0  0  0
  -22.0603   -2.7597   23.2879 H   0  0  0  0  0  0
  -22.4098  -11.9850   22.4764 H   0  0  0  0  0  0
  -21.1081  -13.1179   22.2584 H   0  0  0  0  0  0
  -24.6574  -15.8530   20.5184 H   0  0  0  0  0  0
  -26.2837  -15.6375   20.1133 H   0  0  0  0  0  0
  -26.7047  -32.5589   23.1173 H   0  0  0  0  0  0
  -25.0027  -33.9808   25.0490 H   0  0  0  0  0  0
  -22.6816  -31.3134   21.4236 H   0  0  0  0  0  0
  -23.3786  -35.9604   23.3295 H   0  0  0  0  0  0
  -24.3568  -36.8950   22.2066 H   0  0  0  0  0  0
  -23.7174  -37.6482   23.6680 H   0  0  0  0  0  0
  -26.0228  -31.6169   20.5949 H   0  0  0  0  0  0
  -26.8081  -30.9002   21.9791 H   0  0  0  0  0  0
  -28.0977  -29.1481   21.1294 H   0  0  0  0  0  0
  -26.0365  -26.0036   18.9867 H   0  0  0  0  0  0
  -23.9679  -27.3052   19.0440 H   0  0  0  0  0  0
  -23.7032  -30.6181   19.4129 H   0  0  0  0  0  0
  -22.7220  -29.2593   19.8750 H   0  0  0  0  0  0
  -25.1290  -36.2041   25.0822 H   0  0  0  0  0  0
  -20.9925  -28.3231   24.1431 H   0  0  0  0  0  0
  -20.5677  -26.2228   23.3577 H   0  0  0  0  0  0
  -21.6612  -26.7443   22.1229 H   0  0  0  0  0  0
  -19.6923  -25.6309   21.1219 H   0  0  0  0  0  0
  -19.6737  -27.3176   20.6695 H   0  0  0  0  0  0
  -17.4191  -26.6634   21.4013 H   0  0  0  0  0  0
  -18.0339  -26.0074   22.9009 H   0  0  0  0  0  0
  -19.7906  -30.7208   24.2313 H   0  0  0  0  0  0
  -17.5032  -31.6284   24.5140 H   0  0  0  0  0  0
  -15.5356  -30.3033   23.7664 H   0  0  0  0  0  0
  -15.8622  -28.0871   22.7061 H   0  0  0  0  0  0
  -24.5918  -30.6989   25.7745 H   0  0  0  0  0  0
  -24.8960  -32.2752   26.5003 H   0  0  0  0  0  0
  -25.8135  -30.8714   27.0143 H   0  0  0  0  0  0
  -26.2849  -29.6836   24.1096 H   0  0  0  0  0  0
  -27.4139  -29.7284   25.4447 H   0  0  0  0  0  0
  -27.8658  -30.4426   23.9121 H   0  0  0  0  0  0
  -27.2605  -33.3606   26.2114 H   0  0  0  0  0  0
  -28.3896  -32.6858   25.0439 H   0  0  0  0  0  0
  -28.0588  -31.8412   26.5499 H   0  0  0  0  0  0
  -28.2586  -38.0141   24.7565 H   0  0  0  0  0  0
  -28.1094  -36.2667   24.6295 H   0  0  0  0  0  0
  -27.2254  -37.1475   25.8849 H   0  0  0  0  0  0
  -20.9201  -29.8803   21.7021 H   0  0  0  0  0  0
  -26.0217  -38.2881   24.1437 H   0  0  0  0  0  0
  -33.9338  -18.1915   19.8194 H   0  0  0  0  0  0
  -27.2461  -19.4347   23.3677 H   0  0  0  0  0  0
  -28.5247  -20.5048   23.9479 H   0  0  0  0  0  0
  -28.3001  -18.9203   24.6828 H   0  0  0  0  0  0
  -29.5158  -20.7135   19.3356 H   0  0  0  0  0  0
  -30.4632  -19.3075   19.7165 H   0  0  0  0  0  0
  -31.0787  -20.4932   18.5819 H   0  0  0  0  0  0
  -34.6258  -20.5493   20.2715 H   0  0  0  0  0  0
  -33.7371  -21.9825   19.8432 H   0  0  0  0  0  0
  -33.3595  -20.4708   19.0446 H   0  0  0  0  0  0
  -33.9425  -20.6477   22.8402 H   0  0  0  0  0  0
  -32.3796  -21.3787   23.1789 H   0  0  0  0  0  0
  -33.5422  -22.2311   22.2244 H   0  0  0  0  0  0
  -31.9182  -13.7085   25.3999 H   0  0  0  0  0  0
  -30.8297  -13.3801   24.0665 H   0  0  0  0  0  0
  -30.5105  -14.7277   25.1486 H   0  0  0  0  0  0
  -33.5285  -15.5772   25.3543 H   0  0  0  0  0  0
  -32.2233  -16.7425   25.1949 H   0  0  0  0  0  0
  -33.5697  -16.7503   24.0568 H   0  0  0  0  0  0
  -33.8764  -13.7720   23.7284 H   0  0  0  0  0  0
  -33.8192  -14.8146   22.3262 H   0  0  0  0  0  0
  -32.7536  -13.4142   22.4469 H   0  0  0  0  0  0
  -29.1174  -19.4029   21.7691 H   0  0  0  0  0  0
  -28.9443  -17.8366   22.4864 H   0  0  0  0  0  0
  -29.1079  -22.8209   19.7619 H   0  0  0  0  0  0
  -29.4062  -23.1453   21.4492 H   0  0  0  0  0  0
  -30.1995  -24.9936   19.1515 H   0  0  0  0  0  0
  -30.4417  -25.3347   20.8470 H   0  0  0  0  0  0
  -31.8541  -23.2157   21.0382 H   0  0  0  0  0  0
  -31.6069  -22.8463   19.3539 H   0  0  0  0  0  0
  -30.8510  -18.3693   24.1014 H   0  0  0  0  0  0
  -30.9792  -19.9237   23.4093 H   0  0  0  0  0  0
  -27.9291  -25.1579   21.1965 H   0  0  0  0  0  0
  -27.7614  -24.8968   19.4636 H   0  0  0  0  0  0
  -30.4214  -16.3136   23.3495 H   0  0  0  0  0  0
  -30.5453  -21.0747   21.5391 H   0  0  0  0  0  0
  -32.9729  -15.9993   20.6271 H   0  0  0  0  0  0
  -29.6008  -14.5904   22.2676 H   0  0  0  0  0  0
  1 25  1  0  0  0
  1 30  2  0  0  0
  1 93  1  0  0  0
  2  3  1  0  0  0
  2 25  1  0  0  0
  2 94  1  0  0  0
  2 95  1  0  0  0
  3  4  1  0  0  0
  3 96  1  0  0  0
  3 97  1  0  0  0
  4  5  1  0  0  0
  4 98  1  0  0  0
  4 99  1  0  0  0
  5  6  1  0  0  0
  5 26  1  0  0  0
  5100  1  0  0  0
  6 25  1  0  0  0
  6101  1  0  0  0
  6102  1  0  0  0
  7  8  2  0  0  0
  7 26  1  0  0  0
  7 29  1  0  0  0
  8  9  1  0  0  0
  8 22  1  0  0  0
  9 10  1  0  0  0
  9 27  2  0  0  0
 10 11  2  0  0  0
 10 15  1  0  0  0
 11 12  1  0  0  0
 11103  1  0  0  0
 12 13  2  0  0  0
 12104  1  0  0  0
 13 14  1  0  0  0
 13 31  1  0  0  0
 14 15  2  0  0  0
 14105  1  0  0  0
 15106  1  0  0  0
 16 17  2  0  0  0
 16 21  1  0  0  0
 16 31  1  0  0  0
 17 18  1  0  0  0
 17107  1  0  0  0
 18 19  2  0  0  0
 18108  1  0  0  0
 19 20  1  0  0  0
 19 24  1  0  0  0
 20 21  2  0  0  0
 20109  1  0  0  0
 21 23  1  0  0  0
 22 28  1  0  0  0
 22 32  2  0  0  0
 26 27  1  0  0  0
 28110  1  0  0  0
 28111  1  0  0  0
 29112  1  0  0  0
 29113  1  0  0  0
 33 34  1  0  0  0
 33 66  1  0  0  0
 33 70  2  0  0  0
 34 36  1  0  0  0
 34 59  1  0  0  0
 34114  1  0  0  0
 35 44  2  0  0  0
 35 45  1  0  0  0
 35 68  1  0  0  0
 36 56  1  0  0  0
 36115  1  0  0  0
 37 39  1  0  0  0
 37 47  1  0  0  0
 37 66  1  0  0  0
 37116  1  0  0  0
 38 43  2  0  0  0
 38 46  1  0  0  0
 38 47  1  0  0  0
 39 64  1  0  0  0
 39 67  2  0  0  0
 40 52  1  0  0  0
 40 53  2  0  0  0
 40 58  1  0  0  0
 41117  1  0  0  0
 41118  1  0  0  0
 41119  1  0  0  0
 41 48  1  0  0  0
 42 43  1  0  0  0
 42 66  1  0  0  0
 42120  1  0  0  0
 42121  1  0  0  0
 43 44  1  0  0  0
 44122  1  0  0  0
 45 46  2  0  0  0
 45123  1  0  0  0
 46124  1  0  0  0
 47125  1  0  0  0
 47126  1  0  0  0
 48 56  1  0  0  0
 48 65  1  0  0  0
 48127  1  0  0  0
 49 50  1  0  0  0
 49 53  1  0  0  0
 49 64  1  0  0  0
 49128  1  0  0  0
 50 51  1  0  0  0
 50129  1  0  0  0
 50130  1  0  0  0
 51 52  1  0  0  0
 51131  1  0  0  0
 51132  1  0  0  0
 52133  1  0  0  0
 52134  1  0  0  0
 53 54  1  0  0  0
 54 55  2  0  0  0
 54135  1  0  0  0
 55 57  1  0  0  0
 55136  1  0  0  0
 56 69  2  0  0  0
 57 58  2  0  0  0
 57137  1  0  0  0
 58138  1  0  0  0
 59 60  1  0  0  0
 59 61  1  0  0  0
 59 62  1  0  0  0
 60139  1  0  0  0
 60140  1  0  0  0
 60141  1  0  0  0
 61142  1  0  0  0
 61143  1  0  0  0
 61144  1  0  0  0
 62145  1  0  0  0
 62146  1  0  0  0
 62147  1  0  0  0
 63 65  1  0  0  0
 63148  1  0  0  0
 63149  1  0  0  0
 63150  1  0  0  0
 64151  1  0  0  0
 65152  1  0  0  0
 68 86  1  0  0  0
 71 72  2  0  0  0
 71 92  1  0  0  0
 71153  1  0  0  0
 72 89  1  0  0  0
 72 91  1  0  0  0
 73 87  1  0  0  0
 73 91  1  0  0  0
 73 92  2  0  0  0
 74 81  1  0  0  0
 74154  1  0  0  0
 74155  1  0  0  0
 74156  1  0  0  0
 75157  1  0  0  0
 75158  1  0  0  0
 75159  1  0  0  0
 75 88  1  0  0  0
 76160  1  0  0  0
 76161  1  0  0  0
 76162  1  0  0  0
 76 89  1  0  0  0
 77 89  1  0  0  0
 77163  1  0  0  0
 77164  1  0  0  0
 77165  1  0  0  0
 78166  1  0  0  0
 78167  1  0  0  0
 78168  1  0  0  0
 78 90  1  0  0  0
 79 90  1  0  0  0
 79169  1  0  0  0
 79170  1  0  0  0
 79171  1  0  0  0
 80 90  1  0  0  0
 80172  1  0  0  0
 80173  1  0  0  0
 80174  1  0  0  0
 81 85  1  0  0  0
 81175  1  0  0  0
 81176  1  0  0  0
 82 83  1  0  0  0
 82 84  1  0  0  0
 82177  1  0  0  0
 82178  1  0  0  0
 83 86  1  0  0  0
 83179  1  0  0  0
 83180  1  0  0  0
 84 88  1  0  0  0
 84181  1  0  0  0
 84182  1  0  0  0
 85 91  1  0  0  0
 85183  1  0  0  0
 85184  1  0  0  0
 86185  1  0  0  0
 86186  1  0  0  0
 87 90  1  0  0  0
 87 93  1  0  0  0
 87187  1  0  0  0
 88 89  1  0  0  0
 88188  1  0  0  0
 92189  1  0  0  0
 93190  1  0  0  0
M  CHG  1  92   1
M  ISO  4   1 100  68 101  86 101  93 100
M  END
> <chiral flag>
0

> <version>
0

> <s_m_source_file>
/data/baiqing/PycharmProjects/Reinvent-master-3.2/result/LINK_invent/BTK/process_docking_weight1_custom_sum_contain_oxygen_bond_distance_aromatic_linkinvent_7_9_3/rearranged_h_0066.sdf

> <i_m_source_file_index>
67

> <r_mmod_Potential_Energy-OPLS-2005>
-128.210403442383

> <r_mmod_Stretch_Energy-OPLS-2005>
42.9413375854492

> <r_mmod_Bend_Energy-OPLS-2005>
126.55078125

> <r_mmod_Torsional_Energy-OPLS-2005>
253.318817138672

> <r_mmod_Improper_Torsional_Energy-OPLS-2005>
3.30227160453796

> <r_mmod_Van_der_Waal_Energy-OPLS-2005>
157.095947265625

> <r_mmod_Electrostatic_Energy-OPLS-2005>
-380.42431640625

> <r_mmod_Solvation_Energy-OPLS-2005>
-339.391204833984

> <b_mmod_Minimization_Converged-OPLS-2005>
0

> <r_mmod_RMS_Derivative-OPLS-2005>
4.63863563537598

$$$$
71
                    3D
 Structure written by MMmdl.
190198  0  0  1  0            999 V2000
  -30.6807  -14.5120   20.3876 C   0  0  0  0  0  0
  -30.4161  -12.2660   19.4449 C   0  0  0  0  0  0
  -29.4778  -12.3475   18.2155 C   0  0  0  0  0  0
  -27.9995  -12.2886   18.6393 C   0  0  0  0  0  0
  -27.6456  -13.2038   19.8456 C   0  0  2  0  0  0
  -28.7000  -13.0864   20.9698 C   0  0  0  0  0  0
  -25.2512  -13.8166   20.5690 C   0  0  0  0  0  0
  -24.1777  -13.0444   20.9236 C   0  0  0  0  0  0
  -24.6344  -11.6934   20.8794 C   0  0  0  0  0  0
  -23.9012  -10.4317   21.0415 C   0  0  0  0  0  0
  -24.3591   -9.4258   21.9184 C   0  0  0  0  0  0
  -23.6310   -8.2270   22.0750 C   0  0  0  0  0  0
  -22.4280   -8.0297   21.3561 C   0  0  0  0  0  0
  -21.9901   -9.0250   20.4656 C   0  0  0  0  0  0
  -22.7190  -10.2154   20.3072 C   0  0  0  0  0  0
  -21.6868   -6.0745   22.5286 C   0  0  0  0  0  0
  -21.3986   -6.5654   23.8211 C   0  0  0  0  0  0
  -21.3663   -5.6808   24.9183 C   0  0  0  0  0  0
  -21.6084   -4.3069   24.7242 C   0  0  0  0  0  0
  -21.8825   -3.8155   23.4360 C   0  0  0  0  0  0
  -21.9186   -4.6972   22.3413 C   0  0  0  0  0  0
  -22.7811  -13.5270   21.1898 C   0  0  0  0  0  0
  -22.1625   -4.2172   21.0972 F   0  0  0  0  0  0
  -21.5718   -3.4533   25.7746 F   0  0  0  0  0  0
  -30.0205  -13.3273   20.3785 N   0  0  0  0  0  0
  -26.2945  -12.9345   20.3342 N   0  0  0  0  0  0
  -25.9270  -11.6515   20.5848 N   0  0  0  0  0  0
  -22.0450  -12.8256   22.0480 N   0  0  0  0  0  0
  -25.4200  -15.1847   20.4093 N   0  0  0  0  0  0
  -31.9073  -14.5970   20.3150 O   0  0  0  0  0  0
  -21.6676   -6.8874   21.4237 O   0  0  0  0  0  0
  -22.3478  -14.5524   20.6694 O   0  0  0  0  0  0
  -24.6093  -31.8707   23.2118 C   0  0  0  0  0  0
  -25.9009  -32.4839   23.8410 C   0  0  1  0  0  0
  -27.2467  -27.4657   20.0961 C   0  0  0  0  0  0
  -25.5882  -33.8638   24.2344 N   0  0  0  0  0  0
  -23.3957  -30.4927   21.5520 C   0  0  2  0  0  0
  -24.8444  -28.9609   20.1166 C   0  0  0  0  0  0
  -22.7379  -29.4665   22.5016 C   0  0  0  0  0  0
  -18.0271  -28.1377   22.8503 C   0  0  0  0  0  0
  -24.1490  -36.7311   23.2642 C   0  0  0  0  0  0
  -25.9205  -30.8478   21.3586 C   0  0  0  0  0  0
  -25.9987  -29.4833   20.7091 C   0  0  0  0  0  0
  -27.1974  -28.7412   20.6956 C   0  0  0  0  0  0
  -26.0745  -26.9532   19.4901 C   0  0  0  0  0  0
  -24.8760  -27.6942   19.5056 C   0  0  0  0  0  0
  -23.6021  -29.8214   20.1669 C   0  0  0  0  0  0
  -25.4112  -36.3119   24.0346 C   0  0  1  0  0  0
  -20.5852  -28.3650   23.1350 C   0  0  2  0  0  0
  -20.6758  -26.9393   22.5437 C   0  0  0  0  0  0
  -19.5743  -26.6388   21.5228 C   0  0  0  0  0  0
  -18.1916  -26.7933   22.1625 C   0  0  0  0  0  0
  -19.1516  -28.8835   23.2920 C   0  0  0  0  0  0
  -18.9440  -30.1440   23.8928 C   0  0  0  0  0  0
  -17.6440  -30.6584   24.0572 C   0  0  0  0  0  0
  -25.9025  -34.9487   23.5136 C   0  0  0  0  0  0
  -16.5333  -29.9086   23.6328 C   0  0  0  0  0  0
  -16.7259  -28.6507   23.0346 C   0  0  0  0  0  0
  -26.4458  -31.6607   25.0715 C   0  0  0  0  0  0
  -25.3734  -31.3692   26.1464 C   0  0  0  0  0  0
  -27.0277  -30.3060   24.6051 C   0  0  0  0  0  0
  -27.6047  -32.4315   25.7455 C   0  0  0  0  0  0
  -27.5586  -37.1810   24.8466 C   0  0  0  0  0  0
  -21.4115  -29.3015   22.3751 N   0  0  0  0  0  0
  -26.4306  -37.3797   23.9404 N   0  0  0  0  0  0
  -24.6598  -31.0835   22.0996 N   0  0  0  0  0  0
  -23.4167  -28.8217   23.3052 O   0  0  0  0  0  0
  -28.4652  -26.8201   20.1166 O   0  0  0  0  0  0
  -26.5587  -34.8928   22.4696 O   0  0  0  0  0  0
  -23.5294  -32.1448   23.7536 O   0  0  0  0  0  0
  -29.9733  -17.4742   21.2921 C   0  0  0  0  0  0
  -29.4778  -16.6908   20.2953 C   0  0  0  0  0  0
  -28.5540  -18.7069   20.0544 C   0  0  0  0  0  0
  -29.2499  -25.1327   18.6214 C   0  0  0  0  0  0
  -27.7880  -19.1782   17.6827 C   0  0  0  0  0  0
  -27.7240  -21.1090   19.1739 C   0  0  0  0  0  0
  -26.1441  -19.2440   19.5544 C   0  0  0  0  0  0
  -31.1480  -20.5425   20.9471 C   0  0  0  0  0  0
  -30.8524  -19.4153   23.1207 C   0  0  0  0  0  0
  -27.7189  -20.5658   22.9303 C   0  0  0  0  0  0
  -30.3141  -15.6263   18.3075 C   0  0  0  0  0  0
  -29.3230  -24.7770   21.2050 C   0  0  2  0  0  0
  -28.5755  -25.4045   19.9775 C   0  0  1  0  0  0
  -29.6476  -22.2098   23.3749 C   0  0  1  0  0  0
  -27.6060  -19.5768   19.1789 C   0  0  0  0  0  0
  -30.0609  -19.9538   21.8870 C   0  0  0  0  0  0
  -29.0775  -21.0903   22.4261 C   0  0  1  0  0  0
  -28.3183  -24.3759   22.3440 C   0  0  0  0  0  0
  -28.8323  -23.5430   23.5727 C   0  0  0  0  0  0
  -30.5335  -25.6214   21.6989 C   0  0  0  0  0  0
  -29.4441  -18.7646   21.1231 N   0  0  0  0  0  0
  -28.5545  -17.4320   19.6520 N   0  3  0  0  0  0
  -29.9764  -15.4723   19.7373 N   0  0  0  0  0  0
  -29.8203  -21.7114   24.6034 F   0  0  0  0  0  0
  -28.8820  -21.8277   21.3723 F   0  0  0  0  0  0
  -27.3017  -23.6893   21.8131 F   0  0  0  0  0  0
  -27.7789  -25.4971   22.8287 F   0  0  0  0  0  0
  -29.5921  -24.3541   24.3106 F   0  0  0  0  0  0
  -27.7497  -23.2691   24.3059 F   0  0  0  0  0  0
  -31.3139  -25.9858   20.6814 F   0  0  0  0  0  0
  -30.1498  -26.7231   22.3461 F   0  0  0  0  0  0
  -31.2994  -24.8969   22.5141 F   0  0  0  0  0  0
  -31.4610  -12.3505   19.1395 H   0  0  0  0  0  0
  -30.3240  -11.2919   19.9316 H   0  0  0  0  0  0
  -29.6833  -11.5118   17.5437 H   0  0  0  0  0  0
  -29.6529  -13.2346   17.6175 H   0  0  0  0  0  0
  -27.8011  -11.2508   18.9097 H   0  0  0  0  0  0
  -27.3492  -12.5013   17.7893 H   0  0  0  0  0  0
  -27.6545  -14.2278   19.4787 H   0  0  0  0  0  0
  -28.6659  -12.0967   21.4270 H   0  0  0  0  0  0
  -28.4985  -13.8008   21.7675 H   0  0  0  0  0  0
  -25.2726   -9.5796   22.4746 H   0  0  0  0  0  0
  -24.0091   -7.4676   22.7429 H   0  0  0  0  0  0
  -21.0873   -8.8752   19.8917 H   0  0  0  0  0  0
  -22.3612  -10.9703   19.6210 H   0  0  0  0  0  0
  -21.1884   -7.6142   23.9725 H   0  0  0  0  0  0
  -21.1460   -6.0520   25.9094 H   0  0  0  0  0  0
  -22.0546   -2.7616   23.2857 H   0  0  0  0  0  0
  -22.4069  -11.9915   22.4879 H   0  0  0  0  0  0
  -21.1041  -13.1231   22.2626 H   0  0  0  0  0  0
  -24.6517  -15.8369   20.5263 H   0  0  0  0  0  0
  -26.2927  -15.6199   20.1549 H   0  0  0  0  0  0
  -26.7079  -32.5575   23.1182 H   0  0  0  0  0  0
  -25.0051  -33.9812   25.0501 H   0  0  0  0  0  0
  -22.6818  -31.3069   21.4138 H   0  0  0  0  0  0
  -23.3753  -35.9642   23.3321 H   0  0  0  0  0  0
  -24.3585  -36.8901   22.2050 H   0  0  0  0  0  0
  -23.7237  -37.6524   23.6640 H   0  0  0  0  0  0
  -26.0232  -31.6170   20.5921 H   0  0  0  0  0  0
  -26.8112  -30.9055   21.9719 H   0  0  0  0  0  0
  -28.0928  -29.1454   21.1466 H   0  0  0  0  0  0
  -26.0676  -26.0025   18.9802 H   0  0  0  0  0  0
  -23.9893  -27.2918   19.0363 H   0  0  0  0  0  0
  -23.7003  -30.5953   19.4053 H   0  0  0  0  0  0
  -22.7282  -29.2353   19.8781 H   0  0  0  0  0  0
  -25.1285  -36.1995   25.0842 H   0  0  0  0  0  0
  -20.9954  -28.3216   24.1463 H   0  0  0  0  0  0
  -20.5667  -26.2250   23.3610 H   0  0  0  0  0  0
  -21.6629  -26.7436   22.1220 H   0  0  0  0  0  0
  -19.6890  -25.6304   21.1240 H   0  0  0  0  0  0
  -19.6694  -27.3217   20.6776 H   0  0  0  0  0  0
  -17.4187  -26.6712   21.4013 H   0  0  0  0  0  0
  -18.0282  -26.0068   22.9007 H   0  0  0  0  0  0
  -19.7910  -30.7263   24.2308 H   0  0  0  0  0  0
  -17.4986  -31.6269   24.5162 H   0  0  0  0  0  0
  -15.5330  -30.2988   23.7643 H   0  0  0  0  0  0
  -15.8660  -28.0836   22.7035 H   0  0  0  0  0  0
  -24.5913  -30.7030   25.7789 H   0  0  0  0  0  0
  -24.8908  -32.2839   26.4927 H   0  0  0  0  0  0
  -25.8090  -30.8846   27.0212 H   0  0  0  0  0  0
  -26.2799  -29.6824   24.1128 H   0  0  0  0  0  0
  -27.4093  -29.7283   25.4481 H   0  0  0  0  0  0
  -27.8615  -30.4389   23.9148 H   0  0  0  0  0  0
  -27.2693  -33.3609   26.2075 H   0  0  0  0  0  0
  -28.3833  -32.6892   25.0256 H   0  0  0  0  0  0
  -28.0759  -31.8415   26.5335 H   0  0  0  0  0  0
  -28.2618  -38.0093   24.7506 H   0  0  0  0  0  0
  -28.1072  -36.2629   24.6303 H   0  0  0  0  0  0
  -27.2307  -37.1466   25.8871 H   0  0  0  0  0  0
  -20.9257  -29.8713   21.6963 H   0  0  0  0  0  0
  -26.0200  -38.2879   24.1401 H   0  0  0  0  0  0
  -30.7484  -17.2178   21.9942 H   0  0  0  0  0  0
  -29.3860  -24.0645   18.4518 H   0  0  0  0  0  0
  -30.2257  -25.6107   18.5403 H   0  0  0  0  0  0
  -28.6363  -25.5148   17.8057 H   0  0  0  0  0  0
  -28.8170  -19.3220   17.3525 H   0  0  0  0  0  0
  -27.1574  -19.7773   17.0249 H   0  0  0  0  0  0
  -27.5175  -18.1443   17.4678 H   0  0  0  0  0  0
  -28.7511  -21.4582   19.0878 H   0  0  0  0  0  0
  -27.2096  -21.5499   20.0250 H   0  0  0  0  0  0
  -27.1967  -21.5511   18.3276 H   0  0  0  0  0  0
  -25.9096  -18.1884   19.4250 H   0  0  0  0  0  0
  -25.4366  -19.8004   18.9397 H   0  0  0  0  0  0
  -25.9159  -19.4958   20.5883 H   0  0  0  0  0  0
  -31.6967  -21.3724   21.3934 H   0  0  0  0  0  0
  -30.7323  -20.8964   20.0052 H   0  0  0  0  0  0
  -31.8915  -19.7884   20.6847 H   0  0  0  0  0  0
  -31.2918  -20.1983   23.7324 H   0  0  0  0  0  0
  -31.7272  -18.8317   22.8355 H   0  0  0  0  0  0
  -30.2301  -18.8000   23.7719 H   0  0  0  0  0  0
  -27.8060  -20.1694   23.9403 H   0  0  0  0  0  0
  -27.3069  -19.7784   22.3089 H   0  0  0  0  0  0
  -26.9754  -21.3608   22.9633 H   0  0  0  0  0  0
  -29.4172  -15.5333   17.6925 H   0  0  0  0  0  0
  -31.0456  -14.9022   17.9408 H   0  0  0  0  0  0
  -30.7420  -16.6108   18.1122 H   0  0  0  0  0  0
  -29.7683  -23.8604   20.8271 H   0  0  0  0  0  0
  -27.6034  -24.9265   19.9095 H   0  0  0  0  0  0
  -30.6475  -22.4850   23.0391 H   0  0  0  0  0  0
  -28.0418  -17.1355   18.8336 H   0  0  0  0  0  0
  1 25  1  0  0  0
  1 30  2  0  0  0
  1 93  1  0  0  0
  2  3  1  0  0  0
  2 25  1  0  0  0
  2103  1  0  0  0
  2104  1  0  0  0
  3  4  1  0  0  0
  3105  1  0  0  0
  3106  1  0  0  0
  4  5  1  0  0  0
  4107  1  0  0  0
  4108  1  0  0  0
  5  6  1  0  0  0
  5 26  1  0  0  0
  5109  1  0  0  0
  6 25  1  0  0  0
  6110  1  0  0  0
  6111  1  0  0  0
  7  8  2  0  0  0
  7 26  1  0  0  0
  7 29  1  0  0  0
  8  9  1  0  0  0
  8 22  1  0  0  0
  9 10  1  0  0  0
  9 27  2  0  0  0
 10 11  2  0  0  0
 10 15  1  0  0  0
 11 12  1  0  0  0
 11112  1  0  0  0
 12 13  2  0  0  0
 12113  1  0  0  0
 13 14  1  0  0  0
 13 31  1  0  0  0
 14 15  2  0  0  0
 14114  1  0  0  0
 15115  1  0  0  0
 16 17  2  0  0  0
 16 21  1  0  0  0
 16 31  1  0  0  0
 17 18  1  0  0  0
 17116  1  0  0  0
 18 19  2  0  0  0
 18117  1  0  0  0
 19 20  1  0  0  0
 19 24  1  0  0  0
 20 21  2  0  0  0
 20118  1  0  0  0
 21 23  1  0  0  0
 22 28  1  0  0  0
 22 32  2  0  0  0
 26 27  1  0  0  0
 28119  1  0  0  0
 28120  1  0  0  0
 29121  1  0  0  0
 29122  1  0  0  0
 33 34  1  0  0  0
 33 66  1  0  0  0
 33 70  2  0  0  0
 34 36  1  0  0  0
 34 59  1  0  0  0
 34123  1  0  0  0
 35 44  2  0  0  0
 35 45  1  0  0  0
 35 68  1  0  0  0
 36 56  1  0  0  0
 36124  1  0  0  0
 37 39  1  0  0  0
 37 47  1  0  0  0
 37 66  1  0  0  0
 37125  1  0  0  0
 38 43  2  0  0  0
 38 46  1  0  0  0
 38 47  1  0  0  0
 39 64  1  0  0  0
 39 67  2  0  0  0
 40 52  1  0  0  0
 40 53  2  0  0  0
 40 58  1  0  0  0
 41126  1  0  0  0
 41127  1  0  0  0
 41128  1  0  0  0
 41 48  1  0  0  0
 42 43  1  0  0  0
 42 66  1  0  0  0
 42129  1  0  0  0
 42130  1  0  0  0
 43 44  1  0  0  0
 44131  1  0  0  0
 45 46  2  0  0  0
 45132  1  0  0  0
 46133  1  0  0  0
 47134  1  0  0  0
 47135  1  0  0  0
 48 56  1  0  0  0
 48 65  1  0  0  0
 48136  1  0  0  0
 49 50  1  0  0  0
 49 53  1  0  0  0
 49 64  1  0  0  0
 49137  1  0  0  0
 50 51  1  0  0  0
 50138  1  0  0  0
 50139  1  0  0  0
 51 52  1  0  0  0
 51140  1  0  0  0
 51141  1  0  0  0
 52142  1  0  0  0
 52143  1  0  0  0
 53 54  1  0  0  0
 54 55  2  0  0  0
 54144  1  0  0  0
 55 57  1  0  0  0
 55145  1  0  0  0
 56 69  2  0  0  0
 57 58  2  0  0  0
 57146  1  0  0  0
 58147  1  0  0  0
 59 60  1  0  0  0
 59 61  1  0  0  0
 59 62  1  0  0  0
 60148  1  0  0  0
 60149  1  0  0  0
 60150  1  0  0  0
 61151  1  0  0  0
 61152  1  0  0  0
 61153  1  0  0  0
 62154  1  0  0  0
 62155  1  0  0  0
 62156  1  0  0  0
 63 65  1  0  0  0
 63157  1  0  0  0
 63158  1  0  0  0
 63159  1  0  0  0
 64160  1  0  0  0
 65161  1  0  0  0
 68 83  1  0  0  0
 71 72  2  0  0  0
 71 91  1  0  0  0
 71162  1  0  0  0
 72 92  1  0  0  0
 72 93  1  0  0  0
 73 85  1  0  0  0
 73 91  1  0  0  0
 73 92  2  0  0  0
 74163  1  0  0  0
 74164  1  0  0  0
 74165  1  0  0  0
 74 83  1  0  0  0
 75166  1  0  0  0
 75167  1  0  0  0
 75168  1  0  0  0
 75 85  1  0  0  0
 76 85  1  0  0  0
 76169  1  0  0  0
 76170  1  0  0  0
 76171  1  0  0  0
 77 85  1  0  0  0
 77172  1  0  0  0
 77173  1  0  0  0
 77174  1  0  0  0
 78175  1  0  0  0
 78176  1  0  0  0
 78177  1  0  0  0
 78 86  1  0  0  0
 79 86  1  0  0  0
 79178  1  0  0  0
 79179  1  0  0  0
 79180  1  0  0  0
 80181  1  0  0  0
 80182  1  0  0  0
 80183  1  0  0  0
 80 87  1  0  0  0
 81 93  1  0  0  0
 81184  1  0  0  0
 81185  1  0  0  0
 81186  1  0  0  0
 82 83  1  0  0  0
 82 88  1  0  0  0
 82 90  1  0  0  0
 82187  1  0  0  0
 83188  1  0  0  0
 84 87  1  0  0  0
 84 89  1  0  0  0
 84 94  1  0  0  0
 84189  1  0  0  0
 86 87  1  0  0  0
 86 91  1  0  0  0
 87 95  1  0  0  0
 88 89  1  0  0  0
 88 96  1  0  0  0
 88 97  1  0  0  0
 89 98  1  0  0  0
 89 99  1  0  0  0
 90100  1  0  0  0
 90101  1  0  0  0
 90102  1  0  0  0
 92190  1  0  0  0
M  CHG  1  92   1
M  ISO  4   1 100  68 101  83 101  93 100
M  END
> <chiral flag>
0

> <version>
0

> <s_m_source_file>
/data/baiqing/PycharmProjects/Reinvent-master-3.2/result/LINK_invent/BTK/process_docking_weight1_custom_sum_contain_oxygen_bond_distance_aromatic_linkinvent_7_9_3/rearranged_h_0066.sdf

> <i_m_source_file_index>
68

> <r_mmod_Potential_Energy-OPLS-2005>
383.496734619141

> <r_mmod_Stretch_Energy-OPLS-2005>
78.2590484619141

> <r_mmod_Bend_Energy-OPLS-2005>
258.997375488281

> <r_mmod_Torsional_Energy-OPLS-2005>
401.580474853516

> <r_mmod_Improper_Torsional_Energy-OPLS-2005>
35.1927680969238

> <r_mmod_Van_der_Waal_Energy-OPLS-2005>
181.143020629883

> <r_mmod_Electrostatic_Energy-OPLS-2005>
-203.021392822266

> <r_mmod_Solvation_Energy-OPLS-2005>
-405.765777587891

> <b_mmod_Minimization_Converged-OPLS-2005>
0

> <r_mmod_RMS_Derivative-OPLS-2005>
3.69413280487061

$$$$
72
                    3D
 Structure written by MMmdl.
173181  0  0  1  0            999 V2000
  -30.7087  -14.5912   20.6662 C   0  0  0  0  0  0
  -30.4342  -12.4114   19.4516 C   0  0  0  0  0  0
  -29.5033  -12.5431   18.2236 C   0  0  0  0  0  0
  -28.0235  -12.3721   18.6149 C   0  0  0  0  0  0
  -27.6598  -13.2030   19.8706 C   0  0  2  0  0  0
  -28.6950  -12.9398   20.9794 C   0  0  0  0  0  0
  -25.2588  -13.8139   20.5604 C   0  0  0  0  0  0
  -24.1836  -13.0428   20.9127 C   0  0  0  0  0  0
  -24.6384  -11.6891   20.8693 C   0  0  0  0  0  0
  -23.9056  -10.4305   21.0385 C   0  0  0  0  0  0
  -24.3623   -9.4232   21.9168 C   0  0  0  0  0  0
  -23.6302   -8.2265   22.0757 C   0  0  0  0  0  0
  -22.4280   -8.0300   21.3558 C   0  0  0  0  0  0
  -21.9916   -9.0251   20.4635 C   0  0  0  0  0  0
  -22.7230  -10.2131   20.3031 C   0  0  0  0  0  0
  -21.6864   -6.0753   22.5285 C   0  0  0  0  0  0
  -21.4011   -6.5646   23.8219 C   0  0  0  0  0  0
  -21.3647   -5.6798   24.9182 C   0  0  0  0  0  0
  -21.6046   -4.3063   24.7224 C   0  0  0  0  0  0
  -21.8813   -3.8154   23.4341 C   0  0  0  0  0  0
  -21.9193   -4.6981   22.3402 C   0  0  0  0  0  0
  -22.7865  -13.5252   21.1787 C   0  0  0  0  0  0
  -22.1663   -4.2171   21.0981 F   0  0  0  0  0  0
  -21.5637   -3.4534   25.7735 F   0  0  0  0  0  0
  -30.0158  -13.3966   20.4911 N   0  0  0  0  0  0
  -26.3006  -12.9289   20.3284 N   0  0  0  0  0  0
  -25.9307  -11.6461   20.5705 N   0  0  0  0  0  0
  -22.0520  -12.8257   22.0350 N   0  0  0  0  0  0
  -25.4319  -15.1846   20.4012 N   0  0  0  0  0  0
  -31.7183  -14.7193   19.9664 O   0  0  0  0  0  0
  -21.6635   -6.8893   21.4254 O   0  0  0  0  0  0
  -22.3557  -14.5565   20.6650 O   0  0  0  0  0  0
  -24.6220  -31.8608   23.2028 C   0  0  0  0  0  0
  -25.9068  -32.4790   23.8361 C   0  0  1  0  0  0
  -27.2304  -27.3464   20.1250 C   0  0  0  0  0  0
  -25.5876  -33.8583   24.2276 N   0  0  0  0  0  0
  -23.4168  -30.4789   21.5477 C   0  0  2  0  0  0
  -24.8656  -28.9346   20.1161 C   0  0  0  0  0  0
  -22.7470  -29.4606   22.4992 C   0  0  0  0  0  0
  -18.0274  -28.1378   22.8486 C   0  0  0  0  0  0
  -24.1493  -36.7309   23.2639 C   0  0  0  0  0  0
  -25.9514  -30.8021   21.3667 C   0  0  0  0  0  0
  -26.0314  -29.4294   20.7149 C   0  0  0  0  0  0
  -27.2192  -28.6454   20.7093 C   0  0  0  0  0  0
  -26.0463  -26.8915   19.5055 C   0  0  0  0  0  0
  -24.8709  -27.6686   19.5071 C   0  0  0  0  0  0
  -23.6297  -29.8089   20.1646 C   0  0  0  0  0  0
  -25.4111  -36.3090   24.0327 C   0  0  1  0  0  0
  -20.5876  -28.3664   23.1301 C   0  0  2  0  0  0
  -20.6771  -26.9398   22.5410 C   0  0  0  0  0  0
  -19.5753  -26.6379   21.5208 C   0  0  0  0  0  0
  -18.1925  -26.7920   22.1619 C   0  0  0  0  0  0
  -19.1525  -28.8840   23.2867 C   0  0  0  0  0  0
  -18.9459  -30.1441   23.8881 C   0  0  0  0  0  0
  -17.6456  -30.6576   24.0566 C   0  0  0  0  0  0
  -25.9054  -34.9452   23.5118 C   0  0  0  0  0  0
  -16.5343  -29.9075   23.6350 C   0  0  0  0  0  0
  -16.7259  -28.6502   23.0356 C   0  0  0  0  0  0
  -26.4460  -31.6596   25.0731 C   0  0  0  0  0  0
  -25.3687  -31.3695   26.1462 C   0  0  0  0  0  0
  -27.0310  -30.3046   24.6138 C   0  0  0  0  0  0
  -27.6038  -32.4329   25.7493 C   0  0  0  0  0  0
  -27.5573  -37.1793   24.8451 C   0  0  0  0  0  0
  -21.4183  -29.3011   22.3722 N   0  0  0  0  0  0
  -26.4291  -37.3771   23.9402 N   0  0  0  0  0  0
  -24.6829  -31.0627   22.0978 N   0  0  0  0  0  0
  -23.4186  -28.8150   23.3077 O   0  0  0  0  0  0
  -28.3566  -26.5255   20.1326 O   0  0  0  0  0  0
  -26.5653  -34.8908   22.4704 O   0  0  0  0  0  0
  -23.5396  -32.1386   23.7373 O   0  0  0  0  0  0
  -30.2234  -18.9669   19.5547 C   0  0  0  0  0  0
  -29.3464  -19.8327   20.2526 C   0  0  0  0  0  0
  -28.7580  -19.2212   21.3796 C   0  0  0  0  0  0
  -29.9048  -17.1872   21.0276 C   0  0  0  0  0  0
  -27.7346  -19.9096   22.2581 C   0  0  0  0  0  0
  -29.2648  -15.3876   22.6744 C   0  0  0  0  0  0
  -31.9929  -14.9430   23.6089 C   0  0  0  0  0  0
  -33.0213  -16.3440   21.8274 C   0  0  0  0  0  0
  -29.0177  -21.2630   19.6841 C   0  0  0  0  0  0
  -28.8344  -22.5310   20.6183 C   0  0  0  0  0  0
  -28.7741  -23.9451   19.8942 C   0  0  0  0  0  0
  -31.5240  -17.4409   23.4736 C   0  0  0  0  0  0
  -28.2133  -25.1793   20.7144 C   0  0  0  0  0  0
  -30.4026  -15.8166   21.7015 C   0  0  1  0  0  0
  -31.7036  -16.1258   22.6321 C   0  0  0  0  0  0
  -30.4966  -17.6906   19.9398 N   0  0  0  0  0  0
  -29.0662  -17.9524   21.7472 N   0  0  0  0  0  0
  -32.5266  -17.6172   24.5458 N   0  3  0  0  0  0
  -31.4697  -12.5311   19.1312 H   0  0  0  0  0  0
  -30.4019  -11.3957   19.8510 H   0  0  0  0  0  0
  -29.7791  -11.8116   17.4628 H   0  0  0  0  0  0
  -29.6412  -13.5257   17.7704 H   0  0  0  0  0  0
  -27.8458  -11.3130   18.8103 H   0  0  0  0  0  0
  -27.3763  -12.6391   17.7795 H   0  0  0  0  0  0
  -27.7152  -14.2567   19.5960 H   0  0  0  0  0  0
  -28.7359  -11.8666   21.1690 H   0  0  0  0  0  0
  -28.3324  -13.2913   21.9300 H   0  0  0  0  0  0
  -25.2780   -9.5712   22.4722 H   0  0  0  0  0  0
  -24.0002   -7.4673   22.7501 H   0  0  0  0  0  0
  -21.0843   -8.8756   19.8947 H   0  0  0  0  0  0
  -22.3692  -10.9656   19.6123 H   0  0  0  0  0  0
  -21.1995   -7.6152   23.9725 H   0  0  0  0  0  0
  -21.1469   -6.0526   25.9086 H   0  0  0  0  0  0
  -22.0596   -2.7616   23.2827 H   0  0  0  0  0  0
  -22.4157  -11.9919   22.4729 H   0  0  0  0  0  0
  -21.1132  -13.1272   22.2559 H   0  0  0  0  0  0
  -24.6673  -15.8406   20.5172 H   0  0  0  0  0  0
  -26.2835  -15.6222   20.0722 H   0  0  0  0  0  0
  -26.7128  -32.5496   23.1105 H   0  0  0  0  0  0
  -24.9997  -33.9740   25.0406 H   0  0  0  0  0  0
  -22.7085  -31.2971   21.3996 H   0  0  0  0  0  0
  -23.3757  -35.9645   23.3314 H   0  0  0  0  0  0
  -24.3574  -36.8953   22.2049 H   0  0  0  0  0  0
  -23.7254  -37.6507   23.6685 H   0  0  0  0  0  0
  -26.0687  -31.5655   20.5951 H   0  0  0  0  0  0
  -26.8344  -30.8581   21.9901 H   0  0  0  0  0  0
  -28.1165  -29.0202   21.1809 H   0  0  0  0  0  0
  -26.0319  -25.9208   19.0293 H   0  0  0  0  0  0
  -23.9741  -27.2849   19.0389 H   0  0  0  0  0  0
  -23.7398  -30.5821   19.4046 H   0  0  0  0  0  0
  -22.7531  -29.2290   19.8688 H   0  0  0  0  0  0
  -25.1273  -36.1966   25.0814 H   0  0  0  0  0  0
  -20.9910  -28.3236   24.1449 H   0  0  0  0  0  0
  -20.5692  -26.2262   23.3601 H   0  0  0  0  0  0
  -21.6629  -26.7466   22.1183 H   0  0  0  0  0  0
  -19.6941  -25.6290   21.1246 H   0  0  0  0  0  0
  -19.6711  -27.3198   20.6752 H   0  0  0  0  0  0
  -17.4191  -26.6679   21.4007 H   0  0  0  0  0  0
  -18.0309  -26.0045   22.8997 H   0  0  0  0  0  0
  -19.7934  -30.7245   24.2258 H   0  0  0  0  0  0
  -17.5020  -31.6272   24.5140 H   0  0  0  0  0  0
  -15.5343  -30.2956   23.7687 H   0  0  0  0  0  0
  -15.8674  -28.0805   22.7079 H   0  0  0  0  0  0
  -24.5883  -30.7034   25.7762 H   0  0  0  0  0  0
  -24.8833  -32.2825   26.4919 H   0  0  0  0  0  0
  -25.7980  -30.8846   27.0241 H   0  0  0  0  0  0
  -26.2875  -29.6796   24.1175 H   0  0  0  0  0  0
  -27.4053  -29.7298   25.4619 H   0  0  0  0  0  0
  -27.8711  -30.4378   23.9321 H   0  0  0  0  0  0
  -27.2698  -33.3667   26.2037 H   0  0  0  0  0  0
  -28.3843  -32.6837   25.0292 H   0  0  0  0  0  0
  -28.0709  -31.8473   26.5426 H   0  0  0  0  0  0
  -28.2556  -38.0122   24.7516 H   0  0  0  0  0  0
  -28.1099  -36.2635   24.6258 H   0  0  0  0  0  0
  -27.2284  -37.1424   25.8855 H   0  0  0  0  0  0
  -20.9396  -29.8726   21.6906 H   0  0  0  0  0  0
  -26.0192  -38.2853   24.1419 H   0  0  0  0  0  0
  -30.7145  -19.2974   18.6502 H   0  0  0  0  0  0
  -26.9044  -20.2853   21.6600 H   0  0  0  0  0  0
  -28.1897  -20.7413   22.7958 H   0  0  0  0  0  0
  -27.3207  -19.2245   23.0004 H   0  0  0  0  0  0
  -28.3092  -15.3483   22.1509 H   0  0  0  0  0  0
  -29.0923  -16.0846   23.4901 H   0  0  0  0  0  0
  -29.4664  -14.4393   23.1700 H   0  0  0  0  0  0
  -32.9903  -15.0111   24.0454 H   0  0  0  0  0  0
  -31.9576  -13.9767   23.1048 H   0  0  0  0  0  0
  -31.2897  -14.9048   24.4429 H   0  0  0  0  0  0
  -33.8003  -16.8417   22.4025 H   0  0  0  0  0  0
  -32.8626  -16.9531   20.9372 H   0  0  0  0  0  0
  -33.4679  -15.4011   21.5114 H   0  0  0  0  0  0
  -28.1116  -21.1608   19.0837 H   0  0  0  0  0  0
  -29.7984  -21.5015   18.9584 H   0  0  0  0  0  0
  -29.6487  -22.5585   21.3452 H   0  0  0  0  0  0
  -27.9191  -22.4212   21.1955 H   0  0  0  0  0  0
  -28.1688  -23.8436   18.9940 H   0  0  0  0  0  0
  -29.7804  -24.1837   19.5474 H   0  0  0  0  0  0
  -30.5586  -17.4843   23.9717 H   0  0  0  0  0  0
  -31.5736  -18.3227   22.8321 H   0  0  0  0  0  0
  -28.7315  -25.2099   21.6742 H   0  0  0  0  0  0
  -27.1723  -24.9788   20.9739 H   0  0  0  0  0  0
  -32.5162  -16.8282   25.1687 H   0  0  0  0  0  0
  -32.3105  -18.4407   25.0807 H   0  0  0  0  0  0
  -33.4517  -17.7218   24.1696 H   0  0  0  0  0  0
  1 25  1  0  0  0
  1 30  2  0  0  0
  1 84  1  0  0  0
  2  3  1  0  0  0
  2 25  1  0  0  0
  2 89  1  0  0  0
  2 90  1  0  0  0
  3  4  1  0  0  0
  3 91  1  0  0  0
  3 92  1  0  0  0
  4  5  1  0  0  0
  4 93  1  0  0  0
  4 94  1  0  0  0
  5  6  1  0  0  0
  5 26  1  0  0  0
  5 95  1  0  0  0
  6 25  1  0  0  0
  6 96  1  0  0  0
  6 97  1  0  0  0
  7  8  2  0  0  0
  7 26  1  0  0  0
  7 29  1  0  0  0
  8  9  1  0  0  0
  8 22  1  0  0  0
  9 10  1  0  0  0
  9 27  2  0  0  0
 10 11  2  0  0  0
 10 15  1  0  0  0
 11 12  1  0  0  0
 11 98  1  0  0  0
 12 13  2  0  0  0
 12 99  1  0  0  0
 13 14  1  0  0  0
 13 31  1  0  0  0
 14 15  2  0  0  0
 14100  1  0  0  0
 15101  1  0  0  0
 16 17  2  0  0  0
 16 21  1  0  0  0
 16 31  1  0  0  0
 17 18  1  0  0  0
 17102  1  0  0  0
 18 19  2  0  0  0
 18103  1  0  0  0
 19 20  1  0  0  0
 19 24  1  0  0  0
 20 21  2  0  0  0
 20104  1  0  0  0
 21 23  1  0  0  0
 22 28  1  0  0  0
 22 32  2  0  0  0
 26 27  1  0  0  0
 28105  1  0  0  0
 28106  1  0  0  0
 29107  1  0  0  0
 29108  1  0  0  0
 33 34  1  0  0  0
 33 66  1  0  0  0
 33 70  2  0  0  0
 34 36  1  0  0  0
 34 59  1  0  0  0
 34109  1  0  0  0
 35 44  2  0  0  0
 35 45  1  0  0  0
 35 68  1  0  0  0
 36 56  1  0  0  0
 36110  1  0  0  0
 37 39  1  0  0  0
 37 47  1  0  0  0
 37 66  1  0  0  0
 37111  1  0  0  0
 38 43  2  0  0  0
 38 46  1  0  0  0
 38 47  1  0  0  0
 39 64  1  0  0  0
 39 67  2  0  0  0
 40 52  1  0  0  0
 40 53  2  0  0  0
 40 58  1  0  0  0
 41112  1  0  0  0
 41113  1  0  0  0
 41114  1  0  0  0
 41 48  1  0  0  0
 42 43  1  0  0  0
 42 66  1  0  0  0
 42115  1  0  0  0
 42116  1  0  0  0
 43 44  1  0  0  0
 44117  1  0  0  0
 45 46  2  0  0  0
 45118  1  0  0  0
 46119  1  0  0  0
 47120  1  0  0  0
 47121  1  0  0  0
 48 56  1  0  0  0
 48 65  1  0  0  0
 48122  1  0  0  0
 49 50  1  0  0  0
 49 53  1  0  0  0
 49 64  1  0  0  0
 49123  1  0  0  0
 50 51  1  0  0  0
 50124  1  0  0  0
 50125  1  0  0  0
 51 52  1  0  0  0
 51126  1  0  0  0
 51127  1  0  0  0
 52128  1  0  0  0
 52129  1  0  0  0
 53 54  1  0  0  0
 54 55  2  0  0  0
 54130  1  0  0  0
 55 57  1  0  0  0
 55131  1  0  0  0
 56 69  2  0  0  0
 57 58  2  0  0  0
 57132  1  0  0  0
 58133  1  0  0  0
 59 60  1  0  0  0
 59 61  1  0  0  0
 59 62  1  0  0  0
 60134  1  0  0  0
 60135  1  0  0  0
 60136  1  0  0  0
 61137  1  0  0  0
 61138  1  0  0  0
 61139  1  0  0  0
 62140  1  0  0  0
 62141  1  0  0  0
 62142  1  0  0  0
 63 65  1  0  0  0
 63143  1  0  0  0
 63144  1  0  0  0
 63145  1  0  0  0
 64146  1  0  0  0
 65147  1  0  0  0
 68 83  1  0  0  0
 71 72  2  0  0  0
 71 86  1  0  0  0
 71148  1  0  0  0
 72 73  1  0  0  0
 72 79  1  0  0  0
 73 75  1  0  0  0
 73 87  2  0  0  0
 74 84  1  0  0  0
 74 86  2  0  0  0
 74 87  1  0  0  0
 75149  1  0  0  0
 75150  1  0  0  0
 75151  1  0  0  0
 76152  1  0  0  0
 76153  1  0  0  0
 76154  1  0  0  0
 76 84  1  0  0  0
 77155  1  0  0  0
 77156  1  0  0  0
 77157  1  0  0  0
 77 85  1  0  0  0
 78 85  1  0  0  0
 78158  1  0  0  0
 78159  1  0  0  0
 78160  1  0  0  0
 79 80  1  0  0  0
 79161  1  0  0  0
 79162  1  0  0  0
 80 81  1  0  0  0
 80163  1  0  0  0
 80164  1  0  0  0
 81 83  1  0  0  0
 81165  1  0  0  0
 81166  1  0  0  0
 82 85  1  0  0  0
 82 88  1  0  0  0
 82167  1  0  0  0
 82168  1  0  0  0
 83169  1  0  0  0
 83170  1  0  0  0
 84 85  1  0  0  0
 88171  1  0  0  0
 88172  1  0  0  0
 88173  1  0  0  0
M  CHG  1  88   1
M  ISO  4   1 100  68 101  83 101  84 100
M  END
> <chiral flag>
0

> <version>
0

> <s_m_source_file>
/data/baiqing/PycharmProjects/Reinvent-master-3.2/result/LINK_invent/BTK/process_docking_weight1_custom_sum_contain_oxygen_bond_distance_aromatic_linkinvent_7_9_3/rearranged_h_0066.sdf

> <i_m_source_file_index>
69

> <r_mmod_Potential_Energy-OPLS-2005>
-274.330993652344

> <r_mmod_Stretch_Energy-OPLS-2005>
111.731918334961

> <r_mmod_Bend_Energy-OPLS-2005>
193.641708374023

> <r_mmod_Torsional_Energy-OPLS-2005>
208.59651184082

> <r_mmod_Improper_Torsional_Energy-OPLS-2005>
4.04749727249146

> <r_mmod_Van_der_Waal_Energy-OPLS-2005>
198.703277587891

> <r_mmod_Electrostatic_Energy-OPLS-2005>
-559.896545410156

> <r_mmod_Solvation_Energy-OPLS-2005>
-464.240600585938

> <b_mmod_Minimization_Converged-OPLS-2005>
0

> <r_mmod_RMS_Derivative-OPLS-2005>
3.22303128242493

$$$$
74
                    3D
 Structure written by MMmdl.
174182  0  0  1  0            999 V2000
  -30.7545  -14.4146   20.6619 C   0  0  0  0  0  0
  -30.4205  -12.3105   19.4017 C   0  0  0  0  0  0
  -29.4869  -12.5188   18.1940 C   0  0  0  0  0  0
  -28.0102  -12.3724   18.6088 C   0  0  0  0  0  0
  -27.6631  -13.2012   19.8735 C   0  0  2  0  0  0
  -28.7057  -12.9572   20.9890 C   0  0  0  0  0  0
  -25.2604  -13.8144   20.5660 C   0  0  0  0  0  0
  -24.1862  -13.0429   20.9174 C   0  0  0  0  0  0
  -24.6409  -11.6899   20.8742 C   0  0  0  0  0  0
  -23.9067  -10.4292   21.0412 C   0  0  0  0  0  0
  -24.3618   -9.4206   21.9184 C   0  0  0  0  0  0
  -23.6294   -8.2242   22.0756 C   0  0  0  0  0  0
  -22.4275   -8.0292   21.3549 C   0  0  0  0  0  0
  -21.9919   -9.0257   20.4642 C   0  0  0  0  0  0
  -22.7248  -10.2136   20.3051 C   0  0  0  0  0  0
  -21.6845   -6.0748   22.5286 C   0  0  0  0  0  0
  -21.4012   -6.5650   23.8219 C   0  0  0  0  0  0
  -21.3651   -5.6799   24.9182 C   0  0  0  0  0  0
  -21.6041   -4.3063   24.7226 C   0  0  0  0  0  0
  -21.8818   -3.8158   23.4350 C   0  0  0  0  0  0
  -21.9191   -4.6977   22.3405 C   0  0  0  0  0  0
  -22.7886  -13.5246   21.1834 C   0  0  0  0  0  0
  -22.1661   -4.2170   21.0981 F   0  0  0  0  0  0
  -21.5624   -3.4544   25.7733 F   0  0  0  0  0  0
  -30.0409  -13.2731   20.4478 N   0  0  0  0  0  0
  -26.3039  -12.9307   20.3352 N   0  0  0  0  0  0
  -25.9330  -11.6474   20.5754 N   0  0  0  0  0  0
  -22.0512  -12.8238   22.0374 N   0  0  0  0  0  0
  -25.4316  -15.1861   20.4030 N   0  0  0  0  0  0
  -31.8220  -14.6487   20.0821 O   0  0  0  0  0  0
  -21.6636   -6.8890   21.4246 O   0  0  0  0  0  0
  -22.3573  -14.5552   20.6672 O   0  0  0  0  0  0
  -24.6122  -31.8682   23.2129 C   0  0  0  0  0  0
  -25.9034  -32.4823   23.8411 C   0  0  1  0  0  0
  -27.2345  -27.4477   20.1041 C   0  0  0  0  0  0
  -25.5906  -33.8618   24.2340 N   0  0  0  0  0  0
  -23.4003  -30.4921   21.5511 C   0  0  2  0  0  0
  -24.8497  -28.9615   20.1102 C   0  0  0  0  0  0
  -22.7406  -29.4668   22.5000 C   0  0  0  0  0  0
  -18.0274  -28.1389   22.8475 C   0  0  0  0  0  0
  -24.1486  -36.7308   23.2645 C   0  0  0  0  0  0
  -25.9252  -30.8398   21.3624 C   0  0  0  0  0  0
  -26.0041  -29.4746   20.7139 C   0  0  0  0  0  0
  -27.1978  -28.7212   20.7183 C   0  0  0  0  0  0
  -26.0765  -26.9632   19.4641 C   0  0  0  0  0  0
  -24.8789  -27.7021   19.4843 C   0  0  0  0  0  0
  -23.6087  -29.8238   20.1648 C   0  0  0  0  0  0
  -25.4105  -36.3104   24.0355 C   0  0  1  0  0  0
  -20.5865  -28.3668   23.1330 C   0  0  2  0  0  0
  -20.6761  -26.9403   22.5427 C   0  0  0  0  0  0
  -19.5737  -26.6391   21.5229 C   0  0  0  0  0  0
  -18.1910  -26.7927   22.1627 C   0  0  0  0  0  0
  -19.1526  -28.8840   23.2899 C   0  0  0  0  0  0
  -18.9459  -30.1437   23.8925 C   0  0  0  0  0  0
  -17.6468  -30.6586   24.0566 C   0  0  0  0  0  0
  -25.9039  -34.9474   23.5143 C   0  0  0  0  0  0
  -16.5355  -29.9086   23.6343 C   0  0  0  0  0  0
  -16.7272  -28.6514   23.0344 C   0  0  0  0  0  0
  -26.4476  -31.6588   25.0724 C   0  0  0  0  0  0
  -25.3755  -31.3683   26.1485 C   0  0  0  0  0  0
  -27.0309  -30.3050   24.6044 C   0  0  0  0  0  0
  -27.6062  -32.4297   25.7471 C   0  0  0  0  0  0
  -27.5569  -37.1802   24.8473 C   0  0  0  0  0  0
  -21.4135  -29.3035   22.3738 N   0  0  0  0  0  0
  -26.4282  -37.3789   23.9425 N   0  0  0  0  0  0
  -24.6645  -31.0793   22.1030 N   0  0  0  0  0  0
  -23.4184  -28.8214   23.3043 O   0  0  0  0  0  0
  -28.3601  -26.6537   20.1238 O   0  0  0  0  0  0
  -26.5574  -34.8911   22.4682 O   0  0  0  0  0  0
  -23.5324  -32.1431   23.7528 O   0  0  0  0  0  0
  -29.9550  -18.7088   20.9126 C   0  0  0  0  0  0
  -29.4665  -17.6385   21.7156 C   0  0  0  0  0  0
  -29.9587  -19.8211   21.7223 C   0  0  0  0  0  0
  -31.0892  -21.3015   20.0288 C   0  0  0  0  0  0
  -31.4866  -21.6847   22.4493 C   0  0  0  0  0  0
  -27.0400  -24.3427   21.2372 C   0  0  0  0  0  0
  -28.3609  -24.6543   23.3393 C   0  0  0  0  0  0
  -29.2907  -20.0592   24.2204 C   0  0  0  0  0  0
  -31.2321  -15.5596   22.7390 C   0  0  0  0  0  0
  -29.2192  -16.1844   21.3547 C   0  0  0  0  0  0
  -29.2099  -22.2428   21.3940 C   0  0  0  0  0  0
  -29.5192  -23.7698   21.2641 C   0  0  0  0  0  0
  -28.7657  -26.2259   21.4352 C   0  0  0  0  0  0
  -30.4180  -21.2503   21.4182 C   0  0  0  0  0  0
  -28.4202  -24.7410   21.7954 C   0  0  0  0  0  0
  -29.1624  -18.0596   22.9293 N   0  0  0  0  0  0
  -29.4699  -19.3752   22.9514 N   0  0  0  0  0  0
  -30.3119  -15.2266   21.6445 N   0  0  0  0  0  0
  -31.4627  -12.4121   19.0946 H   0  0  0  0  0  0
  -30.3257  -11.2928   19.7850 H   0  0  0  0  0  0
  -29.7255  -11.8015   17.4070 H   0  0  0  0  0  0
  -29.6521  -13.5086   17.7653 H   0  0  0  0  0  0
  -27.8199  -11.3141   18.7945 H   0  0  0  0  0  0
  -27.3588  -12.6546   17.7804 H   0  0  0  0  0  0
  -27.7097  -14.2508   19.5852 H   0  0  0  0  0  0
  -28.6825  -11.9112   21.2975 H   0  0  0  0  0  0
  -28.4575  -13.5215   21.8876 H   0  0  0  0  0  0
  -25.2770   -9.5684   22.4755 H   0  0  0  0  0  0
  -24.0003   -7.4640   22.7483 H   0  0  0  0  0  0
  -21.0853   -8.8786   19.8946 H   0  0  0  0  0  0
  -22.3723  -10.9677   19.6158 H   0  0  0  0  0  0
  -21.2000   -7.6157   23.9734 H   0  0  0  0  0  0
  -21.1469   -6.0524   25.9082 H   0  0  0  0  0  0
  -22.0597   -2.7622   23.2841 H   0  0  0  0  0  0
  -22.4112  -11.9898   22.4776 H   0  0  0  0  0  0
  -21.1121  -13.1268   22.2548 H   0  0  0  0  0  0
  -24.6617  -15.8379   20.5017 H   0  0  0  0  0  0
  -26.2738  -15.6223   20.0496 H   0  0  0  0  0  0
  -26.7100  -32.5551   23.1174 H   0  0  0  0  0  0
  -25.0101  -33.9784   25.0513 H   0  0  0  0  0  0
  -22.6904  -31.3101   21.4105 H   0  0  0  0  0  0
  -23.3751  -35.9637   23.3312 H   0  0  0  0  0  0
  -24.3592  -36.8908   22.2063 H   0  0  0  0  0  0
  -23.7231  -37.6513   23.6646 H   0  0  0  0  0  0
  -26.0238  -31.6041   20.5908 H   0  0  0  0  0  0
  -26.8206  -30.9033   21.9692 H   0  0  0  0  0  0
  -28.0848  -29.1060   21.1998 H   0  0  0  0  0  0
  -26.0952  -26.0009   18.9728 H   0  0  0  0  0  0
  -23.9925  -27.3021   19.0129 H   0  0  0  0  0  0
  -23.7109  -30.5995   19.4052 H   0  0  0  0  0  0
  -22.7356  -29.2403   19.8677 H   0  0  0  0  0  0
  -25.1274  -36.1965   25.0847 H   0  0  0  0  0  0
  -20.9951  -28.3199   24.1457 H   0  0  0  0  0  0
  -20.5701  -26.2260   23.3602 H   0  0  0  0  0  0
  -21.6622  -26.7456   22.1192 H   0  0  0  0  0  0
  -19.6915  -25.6318   21.1229 H   0  0  0  0  0  0
  -19.6681  -27.3217   20.6770 H   0  0  0  0  0  0
  -17.4188  -26.6707   21.4011 H   0  0  0  0  0  0
  -18.0276  -26.0061   22.9018 H   0  0  0  0  0  0
  -19.7940  -30.7235   24.2292 H   0  0  0  0  0  0
  -17.5033  -31.6275   24.5145 H   0  0  0  0  0  0
  -15.5357  -30.2998   23.7672 H   0  0  0  0  0  0
  -15.8666  -28.0858   22.7039 H   0  0  0  0  0  0
  -24.5958  -30.6979   25.7849 H   0  0  0  0  0  0
  -24.8906  -32.2824   26.4917 H   0  0  0  0  0  0
  -25.8138  -30.8896   27.0247 H   0  0  0  0  0  0
  -26.2828  -29.6799   24.1151 H   0  0  0  0  0  0
  -27.4191  -29.7285   25.4448 H   0  0  0  0  0  0
  -27.8603  -30.4431   23.9104 H   0  0  0  0  0  0
  -27.2719  -33.3621   26.2020 H   0  0  0  0  0  0
  -28.3880  -32.6797   25.0294 H   0  0  0  0  0  0
  -28.0697  -31.8423   26.5400 H   0  0  0  0  0  0
  -28.2589  -38.0091   24.7501 H   0  0  0  0  0  0
  -28.1055  -36.2623   24.6309 H   0  0  0  0  0  0
  -27.2291  -37.1460   25.8874 H   0  0  0  0  0  0
  -20.9285  -29.8771   21.6972 H   0  0  0  0  0  0
  -26.0177  -38.2869   24.1417 H   0  0  0  0  0  0
  -30.2658  -18.6591   19.8782 H   0  0  0  0  0  0
  -31.9397  -20.6225   19.9738 H   0  0  0  0  0  0
  -31.4626  -22.2994   19.7962 H   0  0  0  0  0  0
  -30.3914  -21.0200   19.2391 H   0  0  0  0  0  0
  -32.2242  -20.8950   22.5998 H   0  0  0  0  0  0
  -31.0541  -21.9269   23.4194 H   0  0  0  0  0  0
  -32.0407  -22.5643   22.1230 H   0  0  0  0  0  0
  -26.7170  -23.3678   21.6001 H   0  0  0  0  0  0
  -27.0580  -24.2852   20.1484 H   0  0  0  0  0  0
  -26.2730  -25.0579   21.5322 H   0  0  0  0  0  0
  -28.1084  -23.6554   23.6911 H   0  0  0  0  0  0
  -27.6048  -25.3269   23.7489 H   0  0  0  0  0  0
  -29.3124  -24.9317   23.7945 H   0  0  0  0  0  0
  -29.0081  -21.0988   24.0854 H   0  0  0  0  0  0
  -30.2201  -20.0196   24.7890 H   0  0  0  0  0  0
  -28.5047  -19.5764   24.8034 H   0  0  0  0  0  0
  -30.6841  -15.8556   23.6333 H   0  0  0  0  0  0
  -31.9026  -16.3726   22.4570 H   0  0  0  0  0  0
  -31.8495  -14.7021   23.0159 H   0  0  0  0  0  0
  -28.9580  -16.1404   20.2958 H   0  0  0  0  0  0
  -28.3311  -15.8312   21.8784 H   0  0  0  0  0  0
  -28.5473  -21.9608   20.5737 H   0  0  0  0  0  0
  -28.6075  -22.0792   22.2794 H   0  0  0  0  0  0
  -29.7279  -23.9939   20.2168 H   0  0  0  0  0  0
  -30.4338  -24.0142   21.7994 H   0  0  0  0  0  0
  -29.8413  -26.3844   21.5179 H   0  0  0  0  0  0
  -28.3376  -26.8805   22.1970 H   0  0  0  0  0  0
  1 25  1  0  0  0
  1 30  2  0  0  0
  1 88  1  0  0  0
  2  3  1  0  0  0
  2 25  1  0  0  0
  2 89  1  0  0  0
  2 90  1  0  0  0
  3  4  1  0  0  0
  3 91  1  0  0  0
  3 92  1  0  0  0
  4  5  1  0  0  0
  4 93  1  0  0  0
  4 94  1  0  0  0
  5  6  1  0  0  0
  5 26  1  0  0  0
  5 95  1  0  0  0
  6 25  1  0  0  0
  6 96  1  0  0  0
  6 97  1  0  0  0
  7  8  2  0  0  0
  7 26  1  0  0  0
  7 29  1  0  0  0
  8  9  1  0  0  0
  8 22  1  0  0  0
  9 10  1  0  0  0
  9 27  2  0  0  0
 10 11  2  0  0  0
 10 15  1  0  0  0
 11 12  1  0  0  0
 11 98  1  0  0  0
 12 13  2  0  0  0
 12 99  1  0  0  0
 13 14  1  0  0  0
 13 31  1  0  0  0
 14 15  2  0  0  0
 14100  1  0  0  0
 15101  1  0  0  0
 16 17  2  0  0  0
 16 21  1  0  0  0
 16 31  1  0  0  0
 17 18  1  0  0  0
 17102  1  0  0  0
 18 19  2  0  0  0
 18103  1  0  0  0
 19 20  1  0  0  0
 19 24  1  0  0  0
 20 21  2  0  0  0
 20104  1  0  0  0
 21 23  1  0  0  0
 22 28  1  0  0  0
 22 32  2  0  0  0
 26 27  1  0  0  0
 28105  1  0  0  0
 28106  1  0  0  0
 29107  1  0  0  0
 29108  1  0  0  0
 33 34  1  0  0  0
 33 66  1  0  0  0
 33 70  2  0  0  0
 34 36  1  0  0  0
 34 59  1  0  0  0
 34109  1  0  0  0
 35 44  2  0  0  0
 35 45  1  0  0  0
 35 68  1  0  0  0
 36 56  1  0  0  0
 36110  1  0  0  0
 37 39  1  0  0  0
 37 47  1  0  0  0
 37 66  1  0  0  0
 37111  1  0  0  0
 38 43  2  0  0  0
 38 46  1  0  0  0
 38 47  1  0  0  0
 39 64  1  0  0  0
 39 67  2  0  0  0
 40 52  1  0  0  0
 40 53  2  0  0  0
 40 58  1  0  0  0
 41112  1  0  0  0
 41113  1  0  0  0
 41114  1  0  0  0
 41 48  1  0  0  0
 42 43  1  0  0  0
 42 66  1  0  0  0
 42115  1  0  0  0
 42116  1  0  0  0
 43 44  1  0  0  0
 44117  1  0  0  0
 45 46  2  0  0  0
 45118  1  0  0  0
 46119  1  0  0  0
 47120  1  0  0  0
 47121  1  0  0  0
 48 56  1  0  0  0
 48 65  1  0  0  0
 48122  1  0  0  0
 49 50  1  0  0  0
 49 53  1  0  0  0
 49 64  1  0  0  0
 49123  1  0  0  0
 50 51  1  0  0  0
 50124  1  0  0  0
 50125  1  0  0  0
 51 52  1  0  0  0
 51126  1  0  0  0
 51127  1  0  0  0
 52128  1  0  0  0
 52129  1  0  0  0
 53 54  1  0  0  0
 54 55  2  0  0  0
 54130  1  0  0  0
 55 57  1  0  0  0
 55131  1  0  0  0
 56 69  2  0  0  0
 57 58  2  0  0  0
 57132  1  0  0  0
 58133  1  0  0  0
 59 60  1  0  0  0
 59 61  1  0  0  0
 59 62  1  0  0  0
 60134  1  0  0  0
 60135  1  0  0  0
 60136  1  0  0  0
 61137  1  0  0  0
 61138  1  0  0  0
 61139  1  0  0  0
 62140  1  0  0  0
 62141  1  0  0  0
 62142  1  0  0  0
 63 65  1  0  0  0
 63143  1  0  0  0
 63144  1  0  0  0
 63145  1  0  0  0
 64146  1  0  0  0
 65147  1  0  0  0
 68 83  1  0  0  0
 71 72  1  0  0  0
 71 73  2  0  0  0
 71148  1  0  0  0
 72 80  1  0  0  0
 72 86  2  0  0  0
 73 84  1  0  0  0
 73 87  1  0  0  0
 74149  1  0  0  0
 74150  1  0  0  0
 74151  1  0  0  0
 74 84  1  0  0  0
 75 84  1  0  0  0
 75152  1  0  0  0
 75153  1  0  0  0
 75154  1  0  0  0
 76155  1  0  0  0
 76156  1  0  0  0
 76157  1  0  0  0
 76 85  1  0  0  0
 77 85  1  0  0  0
 77158  1  0  0  0
 77159  1  0  0  0
 77160  1  0  0  0
 78 87  1  0  0  0
 78161  1  0  0  0
 78162  1  0  0  0
 78163  1  0  0  0
 79 88  1  0  0  0
 79164  1  0  0  0
 79165  1  0  0  0
 79166  1  0  0  0
 80 88  1  0  0  0
 80167  1  0  0  0
 80168  1  0  0  0
 81 82  1  0  0  0
 81 84  1  0  0  0
 81169  1  0  0  0
 81170  1  0  0  0
 82 85  1  0  0  0
 82171  1  0  0  0
 82172  1  0  0  0
 83 85  1  0  0  0
 83173  1  0  0  0
 83174  1  0  0  0
 86 87  1  0  0  0
M  ISO  4   1 100  68 101  83 101  88 100
M  END
> <chiral flag>
0

> <version>
0

> <s_m_source_file>
/data/baiqing/PycharmProjects/Reinvent-master-3.2/result/LINK_invent/BTK/process_docking_weight1_custom_sum_contain_oxygen_bond_distance_aromatic_linkinvent_7_9_3/rearranged_h_0066.sdf

> <i_m_source_file_index>
70

> <r_mmod_Potential_Energy-OPLS-2005>
35.6770706176758

> <r_mmod_Stretch_Energy-OPLS-2005>
42.8787078857422

> <r_mmod_Bend_Energy-OPLS-2005>
114.173446655273

> <r_mmod_Torsional_Energy-OPLS-2005>
320.175445556641

> <r_mmod_Improper_Torsional_Energy-OPLS-2005>
4.5069522857666

> <r_mmod_Van_der_Waal_Energy-OPLS-2005>
138.605697631836

> <r_mmod_Electrostatic_Energy-OPLS-2005>
-403.544158935547

> <r_mmod_Solvation_Energy-OPLS-2005>
-191.06364440918

> <b_mmod_Minimization_Converged-OPLS-2005>
0

> <r_mmod_RMS_Derivative-OPLS-2005>
2.50479602813721

$$$$
75
                    3D
 Structure written by MMmdl.
179187  0  0  1  0            999 V2000
  -30.7040  -14.7191   20.2539 C   0  0  0  0  0  0
  -30.4144  -12.4366   19.3765 C   0  0  0  0  0  0
  -29.4407  -12.4257   18.1841 C   0  0  0  0  0  0
  -27.9935  -12.2354   18.6683 C   0  0  0  0  0  0
  -27.6216  -13.1634   19.8525 C   0  0  2  0  0  0
  -28.7219  -13.2254   20.9326 C   0  0  0  0  0  0
  -25.2345  -13.7853   20.6085 C   0  0  0  0  0  0
  -24.1623  -13.0142   20.9435 C   0  0  0  0  0  0
  -24.6236  -11.6667   20.8938 C   0  0  0  0  0  0
  -23.8956  -10.4089   21.0512 C   0  0  0  0  0  0
  -24.3540   -9.4003   21.9263 C   0  0  0  0  0  0
  -23.6201   -8.2060   22.0786 C   0  0  0  0  0  0
  -22.4190   -8.0167   21.3543 C   0  0  0  0  0  0
  -21.9832   -9.0137   20.4644 C   0  0  0  0  0  0
  -22.7173  -10.2001   20.3096 C   0  0  0  0  0  0
  -21.6769   -6.0687   22.5281 C   0  0  0  0  0  0
  -21.3963   -6.5622   23.8214 C   0  0  0  0  0  0
  -21.3638   -5.6791   24.9186 C   0  0  0  0  0  0
  -21.6043   -4.3056   24.7242 C   0  0  0  0  0  0
  -21.8824   -3.8129   23.4369 C   0  0  0  0  0  0
  -21.9154   -4.6929   22.3412 C   0  0  0  0  0  0
  -22.7670  -13.5026   21.1984 C   0  0  0  0  0  0
  -22.1642   -4.2123   21.0996 F   0  0  0  0  0  0
  -21.5622   -3.4541   25.7758 F   0  0  0  0  0  0
  -29.9819  -13.5496   20.2346 N   0  0  0  0  0  0
  -26.2825  -12.9060   20.3624 N   0  0  0  0  0  0
  -25.9151  -11.6245   20.5992 N   0  0  0  0  0  0
  -22.0252  -12.8065   22.0529 N   0  0  0  0  0  0
  -25.3529  -15.1558   20.4739 N   0  0  0  0  0  0
  -31.9095  -14.6542   20.4791 O   0  0  0  0  0  0
  -21.6539   -6.8797   21.4235 O   0  0  0  0  0  0
  -22.3426  -14.5330   20.6772 O   0  0  0  0  0  0
  -24.6233  -31.8616   23.2061 C   0  0  0  0  0  0
  -25.9089  -32.4784   23.8396 C   0  0  1  0  0  0
  -27.2566  -27.3699   20.0977 C   0  0  0  0  0  0
  -25.5912  -33.8588   24.2325 N   0  0  0  0  0  0
  -23.4165  -30.4819   21.5476 C   0  0  2  0  0  0
  -24.8679  -28.9356   20.1175 C   0  0  0  0  0  0
  -22.7459  -29.4626   22.4979 C   0  0  0  0  0  0
  -18.0283  -28.1364   22.8515 C   0  0  0  0  0  0
  -24.1473  -36.7301   23.2651 C   0  0  0  0  0  0
  -25.9543  -30.8044   21.3711 C   0  0  0  0  0  0
  -26.0315  -29.4333   20.7159 C   0  0  0  0  0  0
  -27.2233  -28.6601   20.7016 C   0  0  0  0  0  0
  -26.0686  -26.9088   19.4806 C   0  0  0  0  0  0
  -24.8841  -27.6737   19.4994 C   0  0  0  0  0  0
  -23.6307  -29.8091   20.1656 C   0  0  0  0  0  0
  -25.4091  -36.3102   24.0354 C   0  0  1  0  0  0
  -20.5895  -28.3657   23.1317 C   0  0  2  0  0  0
  -20.6760  -26.9379   22.5426 C   0  0  0  0  0  0
  -19.5727  -26.6374   21.5231 C   0  0  0  0  0  0
  -18.1914  -26.7913   22.1646 C   0  0  0  0  0  0
  -19.1538  -28.8829   23.2911 C   0  0  0  0  0  0
  -18.9456  -30.1445   23.8898 C   0  0  0  0  0  0
  -17.6455  -30.6576   24.0563 C   0  0  0  0  0  0
  -25.9024  -34.9457   23.5131 C   0  0  0  0  0  0
  -16.5347  -29.9075   23.6330 C   0  0  0  0  0  0
  -16.7264  -28.6488   23.0352 C   0  0  0  0  0  0
  -26.4494  -31.6588   25.0751 C   0  0  0  0  0  0
  -25.3757  -31.3712   26.1507 C   0  0  0  0  0  0
  -27.0349  -30.3020   24.6173 C   0  0  0  0  0  0
  -27.6056  -32.4333   25.7504 C   0  0  0  0  0  0
  -27.5573  -37.1808   24.8476 C   0  0  0  0  0  0
  -21.4184  -29.3017   22.3720 N   0  0  0  0  0  0
  -26.4283  -37.3785   23.9423 N   0  0  0  0  0  0
  -24.6834  -31.0649   22.0991 N   0  0  0  0  0  0
  -23.4192  -28.8175   23.3060 O   0  0  0  0  0  0
  -28.4304  -26.6088   20.1374 O   0  0  0  0  0  0
  -26.5593  -34.8926   22.4698 O   0  0  0  0  0  0
  -23.5401  -32.1405   23.7394 O   0  0  0  0  0  0
  -30.6587  -18.3274   19.8297 C   0  0  0  0  0  0
  -30.8964  -20.4298   20.1797 C   0  0  0  0  0  0
  -33.3532  -20.3424   17.3336 C   0  0  0  0  0  0
  -30.1691  -21.7479   22.1954 C   0  0  0  0  0  0
  -32.1048  -22.5717   20.9188 C   0  0  0  0  0  0
  -27.7988  -18.8142   19.2673 C   0  0  0  0  0  0
  -27.4631  -16.4666   18.7155 C   0  0  0  0  0  0
  -28.7984  -17.8293   17.2211 C   0  0  0  0  0  0
  -31.2091  -15.7354   18.1474 C   0  0  0  0  0  0
  -29.5848  -24.3407   20.3938 C   0  0  0  0  0  0
  -29.7214  -22.8183   19.9525 C   0  0  0  0  0  0
  -32.0484  -20.9038   17.9276 C   0  0  0  0  0  0
  -28.4235  -25.1947   19.7609 C   0  0  0  0  0  0
  -29.7414  -17.0919   19.6481 C   0  0  2  0  0  0
  -30.7251  -21.8782   20.7568 C   0  0  0  0  0  0
  -28.5074  -17.5474   18.7180 C   0  0  0  0  0  0
  -30.4086  -19.3124   20.7635 N   0  0  0  0  0  0
  -31.4382  -18.7494   18.8388 N   0  0  0  0  0  0
  -31.5107  -20.1015   19.0199 N   0  0  0  0  0  0
  -30.3317  -15.7069   19.3413 N   0  0  0  0  0  0
  -31.4360  -12.5730   19.0157 H   0  0  0  0  0  0
  -30.3942  -11.4882   19.9152 H   0  0  0  0  0  0
  -29.7030  -11.6245   17.4920 H   0  0  0  0  0  0
  -29.5035  -13.3550   17.6188 H   0  0  0  0  0  0
  -27.8883  -11.1941   18.9736 H   0  0  0  0  0  0
  -27.2927  -12.3818   17.8450 H   0  0  0  0  0  0
  -27.5694  -14.1297   19.4113 H   0  0  0  0  0  0
  -28.8010  -12.2758   21.4645 H   0  0  0  0  0  0
  -28.4855  -13.9879   21.6759 H   0  0  0  0  0  0
  -25.2680   -9.5441   22.4855 H   0  0  0  0  0  0
  -23.9874   -7.4422   22.7496 H   0  0  0  0  0  0
  -21.0764   -8.8657   19.8929 H   0  0  0  0  0  0
  -22.3677  -10.9570   19.6211 H   0  0  0  0  0  0
  -21.1971   -7.6133   23.9723 H   0  0  0  0  0  0
  -21.1467   -6.0523   25.9093 H   0  0  0  0  0  0
  -22.0633   -2.7593   23.2879 H   0  0  0  0  0  0
  -22.3814  -11.9719   22.4947 H   0  0  0  0  0  0
  -21.0877  -13.1133   22.2723 H   0  0  0  0  0  0
  -24.5513  -15.7682   20.5710 H   0  0  0  0  0  0
  -26.1695  -15.6249   20.1085 H   0  0  0  0  0  0
  -26.7163  -32.5460   23.1161 H   0  0  0  0  0  0
  -25.0087  -33.9731   25.0489 H   0  0  0  0  0  0
  -22.7091  -31.3013   21.4004 H   0  0  0  0  0  0
  -23.3729  -35.9641   23.3323 H   0  0  0  0  0  0
  -24.3577  -36.8892   22.2066 H   0  0  0  0  0  0
  -23.7224  -37.6513   23.6639 H   0  0  0  0  0  0
  -26.0802  -31.5657   20.6014 H   0  0  0  0  0  0
  -26.8377  -30.8583   21.9951 H   0  0  0  0  0  0
  -28.1194  -29.0401   21.1724 H   0  0  0  0  0  0
  -26.0283  -25.9533   18.9768 H   0  0  0  0  0  0
  -23.9906  -27.2806   19.0351 H   0  0  0  0  0  0
  -23.7425  -30.5815   19.4044 H   0  0  0  0  0  0
  -22.7545  -29.2323   19.8679 H   0  0  0  0  0  0
  -25.1260  -36.1983   25.0848 H   0  0  0  0  0  0
  -20.9985  -28.3206   24.1440 H   0  0  0  0  0  0
  -20.5666  -26.2255   23.3613 H   0  0  0  0  0  0
  -21.6624  -26.7406   22.1206 H   0  0  0  0  0  0
  -19.6877  -25.6294   21.1236 H   0  0  0  0  0  0
  -19.6657  -27.3203   20.6778 H   0  0  0  0  0  0
  -17.4182  -26.6695   21.4040 H   0  0  0  0  0  0
  -18.0286  -26.0043   22.9025 H   0  0  0  0  0  0
  -19.7930  -30.7285   24.2244 H   0  0  0  0  0  0
  -17.4994  -31.6252   24.5170 H   0  0  0  0  0  0
  -15.5339  -30.2961   23.7647 H   0  0  0  0  0  0
  -15.8676  -28.0807   22.7051 H   0  0  0  0  0  0
  -24.5896  -30.7090   25.7859 H   0  0  0  0  0  0
  -24.8990  -32.2873   26.4995 H   0  0  0  0  0  0
  -25.8118  -30.8854   27.0244 H   0  0  0  0  0  0
  -26.2925  -29.6760   24.1205 H   0  0  0  0  0  0
  -27.4091  -29.7279   25.4662 H   0  0  0  0  0  0
  -27.8768  -30.4333   23.9373 H   0  0  0  0  0  0
  -27.2648  -33.3610   26.2107 H   0  0  0  0  0  0
  -28.3831  -32.6931   25.0313 H   0  0  0  0  0  0
  -28.0757  -31.8454   26.5393 H   0  0  0  0  0  0
  -28.2610  -38.0089   24.7493 H   0  0  0  0  0  0
  -28.1052  -36.2620   24.6320 H   0  0  0  0  0  0
  -27.2302  -37.1479   25.8886 H   0  0  0  0  0  0
  -20.9358  -29.8744   21.6946 H   0  0  0  0  0  0
  -26.0177  -38.2876   24.1389 H   0  0  0  0  0  0
  -34.0876  -20.1013   18.1041 H   0  0  0  0  0  0
  -33.8101  -21.0642   16.6567 H   0  0  0  0  0  0
  -33.1582  -19.4362   16.7590 H   0  0  0  0  0  0
  -30.8281  -21.1427   22.8201 H   0  0  0  0  0  0
  -29.1867  -21.2741   22.1974 H   0  0  0  0  0  0
  -30.0663  -22.7083   22.6979 H   0  0  0  0  0  0
  -32.5381  -22.9256   19.9897 H   0  0  0  0  0  0
  -32.8296  -21.9002   21.3831 H   0  0  0  0  0  0
  -32.0406  -23.4559   21.5529 H   0  0  0  0  0  0
  -28.3993  -19.7141   19.1441 H   0  0  0  0  0  0
  -27.5585  -18.7065   20.3257 H   0  0  0  0  0  0
  -26.8654  -19.0220   18.7434 H   0  0  0  0  0  0
  -26.4797  -16.8042   18.3871 H   0  0  0  0  0  0
  -27.4057  -16.1484   19.7489 H   0  0  0  0  0  0
  -27.7567  -15.6439   18.0622 H   0  0  0  0  0  0
  -27.9217  -18.2620   16.7334 H   0  0  0  0  0  0
  -29.0296  -16.9275   16.6556 H   0  0  0  0  0  0
  -29.6070  -18.5393   17.0647 H   0  0  0  0  0  0
  -32.2511  -15.9199   18.4113 H   0  0  0  0  0  0
  -31.1799  -14.7912   17.6029 H   0  0  0  0  0  0
  -30.9647  -16.5152   17.4379 H   0  0  0  0  0  0
  -30.5289  -24.8406   20.1807 H   0  0  0  0  0  0
  -29.4567  -24.4056   21.4737 H   0  0  0  0  0  0
  -30.0044  -22.8107   18.9000 H   0  0  0  0  0  0
  -28.7359  -22.3529   19.9815 H   0  0  0  0  0  0
  -31.2826  -20.9537   17.1516 H   0  0  0  0  0  0
  -32.2030  -21.9261   18.2465 H   0  0  0  0  0  0
  -27.4838  -24.7269   20.0575 H   0  0  0  0  0  0
  -28.4917  -25.1370   18.6747 H   0  0  0  0  0  0
  -29.3101  -16.9438   20.6395 H   0  0  0  0  0  0
  1 25  1  0  0  0
  1 30  2  0  0  0
  1 90  1  0  0  0
  2  3  1  0  0  0
  2 25  1  0  0  0
  2 91  1  0  0  0
  2 92  1  0  0  0
  3  4  1  0  0  0
  3 93  1  0  0  0
  3 94  1  0  0  0
  4  5  1  0  0  0
  4 95  1  0  0  0
  4 96  1  0  0  0
  5  6  1  0  0  0
  5 26  1  0  0  0
  5 97  1  0  0  0
  6 25  1  0  0  0
  6 98  1  0  0  0
  6 99  1  0  0  0
  7  8  2  0  0  0
  7 26  1  0  0  0
  7 29  1  0  0  0
  8  9  1  0  0  0
  8 22  1  0  0  0
  9 10  1  0  0  0
  9 27  2  0  0  0
 10 11  2  0  0  0
 10 15  1  0  0  0
 11 12  1  0  0  0
 11100  1  0  0  0
 12 13  2  0  0  0
 12101  1  0  0  0
 13 14  1  0  0  0
 13 31  1  0  0  0
 14 15  2  0  0  0
 14102  1  0  0  0
 15103  1  0  0  0
 16 17  2  0  0  0
 16 21  1  0  0  0
 16 31  1  0  0  0
 17 18  1  0  0  0
 17104  1  0  0  0
 18 19  2  0  0  0
 18105  1  0  0  0
 19 20  1  0  0  0
 19 24  1  0  0  0
 20 21  2  0  0  0
 20106  1  0  0  0
 21 23  1  0  0  0
 22 28  1  0  0  0
 22 32  2  0  0  0
 26 27  1  0  0  0
 28107  1  0  0  0
 28108  1  0  0  0
 29109  1  0  0  0
 29110  1  0  0  0
 33 34  1  0  0  0
 33 66  1  0  0  0
 33 70  2  0  0  0
 34 36  1  0  0  0
 34 59  1  0  0  0
 34111  1  0  0  0
 35 44  2  0  0  0
 35 45  1  0  0  0
 35 68  1  0  0  0
 36 56  1  0  0  0
 36112  1  0  0  0
 37 39  1  0  0  0
 37 47  1  0  0  0
 37 66  1  0  0  0
 37113  1  0  0  0
 38 43  2  0  0  0
 38 46  1  0  0  0
 38 47  1  0  0  0
 39 64  1  0  0  0
 39 67  2  0  0  0
 40 52  1  0  0  0
 40 53  2  0  0  0
 40 58  1  0  0  0
 41114  1  0  0  0
 41115  1  0  0  0
 41116  1  0  0  0
 41 48  1  0  0  0
 42 43  1  0  0  0
 42 66  1  0  0  0
 42117  1  0  0  0
 42118  1  0  0  0
 43 44  1  0  0  0
 44119  1  0  0  0
 45 46  2  0  0  0
 45120  1  0  0  0
 46121  1  0  0  0
 47122  1  0  0  0
 47123  1  0  0  0
 48 56  1  0  0  0
 48 65  1  0  0  0
 48124  1  0  0  0
 49 50  1  0  0  0
 49 53  1  0  0  0
 49 64  1  0  0  0
 49125  1  0  0  0
 50 51  1  0  0  0
 50126  1  0  0  0
 50127  1  0  0  0
 51 52  1  0  0  0
 51128  1  0  0  0
 51129  1  0  0  0
 52130  1  0  0  0
 52131  1  0  0  0
 53 54  1  0  0  0
 54 55  2  0  0  0
 54132  1  0  0  0
 55 57  1  0  0  0
 55133  1  0  0  0
 56 69  2  0  0  0
 57 58  2  0  0  0
 57134  1  0  0  0
 58135  1  0  0  0
 59 60  1  0  0  0
 59 61  1  0  0  0
 59 62  1  0  0  0
 60136  1  0  0  0
 60137  1  0  0  0
 60138  1  0  0  0
 61139  1  0  0  0
 61140  1  0  0  0
 61141  1  0  0  0
 62142  1  0  0  0
 62143  1  0  0  0
 62144  1  0  0  0
 63 65  1  0  0  0
 63145  1  0  0  0
 63146  1  0  0  0
 63147  1  0  0  0
 64148  1  0  0  0
 65149  1  0  0  0
 68 83  1  0  0  0
 71 84  1  0  0  0
 71 87  1  0  0  0
 71 88  2  0  0  0
 72 85  1  0  0  0
 72 87  2  0  0  0
 72 89  1  0  0  0
 73 82  1  0  0  0
 73150  1  0  0  0
 73151  1  0  0  0
 73152  1  0  0  0
 74153  1  0  0  0
 74154  1  0  0  0
 74155  1  0  0  0
 74 85  1  0  0  0
 75 85  1  0  0  0
 75156  1  0  0  0
 75157  1  0  0  0
 75158  1  0  0  0
 76159  1  0  0  0
 76160  1  0  0  0
 76161  1  0  0  0
 76 86  1  0  0  0
 77 86  1  0  0  0
 77162  1  0  0  0
 77163  1  0  0  0
 77164  1  0  0  0
 78 86  1  0  0  0
 78165  1  0  0  0
 78166  1  0  0  0
 78167  1  0  0  0
 79 90  1  0  0  0
 79168  1  0  0  0
 79169  1  0  0  0
 79170  1  0  0  0
 80 81  1  0  0  0
 80 83  1  0  0  0
 80171  1  0  0  0
 80172  1  0  0  0
 81 85  1  0  0  0
 81173  1  0  0  0
 81174  1  0  0  0
 82 89  1  0  0  0
 82175  1  0  0  0
 82176  1  0  0  0
 83177  1  0  0  0
 83178  1  0  0  0
 84 86  1  0  0  0
 84 90  1  0  0  0
 84179  1  0  0  0
 88 89  1  0  0  0
M  ISO  4   1 100  68 101  83 101  90 100
M  END
> <chiral flag>
0

> <version>
0

> <s_m_source_file>
/data/baiqing/PycharmProjects/Reinvent-master-3.2/result/LINK_invent/BTK/process_docking_weight1_custom_sum_contain_oxygen_bond_distance_aromatic_linkinvent_7_9_3/rearranged_h_0066.sdf

> <i_m_source_file_index>
71

> <r_mmod_Potential_Energy-OPLS-2005>
407.402069091797

> <r_mmod_Stretch_Energy-OPLS-2005>
97.1793746948242

> <r_mmod_Bend_Energy-OPLS-2005>
193.290832519531

> <r_mmod_Torsional_Energy-OPLS-2005>
354.523712158203

> <r_mmod_Improper_Torsional_Energy-OPLS-2005>
38.0788917541504

> <r_mmod_Van_der_Waal_Energy-OPLS-2005>
158.620346069336

> <r_mmod_Electrostatic_Energy-OPLS-2005>
-343.535034179688

> <r_mmod_Solvation_Energy-OPLS-2005>
-191.029998779297

> <b_mmod_Minimization_Converged-OPLS-2005>
0

> <r_mmod_RMS_Derivative-OPLS-2005>
3.88675236701965

$$$$
76
                    3D
 Structure written by MMmdl.
161169  0  0  1  0            999 V2000
  -30.5100  -15.0788   20.3657 C   0  0  0  0  0  0
  -30.4231  -12.6600   19.5385 C   0  0  0  0  0  0
  -29.5290  -12.5702   18.2829 C   0  0  0  0  0  0
  -28.0663  -12.3235   18.6885 C   0  0  0  0  0  0
  -27.6186  -13.2697   19.8349 C   0  0  2  0  0  0
  -28.6525  -13.3658   20.9784 C   0  0  0  0  0  0
  -25.2340  -13.8250   20.5670 C   0  0  0  0  0  0
  -24.1724  -13.0451   20.9203 C   0  0  0  0  0  0
  -24.6405  -11.6954   20.8775 C   0  0  0  0  0  0
  -23.9131  -10.4321   21.0411 C   0  0  0  0  0  0
  -24.3671   -9.4221   21.9175 C   0  0  0  0  0  0
  -23.6329   -8.2278   22.0743 C   0  0  0  0  0  0
  -22.4309   -8.0320   21.3561 C   0  0  0  0  0  0
  -21.9976   -9.0289   20.4642 C   0  0  0  0  0  0
  -22.7323  -10.2155   20.3041 C   0  0  0  0  0  0
  -21.6863   -6.0766   22.5300 C   0  0  0  0  0  0
  -21.4047   -6.5660   23.8236 C   0  0  0  0  0  0
  -21.3677   -5.6801   24.9193 C   0  0  0  0  0  0
  -21.6043   -4.3062   24.7236 C   0  0  0  0  0  0
  -21.8797   -3.8163   23.4346 C   0  0  0  0  0  0
  -21.9187   -4.6997   22.3412 C   0  0  0  0  0  0
  -22.7732  -13.5187   21.1873 C   0  0  0  0  0  0
  -22.1627   -4.2175   21.0988 F   0  0  0  0  0  0
  -21.5635   -3.4537   25.7737 F   0  0  0  0  0  0
  -29.9200  -13.7992   20.3767 N   0  0  0  0  0  0
  -26.2822  -12.9560   20.3229 N   0  0  0  0  0  0
  -25.9338  -11.6676   20.5758 N   0  0  0  0  0  0
  -22.0412  -12.8190   22.0437 N   0  0  0  0  0  0
  -25.3927  -15.2018   20.4054 N   0  0  0  0  0  0
  -31.7086  -15.0736   20.0673 O   0  0  0  0  0  0
  -21.6654   -6.8927   21.4268 O   0  0  0  0  0  0
  -22.3403  -14.5481   20.6661 O   0  0  0  0  0  0
  -24.6518  -31.8346   23.1784 C   0  0  0  0  0  0
  -25.9286  -32.4619   23.8204 C   0  0  1  0  0  0
  -27.2041  -27.0329   20.1887 C   0  0  0  0  0  0
  -25.6086  -33.8431   24.2167 N   0  0  0  0  0  0
  -23.4543  -30.4487   21.5272 C   0  0  2  0  0  0
  -24.8959  -28.8404   20.1179 C   0  0  0  0  0  0
  -22.7614  -29.4503   22.4861 C   0  0  0  0  0  0
  -18.0294  -28.1435   22.8414 C   0  0  0  0  0  0
  -24.1530  -36.7171   23.2617 C   0  0  0  0  0  0
  -26.0101  -30.6796   21.3763 C   0  0  0  0  0  0
  -26.0764  -29.2742   20.7323 C   0  0  0  0  0  0
  -27.2225  -28.3856   20.7515 C   0  0  0  0  0  0
  -25.9945  -26.7076   19.5422 C   0  0  0  0  0  0
  -24.8681  -27.5668   19.5192 C   0  0  0  0  0  0
  -23.6840  -29.7651   20.1496 C   0  0  0  0  0  0
  -25.4172  -36.2979   24.0285 C   0  0  1  0  0  0
  -20.5913  -28.3765   23.1206 C   0  0  2  0  0  0
  -20.6801  -26.9479   22.5382 C   0  0  0  0  0  0
  -19.5788  -26.6440   21.5175 C   0  0  0  0  0  0
  -18.1954  -26.7973   22.1563 C   0  0  0  0  0  0
  -19.1552  -28.8924   23.2797 C   0  0  0  0  0  0
  -18.9485  -30.1518   23.8833 C   0  0  0  0  0  0
  -17.6480  -30.6611   24.0584 C   0  0  0  0  0  0
  -25.9128  -34.9353   23.5015 C   0  0  0  0  0  0
  -16.5371  -29.9102   23.6355 C   0  0  0  0  0  0
  -16.7279  -28.6550   23.0302 C   0  0  0  0  0  0
  -26.4567  -31.6472   25.0649 C   0  0  0  0  0  0
  -25.3692  -31.3685   26.1326 C   0  0  0  0  0  0
  -27.0426  -30.2894   24.6148 C   0  0  0  0  0  0
  -27.6174  -32.4128   25.7423 C   0  0  0  0  0  0
  -27.5586  -37.1764   24.8481 C   0  0  0  0  0  0
  -21.4295  -29.3072   22.3605 N   0  0  0  0  0  0
  -26.4315  -37.3726   23.9397 N   0  0  0  0  0  0
  -24.7271  -31.0108   22.0847 N   0  0  0  0  0  0
  -23.4207  -28.8056   23.3052 O   0  0  0  0  0  0
  -28.2564  -26.0347   20.3560 O   0  0  0  0  0  0
  -26.5661  -34.8856   22.4572 O   0  0  0  0  0  0
  -23.5630  -32.1271   23.6994 O   0  0  0  0  0  0
  -29.2944  -19.3072   20.4799 C   0  0  0  0  0  0
  -28.8562  -20.9973   21.7729 C   0  0  0  0  0  0
  -28.5853  -21.7894   23.0142 C   0  0  0  0  0  0
  -31.4589  -18.1485   19.7176 C   0  0  0  0  0  0
  -26.6914  -22.6044   19.3091 C   0  0  0  0  0  0
  -29.9540  -24.3734   20.4395 C   0  0  0  0  0  0
  -28.6191  -24.6789   18.3443 C   0  0  0  0  0  0
  -29.9626  -17.8550   19.9498 C   0  0  2  0  0  0
  -27.8686  -22.9578   20.2376 C   0  0  1  0  0  0
  -28.5282  -24.5247   19.8757 C   0  0  0  0  0  0
  -29.2708  -19.6994   21.7995 N   0  0  0  0  0  0
  -28.9169  -20.4105   19.6990 N   0  0  0  0  0  0
  -28.6239  -21.5401   20.5541 N   0  0  0  0  0  0
  -29.7681  -16.3253   20.4751 N   0  0  0  0  0  0
  -31.4631  -12.7926   19.2430 H   0  0  0  0  0  0
  -30.3997  -11.7209   20.0971 H   0  0  0  0  0  0
  -29.8832  -11.7887   17.6078 H   0  0  0  0  0  0
  -29.5964  -13.5107   17.7300 H   0  0  0  0  0  0
  -27.9849  -11.2847   19.0109 H   0  0  0  0  0  0
  -27.4103  -12.4256   17.8223 H   0  0  0  0  0  0
  -27.5634  -14.2591   19.3765 H   0  0  0  0  0  0
  -28.7611  -12.4106   21.4955 H   0  0  0  0  0  0
  -28.3250  -14.0920   21.7248 H   0  0  0  0  0  0
  -25.2844   -9.5691   22.4732 H   0  0  0  0  0  0
  -24.0043   -7.4679   22.7482 H   0  0  0  0  0  0
  -21.0909   -8.8850   19.8949 H   0  0  0  0  0  0
  -22.3834  -10.9682   19.6129 H   0  0  0  0  0  0
  -21.2044   -7.6163   23.9773 H   0  0  0  0  0  0
  -21.1522   -6.0516   25.9105 H   0  0  0  0  0  0
  -22.0548   -2.7627   23.2842 H   0  0  0  0  0  0
  -22.4026  -11.9863   22.4877 H   0  0  0  0  0  0
  -21.1013  -13.1189   22.2630 H   0  0  0  0  0  0
  -24.6084  -15.8404   20.4902 H   0  0  0  0  0  0
  -26.2400  -15.6630   20.1010 H   0  0  0  0  0  0
  -26.7325  -32.5182   23.0888 H   0  0  0  0  0  0
  -25.0485  -33.9587   25.0478 H   0  0  0  0  0  0
  -22.7620  -31.2781   21.3686 H   0  0  0  0  0  0
  -23.3814  -35.9479   23.3260 H   0  0  0  0  0  0
  -24.3605  -36.8804   22.2033 H   0  0  0  0  0  0
  -23.7240  -37.6340   23.6656 H   0  0  0  0  0  0
  -26.1521  -31.4117   20.5814 H   0  0  0  0  0  0
  -26.8876  -30.7542   22.0080 H   0  0  0  0  0  0
  -28.1111  -28.7146   21.2715 H   0  0  0  0  0  0
  -25.8799  -25.7203   19.1204 H   0  0  0  0  0  0
  -23.9478  -27.2022   19.0836 H   0  0  0  0  0  0
  -23.8570  -30.5342   19.3964 H   0  0  0  0  0  0
  -22.7896  -29.2328   19.8220 H   0  0  0  0  0  0
  -25.1364  -36.1802   25.0768 H   0  0  0  0  0  0
  -20.9953  -28.3364   24.1349 H   0  0  0  0  0  0
  -20.5714  -26.2404   23.3607 H   0  0  0  0  0  0
  -21.6671  -26.7527   22.1192 H   0  0  0  0  0  0
  -19.6973  -25.6360   21.1192 H   0  0  0  0  0  0
  -19.6714  -27.3255   20.6701 H   0  0  0  0  0  0
  -17.4255  -26.6689   21.3940 H   0  0  0  0  0  0
  -18.0357  -26.0144   22.8985 H   0  0  0  0  0  0
  -19.7981  -30.7346   24.2150 H   0  0  0  0  0  0
  -17.5055  -31.6254   24.5252 H   0  0  0  0  0  0
  -15.5378  -30.2989   23.7772 H   0  0  0  0  0  0
  -15.8666  -28.0905   22.6974 H   0  0  0  0  0  0
  -24.6009  -30.6848   25.7683 H   0  0  0  0  0  0
  -24.8698  -32.2856   26.4497 H   0  0  0  0  0  0
  -25.7984  -30.9106   27.0253 H   0  0  0  0  0  0
  -26.3047  -29.6620   24.1156 H   0  0  0  0  0  0
  -27.4140  -29.7169   25.4658 H   0  0  0  0  0  0
  -27.8889  -30.4206   23.9390 H   0  0  0  0  0  0
  -27.2948  -33.3550   26.1851 H   0  0  0  0  0  0
  -28.4110  -32.6406   25.0282 H   0  0  0  0  0  0
  -28.0650  -31.8227   26.5439 H   0  0  0  0  0  0
  -28.2645  -38.0044   24.7571 H   0  0  0  0  0  0
  -28.1063  -36.2582   24.6312 H   0  0  0  0  0  0
  -27.2273  -37.1379   25.8879 H   0  0  0  0  0  0
  -20.9575  -29.8798   21.6750 H   0  0  0  0  0  0
  -26.0150  -38.2762   24.1460 H   0  0  0  0  0  0
  -29.0264  -22.7850   22.9351 H   0  0  0  0  0  0
  -28.9935  -21.2969   23.8976 H   0  0  0  0  0  0
  -27.5101  -21.8965   23.1596 H   0  0  0  0  0  0
  -31.9523  -17.3690   19.1393 H   0  0  0  0  0  0
  -31.9947  -18.2630   20.6601 H   0  0  0  0  0  0
  -31.5954  -19.0748   19.1547 H   0  0  0  0  0  0
  -27.0042  -22.5333   18.2692 H   0  0  0  0  0  0
  -25.8761  -23.3232   19.3825 H   0  0  0  0  0  0
  -26.2754  -21.6279   19.5666 H   0  0  0  0  0  0
  -30.4401  -23.4444   20.1353 H   0  0  0  0  0  0
  -29.9306  -24.3584   21.5258 H   0  0  0  0  0  0
  -30.6014  -25.1978   20.1456 H   0  0  0  0  0  0
  -29.3769  -25.4068   18.0596 H   0  0  0  0  0  0
  -27.6737  -25.0241   17.9236 H   0  0  0  0  0  0
  -28.8614  -23.7374   17.8497 H   0  0  0  0  0  0
  -29.5575  -17.7636   18.9402 H   0  0  0  0  0  0
  -27.3770  -23.1683   21.1875 H   0  0  0  0  0  0
  -28.8354  -16.1905   20.8315 H   0  0  0  0  0  0
  1 25  1  0  0  0
  1 30  2  0  0  0
  1 84  1  0  0  0
  2  3  1  0  0  0
  2 25  1  0  0  0
  2 85  1  0  0  0
  2 86  1  0  0  0
  3  4  1  0  0  0
  3 87  1  0  0  0
  3 88  1  0  0  0
  4  5  1  0  0  0
  4 89  1  0  0  0
  4 90  1  0  0  0
  5  6  1  0  0  0
  5 26  1  0  0  0
  5 91  1  0  0  0
  6 25  1  0  0  0
  6 92  1  0  0  0
  6 93  1  0  0  0
  7  8  2  0  0  0
  7 26  1  0  0  0
  7 29  1  0  0  0
  8  9  1  0  0  0
  8 22  1  0  0  0
  9 10  1  0  0  0
  9 27  2  0  0  0
 10 11  2  0  0  0
 10 15  1  0  0  0
 11 12  1  0  0  0
 11 94  1  0  0  0
 12 13  2  0  0  0
 12 95  1  0  0  0
 13 14  1  0  0  0
 13 31  1  0  0  0
 14 15  2  0  0  0
 14 96  1  0  0  0
 15 97  1  0  0  0
 16 17  2  0  0  0
 16 21  1  0  0  0
 16 31  1  0  0  0
 17 18  1  0  0  0
 17 98  1  0  0  0
 18 19  2  0  0  0
 18 99  1  0  0  0
 19 20  1  0  0  0
 19 24  1  0  0  0
 20 21  2  0  0  0
 20100  1  0  0  0
 21 23  1  0  0  0
 22 28  1  0  0  0
 22 32  2  0  0  0
 26 27  1  0  0  0
 28101  1  0  0  0
 28102  1  0  0  0
 29103  1  0  0  0
 29104  1  0  0  0
 33 34  1  0  0  0
 33 66  1  0  0  0
 33 70  2  0  0  0
 34 36  1  0  0  0
 34 59  1  0  0  0
 34105  1  0  0  0
 35 44  2  0  0  0
 35 45  1  0  0  0
 35 68  1  0  0  0
 36 56  1  0  0  0
 36106  1  0  0  0
 37 39  1  0  0  0
 37 47  1  0  0  0
 37 66  1  0  0  0
 37107  1  0  0  0
 38 43  2  0  0  0
 38 46  1  0  0  0
 38 47  1  0  0  0
 39 64  1  0  0  0
 39 67  2  0  0  0
 40 52  1  0  0  0
 40 53  2  0  0  0
 40 58  1  0  0  0
 41108  1  0  0  0
 41109  1  0  0  0
 41110  1  0  0  0
 41 48  1  0  0  0
 42 43  1  0  0  0
 42 66  1  0  0  0
 42111  1  0  0  0
 42112  1  0  0  0
 43 44  1  0  0  0
 44113  1  0  0  0
 45 46  2  0  0  0
 45114  1  0  0  0
 46115  1  0  0  0
 47116  1  0  0  0
 47117  1  0  0  0
 48 56  1  0  0  0
 48 65  1  0  0  0
 48118  1  0  0  0
 49 50  1  0  0  0
 49 53  1  0  0  0
 49 64  1  0  0  0
 49119  1  0  0  0
 50 51  1  0  0  0
 50120  1  0  0  0
 50121  1  0  0  0
 51 52  1  0  0  0
 51122  1  0  0  0
 51123  1  0  0  0
 52124  1  0  0  0
 52125  1  0  0  0
 53 54  1  0  0  0
 54 55  2  0  0  0
 54126  1  0  0  0
 55 57  1  0  0  0
 55127  1  0  0  0
 56 69  2  0  0  0
 57 58  2  0  0  0
 57128  1  0  0  0
 58129  1  0  0  0
 59 60  1  0  0  0
 59 61  1  0  0  0
 59 62  1  0  0  0
 60130  1  0  0  0
 60131  1  0  0  0
 60132  1  0  0  0
 61133  1  0  0  0
 61134  1  0  0  0
 61135  1  0  0  0
 62136  1  0  0  0
 62137  1  0  0  0
 62138  1  0  0  0
 63 65  1  0  0  0
 63139  1  0  0  0
 63140  1  0  0  0
 63141  1  0  0  0
 64142  1  0  0  0
 65143  1  0  0  0
 68 80  1  0  0  0
 71 78  1  0  0  0
 71 81  1  0  0  0
 71 82  2  0  0  0
 72 73  1  0  0  0
 72 81  2  0  0  0
 72 83  1  0  0  0
 73144  1  0  0  0
 73145  1  0  0  0
 73146  1  0  0  0
 74147  1  0  0  0
 74148  1  0  0  0
 74149  1  0  0  0
 74 78  1  0  0  0
 75150  1  0  0  0
 75151  1  0  0  0
 75152  1  0  0  0
 75 79  1  0  0  0
 76153  1  0  0  0
 76154  1  0  0  0
 76155  1  0  0  0
 76 80  1  0  0  0
 77 80  1  0  0  0
 77156  1  0  0  0
 77157  1  0  0  0
 77158  1  0  0  0
 78 84  1  0  0  0
 78159  1  0  0  0
 79 80  1  0  0  0
 79 83  1  0  0  0
 79160  1  0  0  0
 82 83  1  0  0  0
 84161  1  0  0  0
M  ISO  4   1 100  68 101  80 101  84 100
M  END
> <chiral flag>
0

> <version>
0

> <s_m_source_file>
/data/baiqing/PycharmProjects/Reinvent-master-3.2/result/LINK_invent/BTK/process_docking_weight1_custom_sum_contain_oxygen_bond_distance_aromatic_linkinvent_7_9_3/rearranged_h_0066.sdf

> <i_m_source_file_index>
72

> <r_mmod_Potential_Energy-OPLS-2005>
720.186950683594

> <r_mmod_Stretch_Energy-OPLS-2005>
388.739349365234

> <r_mmod_Bend_Energy-OPLS-2005>
421.563812255859

> <r_mmod_Torsional_Energy-OPLS-2005>
215.80876159668

> <r_mmod_Improper_Torsional_Energy-OPLS-2005>
8.52039337158203

> <r_mmod_Van_der_Waal_Energy-OPLS-2005>
108.757545471191

> <r_mmod_Electrostatic_Energy-OPLS-2005>
-494.680541992188

> <r_mmod_Solvation_Energy-OPLS-2005>
-223.44157409668

> <b_mmod_Minimization_Converged-OPLS-2005>
0

> <r_mmod_RMS_Derivative-OPLS-2005>
5.95904874801636

$$$$
77
                    3D
 Structure written by MMmdl.
180188  0  0  1  0            999 V2000
  -30.7709  -14.4531   20.7428 C   0  0  0  0  0  0
  -30.4038  -12.3358   19.4789 C   0  0  0  0  0  0
  -29.4997  -12.5011   18.2389 C   0  0  0  0  0  0
  -28.0199  -12.3368   18.6211 C   0  0  0  0  0  0
  -27.6494  -13.1959   19.8549 C   0  0  2  0  0  0
  -28.6608  -12.9646   20.9909 C   0  0  0  0  0  0
  -25.2565  -13.8143   20.5673 C   0  0  0  0  0  0
  -24.1833  -13.0452   20.9205 C   0  0  0  0  0  0
  -24.6356  -11.6891   20.8722 C   0  0  0  0  0  0
  -23.9065  -10.4287   21.0441 C   0  0  0  0  0  0
  -24.3621   -9.4221   21.9226 C   0  0  0  0  0  0
  -23.6319   -8.2236   22.0766 C   0  0  0  0  0  0
  -22.4291   -8.0279   21.3560 C   0  0  0  0  0  0
  -21.9940   -9.0261   20.4662 C   0  0  0  0  0  0
  -22.7266  -10.2139   20.3091 C   0  0  0  0  0  0
  -21.6873   -6.0768   22.5298 C   0  0  0  0  0  0
  -21.4029   -6.5668   23.8242 C   0  0  0  0  0  0
  -21.3657   -5.6802   24.9196 C   0  0  0  0  0  0
  -21.6044   -4.3055   24.7206 C   0  0  0  0  0  0
  -21.8840   -3.8179   23.4318 C   0  0  0  0  0  0
  -21.9217   -4.7001   22.3405 C   0  0  0  0  0  0
  -22.7869  -13.5252   21.1897 C   0  0  0  0  0  0
  -22.1667   -4.2203   21.0966 F   0  0  0  0  0  0
  -21.5614   -3.4520   25.7704 F   0  0  0  0  0  0
  -30.0073  -13.3298   20.5108 N   0  0  0  0  0  0
  -26.2908  -12.9278   20.3158 N   0  0  0  0  0  0
  -25.9227  -11.6447   20.5610 N   0  0  0  0  0  0
  -22.0481  -12.8256   22.0401 N   0  0  0  0  0  0
  -25.4393  -15.1870   20.4145 N   0  0  0  0  0  0
  -31.7676  -14.6067   20.0399 O   0  0  0  0  0  0
  -21.6652   -6.8889   21.4254 O   0  0  0  0  0  0
  -22.3595  -14.5604   20.6782 O   0  0  0  0  0  0
  -24.6153  -31.8680   23.2115 C   0  0  0  0  0  0
  -25.9034  -32.4843   23.8407 C   0  0  1  0  0  0
  -27.2402  -27.4240   20.0765 C   0  0  0  0  0  0
  -25.5860  -33.8630   24.2319 N   0  0  0  0  0  0
  -23.4059  -30.4951   21.5507 C   0  0  2  0  0  0
  -24.8557  -28.9681   20.1105 C   0  0  0  0  0  0
  -22.7449  -29.4663   22.4967 C   0  0  0  0  0  0
  -18.0268  -28.1410   22.8502 C   0  0  0  0  0  0
  -24.1456  -36.7275   23.2656 C   0  0  0  0  0  0
  -25.9403  -30.8296   21.3720 C   0  0  0  0  0  0
  -26.0197  -29.4668   20.7099 C   0  0  0  0  0  0
  -27.2131  -28.6994   20.6964 C   0  0  0  0  0  0
  -26.0369  -26.9283   19.5305 C   0  0  0  0  0  0
  -24.8600  -27.6968   19.5182 C   0  0  0  0  0  0
  -23.6194  -29.8361   20.1630 C   0  0  0  0  0  0
  -25.4081  -36.3101   24.0349 C   0  0  1  0  0  0
  -20.5864  -28.3664   23.1317 C   0  0  2  0  0  0
  -20.6745  -26.9391   22.5419 C   0  0  0  0  0  0
  -19.5731  -26.6396   21.5224 C   0  0  0  0  0  0
  -18.1911  -26.7963   22.1636 C   0  0  0  0  0  0
  -19.1528  -28.8848   23.2919 C   0  0  0  0  0  0
  -18.9485  -30.1452   23.8931 C   0  0  0  0  0  0
  -17.6498  -30.6611   24.0582 C   0  0  0  0  0  0
  -25.9012  -34.9482   23.5125 C   0  0  0  0  0  0
  -16.5369  -29.9122   23.6374 C   0  0  0  0  0  0
  -16.7263  -28.6545   23.0371 C   0  0  0  0  0  0
  -26.4460  -31.6637   25.0748 C   0  0  0  0  0  0
  -25.3726  -31.3755   26.1502 C   0  0  0  0  0  0
  -27.0305  -30.3084   24.6124 C   0  0  0  0  0  0
  -27.6008  -32.4383   25.7524 C   0  0  0  0  0  0
  -27.5560  -37.1785   24.8471 C   0  0  0  0  0  0
  -21.4156  -29.3039   22.3731 N   0  0  0  0  0  0
  -26.4256  -37.3788   23.9438 N   0  0  0  0  0  0
  -24.6713  -31.0775   22.1033 N   0  0  0  0  0  0
  -23.4236  -28.8192   23.2982 O   0  0  0  0  0  0
  -28.3722  -26.6210   20.1619 O   0  0  0  0  0  0
  -26.5596  -34.8944   22.4708 O   0  0  0  0  0  0
  -23.5340  -32.1402   23.7515 O   0  0  0  0  0  0
  -28.1354  -20.6106   20.9226 C   0  0  0  0  0  0
  -29.3130  -18.9651   20.4228 C   0  0  0  0  0  0
  -31.7132  -15.0387   22.9346 C   0  0  0  0  0  0
  -29.3086  -15.4582   22.7548 C   0  0  0  0  0  0
  -31.0447  -24.5014   18.4124 C   0  0  0  0  0  0
  -30.7883  -25.2624   20.7634 C   0  0  0  0  0  0
  -30.7219  -18.0328   22.6966 C   0  0  0  0  0  0
  -29.9110  -27.3085   18.5137 C   0  0  0  0  0  0
  -28.1805  -25.6622   17.8322 C   0  0  0  0  0  0
  -29.8513  -17.5426   20.3364 C   0  0  0  0  0  0
  -29.1544  -23.5647   19.7958 C   0  0  0  0  0  0
  -29.8928  -22.4332   20.5745 C   0  0  0  0  0  0
  -30.6280  -15.5224   21.9208 C   0  0  0  0  0  0
  -29.9929  -24.8698   19.4936 C   0  0  0  0  0  0
  -30.8751  -17.0822   21.4573 C   0  0  2  0  0  0
  -29.0840  -26.0981   19.0083 C   0  0  0  0  0  0
  -32.3169  -17.4293   20.8964 C   0  0  0  0  0  0
  -28.0620  -19.2753   20.8939 N   0  0  0  0  0  0
  -30.0651  -20.0264   20.1139 N   0  0  0  0  0  0
  -29.3085  -21.0903   20.5016 N   0  0  0  0  0  0
  -33.2819  -17.0587   21.7381 F   0  0  0  0  0  0
  -32.5915  -16.9353   19.6939 F   0  0  0  0  0  0
  -32.4708  -18.7431   20.7447 F   0  0  0  0  0  0
  -31.4533  -12.4062   19.1872 H   0  0  0  0  0  0
  -30.3028  -11.3278   19.8876 H   0  0  0  0  0  0
  -29.7716  -11.7641   17.4843 H   0  0  0  0  0  0
  -29.6617  -13.4813   17.7922 H   0  0  0  0  0  0
  -27.8461  -11.2823   18.8430 H   0  0  0  0  0  0
  -27.3846  -12.5776   17.7674 H   0  0  0  0  0  0
  -27.7035  -14.2417   19.5529 H   0  0  0  0  0  0
  -28.6469  -11.9141   21.2867 H   0  0  0  0  0  0
  -28.2819  -13.4734   21.8587 H   0  0  0  0  0  0
  -25.2732   -9.5726   22.4822 H   0  0  0  0  0  0
  -24.0059   -7.4633   22.7463 H   0  0  0  0  0  0
  -21.0905   -8.8847   19.8898 H   0  0  0  0  0  0
  -22.3802  -10.9730   19.6212 H   0  0  0  0  0  0
  -21.2020   -7.6178   23.9772 H   0  0  0  0  0  0
  -21.1444   -6.0505   25.9115 H   0  0  0  0  0  0
  -22.0608   -2.7631   23.2804 H   0  0  0  0  0  0
  -22.4026  -11.9842   22.4728 H   0  0  0  0  0  0
  -21.1112  -13.1345   22.2565 H   0  0  0  0  0  0
  -24.6869  -15.8499   20.5638 H   0  0  0  0  0  0
  -26.2916  -15.6222   20.0861 H   0  0  0  0  0  0
  -26.7124  -32.5557   23.1186 H   0  0  0  0  0  0
  -24.9958  -33.9776   25.0430 H   0  0  0  0  0  0
  -22.6927  -31.3106   21.4127 H   0  0  0  0  0  0
  -23.3747  -35.9579   23.3318 H   0  0  0  0  0  0
  -24.3538  -36.8875   22.2069 H   0  0  0  0  0  0
  -23.7176  -37.6465   23.6667 H   0  0  0  0  0  0
  -26.0592  -31.6019   20.6101 H   0  0  0  0  0  0
  -26.8250  -30.8722   21.9962 H   0  0  0  0  0  0
  -28.1065  -29.0706   21.1778 H   0  0  0  0  0  0
  -25.9761  -25.9275   19.1370 H   0  0  0  0  0  0
  -23.9598  -27.2905   19.0773 H   0  0  0  0  0  0
  -23.7372  -30.6159   19.4094 H   0  0  0  0  0  0
  -22.7448  -29.2604   19.8583 H   0  0  0  0  0  0
  -25.1267  -36.1940   25.0835 H   0  0  0  0  0  0
  -20.9940  -28.3216   24.1452 H   0  0  0  0  0  0
  -20.5598  -26.2275   23.3603 H   0  0  0  0  0  0
  -21.6618  -26.7404   22.1233 H   0  0  0  0  0  0
  -19.6858  -25.6316   21.1237 H   0  0  0  0  0  0
  -19.6698  -27.3234   20.6782 H   0  0  0  0  0  0
  -17.4170  -26.6732   21.4040 H   0  0  0  0  0  0
  -18.0287  -26.0094   22.9018 H   0  0  0  0  0  0
  -19.7957  -30.7253   24.2313 H   0  0  0  0  0  0
  -17.5065  -31.6304   24.5165 H   0  0  0  0  0  0
  -15.5376  -30.3053   23.7685 H   0  0  0  0  0  0
  -15.8658  -28.0887   22.7074 H   0  0  0  0  0  0
  -24.5892  -30.7091   25.7873 H   0  0  0  0  0  0
  -24.8935  -32.2920   26.4955 H   0  0  0  0  0  0
  -25.8075  -30.8953   27.0270 H   0  0  0  0  0  0
  -26.2851  -29.6864   24.1142 H   0  0  0  0  0  0
  -27.4058  -29.7297   25.4574 H   0  0  0  0  0  0
  -27.8694  -30.4436   23.9287 H   0  0  0  0  0  0
  -27.2583  -33.3692   26.2052 H   0  0  0  0  0  0
  -28.3845  -32.6910   25.0377 H   0  0  0  0  0  0
  -28.0628  -31.8542   26.5489 H   0  0  0  0  0  0
  -28.2559  -38.0104   24.7537 H   0  0  0  0  0  0
  -28.1056  -36.2623   24.6242 H   0  0  0  0  0  0
  -27.2280  -37.1367   25.8876 H   0  0  0  0  0  0
  -20.9295  -29.8839   21.7038 H   0  0  0  0  0  0
  -26.0139  -38.2843   24.1515 H   0  0  0  0  0  0
  -27.3478  -21.2487   21.3049 H   0  0  0  0  0  0
  -31.8437  -15.6999   23.7881 H   0  0  0  0  0  0
  -32.6924  -14.8910   22.4766 H   0  0  0  0  0  0
  -31.4558  -14.0678   23.3619 H   0  0  0  0  0  0
  -29.3009  -16.1623   23.5802 H   0  0  0  0  0  0
  -29.1880  -14.5252   23.3019 H   0  0  0  0  0  0
  -28.4140  -15.6544   22.1670 H   0  0  0  0  0  0
  -31.7372  -23.7382   18.7599 H   0  0  0  0  0  0
  -31.6751  -25.3445   18.1331 H   0  0  0  0  0  0
  -30.5883  -24.1064   17.5069 H   0  0  0  0  0  0
  -31.4893  -24.4833   21.0624 H   0  0  0  0  0  0
  -30.1312  -25.4399   21.6152 H   0  0  0  0  0  0
  -31.3977  -26.1506   20.6143 H   0  0  0  0  0  0
  -29.6862  -18.1237   23.0193 H   0  0  0  0  0  0
  -31.0227  -19.0598   22.4944 H   0  0  0  0  0  0
  -31.3335  -17.7290   23.5414 H   0  0  0  0  0  0
  -30.4502  -27.0851   17.5936 H   0  0  0  0  0  0
  -30.6355  -27.6543   19.2491 H   0  0  0  0  0  0
  -29.2669  -28.1580   18.2851 H   0  0  0  0  0  0
  -28.7680  -25.2987   16.9935 H   0  0  0  0  0  0
  -27.6009  -26.4974   17.4378 H   0  0  0  0  0  0
  -27.4936  -24.8627   18.1038 H   0  0  0  0  0  0
  -30.2748  -17.3927   19.3428 H   0  0  0  0  0  0
  -28.9848  -16.8841   20.3492 H   0  0  0  0  0  0
  -28.2637  -23.8392   20.3613 H   0  0  0  0  0  0
  -28.7917  -23.1409   18.8583 H   0  0  0  0  0  0
  -29.9561  -22.7033   21.6300 H   0  0  0  0  0  0
  -30.9234  -22.3463   20.2354 H   0  0  0  0  0  0
  1 25  1  0  0  0
  1 30  2  0  0  0
  1 83  1  0  0  0
  2  3  1  0  0  0
  2 25  1  0  0  0
  2 94  1  0  0  0
  2 95  1  0  0  0
  3  4  1  0  0  0
  3 96  1  0  0  0
  3 97  1  0  0  0
  4  5  1  0  0  0
  4 98  1  0  0  0
  4 99  1  0  0  0
  5  6  1  0  0  0
  5 26  1  0  0  0
  5100  1  0  0  0
  6 25  1  0  0  0
  6101  1  0  0  0
  6102  1  0  0  0
  7  8  2  0  0  0
  7 26  1  0  0  0
  7 29  1  0  0  0
  8  9  1  0  0  0
  8 22  1  0  0  0
  9 10  1  0  0  0
  9 27  2  0  0  0
 10 11  2  0  0  0
 10 15  1  0  0  0
 11 12  1  0  0  0
 11103  1  0  0  0
 12 13  2  0  0  0
 12104  1  0  0  0
 13 14  1  0  0  0
 13 31  1  0  0  0
 14 15  2  0  0  0
 14105  1  0  0  0
 15106  1  0  0  0
 16 17  2  0  0  0
 16 21  1  0  0  0
 16 31  1  0  0  0
 17 18  1  0  0  0
 17107  1  0  0  0
 18 19  2  0  0  0
 18108  1  0  0  0
 19 20  1  0  0  0
 19 24  1  0  0  0
 20 21  2  0  0  0
 20109  1  0  0  0
 21 23  1  0  0  0
 22 28  1  0  0  0
 22 32  2  0  0  0
 26 27  1  0  0  0
 28110  1  0  0  0
 28111  1  0  0  0
 29112  1  0  0  0
 29113  1  0  0  0
 33 34  1  0  0  0
 33 66  1  0  0  0
 33 70  2  0  0  0
 34 36  1  0  0  0
 34 59  1  0  0  0
 34114  1  0  0  0
 35 44  2  0  0  0
 35 45  1  0  0  0
 35 68  1  0  0  0
 36 56  1  0  0  0
 36115  1  0  0  0
 37 39  1  0  0  0
 37 47  1  0  0  0
 37 66  1  0  0  0
 37116  1  0  0  0
 38 43  2  0  0  0
 38 46  1  0  0  0
 38 47  1  0  0  0
 39 64  1  0  0  0
 39 67  2  0  0  0
 40 52  1  0  0  0
 40 53  2  0  0  0
 40 58  1  0  0  0
 41117  1  0  0  0
 41118  1  0  0  0
 41119  1  0  0  0
 41 48  1  0  0  0
 42 43  1  0  0  0
 42 66  1  0  0  0
 42120  1  0  0  0
 42121  1  0  0  0
 43 44  1  0  0  0
 44122  1  0  0  0
 45 46  2  0  0  0
 45123  1  0  0  0
 46124  1  0  0  0
 47125  1  0  0  0
 47126  1  0  0  0
 48 56  1  0  0  0
 48 65  1  0  0  0
 48127  1  0  0  0
 49 50  1  0  0  0
 49 53  1  0  0  0
 49 64  1  0  0  0
 49128  1  0  0  0
 50 51  1  0  0  0
 50129  1  0  0  0
 50130  1  0  0  0
 51 52  1  0  0  0
 51131  1  0  0  0
 51132  1  0  0  0
 52133  1  0  0  0
 52134  1  0  0  0
 53 54  1  0  0  0
 54 55  2  0  0  0
 54135  1  0  0  0
 55 57  1  0  0  0
 55136  1  0  0  0
 56 69  2  0  0  0
 57 58  2  0  0  0
 57137  1  0  0  0
 58138  1  0  0  0
 59 60  1  0  0  0
 59 61  1  0  0  0
 59 62  1  0  0  0
 60139  1  0  0  0
 60140  1  0  0  0
 60141  1  0  0  0
 61142  1  0  0  0
 61143  1  0  0  0
 61144  1  0  0  0
 62145  1  0  0  0
 62146  1  0  0  0
 62147  1  0  0  0
 63 65  1  0  0  0
 63148  1  0  0  0
 63149  1  0  0  0
 63150  1  0  0  0
 64151  1  0  0  0
 65152  1  0  0  0
 68 86  1  0  0  0
 71 88  2  0  0  0
 71 90  1  0  0  0
 71153  1  0  0  0
 72 80  1  0  0  0
 72 88  1  0  0  0
 72 89  2  0  0  0
 73154  1  0  0  0
 73155  1  0  0  0
 73156  1  0  0  0
 73 83  1  0  0  0
 74 83  1  0  0  0
 74157  1  0  0  0
 74158  1  0  0  0
 74159  1  0  0  0
 75160  1  0  0  0
 75161  1  0  0  0
 75162  1  0  0  0
 75 84  1  0  0  0
 76 84  1  0  0  0
 76163  1  0  0  0
 76164  1  0  0  0
 76165  1  0  0  0
 77166  1  0  0  0
 77167  1  0  0  0
 77168  1  0  0  0
 77 85  1  0  0  0
 78169  1  0  0  0
 78170  1  0  0  0
 78171  1  0  0  0
 78 86  1  0  0  0
 79 86  1  0  0  0
 79172  1  0  0  0
 79173  1  0  0  0
 79174  1  0  0  0
 80 85  1  0  0  0
 80175  1  0  0  0
 80176  1  0  0  0
 81 82  1  0  0  0
 81 84  1  0  0  0
 81177  1  0  0  0
 81178  1  0  0  0
 82 90  1  0  0  0
 82179  1  0  0  0
 82180  1  0  0  0
 83 85  1  0  0  0
 84 86  1  0  0  0
 85 87  1  0  0  0
 87 91  1  0  0  0
 87 92  1  0  0  0
 87 93  1  0  0  0
 89 90  1  0  0  0
M  ISO  4   1 100  68 101  83 100  86 101
M  END
> <chiral flag>
0

> <version>
0

> <s_m_source_file>
/data/baiqing/PycharmProjects/Reinvent-master-3.2/result/LINK_invent/BTK/process_docking_weight1_custom_sum_contain_oxygen_bond_distance_aromatic_linkinvent_7_9_3/rearranged_h_0066.sdf

> <i_m_source_file_index>
73

> <r_mmod_Potential_Energy-OPLS-2005>
127.600341796875

> <r_mmod_Stretch_Energy-OPLS-2005>
86.850715637207

> <r_mmod_Bend_Energy-OPLS-2005>
200.989532470703

> <r_mmod_Torsional_Energy-OPLS-2005>
237.936416625977

> <r_mmod_Improper_Torsional_Energy-OPLS-2005>
4.41276979446411

> <r_mmod_Van_der_Waal_Energy-OPLS-2005>
192.79508972168

> <r_mmod_Electrostatic_Energy-OPLS-2005>
-430.591552734375

> <r_mmod_Solvation_Energy-OPLS-2005>
-183.50407409668

> <b_mmod_Minimization_Converged-OPLS-2005>
0

> <r_mmod_RMS_Derivative-OPLS-2005>
4.94523525238037

$$$$
78
                    3D
 Structure written by MMmdl.
168176  0  0  1  0            999 V2000
  -30.7801  -14.5198   20.5480 C   0  0  0  0  0  0
  -30.3988  -12.3212   19.4805 C   0  0  0  0  0  0
  -29.5078  -12.4836   18.2334 C   0  0  0  0  0  0
  -28.0270  -12.3255   18.6220 C   0  0  0  0  0  0
  -27.6420  -13.1920   19.8463 C   0  0  2  0  0  0
  -28.6853  -13.1127   20.9899 C   0  0  0  0  0  0
  -25.2547  -13.8056   20.5613 C   0  0  0  0  0  0
  -24.1831  -13.0359   20.9261 C   0  0  0  0  0  0
  -24.6379  -11.6837   20.8810 C   0  0  0  0  0  0
  -23.9041  -10.4240   21.0459 C   0  0  0  0  0  0
  -24.3595   -9.4144   21.9217 C   0  0  0  0  0  0
  -23.6274   -8.2177   22.0769 C   0  0  0  0  0  0
  -22.4267   -8.0232   21.3545 C   0  0  0  0  0  0
  -21.9902   -9.0222   20.4656 C   0  0  0  0  0  0
  -22.7229  -10.2101   20.3085 C   0  0  0  0  0  0
  -21.6837   -6.0704   22.5265 C   0  0  0  0  0  0
  -21.3997   -6.5609   23.8196 C   0  0  0  0  0  0
  -21.3665   -5.6768   24.9167 C   0  0  0  0  0  0
  -21.6045   -4.3031   24.7216 C   0  0  0  0  0  0
  -21.8820   -3.8124   23.4336 C   0  0  0  0  0  0
  -21.9190   -4.6938   22.3392 C   0  0  0  0  0  0
  -22.7871  -13.5219   21.1859 C   0  0  0  0  0  0
  -22.1661   -4.2125   21.0967 F   0  0  0  0  0  0
  -21.5653   -3.4510   25.7721 F   0  0  0  0  0  0
  -30.0209  -13.3822   20.4413 N   0  0  0  0  0  0
  -26.2918  -12.9186   20.3198 N   0  0  0  0  0  0
  -25.9280  -11.6391   20.5745 N   0  0  0  0  0  0
  -22.0458  -12.8260   22.0415 N   0  0  0  0  0  0
  -25.4218  -15.1742   20.3795 N   0  0  0  0  0  0
  -31.9436  -14.4738   20.1443 O   0  0  0  0  0  0
  -21.6632   -6.8834   21.4221 O   0  0  0  0  0  0
  -22.3636  -14.5529   20.6661 O   0  0  0  0  0  0
  -24.6143  -31.8674   23.2138 C   0  0  0  0  0  0
  -25.9048  -32.4814   23.8429 C   0  0  1  0  0  0
  -27.2354  -27.4373   20.1182 C   0  0  0  0  0  0
  -25.5915  -33.8612   24.2365 N   0  0  0  0  0  0
  -23.4022  -30.4900   21.5536 C   0  0  2  0  0  0
  -24.8515  -28.9565   20.1174 C   0  0  0  0  0  0
  -22.7412  -29.4638   22.5018 C   0  0  0  0  0  0
  -18.0268  -28.1350   22.8504 C   0  0  0  0  0  0
  -24.1474  -36.7302   23.2637 C   0  0  0  0  0  0
  -25.9255  -30.8416   21.3601 C   0  0  0  0  0  0
  -26.0074  -29.4699   20.7199 C   0  0  0  0  0  0
  -27.2029  -28.7159   20.7233 C   0  0  0  0  0  0
  -26.0717  -26.9455   19.4929 C   0  0  0  0  0  0
  -24.8776  -27.6948   19.4968 C   0  0  0  0  0  0
  -23.6095  -29.8206   20.1673 C   0  0  0  0  0  0
  -25.4091  -36.3112   24.0356 C   0  0  1  0  0  0
  -20.5856  -28.3619   23.1346 C   0  0  2  0  0  0
  -20.6732  -26.9351   22.5430 C   0  0  0  0  0  0
  -19.5714  -26.6349   21.5217 C   0  0  0  0  0  0
  -18.1900  -26.7906   22.1635 C   0  0  0  0  0  0
  -19.1514  -28.8806   23.2917 C   0  0  0  0  0  0
  -18.9436  -30.1423   23.8897 C   0  0  0  0  0  0
  -17.6432  -30.6556   24.0547 C   0  0  0  0  0  0
  -25.9025  -34.9481   23.5166 C   0  0  0  0  0  0
  -16.5325  -29.9050   23.6320 C   0  0  0  0  0  0
  -16.7256  -28.6469   23.0351 C   0  0  0  0  0  0
  -26.4498  -31.6552   25.0737 C   0  0  0  0  0  0
  -25.3778  -31.3590   26.1478 C   0  0  0  0  0  0
  -27.0313  -30.3023   24.6024 C   0  0  0  0  0  0
  -27.6077  -32.4238   25.7503 C   0  0  0  0  0  0
  -27.5579  -37.1803   24.8473 C   0  0  0  0  0  0
  -21.4135  -29.3009   22.3774 N   0  0  0  0  0  0
  -26.4273  -37.3801   23.9447 N   0  0  0  0  0  0
  -24.6660  -31.0795   22.1023 N   0  0  0  0  0  0
  -23.4180  -28.8164   23.3055 O   0  0  0  0  0  0
  -28.3694  -26.6573   20.0714 O   0  0  0  0  0  0
  -26.5552  -34.8937   22.4702 O   0  0  0  0  0  0
  -23.5351  -32.1391   23.7577 O   0  0  0  0  0  0
  -28.3613  -18.3092   22.6281 C   0  0  0  0  0  0
  -30.5490  -19.8045   23.1372 C   0  0  0  0  0  0
  -29.6324  -17.6981   22.8059 C   0  0  0  0  0  0
  -29.3117  -20.4165   22.8202 C   0  0  0  0  0  0
  -30.8354  -15.5419   23.4652 C   0  0  0  0  0  0
  -31.4181  -16.9646   20.5333 C   0  0  0  0  0  0
  -28.3895  -25.0020   21.9434 C   0  0  0  0  0  0
  -28.7684  -23.6986   21.1954 C   0  0  0  0  0  0
  -29.0355  -16.3184   19.9956 C   0  0  0  0  0  0
  -28.9706  -26.3022   21.3237 C   0  0  0  0  0  0
  -28.2540  -22.3723   21.8261 C   0  0  0  0  0  0
  -29.8719  -16.2068   22.4516 C   0  0  2  0  0  0
  -30.2538  -15.9794   20.9229 C   0  0  1  0  0  0
  -30.7177  -18.4578   23.1066 N   0  0  0  0  0  0
  -28.2047  -19.6594   22.5849 N   0  0  0  0  0  0
  -28.8600  -17.7406   19.6146 N   0  3  0  0  0  0
  -29.2368  -21.7977   22.7018 O   0  0  0  0  0  0
  -31.4498  -12.3435   19.1896 H   0  0  0  0  0  0
  -30.2530  -11.3385   19.9299 H   0  0  0  0  0  0
  -29.7811  -11.7468   17.4772 H   0  0  0  0  0  0
  -29.6772  -13.4621   17.7810 H   0  0  0  0  0  0
  -27.8486  -11.2717   18.8406 H   0  0  0  0  0  0
  -27.3898  -12.5749   17.7727 H   0  0  0  0  0  0
  -27.6215  -14.1981   19.4533 H   0  0  0  0  0  0
  -28.6737  -12.1221   21.4491 H   0  0  0  0  0  0
  -28.4263  -13.8040   21.7868 H   0  0  0  0  0  0
  -25.2732   -9.5612   22.4800 H   0  0  0  0  0  0
  -23.9966   -7.4557   22.7491 H   0  0  0  0  0  0
  -21.0825   -8.8749   19.8965 H   0  0  0  0  0  0
  -22.3689  -10.9652   19.6201 H   0  0  0  0  0  0
  -21.1969   -7.6115   23.9686 H   0  0  0  0  0  0
  -21.1508   -6.0507   25.9073 H   0  0  0  0  0  0
  -22.0607   -2.7586   23.2834 H   0  0  0  0  0  0
  -22.4029  -11.9909   22.4795 H   0  0  0  0  0  0
  -21.1087  -13.1373   22.2578 H   0  0  0  0  0  0
  -24.5541  -15.7012   20.3923 H   0  0  0  0  0  0
  -25.9849  -15.4367   19.5828 H   0  0  0  0  0  0
  -26.7104  -32.5583   23.1193 H   0  0  0  0  0  0
  -25.0159  -33.9752   25.0577 H   0  0  0  0  0  0
  -22.6905  -31.3060   21.4157 H   0  0  0  0  0  0
  -23.3767  -35.9608   23.3257 H   0  0  0  0  0  0
  -24.3582  -36.8956   22.2056 H   0  0  0  0  0  0
  -23.7197  -37.6496   23.6653 H   0  0  0  0  0  0
  -26.0264  -31.6048   20.5871 H   0  0  0  0  0  0
  -26.8142  -30.9047   21.9730 H   0  0  0  0  0  0
  -28.0977  -29.1175   21.1757 H   0  0  0  0  0  0
  -26.0914  -25.9775   19.0145 H   0  0  0  0  0  0
  -23.9901  -27.3010   19.0207 H   0  0  0  0  0  0
  -23.7140  -30.5938   19.4055 H   0  0  0  0  0  0
  -22.7363  -29.2344   19.8766 H   0  0  0  0  0  0
  -25.1272  -36.1976   25.0850 H   0  0  0  0  0  0
  -20.9951  -28.3144   24.1463 H   0  0  0  0  0  0
  -20.5614  -26.2207   23.3611 H   0  0  0  0  0  0
  -21.6597  -26.7390   22.1203 H   0  0  0  0  0  0
  -19.6881  -25.6267   21.1219 H   0  0  0  0  0  0
  -19.6675  -27.3167   20.6763 H   0  0  0  0  0  0
  -17.4180  -26.6692   21.4018 H   0  0  0  0  0  0
  -18.0269  -26.0034   22.9019 H   0  0  0  0  0  0
  -19.7916  -30.7232   24.2249 H   0  0  0  0  0  0
  -17.5003  -31.6251   24.5115 H   0  0  0  0  0  0
  -15.5325  -30.2949   23.7641 H   0  0  0  0  0  0
  -15.8667  -28.0786   22.7062 H   0  0  0  0  0  0
  -24.6027  -30.6858   25.7806 H   0  0  0  0  0  0
  -24.8872  -32.2694   26.4915 H   0  0  0  0  0  0
  -25.8147  -30.8799   27.0248 H   0  0  0  0  0  0
  -26.2814  -29.6796   24.1127 H   0  0  0  0  0  0
  -27.4195  -29.7245   25.4426 H   0  0  0  0  0  0
  -27.8599  -30.4378   23.9067 H   0  0  0  0  0  0
  -27.2699  -33.3549   26.2046 H   0  0  0  0  0  0
  -28.3879  -32.6726   25.0304 H   0  0  0  0  0  0
  -28.0717  -31.8379   26.5449 H   0  0  0  0  0  0
  -28.2535  -38.0150   24.7573 H   0  0  0  0  0  0
  -28.1112  -36.2688   24.6192 H   0  0  0  0  0  0
  -27.2313  -37.1321   25.8873 H   0  0  0  0  0  0
  -20.9288  -29.8744   21.7004 H   0  0  0  0  0  0
  -26.0175  -38.2886   24.1505 H   0  0  0  0  0  0
  -27.4883  -17.7169   22.3896 H   0  0  0  0  0  0
  -31.4293  -20.4017   23.3275 H   0  0  0  0  0  0
  -30.4996  -15.7075   24.4892 H   0  0  0  0  0  0
  -31.8455  -15.9438   23.3836 H   0  0  0  0  0  0
  -30.9033  -14.4618   23.3313 H   0  0  0  0  0  0
  -31.1833  -18.0186   20.6501 H   0  0  0  0  0  0
  -31.7139  -16.8534   19.4879 H   0  0  0  0  0  0
  -32.3101  -16.7897   21.1386 H   0  0  0  0  0  0
  -28.7538  -24.9269   22.9698 H   0  0  0  0  0  0
  -27.3045  -25.0873   22.0212 H   0  0  0  0  0  0
  -29.8515  -23.6417   21.0817 H   0  0  0  0  0  0
  -28.3709  -23.7681   20.1814 H   0  0  0  0  0  0
  -28.1134  -16.0055   20.4827 H   0  0  0  0  0  0
  -29.1115  -15.7743   19.0523 H   0  0  0  0  0  0
  -30.0384  -26.1699   21.1453 H   0  0  0  0  0  0
  -28.8989  -27.1194   22.0439 H   0  0  0  0  0  0
  -28.0478  -21.6858   21.0045 H   0  0  0  0  0  0
  -27.3095  -22.5223   22.3539 H   0  0  0  0  0  0
  -28.9091  -15.7292   22.6325 H   0  0  0  0  0  0
  -28.7025  -18.3273   20.4158 H   0  0  0  0  0  0
  -28.0632  -17.8378   19.0078 H   0  0  0  0  0  0
  -29.6655  -18.0803   19.1169 H   0  0  0  0  0  0
  1 25  1  0  0  0
  1 30  2  0  0  0
  1 83  1  0  0  0
  2  3  1  0  0  0
  2 25  1  0  0  0
  2 88  1  0  0  0
  2 89  1  0  0  0
  3  4  1  0  0  0
  3 90  1  0  0  0
  3 91  1  0  0  0
  4  5  1  0  0  0
  4 92  1  0  0  0
  4 93  1  0  0  0
  5  6  1  0  0  0
  5 26  1  0  0  0
  5 94  1  0  0  0
  6 25  1  0  0  0
  6 95  1  0  0  0
  6 96  1  0  0  0
  7  8  2  0  0  0
  7 26  1  0  0  0
  7 29  1  0  0  0
  8  9  1  0  0  0
  8 22  1  0  0  0
  9 10  1  0  0  0
  9 27  2  0  0  0
 10 11  2  0  0  0
 10 15  1  0  0  0
 11 12  1  0  0  0
 11 97  1  0  0  0
 12 13  2  0  0  0
 12 98  1  0  0  0
 13 14  1  0  0  0
 13 31  1  0  0  0
 14 15  2  0  0  0
 14 99  1  0  0  0
 15100  1  0  0  0
 16 17  2  0  0  0
 16 21  1  0  0  0
 16 31  1  0  0  0
 17 18  1  0  0  0
 17101  1  0  0  0
 18 19  2  0  0  0
 18102  1  0  0  0
 19 20  1  0  0  0
 19 24  1  0  0  0
 20 21  2  0  0  0
 20103  1  0  0  0
 21 23  1  0  0  0
 22 28  1  0  0  0
 22 32  2  0  0  0
 26 27  1  0  0  0
 28104  1  0  0  0
 28105  1  0  0  0
 29106  1  0  0  0
 29107  1  0  0  0
 33 34  1  0  0  0
 33 66  1  0  0  0
 33 70  2  0  0  0
 34 36  1  0  0  0
 34 59  1  0  0  0
 34108  1  0  0  0
 35 44  2  0  0  0
 35 45  1  0  0  0
 35 68  1  0  0  0
 36 56  1  0  0  0
 36109  1  0  0  0
 37 39  1  0  0  0
 37 47  1  0  0  0
 37 66  1  0  0  0
 37110  1  0  0  0
 38 43  2  0  0  0
 38 46  1  0  0  0
 38 47  1  0  0  0
 39 64  1  0  0  0
 39 67  2  0  0  0
 40 52  1  0  0  0
 40 53  2  0  0  0
 40 58  1  0  0  0
 41111  1  0  0  0
 41112  1  0  0  0
 41113  1  0  0  0
 41 48  1  0  0  0
 42 43  1  0  0  0
 42 66  1  0  0  0
 42114  1  0  0  0
 42115  1  0  0  0
 43 44  1  0  0  0
 44116  1  0  0  0
 45 46  2  0  0  0
 45117  1  0  0  0
 46118  1  0  0  0
 47119  1  0  0  0
 47120  1  0  0  0
 48 56  1  0  0  0
 48 65  1  0  0  0
 48121  1  0  0  0
 49 50  1  0  0  0
 49 53  1  0  0  0
 49 64  1  0  0  0
 49122  1  0  0  0
 50 51  1  0  0  0
 50123  1  0  0  0
 50124  1  0  0  0
 51 52  1  0  0  0
 51125  1  0  0  0
 51126  1  0  0  0
 52127  1  0  0  0
 52128  1  0  0  0
 53 54  1  0  0  0
 54 55  2  0  0  0
 54129  1  0  0  0
 55 57  1  0  0  0
 55130  1  0  0  0
 56 69  2  0  0  0
 57 58  2  0  0  0
 57131  1  0  0  0
 58132  1  0  0  0
 59 60  1  0  0  0
 59 61  1  0  0  0
 59 62  1  0  0  0
 60133  1  0  0  0
 60134  1  0  0  0
 60135  1  0  0  0
 61136  1  0  0  0
 61137  1  0  0  0
 61138  1  0  0  0
 62139  1  0  0  0
 62140  1  0  0  0
 62141  1  0  0  0
 63 65  1  0  0  0
 63142  1  0  0  0
 63143  1  0  0  0
 63144  1  0  0  0
 64145  1  0  0  0
 65146  1  0  0  0
 68 80  1  0  0  0
 71 73  2  0  0  0
 71 85  1  0  0  0
 71147  1  0  0  0
 72 74  1  0  0  0
 72 84  2  0  0  0
 72148  1  0  0  0
 73 82  1  0  0  0
 73 84  1  0  0  0
 74 85  2  0  0  0
 74 87  1  0  0  0
 75149  1  0  0  0
 75150  1  0  0  0
 75151  1  0  0  0
 75 82  1  0  0  0
 76152  1  0  0  0
 76153  1  0  0  0
 76154  1  0  0  0
 76 83  1  0  0  0
 77 78  1  0  0  0
 77 80  1  0  0  0
 77155  1  0  0  0
 77156  1  0  0  0
 78 81  1  0  0  0
 78157  1  0  0  0
 78158  1  0  0  0
 79 83  1  0  0  0
 79 86  1  0  0  0
 79159  1  0  0  0
 79160  1  0  0  0
 80161  1  0  0  0
 80162  1  0  0  0
 81 87  1  0  0  0
 81163  1  0  0  0
 81164  1  0  0  0
 82 83  1  0  0  0
 82165  1  0  0  0
 86166  1  0  0  0
 86167  1  0  0  0
 86168  1  0  0  0
M  CHG  1  86   1
M  ISO  4   1 100  68 101  80 101  83 100
M  END
> <chiral flag>
0

> <version>
0

> <s_m_source_file>
/data/baiqing/PycharmProjects/Reinvent-master-3.2/result/LINK_invent/BTK/process_docking_weight1_custom_sum_contain_oxygen_bond_distance_aromatic_linkinvent_7_9_3/rearranged_h_0066.sdf

> <i_m_source_file_index>
74

> <r_mmod_Potential_Energy-OPLS-2005>
-49.5060577392578

> <r_mmod_Stretch_Energy-OPLS-2005>
59.2552757263184

> <r_mmod_Bend_Energy-OPLS-2005>
130.149795532227

> <r_mmod_Torsional_Energy-OPLS-2005>
237.550643920898

> <r_mmod_Improper_Torsional_Energy-OPLS-2005>
10.7543497085571

> <r_mmod_Van_der_Waal_Energy-OPLS-2005>
176.327484130859

> <r_mmod_Electrostatic_Energy-OPLS-2005>
-217.559310913086

> <r_mmod_Solvation_Energy-OPLS-2005>
-473.205841064453

> <b_mmod_Minimization_Converged-OPLS-2005>
0

> <r_mmod_RMS_Derivative-OPLS-2005>
3.19673013687134

$$$$
79
                    3D
 Structure written by MMmdl.
169177  0  0  1  0            999 V2000
  -30.8626  -14.4039   20.6642 C   0  0  0  0  0  0
  -30.3783  -12.3037   19.4316 C   0  0  0  0  0  0
  -29.4896  -12.5189   18.1976 C   0  0  0  0  0  0
  -28.0159  -12.3932   18.5984 C   0  0  0  0  0  0
  -27.6496  -13.2446   19.8436 C   0  0  2  0  0  0
  -28.6814  -13.1149   20.9902 C   0  0  0  0  0  0
  -25.2577  -13.8274   20.5776 C   0  0  0  0  0  0
  -24.1874  -13.0509   20.9150 C   0  0  0  0  0  0
  -24.6458  -11.6960   20.8673 C   0  0  0  0  0  0
  -23.9124  -10.4343   21.0339 C   0  0  0  0  0  0
  -24.3660   -9.4251   21.9114 C   0  0  0  0  0  0
  -23.6336   -8.2307   22.0733 C   0  0  0  0  0  0
  -22.4321   -8.0334   21.3521 C   0  0  0  0  0  0
  -21.9922   -9.0330   20.4657 C   0  0  0  0  0  0
  -22.7286  -10.2167   20.3019 C   0  0  0  0  0  0
  -21.6917   -6.0732   22.5227 C   0  0  0  0  0  0
  -21.4069   -6.5647   23.8153 C   0  0  0  0  0  0
  -21.3668   -5.6812   24.9141 C   0  0  0  0  0  0
  -21.6025   -4.3069   24.7206 C   0  0  0  0  0  0
  -21.8849   -3.8135   23.4353 C   0  0  0  0  0  0
  -21.9239   -4.6942   22.3395 C   0  0  0  0  0  0
  -22.7883  -13.5213   21.1919 C   0  0  0  0  0  0
  -22.1699   -4.2131   21.0967 F   0  0  0  0  0  0
  -21.5597   -3.4554   25.7712 F   0  0  0  0  0  0
  -30.0421  -13.3221   20.4593 N   0  0  0  0  0  0
  -26.3033  -12.9549   20.3203 N   0  0  0  0  0  0
  -25.9332  -11.6629   20.5459 N   0  0  0  0  0  0
  -22.0617  -12.8181   22.0481 N   0  0  0  0  0  0
  -25.4392  -15.2072   20.4587 N   0  0  0  0  0  0
  -31.7642  -14.6302   19.8562 O   0  0  0  0  0  0
  -21.6748   -6.8887   21.4193 O   0  0  0  0  0  0
  -22.3556  -14.5582   20.6864 O   0  0  0  0  0  0
  -24.6054  -31.8687   23.2219 C   0  0  0  0  0  0
  -25.8989  -32.4869   23.8480 C   0  0  1  0  0  0
  -27.1897  -27.4396   20.0654 C   0  0  0  0  0  0
  -25.5905  -33.8679   24.2463 N   0  0  0  0  0  0
  -23.3902  -30.4979   21.5609 C   0  0  2  0  0  0
  -24.8226  -28.9806   20.0985 C   0  0  0  0  0  0
  -22.7365  -29.4627   22.5091 C   0  0  0  0  0  0
  -18.0237  -28.1343   22.8487 C   0  0  0  0  0  0
  -24.1505  -36.7305   23.2626 C   0  0  0  0  0  0
  -25.9140  -30.8345   21.3692 C   0  0  0  0  0  0
  -25.9810  -29.4709   20.7162 C   0  0  0  0  0  0
  -27.1652  -28.6951   20.6981 C   0  0  0  0  0  0
  -26.0336  -27.0048   19.3796 C   0  0  0  0  0  0
  -24.8462  -27.7544   19.4216 C   0  0  0  0  0  0
  -23.5851  -29.8393   20.1712 C   0  0  0  0  0  0
  -25.4105  -36.3136   24.0362 C   0  0  1  0  0  0
  -20.5822  -28.3539   23.1349 C   0  0  2  0  0  0
  -20.6685  -26.9346   22.5349 C   0  0  0  0  0  0
  -19.5677  -26.6428   21.5116 C   0  0  0  0  0  0
  -18.1859  -26.7910   22.1540 C   0  0  0  0  0  0
  -19.1519  -28.8776   23.2919 C   0  0  0  0  0  0
  -18.9467  -30.1366   23.8933 C   0  0  0  0  0  0
  -17.6456  -30.6550   24.0577 C   0  0  0  0  0  0
  -25.9026  -34.9493   23.5199 C   0  0  0  0  0  0
  -16.5355  -29.9079   23.6310 C   0  0  0  0  0  0
  -16.7243  -28.6468   23.0321 C   0  0  0  0  0  0
  -26.4482  -31.6558   25.0681 C   0  0  0  0  0  0
  -25.3802  -31.3532   26.1424 C   0  0  0  0  0  0
  -27.0174  -30.3021   24.5889 C   0  0  0  0  0  0
  -27.6120  -32.4142   25.7457 C   0  0  0  0  0  0
  -27.5602  -37.1823   24.8510 C   0  0  0  0  0  0
  -21.4122  -29.2935   22.3831 N   0  0  0  0  0  0
  -26.4310  -37.3819   23.9477 N   0  0  0  0  0  0
  -24.6542  -31.0838   22.1097 N   0  0  0  0  0  0
  -23.4148  -28.8182   23.3115 O   0  0  0  0  0  0
  -28.3484  -26.6863   20.1354 O   0  0  0  0  0  0
  -26.5594  -34.8932   22.4748 O   0  0  0  0  0  0
  -23.5248  -32.1447   23.7629 O   0  0  0  0  0  0
  -29.2029  -18.4557   22.3184 C   0  0  0  0  0  0
  -29.6738  -17.2685   20.5365 C   0  0  0  0  0  0
  -29.0402  -18.4338   20.9042 C   0  0  0  0  0  0
  -32.3167  -15.8440   22.1794 C   0  0  0  0  0  0
  -30.4550  -14.6806   23.2507 C   0  0  0  0  0  0
  -25.8651  -21.9901   21.4675 C   0  0  0  0  0  0
  -25.8707  -20.9788   19.2408 C   0  0  0  0  0  0
  -28.2986  -19.4403   20.0225 C   0  0  0  0  0  0
  -28.0088  -20.8156   20.7115 C   0  0  0  0  0  0
  -27.4720  -24.2952   20.3963 C   0  0  0  0  0  0
  -27.2684  -23.0116   19.5554 C   0  0  0  0  0  0
  -28.3641  -25.3332   19.6399 C   0  0  0  0  0  0
  -30.8529  -15.3685   21.9144 C   0  0  0  0  0  0
  -26.7797  -21.7006   20.2538 C   0  0  0  0  0  0
  -29.8078  -17.3791   22.7739 N   0  0  0  0  0  0
  -30.0715  -16.6036   21.6964 N   0  0  0  0  0  0
  -31.4346  -12.2994   19.1546 H   0  0  0  0  0  0
  -30.1907  -11.3150   19.8484 H   0  0  0  0  0  0
  -29.7280  -11.7806   17.4316 H   0  0  0  0  0  0
  -29.6741  -13.4938   17.7321 H   0  0  0  0  0  0
  -27.8181  -11.3375   18.7948 H   0  0  0  0  0  0
  -27.3744  -12.6764   17.7646 H   0  0  0  0  0  0
  -27.6616  -14.2862   19.5097 H   0  0  0  0  0  0
  -28.6081  -12.1383   21.4682 H   0  0  0  0  0  0
  -28.4100  -13.8703   21.7325 H   0  0  0  0  0  0
  -25.2831   -9.5740   22.4648 H   0  0  0  0  0  0
  -24.0098   -7.4705   22.7436 H   0  0  0  0  0  0
  -21.0841   -8.8877   19.8973 H   0  0  0  0  0  0
  -22.3783  -10.9715   19.6119 H   0  0  0  0  0  0
  -21.2135   -7.6172   23.9657 H   0  0  0  0  0  0
  -21.1413   -6.0544   25.9014 H   0  0  0  0  0  0
  -22.0634   -2.7605   23.2869 H   0  0  0  0  0  0
  -22.4411  -11.9845   22.4753 H   0  0  0  0  0  0
  -21.1150  -13.0999   22.2713 H   0  0  0  0  0  0
  -24.6804  -15.8680   20.5895 H   0  0  0  0  0  0
  -26.3390  -15.6544   20.3327 H   0  0  0  0  0  0
  -26.6995  -32.5719   23.1193 H   0  0  0  0  0  0
  -24.9978  -33.9874   25.0565 H   0  0  0  0  0  0
  -22.6682  -31.3134   21.4445 H   0  0  0  0  0  0
  -23.3805  -35.9618   23.3320 H   0  0  0  0  0  0
  -24.3585  -36.8863   22.2030 H   0  0  0  0  0  0
  -23.7204  -37.6526   23.6578 H   0  0  0  0  0  0
  -26.8035  -30.8948   21.9831 H   0  0  0  0  0  0
  -26.0056  -31.6175   20.6151 H   0  0  0  0  0  0
  -28.0640  -29.0717   21.1599 H   0  0  0  0  0  0
  -26.0331  -26.0979   18.7937 H   0  0  0  0  0  0
  -23.9602  -27.4308   18.8895 H   0  0  0  0  0  0
  -23.6770  -30.6109   19.4042 H   0  0  0  0  0  0
  -22.6990  -29.2520   19.9008 H   0  0  0  0  0  0
  -25.1250  -36.2028   25.0849 H   0  0  0  0  0  0
  -20.9865  -28.3135   24.1491 H   0  0  0  0  0  0
  -20.5372  -26.2283   23.3534 H   0  0  0  0  0  0
  -21.6576  -26.7292   22.1304 H   0  0  0  0  0  0
  -19.6829  -25.6357   21.1040 H   0  0  0  0  0  0
  -19.6640  -27.3315   20.6700 H   0  0  0  0  0  0
  -17.4145  -26.6699   21.3898 H   0  0  0  0  0  0
  -18.0369  -25.9958   22.8834 H   0  0  0  0  0  0
  -19.7935  -30.7181   24.2335 H   0  0  0  0  0  0
  -17.5010  -31.6167   24.5226 H   0  0  0  0  0  0
  -15.5325  -30.2940   23.7611 H   0  0  0  0  0  0
  -15.8656  -28.0740   22.7084 H   0  0  0  0  0  0
  -24.6053  -30.6738   25.7832 H   0  0  0  0  0  0
  -24.8802  -32.2554   26.4918 H   0  0  0  0  0  0
  -25.8250  -30.8688   27.0113 H   0  0  0  0  0  0
  -26.2633  -29.7114   24.0638 H   0  0  0  0  0  0
  -27.3791  -29.6949   25.4220 H   0  0  0  0  0  0
  -27.8564  -30.4433   23.9091 H   0  0  0  0  0  0
  -27.2901  -33.3534   26.1977 H   0  0  0  0  0  0
  -28.4047  -32.6483   25.0341 H   0  0  0  0  0  0
  -28.0607  -31.8120   26.5388 H   0  0  0  0  0  0
  -28.2651  -38.0089   24.7519 H   0  0  0  0  0  0
  -28.1066  -36.2612   24.6375 H   0  0  0  0  0  0
  -27.2324  -37.1504   25.8919 H   0  0  0  0  0  0
  -20.9389  -29.8799   21.7154 H   0  0  0  0  0  0
  -26.0227  -38.2951   24.1403 H   0  0  0  0  0  0
  -28.8869  -19.1902   23.0538 H   0  0  0  0  0  0
  -29.8466  -16.8689   19.5421 H   0  0  0  0  0  0
  -32.4226  -16.3382   23.1438 H   0  0  0  0  0  0
  -33.0196  -15.0072   22.1672 H   0  0  0  0  0  0
  -32.6765  -16.5454   21.4257 H   0  0  0  0  0  0
  -30.8086  -15.2905   24.0793 H   0  0  0  0  0  0
  -30.9310  -13.7050   23.3633 H   0  0  0  0  0  0
  -29.3812  -14.5762   23.4092 H   0  0  0  0  0  0
  -25.4729  -21.0573   21.8705 H   0  0  0  0  0  0
  -25.0046  -22.6048   21.1993 H   0  0  0  0  0  0
  -26.3804  -22.4762   22.2893 H   0  0  0  0  0  0
  -24.9282  -21.5233   19.1043 H   0  0  0  0  0  0
  -25.5678  -19.9879   19.5607 H   0  0  0  0  0  0
  -26.3387  -20.8753   18.2605 H   0  0  0  0  0  0
  -27.3738  -18.9598   19.7335 H   0  0  0  0  0  0
  -28.8264  -19.6042   19.0808 H   0  0  0  0  0  0
  -28.9187  -21.4046   20.6465 H   0  0  0  0  0  0
  -27.8943  -20.6397   21.7762 H   0  0  0  0  0  0
  -27.9118  -24.0591   21.3616 H   0  0  0  0  0  0
  -26.4853  -24.7081   20.6069 H   0  0  0  0  0  0
  -28.1873  -22.7816   19.0281 H   0  0  0  0  0  0
  -26.5790  -23.2779   18.7455 H   0  0  0  0  0  0
  -28.1282  -25.3503   18.5736 H   0  0  0  0  0  0
  -29.4057  -24.9983   19.7056 H   0  0  0  0  0  0
  1 25  1  0  0  0
  1 30  2  0  0  0
  1 83  1  0  0  0
  2  3  1  0  0  0
  2 25  1  0  0  0
  2 87  1  0  0  0
  2 88  1  0  0  0
  3  4  1  0  0  0
  3 89  1  0  0  0
  3 90  1  0  0  0
  4  5  1  0  0  0
  4 91  1  0  0  0
  4 92  1  0  0  0
  5  6  1  0  0  0
  5 26  1  0  0  0
  5 93  1  0  0  0
  6 25  1  0  0  0
  6 94  1  0  0  0
  6 95  1  0  0  0
  7  8  2  0  0  0
  7 26  1  0  0  0
  7 29  1  0  0  0
  8  9  1  0  0  0
  8 22  1  0  0  0
  9 10  1  0  0  0
  9 27  2  0  0  0
 10 11  2  0  0  0
 10 15  1  0  0  0
 11 12  1  0  0  0
 11 96  1  0  0  0
 12 13  2  0  0  0
 12 97  1  0  0  0
 13 14  1  0  0  0
 13 31  1  0  0  0
 14 15  2  0  0  0
 14 98  1  0  0  0
 15 99  1  0  0  0
 16 17  2  0  0  0
 16 21  1  0  0  0
 16 31  1  0  0  0
 17 18  1  0  0  0
 17100  1  0  0  0
 18 19  2  0  0  0
 18101  1  0  0  0
 19 20  1  0  0  0
 19 24  1  0  0  0
 20 21  2  0  0  0
 20102  1  0  0  0
 21 23  1  0  0  0
 22 28  1  0  0  0
 22 32  2  0  0  0
 26 27  1  0  0  0
 28103  1  0  0  0
 28104  1  0  0  0
 29105  1  0  0  0
 29106  1  0  0  0
 33 34  1  0  0  0
 33 66  1  0  0  0
 33 70  2  0  0  0
 34 36  1  0  0  0
 34 59  1  0  0  0
 34107  1  0  0  0
 35 44  2  0  0  0
 35 45  1  0  0  0
 35 68  1  0  0  0
 36 56  1  0  0  0
 36108  1  0  0  0
 37 39  1  0  0  0
 37 47  1  0  0  0
 37 66  1  0  0  0
 37109  1  0  0  0
 38 43  2  0  0  0
 38 46  1  0  0  0
 38 47  1  0  0  0
 39 64  1  0  0  0
 39 67  2  0  0  0
 40 52  1  0  0  0
 40 53  2  0  0  0
 40 58  1  0  0  0
 41110  1  0  0  0
 41111  1  0  0  0
 41112  1  0  0  0
 41 48  1  0  0  0
 42 43  1  0  0  0
 42 66  1  0  0  0
 42113  1  0  0  0
 42114  1  0  0  0
 43 44  1  0  0  0
 44115  1  0  0  0
 45 46  2  0  0  0
 45116  1  0  0  0
 46117  1  0  0  0
 47118  1  0  0  0
 47119  1  0  0  0
 48 56  1  0  0  0
 48 65  1  0  0  0
 48120  1  0  0  0
 49 50  1  0  0  0
 49 53  1  0  0  0
 49 64  1  0  0  0
 49121  1  0  0  0
 50 51  1  0  0  0
 50122  1  0  0  0
 50123  1  0  0  0
 51 52  1  0  0  0
 51124  1  0  0  0
 51125  1  0  0  0
 52126  1  0  0  0
 52127  1  0  0  0
 53 54  1  0  0  0
 54 55  2  0  0  0
 54128  1  0  0  0
 55 57  1  0  0  0
 55129  1  0  0  0
 56 69  2  0  0  0
 57 58  2  0  0  0
 57130  1  0  0  0
 58131  1  0  0  0
 59 60  1  0  0  0
 59 61  1  0  0  0
 59 62  1  0  0  0
 60132  1  0  0  0
 60133  1  0  0  0
 60134  1  0  0  0
 61135  1  0  0  0
 61136  1  0  0  0
 61137  1  0  0  0
 62138  1  0  0  0
 62139  1  0  0  0
 62140  1  0  0  0
 63 65  1  0  0  0
 63141  1  0  0  0
 63142  1  0  0  0
 63143  1  0  0  0
 64144  1  0  0  0
 65145  1  0  0  0
 68 82  1  0  0  0
 71 73  1  0  0  0
 71 85  2  0  0  0
 71146  1  0  0  0
 72 73  2  0  0  0
 72 86  1  0  0  0
 72147  1  0  0  0
 73 78  1  0  0  0
 74148  1  0  0  0
 74149  1  0  0  0
 74150  1  0  0  0
 74 83  1  0  0  0
 75 83  1  0  0  0
 75151  1  0  0  0
 75152  1  0  0  0
 75153  1  0  0  0
 76154  1  0  0  0
 76155  1  0  0  0
 76156  1  0  0  0
 76 84  1  0  0  0
 77 84  1  0  0  0
 77157  1  0  0  0
 77158  1  0  0  0
 77159  1  0  0  0
 78 79  1  0  0  0
 78160  1  0  0  0
 78161  1  0  0  0
 79 84  1  0  0  0
 79162  1  0  0  0
 79163  1  0  0  0
 80 81  1  0  0  0
 80 82  1  0  0  0
 80164  1  0  0  0
 80165  1  0  0  0
 81 84  1  0  0  0
 81166  1  0  0  0
 81167  1  0  0  0
 82168  1  0  0  0
 82169  1  0  0  0
 83 86  1  0  0  0
 85 86  1  0  0  0
M  ISO  4   1 100  68 101  82 101  83 100
M  END
> <chiral flag>
0

> <version>
0

> <s_m_source_file>
/data/baiqing/PycharmProjects/Reinvent-master-3.2/result/LINK_invent/BTK/process_docking_weight1_custom_sum_contain_oxygen_bond_distance_aromatic_linkinvent_7_9_3/rearranged_h_0066.sdf

> <i_m_source_file_index>
75

> <r_mmod_Potential_Energy-OPLS-2005>
157.724578857422

> <r_mmod_Stretch_Energy-OPLS-2005>
52.323127746582

> <r_mmod_Bend_Energy-OPLS-2005>
150.357498168945

> <r_mmod_Torsional_Energy-OPLS-2005>
249.791809082031

> <r_mmod_Improper_Torsional_Energy-OPLS-2005>
3.01381063461304

> <r_mmod_Van_der_Waal_Energy-OPLS-2005>
156.758407592773

> <r_mmod_Electrostatic_Energy-OPLS-2005>
-301.547271728516

> <r_mmod_Solvation_Energy-OPLS-2005>
-177.660018920898

> <b_mmod_Minimization_Converged-OPLS-2005>
0

> <r_mmod_RMS_Derivative-OPLS-2005>
15.4594345092773

$$$$
80
                    3D
 Structure written by MMmdl.
179187  0  0  1  0            999 V2000
  -30.7838  -14.5465   20.5426 C   0  0  0  0  0  0
  -30.3829  -12.3773   19.4120 C   0  0  0  0  0  0
  -29.4582  -12.5330   18.1920 C   0  0  0  0  0  0
  -27.9867  -12.3860   18.6145 C   0  0  0  0  0  0
  -27.6387  -13.2269   19.8703 C   0  0  2  0  0  0
  -28.6972  -13.0474   20.9754 C   0  0  0  0  0  0
  -25.2475  -13.8181   20.5784 C   0  0  0  0  0  0
  -24.1787  -13.0439   20.9234 C   0  0  0  0  0  0
  -24.6385  -11.6900   20.8792 C   0  0  0  0  0  0
  -23.9079  -10.4280   21.0457 C   0  0  0  0  0  0
  -24.3628   -9.4194   21.9227 C   0  0  0  0  0  0
  -23.6312   -8.2235   22.0769 C   0  0  0  0  0  0
  -22.4282   -8.0283   21.3557 C   0  0  0  0  0  0
  -21.9910   -9.0265   20.4651 C   0  0  0  0  0  0
  -22.7247  -10.2146   20.3103 C   0  0  0  0  0  0
  -21.6848   -6.0740   22.5291 C   0  0  0  0  0  0
  -21.4006   -6.5647   23.8230 C   0  0  0  0  0  0
  -21.3663   -5.6810   24.9206 C   0  0  0  0  0  0
  -21.6031   -4.3075   24.7253 C   0  0  0  0  0  0
  -21.8819   -3.8158   23.4387 C   0  0  0  0  0  0
  -21.9183   -4.6958   22.3426 C   0  0  0  0  0  0
  -22.7801  -13.5210   21.1918 C   0  0  0  0  0  0
  -22.1657   -4.2141   21.1001 F   0  0  0  0  0  0
  -21.5633   -3.4577   25.7778 F   0  0  0  0  0  0
  -29.9943  -13.4253   20.3895 N   0  0  0  0  0  0
  -26.2925  -12.9405   20.3438 N   0  0  0  0  0  0
  -25.9303  -11.6526   20.5809 N   0  0  0  0  0  0
  -22.0483  -12.8184   22.0464 N   0  0  0  0  0  0
  -25.4128  -15.1929   20.4225 N   0  0  0  0  0  0
  -31.9590  -14.4290   20.2113 O   0  0  0  0  0  0
  -21.6628   -6.8897   21.4260 O   0  0  0  0  0  0
  -22.3460  -14.5543   20.6792 O   0  0  0  0  0  0
  -24.6123  -31.8733   23.2102 C   0  0  0  0  0  0
  -25.9076  -32.4811   23.8387 C   0  0  1  0  0  0
  -27.2249  -27.4438   20.1015 C   0  0  0  0  0  0
  -25.5977  -33.8641   24.2336 N   0  0  0  0  0  0
  -23.3898  -30.5042   21.5464 C   0  0  2  0  0  0
  -24.8379  -28.9841   20.0946 C   0  0  0  0  0  0
  -22.7361  -29.4714   22.4917 C   0  0  0  0  0  0
  -18.0284  -28.1346   22.8506 C   0  0  0  0  0  0
  -24.1515  -36.7323   23.2607 C   0  0  0  0  0  0
  -25.9194  -30.8457   21.3604 C   0  0  0  0  0  0
  -25.9897  -29.4781   20.7171 C   0  0  0  0  0  0
  -27.1779  -28.7082   20.7339 C   0  0  0  0  0  0
  -26.0627  -26.9875   19.4364 C   0  0  0  0  0  0
  -24.8746  -27.7419   19.4401 C   0  0  0  0  0  0
  -23.5894  -29.8385   20.1574 C   0  0  0  0  0  0
  -25.4138  -36.3125   24.0310 C   0  0  1  0  0  0
  -20.5875  -28.3663   23.1311 C   0  0  2  0  0  0
  -20.6755  -26.9391   22.5447 C   0  0  0  0  0  0
  -19.5706  -26.6379   21.5251 C   0  0  0  0  0  0
  -18.1895  -26.7901   22.1647 C   0  0  0  0  0  0
  -19.1535  -28.8819   23.2908 C   0  0  0  0  0  0
  -18.9480  -30.1431   23.8879 C   0  0  0  0  0  0
  -17.6474  -30.6546   24.0577 C   0  0  0  0  0  0
  -25.9084  -34.9485   23.5114 C   0  0  0  0  0  0
  -16.5367  -29.9060   23.6285 C   0  0  0  0  0  0
  -16.7284  -28.6491   23.0304 C   0  0  0  0  0  0
  -26.4489  -31.6543   25.0694 C   0  0  0  0  0  0
  -25.3707  -31.3700   26.1386 C   0  0  0  0  0  0
  -27.0286  -30.2932   24.6131 C   0  0  0  0  0  0
  -27.6116  -32.4192   25.7447 C   0  0  0  0  0  0
  -27.5585  -37.1791   24.8443 C   0  0  0  0  0  0
  -21.4098  -29.3047   22.3671 N   0  0  0  0  0  0
  -26.4289  -37.3828   23.9405 N   0  0  0  0  0  0
  -24.6563  -31.0956   22.0929 N   0  0  0  0  0  0
  -23.4207  -28.8221   23.2884 O   0  0  0  0  0  0
  -28.4023  -26.7129   20.1657 O   0  0  0  0  0  0
  -26.5619  -34.8919   22.4664 O   0  0  0  0  0  0
  -23.5335  -32.1408   23.7589 O   0  0  0  0  0  0
  -30.0846  -20.4668   20.1635 C   0  0  0  0  0  0
  -30.4223  -18.3781   20.3852 C   0  0  0  0  0  0
  -31.8742  -20.4317   22.9679 C   0  0  0  0  0  0
  -31.9299  -22.0721   19.7982 C   0  0  0  0  0  0
  -29.8076  -23.1700   18.1520 C   0  0  0  0  0  0
  -32.0090  -17.0935   22.0289 C   0  0  0  0  0  0
  -32.2743  -17.0344   19.5719 C   0  0  0  0  0  0
  -28.7257  -24.1864   21.8148 C   0  0  0  0  0  0
  -30.7419  -25.1296   20.6169 C   0  0  0  0  0  0
  -29.0724  -16.0872   21.5774 C   0  0  0  0  0  0
  -30.5253  -19.8082   22.5568 C   0  0  0  0  0  0
  -28.4427  -25.3737   19.6393 C   0  0  0  0  0  0
  -30.4711  -21.9456   20.3022 C   0  0  1  0  0  0
  -29.5102  -23.0129   19.6627 C   0  0  1  0  0  0
  -31.1930  -17.0656   20.7139 C   0  0  0  0  0  0
  -29.3847  -24.4085   20.4274 C   0  0  0  0  0  0
  -29.7520  -19.9080   18.9938 N   0  0  0  0  0  0
  -29.9132  -18.5530   19.1560 N   0  0  0  0  0  0
  -30.3567  -19.5388   21.1236 N   0  0  0  0  0  0
  -30.2978  -15.8239   20.7954 N   0  0  0  0  0  0
  -31.4172  -12.4337   19.0761 H   0  0  0  0  0  0
  -30.2905  -11.3780   19.8429 H   0  0  0  0  0  0
  -29.7064  -11.7992   17.4260 H   0  0  0  0  0  0
  -29.6121  -13.5120   17.7348 H   0  0  0  0  0  0
  -27.8062  -11.3283   18.8118 H   0  0  0  0  0  0
  -27.3314  -12.6607   17.7873 H   0  0  0  0  0  0
  -27.6606  -14.2709   19.5624 H   0  0  0  0  0  0
  -28.7207  -11.9976   21.2748 H   0  0  0  0  0  0
  -28.4240  -13.5759   21.8808 H   0  0  0  0  0  0
  -25.2752   -9.5670   22.4804 H   0  0  0  0  0  0
  -23.9996   -7.4615   22.7476 H   0  0  0  0  0  0
  -21.0824   -8.8809   19.8932 H   0  0  0  0  0  0
  -22.3708  -10.9725   19.6228 H   0  0  0  0  0  0
  -21.2005   -7.6158   23.9735 H   0  0  0  0  0  0
  -21.1467   -6.0559   25.9104 H   0  0  0  0  0  0
  -22.0579   -2.7619   23.2915 H   0  0  0  0  0  0
  -22.4092  -11.9787   22.4760 H   0  0  0  0  0  0
  -21.1154  -13.1243   22.2812 H   0  0  0  0  0  0
  -24.6502  -15.8493   20.5532 H   0  0  0  0  0  0
  -26.2789  -15.6375   20.1519 H   0  0  0  0  0  0
  -26.7169  -32.5525   23.1178 H   0  0  0  0  0  0
  -25.0164  -33.9876   25.0487 H   0  0  0  0  0  0
  -22.6724  -31.3191   21.4190 H   0  0  0  0  0  0
  -23.3798  -35.9627   23.3230 H   0  0  0  0  0  0
  -24.3594  -36.8989   22.2025 H   0  0  0  0  0  0
  -23.7252  -37.6501   23.6650 H   0  0  0  0  0  0
  -26.0485  -31.6068   20.5882 H   0  0  0  0  0  0
  -26.8030  -30.8961   21.9842 H   0  0  0  0  0  0
  -28.0523  -29.0838   21.2474 H   0  0  0  0  0  0
  -26.0368  -26.0643   18.8795 H   0  0  0  0  0  0
  -24.0045  -27.3817   18.9081 H   0  0  0  0  0  0
  -23.6455  -30.6093   19.3887 H   0  0  0  0  0  0
  -22.7188  -29.2366   19.8832 H   0  0  0  0  0  0
  -25.1315  -36.1969   25.0795 H   0  0  0  0  0  0
  -21.0041  -28.3334   24.1409 H   0  0  0  0  0  0
  -20.5689  -26.2345   23.3704 H   0  0  0  0  0  0
  -21.6626  -26.7426   22.1225 H   0  0  0  0  0  0
  -19.6873  -25.6338   21.1182 H   0  0  0  0  0  0
  -19.6565  -27.3278   20.6854 H   0  0  0  0  0  0
  -17.4186  -26.6723   21.4006 H   0  0  0  0  0  0
  -18.0202  -26.0023   22.9007 H   0  0  0  0  0  0
  -19.7977  -30.7253   24.2214 H   0  0  0  0  0  0
  -17.5032  -31.6200   24.5236 H   0  0  0  0  0  0
  -15.5360  -30.2948   23.7606 H   0  0  0  0  0  0
  -15.8706  -28.0814   22.6960 H   0  0  0  0  0  0
  -24.6294  -30.6518   25.7840 H   0  0  0  0  0  0
  -24.8410  -32.2793   26.4220 H   0  0  0  0  0  0
  -25.8059  -30.9512   27.0475 H   0  0  0  0  0  0
  -26.2868  -29.6703   24.1111 H   0  0  0  0  0  0
  -27.3868  -29.7142   25.4661 H   0  0  0  0  0  0
  -27.8778  -30.4121   23.9402 H   0  0  0  0  0  0
  -27.2870  -33.3623   26.1839 H   0  0  0  0  0  0
  -28.4011  -32.6474   25.0277 H   0  0  0  0  0  0
  -28.0628  -31.8354   26.5469 H   0  0  0  0  0  0
  -28.2576  -38.0119   24.7588 H   0  0  0  0  0  0
  -28.1118  -36.2663   24.6173 H   0  0  0  0  0  0
  -27.2304  -37.1320   25.8840 H   0  0  0  0  0  0
  -20.9199  -29.8818   21.6969 H   0  0  0  0  0  0
  -26.0161  -38.2878   24.1480 H   0  0  0  0  0  0
  -32.0123  -20.3654   24.0487 H   0  0  0  0  0  0
  -31.9256  -21.4902   22.7279 H   0  0  0  0  0  0
  -32.7266  -19.9596   22.4870 H   0  0  0  0  0  0
  -32.6216  -21.5592   20.4617 H   0  0  0  0  0  0
  -32.2776  -23.0961   19.6942 H   0  0  0  0  0  0
  -32.0397  -21.6029   18.8188 H   0  0  0  0  0  0
  -29.9973  -22.2103   17.6697 H   0  0  0  0  0  0
  -30.6773  -23.8035   17.9712 H   0  0  0  0  0  0
  -28.9534  -23.5873   17.6256 H   0  0  0  0  0  0
  -32.7152  -17.9178   22.0415 H   0  0  0  0  0  0
  -32.6149  -16.1963   22.1486 H   0  0  0  0  0  0
  -31.3816  -17.1309   22.9158 H   0  0  0  0  0  0
  -32.6835  -18.0276   19.3829 H   0  0  0  0  0  0
  -31.8603  -16.6865   18.6223 H   0  0  0  0  0  0
  -33.1454  -16.4211   19.7986 H   0  0  0  0  0  0
  -28.2569  -25.0997   22.1848 H   0  0  0  0  0  0
  -29.4298  -23.8631   22.5823 H   0  0  0  0  0  0
  -27.9296  -23.4448   21.7662 H   0  0  0  0  0  0
  -30.6267  -26.0228   21.2347 H   0  0  0  0  0  0
  -31.1540  -25.4644   19.6617 H   0  0  0  0  0  0
  -31.4915  -24.5198   21.1212 H   0  0  0  0  0  0
  -29.0467  -17.0777   22.0346 H   0  0  0  0  0  0
  -29.0050  -15.4348   22.4426 H   0  0  0  0  0  0
  -28.1713  -16.0044   20.9688 H   0  0  0  0  0  0
  -29.7248  -20.4902   22.8530 H   0  0  0  0  0  0
  -30.3072  -18.9123   23.1304 H   0  0  0  0  0  0
  -27.4763  -24.8764   19.6359 H   0  0  0  0  0  0
  -28.7570  -25.5006   18.6051 H   0  0  0  0  0  0
  -30.4652  -22.1837   21.3584 H   0  0  0  0  0  0
  -28.5140  -22.5774   19.7244 H   0  0  0  0  0  0
  1 25  1  0  0  0
  1 30  2  0  0  0
  1 90  1  0  0  0
  2  3  1  0  0  0
  2 25  1  0  0  0
  2 91  1  0  0  0
  2 92  1  0  0  0
  3  4  1  0  0  0
  3 93  1  0  0  0
  3 94  1  0  0  0
  4  5  1  0  0  0
  4 95  1  0  0  0
  4 96  1  0  0  0
  5  6  1  0  0  0
  5 26  1  0  0  0
  5 97  1  0  0  0
  6 25  1  0  0  0
  6 98  1  0  0  0
  6 99  1  0  0  0
  7  8  2  0  0  0
  7 26  1  0  0  0
  7 29  1  0  0  0
  8  9  1  0  0  0
  8 22  1  0  0  0
  9 10  1  0  0  0
  9 27  2  0  0  0
 10 11  2  0  0  0
 10 15  1  0  0  0
 11 12  1  0  0  0
 11100  1  0  0  0
 12 13  2  0  0  0
 12101  1  0  0  0
 13 14  1  0  0  0
 13 31  1  0  0  0
 14 15  2  0  0  0
 14102  1  0  0  0
 15103  1  0  0  0
 16 17  2  0  0  0
 16 21  1  0  0  0
 16 31  1  0  0  0
 17 18  1  0  0  0
 17104  1  0  0  0
 18 19  2  0  0  0
 18105  1  0  0  0
 19 20  1  0  0  0
 19 24  1  0  0  0
 20 21  2  0  0  0
 20106  1  0  0  0
 21 23  1  0  0  0
 22 28  1  0  0  0
 22 32  2  0  0  0
 26 27  1  0  0  0
 28107  1  0  0  0
 28108  1  0  0  0
 29109  1  0  0  0
 29110  1  0  0  0
 33 34  1  0  0  0
 33 66  1  0  0  0
 33 70  2  0  0  0
 34 36  1  0  0  0
 34 59  1  0  0  0
 34111  1  0  0  0
 35 44  2  0  0  0
 35 45  1  0  0  0
 35 68  1  0  0  0
 36 56  1  0  0  0
 36112  1  0  0  0
 37 39  1  0  0  0
 37 47  1  0  0  0
 37 66  1  0  0  0
 37113  1  0  0  0
 38 43  2  0  0  0
 38 46  1  0  0  0
 38 47  1  0  0  0
 39 64  1  0  0  0
 39 67  2  0  0  0
 40 52  1  0  0  0
 40 53  2  0  0  0
 40 58  1  0  0  0
 41114  1  0  0  0
 41115  1  0  0  0
 41116  1  0  0  0
 41 48  1  0  0  0
 42 43  1  0  0  0
 42 66  1  0  0  0
 42117  1  0  0  0
 42118  1  0  0  0
 43 44  1  0  0  0
 44119  1  0  0  0
 45 46  2  0  0  0
 45120  1  0  0  0
 46121  1  0  0  0
 47122  1  0  0  0
 47123  1  0  0  0
 48 56  1  0  0  0
 48 65  1  0  0  0
 48124  1  0  0  0
 49 50  1  0  0  0
 49 53  1  0  0  0
 49 64  1  0  0  0
 49125  1  0  0  0
 50 51  1  0  0  0
 50126  1  0  0  0
 50127  1  0  0  0
 51 52  1  0  0  0
 51128  1  0  0  0
 51129  1  0  0  0
 52130  1  0  0  0
 52131  1  0  0  0
 53 54  1  0  0  0
 54 55  2  0  0  0
 54132  1  0  0  0
 55 57  1  0  0  0
 55133  1  0  0  0
 56 69  2  0  0  0
 57 58  2  0  0  0
 57134  1  0  0  0
 58135  1  0  0  0
 59 60  1  0  0  0
 59 61  1  0  0  0
 59 62  1  0  0  0
 60136  1  0  0  0
 60137  1  0  0  0
 60138  1  0  0  0
 61139  1  0  0  0
 61140  1  0  0  0
 61141  1  0  0  0
 62142  1  0  0  0
 62143  1  0  0  0
 62144  1  0  0  0
 63 65  1  0  0  0
 63145  1  0  0  0
 63146  1  0  0  0
 63147  1  0  0  0
 64148  1  0  0  0
 65149  1  0  0  0
 68 82  1  0  0  0
 71 83  1  0  0  0
 71 87  2  0  0  0
 71 89  1  0  0  0
 72 85  1  0  0  0
 72 88  2  0  0  0
 72 89  1  0  0  0
 73 81  1  0  0  0
 73150  1  0  0  0
 73151  1  0  0  0
 73152  1  0  0  0
 74153  1  0  0  0
 74154  1  0  0  0
 74155  1  0  0  0
 74 83  1  0  0  0
 75156  1  0  0  0
 75157  1  0  0  0
 75158  1  0  0  0
 75 84  1  0  0  0
 76159  1  0  0  0
 76160  1  0  0  0
 76161  1  0  0  0
 76 85  1  0  0  0
 77 85  1  0  0  0
 77162  1  0  0  0
 77163  1  0  0  0
 77164  1  0  0  0
 78165  1  0  0  0
 78166  1  0  0  0
 78167  1  0  0  0
 78 86  1  0  0  0
 79 86  1  0  0  0
 79168  1  0  0  0
 79169  1  0  0  0
 79170  1  0  0  0
 80 90  1  0  0  0
 80171  1  0  0  0
 80172  1  0  0  0
 80173  1  0  0  0
 81 89  1  0  0  0
 81174  1  0  0  0
 81175  1  0  0  0
 82 86  1  0  0  0
 82176  1  0  0  0
 82177  1  0  0  0
 83 84  1  0  0  0
 83178  1  0  0  0
 84 86  1  0  0  0
 84179  1  0  0  0
 85 90  1  0  0  0
 87 88  1  0  0  0
M  ISO  4   1 100  68 101  82 101  90 100
M  END
> <chiral flag>
0

> <version>
0

> <s_m_source_file>
/data/baiqing/PycharmProjects/Reinvent-master-3.2/result/LINK_invent/BTK/process_docking_weight1_custom_sum_contain_oxygen_bond_distance_aromatic_linkinvent_7_9_3/rearranged_h_0066.sdf

> <i_m_source_file_index>
76

> <r_mmod_Potential_Energy-OPLS-2005>
339.798126220703

> <r_mmod_Stretch_Energy-OPLS-2005>
78.566162109375

> <r_mmod_Bend_Energy-OPLS-2005>
208.134567260742

> <r_mmod_Torsional_Energy-OPLS-2005>
331.449462890625

> <r_mmod_Improper_Torsional_Energy-OPLS-2005>
10.0889024734497

> <r_mmod_Van_der_Waal_Energy-OPLS-2005>
186.106826782227

> <r_mmod_Electrostatic_Energy-OPLS-2005>
-309.756988525391

> <r_mmod_Solvation_Energy-OPLS-2005>
-200.709808349609

> <b_mmod_Minimization_Converged-OPLS-2005>
0

> <r_mmod_RMS_Derivative-OPLS-2005>
6.68754196166992

$$$$
81
                    3D
 Structure written by MMmdl.
189197  0  0  1  0            999 V2000
  -30.7112  -14.4175   20.6213 C   0  0  0  0  0  0
  -30.4254  -12.2861   19.4025 C   0  0  0  0  0  0
  -29.4872  -12.4734   18.1925 C   0  0  0  0  0  0
  -28.0095  -12.3299   18.6100 C   0  0  0  0  0  0
  -27.6601  -13.1796   19.8576 C   0  0  2  0  0  0
  -28.6952  -12.9404   20.9780 C   0  0  0  0  0  0
  -25.2696  -13.8051   20.5588 C   0  0  0  0  0  0
  -24.1930  -13.0480   20.9272 C   0  0  0  0  0  0
  -24.6383  -11.6904   20.8788 C   0  0  0  0  0  0
  -23.9005  -10.4335   21.0467 C   0  0  0  0  0  0
  -24.3581   -9.4235   21.9214 C   0  0  0  0  0  0
  -23.6270   -8.2272   22.0758 C   0  0  0  0  0  0
  -22.4243   -8.0330   21.3565 C   0  0  0  0  0  0
  -21.9877   -9.0306   20.4683 C   0  0  0  0  0  0
  -22.7189  -10.2183   20.3086 C   0  0  0  0  0  0
  -21.6871   -6.0761   22.5301 C   0  0  0  0  0  0
  -21.4031   -6.5671   23.8254 C   0  0  0  0  0  0
  -21.3626   -5.6808   24.9195 C   0  0  0  0  0  0
  -21.6035   -4.3072   24.7241 C   0  0  0  0  0  0
  -21.8820   -3.8168   23.4353 C   0  0  0  0  0  0
  -21.9205   -4.6988   22.3415 C   0  0  0  0  0  0
  -22.7917  -13.5331   21.1891 C   0  0  0  0  0  0
  -22.1667   -4.2193   21.0987 F   0  0  0  0  0  0
  -21.5589   -3.4530   25.7726 F   0  0  0  0  0  0
  -30.0293  -13.2551   20.4360 N   0  0  0  0  0  0
  -26.3057  -12.9166   20.3301 N   0  0  0  0  0  0
  -25.9289  -11.6378   20.5763 N   0  0  0  0  0  0
  -22.0437  -12.8397   22.0404 N   0  0  0  0  0  0
  -25.4679  -15.1635   20.3549 N   0  0  0  0  0  0
  -31.8129  -14.6438   20.1187 O   0  0  0  0  0  0
  -21.6654   -6.8881   21.4256 O   0  0  0  0  0  0
  -22.3669  -14.5630   20.6688 O   0  0  0  0  0  0
  -24.6140  -31.8748   23.2063 C   0  0  0  0  0  0
  -25.9041  -32.4857   23.8382 C   0  0  1  0  0  0
  -27.2234  -27.4313   20.0888 C   0  0  0  0  0  0
  -25.5893  -33.8651   24.2311 N   0  0  0  0  0  0
  -23.3995  -30.5020   21.5467 C   0  0  2  0  0  0
  -24.8469  -28.9692   20.1061 C   0  0  0  0  0  0
  -22.7407  -29.4714   22.4943 C   0  0  0  0  0  0
  -18.0354  -28.1318   22.8452 C   0  0  0  0  0  0
  -24.1492  -36.7295   23.2638 C   0  0  0  0  0  0
  -25.9344  -30.8364   21.3677 C   0  0  0  0  0  0
  -26.0083  -29.4751   20.7049 C   0  0  0  0  0  0
  -27.1964  -28.7086   20.6983 C   0  0  0  0  0  0
  -26.0369  -26.9350   19.5087 C   0  0  0  0  0  0
  -24.8561  -27.6981   19.5075 C   0  0  0  0  0  0
  -23.6069  -29.8331   20.1640 C   0  0  0  0  0  0
  -25.4106  -36.3110   24.0338 C   0  0  1  0  0  0
  -20.5912  -28.3635   23.1286 C   0  0  2  0  0  0
  -20.6837  -26.9410   22.5351 C   0  0  0  0  0  0
  -19.5864  -26.6448   21.5093 C   0  0  0  0  0  0
  -18.1989  -26.7941   22.1384 C   0  0  0  0  0  0
  -19.1568  -28.8755   23.2930 C   0  0  0  0  0  0
  -18.9457  -30.1332   23.8973 C   0  0  0  0  0  0
  -17.6462  -30.6508   24.0572 C   0  0  0  0  0  0
  -25.9024  -34.9488   23.5110 C   0  0  0  0  0  0
  -16.5368  -29.9014   23.6266 C   0  0  0  0  0  0
  -16.7343  -28.6437   23.0298 C   0  0  0  0  0  0
  -26.4441  -31.6646   25.0726 C   0  0  0  0  0  0
  -25.3701  -31.3815   26.1482 C   0  0  0  0  0  0
  -27.0272  -30.3062   24.6176 C   0  0  0  0  0  0
  -27.6012  -32.4373   25.7501 C   0  0  0  0  0  0
  -27.5571  -37.1802   24.8454 C   0  0  0  0  0  0
  -21.4137  -29.3041   22.3677 N   0  0  0  0  0  0
  -26.4291  -37.3789   23.9402 N   0  0  0  0  0  0
  -24.6665  -31.0844   22.0985 N   0  0  0  0  0  0
  -23.4138  -28.8250   23.3026 O   0  0  0  0  0  0
  -28.3473  -26.6393   20.1972 O   0  0  0  0  0  0
  -26.5593  -34.8943   22.4676 O   0  0  0  0  0  0
  -23.5314  -32.1513   23.7445 O   0  0  0  0  0  0
  -28.6205  -19.4998   19.7448 C   0  0  0  0  0  0
  -27.5059  -20.3411   19.5097 C   0  0  0  0  0  0
  -28.3472  -18.7656   20.8816 C   0  0  0  0  0  0
  -26.4015  -17.6310   23.2277 C   0  0  0  0  0  0
  -29.4744  -17.7722   23.0015 C   0  0  0  0  0  0
  -30.8082  -18.0840   20.9638 C   0  0  0  0  0  0
  -23.9561  -20.2443   21.3977 C   0  0  0  0  0  0
  -23.6873  -19.0624   23.4846 C   0  0  0  0  0  0
  -24.0159  -17.7966   21.3020 C   0  0  0  0  0  0
  -28.3978  -22.3616   16.6097 C   0  0  0  0  0  0
  -26.0972  -23.1110   17.2081 C   0  0  0  0  0  0
  -27.0367  -21.0307   18.2372 C   0  0  0  0  0  0
  -28.2941  -24.9453   18.2165 C   0  0  0  0  0  0
  -27.9946  -23.5282   18.8388 C   0  0  0  0  0  0
  -29.0972  -16.2653   20.9874 C   0  0  0  0  0  0
  -28.9663  -26.0742   19.0376 C   0  0  0  0  0  0
  -26.0704  -18.9060   22.4246 C   0  0  2  0  0  0
  -29.3674  -17.7365   21.4603 C   0  0  0  0  0  0
  -24.4825  -18.9946   22.1468 C   0  0  0  0  0  0
  -27.4063  -22.5087   17.7872 C   0  0  0  0  0  0
  -26.6528  -20.2069   20.4913 N   0  0  0  0  0  0
  -27.0287  -19.1714   21.2836 N   0  0  0  0  0  0
  -30.1448  -15.3255   21.4308 N   0  0  0  0  0  0
  -31.4619  -12.4077   19.0848 H   0  0  0  0  0  0
  -30.3471  -11.2667   19.7899 H   0  0  0  0  0  0
  -29.7261  -11.7465   17.4134 H   0  0  0  0  0  0
  -29.6606  -13.4499   17.7424 H   0  0  0  0  0  0
  -27.8327  -11.2749   18.8280 H   0  0  0  0  0  0
  -27.3525  -12.5762   17.7751 H   0  0  0  0  0  0
  -27.7108  -14.2198   19.5410 H   0  0  0  0  0  0
  -28.6649  -11.8955   21.2961 H   0  0  0  0  0  0
  -28.4389  -13.5189   21.8668 H   0  0  0  0  0  0
  -25.2707   -9.5746   22.4822 H   0  0  0  0  0  0
  -23.9996   -7.4656   22.7456 H   0  0  0  0  0  0
  -21.0798   -8.8836   19.8994 H   0  0  0  0  0  0
  -22.3638  -10.9746   19.6223 H   0  0  0  0  0  0
  -21.2059   -7.6182   23.9771 H   0  0  0  0  0  0
  -21.1405   -6.0523   25.9103 H   0  0  0  0  0  0
  -22.0601   -2.7630   23.2851 H   0  0  0  0  0  0
  -22.3859  -12.0025   22.4902 H   0  0  0  0  0  0
  -21.1092  -13.1579   22.2560 H   0  0  0  0  0  0
  -24.7014  -15.8244   20.3879 H   0  0  0  0  0  0
  -26.2890  -15.5303   19.8978 H   0  0  0  0  0  0
  -26.7107  -32.5560   23.1139 H   0  0  0  0  0  0
  -25.0020  -33.9802   25.0434 H   0  0  0  0  0  0
  -22.6871  -31.3204   21.4043 H   0  0  0  0  0  0
  -23.3757  -35.9624   23.3318 H   0  0  0  0  0  0
  -24.3595  -36.8883   22.2047 H   0  0  0  0  0  0
  -23.7245  -37.6505   23.6644 H   0  0  0  0  0  0
  -26.0654  -31.6183   20.6178 H   0  0  0  0  0  0
  -26.8145  -30.8736   22.0007 H   0  0  0  0  0  0
  -28.0852  -29.0889   21.1815 H   0  0  0  0  0  0
  -25.9894  -25.9359   19.1123 H   0  0  0  0  0  0
  -23.9533  -27.2907   19.0710 H   0  0  0  0  0  0
  -23.7058  -30.6041   19.4002 H   0  0  0  0  0  0
  -22.7320  -29.2461   19.8721 H   0  0  0  0  0  0
  -25.1300  -36.1958   25.0830 H   0  0  0  0  0  0
  -21.0029  -28.3167   24.1410 H   0  0  0  0  0  0
  -21.6719  -26.7462   22.1140 H   0  0  0  0  0  0
  -20.5721  -26.2213   23.3462 H   0  0  0  0  0  0
  -19.7054  -25.6402   21.1055 H   0  0  0  0  0  0
  -19.6945  -27.3340   20.6700 H   0  0  0  0  0  0
  -17.4406  -26.6989   21.3577 H   0  0  0  0  0  0
  -18.0189  -25.9952   22.8576 H   0  0  0  0  0  0
  -19.7914  -30.7117   24.2404 H   0  0  0  0  0  0
  -17.5052  -31.6201   24.5154 H   0  0  0  0  0  0
  -15.5351  -30.2945   23.7530 H   0  0  0  0  0  0
  -15.8768  -28.0811   22.6887 H   0  0  0  0  0  0
  -24.5832  -30.7185   25.7858 H   0  0  0  0  0  0
  -24.8922  -32.2999   26.4911 H   0  0  0  0  0  0
  -25.8054  -30.9015   27.0257 H   0  0  0  0  0  0
  -26.2859  -29.6855   24.1124 H   0  0  0  0  0  0
  -27.3869  -29.7296   25.4713 H   0  0  0  0  0  0
  -27.8776  -30.4334   23.9473 H   0  0  0  0  0  0
  -27.2607  -33.3651   26.2127 H   0  0  0  0  0  0
  -28.3819  -32.6985   25.0339 H   0  0  0  0  0  0
  -28.0702  -31.8479   26.5391 H   0  0  0  0  0  0
  -28.2607  -38.0083   24.7507 H   0  0  0  0  0  0
  -28.1071  -36.2622   24.6298 H   0  0  0  0  0  0
  -27.2310  -37.1473   25.8866 H   0  0  0  0  0  0
  -20.9323  -29.8648   21.6765 H   0  0  0  0  0  0
  -26.0182  -38.2879   24.1380 H   0  0  0  0  0  0
  -29.4887  -19.3956   19.1094 H   0  0  0  0  0  0
  -25.5610  -17.1838   23.7429 H   0  0  0  0  0  0
  -26.7964  -16.8468   22.5955 H   0  0  0  0  0  0
  -27.1028  -17.8617   24.0245 H   0  0  0  0  0  0
  -28.9093  -16.9546   23.4493 H   0  0  0  0  0  0
  -30.4883  -17.6226   23.3704 H   0  0  0  0  0  0
  -29.1385  -18.7220   23.4149 H   0  0  0  0  0  0
  -31.0556  -19.1258   21.1687 H   0  0  0  0  0  0
  -31.6009  -17.4965   21.4378 H   0  0  0  0  0  0
  -30.9302  -17.9279   19.8909 H   0  0  0  0  0  0
  -22.8699  -20.3315   21.4830 H   0  0  0  0  0  0
  -24.1405  -20.1899   20.3270 H   0  0  0  0  0  0
  -24.3877  -21.1681   21.7868 H   0  0  0  0  0  0
  -22.6082  -19.0739   23.3187 H   0  0  0  0  0  0
  -23.9152  -19.9855   24.0208 H   0  0  0  0  0  0
  -23.8484  -18.2351   24.1713 H   0  0  0  0  0  0
  -22.9678  -17.8731   21.0036 H   0  0  0  0  0  0
  -24.1294  -16.8559   21.8360 H   0  0  0  0  0  0
  -24.6013  -17.7563   20.3862 H   0  0  0  0  0  0
  -28.0726  -21.6041   15.8940 H   0  0  0  0  0  0
  -29.3871  -22.0755   16.9687 H   0  0  0  0  0  0
  -28.5011  -23.2720   16.0198 H   0  0  0  0  0  0
  -25.6275  -22.4236   16.5033 H   0  0  0  0  0  0
  -26.2497  -24.0308   16.6438 H   0  0  0  0  0  0
  -25.3738  -23.3215   17.9968 H   0  0  0  0  0  0
  -25.9488  -20.9851   18.2892 H   0  0  0  0  0  0
  -27.2267  -20.3416   17.4155 H   0  0  0  0  0  0
  -27.4260  -25.3678   17.7221 H   0  0  0  0  0  0
  -29.0062  -24.8007   17.4049 H   0  0  0  0  0  0
  -27.3035  -23.6314   19.6784 H   0  0  0  0  0  0
  -28.9149  -23.1237   19.2664 H   0  0  0  0  0  0
  -28.1526  -15.8840   21.3591 H   0  0  0  0  0  0
  -29.0013  -16.2319   19.9019 H   0  0  0  0  0  0
  -29.1746  -26.9034   18.3559 H   0  0  0  0  0  0
  -29.9406  -25.7070   19.3582 H   0  0  0  0  0  0
  -26.2517  -19.7281   23.1181 H   0  0  0  0  0  0
  -30.8581  -15.8444   21.9180 H   0  0  0  0  0  0
  1 25  1  0  0  0
  1 30  2  0  0  0
  1 93  1  0  0  0
  2  3  1  0  0  0
  2 25  1  0  0  0
  2 94  1  0  0  0
  2 95  1  0  0  0
  3  4  1  0  0  0
  3 96  1  0  0  0
  3 97  1  0  0  0
  4  5  1  0  0  0
  4 98  1  0  0  0
  4 99  1  0  0  0
  5  6  1  0  0  0
  5 26  1  0  0  0
  5100  1  0  0  0
  6 25  1  0  0  0
  6101  1  0  0  0
  6102  1  0  0  0
  7  8  2  0  0  0
  7 26  1  0  0  0
  7 29  1  0  0  0
  8  9  1  0  0  0
  8 22  1  0  0  0
  9 10  1  0  0  0
  9 27  2  0  0  0
 10 11  2  0  0  0
 10 15  1  0  0  0
 11 12  1  0  0  0
 11103  1  0  0  0
 12 13  2  0  0  0
 12104  1  0  0  0
 13 14  1  0  0  0
 13 31  1  0  0  0
 14 15  2  0  0  0
 14105  1  0  0  0
 15106  1  0  0  0
 16 17  2  0  0  0
 16 21  1  0  0  0
 16 31  1  0  0  0
 17 18  1  0  0  0
 17107  1  0  0  0
 18 19  2  0  0  0
 18108  1  0  0  0
 19 20  1  0  0  0
 19 24  1  0  0  0
 20 21  2  0  0  0
 20109  1  0  0  0
 21 23  1  0  0  0
 22 28  1  0  0  0
 22 32  2  0  0  0
 26 27  1  0  0  0
 28110  1  0  0  0
 28111  1  0  0  0
 29112  1  0  0  0
 29113  1  0  0  0
 33 34  1  0  0  0
 33 66  1  0  0  0
 33 70  2  0  0  0
 34 36  1  0  0  0
 34 59  1  0  0  0
 34114  1  0  0  0
 35 44  2  0  0  0
 35 45  1  0  0  0
 35 68  1  0  0  0
 36 56  1  0  0  0
 36115  1  0  0  0
 37 39  1  0  0  0
 37 47  1  0  0  0
 37 66  1  0  0  0
 37116  1  0  0  0
 38 43  2  0  0  0
 38 46  1  0  0  0
 38 47  1  0  0  0
 39 64  1  0  0  0
 39 67  2  0  0  0
 40 52  1  0  0  0
 40 53  2  0  0  0
 40 58  1  0  0  0
 41117  1  0  0  0
 41118  1  0  0  0
 41119  1  0  0  0
 41 48  1  0  0  0
 42 43  1  0  0  0
 42 66  1  0  0  0
 42120  1  0  0  0
 42121  1  0  0  0
 43 44  1  0  0  0
 44122  1  0  0  0
 45 46  2  0  0  0
 45123  1  0  0  0
 46124  1  0  0  0
 47125  1  0  0  0
 47126  1  0  0  0
 48 56  1  0  0  0
 48 65  1  0  0  0
 48127  1  0  0  0
 49 50  1  0  0  0
 49 53  1  0  0  0
 49 64  1  0  0  0
 49128  1  0  0  0
 50 51  1  0  0  0
 50129  1  0  0  0
 50130  1  0  0  0
 51 52  1  0  0  0
 51131  1  0  0  0
 51132  1  0  0  0
 52133  1  0  0  0
 52134  1  0  0  0
 53 54  1  0  0  0
 54 55  2  0  0  0
 54135  1  0  0  0
 55 57  1  0  0  0
 55136  1  0  0  0
 56 69  2  0  0  0
 57 58  2  0  0  0
 57137  1  0  0  0
 58138  1  0  0  0
 59 60  1  0  0  0
 59 61  1  0  0  0
 59 62  1  0  0  0
 60139  1  0  0  0
 60140  1  0  0  0
 60141  1  0  0  0
 61142  1  0  0  0
 61143  1  0  0  0
 61144  1  0  0  0
 62145  1  0  0  0
 62146  1  0  0  0
 62147  1  0  0  0
 63 65  1  0  0  0
 63148  1  0  0  0
 63149  1  0  0  0
 63150  1  0  0  0
 64151  1  0  0  0
 65152  1  0  0  0
 68 86  1  0  0  0
 71 72  1  0  0  0
 71 73  2  0  0  0
 71153  1  0  0  0
 72 82  1  0  0  0
 72 91  2  0  0  0
 73 88  1  0  0  0
 73 92  1  0  0  0
 74154  1  0  0  0
 74155  1  0  0  0
 74156  1  0  0  0
 74 87  1  0  0  0
 75157  1  0  0  0
 75158  1  0  0  0
 75159  1  0  0  0
 75 88  1  0  0  0
 76 88  1  0  0  0
 76160  1  0  0  0
 76161  1  0  0  0
 76162  1  0  0  0
 77163  1  0  0  0
 77164  1  0  0  0
 77165  1  0  0  0
 77 89  1  0  0  0
 78 89  1  0  0  0
 78166  1  0  0  0
 78167  1  0  0  0
 78168  1  0  0  0
 79 89  1  0  0  0
 79169  1  0  0  0
 79170  1  0  0  0
 79171  1  0  0  0
 80172  1  0  0  0
 80173  1  0  0  0
 80174  1  0  0  0
 80 90  1  0  0  0
 81 90  1  0  0  0
 81175  1  0  0  0
 81176  1  0  0  0
 81177  1  0  0  0
 82 90  1  0  0  0
 82178  1  0  0  0
 82179  1  0  0  0
 83 84  1  0  0  0
 83 86  1  0  0  0
 83180  1  0  0  0
 83181  1  0  0  0
 84 90  1  0  0  0
 84182  1  0  0  0
 84183  1  0  0  0
 85 88  1  0  0  0
 85 93  1  0  0  0
 85184  1  0  0  0
 85185  1  0  0  0
 86186  1  0  0  0
 86187  1  0  0  0
 87 89  1  0  0  0
 87 92  1  0  0  0
 87188  1  0  0  0
 91 92  1  0  0  0
 93189  1  0  0  0
M  ISO  4   1 100  68 101  86 101  93 100
M  END
> <chiral flag>
0

> <version>
0

> <s_m_source_file>
/data/baiqing/PycharmProjects/Reinvent-master-3.2/result/LINK_invent/BTK/process_docking_weight1_custom_sum_contain_oxygen_bond_distance_aromatic_linkinvent_7_9_3/rearranged_h_0066.sdf

> <i_m_source_file_index>
77

> <r_mmod_Potential_Energy-OPLS-2005>
245.511199951172

> <r_mmod_Stretch_Energy-OPLS-2005>
75.2539901733398

> <r_mmod_Bend_Energy-OPLS-2005>
244.059387207031

> <r_mmod_Torsional_Energy-OPLS-2005>
351.671722412109

> <r_mmod_Improper_Torsional_Energy-OPLS-2005>
11.1765365600586

> <r_mmod_Van_der_Waal_Energy-OPLS-2005>
163.637634277344

> <r_mmod_Electrostatic_Energy-OPLS-2005>
-436.401306152344

> <r_mmod_Solvation_Energy-OPLS-2005>
-180.322631835938

> <b_mmod_Minimization_Converged-OPLS-2005>
0

> <r_mmod_RMS_Derivative-OPLS-2005>
7.02087783813477

$$$$
82
                    3D
 Structure written by MMmdl.
178186  0  0  1  0            999 V2000
  -30.7331  -14.4891   20.5839 C   0  0  0  0  0  0
  -30.4090  -12.3256   19.4283 C   0  0  0  0  0  0
  -29.4901  -12.5198   18.2063 C   0  0  0  0  0  0
  -28.0133  -12.3542   18.6180 C   0  0  0  0  0  0
  -27.6487  -13.2028   19.8631 C   0  0  2  0  0  0
  -28.6938  -13.0435   20.9928 C   0  0  0  0  0  0
  -25.2560  -13.8134   20.5691 C   0  0  0  0  0  0
  -24.1803  -13.0424   20.9200 C   0  0  0  0  0  0
  -24.6354  -11.6897   20.8729 C   0  0  0  0  0  0
  -23.9019  -10.4289   21.0373 C   0  0  0  0  0  0
  -24.3603   -9.4216   21.9153 C   0  0  0  0  0  0
  -23.6280   -8.2257   22.0753 C   0  0  0  0  0  0
  -22.4250   -8.0305   21.3561 C   0  0  0  0  0  0
  -21.9864   -9.0248   20.4641 C   0  0  0  0  0  0
  -22.7186  -10.2131   20.3020 C   0  0  0  0  0  0
  -21.6864   -6.0714   22.5273 C   0  0  0  0  0  0
  -21.4001   -6.5601   23.8212 C   0  0  0  0  0  0
  -21.3660   -5.6764   24.9179 C   0  0  0  0  0  0
  -21.6060   -4.3034   24.7228 C   0  0  0  0  0  0
  -21.8823   -3.8117   23.4350 C   0  0  0  0  0  0
  -21.9191   -4.6929   22.3396 C   0  0  0  0  0  0
  -22.7824  -13.5246   21.1824 C   0  0  0  0  0  0
  -22.1675   -4.2116   21.0972 F   0  0  0  0  0  0
  -21.5636   -3.4519   25.7735 F   0  0  0  0  0  0
  -30.0234  -13.3320   20.4324 N   0  0  0  0  0  0
  -26.2958  -12.9280   20.3352 N   0  0  0  0  0  0
  -25.9292  -11.6456   20.5808 N   0  0  0  0  0  0
  -22.0464  -12.8289   22.0421 N   0  0  0  0  0  0
  -25.4259  -15.1853   20.4058 N   0  0  0  0  0  0
  -31.8669  -14.6276   20.1268 O   0  0  0  0  0  0
  -21.6653   -6.8882   21.4236 O   0  0  0  0  0  0
  -22.3523  -14.5534   20.6636 O   0  0  0  0  0  0
  -24.6107  -31.8684   23.2059 C   0  0  0  0  0  0
  -25.8994  -32.4840   23.8383 C   0  0  1  0  0  0
  -27.2427  -27.4586   20.1049 C   0  0  0  0  0  0
  -25.5855  -33.8639   24.2311 N   0  0  0  0  0  0
  -23.4000  -30.4854   21.5474 C   0  0  2  0  0  0
  -24.8504  -28.9547   20.1135 C   0  0  0  0  0  0
  -22.7404  -29.4624   22.4990 C   0  0  0  0  0  0
  -18.0260  -28.1384   22.8479 C   0  0  0  0  0  0
  -24.1491  -36.7338   23.2637 C   0  0  0  0  0  0
  -25.9233  -30.8475   21.3499 C   0  0  0  0  0  0
  -26.0058  -29.4811   20.7030 C   0  0  0  0  0  0
  -27.2098  -28.7419   20.6882 C   0  0  0  0  0  0
  -26.0735  -26.9345   19.5173 C   0  0  0  0  0  0
  -24.8773  -27.6809   19.5167 C   0  0  0  0  0  0
  -23.6050  -29.8108   20.1638 C   0  0  0  0  0  0
  -25.4118  -36.3133   24.0336 C   0  0  1  0  0  0
  -20.5857  -28.3655   23.1334 C   0  0  2  0  0  0
  -20.6752  -26.9399   22.5426 C   0  0  0  0  0  0
  -19.5727  -26.6390   21.5220 C   0  0  0  0  0  0
  -18.1899  -26.7928   22.1619 C   0  0  0  0  0  0
  -19.1516  -28.8835   23.2891 C   0  0  0  0  0  0
  -18.9442  -30.1439   23.8911 C   0  0  0  0  0  0
  -17.6448  -30.6587   24.0560 C   0  0  0  0  0  0
  -25.9038  -34.9494   23.5125 C   0  0  0  0  0  0
  -16.5336  -29.9098   23.6328 C   0  0  0  0  0  0
  -16.7250  -28.6515   23.0348 C   0  0  0  0  0  0
  -26.4447  -31.6613   25.0708 C   0  0  0  0  0  0
  -25.3690  -31.3733   26.1434 C   0  0  0  0  0  0
  -27.0264  -30.3057   24.6055 C   0  0  0  0  0  0
  -27.6038  -32.4331   25.7460 C   0  0  0  0  0  0
  -27.5596  -37.1813   24.8464 C   0  0  0  0  0  0
  -21.4138  -29.3011   22.3751 N   0  0  0  0  0  0
  -26.4314  -37.3806   23.9401 N   0  0  0  0  0  0
  -24.6633  -31.0822   22.0930 N   0  0  0  0  0  0
  -23.4180  -28.8176   23.3035 O   0  0  0  0  0  0
  -28.4169  -26.7434   20.0922 O   0  0  0  0  0  0
  -26.5617  -34.8942   22.4701 O   0  0  0  0  0  0
  -23.5304  -32.1421   23.7469 O   0  0  0  0  0  0
  -29.6028  -19.7078   22.7341 C   0  0  0  0  0  0
  -30.7475  -20.4750   22.3824 C   0  0  0  0  0  0
  -30.7980  -17.7352   22.3769 C   0  0  0  0  0  0
  -31.9485  -18.5049   22.0421 C   0  0  0  0  0  0
  -25.8020  -20.6416   22.4829 C   0  0  0  0  0  0
  -30.4661  -26.6019   21.7889 C   0  0  0  0  0  0
  -29.2649  -24.8861   23.1030 C   0  0  0  0  0  0
  -29.1822  -16.3469   20.4123 C   0  0  0  0  0  0
  -28.2664  -20.3246   23.1318 C   0  0  0  0  0  0
  -30.8026  -22.0067   22.4108 C   0  0  0  0  0  0
  -30.7650  -16.1932   22.3607 C   0  0  0  0  0  0
  -27.1795  -20.1089   22.0642 C   0  0  0  0  0  0
  -30.1726  -22.7133   21.1834 C   0  0  0  0  0  0
  -30.5900  -24.2025   21.0282 C   0  0  0  0  0  0
  -28.3844  -25.4972   20.7968 C   0  0  0  0  0  0
  -33.3038  -17.8685   21.7133 C   0  0  0  0  0  0
  -29.6652  -25.2830   21.6671 C   0  0  0  0  0  0
  -29.6395  -18.3497   22.7411 N   0  0  0  0  0  0
  -31.9046  -19.8651   22.0351 N   0  0  0  0  0  0
  -30.1145  -15.5252   21.2045 N   0  0  0  0  0  0
  -33.2033  -17.0982   20.6329 F   0  0  0  0  0  0
  -34.2385  -18.7936   21.4753 F   0  0  0  0  0  0
  -33.7253  -17.1299   22.7418 F   0  0  0  0  0  0
  -31.4571  -12.4057   19.1351 H   0  0  0  0  0  0
  -30.2911  -11.3215   19.8389 H   0  0  0  0  0  0
  -29.7392  -11.8116   17.4159 H   0  0  0  0  0  0
  -29.6528  -13.5155   17.7900 H   0  0  0  0  0  0
  -27.8375  -11.2969   18.8258 H   0  0  0  0  0  0
  -27.3599  -12.6056   17.7816 H   0  0  0  0  0  0
  -27.6545  -14.2333   19.5251 H   0  0  0  0  0  0
  -28.6737  -12.0274   21.3841 H   0  0  0  0  0  0
  -28.4459  -13.6903   21.8364 H   0  0  0  0  0  0
  -25.2759   -9.5695   22.4734 H   0  0  0  0  0  0
  -23.9962   -7.4633   22.7475 H   0  0  0  0  0  0
  -21.0793   -8.8749   19.8955 H   0  0  0  0  0  0
  -22.3618  -10.9665   19.6121 H   0  0  0  0  0  0
  -21.1996   -7.6108   23.9689 H   0  0  0  0  0  0
  -21.1482   -6.0508   25.9080 H   0  0  0  0  0  0
  -22.0601   -2.7575   23.2862 H   0  0  0  0  0  0
  -22.4059  -11.9951   22.4814 H   0  0  0  0  0  0
  -21.1072  -13.1328   22.2575 H   0  0  0  0  0  0
  -24.6606  -15.8410   20.5180 H   0  0  0  0  0  0
  -26.2859  -15.6281   20.1068 H   0  0  0  0  0  0
  -26.7071  -32.5573   23.1166 H   0  0  0  0  0  0
  -24.9961  -33.9811   25.0424 H   0  0  0  0  0  0
  -22.6843  -31.2972   21.4037 H   0  0  0  0  0  0
  -23.3759  -35.9664   23.3327 H   0  0  0  0  0  0
  -24.3582  -36.8939   22.2045 H   0  0  0  0  0  0
  -23.7241  -37.6551   23.6642 H   0  0  0  0  0  0
  -26.0207  -31.6127   20.5777 H   0  0  0  0  0  0
  -26.8143  -30.9110   21.9609 H   0  0  0  0  0  0
  -28.1083  -29.1454   21.1348 H   0  0  0  0  0  0
  -26.0886  -25.9549   19.0604 H   0  0  0  0  0  0
  -23.9887  -27.2692   19.0594 H   0  0  0  0  0  0
  -23.6884  -30.5778   19.3924 H   0  0  0  0  0  0
  -22.7370  -29.2102   19.8849 H   0  0  0  0  0  0
  -25.1290  -36.2024   25.0834 H   0  0  0  0  0  0
  -20.9914  -28.3209   24.1464 H   0  0  0  0  0  0
  -20.5685  -26.2242   23.3600 H   0  0  0  0  0  0
  -21.6614  -26.7452   22.1189 H   0  0  0  0  0  0
  -19.6901  -25.6312   21.1217 H   0  0  0  0  0  0
  -19.6692  -27.3223   20.6776 H   0  0  0  0  0  0
  -17.4179  -26.6684   21.4016 H   0  0  0  0  0  0
  -18.0287  -26.0084   22.9026 H   0  0  0  0  0  0
  -19.7926  -30.7237   24.2298 H   0  0  0  0  0  0
  -17.5013  -31.6278   24.5151 H   0  0  0  0  0  0
  -15.5335  -30.3000   23.7673 H   0  0  0  0  0  0
  -15.8641  -28.0843   22.7068 H   0  0  0  0  0  0
  -24.5872  -30.7083   25.7763 H   0  0  0  0  0  0
  -24.8853  -32.2885   26.4851 H   0  0  0  0  0  0
  -25.7996  -30.8918   27.0211 H   0  0  0  0  0  0
  -26.2793  -29.6841   24.1095 H   0  0  0  0  0  0
  -27.4040  -29.7285   25.4508 H   0  0  0  0  0  0
  -27.8627  -30.4416   23.9187 H   0  0  0  0  0  0
  -27.2674  -33.3629   26.2061 H   0  0  0  0  0  0
  -28.3811  -32.6889   25.0246 H   0  0  0  0  0  0
  -28.0727  -31.8428   26.5339 H   0  0  0  0  0  0
  -28.2613  -38.0109   24.7506 H   0  0  0  0  0  0
  -28.1081  -36.2637   24.6287 H   0  0  0  0  0  0
  -27.2299  -37.1463   25.8861 H   0  0  0  0  0  0
  -20.9312  -29.8726   21.6964 H   0  0  0  0  0  0
  -26.0226  -38.2898   24.1389 H   0  0  0  0  0  0
  -25.0553  -20.4162   21.7196 H   0  0  0  0  0  0
  -25.8133  -21.7230   22.6263 H   0  0  0  0  0  0
  -25.4690  -20.1758   23.4109 H   0  0  0  0  0  0
  -31.3111  -26.4995   22.4700 H   0  0  0  0  0  0
  -29.8417  -27.4117   22.1740 H   0  0  0  0  0  0
  -30.8668  -26.9225   20.8264 H   0  0  0  0  0  0
  -30.1430  -24.7028   23.7222 H   0  0  0  0  0  0
  -28.6443  -23.9900   23.1205 H   0  0  0  0  0  0
  -28.6922  -25.6781   23.5889 H   0  0  0  0  0  0
  -28.2481  -16.4932   20.9556 H   0  0  0  0  0  0
  -28.9507  -15.9172   19.4382 H   0  0  0  0  0  0
  -29.5881  -17.3334   20.1862 H   0  0  0  0  0  0
  -28.3712  -21.3919   23.3257 H   0  0  0  0  0  0
  -27.9562  -19.8858   24.0810 H   0  0  0  0  0  0
  -31.8554  -22.2942   22.4599 H   0  0  0  0  0  0
  -30.3779  -22.3682   23.3451 H   0  0  0  0  0  0
  -31.7723  -15.8014   22.5064 H   0  0  0  0  0  0
  -30.2230  -15.8671   23.2487 H   0  0  0  0  0  0
  -27.4882  -20.5783   21.1287 H   0  0  0  0  0  0
  -27.0935  -19.0421   21.8488 H   0  0  0  0  0  0
  -29.0865  -22.6085   21.1815 H   0  0  0  0  0  0
  -30.5183  -22.1841   20.2937 H   0  0  0  0  0  0
  -30.6684  -24.4228   19.9621 H   0  0  0  0  0  0
  -31.6093  -24.3163   21.4005 H   0  0  0  0  0  0
  -27.4976  -25.4370   21.4307 H   0  0  0  0  0  0
  -28.2723  -24.6965   20.0659 H   0  0  0  0  0  0
  1 25  1  0  0  0
  1 30  2  0  0  0
  1 90  1  0  0  0
  2  3  1  0  0  0
  2 25  1  0  0  0
  2 94  1  0  0  0
  2 95  1  0  0  0
  3  4  1  0  0  0
  3 96  1  0  0  0
  3 97  1  0  0  0
  4  5  1  0  0  0
  4 98  1  0  0  0
  4 99  1  0  0  0
  5  6  1  0  0  0
  5 26  1  0  0  0
  5100  1  0  0  0
  6 25  1  0  0  0
  6101  1  0  0  0
  6102  1  0  0  0
  7  8  2  0  0  0
  7 26  1  0  0  0
  7 29  1  0  0  0
  8  9  1  0  0  0
  8 22  1  0  0  0
  9 10  1  0  0  0
  9 27  2  0  0  0
 10 11  2  0  0  0
 10 15  1  0  0  0
 11 12  1  0  0  0
 11103  1  0  0  0
 12 13  2  0  0  0
 12104  1  0  0  0
 13 14  1  0  0  0
 13 31  1  0  0  0
 14 15  2  0  0  0
 14105  1  0  0  0
 15106  1  0  0  0
 16 17  2  0  0  0
 16 21  1  0  0  0
 16 31  1  0  0  0
 17 18  1  0  0  0
 17107  1  0  0  0
 18 19  2  0  0  0
 18108  1  0  0  0
 19 20  1  0  0  0
 19 24  1  0  0  0
 20 21  2  0  0  0
 20109  1  0  0  0
 21 23  1  0  0  0
 22 28  1  0  0  0
 22 32  2  0  0  0
 26 27  1  0  0  0
 28110  1  0  0  0
 28111  1  0  0  0
 29112  1  0  0  0
 29113  1  0  0  0
 33 34  1  0  0  0
 33 66  1  0  0  0
 33 70  2  0  0  0
 34 36  1  0  0  0
 34 59  1  0  0  0
 34114  1  0  0  0
 35 44  2  0  0  0
 35 45  1  0  0  0
 35 68  1  0  0  0
 36 56  1  0  0  0
 36115  1  0  0  0
 37 39  1  0  0  0
 37 47  1  0  0  0
 37 66  1  0  0  0
 37116  1  0  0  0
 38 43  2  0  0  0
 38 46  1  0  0  0
 38 47  1  0  0  0
 39 64  1  0  0  0
 39 67  2  0  0  0
 40 52  1  0  0  0
 40 53  2  0  0  0
 40 58  1  0  0  0
 41117  1  0  0  0
 41118  1  0  0  0
 41119  1  0  0  0
 41 48  1  0  0  0
 42 43  1  0  0  0
 42 66  1  0  0  0
 42120  1  0  0  0
 42121  1  0  0  0
 43 44  1  0  0  0
 44122  1  0  0  0
 45 46  2  0  0  0
 45123  1  0  0  0
 46124  1  0  0  0
 47125  1  0  0  0
 47126  1  0  0  0
 48 56  1  0  0  0
 48 65  1  0  0  0
 48127  1  0  0  0
 49 50  1  0  0  0
 49 53  1  0  0  0
 49 64  1  0  0  0
 49128  1  0  0  0
 50 51  1  0  0  0
 50129  1  0  0  0
 50130  1  0  0  0
 51 52  1  0  0  0
 51131  1  0  0  0
 51132  1  0  0  0
 52133  1  0  0  0
 52134  1  0  0  0
 53 54  1  0  0  0
 54 55  2  0  0  0
 54135  1  0  0  0
 55 57  1  0  0  0
 55136  1  0  0  0
 56 69  2  0  0  0
 57 58  2  0  0  0
 57137  1  0  0  0
 58138  1  0  0  0
 59 60  1  0  0  0
 59 61  1  0  0  0
 59 62  1  0  0  0
 60139  1  0  0  0
 60140  1  0  0  0
 60141  1  0  0  0
 61142  1  0  0  0
 61143  1  0  0  0
 61144  1  0  0  0
 62145  1  0  0  0
 62146  1  0  0  0
 62147  1  0  0  0
 63 65  1  0  0  0
 63148  1  0  0  0
 63149  1  0  0  0
 63150  1  0  0  0
 64151  1  0  0  0
 65152  1  0  0  0
 68 85  1  0  0  0
 71 72  2  0  0  0
 71 79  1  0  0  0
 71 88  1  0  0  0
 72 80  1  0  0  0
 72 89  1  0  0  0
 73 74  1  0  0  0
 73 81  1  0  0  0
 73 88  2  0  0  0
 74 86  1  0  0  0
 74 89  2  0  0  0
 75 82  1  0  0  0
 75153  1  0  0  0
 75154  1  0  0  0
 75155  1  0  0  0
 76156  1  0  0  0
 76157  1  0  0  0
 76158  1  0  0  0
 76 87  1  0  0  0
 77 87  1  0  0  0
 77159  1  0  0  0
 77160  1  0  0  0
 77161  1  0  0  0
 78 90  1  0  0  0
 78162  1  0  0  0
 78163  1  0  0  0
 78164  1  0  0  0
 79 82  1  0  0  0
 79165  1  0  0  0
 79166  1  0  0  0
 80 83  1  0  0  0
 80167  1  0  0  0
 80168  1  0  0  0
 81 90  1  0  0  0
 81169  1  0  0  0
 81170  1  0  0  0
 82171  1  0  0  0
 82172  1  0  0  0
 83 84  1  0  0  0
 83173  1  0  0  0
 83174  1  0  0  0
 84 87  1  0  0  0
 84175  1  0  0  0
 84176  1  0  0  0
 85 87  1  0  0  0
 85177  1  0  0  0
 85178  1  0  0  0
 86 91  1  0  0  0
 86 92  1  0  0  0
 86 93  1  0  0  0
M  ISO  4   1 100  68 101  85 101  90 100
M  END
> <chiral flag>
0

> <version>
0

> <s_m_source_file>
/data/baiqing/PycharmProjects/Reinvent-master-3.2/result/LINK_invent/BTK/process_docking_weight1_custom_sum_contain_oxygen_bond_distance_aromatic_linkinvent_7_9_3/rearranged_h_0066.sdf

> <i_m_source_file_index>
78

> <r_mmod_Potential_Energy-OPLS-2005>
271.166229248047

> <r_mmod_Stretch_Energy-OPLS-2005>
46.8897399902344

> <r_mmod_Bend_Energy-OPLS-2005>
112.780075073242

> <r_mmod_Torsional_Energy-OPLS-2005>
320.108093261719

> <r_mmod_Improper_Torsional_Energy-OPLS-2005>
3.85335922241211

> <r_mmod_Van_der_Waal_Energy-OPLS-2005>
159.178558349609

> <r_mmod_Electrostatic_Energy-OPLS-2005>
-203.935028076172

> <r_mmod_Solvation_Energy-OPLS-2005>
-181.900314331055

> <b_mmod_Minimization_Converged-OPLS-2005>
0

> <r_mmod_RMS_Derivative-OPLS-2005>
3.79410409927368

$$$$
83
                    3D
 Structure written by MMmdl.
165173  0  0  1  0            999 V2000
  -30.6752  -14.6016   20.4832 C   0  0  0  0  0  0
  -30.3991  -12.3608   19.4793 C   0  0  0  0  0  0
  -29.4933  -12.4704   18.2331 C   0  0  0  0  0  0
  -28.0274  -12.2603   18.6459 C   0  0  0  0  0  0
  -27.6205  -13.1882   19.8130 C   0  0  2  0  0  0
  -28.6530  -13.1881   20.9642 C   0  0  0  0  0  0
  -25.2490  -13.8164   20.5597 C   0  0  0  0  0  0
  -24.1738  -13.0568   20.9138 C   0  0  0  0  0  0
  -24.6254  -11.6979   20.8698 C   0  0  0  0  0  0
  -23.8972  -10.4403   21.0407 C   0  0  0  0  0  0
  -24.3601   -9.4343   21.9160 C   0  0  0  0  0  0
  -23.6305   -8.2364   22.0785 C   0  0  0  0  0  0
  -22.4270   -8.0362   21.3604 C   0  0  0  0  0  0
  -21.9873   -9.0297   20.4707 C   0  0  0  0  0  0
  -22.7155  -10.2201   20.3072 C   0  0  0  0  0  0
  -21.6875   -6.0746   22.5257 C   0  0  0  0  0  0
  -21.4017   -6.5642   23.8205 C   0  0  0  0  0  0
  -21.3640   -5.6789   24.9144 C   0  0  0  0  0  0
  -21.6076   -4.3057   24.7195 C   0  0  0  0  0  0
  -21.8845   -3.8159   23.4297 C   0  0  0  0  0  0
  -21.9227   -4.6975   22.3382 C   0  0  0  0  0  0
  -22.7803  -13.5431   21.1842 C   0  0  0  0  0  0
  -22.1716   -4.2166   21.0943 F   0  0  0  0  0  0
  -21.5619   -3.4549   25.7698 F   0  0  0  0  0  0
  -29.9915  -13.4222   20.4188 N   0  0  0  0  0  0
  -26.2778  -12.9230   20.3076 N   0  0  0  0  0  0
  -25.9122  -11.6458   20.5672 N   0  0  0  0  0  0
  -22.0453  -12.8379   22.0373 N   0  0  0  0  0  0
  -25.4438  -15.1864   20.4058 N   0  0  0  0  0  0
  -31.8761  -14.6295   20.1943 O   0  0  0  0  0  0
  -21.6699   -6.8893   21.4253 O   0  0  0  0  0  0
  -22.3529  -14.5802   20.6747 O   0  0  0  0  0  0
  -24.6133  -31.8747   23.2183 C   0  0  0  0  0  0
  -25.9037  -32.4879   23.8471 C   0  0  1  0  0  0
  -27.2046  -27.4046   20.1433 C   0  0  0  0  0  0
  -25.5904  -33.8683   24.2406 N   0  0  0  0  0  0
  -23.3963  -30.5094   21.5552 C   0  0  2  0  0  0
  -24.8384  -28.9659   20.1317 C   0  0  0  0  0  0
  -22.7330  -29.4795   22.5005 C   0  0  0  0  0  0
  -18.0271  -28.1388   22.8419 C   0  0  0  0  0  0
  -24.1460  -36.7275   23.2657 C   0  0  0  0  0  0
  -25.9317  -30.8420   21.3765 C   0  0  0  0  0  0
  -26.0090  -29.4778   20.7122 C   0  0  0  0  0  0
  -27.1948  -28.7075   20.7056 C   0  0  0  0  0  0
  -26.0067  -26.9083   19.5941 C   0  0  0  0  0  0
  -24.8298  -27.6752   19.5783 C   0  0  0  0  0  0
  -23.6070  -29.8418   20.1731 C   0  0  0  0  0  0
  -25.4089  -36.3156   24.0379 C   0  0  1  0  0  0
  -20.5832  -28.3708   23.1219 C   0  0  2  0  0  0
  -20.6731  -26.9438   22.5354 C   0  0  0  0  0  0
  -19.5734  -26.6391   21.5128 C   0  0  0  0  0  0
  -18.1931  -26.7929   22.1563 C   0  0  0  0  0  0
  -19.1511  -28.8857   23.2846 C   0  0  0  0  0  0
  -18.9460  -30.1456   23.8897 C   0  0  0  0  0  0
  -17.6476  -30.6614   24.0538 C   0  0  0  0  0  0
  -25.9046  -34.9522   23.5205 C   0  0  0  0  0  0
  -16.5355  -29.9117   23.6317 C   0  0  0  0  0  0
  -16.7267  -28.6512   23.0340 C   0  0  0  0  0  0
  -26.4508  -31.6632   25.0765 C   0  0  0  0  0  0
  -25.3737  -31.3655   26.1453 C   0  0  0  0  0  0
  -27.0367  -30.3053   24.6208 C   0  0  0  0  0  0
  -27.6158  -32.4330   25.7447 C   0  0  0  0  0  0
  -27.5571  -37.1793   24.8482 C   0  0  0  0  0  0
  -21.4078  -29.3123   22.3640 N   0  0  0  0  0  0
  -26.4286  -37.3835   23.9441 N   0  0  0  0  0  0
  -24.6658  -31.0853   22.1100 N   0  0  0  0  0  0
  -23.4091  -28.8361   23.3083 O   0  0  0  0  0  0
  -28.3554  -26.6402   20.0880 O   0  0  0  0  0  0
  -26.5600  -34.8954   22.4767 O   0  0  0  0  0  0
  -23.5325  -32.1556   23.7609 O   0  0  0  0  0  0
  -30.7704  -20.2687   21.0176 C   0  0  0  0  0  0
  -30.0236  -18.3951   21.5887 C   0  0  0  0  0  0
  -31.0037  -16.4728   22.9092 C   0  0  0  0  0  0
  -28.5801  -16.6192   22.6726 C   0  0  0  0  0  0
  -27.7115  -24.1000   18.7386 C   0  0  0  0  0  0
  -26.5917  -23.6620   20.9187 C   0  0  0  0  0  0
  -29.0105  -22.8370   20.5359 C   0  0  0  0  0  0
  -28.7338  -21.7202   21.5975 C   0  0  0  0  0  0
  -28.4278  -25.4185   20.8721 C   0  0  0  0  0  0
  -29.9081  -16.8710   21.8875 C   0  0  0  0  0  0
  -29.9484  -16.0068   20.5415 C   0  0  0  0  0  0
  -27.9569  -24.0153   20.2758 C   0  0  0  0  0  0
  -31.1654  -18.9966   21.1042 N   0  0  0  0  0  0
  -29.0123  -19.2612   21.7861 N   0  0  0  0  0  0
  -29.5127  -20.4768   21.4141 N   0  0  0  0  0  0
  -30.5586  -16.7288   19.5961 F   0  0  0  0  0  0
  -28.7042  -15.9026   20.0906 F   0  0  0  0  0  0
  -31.4479  -12.4303   19.1861 H   0  0  0  0  0  0
  -30.2890  -11.3846   19.9511 H   0  0  0  0  0  0
  -29.7932  -11.7342   17.4860 H   0  0  0  0  0  0
  -29.5996  -13.4507   17.7612 H   0  0  0  0  0  0
  -27.9036  -11.2162   18.9348 H   0  0  0  0  0  0
  -27.3645  -12.4252   17.7967 H   0  0  0  0  0  0
  -27.5763  -14.1662   19.3433 H   0  0  0  0  0  0
  -28.6279  -12.2641   21.5407 H   0  0  0  0  0  0
  -28.3798  -13.9724   21.6646 H   0  0  0  0  0  0
  -25.2772   -9.5891   22.4662 H   0  0  0  0  0  0
  -24.0079   -7.4822   22.7498 H   0  0  0  0  0  0
  -21.0811   -8.8782   19.9017 H   0  0  0  0  0  0
  -22.3586  -10.9713   19.6171 H   0  0  0  0  0  0
  -21.2002   -7.6160   23.9683 H   0  0  0  0  0  0
  -21.1411   -6.0513   25.9041 H   0  0  0  0  0  0
  -22.0627   -2.7627   23.2769 H   0  0  0  0  0  0
  -22.4089  -11.9970   22.4609 H   0  0  0  0  0  0
  -21.1156  -13.1439   22.2821 H   0  0  0  0  0  0
  -24.7062  -15.8687   20.5314 H   0  0  0  0  0  0
  -26.3205  -15.5939   20.1108 H   0  0  0  0  0  0
  -26.7074  -32.5627   23.1215 H   0  0  0  0  0  0
  -24.9939  -33.9862   25.0456 H   0  0  0  0  0  0
  -22.6895  -31.3317   21.4140 H   0  0  0  0  0  0
  -23.3800  -35.9546   23.3385 H   0  0  0  0  0  0
  -24.3527  -36.8811   22.2057 H   0  0  0  0  0  0
  -23.7111  -37.6455   23.6621 H   0  0  0  0  0  0
  -26.0535  -31.6313   20.6343 H   0  0  0  0  0  0
  -26.8106  -30.8831   22.0082 H   0  0  0  0  0  0
  -28.0848  -29.1034   21.1731 H   0  0  0  0  0  0
  -25.9614  -25.9102   19.2042 H   0  0  0  0  0  0
  -23.9119  -27.2515   19.1897 H   0  0  0  0  0  0
  -23.7272  -30.6205   19.4178 H   0  0  0  0  0  0
  -22.7312  -29.2703   19.8625 H   0  0  0  0  0  0
  -25.1271  -36.2041   25.0875 H   0  0  0  0  0  0
  -20.9926  -28.3292   24.1332 H   0  0  0  0  0  0
  -20.5456  -26.2394   23.3581 H   0  0  0  0  0  0
  -21.6633  -26.7406   22.1257 H   0  0  0  0  0  0
  -19.6902  -25.6282   21.1215 H   0  0  0  0  0  0
  -19.6661  -27.3132   20.6587 H   0  0  0  0  0  0
  -17.4147  -26.6606   21.4031 H   0  0  0  0  0  0
  -18.0438  -26.0121   22.9008 H   0  0  0  0  0  0
  -19.7970  -30.7235   24.2281 H   0  0  0  0  0  0
  -17.5077  -31.6291   24.5150 H   0  0  0  0  0  0
  -15.5363  -30.3038   23.7695 H   0  0  0  0  0  0
  -15.8634  -28.0855   22.7074 H   0  0  0  0  0  0
  -24.5900  -30.7094   25.7616 H   0  0  0  0  0  0
  -24.8942  -32.2777   26.5015 H   0  0  0  0  0  0
  -25.8018  -30.8598   27.0107 H   0  0  0  0  0  0
  -26.2941  -29.6737   24.1294 H   0  0  0  0  0  0
  -27.4097  -29.7374   25.4745 H   0  0  0  0  0  0
  -27.8825  -30.4354   23.9449 H   0  0  0  0  0  0
  -27.2887  -33.3605   26.2156 H   0  0  0  0  0  0
  -28.3848  -32.6913   25.0154 H   0  0  0  0  0  0
  -28.1000  -31.8350   26.5176 H   0  0  0  0  0  0
  -28.2651  -38.0035   24.7560 H   0  0  0  0  0  0
  -28.1007  -36.2582   24.6313 H   0  0  0  0  0  0
  -27.2296  -37.1444   25.8885 H   0  0  0  0  0  0
  -20.9250  -29.8837   21.6831 H   0  0  0  0  0  0
  -26.0203  -38.2933   24.1426 H   0  0  0  0  0  0
  -31.4034  -21.0713   20.6616 H   0  0  0  0  0  0
  -32.0041  -16.6097   22.5063 H   0  0  0  0  0  0
  -30.9043  -15.4310   23.2086 H   0  0  0  0  0  0
  -30.9362  -17.0592   23.8278 H   0  0  0  0  0  0
  -28.4804  -15.6128   23.0804 H   0  0  0  0  0  0
  -27.6937  -16.8261   22.0684 H   0  0  0  0  0  0
  -28.5057  -17.2712   23.5424 H   0  0  0  0  0  0
  -28.1445  -23.2801   18.1676 H   0  0  0  0  0  0
  -28.0849  -25.0155   18.2824 H   0  0  0  0  0  0
  -26.6508  -24.0629   18.5000 H   0  0  0  0  0  0
  -26.1636  -22.7506   20.5006 H   0  0  0  0  0  0
  -25.8519  -24.4450   20.7690 H   0  0  0  0  0  0
  -26.6790  -23.5305   21.9989 H   0  0  0  0  0  0
  -29.1643  -22.2793   19.6148 H   0  0  0  0  0  0
  -29.9938  -23.2581   20.7493 H   0  0  0  0  0  0
  -27.6831  -21.4295   21.5795 H   0  0  0  0  0  0
  -28.9627  -22.1114   22.5932 H   0  0  0  0  0  0
  -29.4866  -25.3602   21.1149 H   0  0  0  0  0  0
  -27.9499  -25.6024   21.8362 H   0  0  0  0  0  0
  1 25  1  0  0  0
  1 30  2  0  0  0
  1 81  1  0  0  0
  2  3  1  0  0  0
  2 25  1  0  0  0
  2 88  1  0  0  0
  2 89  1  0  0  0
  3  4  1  0  0  0
  3 90  1  0  0  0
  3 91  1  0  0  0
  4  5  1  0  0  0
  4 92  1  0  0  0
  4 93  1  0  0  0
  5  6  1  0  0  0
  5 26  1  0  0  0
  5 94  1  0  0  0
  6 25  1  0  0  0
  6 95  1  0  0  0
  6 96  1  0  0  0
  7  8  2  0  0  0
  7 26  1  0  0  0
  7 29  1  0  0  0
  8  9  1  0  0  0
  8 22  1  0  0  0
  9 10  1  0  0  0
  9 27  2  0  0  0
 10 11  2  0  0  0
 10 15  1  0  0  0
 11 12  1  0  0  0
 11 97  1  0  0  0
 12 13  2  0  0  0
 12 98  1  0  0  0
 13 14  1  0  0  0
 13 31  1  0  0  0
 14 15  2  0  0  0
 14 99  1  0  0  0
 15100  1  0  0  0
 16 17  2  0  0  0
 16 21  1  0  0  0
 16 31  1  0  0  0
 17 18  1  0  0  0
 17101  1  0  0  0
 18 19  2  0  0  0
 18102  1  0  0  0
 19 20  1  0  0  0
 19 24  1  0  0  0
 20 21  2  0  0  0
 20103  1  0  0  0
 21 23  1  0  0  0
 22 28  1  0  0  0
 22 32  2  0  0  0
 26 27  1  0  0  0
 28104  1  0  0  0
 28105  1  0  0  0
 29106  1  0  0  0
 29107  1  0  0  0
 33 34  1  0  0  0
 33 66  1  0  0  0
 33 70  2  0  0  0
 34 36  1  0  0  0
 34 59  1  0  0  0
 34108  1  0  0  0
 35 44  2  0  0  0
 35 45  1  0  0  0
 35 68  1  0  0  0
 36 56  1  0  0  0
 36109  1  0  0  0
 37 39  1  0  0  0
 37 47  1  0  0  0
 37 66  1  0  0  0
 37110  1  0  0  0
 38 43  2  0  0  0
 38 46  1  0  0  0
 38 47  1  0  0  0
 39 64  1  0  0  0
 39 67  2  0  0  0
 40 52  1  0  0  0
 40 53  2  0  0  0
 40 58  1  0  0  0
 41111  1  0  0  0
 41112  1  0  0  0
 41113  1  0  0  0
 41 48  1  0  0  0
 42 43  1  0  0  0
 42 66  1  0  0  0
 42114  1  0  0  0
 42115  1  0  0  0
 43 44  1  0  0  0
 44116  1  0  0  0
 45 46  2  0  0  0
 45117  1  0  0  0
 46118  1  0  0  0
 47119  1  0  0  0
 47120  1  0  0  0
 48 56  1  0  0  0
 48 65  1  0  0  0
 48121  1  0  0  0
 49 50  1  0  0  0
 49 53  1  0  0  0
 49 64  1  0  0  0
 49122  1  0  0  0
 50 51  1  0  0  0
 50123  1  0  0  0
 50124  1  0  0  0
 51 52  1  0  0  0
 51125  1  0  0  0
 51126  1  0  0  0
 52127  1  0  0  0
 52128  1  0  0  0
 53 54  1  0  0  0
 54 55  2  0  0  0
 54129  1  0  0  0
 55 57  1  0  0  0
 55130  1  0  0  0
 56 69  2  0  0  0
 57 58  2  0  0  0
 57131  1  0  0  0
 58132  1  0  0  0
 59 60  1  0  0  0
 59 61  1  0  0  0
 59 62  1  0  0  0
 60133  1  0  0  0
 60134  1  0  0  0
 60135  1  0  0  0
 61136  1  0  0  0
 61137  1  0  0  0
 61138  1  0  0  0
 62139  1  0  0  0
 62140  1  0  0  0
 62141  1  0  0  0
 63 65  1  0  0  0
 63142  1  0  0  0
 63143  1  0  0  0
 63144  1  0  0  0
 64145  1  0  0  0
 65146  1  0  0  0
 68 79  1  0  0  0
 71 83  2  0  0  0
 71 85  1  0  0  0
 71147  1  0  0  0
 72 80  1  0  0  0
 72 83  1  0  0  0
 72 84  2  0  0  0
 73148  1  0  0  0
 73149  1  0  0  0
 73150  1  0  0  0
 73 80  1  0  0  0
 74 80  1  0  0  0
 74151  1  0  0  0
 74152  1  0  0  0
 74153  1  0  0  0
 75154  1  0  0  0
 75155  1  0  0  0
 75156  1  0  0  0
 75 82  1  0  0  0
 76 82  1  0  0  0
 76157  1  0  0  0
 76158  1  0  0  0
 76159  1  0  0  0
 77 78  1  0  0  0
 77 82  1  0  0  0
 77160  1  0  0  0
 77161  1  0  0  0
 78 85  1  0  0  0
 78162  1  0  0  0
 78163  1  0  0  0
 79 82  1  0  0  0
 79164  1  0  0  0
 79165  1  0  0  0
 80 81  1  0  0  0
 81 86  1  0  0  0
 81 87  1  0  0  0
 84 85  1  0  0  0
M  ISO  4   1 100  68 101  79 101  81 100
M  END
> <chiral flag>
0

> <version>
0

> <s_m_source_file>
/data/baiqing/PycharmProjects/Reinvent-master-3.2/result/LINK_invent/BTK/process_docking_weight1_custom_sum_contain_oxygen_bond_distance_aromatic_linkinvent_7_9_3/rearranged_h_0066.sdf

> <i_m_source_file_index>
79

> <r_mmod_Potential_Energy-OPLS-2005>
223.325332641602

> <r_mmod_Stretch_Energy-OPLS-2005>
69.2843856811523

> <r_mmod_Bend_Energy-OPLS-2005>
158.445098876953

> <r_mmod_Torsional_Energy-OPLS-2005>
266.156341552734

> <r_mmod_Improper_Torsional_Energy-OPLS-2005>
8.87742042541504

> <r_mmod_Van_der_Waal_Energy-OPLS-2005>
158.599533081055

> <r_mmod_Electrostatic_Energy-OPLS-2005>
-282.672576904297

> <r_mmod_Solvation_Energy-OPLS-2005>
-197.277496337891

> <b_mmod_Minimization_Converged-OPLS-2005>
0

> <r_mmod_RMS_Derivative-OPLS-2005>
9.21089935302734

$$$$
84
                    3D
 Structure written by MMmdl.
182190  0  0  1  0            999 V2000
  -30.7306  -14.4816   20.5269 C   0  0  0  0  0  0
  -30.4225  -12.2944   19.4441 C   0  0  0  0  0  0
  -29.5116  -12.4925   18.2166 C   0  0  0  0  0  0
  -28.0243  -12.3679   18.6189 C   0  0  0  0  0  0
  -27.6638  -13.2152   19.8694 C   0  0  2  0  0  0
  -28.7068  -13.0318   20.9975 C   0  0  0  0  0  0
  -25.2632  -13.8197   20.5702 C   0  0  0  0  0  0
  -24.1864  -13.0459   20.9149 C   0  0  0  0  0  0
  -24.6408  -11.6909   20.8647 C   0  0  0  0  0  0
  -23.9066  -10.4282   21.0310 C   0  0  0  0  0  0
  -24.3586   -9.4217   21.9126 C   0  0  0  0  0  0
  -23.6264   -8.2248   22.0704 C   0  0  0  0  0  0
  -22.4250   -8.0234   21.3510 C   0  0  0  0  0  0
  -21.9870   -9.0216   20.4650 C   0  0  0  0  0  0
  -22.7189  -10.2091   20.3043 C   0  0  0  0  0  0
  -21.6858   -6.0690   22.5245 C   0  0  0  0  0  0
  -21.4017   -6.5589   23.8181 C   0  0  0  0  0  0
  -21.3692   -5.6735   24.9145 C   0  0  0  0  0  0
  -21.6092   -4.2994   24.7194 C   0  0  0  0  0  0
  -21.8838   -3.8080   23.4320 C   0  0  0  0  0  0
  -21.9186   -4.6911   22.3386 C   0  0  0  0  0  0
  -22.7877  -13.5265   21.1815 C   0  0  0  0  0  0
  -22.1680   -4.2094   21.0962 F   0  0  0  0  0  0
  -21.5650   -3.4475   25.7720 F   0  0  0  0  0  0
  -30.0348  -13.3113   20.4354 N   0  0  0  0  0  0
  -26.3074  -12.9377   20.3375 N   0  0  0  0  0  0
  -25.9352  -11.6511   20.5702 N   0  0  0  0  0  0
  -22.0491  -12.8320   22.0408 N   0  0  0  0  0  0
  -25.4406  -15.1903   20.4173 N   0  0  0  0  0  0
  -31.9181  -14.5582   20.1960 O   0  0  0  0  0  0
  -21.6664   -6.8797   21.4184 O   0  0  0  0  0  0
  -22.3577  -14.5547   20.6637 O   0  0  0  0  0  0
  -24.6125  -31.8705   23.2137 C   0  0  0  0  0  0
  -25.9018  -32.4839   23.8439 C   0  0  1  0  0  0
  -27.2546  -27.4613   20.0946 C   0  0  0  0  0  0
  -25.5897  -33.8641   24.2370 N   0  0  0  0  0  0
  -23.4039  -30.4919   21.5531 C   0  0  2  0  0  0
  -24.8603  -28.9579   20.1289 C   0  0  0  0  0  0
  -22.7416  -29.4661   22.5004 C   0  0  0  0  0  0
  -18.0268  -28.1374   22.8486 C   0  0  0  0  0  0
  -24.1493  -36.7314   23.2639 C   0  0  0  0  0  0
  -25.9335  -30.8374   21.3755 C   0  0  0  0  0  0
  -26.0168  -29.4679   20.7357 C   0  0  0  0  0  0
  -27.2193  -28.7223   20.7327 C   0  0  0  0  0  0
  -26.0848  -26.9630   19.4901 C   0  0  0  0  0  0
  -24.8860  -27.6968   19.5105 C   0  0  0  0  0  0
  -23.6194  -29.8219   20.1702 C   0  0  0  0  0  0
  -25.4108  -36.3123   24.0352 C   0  0  1  0  0  0
  -20.5858  -28.3662   23.1321 C   0  0  2  0  0  0
  -20.6763  -26.9395   22.5414 C   0  0  0  0  0  0
  -19.5752  -26.6383   21.5209 C   0  0  0  0  0  0
  -18.1925  -26.7913   22.1608 C   0  0  0  0  0  0
  -19.1511  -28.8833   23.2901 C   0  0  0  0  0  0
  -18.9439  -30.1449   23.8907 C   0  0  0  0  0  0
  -17.6449  -30.6592   24.0556 C   0  0  0  0  0  0
  -25.9021  -34.9481   23.5153 C   0  0  0  0  0  0
  -16.5343  -29.9094   23.6332 C   0  0  0  0  0  0
  -16.7257  -28.6505   23.0346 C   0  0  0  0  0  0
  -26.4461  -31.6589   25.0742 C   0  0  0  0  0  0
  -25.3729  -31.3683   26.1492 C   0  0  0  0  0  0
  -27.0270  -30.3016   24.6101 C   0  0  0  0  0  0
  -27.6047  -32.4300   25.7494 C   0  0  0  0  0  0
  -27.5593  -37.1817   24.8466 C   0  0  0  0  0  0
  -21.4142  -29.3040   22.3741 N   0  0  0  0  0  0
  -26.4301  -37.3800   23.9416 N   0  0  0  0  0  0
  -24.6663  -31.0812   22.1053 N   0  0  0  0  0  0
  -23.4187  -28.8183   23.3029 O   0  0  0  0  0  0
  -28.3798  -26.6900   19.9349 O   0  0  0  0  0  0
  -26.5578  -34.8922   22.4705 O   0  0  0  0  0  0
  -23.5309  -32.1446   23.7530 O   0  0  0  0  0  0
  -29.0561  -18.0731   23.7834 C   0  0  0  0  0  0
  -30.6945  -17.0996   22.3198 C   0  0  0  0  0  0
  -30.4031  -17.9773   23.3869 C   0  0  0  0  0  0
  -28.0708  -17.3513   23.0888 C   0  0  0  0  0  0
  -29.6681  -16.3491   21.7025 C   0  0  0  0  0  0
  -30.2171  -20.8564   24.7195 C   0  0  0  0  0  0
  -32.5531  -20.4877   25.5067 C   0  0  0  0  0  0
  -30.0145  -16.4142   19.2974 C   0  0  0  0  0  0
  -32.8888  -24.0250   19.7003 C   0  0  0  0  0  0
  -31.5360  -18.6783   24.1498 C   0  0  0  0  0  0
  -32.3676  -22.4833   23.1763 C   0  0  0  0  0  0
  -32.1193  -20.9498   23.0410 C   0  0  0  0  0  0
  -30.2643  -25.4273   20.4698 C   0  0  0  0  0  0
  -33.0538  -23.1839   21.9803 C   0  0  0  0  0  0
  -31.3889  -24.9762   21.4330 C   0  0  0  0  0  0
  -29.3572  -26.5805   20.9614 C   0  0  0  0  0  0
  -26.5881  -17.5290   23.4277 C   0  0  0  0  0  0
  -31.5796  -20.2436   24.3259 C   0  0  0  0  0  0
  -28.3802  -16.4933   22.0813 N   0  0  0  0  0  0
  -29.9720  -15.6098   20.5271 N   0  0  0  0  0  0
  -32.1353  -23.7675   20.9556 N   0  3  1  0  0  0
  -26.3904  -18.5467   24.2750 F   0  0  0  0  0  0
  -25.9003  -17.7906   22.3122 F   0  0  0  0  0  0
  -26.1026  -16.4145   23.9832 F   0  0  0  0  0  0
  -31.4735  -12.3559   19.1505 H   0  0  0  0  0  0
  -30.2858  -11.2923   19.8603 H   0  0  0  0  0  0
  -29.7467  -11.7535   17.4484 H   0  0  0  0  0  0
  -29.7021  -13.4735   17.7759 H   0  0  0  0  0  0
  -27.8280  -11.3142   18.8142 H   0  0  0  0  0  0
  -27.3871  -12.6446   17.7808 H   0  0  0  0  0  0
  -27.6955  -14.2608   19.5541 H   0  0  0  0  0  0
  -28.6850  -12.0112   21.3876 H   0  0  0  0  0  0
  -28.4834  -13.6857   21.8398 H   0  0  0  0  0  0
  -25.2707   -9.5729   22.4730 H   0  0  0  0  0  0
  -23.9970   -7.4657   22.7433 H   0  0  0  0  0  0
  -21.0800   -8.8735   19.8968 H   0  0  0  0  0  0
  -22.3619  -10.9608   19.6158 H   0  0  0  0  0  0
  -21.2025   -7.6108   23.9677 H   0  0  0  0  0  0
  -21.1502   -6.0457   25.9045 H   0  0  0  0  0  0
  -22.0606   -2.7533   23.2834 H   0  0  0  0  0  0
  -22.4045  -12.0032   22.4947 H   0  0  0  0  0  0
  -21.1073  -13.1341   22.2406 H   0  0  0  0  0  0
  -24.7031  -15.8555   20.6261 H   0  0  0  0  0  0
  -26.3533  -15.6225   20.3106 H   0  0  0  0  0  0
  -26.7091  -32.5582   23.1214 H   0  0  0  0  0  0
  -25.0074  -33.9817   25.0537 H   0  0  0  0  0  0
  -22.6923  -31.3071   21.4102 H   0  0  0  0  0  0
  -23.3762  -35.9643   23.3310 H   0  0  0  0  0  0
  -24.3585  -36.8906   22.2050 H   0  0  0  0  0  0
  -23.7230  -37.6520   23.6630 H   0  0  0  0  0  0
  -26.0469  -31.6000   20.6032 H   0  0  0  0  0  0
  -26.8201  -30.8944   21.9951 H   0  0  0  0  0  0
  -28.1140  -29.1296   21.1818 H   0  0  0  0  0  0
  -26.1097  -26.0050   18.9898 H   0  0  0  0  0  0
  -24.0001  -27.2966   19.0383 H   0  0  0  0  0  0
  -23.7328  -30.5944   19.4084 H   0  0  0  0  0  0
  -22.7462  -29.2377   19.8716 H   0  0  0  0  0  0
  -25.1280  -36.2006   25.0848 H   0  0  0  0  0  0
  -20.9953  -28.3220   24.1445 H   0  0  0  0  0  0
  -20.5692  -26.2256   23.3597 H   0  0  0  0  0  0
  -21.6635  -26.7454   22.1208 H   0  0  0  0  0  0
  -19.6914  -25.6305   21.1234 H   0  0  0  0  0  0
  -19.6704  -27.3205   20.6755 H   0  0  0  0  0  0
  -17.4201  -26.6683   21.3999 H   0  0  0  0  0  0
  -18.0308  -26.0058   22.9012 H   0  0  0  0  0  0
  -19.7919  -30.7243   24.2281 H   0  0  0  0  0  0
  -17.5007  -31.6271   24.5155 H   0  0  0  0  0  0
  -15.5342  -30.2984   23.7656 H   0  0  0  0  0  0
  -15.8657  -28.0837   22.7037 H   0  0  0  0  0  0
  -24.5924  -30.6995   25.7847 H   0  0  0  0  0  0
  -24.8886  -32.2824   26.4935 H   0  0  0  0  0  0
  -25.8091  -30.8874   27.0254 H   0  0  0  0  0  0
  -26.2797  -29.6805   24.1131 H   0  0  0  0  0  0
  -27.4005  -29.7226   25.4564 H   0  0  0  0  0  0
  -27.8670  -30.4332   23.9269 H   0  0  0  0  0  0
  -27.2679  -33.3605   26.2080 H   0  0  0  0  0  0
  -28.3842  -32.6842   25.0297 H   0  0  0  0  0  0
  -28.0721  -31.8404   26.5393 H   0  0  0  0  0  0
  -28.2619  -38.0112   24.7510 H   0  0  0  0  0  0
  -28.1074  -36.2636   24.6286 H   0  0  0  0  0  0
  -27.2301  -37.1452   25.8868 H   0  0  0  0  0  0
  -20.9292  -29.8751   21.6958 H   0  0  0  0  0  0
  -26.0201  -38.2886   24.1408 H   0  0  0  0  0  0
  -28.7538  -18.6931   24.6137 H   0  0  0  0  0  0
  -31.7123  -17.0064   21.9617 H   0  0  0  0  0  0
  -29.7855  -20.3557   25.5863 H   0  0  0  0  0  0
  -29.4980  -20.8073   23.9006 H   0  0  0  0  0  0
  -30.3081  -21.9056   24.9987 H   0  0  0  0  0  0
  -32.2043  -20.0036   26.4200 H   0  0  0  0  0  0
  -32.6616  -21.5396   25.7604 H   0  0  0  0  0  0
  -33.5499  -20.0968   25.2959 H   0  0  0  0  0  0
  -29.5348  -17.3830   19.4392 H   0  0  0  0  0  0
  -29.5039  -15.8986   18.4819 H   0  0  0  0  0  0
  -31.0397  -16.6106   18.9812 H   0  0  0  0  0  0
  -33.4283  -23.1365   19.3720 H   0  0  0  0  0  0
  -33.6248  -24.8191   19.8413 H   0  0  0  0  0  0
  -32.2424  -24.3085   18.8710 H   0  0  0  0  0  0
  -32.4890  -18.3416   23.7366 H   0  0  0  0  0  0
  -31.4993  -18.2262   25.1429 H   0  0  0  0  0  0
  -33.0574  -22.6507   24.0024 H   0  0  0  0  0  0
  -31.4513  -22.9959   23.4603 H   0  0  0  0  0  0
  -33.0578  -20.4721   22.7482 H   0  0  0  0  0  0
  -31.4262  -20.7704   22.2139 H   0  0  0  0  0  0
  -29.6341  -24.5658   20.2477 H   0  0  0  0  0  0
  -30.6944  -25.7379   19.5194 H   0  0  0  0  0  0
  -33.7389  -22.4728   21.5131 H   0  0  0  0  0  0
  -33.6873  -23.9939   22.3474 H   0  0  0  0  0  0
  -30.9225  -24.7763   22.3941 H   0  0  0  0  0  0
  -32.0821  -25.8009   21.6011 H   0  0  0  0  0  0
  -29.9214  -27.5078   21.0761 H   0  0  0  0  0  0
  -28.8876  -26.3329   21.9151 H   0  0  0  0  0  0
  -31.4598  -23.0491   20.7413 H   0  0  0  0  0  0
  1 25  1  0  0  0
  1 30  2  0  0  0
  1 90  1  0  0  0
  2  3  1  0  0  0
  2 25  1  0  0  0
  2 95  1  0  0  0
  2 96  1  0  0  0
  3  4  1  0  0  0
  3 97  1  0  0  0
  3 98  1  0  0  0
  4  5  1  0  0  0
  4 99  1  0  0  0
  4100  1  0  0  0
  5  6  1  0  0  0
  5 26  1  0  0  0
  5101  1  0  0  0
  6 25  1  0  0  0
  6102  1  0  0  0
  6103  1  0  0  0
  7  8  2  0  0  0
  7 26  1  0  0  0
  7 29  1  0  0  0
  8  9  1  0  0  0
  8 22  1  0  0  0
  9 10  1  0  0  0
  9 27  2  0  0  0
 10 11  2  0  0  0
 10 15  1  0  0  0
 11 12  1  0  0  0
 11104  1  0  0  0
 12 13  2  0  0  0
 12105  1  0  0  0
 13 14  1  0  0  0
 13 31  1  0  0  0
 14 15  2  0  0  0
 14106  1  0  0  0
 15107  1  0  0  0
 16 17  2  0  0  0
 16 21  1  0  0  0
 16 31  1  0  0  0
 17 18  1  0  0  0
 17108  1  0  0  0
 18 19  2  0  0  0
 18109  1  0  0  0
 19 20  1  0  0  0
 19 24  1  0  0  0
 20 21  2  0  0  0
 20110  1  0  0  0
 21 23  1  0  0  0
 22 28  1  0  0  0
 22 32  2  0  0  0
 26 27  1  0  0  0
 28111  1  0  0  0
 28112  1  0  0  0
 29113  1  0  0  0
 29114  1  0  0  0
 33 34  1  0  0  0
 33 66  1  0  0  0
 33 70  2  0  0  0
 34 36  1  0  0  0
 34 59  1  0  0  0
 34115  1  0  0  0
 35 44  2  0  0  0
 35 45  1  0  0  0
 35 68  1  0  0  0
 36 56  1  0  0  0
 36116  1  0  0  0
 37 39  1  0  0  0
 37 47  1  0  0  0
 37 66  1  0  0  0
 37117  1  0  0  0
 38 43  2  0  0  0
 38 46  1  0  0  0
 38 47  1  0  0  0
 39 64  1  0  0  0
 39 67  2  0  0  0
 40 52  1  0  0  0
 40 53  2  0  0  0
 40 58  1  0  0  0
 41118  1  0  0  0
 41119  1  0  0  0
 41120  1  0  0  0
 41 48  1  0  0  0
 42 43  1  0  0  0
 42 66  1  0  0  0
 42121  1  0  0  0
 42122  1  0  0  0
 43 44  1  0  0  0
 44123  1  0  0  0
 45 46  2  0  0  0
 45124  1  0  0  0
 46125  1  0  0  0
 47126  1  0  0  0
 47127  1  0  0  0
 48 56  1  0  0  0
 48 65  1  0  0  0
 48128  1  0  0  0
 49 50  1  0  0  0
 49 53  1  0  0  0
 49 64  1  0  0  0
 49129  1  0  0  0
 50 51  1  0  0  0
 50130  1  0  0  0
 50131  1  0  0  0
 51 52  1  0  0  0
 51132  1  0  0  0
 51133  1  0  0  0
 52134  1  0  0  0
 52135  1  0  0  0
 53 54  1  0  0  0
 54 55  2  0  0  0
 54136  1  0  0  0
 55 57  1  0  0  0
 55137  1  0  0  0
 56 69  2  0  0  0
 57 58  2  0  0  0
 57138  1  0  0  0
 58139  1  0  0  0
 59 60  1  0  0  0
 59 61  1  0  0  0
 59 62  1  0  0  0
 60140  1  0  0  0
 60141  1  0  0  0
 60142  1  0  0  0
 61143  1  0  0  0
 61144  1  0  0  0
 61145  1  0  0  0
 62146  1  0  0  0
 62147  1  0  0  0
 62148  1  0  0  0
 63 65  1  0  0  0
 63149  1  0  0  0
 63150  1  0  0  0
 63151  1  0  0  0
 64152  1  0  0  0
 65153  1  0  0  0
 68 86  1  0  0  0
 71 73  2  0  0  0
 71 74  1  0  0  0
 71154  1  0  0  0
 72 73  1  0  0  0
 72 75  2  0  0  0
 72155  1  0  0  0
 73 80  1  0  0  0
 74 87  1  0  0  0
 74 89  2  0  0  0
 75 89  1  0  0  0
 75 90  1  0  0  0
 76156  1  0  0  0
 76157  1  0  0  0
 76158  1  0  0  0
 76 88  1  0  0  0
 77 88  1  0  0  0
 77159  1  0  0  0
 77160  1  0  0  0
 77161  1  0  0  0
 78 90  1  0  0  0
 78162  1  0  0  0
 78163  1  0  0  0
 78164  1  0  0  0
 79165  1  0  0  0
 79166  1  0  0  0
 79167  1  0  0  0
 79 91  1  0  0  0
 80 88  1  0  0  0
 80168  1  0  0  0
 80169  1  0  0  0
 81 82  1  0  0  0
 81 84  1  0  0  0
 81170  1  0  0  0
 81171  1  0  0  0
 82 88  1  0  0  0
 82172  1  0  0  0
 82173  1  0  0  0
 83 85  1  0  0  0
 83 86  1  0  0  0
 83174  1  0  0  0
 83175  1  0  0  0
 84 91  1  0  0  0
 84176  1  0  0  0
 84177  1  0  0  0
 85 91  1  0  0  0
 85178  1  0  0  0
 85179  1  0  0  0
 86180  1  0  0  0
 86181  1  0  0  0
 87 92  1  0  0  0
 87 93  1  0  0  0
 87 94  1  0  0  0
 91182  1  0  0  0
M  CHG  1  91   1
M  ISO  4   1 100  68 101  86 101  90 100
M  END
> <chiral flag>
0

> <version>
0

> <s_m_source_file>
/data/baiqing/PycharmProjects/Reinvent-master-3.2/result/LINK_invent/BTK/process_docking_weight1_custom_sum_contain_oxygen_bond_distance_aromatic_linkinvent_7_9_3/rearranged_h_0066.sdf

> <i_m_source_file_index>
80

> <r_mmod_Potential_Energy-OPLS-2005>
58.2348480224609

> <r_mmod_Stretch_Energy-OPLS-2005>
44.8386878967285

> <r_mmod_Bend_Energy-OPLS-2005>
142.37385559082

> <r_mmod_Torsional_Energy-OPLS-2005>
329.849487304688

> <r_mmod_Improper_Torsional_Energy-OPLS-2005>
18.3889675140381

> <r_mmod_Van_der_Waal_Energy-OPLS-2005>
153.744979858398

> <r_mmod_Electrostatic_Energy-OPLS-2005>
-234.365829467773

> <r_mmod_Solvation_Energy-OPLS-2005>
-415.083770751953

> <b_mmod_Minimization_Converged-OPLS-2005>
0

> <r_mmod_RMS_Derivative-OPLS-2005>
5.5339617729187

$$$$
85
                    3D
 Structure written by MMmdl.
152160  0  0  1  0            999 V2000
  -30.5668  -14.8807   20.4366 C   0  0  0  0  0  0
  -30.4409  -12.5328   19.4840 C   0  0  0  0  0  0
  -29.5169  -12.5079   18.2423 C   0  0  0  0  0  0
  -28.0508  -12.2919   18.6596 C   0  0  0  0  0  0
  -27.6324  -13.2231   19.8234 C   0  0  2  0  0  0
  -28.6782  -13.2427   20.9651 C   0  0  0  0  0  0
  -25.2509  -13.8138   20.5619 C   0  0  0  0  0  0
  -24.1813  -13.0406   20.9215 C   0  0  0  0  0  0
  -24.6390  -11.6888   20.8768 C   0  0  0  0  0  0
  -23.9053  -10.4274   21.0423 C   0  0  0  0  0  0
  -24.3600   -9.4185   21.9202 C   0  0  0  0  0  0
  -23.6286   -8.2211   22.0755 C   0  0  0  0  0  0
  -22.4269   -8.0252   21.3530 C   0  0  0  0  0  0
  -21.9895   -9.0235   20.4648 C   0  0  0  0  0  0
  -22.7222  -10.2119   20.3072 C   0  0  0  0  0  0
  -21.6838   -6.0750   22.5294 C   0  0  0  0  0  0
  -21.4023   -6.5664   23.8235 C   0  0  0  0  0  0
  -21.3659   -5.6802   24.9192 C   0  0  0  0  0  0
  -21.6027   -4.3063   24.7212 C   0  0  0  0  0  0
  -21.8825   -3.8162   23.4335 C   0  0  0  0  0  0
  -21.9194   -4.6988   22.3408 C   0  0  0  0  0  0
  -22.7854  -13.5226   21.1898 C   0  0  0  0  0  0
  -22.1647   -4.2189   21.0967 F   0  0  0  0  0  0
  -21.5624   -3.4539   25.7704 F   0  0  0  0  0  0
  -29.9792  -13.6187   20.3888 N   0  0  0  0  0  0
  -26.2918  -12.9333   20.3156 N   0  0  0  0  0  0
  -25.9314  -11.6497   20.5741 N   0  0  0  0  0  0
  -22.0451  -12.8248   22.0447 N   0  0  0  0  0  0
  -25.4191  -15.1855   20.3981 N   0  0  0  0  0  0
  -31.7472  -14.9643   20.0719 O   0  0  0  0  0  0
  -21.6601   -6.8871   21.4242 O   0  0  0  0  0  0
  -22.3572  -14.5543   20.6736 O   0  0  0  0  0  0
  -24.6352  -31.8530   23.1945 C   0  0  0  0  0  0
  -25.9144  -32.4747   23.8325 C   0  0  1  0  0  0
  -27.2544  -27.2359   20.1265 C   0  0  0  0  0  0
  -25.5936  -33.8558   24.2242 N   0  0  0  0  0  0
  -23.4360  -30.4682   21.5424 C   0  0  2  0  0  0
  -24.8912  -28.9081   20.1151 C   0  0  0  0  0  0
  -22.7542  -29.4560   22.4945 C   0  0  0  0  0  0
  -18.0302  -28.1392   22.8464 C   0  0  0  0  0  0
  -24.1500  -36.7268   23.2641 C   0  0  0  0  0  0
  -25.9875  -30.7515   21.3856 C   0  0  0  0  0  0
  -26.0636  -29.3733   20.7219 C   0  0  0  0  0  0
  -27.2441  -28.5533   20.7110 C   0  0  0  0  0  0
  -26.0468  -26.8420   19.4992 C   0  0  0  0  0  0
  -24.8893  -27.6489   19.4931 C   0  0  0  0  0  0
  -23.6585  -29.7932   20.1621 C   0  0  0  0  0  0
  -25.4128  -36.3074   24.0338 C   0  0  1  0  0  0
  -20.5902  -28.3690   23.1272 C   0  0  2  0  0  0
  -20.6805  -26.9406   22.5402 C   0  0  0  0  0  0
  -19.5776  -26.6363   21.5218 C   0  0  0  0  0  0
  -18.1953  -26.7926   22.1615 C   0  0  0  0  0  0
  -19.1551  -28.8860   23.2853 C   0  0  0  0  0  0
  -18.9468  -30.1470   23.8849 C   0  0  0  0  0  0
  -17.6468  -30.6588   24.0554 C   0  0  0  0  0  0
  -25.9076  -34.9448   23.5091 C   0  0  0  0  0  0
  -16.5358  -29.9070   23.6350 C   0  0  0  0  0  0
  -16.7287  -28.6496   23.0347 C   0  0  0  0  0  0
  -26.4472  -31.6614   25.0755 C   0  0  0  0  0  0
  -25.3665  -31.3800   26.1462 C   0  0  0  0  0  0
  -27.0354  -30.3037   24.6303 C   0  0  0  0  0  0
  -27.6013  -32.4376   25.7503 C   0  0  0  0  0  0
  -27.5604  -37.1758   24.8439 C   0  0  0  0  0  0
  -21.4241  -29.3014   22.3662 N   0  0  0  0  0  0
  -26.4280  -37.3786   23.9425 N   0  0  0  0  0  0
  -24.7055  -31.0431   22.0959 N   0  0  0  0  0  0
  -23.4225  -28.8142   23.3093 O   0  0  0  0  0  0
  -28.3673  -26.3396   20.1728 O   0  0  0  0  0  0
  -26.5650  -34.8919   22.4664 O   0  0  0  0  0  0
  -23.5479  -32.1370   23.7203 O   0  0  0  0  0  0
  -29.6294  -20.0271   21.4464 C   0  0  0  0  0  0
  -29.4912  -20.6564   20.1804 C   0  0  0  0  0  0
  -29.7886  -19.7160   19.1445 C   0  0  0  0  0  0
  -30.0186  -17.8245   20.5913 C   0  0  0  0  0  0
  -29.8577  -20.1836   17.6994 C   0  0  0  0  0  0
  -28.7610  -22.0946   19.9391 C   0  0  0  0  0  0
  -29.2565  -23.6333   20.2283 C   0  0  0  0  0  0
  -28.1716  -24.8469   19.9513 C   0  0  0  0  0  0
  -29.7339  -16.2300   20.9005 C   0  0  0  0  0  0
  -29.8794  -18.6882   21.6252 N   0  0  0  0  0  0
  -30.0035  -18.3627   19.3465 N   0  0  0  0  0  0
  -29.6746  -16.1407   22.2346 F   0  0  0  0  0  0
  -28.4808  -16.0885   20.4650 F   0  0  0  0  0  0
  -31.4765  -12.6718   19.1714 H   0  0  0  0  0  0
  -30.4034  -11.5736   20.0004 H   0  0  0  0  0  0
  -29.8314  -11.7159   17.5606 H   0  0  0  0  0  0
  -29.6083  -13.4432   17.6868 H   0  0  0  0  0  0
  -27.9501  -11.2511   18.9650 H   0  0  0  0  0  0
  -27.3820  -12.4212   17.8059 H   0  0  0  0  0  0
  -27.5940  -14.2127   19.3725 H   0  0  0  0  0  0
  -28.7383  -12.2760   21.4681 H   0  0  0  0  0  0
  -28.3677  -13.9568   21.7294 H   0  0  0  0  0  0
  -25.2734   -9.5706   22.4817 H   0  0  0  0  0  0
  -24.0011   -7.4616   22.7490 H   0  0  0  0  0  0
  -21.0820   -8.8776   19.8974 H   0  0  0  0  0  0
  -22.3672  -10.9677   19.6222 H   0  0  0  0  0  0
  -21.2018   -7.6168   23.9773 H   0  0  0  0  0  0
  -21.1490   -6.0499   25.9102 H   0  0  0  0  0  0
  -22.0604   -2.7617   23.2797 H   0  0  0  0  0  0
  -22.3950  -11.9868   22.4864 H   0  0  0  0  0  0
  -21.1134  -13.1426   22.2699 H   0  0  0  0  0  0
  -24.6503  -15.8382   20.5057 H   0  0  0  0  0  0
  -26.2706  -15.6257   20.0721 H   0  0  0  0  0  0
  -26.7214  -32.5387   23.1068 H   0  0  0  0  0  0
  -25.0086  -33.9696   25.0388 H   0  0  0  0  0  0
  -22.7335  -31.2901   21.3902 H   0  0  0  0  0  0
  -23.3814  -35.9541   23.3228 H   0  0  0  0  0  0
  -24.3602  -36.8964   22.2065 H   0  0  0  0  0  0
  -23.7166  -37.6407   23.6716 H   0  0  0  0  0  0
  -26.1405  -31.5152   20.6229 H   0  0  0  0  0  0
  -26.8567  -30.7924   22.0295 H   0  0  0  0  0  0
  -28.1432  -28.9154   21.1907 H   0  0  0  0  0  0
  -25.9693  -25.8807   19.0164 H   0  0  0  0  0  0
  -23.9930  -27.2806   19.0137 H   0  0  0  0  0  0
  -23.7806  -30.5665   19.4031 H   0  0  0  0  0  0
  -22.7773  -29.2222   19.8621 H   0  0  0  0  0  0
  -25.1293  -36.1912   25.0824 H   0  0  0  0  0  0
  -20.9970  -28.3270   24.1407 H   0  0  0  0  0  0
  -20.5727  -26.2306   23.3610 H   0  0  0  0  0  0
  -21.6679  -26.7457   22.1179 H   0  0  0  0  0  0
  -19.6949  -25.6262   21.1274 H   0  0  0  0  0  0
  -19.6734  -27.3161   20.6739 H   0  0  0  0  0  0
  -17.4229  -26.6671   21.4008 H   0  0  0  0  0  0
  -18.0345  -26.0078   22.9016 H   0  0  0  0  0  0
  -19.7950  -30.7311   24.2192 H   0  0  0  0  0  0
  -17.5019  -31.6265   24.5158 H   0  0  0  0  0  0
  -15.5351  -30.2957   23.7705 H   0  0  0  0  0  0
  -15.8698  -28.0822   22.7070 H   0  0  0  0  0  0
  -24.5758  -30.7274   25.7734 H   0  0  0  0  0  0
  -24.8970  -32.3019   26.4921 H   0  0  0  0  0  0
  -25.7922  -30.8875   27.0217 H   0  0  0  0  0  0
  -26.2998  -29.6752   24.1287 H   0  0  0  0  0  0
  -27.3977  -29.7320   25.4844 H   0  0  0  0  0  0
  -27.8881  -30.4299   23.9635 H   0  0  0  0  0  0
  -27.2614  -33.3675   26.2067 H   0  0  0  0  0  0
  -28.3814  -32.6947   25.0329 H   0  0  0  0  0  0
  -28.0720  -31.8543   26.5423 H   0  0  0  0  0  0
  -28.2525  -38.0153   24.7654 H   0  0  0  0  0  0
  -28.1207  -36.2697   24.6070 H   0  0  0  0  0  0
  -27.2355  -37.1153   25.8841 H   0  0  0  0  0  0
  -20.9477  -29.8698   21.6789 H   0  0  0  0  0  0
  -26.0177  -38.2840   24.1509 H   0  0  0  0  0  0
  -29.4392  -20.5874   22.3479 H   0  0  0  0  0  0
  -30.5802  -21.0004   17.6220 H   0  0  0  0  0  0
  -28.8939  -20.5579   17.3561 H   0  0  0  0  0  0
  -30.1777  -19.3976   17.0157 H   0  0  0  0  0  0
  -27.8227  -21.9986   20.4850 H   0  0  0  0  0  0
  -28.4384  -22.1084   18.8984 H   0  0  0  0  0  0
  -30.1415  -23.8321   19.6237 H   0  0  0  0  0  0
  -29.5933  -23.7088   21.2605 H   0  0  0  0  0  0
  -27.2879  -24.5741   20.5280 H   0  0  0  0  0  0
  -27.8800  -24.7409   18.9055 H   0  0  0  0  0  0
  1 25  1  0  0  0
  1 30  2  0  0  0
  1 79  1  0  0  0
  2  3  1  0  0  0
  2 25  1  0  0  0
  2 84  1  0  0  0
  2 85  1  0  0  0
  3  4  1  0  0  0
  3 86  1  0  0  0
  3 87  1  0  0  0
  4  5  1  0  0  0
  4 88  1  0  0  0
  4 89  1  0  0  0
  5  6  1  0  0  0
  5 26  1  0  0  0
  5 90  1  0  0  0
  6 25  1  0  0  0
  6 91  1  0  0  0
  6 92  1  0  0  0
  7  8  2  0  0  0
  7 26  1  0  0  0
  7 29  1  0  0  0
  8  9  1  0  0  0
  8 22  1  0  0  0
  9 10  1  0  0  0
  9 27  2  0  0  0
 10 11  2  0  0  0
 10 15  1  0  0  0
 11 12  1  0  0  0
 11 93  1  0  0  0
 12 13  2  0  0  0
 12 94  1  0  0  0
 13 14  1  0  0  0
 13 31  1  0  0  0
 14 15  2  0  0  0
 14 95  1  0  0  0
 15 96  1  0  0  0
 16 17  2  0  0  0
 16 21  1  0  0  0
 16 31  1  0  0  0
 17 18  1  0  0  0
 17 97  1  0  0  0
 18 19  2  0  0  0
 18 98  1  0  0  0
 19 20  1  0  0  0
 19 24  1  0  0  0
 20 21  2  0  0  0
 20 99  1  0  0  0
 21 23  1  0  0  0
 22 28  1  0  0  0
 22 32  2  0  0  0
 26 27  1  0  0  0
 28100  1  0  0  0
 28101  1  0  0  0
 29102  1  0  0  0
 29103  1  0  0  0
 33 34  1  0  0  0
 33 66  1  0  0  0
 33 70  2  0  0  0
 34 36  1  0  0  0
 34 59  1  0  0  0
 34104  1  0  0  0
 35 44  2  0  0  0
 35 45  1  0  0  0
 35 68  1  0  0  0
 36 56  1  0  0  0
 36105  1  0  0  0
 37 39  1  0  0  0
 37 47  1  0  0  0
 37 66  1  0  0  0
 37106  1  0  0  0
 38 43  2  0  0  0
 38 46  1  0  0  0
 38 47  1  0  0  0
 39 64  1  0  0  0
 39 67  2  0  0  0
 40 52  1  0  0  0
 40 53  2  0  0  0
 40 58  1  0  0  0
 41107  1  0  0  0
 41108  1  0  0  0
 41109  1  0  0  0
 41 48  1  0  0  0
 42 43  1  0  0  0
 42 66  1  0  0  0
 42110  1  0  0  0
 42111  1  0  0  0
 43 44  1  0  0  0
 44112  1  0  0  0
 45 46  2  0  0  0
 45113  1  0  0  0
 46114  1  0  0  0
 47115  1  0  0  0
 47116  1  0  0  0
 48 56  1  0  0  0
 48 65  1  0  0  0
 48117  1  0  0  0
 49 50  1  0  0  0
 49 53  1  0  0  0
 49 64  1  0  0  0
 49118  1  0  0  0
 50 51  1  0  0  0
 50119  1  0  0  0
 50120  1  0  0  0
 51 52  1  0  0  0
 51121  1  0  0  0
 51122  1  0  0  0
 52123  1  0  0  0
 52124  1  0  0  0
 53 54  1  0  0  0
 54 55  2  0  0  0
 54125  1  0  0  0
 55 57  1  0  0  0
 55126  1  0  0  0
 56 69  2  0  0  0
 57 58  2  0  0  0
 57127  1  0  0  0
 58128  1  0  0  0
 59 60  1  0  0  0
 59 61  1  0  0  0
 59 62  1  0  0  0
 60129  1  0  0  0
 60130  1  0  0  0
 60131  1  0  0  0
 61132  1  0  0  0
 61133  1  0  0  0
 61134  1  0  0  0
 62135  1  0  0  0
 62136  1  0  0  0
 62137  1  0  0  0
 63 65  1  0  0  0
 63138  1  0  0  0
 63139  1  0  0  0
 63140  1  0  0  0
 64141  1  0  0  0
 65142  1  0  0  0
 68 78  1  0  0  0
 71 72  2  0  0  0
 71 80  1  0  0  0
 71143  1  0  0  0
 72 73  1  0  0  0
 72 76  1  0  0  0
 73 75  1  0  0  0
 73 81  2  0  0  0
 74 79  1  0  0  0
 74 80  2  0  0  0
 74 81  1  0  0  0
 75144  1  0  0  0
 75145  1  0  0  0
 75146  1  0  0  0
 76 77  1  0  0  0
 76147  1  0  0  0
 76148  1  0  0  0
 77 78  1  0  0  0
 77149  1  0  0  0
 77150  1  0  0  0
 78151  1  0  0  0
 78152  1  0  0  0
 79 82  1  0  0  0
 79 83  1  0  0  0
M  ISO  4   1 100  68 101  78 101  79 100
M  END
> <chiral flag>
0

> <version>
0

> <s_m_source_file>
/data/baiqing/PycharmProjects/Reinvent-master-3.2/result/LINK_invent/BTK/process_docking_weight1_custom_sum_contain_oxygen_bond_distance_aromatic_linkinvent_7_9_3/rearranged_h_0066.sdf

> <i_m_source_file_index>
81

> <r_mmod_Potential_Energy-OPLS-2005>
220.962814331055

> <r_mmod_Stretch_Energy-OPLS-2005>
181.591766357422

> <r_mmod_Bend_Energy-OPLS-2005>
251.745864868164

> <r_mmod_Torsional_Energy-OPLS-2005>
200.498016357422

> <r_mmod_Improper_Torsional_Energy-OPLS-2005>
8.10281753540039

> <r_mmod_Van_der_Waal_Energy-OPLS-2005>
146.746383666992

> <r_mmod_Electrostatic_Energy-OPLS-2005>
-489.391632080078

> <r_mmod_Solvation_Energy-OPLS-2005>
-206.711776733398

> <b_mmod_Minimization_Converged-OPLS-2005>
0

> <r_mmod_RMS_Derivative-OPLS-2005>
4.75609731674194

$$$$
86
                    3D
 Structure written by MMmdl.
178186  0  0  1  0            999 V2000
  -30.7000  -14.4359   20.5921 C   0  0  0  0  0  0
  -30.4309  -12.2954   19.4072 C   0  0  0  0  0  0
  -29.5038  -12.5304   18.1959 C   0  0  0  0  0  0
  -28.0171  -12.4016   18.5949 C   0  0  0  0  0  0
  -27.6677  -13.2076   19.8737 C   0  0  2  0  0  0
  -28.7073  -12.9410   20.9879 C   0  0  0  0  0  0
  -25.2580  -13.8178   20.5682 C   0  0  0  0  0  0
  -24.1819  -13.0449   20.9151 C   0  0  0  0  0  0
  -24.6380  -11.6929   20.8689 C   0  0  0  0  0  0
  -23.9051  -10.4316   21.0359 C   0  0  0  0  0  0
  -24.3615   -9.4236   21.9153 C   0  0  0  0  0  0
  -23.6317   -8.2257   22.0735 C   0  0  0  0  0  0
  -22.4279   -8.0297   21.3541 C   0  0  0  0  0  0
  -21.9907   -9.0254   20.4632 C   0  0  0  0  0  0
  -22.7225  -10.2136   20.3028 C   0  0  0  0  0  0
  -21.6868   -6.0736   22.5290 C   0  0  0  0  0  0
  -21.4002   -6.5627   23.8222 C   0  0  0  0  0  0
  -21.3649   -5.6771   24.9180 C   0  0  0  0  0  0
  -21.6048   -4.3042   24.7224 C   0  0  0  0  0  0
  -21.8817   -3.8131   23.4348 C   0  0  0  0  0  0
  -21.9190   -4.6963   22.3390 C   0  0  0  0  0  0
  -22.7838  -13.5250   21.1818 C   0  0  0  0  0  0
  -22.1666   -4.2147   21.0975 F   0  0  0  0  0  0
  -21.5642   -3.4508   25.7734 F   0  0  0  0  0  0
  -30.0463  -13.2528   20.4547 N   0  0  0  0  0  0
  -26.3027  -12.9369   20.3318 N   0  0  0  0  0  0
  -25.9295  -11.6530   20.5678 N   0  0  0  0  0  0
  -22.0447  -12.8267   22.0369 N   0  0  0  0  0  0
  -25.4299  -15.1916   20.4150 N   0  0  0  0  0  0
  -31.7978  -14.6705   20.0840 O   0  0  0  0  0  0
  -21.6651   -6.8893   21.4263 O   0  0  0  0  0  0
  -22.3504  -14.5535   20.6650 O   0  0  0  0  0  0
  -24.6149  -31.8682   23.2062 C   0  0  0  0  0  0
  -25.9038  -32.4819   23.8372 C   0  0  1  0  0  0
  -27.2411  -27.4337   20.0997 C   0  0  0  0  0  0
  -25.5893  -33.8617   24.2290 N   0  0  0  0  0  0
  -23.4011  -30.4878   21.5516 C   0  0  2  0  0  0
  -24.8478  -28.9489   20.1194 C   0  0  0  0  0  0
  -22.7406  -29.4645   22.5012 C   0  0  0  0  0  0
  -18.0272  -28.1382   22.8493 C   0  0  0  0  0  0
  -24.1497  -36.7315   23.2631 C   0  0  0  0  0  0
  -25.9305  -30.8323   21.3611 C   0  0  0  0  0  0
  -26.0069  -29.4665   20.7096 C   0  0  0  0  0  0
  -27.2059  -28.7180   20.6905 C   0  0  0  0  0  0
  -26.0602  -26.9237   19.5144 C   0  0  0  0  0  0
  -24.8693  -27.6759   19.5214 C   0  0  0  0  0  0
  -23.6073  -29.8135   20.1685 C   0  0  0  0  0  0
  -25.4113  -36.3108   24.0336 C   0  0  1  0  0  0
  -20.5858  -28.3650   23.1351 C   0  0  2  0  0  0
  -20.6771  -26.9385   22.5440 C   0  0  0  0  0  0
  -19.5749  -26.6374   21.5240 C   0  0  0  0  0  0
  -18.1913  -26.7931   22.1626 C   0  0  0  0  0  0
  -19.1511  -28.8835   23.2910 C   0  0  0  0  0  0
  -18.9437  -30.1458   23.8880 C   0  0  0  0  0  0
  -17.6440  -30.6582   24.0564 C   0  0  0  0  0  0
  -25.9038  -34.9475   23.5121 C   0  0  0  0  0  0
  -16.5324  -29.9069   23.6355 C   0  0  0  0  0  0
  -16.7261  -28.6504   23.0327 C   0  0  0  0  0  0
  -26.4451  -31.6593   25.0701 C   0  0  0  0  0  0
  -25.3703  -31.3739   26.1455 C   0  0  0  0  0  0
  -27.0253  -30.3006   24.6096 C   0  0  0  0  0  0
  -27.6033  -32.4310   25.7463 C   0  0  0  0  0  0
  -27.5608  -37.1794   24.8448 C   0  0  0  0  0  0
  -21.4133  -29.3002   22.3750 N   0  0  0  0  0  0
  -26.4306  -37.3793   23.9410 N   0  0  0  0  0  0
  -24.6667  -31.0773   22.0977 N   0  0  0  0  0  0
  -23.4185  -28.8201   23.3073 O   0  0  0  0  0  0
  -28.4384  -26.7504   20.0574 O   0  0  0  0  0  0
  -26.5600  -34.8946   22.4670 O   0  0  0  0  0  0
  -23.5336  -32.1446   23.7454 O   0  0  0  0  0  0
  -30.1221  -20.3179   21.6532 C   0  0  0  0  0  0
  -29.3435  -19.1480   21.6986 C   0  0  0  0  0  0
  -29.4413  -21.5305   21.4109 C   0  0  0  0  0  0
  -27.4699  -20.3777   21.2425 C   0  0  0  0  0  0
  -25.5190  -21.0983   19.7772 C   0  0  0  0  0  0
  -25.2752  -21.0024   22.3318 C   0  0  0  0  0  0
  -31.3890  -22.7610   19.3531 C   0  0  0  0  0  0
  -31.5916  -24.7448   20.8318 C   0  0  0  0  0  0
  -30.0744  -25.4732   18.3997 C   0  0  0  0  0  0
  -28.5629  -23.5553   18.5707 C   0  0  0  0  0  0
  -29.8885  -17.7709   22.0772 C   0  0  0  0  0  0
  -30.1093  -22.9009   21.5410 C   0  0  0  0  0  0
  -30.1006  -16.8449   20.8574 C   0  0  0  0  0  0
  -28.4635  -25.3419   20.3581 C   0  0  0  0  0  0
  -25.9553  -20.4152   21.0843 C   0  0  0  0  0  0
  -30.5725  -23.7147   20.2665 C   0  0  0  0  0  0
  -29.4353  -24.5038   19.4393 C   0  0  0  0  0  0
  -28.0192  -19.1929   21.4714 N   0  0  0  0  0  0
  -28.1085  -21.5402   21.2434 N   0  0  0  0  0  0
  -29.9775  -15.4080   21.1671 N   0  0  0  0  0  0
  -31.4751  -12.4013   19.1106 H   0  0  0  0  0  0
  -30.3345  -11.2751   19.7794 H   0  0  0  0  0  0
  -29.7465  -11.8231   17.4025 H   0  0  0  0  0  0
  -29.6804  -13.5226   17.7763 H   0  0  0  0  0  0
  -27.8017  -11.3471   18.7608 H   0  0  0  0  0  0
  -27.3801  -12.7160   17.7661 H   0  0  0  0  0  0
  -27.7190  -14.2640   19.6049 H   0  0  0  0  0  0
  -28.6699  -11.8914   21.2818 H   0  0  0  0  0  0
  -28.4695  -13.4993   21.8929 H   0  0  0  0  0  0
  -25.2780   -9.5723   22.4687 H   0  0  0  0  0  0
  -24.0044   -7.4652   22.7447 H   0  0  0  0  0  0
  -21.0842   -8.8793   19.8928 H   0  0  0  0  0  0
  -22.3736  -10.9666   19.6097 H   0  0  0  0  0  0
  -21.1995   -7.6131   23.9727 H   0  0  0  0  0  0
  -21.1462   -6.0491   25.9090 H   0  0  0  0  0  0
  -22.0606   -2.7603   23.2828 H   0  0  0  0  0  0
  -22.4084  -11.9999   22.4867 H   0  0  0  0  0  0
  -21.1019  -13.1295   22.2456 H   0  0  0  0  0  0
  -24.6658  -15.8511   20.5277 H   0  0  0  0  0  0
  -26.2950  -15.6359   20.1334 H   0  0  0  0  0  0
  -26.7104  -32.5528   23.1136 H   0  0  0  0  0  0
  -25.0055  -33.9771   25.0445 H   0  0  0  0  0  0
  -22.6899  -31.3043   21.4119 H   0  0  0  0  0  0
  -23.3798  -35.9611   23.3237 H   0  0  0  0  0  0
  -24.3611  -36.8982   22.2060 H   0  0  0  0  0  0
  -23.7223  -37.6490   23.6680 H   0  0  0  0  0  0
  -26.0432  -31.5989   20.5940 H   0  0  0  0  0  0
  -26.8176  -30.8840   21.9815 H   0  0  0  0  0  0
  -28.1070  -29.1188   21.1310 H   0  0  0  0  0  0
  -26.0583  -25.9538   19.0361 H   0  0  0  0  0  0
  -23.9759  -27.2701   19.0667 H   0  0  0  0  0  0
  -23.7003  -30.5845   19.4033 H   0  0  0  0  0  0
  -22.7345  -29.2231   19.8861 H   0  0  0  0  0  0
  -25.1285  -36.1966   25.0840 H   0  0  0  0  0  0
  -20.9947  -28.3219   24.1479 H   0  0  0  0  0  0
  -20.5745  -26.2228   23.3610 H   0  0  0  0  0  0
  -21.6639  -26.7480   22.1192 H   0  0  0  0  0  0
  -19.6903  -25.6286   21.1263 H   0  0  0  0  0  0
  -19.6713  -27.3204   20.6783 H   0  0  0  0  0  0
  -17.4213  -26.6723   21.3989 H   0  0  0  0  0  0
  -18.0261  -26.0060   22.9010 H   0  0  0  0  0  0
  -19.7911  -30.7296   24.2215 H   0  0  0  0  0  0
  -17.4985  -31.6276   24.5150 H   0  0  0  0  0  0
  -15.5315  -30.2941   23.7708 H   0  0  0  0  0  0
  -15.8678  -28.0848   22.6985 H   0  0  0  0  0  0
  -24.5834  -30.7129   25.7799 H   0  0  0  0  0  0
  -24.8942  -32.2918   26.4913 H   0  0  0  0  0  0
  -25.8033  -30.8890   27.0211 H   0  0  0  0  0  0
  -26.2781  -29.6794   24.1138 H   0  0  0  0  0  0
  -27.3968  -29.7223   25.4569 H   0  0  0  0  0  0
  -27.8658  -30.4278   23.9266 H   0  0  0  0  0  0
  -27.2658  -33.3626   26.2028 H   0  0  0  0  0  0
  -28.3852  -32.6844   25.0286 H   0  0  0  0  0  0
  -28.0695  -31.8434   26.5385 H   0  0  0  0  0  0
  -28.2574  -38.0140   24.7577 H   0  0  0  0  0  0
  -28.1147  -36.2677   24.6156 H   0  0  0  0  0  0
  -27.2337  -37.1334   25.8848 H   0  0  0  0  0  0
  -20.9282  -29.8682   21.6937 H   0  0  0  0  0  0
  -26.0197  -38.2870   24.1417 H   0  0  0  0  0  0
  -31.1848  -20.2927   21.8657 H   0  0  0  0  0  0
  -25.9792  -20.6098   18.9181 H   0  0  0  0  0  0
  -25.8066  -22.1502   19.7577 H   0  0  0  0  0  0
  -24.4407  -21.0442   19.6470 H   0  0  0  0  0  0
  -25.5322  -20.4143   23.2145 H   0  0  0  0  0  0
  -24.1909  -21.0030   22.2333 H   0  0  0  0  0  0
  -25.6003  -22.0280   22.5125 H   0  0  0  0  0  0
  -32.2217  -22.3144   19.8986 H   0  0  0  0  0  0
  -31.8302  -23.2720   18.4991 H   0  0  0  0  0  0
  -30.7889  -21.9373   18.9666 H   0  0  0  0  0  0
  -32.3490  -24.2770   21.4632 H   0  0  0  0  0  0
  -31.1026  -25.5004   21.4460 H   0  0  0  0  0  0
  -32.1485  -25.2632   20.0535 H   0  0  0  0  0  0
  -29.3086  -25.9678   17.8022 H   0  0  0  0  0  0
  -30.7300  -24.9733   17.6896 H   0  0  0  0  0  0
  -30.6403  -26.2767   18.8687 H   0  0  0  0  0  0
  -27.8022  -24.1161   18.0273 H   0  0  0  0  0  0
  -28.0183  -22.8185   19.1484 H   0  0  0  0  0  0
  -29.1390  -23.0135   17.8195 H   0  0  0  0  0  0
  -29.1748  -17.3215   22.7696 H   0  0  0  0  0  0
  -30.8168  -17.8863   22.6397 H   0  0  0  0  0  0
  -30.9938  -22.6884   22.1411 H   0  0  0  0  0  0
  -29.5041  -23.5063   22.2138 H   0  0  0  0  0  0
  -31.0468  -17.0944   20.3753 H   0  0  0  0  0  0
  -29.3234  -17.0473   20.1197 H   0  0  0  0  0  0
  -28.7852  -25.3138   21.3953 H   0  0  0  0  0  0
  -27.4702  -24.8896   20.3775 H   0  0  0  0  0  0
  -25.6179  -19.3787   21.0084 H   0  0  0  0  0  0
  -29.1018  -15.1092   21.5679 H   0  0  0  0  0  0
  1 25  1  0  0  0
  1 30  2  0  0  0
  1 90  1  0  0  0
  2  3  1  0  0  0
  2 25  1  0  0  0
  2 91  1  0  0  0
  2 92  1  0  0  0
  3  4  1  0  0  0
  3 93  1  0  0  0
  3 94  1  0  0  0
  4  5  1  0  0  0
  4 95  1  0  0  0
  4 96  1  0  0  0
  5  6  1  0  0  0
  5 26  1  0  0  0
  5 97  1  0  0  0
  6 25  1  0  0  0
  6 98  1  0  0  0
  6 99  1  0  0  0
  7  8  2  0  0  0
  7 26  1  0  0  0
  7 29  1  0  0  0
  8  9  1  0  0  0
  8 22  1  0  0  0
  9 10  1  0  0  0
  9 27  2  0  0  0
 10 11  2  0  0  0
 10 15  1  0  0  0
 11 12  1  0  0  0
 11100  1  0  0  0
 12 13  2  0  0  0
 12101  1  0  0  0
 13 14  1  0  0  0
 13 31  1  0  0  0
 14 15  2  0  0  0
 14102  1  0  0  0
 15103  1  0  0  0
 16 17  2  0  0  0
 16 21  1  0  0  0
 16 31  1  0  0  0
 17 18  1  0  0  0
 17104  1  0  0  0
 18 19  2  0  0  0
 18105  1  0  0  0
 19 20  1  0  0  0
 19 24  1  0  0  0
 20 21  2  0  0  0
 20106  1  0  0  0
 21 23  1  0  0  0
 22 28  1  0  0  0
 22 32  2  0  0  0
 26 27  1  0  0  0
 28107  1  0  0  0
 28108  1  0  0  0
 29109  1  0  0  0
 29110  1  0  0  0
 33 34  1  0  0  0
 33 66  1  0  0  0
 33 70  2  0  0  0
 34 36  1  0  0  0
 34 59  1  0  0  0
 34111  1  0  0  0
 35 44  2  0  0  0
 35 45  1  0  0  0
 35 68  1  0  0  0
 36 56  1  0  0  0
 36112  1  0  0  0
 37 39  1  0  0  0
 37 47  1  0  0  0
 37 66  1  0  0  0
 37113  1  0  0  0
 38 43  2  0  0  0
 38 46  1  0  0  0
 38 47  1  0  0  0
 39 64  1  0  0  0
 39 67  2  0  0  0
 40 52  1  0  0  0
 40 53  2  0  0  0
 40 58  1  0  0  0
 41114  1  0  0  0
 41115  1  0  0  0
 41116  1  0  0  0
 41 48  1  0  0  0
 42 43  1  0  0  0
 42 66  1  0  0  0
 42117  1  0  0  0
 42118  1  0  0  0
 43 44  1  0  0  0
 44119  1  0  0  0
 45 46  2  0  0  0
 45120  1  0  0  0
 46121  1  0  0  0
 47122  1  0  0  0
 47123  1  0  0  0
 48 56  1  0  0  0
 48 65  1  0  0  0
 48124  1  0  0  0
 49 50  1  0  0  0
 49 53  1  0  0  0
 49 64  1  0  0  0
 49125  1  0  0  0
 50 51  1  0  0  0
 50126  1  0  0  0
 50127  1  0  0  0
 51 52  1  0  0  0
 51128  1  0  0  0
 51129  1  0  0  0
 52130  1  0  0  0
 52131  1  0  0  0
 53 54  1  0  0  0
 54 55  2  0  0  0
 54132  1  0  0  0
 55 57  1  0  0  0
 55133  1  0  0  0
 56 69  2  0  0  0
 57 58  2  0  0  0
 57134  1  0  0  0
 58135  1  0  0  0
 59 60  1  0  0  0
 59 61  1  0  0  0
 59 62  1  0  0  0
 60136  1  0  0  0
 60137  1  0  0  0
 60138  1  0  0  0
 61139  1  0  0  0
 61140  1  0  0  0
 61141  1  0  0  0
 62142  1  0  0  0
 62143  1  0  0  0
 62144  1  0  0  0
 63 65  1  0  0  0
 63145  1  0  0  0
 63146  1  0  0  0
 63147  1  0  0  0
 64148  1  0  0  0
 65149  1  0  0  0
 68 84  1  0  0  0
 71 72  2  0  0  0
 71 73  1  0  0  0
 71150  1  0  0  0
 72 81  1  0  0  0
 72 88  1  0  0  0
 73 82  1  0  0  0
 73 89  2  0  0  0
 74 85  1  0  0  0
 74 88  2  0  0  0
 74 89  1  0  0  0
 75151  1  0  0  0
 75152  1  0  0  0
 75153  1  0  0  0
 75 85  1  0  0  0
 76 85  1  0  0  0
 76154  1  0  0  0
 76155  1  0  0  0
 76156  1  0  0  0
 77157  1  0  0  0
 77158  1  0  0  0
 77159  1  0  0  0
 77 86  1  0  0  0
 78 86  1  0  0  0
 78160  1  0  0  0
 78161  1  0  0  0
 78162  1  0  0  0
 79163  1  0  0  0
 79164  1  0  0  0
 79165  1  0  0  0
 79 87  1  0  0  0
 80 87  1  0  0  0
 80166  1  0  0  0
 80167  1  0  0  0
 80168  1  0  0  0
 81 83  1  0  0  0
 81169  1  0  0  0
 81170  1  0  0  0
 82 86  1  0  0  0
 82171  1  0  0  0
 82172  1  0  0  0
 83 90  1  0  0  0
 83173  1  0  0  0
 83174  1  0  0  0
 84 87  1  0  0  0
 84175  1  0  0  0
 84176  1  0  0  0
 85177  1  0  0  0
 86 87  1  0  0  0
 90178  1  0  0  0
M  ISO  4   1 100  68 101  84 101  90 100
M  END
> <chiral flag>
0

> <version>
0

> <s_m_source_file>
/data/baiqing/PycharmProjects/Reinvent-master-3.2/result/LINK_invent/BTK/process_docking_weight1_custom_sum_contain_oxygen_bond_distance_aromatic_linkinvent_7_9_3/rearranged_h_0066.sdf

> <i_m_source_file_index>
82

> <r_mmod_Potential_Energy-OPLS-2005>
-354.126525878906

> <r_mmod_Stretch_Energy-OPLS-2005>
51.304328918457

> <r_mmod_Bend_Energy-OPLS-2005>
139.291625976562

> <r_mmod_Torsional_Energy-OPLS-2005>
230.709655761719

> <r_mmod_Improper_Torsional_Energy-OPLS-2005>
6.75666332244873

> <r_mmod_Van_der_Waal_Energy-OPLS-2005>
173.39631652832

> <r_mmod_Electrostatic_Energy-OPLS-2005>
-758.638977050781

> <r_mmod_Solvation_Energy-OPLS-2005>
-206.790588378906

> <b_mmod_Minimization_Converged-OPLS-2005>
0

> <r_mmod_RMS_Derivative-OPLS-2005>
4.51543474197388

$$$$
87
                    3D
 Structure written by MMmdl.
177185  0  0  1  0            999 V2000
  -30.6252  -14.5652   20.5339 C   0  0  0  0  0  0
  -30.4346  -12.3661   19.3960 C   0  0  0  0  0  0
  -29.4917  -12.5421   18.1874 C   0  0  0  0  0  0
  -28.0119  -12.3770   18.5992 C   0  0  0  0  0  0
  -27.6504  -13.2054   19.8610 C   0  0  2  0  0  0
  -28.7050  -12.9935   20.9696 C   0  0  0  0  0  0
  -25.2521  -13.8075   20.5626 C   0  0  0  0  0  0
  -24.1802  -13.0351   20.9158 C   0  0  0  0  0  0
  -24.6387  -11.6837   20.8722 C   0  0  0  0  0  0
  -23.9042  -10.4237   21.0394 C   0  0  0  0  0  0
  -24.3592   -9.4179   21.9189 C   0  0  0  0  0  0
  -23.6273   -8.2213   22.0759 C   0  0  0  0  0  0
  -22.4271   -8.0268   21.3536 C   0  0  0  0  0  0
  -21.9884   -9.0231   20.4641 C   0  0  0  0  0  0
  -22.7202  -10.2104   20.3053 C   0  0  0  0  0  0
  -21.6858   -6.0725   22.5257 C   0  0  0  0  0  0
  -21.4027   -6.5639   23.8189 C   0  0  0  0  0  0
  -21.3657   -5.6794   24.9163 C   0  0  0  0  0  0
  -21.6027   -4.3053   24.7204 C   0  0  0  0  0  0
  -21.8835   -3.8143   23.4333 C   0  0  0  0  0  0
  -21.9195   -4.6949   22.3391 C   0  0  0  0  0  0
  -22.7849  -13.5187   21.1810 C   0  0  0  0  0  0
  -22.1673   -4.2150   21.0961 F   0  0  0  0  0  0
  -21.5614   -3.4545   25.7715 F   0  0  0  0  0  0
  -30.0161  -13.3517   20.4039 N   0  0  0  0  0  0
  -26.2969  -12.9241   20.3303 N   0  0  0  0  0  0
  -25.9306  -11.6391   20.5710 N   0  0  0  0  0  0
  -22.0507  -12.8203   22.0400 N   0  0  0  0  0  0
  -25.4072  -15.1749   20.3979 N   0  0  0  0  0  0
  -31.8168  -14.7263   20.2657 O   0  0  0  0  0  0
  -21.6640   -6.8867   21.4227 O   0  0  0  0  0  0
  -22.3541  -14.5494   20.6678 O   0  0  0  0  0  0
  -24.6210  -31.8600   23.2042 C   0  0  0  0  0  0
  -25.9054  -32.4782   23.8356 C   0  0  1  0  0  0
  -27.2504  -27.3779   20.1324 C   0  0  0  0  0  0
  -25.5891  -33.8580   24.2296 N   0  0  0  0  0  0
  -23.4144  -30.4847   21.5402 C   0  0  2  0  0  0
  -24.8685  -28.9285   20.1216 C   0  0  0  0  0  0
  -22.7413  -29.4666   22.4927 C   0  0  0  0  0  0
  -18.0291  -28.1337   22.8492 C   0  0  0  0  0  0
  -24.1503  -36.7310   23.2644 C   0  0  0  0  0  0
  -25.9499  -30.8122   21.3675 C   0  0  0  0  0  0
  -26.0303  -29.4410   20.7153 C   0  0  0  0  0  0
  -27.2276  -28.6785   20.7039 C   0  0  0  0  0  0
  -26.0744  -26.8953   19.5216 C   0  0  0  0  0  0
  -24.8867  -27.6565   19.5211 C   0  0  0  0  0  0
  -23.6315  -29.8006   20.1644 C   0  0  0  0  0  0
  -25.4118  -36.3091   24.0346 C   0  0  1  0  0  0
  -20.5879  -28.3666   23.1249 C   0  0  2  0  0  0
  -20.6757  -26.9383   22.5389 C   0  0  0  0  0  0
  -19.5748  -26.6360   21.5174 C   0  0  0  0  0  0
  -18.1934  -26.7883   22.1609 C   0  0  0  0  0  0
  -19.1531  -28.8812   23.2883 C   0  0  0  0  0  0
  -18.9463  -30.1405   23.8912 C   0  0  0  0  0  0
  -17.6470  -30.6550   24.0548 C   0  0  0  0  0  0
  -25.9030  -34.9445   23.5113 C   0  0  0  0  0  0
  -16.5358  -29.9050   23.6310 C   0  0  0  0  0  0
  -16.7277  -28.6445   23.0360 C   0  0  0  0  0  0
  -26.4469  -31.6582   25.0701 C   0  0  0  0  0  0
  -25.3733  -31.3698   26.1456 C   0  0  0  0  0  0
  -27.0323  -30.3017   24.6126 C   0  0  0  0  0  0
  -27.6030  -32.4329   25.7476 C   0  0  0  0  0  0
  -27.5581  -37.1817   24.8470 C   0  0  0  0  0  0
  -21.4139  -29.3057   22.3648 N   0  0  0  0  0  0
  -26.4318  -37.3762   23.9376 N   0  0  0  0  0  0
  -24.6787  -31.0676   22.0950 N   0  0  0  0  0  0
  -23.4147  -28.8195   23.2986 O   0  0  0  0  0  0
  -28.4059  -26.6090   20.1275 O   0  0  0  0  0  0
  -26.5609  -34.8909   22.4687 O   0  0  0  0  0  0
  -23.5379  -32.1382   23.7376 O   0  0  0  0  0  0
  -30.0300  -21.5564   20.6610 C   0  0  0  0  0  0
  -31.0107  -21.1696   19.7595 C   0  0  0  0  0  0
  -30.4527  -19.3745   20.9206 C   0  0  0  0  0  0
  -31.9671  -21.9648   18.9173 C   0  0  0  0  0  0
  -32.0654  -17.4238   21.4596 C   0  0  0  0  0  0
  -30.7135  -18.4054   23.1495 C   0  0  0  0  0  0
  -30.7791  -24.8716   20.1632 C   0  0  0  0  0  0
  -28.8909  -23.8480   18.7893 C   0  0  0  0  0  0
  -28.9391  -16.3104   22.7771 C   0  0  0  0  0  0
  -28.2954  -17.5044   20.7205 C   0  0  0  0  0  0
  -31.7395  -18.9432   18.7895 C   0  0  0  0  0  0
  -29.4198  -22.9134   21.1129 C   0  0  0  0  0  0
  -28.3567  -25.2954   20.7682 C   0  0  0  0  0  0
  -30.6462  -17.9932   21.6487 C   0  0  0  0  0  0
  -29.3750  -24.2171   20.2028 C   0  0  0  0  0  0
  -29.4992  -16.8573   21.4353 C   0  0  0  0  0  0
  -29.7066  -20.3974   21.3855 N   0  0  0  0  0  0
  -31.0668  -19.7667   19.7816 N   0  0  0  0  0  0
  -29.7343  -15.5893   20.6539 N   0  0  0  0  0  0
  -31.4731  -12.5016   19.0890 H   0  0  0  0  0  0
  -30.3578  -11.3544   19.7955 H   0  0  0  0  0  0
  -29.7431  -11.8323   17.3993 H   0  0  0  0  0  0
  -29.6307  -13.5361   17.7552 H   0  0  0  0  0  0
  -27.8336  -11.3183   18.7842 H   0  0  0  0  0  0
  -27.3574  -12.6542   17.7712 H   0  0  0  0  0  0
  -27.6723  -14.2515   19.5567 H   0  0  0  0  0  0
  -28.7087  -11.9482   21.2858 H   0  0  0  0  0  0
  -28.4694  -13.5680   21.8646 H   0  0  0  0  0  0
  -25.2753   -9.5664   22.4752 H   0  0  0  0  0  0
  -23.9991   -7.4617   22.7496 H   0  0  0  0  0  0
  -21.0811   -8.8731   19.8967 H   0  0  0  0  0  0
  -22.3663  -10.9639   19.6158 H   0  0  0  0  0  0
  -21.2057   -7.6162   23.9692 H   0  0  0  0  0  0
  -21.1455   -6.0533   25.9052 H   0  0  0  0  0  0
  -22.0620   -2.7610   23.2815 H   0  0  0  0  0  0
  -22.4181  -11.9889   22.4783 H   0  0  0  0  0  0
  -21.1127  -13.1215   22.2627 H   0  0  0  0  0  0
  -24.6158  -15.8032   20.4851 H   0  0  0  0  0  0
  -26.2325  -15.6228   20.0229 H   0  0  0  0  0  0
  -26.7114  -32.5501   23.1117 H   0  0  0  0  0  0
  -25.0016  -33.9730   25.0425 H   0  0  0  0  0  0
  -22.7067  -31.3023   21.3843 H   0  0  0  0  0  0
  -23.3732  -35.9680   23.3358 H   0  0  0  0  0  0
  -24.3588  -36.8866   22.2044 H   0  0  0  0  0  0
  -23.7304  -37.6549   23.6631 H   0  0  0  0  0  0
  -26.0799  -31.5730   20.5958 H   0  0  0  0  0  0
  -26.8291  -30.8610   21.9993 H   0  0  0  0  0  0
  -28.1265  -29.0684   21.1575 H   0  0  0  0  0  0
  -26.0751  -25.9239   19.0449 H   0  0  0  0  0  0
  -23.9925  -27.2482   19.0699 H   0  0  0  0  0  0
  -23.7452  -30.5622   19.3937 H   0  0  0  0  0  0
  -22.7560  -29.2192   19.8728 H   0  0  0  0  0  0
  -25.1315  -36.1956   25.0850 H   0  0  0  0  0  0
  -21.0025  -28.3240   24.1342 H   0  0  0  0  0  0
  -20.5563  -26.2292   23.3596 H   0  0  0  0  0  0
  -21.6632  -26.7336   22.1233 H   0  0  0  0  0  0
  -19.6892  -25.6266   21.1199 H   0  0  0  0  0  0
  -19.6660  -27.3163   20.6696 H   0  0  0  0  0  0
  -17.4182  -26.6621   21.4036 H   0  0  0  0  0  0
  -18.0355  -26.0015   22.9001 H   0  0  0  0  0  0
  -19.7948  -30.7206   24.2294 H   0  0  0  0  0  0
  -17.5028  -31.6239   24.5122 H   0  0  0  0  0  0
  -15.5352  -30.2956   23.7611 H   0  0  0  0  0  0
  -15.8684  -28.0753   22.7093 H   0  0  0  0  0  0
  -24.5883  -30.7078   25.7785 H   0  0  0  0  0  0
  -24.8959  -32.2852   26.4952 H   0  0  0  0  0  0
  -25.8086  -30.8813   27.0187 H   0  0  0  0  0  0
  -26.2881  -29.6748   24.1196 H   0  0  0  0  0  0
  -27.4077  -29.7293   25.4623 H   0  0  0  0  0  0
  -27.8732  -30.4315   23.9313 H   0  0  0  0  0  0
  -27.2613  -33.3596   26.2119 H   0  0  0  0  0  0
  -28.3810  -32.6954   25.0287 H   0  0  0  0  0  0
  -28.0757  -31.8424   26.5345 H   0  0  0  0  0  0
  -28.2642  -38.0069   24.7436 H   0  0  0  0  0  0
  -28.1043  -36.2590   24.6422 H   0  0  0  0  0  0
  -27.2285  -37.1614   25.8875 H   0  0  0  0  0  0
  -20.9272  -29.8818   21.6923 H   0  0  0  0  0  0
  -26.0214  -38.2863   24.1284 H   0  0  0  0  0  0
  -31.5092  -22.4120   18.0368 H   0  0  0  0  0  0
  -32.8041  -21.3561   18.5742 H   0  0  0  0  0  0
  -32.4302  -22.7357   19.5292 H   0  0  0  0  0  0
  -32.8244  -18.1551   21.7410 H   0  0  0  0  0  0
  -32.2704  -17.1081   20.4451 H   0  0  0  0  0  0
  -32.2153  -16.5515   22.0958 H   0  0  0  0  0  0
  -31.4726  -19.1671   23.3184 H   0  0  0  0  0  0
  -30.9577  -17.5763   23.8120 H   0  0  0  0  0  0
  -29.7775  -18.8405   23.4956 H   0  0  0  0  0  0
  -31.3658  -24.6290   21.0513 H   0  0  0  0  0  0
  -30.7355  -25.9577   20.1122 H   0  0  0  0  0  0
  -31.3566  -24.5751   19.2913 H   0  0  0  0  0  0
  -27.8713  -23.4602   18.8198 H   0  0  0  0  0  0
  -29.4999  -23.0810   18.3200 H   0  0  0  0  0  0
  -28.8979  -24.7218   18.1403 H   0  0  0  0  0  0
  -29.7029  -15.7815   23.3517 H   0  0  0  0  0  0
  -28.1205  -15.6121   22.6128 H   0  0  0  0  0  0
  -28.5098  -17.0819   23.4176 H   0  0  0  0  0  0
  -28.5445  -17.8015   19.7003 H   0  0  0  0  0  0
  -27.9372  -18.3850   21.2559 H   0  0  0  0  0  0
  -27.4456  -16.8317   20.6657 H   0  0  0  0  0  0
  -31.6685  -19.4218   17.8144 H   0  0  0  0  0  0
  -31.2370  -17.9799   18.7068 H   0  0  0  0  0  0
  -32.7875  -18.8119   19.0482 H   0  0  0  0  0  0
  -28.3805  -22.7017   21.3662 H   0  0  0  0  0  0
  -29.8609  -23.1852   22.0735 H   0  0  0  0  0  0
  -28.5718  -25.4599   21.8256 H   0  0  0  0  0  0
  -27.3471  -24.8804   20.7546 H   0  0  0  0  0  0
  -28.8411  -15.2040   20.4047 H   0  0  0  0  0  0
  1 25  1  0  0  0
  1 30  2  0  0  0
  1 89  1  0  0  0
  2  3  1  0  0  0
  2 25  1  0  0  0
  2 90  1  0  0  0
  2 91  1  0  0  0
  3  4  1  0  0  0
  3 92  1  0  0  0
  3 93  1  0  0  0
  4  5  1  0  0  0
  4 94  1  0  0  0
  4 95  1  0  0  0
  5  6  1  0  0  0
  5 26  1  0  0  0
  5 96  1  0  0  0
  6 25  1  0  0  0
  6 97  1  0  0  0
  6 98  1  0  0  0
  7  8  2  0  0  0
  7 26  1  0  0  0
  7 29  1  0  0  0
  8  9  1  0  0  0
  8 22  1  0  0  0
  9 10  1  0  0  0
  9 27  2  0  0  0
 10 11  2  0  0  0
 10 15  1  0  0  0
 11 12  1  0  0  0
 11 99  1  0  0  0
 12 13  2  0  0  0
 12100  1  0  0  0
 13 14  1  0  0  0
 13 31  1  0  0  0
 14 15  2  0  0  0
 14101  1  0  0  0
 15102  1  0  0  0
 16 17  2  0  0  0
 16 21  1  0  0  0
 16 31  1  0  0  0
 17 18  1  0  0  0
 17103  1  0  0  0
 18 19  2  0  0  0
 18104  1  0  0  0
 19 20  1  0  0  0
 19 24  1  0  0  0
 20 21  2  0  0  0
 20105  1  0  0  0
 21 23  1  0  0  0
 22 28  1  0  0  0
 22 32  2  0  0  0
 26 27  1  0  0  0
 28106  1  0  0  0
 28107  1  0  0  0
 29108  1  0  0  0
 29109  1  0  0  0
 33 34  1  0  0  0
 33 66  1  0  0  0
 33 70  2  0  0  0
 34 36  1  0  0  0
 34 59  1  0  0  0
 34110  1  0  0  0
 35 44  2  0  0  0
 35 45  1  0  0  0
 35 68  1  0  0  0
 36 56  1  0  0  0
 36111  1  0  0  0
 37 39  1  0  0  0
 37 47  1  0  0  0
 37 66  1  0  0  0
 37112  1  0  0  0
 38 43  2  0  0  0
 38 46  1  0  0  0
 38 47  1  0  0  0
 39 64  1  0  0  0
 39 67  2  0  0  0
 40 52  1  0  0  0
 40 53  2  0  0  0
 40 58  1  0  0  0
 41113  1  0  0  0
 41114  1  0  0  0
 41115  1  0  0  0
 41 48  1  0  0  0
 42 43  1  0  0  0
 42 66  1  0  0  0
 42116  1  0  0  0
 42117  1  0  0  0
 43 44  1  0  0  0
 44118  1  0  0  0
 45 46  2  0  0  0
 45119  1  0  0  0
 46120  1  0  0  0
 47121  1  0  0  0
 47122  1  0  0  0
 48 56  1  0  0  0
 48 65  1  0  0  0
 48123  1  0  0  0
 49 50  1  0  0  0
 49 53  1  0  0  0
 49 64  1  0  0  0
 49124  1  0  0  0
 50 51  1  0  0  0
 50125  1  0  0  0
 50126  1  0  0  0
 51 52  1  0  0  0
 51127  1  0  0  0
 51128  1  0  0  0
 52129  1  0  0  0
 52130  1  0  0  0
 53 54  1  0  0  0
 54 55  2  0  0  0
 54131  1  0  0  0
 55 57  1  0  0  0
 55132  1  0  0  0
 56 69  2  0  0  0
 57 58  2  0  0  0
 57133  1  0  0  0
 58134  1  0  0  0
 59 60  1  0  0  0
 59 61  1  0  0  0
 59 62  1  0  0  0
 60135  1  0  0  0
 60136  1  0  0  0
 60137  1  0  0  0
 61138  1  0  0  0
 61139  1  0  0  0
 61140  1  0  0  0
 62141  1  0  0  0
 62142  1  0  0  0
 62143  1  0  0  0
 63 65  1  0  0  0
 63144  1  0  0  0
 63145  1  0  0  0
 63146  1  0  0  0
 64147  1  0  0  0
 65148  1  0  0  0
 68 83  1  0  0  0
 71 72  2  0  0  0
 71 82  1  0  0  0
 71 87  1  0  0  0
 72 74  1  0  0  0
 72 88  1  0  0  0
 73 84  1  0  0  0
 73 87  2  0  0  0
 73 88  1  0  0  0
 74149  1  0  0  0
 74150  1  0  0  0
 74151  1  0  0  0
 75152  1  0  0  0
 75153  1  0  0  0
 75154  1  0  0  0
 75 84  1  0  0  0
 76 84  1  0  0  0
 76155  1  0  0  0
 76156  1  0  0  0
 76157  1  0  0  0
 77158  1  0  0  0
 77159  1  0  0  0
 77160  1  0  0  0
 77 85  1  0  0  0
 78 85  1  0  0  0
 78161  1  0  0  0
 78162  1  0  0  0
 78163  1  0  0  0
 79164  1  0  0  0
 79165  1  0  0  0
 79166  1  0  0  0
 79 86  1  0  0  0
 80 86  1  0  0  0
 80167  1  0  0  0
 80168  1  0  0  0
 80169  1  0  0  0
 81 88  1  0  0  0
 81170  1  0  0  0
 81171  1  0  0  0
 81172  1  0  0  0
 82 85  1  0  0  0
 82173  1  0  0  0
 82174  1  0  0  0
 83 85  1  0  0  0
 83175  1  0  0  0
 83176  1  0  0  0
 84 86  1  0  0  0
 86 89  1  0  0  0
 89177  1  0  0  0
M  ISO  4   1 100  68 101  83 101  89 100
M  END
> <chiral flag>
0

> <version>
0

> <s_m_source_file>
/data/baiqing/PycharmProjects/Reinvent-master-3.2/result/LINK_invent/BTK/process_docking_weight1_custom_sum_contain_oxygen_bond_distance_aromatic_linkinvent_7_9_3/rearranged_h_0066.sdf

> <i_m_source_file_index>
83

> <r_mmod_Potential_Energy-OPLS-2005>
221.908401489258

> <r_mmod_Stretch_Energy-OPLS-2005>
80.2210388183594

> <r_mmod_Bend_Energy-OPLS-2005>
224.836044311523

> <r_mmod_Torsional_Energy-OPLS-2005>
316.147827148438

> <r_mmod_Improper_Torsional_Energy-OPLS-2005>
11.6479463577271

> <r_mmod_Van_der_Waal_Energy-OPLS-2005>
155.10481262207

> <r_mmod_Electrostatic_Energy-OPLS-2005>
-402.741943359375

> <r_mmod_Solvation_Energy-OPLS-2005>
-193.482055664062

> <b_mmod_Minimization_Converged-OPLS-2005>
0

> <r_mmod_RMS_Derivative-OPLS-2005>
5.08099412918091

$$$$
88
                    3D
 Structure written by MMmdl.
185193  0  0  1  0            999 V2000
  -30.7483  -14.4347   20.5435 C   0  0  0  0  0  0
  -30.4056  -12.2768   19.4246 C   0  0  0  0  0  0
  -29.4855  -12.4834   18.2043 C   0  0  0  0  0  0
  -28.0042  -12.3763   18.6138 C   0  0  0  0  0  0
  -27.6567  -13.2212   19.8682 C   0  0  2  0  0  0
  -28.7025  -13.0276   20.9877 C   0  0  0  0  0  0
  -25.2566  -13.8203   20.5703 C   0  0  0  0  0  0
  -24.1851  -13.0456   20.9194 C   0  0  0  0  0  0
  -24.6431  -11.6924   20.8749 C   0  0  0  0  0  0
  -23.9087  -10.4309   21.0415 C   0  0  0  0  0  0
  -24.3636   -9.4213   21.9183 C   0  0  0  0  0  0
  -23.6311   -8.2252   22.0747 C   0  0  0  0  0  0
  -22.4285   -8.0299   21.3541 C   0  0  0  0  0  0
  -21.9936   -9.0273   20.4628 C   0  0  0  0  0  0
  -22.7271  -10.2153   20.3049 C   0  0  0  0  0  0
  -21.6864   -6.0755   22.5280 C   0  0  0  0  0  0
  -21.4024   -6.5658   23.8211 C   0  0  0  0  0  0
  -21.3656   -5.6807   24.9168 C   0  0  0  0  0  0
  -21.6041   -4.3064   24.7210 C   0  0  0  0  0  0
  -21.8824   -3.8163   23.4330 C   0  0  0  0  0  0
  -21.9204   -4.6988   22.3393 C   0  0  0  0  0  0
  -22.7851  -13.5207   21.1874 C   0  0  0  0  0  0
  -22.1670   -4.2176   21.0968 F   0  0  0  0  0  0
  -21.5622   -3.4542   25.7721 F   0  0  0  0  0  0
  -30.0343  -13.2854   20.4255 N   0  0  0  0  0  0
  -26.3020  -12.9412   20.3377 N   0  0  0  0  0  0
  -25.9369  -11.6549   20.5806 N   0  0  0  0  0  0
  -22.0528  -12.8153   22.0409 N   0  0  0  0  0  0
  -25.4237  -15.1927   20.4075 N   0  0  0  0  0  0
  -31.9117  -14.5090   20.1468 O   0  0  0  0  0  0
  -21.6648   -6.8908   21.4246 O   0  0  0  0  0  0
  -22.3505  -14.5519   20.6757 O   0  0  0  0  0  0
  -24.6124  -31.8703   23.2145 C   0  0  0  0  0  0
  -25.9026  -32.4832   23.8432 C   0  0  1  0  0  0
  -27.2162  -27.4469   20.0909 C   0  0  0  0  0  0
  -25.5888  -33.8637   24.2356 N   0  0  0  0  0  0
  -23.3976  -30.4993   21.5550 C   0  0  2  0  0  0
  -24.8384  -28.9757   20.1108 C   0  0  0  0  0  0
  -22.7397  -29.4669   22.4998 C   0  0  0  0  0  0
  -18.0260  -28.1361   22.8477 C   0  0  0  0  0  0
  -24.1492  -36.7344   23.2647 C   0  0  0  0  0  0
  -25.9265  -30.8422   21.3658 C   0  0  0  0  0  0
  -26.0008  -29.4798   20.7084 C   0  0  0  0  0  0
  -27.1929  -28.7215   20.6980 C   0  0  0  0  0  0
  -26.0384  -26.9731   19.4608 C   0  0  0  0  0  0
  -24.8511  -27.7209   19.4851 C   0  0  0  0  0  0
  -23.6037  -29.8421   20.1660 C   0  0  0  0  0  0
  -25.4108  -36.3134   24.0345 C   0  0  1  0  0  0
  -20.5847  -28.3654   23.1314 C   0  0  2  0  0  0
  -20.6751  -26.9398   22.5408 C   0  0  0  0  0  0
  -19.5740  -26.6376   21.5187 C   0  0  0  0  0  0
  -18.1911  -26.7909   22.1596 C   0  0  0  0  0  0
  -19.1515  -28.8820   23.2892 C   0  0  0  0  0  0
  -18.9448  -30.1423   23.8918 C   0  0  0  0  0  0
  -17.6458  -30.6586   24.0558 C   0  0  0  0  0  0
  -25.9035  -34.9487   23.5151 C   0  0  0  0  0  0
  -16.5343  -29.9098   23.6312 C   0  0  0  0  0  0
  -16.7249  -28.6503   23.0345 C   0  0  0  0  0  0
  -26.4467  -31.6584   25.0735 C   0  0  0  0  0  0
  -25.3749  -31.3627   26.1477 C   0  0  0  0  0  0
  -27.0305  -30.3032   24.6082 C   0  0  0  0  0  0
  -27.6048  -32.4280   25.7504 C   0  0  0  0  0  0
  -27.5578  -37.1834   24.8471 C   0  0  0  0  0  0
  -21.4124  -29.3045   22.3741 N   0  0  0  0  0  0
  -26.4295  -37.3813   23.9415 N   0  0  0  0  0  0
  -24.6643  -31.0839   22.1032 N   0  0  0  0  0  0
  -23.4177  -28.8181   23.3009 O   0  0  0  0  0  0
  -28.3787  -26.7035   20.1344 O   0  0  0  0  0  0
  -26.5617  -34.8932   22.4724 O   0  0  0  0  0  0
  -23.5320  -32.1450   23.7558 O   0  0  0  0  0  0
  -31.1090  -20.3108   21.9188 C   0  0  0  0  0  0
  -31.3585  -19.0100   21.4482 C   0  0  0  0  0  0
  -28.9147  -20.1357   20.9387 C   0  0  0  0  0  0
  -29.8695  -20.9189   21.6327 C   0  0  0  0  0  0
  -30.3531  -18.3324   20.7255 C   0  0  0  0  0  0
  -30.4010  -15.9401   22.5248 C   0  0  0  0  0  0
  -27.5866  -22.5691   26.7901 C   0  0  0  0  0  0
  -29.8518  -23.4495   26.3291 C   0  0  0  0  0  0
  -27.8611  -24.4714   25.2259 C   0  0  0  0  0  0
  -27.2772  -21.9359   23.7329 C   0  0  0  0  0  0
  -29.0850  -20.7155   24.9311 C   0  0  0  0  0  0
  -29.1129  -24.5520   21.0708 C   0  0  0  0  0  0
  -28.8080  -23.0416   21.0651 C   0  0  0  0  0  0
  -29.7521  -22.6205   23.4302 C   0  0  0  0  0  0
  -28.2397  -25.2791   20.0437 C   0  0  0  0  0  0
  -30.6193  -16.9457   20.1337 C   0  0  1  0  0  0
  -30.1046  -15.7523   21.0189 C   0  0  1  0  0  0
  -28.4943  -23.1251   25.6619 C   0  0  0  0  0  0
  -28.6469  -22.1174   24.4356 C   0  0  0  0  0  0
  -30.2384  -16.8649   18.6211 C   0  0  0  0  0  0
  -29.1302  -18.8695   20.5285 N   0  0  0  0  0  0
  -29.6123  -22.2539   22.0076 N   0  0  0  0  0  0
  -30.8095  -15.8375   17.9950 F   0  0  0  0  0  0
  -28.9188  -16.7423   18.4628 F   0  0  0  0  0  0
  -30.6447  -17.9633   17.9802 F   0  0  0  0  0  0
  -31.4506  -12.3418   19.1166 H   0  0  0  0  0  0
  -30.2804  -11.2755   19.8406 H   0  0  0  0  0  0
  -29.7096  -11.7434   17.4346 H   0  0  0  0  0  0
  -29.6747  -13.4583   17.7547 H   0  0  0  0  0  0
  -27.7878  -11.3244   18.8032 H   0  0  0  0  0  0
  -27.3650  -12.6703   17.7805 H   0  0  0  0  0  0
  -27.6910  -14.2662   19.5618 H   0  0  0  0  0  0
  -28.6613  -12.0071   21.3729 H   0  0  0  0  0  0
  -28.4874  -13.6742   21.8381 H   0  0  0  0  0  0
  -25.2798   -9.5681   22.4736 H   0  0  0  0  0  0
  -24.0029   -7.4639   22.7461 H   0  0  0  0  0  0
  -21.0886   -8.8791   19.8916 H   0  0  0  0  0  0
  -22.3752  -10.9689   19.6141 H   0  0  0  0  0  0
  -21.2019   -7.6166   23.9718 H   0  0  0  0  0  0
  -21.1472   -6.0533   25.9071 H   0  0  0  0  0  0
  -22.0610   -2.7626   23.2820 H   0  0  0  0  0  0
  -22.4206  -11.9802   22.4727 H   0  0  0  0  0  0
  -21.1137  -13.1126   22.2670 H   0  0  0  0  0  0
  -24.6511  -15.8425   20.5087 H   0  0  0  0  0  0
  -26.2703  -15.6352   20.0743 H   0  0  0  0  0  0
  -26.7093  -32.5563   23.1204 H   0  0  0  0  0  0
  -24.9991  -33.9808   25.0458 H   0  0  0  0  0  0
  -22.6847  -31.3162   21.4225 H   0  0  0  0  0  0
  -23.3745  -35.9683   23.3312 H   0  0  0  0  0  0
  -24.3584  -36.8964   22.2063 H   0  0  0  0  0  0
  -23.7248  -37.6546   23.6669 H   0  0  0  0  0  0
  -26.0379  -31.6107   20.5990 H   0  0  0  0  0  0
  -26.8147  -30.8930   21.9829 H   0  0  0  0  0  0
  -28.0884  -29.1028   21.1712 H   0  0  0  0  0  0
  -26.0091  -26.0254   18.9441 H   0  0  0  0  0  0
  -23.9598  -27.3340   19.0113 H   0  0  0  0  0  0
  -23.7191  -30.6233   19.4142 H   0  0  0  0  0  0
  -22.7250  -29.2707   19.8617 H   0  0  0  0  0  0
  -25.1272  -36.2015   25.0839 H   0  0  0  0  0  0
  -20.9915  -28.3230   24.1442 H   0  0  0  0  0  0
  -20.5616  -26.2286   23.3599 H   0  0  0  0  0  0
  -21.6635  -26.7427   22.1246 H   0  0  0  0  0  0
  -19.6929  -25.6287   21.1225 H   0  0  0  0  0  0
  -19.6681  -27.3181   20.6715 H   0  0  0  0  0  0
  -17.4179  -26.6634   21.4005 H   0  0  0  0  0  0
  -18.0333  -26.0031   22.8981 H   0  0  0  0  0  0
  -19.7935  -30.7202   24.2317 H   0  0  0  0  0  0
  -17.5037  -31.6262   24.5160 H   0  0  0  0  0  0
  -15.5355  -30.3027   23.7623 H   0  0  0  0  0  0
  -15.8636  -28.0838   22.7067 H   0  0  0  0  0  0
  -24.6007  -30.6860   25.7843 H   0  0  0  0  0  0
  -24.8818  -32.2730   26.4899 H   0  0  0  0  0  0
  -25.8139  -30.8872   27.0260 H   0  0  0  0  0  0
  -26.2843  -29.6774   24.1162 H   0  0  0  0  0  0
  -27.4125  -29.7269   25.4523 H   0  0  0  0  0  0
  -27.8660  -30.4367   23.9198 H   0  0  0  0  0  0
  -27.2699  -33.3600   26.2078 H   0  0  0  0  0  0
  -28.3877  -32.6792   25.0333 H   0  0  0  0  0  0
  -28.0690  -31.8383   26.5421 H   0  0  0  0  0  0
  -28.2599  -38.0132   24.7510 H   0  0  0  0  0  0
  -28.1070  -36.2653   24.6303 H   0  0  0  0  0  0
  -27.2298  -37.1504   25.8877 H   0  0  0  0  0  0
  -20.9273  -29.8834   21.7028 H   0  0  0  0  0  0
  -26.0187  -38.2900   24.1384 H   0  0  0  0  0  0
  -31.8826  -20.8461   22.4487 H   0  0  0  0  0  0
  -32.3202  -18.5525   21.6302 H   0  0  0  0  0  0
  -27.9398  -20.5317   20.6945 H   0  0  0  0  0  0
  -29.8725  -16.8001   22.9369 H   0  0  0  0  0  0
  -31.4671  -16.0913   22.6978 H   0  0  0  0  0  0
  -30.0942  -15.0687   23.1051 H   0  0  0  0  0  0
  -27.4757  -23.2959   27.5956 H   0  0  0  0  0  0
  -27.9942  -21.6720   27.2549 H   0  0  0  0  0  0
  -26.5784  -22.3376   26.4496 H   0  0  0  0  0  0
  -29.7301  -24.1999   27.1118 H   0  0  0  0  0  0
  -30.5856  -23.8526   25.6314 H   0  0  0  0  0  0
  -30.2929  -22.5764   26.8081 H   0  0  0  0  0  0
  -27.7986  -25.1684   26.0624 H   0  0  0  0  0  0
  -26.8398  -24.3506   24.8658 H   0  0  0  0  0  0
  -28.4274  -24.9762   24.4447 H   0  0  0  0  0  0
  -27.3204  -21.1770   22.9546 H   0  0  0  0  0  0
  -26.9354  -22.8551   23.2618 H   0  0  0  0  0  0
  -26.4949  -21.6084   24.4130 H   0  0  0  0  0  0
  -29.1821  -20.0090   24.1076 H   0  0  0  0  0  0
  -28.3654  -20.2693   25.6145 H   0  0  0  0  0  0
  -30.0494  -20.7424   25.4372 H   0  0  0  0  0  0
  -30.1676  -24.7365   20.8660 H   0  0  0  0  0  0
  -28.8959  -24.9746   22.0509 H   0  0  0  0  0  0
  -28.9970  -22.6784   20.0530 H   0  0  0  0  0  0
  -27.7462  -22.8728   21.2431 H   0  0  0  0  0  0
  -30.7295  -22.2892   23.7812 H   0  0  0  0  0  0
  -29.8287  -23.7020   23.4728 H   0  0  0  0  0  0
  -27.2272  -24.9425   20.2628 H   0  0  0  0  0  0
  -28.4814  -24.9565   19.0304 H   0  0  0  0  0  0
  -31.7076  -16.9070   20.1358 H   0  0  0  0  0  0
  -29.0244  -15.7060   20.8981 H   0  0  0  0  0  0
  1 25  1  0  0  0
  1 30  2  0  0  0
  1 87  1  0  0  0
  2  3  1  0  0  0
  2 25  1  0  0  0
  2 96  1  0  0  0
  2 97  1  0  0  0
  3  4  1  0  0  0
  3 98  1  0  0  0
  3 99  1  0  0  0
  4  5  1  0  0  0
  4100  1  0  0  0
  4101  1  0  0  0
  5  6  1  0  0  0
  5 26  1  0  0  0
  5102  1  0  0  0
  6 25  1  0  0  0
  6103  1  0  0  0
  6104  1  0  0  0
  7  8  2  0  0  0
  7 26  1  0  0  0
  7 29  1  0  0  0
  8  9  1  0  0  0
  8 22  1  0  0  0
  9 10  1  0  0  0
  9 27  2  0  0  0
 10 11  2  0  0  0
 10 15  1  0  0  0
 11 12  1  0  0  0
 11105  1  0  0  0
 12 13  2  0  0  0
 12106  1  0  0  0
 13 14  1  0  0  0
 13 31  1  0  0  0
 14 15  2  0  0  0
 14107  1  0  0  0
 15108  1  0  0  0
 16 17  2  0  0  0
 16 21  1  0  0  0
 16 31  1  0  0  0
 17 18  1  0  0  0
 17109  1  0  0  0
 18 19  2  0  0  0
 18110  1  0  0  0
 19 20  1  0  0  0
 19 24  1  0  0  0
 20 21  2  0  0  0
 20111  1  0  0  0
 21 23  1  0  0  0
 22 28  1  0  0  0
 22 32  2  0  0  0
 26 27  1  0  0  0
 28112  1  0  0  0
 28113  1  0  0  0
 29114  1  0  0  0
 29115  1  0  0  0
 33 34  1  0  0  0
 33 66  1  0  0  0
 33 70  2  0  0  0
 34 36  1  0  0  0
 34 59  1  0  0  0
 34116  1  0  0  0
 35 44  2  0  0  0
 35 45  1  0  0  0
 35 68  1  0  0  0
 36 56  1  0  0  0
 36117  1  0  0  0
 37 39  1  0  0  0
 37 47  1  0  0  0
 37 66  1  0  0  0
 37118  1  0  0  0
 38 43  2  0  0  0
 38 46  1  0  0  0
 38 47  1  0  0  0
 39 64  1  0  0  0
 39 67  2  0  0  0
 40 52  1  0  0  0
 40 53  2  0  0  0
 40 58  1  0  0  0
 41119  1  0  0  0
 41120  1  0  0  0
 41121  1  0  0  0
 41 48  1  0  0  0
 42 43  1  0  0  0
 42 66  1  0  0  0
 42122  1  0  0  0
 42123  1  0  0  0
 43 44  1  0  0  0
 44124  1  0  0  0
 45 46  2  0  0  0
 45125  1  0  0  0
 46126  1  0  0  0
 47127  1  0  0  0
 47128  1  0  0  0
 48 56  1  0  0  0
 48 65  1  0  0  0
 48129  1  0  0  0
 49 50  1  0  0  0
 49 53  1  0  0  0
 49 64  1  0  0  0
 49130  1  0  0  0
 50 51  1  0  0  0
 50131  1  0  0  0
 50132  1  0  0  0
 51 52  1  0  0  0
 51133  1  0  0  0
 51134  1  0  0  0
 52135  1  0  0  0
 52136  1  0  0  0
 53 54  1  0  0  0
 54 55  2  0  0  0
 54137  1  0  0  0
 55 57  1  0  0  0
 55138  1  0  0  0
 56 69  2  0  0  0
 57 58  2  0  0  0
 57139  1  0  0  0
 58140  1  0  0  0
 59 60  1  0  0  0
 59 61  1  0  0  0
 59 62  1  0  0  0
 60141  1  0  0  0
 60142  1  0  0  0
 60143  1  0  0  0
 61144  1  0  0  0
 61145  1  0  0  0
 61146  1  0  0  0
 62147  1  0  0  0
 62148  1  0  0  0
 62149  1  0  0  0
 63 65  1  0  0  0
 63150  1  0  0  0
 63151  1  0  0  0
 63152  1  0  0  0
 64153  1  0  0  0
 65154  1  0  0  0
 68 85  1  0  0  0
 71 72  2  0  0  0
 71 74  1  0  0  0
 71155  1  0  0  0
 72 75  1  0  0  0
 72156  1  0  0  0
 73 74  2  0  0  0
 73 91  1  0  0  0
 73157  1  0  0  0
 74 92  1  0  0  0
 75 91  2  0  0  0
 75 86  1  0  0  0
 76158  1  0  0  0
 76159  1  0  0  0
 76160  1  0  0  0
 76 87  1  0  0  0
 77161  1  0  0  0
 77162  1  0  0  0
 77163  1  0  0  0
 77 88  1  0  0  0
 78 88  1  0  0  0
 78164  1  0  0  0
 78165  1  0  0  0
 78166  1  0  0  0
 79 88  1  0  0  0
 79167  1  0  0  0
 79168  1  0  0  0
 79169  1  0  0  0
 80170  1  0  0  0
 80171  1  0  0  0
 80172  1  0  0  0
 80 89  1  0  0  0
 81 89  1  0  0  0
 81173  1  0  0  0
 81174  1  0  0  0
 81175  1  0  0  0
 82 83  1  0  0  0
 82 85  1  0  0  0
 82176  1  0  0  0
 82177  1  0  0  0
 83 92  1  0  0  0
 83178  1  0  0  0
 83179  1  0  0  0
 84 89  1  0  0  0
 84 92  1  0  0  0
 84180  1  0  0  0
 84181  1  0  0  0
 85182  1  0  0  0
 85183  1  0  0  0
 86 87  1  0  0  0
 86 90  1  0  0  0
 86184  1  0  0  0
 87185  1  0  0  0
 88 89  1  0  0  0
 90 93  1  0  0  0
 90 94  1  0  0  0
 90 95  1  0  0  0
M  ISO  4   1 100  68 101  85 101  87 100
M  END
> <chiral flag>
0

> <version>
0

> <s_m_source_file>
/data/baiqing/PycharmProjects/Reinvent-master-3.2/result/LINK_invent/BTK/process_docking_weight1_custom_sum_contain_oxygen_bond_distance_aromatic_linkinvent_7_9_3/rearranged_h_0066.sdf

> <i_m_source_file_index>
84

> <r_mmod_Potential_Energy-OPLS-2005>
4.90281248092651

> <r_mmod_Stretch_Energy-OPLS-2005>
48.2247009277344

> <r_mmod_Bend_Energy-OPLS-2005>
134.664794921875

> <r_mmod_Torsional_Energy-OPLS-2005>
232.529815673828

> <r_mmod_Improper_Torsional_Energy-OPLS-2005>
4.19119739532471

> <r_mmod_Van_der_Waal_Energy-OPLS-2005>
187.135192871094

> <r_mmod_Electrostatic_Energy-OPLS-2005>
-439.388092041016

> <r_mmod_Solvation_Energy-OPLS-2005>
-180.341934204102

> <b_mmod_Minimization_Converged-OPLS-2005>
0

> <r_mmod_RMS_Derivative-OPLS-2005>
2.66120934486389

$$$$
89
                    3D
 Structure written by MMmdl.
163171  0  0  1  0            999 V2000
  -30.7250  -14.4920   20.5912 C   0  0  0  0  0  0
  -30.4149  -12.3240   19.4361 C   0  0  0  0  0  0
  -29.4968  -12.5057   18.2089 C   0  0  0  0  0  0
  -28.0153  -12.3695   18.6139 C   0  0  0  0  0  0
  -27.6558  -13.2117   19.8657 C   0  0  2  0  0  0
  -28.6919  -12.9984   20.9864 C   0  0  0  0  0  0
  -25.2555  -13.8174   20.5649 C   0  0  0  0  0  0
  -24.1815  -13.0445   20.9141 C   0  0  0  0  0  0
  -24.6367  -11.6909   20.8682 C   0  0  0  0  0  0
  -23.9038  -10.4298   21.0375 C   0  0  0  0  0  0
  -24.3605   -9.4223   21.9159 C   0  0  0  0  0  0
  -23.6281   -8.2266   22.0754 C   0  0  0  0  0  0
  -22.4258   -8.0289   21.3549 C   0  0  0  0  0  0
  -21.9887   -9.0249   20.4640 C   0  0  0  0  0  0
  -22.7212  -10.2125   20.3036 C   0  0  0  0  0  0
  -21.6862   -6.0722   22.5267 C   0  0  0  0  0  0
  -21.4019   -6.5624   23.8201 C   0  0  0  0  0  0
  -21.3658   -5.6779   24.9163 C   0  0  0  0  0  0
  -21.6046   -4.3045   24.7220 C   0  0  0  0  0  0
  -21.8822   -3.8131   23.4346 C   0  0  0  0  0  0
  -21.9192   -4.6945   22.3395 C   0  0  0  0  0  0
  -22.7834  -13.5234   21.1809 C   0  0  0  0  0  0
  -22.1659   -4.2119   21.0978 F   0  0  0  0  0  0
  -21.5638   -3.4540   25.7742 F   0  0  0  0  0  0
  -30.0222  -13.3264   20.4461 N   0  0  0  0  0  0
  -26.2981  -12.9350   20.3296 N   0  0  0  0  0  0
  -25.9290  -11.6500   20.5691 N   0  0  0  0  0  0
  -22.0485  -12.8239   22.0379 N   0  0  0  0  0  0
  -25.4291  -15.1893   20.4081 N   0  0  0  0  0  0
  -31.8416  -14.6291   20.0765 O   0  0  0  0  0  0
  -21.6643   -6.8870   21.4238 O   0  0  0  0  0  0
  -22.3503  -14.5531   20.6641 O   0  0  0  0  0  0
  -24.6172  -31.8671   23.2102 C   0  0  0  0  0  0
  -25.9060  -32.4818   23.8397 C   0  0  1  0  0  0
  -27.2250  -27.4059   20.0779 C   0  0  0  0  0  0
  -25.5907  -33.8616   24.2328 N   0  0  0  0  0  0
  -23.4052  -30.4950   21.5503 C   0  0  2  0  0  0
  -24.8468  -28.9624   20.1107 C   0  0  0  0  0  0
  -22.7420  -29.4670   22.4960 C   0  0  0  0  0  0
  -18.0275  -28.1380   22.8490 C   0  0  0  0  0  0
  -24.1484  -36.7316   23.2641 C   0  0  0  0  0  0
  -25.9389  -30.8227   21.3685 C   0  0  0  0  0  0
  -26.0106  -29.4565   20.7106 C   0  0  0  0  0  0
  -27.1974  -28.6824   20.6974 C   0  0  0  0  0  0
  -26.0307  -26.9339   19.4810 C   0  0  0  0  0  0
  -24.8532  -27.7010   19.4972 C   0  0  0  0  0  0
  -23.6131  -29.8348   20.1626 C   0  0  0  0  0  0
  -25.4106  -36.3111   24.0340 C   0  0  1  0  0  0
  -20.5870  -28.3672   23.1299 C   0  0  2  0  0  0
  -20.6766  -26.9404   22.5407 C   0  0  0  0  0  0
  -19.5744  -26.6383   21.5203 C   0  0  0  0  0  0
  -18.1923  -26.7927   22.1619 C   0  0  0  0  0  0
  -19.1528  -28.8840   23.2898 C   0  0  0  0  0  0
  -18.9459  -30.1441   23.8913 C   0  0  0  0  0  0
  -17.6461  -30.6584   24.0564 C   0  0  0  0  0  0
  -25.9037  -34.9474   23.5132 C   0  0  0  0  0  0
  -16.5353  -29.9091   23.6323 C   0  0  0  0  0  0
  -16.7267  -28.6505   23.0347 C   0  0  0  0  0  0
  -26.4479  -31.6604   25.0732 C   0  0  0  0  0  0
  -25.3748  -31.3722   26.1486 C   0  0  0  0  0  0
  -27.0307  -30.3040   24.6129 C   0  0  0  0  0  0
  -27.6056  -32.4323   25.7488 C   0  0  0  0  0  0
  -27.5582  -37.1810   24.8466 C   0  0  0  0  0  0
  -21.4143  -29.3047   22.3704 N   0  0  0  0  0  0
  -26.4294  -37.3794   23.9412 N   0  0  0  0  0  0
  -24.6723  -31.0754   22.1013 N   0  0  0  0  0  0
  -23.4182  -28.8201   23.3004 O   0  0  0  0  0  0
  -28.3971  -26.6645   20.1234 O   0  0  0  0  0  0
  -26.5594  -34.8927   22.4692 O   0  0  0  0  0  0
  -23.5357  -32.1434   23.7484 O   0  0  0  0  0  0
  -27.6496  -20.6112   20.5598 C   0  0  0  0  0  0
  -27.4621  -22.9086   20.3591 C   0  0  0  0  0  0
  -29.0371  -20.6911   20.2940 C   0  0  0  0  0  0
  -28.8452  -23.0193   20.0591 C   0  0  0  0  0  0
  -30.7040  -24.2303   18.8245 C   0  0  0  0  0  0
  -30.1544  -24.8362   21.1894 C   0  0  0  0  0  0
  -29.7167  -15.6370   22.5046 C   0  0  0  0  0  0
  -29.9506  -19.4552   20.2104 C   0  0  0  0  0  0
  -29.3877  -18.0758   20.6774 C   0  0  0  0  0  0
  -30.4532  -16.9377   20.5648 C   0  0  0  0  0  0
  -28.6026  -25.5181   19.2637 C   0  0  0  0  0  0
  -29.5486  -24.3925   19.8425 C   0  0  0  0  0  0
  -26.8651  -21.7157   20.6025 N   0  0  0  0  0  0
  -29.6284  -21.8972   20.0623 N   0  0  0  0  0  0
  -30.0715  -15.5912   21.0803 N   0  0  0  0  0  0
  -31.4622  -12.4040   19.1404 H   0  0  0  0  0  0
  -30.3104  -11.3179   19.8451 H   0  0  0  0  0  0
  -29.7437  -11.7706   17.4417 H   0  0  0  0  0  0
  -29.6679  -13.4858   17.7616 H   0  0  0  0  0  0
  -27.8262  -11.3134   18.8101 H   0  0  0  0  0  0
  -27.3679  -12.6446   17.7803 H   0  0  0  0  0  0
  -27.7005  -14.2588   19.5665 H   0  0  0  0  0  0
  -28.6792  -11.9586   21.3180 H   0  0  0  0  0  0
  -28.4147  -13.5783   21.8612 H   0  0  0  0  0  0
  -25.2759   -9.5708   22.4711 H   0  0  0  0  0  0
  -23.9987   -7.4659   22.7475 H   0  0  0  0  0  0
  -21.0814   -8.8767   19.8952 H   0  0  0  0  0  0
  -22.3668  -10.9656   19.6138 H   0  0  0  0  0  0
  -21.2031   -7.6129   23.9703 H   0  0  0  0  0  0
  -21.1472   -6.0505   25.9064 H   0  0  0  0  0  0
  -22.0600   -2.7589   23.2853 H   0  0  0  0  0  0
  -22.4110  -11.9919   22.4798 H   0  0  0  0  0  0
  -21.1099  -13.1260   22.2579 H   0  0  0  0  0  0
  -24.6691  -15.8509   20.5270 H   0  0  0  0  0  0
  -26.2929  -15.6258   20.1132 H   0  0  0  0  0  0
  -26.7130  -32.5516   23.1154 H   0  0  0  0  0  0
  -25.0052  -33.9774   25.0470 H   0  0  0  0  0  0
  -22.6959  -31.3143   21.4141 H   0  0  0  0  0  0
  -23.3739  -35.9655   23.3313 H   0  0  0  0  0  0
  -24.3576  -36.8919   22.2053 H   0  0  0  0  0  0
  -23.7242  -37.6528   23.6644 H   0  0  0  0  0  0
  -26.0588  -31.5908   20.6029 H   0  0  0  0  0  0
  -26.8252  -30.8705   21.9904 H   0  0  0  0  0  0
  -28.0949  -29.0592   21.1678 H   0  0  0  0  0  0
  -25.9460  -25.9683   19.0124 H   0  0  0  0  0  0
  -23.9547  -27.3128   19.0373 H   0  0  0  0  0  0
  -23.7274  -30.6140   19.4078 H   0  0  0  0  0  0
  -22.7341  -29.2618   19.8611 H   0  0  0  0  0  0
  -25.1279  -36.1979   25.0833 H   0  0  0  0  0  0
  -20.9969  -28.3241   24.1417 H   0  0  0  0  0  0
  -20.5654  -26.2282   23.3598 H   0  0  0  0  0  0
  -21.6641  -26.7434   22.1212 H   0  0  0  0  0  0
  -19.6907  -25.6295   21.1229 H   0  0  0  0  0  0
  -19.6685  -27.3195   20.6733 H   0  0  0  0  0  0
  -17.4189  -26.6667   21.4025 H   0  0  0  0  0  0
  -18.0336  -26.0063   22.9014 H   0  0  0  0  0  0
  -19.7935  -30.7248   24.2297 H   0  0  0  0  0  0
  -17.5022  -31.6266   24.5163 H   0  0  0  0  0  0
  -15.5358  -30.3004   23.7635 H   0  0  0  0  0  0
  -15.8664  -28.0833   22.7058 H   0  0  0  0  0  0
  -24.5912  -30.7074   25.7838 H   0  0  0  0  0  0
  -24.8950  -32.2881   26.4946 H   0  0  0  0  0  0
  -25.8108  -30.8891   27.0239 H   0  0  0  0  0  0
  -26.2856  -29.6800   24.1182 H   0  0  0  0  0  0
  -27.4063  -29.7284   25.4600 H   0  0  0  0  0  0
  -27.8700  -30.4349   23.9294 H   0  0  0  0  0  0
  -27.2676  -33.3604   26.2110 H   0  0  0  0  0  0
  -28.3840  -32.6916   25.0300 H   0  0  0  0  0  0
  -28.0757  -31.8424   26.5366 H   0  0  0  0  0  0
  -28.2611  -38.0097   24.7498 H   0  0  0  0  0  0
  -28.1064  -36.2626   24.6299 H   0  0  0  0  0  0
  -27.2300  -37.1478   25.8871 H   0  0  0  0  0  0
  -20.9290  -29.8795   21.6957 H   0  0  0  0  0  0
  -26.0183  -38.2875   24.1406 H   0  0  0  0  0  0
  -27.1589  -19.6664   20.7411 H   0  0  0  0  0  0
  -26.8235  -23.7767   20.4303 H   0  0  0  0  0  0
  -31.4591  -23.5215   19.1655 H   0  0  0  0  0  0
  -31.2216  -25.1748   18.6552 H   0  0  0  0  0  0
  -30.3371  -23.8775   17.8600 H   0  0  0  0  0  0
  -30.8650  -24.1001   21.5662 H   0  0  0  0  0  0
  -29.3797  -24.9581   21.9470 H   0  0  0  0  0  0
  -30.6818  -25.7861   21.0995 H   0  0  0  0  0  0
  -29.9742  -14.7168   23.0334 H   0  0  0  0  0  0
  -28.6442  -15.8036   22.6195 H   0  0  0  0  0  0
  -30.2365  -16.4432   23.0236 H   0  0  0  0  0  0
  -30.8423  -19.6783   20.7974 H   0  0  0  0  0  0
  -30.2854  -19.3701   19.1753 H   0  0  0  0  0  0
  -28.5132  -17.8105   20.0824 H   0  0  0  0  0  0
  -29.0470  -18.1724   21.7088 H   0  0  0  0  0  0
  -31.3705  -17.2483   21.0696 H   0  0  0  0  0  0
  -30.7195  -16.8524   19.5083 H   0  0  0  0  0  0
  -27.7105  -25.0571   18.8579 H   0  0  0  0  0  0
  -29.0589  -25.9554   18.3746 H   0  0  0  0  0  0
  1 25  1  0  0  0
  1 30  2  0  0  0
  1 85  1  0  0  0
  2  3  1  0  0  0
  2 25  1  0  0  0
  2 86  1  0  0  0
  2 87  1  0  0  0
  3  4  1  0  0  0
  3 88  1  0  0  0
  3 89  1  0  0  0
  4  5  1  0  0  0
  4 90  1  0  0  0
  4 91  1  0  0  0
  5  6  1  0  0  0
  5 26  1  0  0  0
  5 92  1  0  0  0
  6 25  1  0  0  0
  6 93  1  0  0  0
  6 94  1  0  0  0
  7  8  2  0  0  0
  7 26  1  0  0  0
  7 29  1  0  0  0
  8  9  1  0  0  0
  8 22  1  0  0  0
  9 10  1  0  0  0
  9 27  2  0  0  0
 10 11  2  0  0  0
 10 15  1  0  0  0
 11 12  1  0  0  0
 11 95  1  0  0  0
 12 13  2  0  0  0
 12 96  1  0  0  0
 13 14  1  0  0  0
 13 31  1  0  0  0
 14 15  2  0  0  0
 14 97  1  0  0  0
 15 98  1  0  0  0
 16 17  2  0  0  0
 16 21  1  0  0  0
 16 31  1  0  0  0
 17 18  1  0  0  0
 17 99  1  0  0  0
 18 19  2  0  0  0
 18100  1  0  0  0
 19 20  1  0  0  0
 19 24  1  0  0  0
 20 21  2  0  0  0
 20101  1  0  0  0
 21 23  1  0  0  0
 22 28  1  0  0  0
 22 32  2  0  0  0
 26 27  1  0  0  0
 28102  1  0  0  0
 28103  1  0  0  0
 29104  1  0  0  0
 29105  1  0  0  0
 33 34  1  0  0  0
 33 66  1  0  0  0
 33 70  2  0  0  0
 34 36  1  0  0  0
 34 59  1  0  0  0
 34106  1  0  0  0
 35 44  2  0  0  0
 35 45  1  0  0  0
 35 68  1  0  0  0
 36 56  1  0  0  0
 36107  1  0  0  0
 37 39  1  0  0  0
 37 47  1  0  0  0
 37 66  1  0  0  0
 37108  1  0  0  0
 38 43  2  0  0  0
 38 46  1  0  0  0
 38 47  1  0  0  0
 39 64  1  0  0  0
 39 67  2  0  0  0
 40 52  1  0  0  0
 40 53  2  0  0  0
 40 58  1  0  0  0
 41109  1  0  0  0
 41110  1  0  0  0
 41111  1  0  0  0
 41 48  1  0  0  0
 42 43  1  0  0  0
 42 66  1  0  0  0
 42112  1  0  0  0
 42113  1  0  0  0
 43 44  1  0  0  0
 44114  1  0  0  0
 45 46  2  0  0  0
 45115  1  0  0  0
 46116  1  0  0  0
 47117  1  0  0  0
 47118  1  0  0  0
 48 56  1  0  0  0
 48 65  1  0  0  0
 48119  1  0  0  0
 49 50  1  0  0  0
 49 53  1  0  0  0
 49 64  1  0  0  0
 49120  1  0  0  0
 50 51  1  0  0  0
 50121  1  0  0  0
 50122  1  0  0  0
 51 52  1  0  0  0
 51123  1  0  0  0
 51124  1  0  0  0
 52125  1  0  0  0
 52126  1  0  0  0
 53 54  1  0  0  0
 54 55  2  0  0  0
 54127  1  0  0  0
 55 57  1  0  0  0
 55128  1  0  0  0
 56 69  2  0  0  0
 57 58  2  0  0  0
 57129  1  0  0  0
 58130  1  0  0  0
 59 60  1  0  0  0
 59 61  1  0  0  0
 59 62  1  0  0  0
 60131  1  0  0  0
 60132  1  0  0  0
 60133  1  0  0  0
 61134  1  0  0  0
 61135  1  0  0  0
 61136  1  0  0  0
 62137  1  0  0  0
 62138  1  0  0  0
 62139  1  0  0  0
 63 65  1  0  0  0
 63140  1  0  0  0
 63141  1  0  0  0
 63142  1  0  0  0
 64143  1  0  0  0
 65144  1  0  0  0
 68 81  1  0  0  0
 71 73  2  0  0  0
 71 83  1  0  0  0
 71145  1  0  0  0
 72 74  1  0  0  0
 72 83  2  0  0  0
 72146  1  0  0  0
 73 78  1  0  0  0
 73 84  1  0  0  0
 74 82  1  0  0  0
 74 84  2  0  0  0
 75147  1  0  0  0
 75148  1  0  0  0
 75149  1  0  0  0
 75 82  1  0  0  0
 76 82  1  0  0  0
 76150  1  0  0  0
 76151  1  0  0  0
 76152  1  0  0  0
 77 85  1  0  0  0
 77153  1  0  0  0
 77154  1  0  0  0
 77155  1  0  0  0
 78 79  1  0  0  0
 78156  1  0  0  0
 78157  1  0  0  0
 79 80  1  0  0  0
 79158  1  0  0  0
 79159  1  0  0  0
 80 85  1  0  0  0
 80160  1  0  0  0
 80161  1  0  0  0
 81 82  1  0  0  0
 81162  1  0  0  0
 81163  1  0  0  0
M  ISO  4   1 100  68 101  81 101  85 100
M  END
> <chiral flag>
0

> <version>
0

> <s_m_source_file>
/data/baiqing/PycharmProjects/Reinvent-master-3.2/result/LINK_invent/BTK/process_docking_weight1_custom_sum_contain_oxygen_bond_distance_aromatic_linkinvent_7_9_3/rearranged_h_0066.sdf

> <i_m_source_file_index>
85

> <r_mmod_Potential_Energy-OPLS-2005>
237.628036499023

> <r_mmod_Stretch_Energy-OPLS-2005>
55.2184257507324

> <r_mmod_Bend_Energy-OPLS-2005>
133.493408203125

> <r_mmod_Torsional_Energy-OPLS-2005>
271.721435546875

> <r_mmod_Improper_Torsional_Energy-OPLS-2005>
9.44576549530029

> <r_mmod_Van_der_Waal_Energy-OPLS-2005>
175.096527099609

> <r_mmod_Electrostatic_Energy-OPLS-2005>
-223.844223022461

> <r_mmod_Solvation_Energy-OPLS-2005>
-200.201110839844

> <b_mmod_Minimization_Converged-OPLS-2005>
0

> <r_mmod_RMS_Derivative-OPLS-2005>
1.70218861103058

$$$$
90
                    3D
 Structure written by MMmdl.
187195  0  0  1  0            999 V2000
  -30.5498  -14.7246   20.5825 C   0  0  0  0  0  0
  -30.4470  -12.4491   19.4953 C   0  0  0  0  0  0
  -29.5188  -12.5026   18.2563 C   0  0  0  0  0  0
  -28.0528  -12.2843   18.6819 C   0  0  0  0  0  0
  -27.6431  -13.2033   19.8638 C   0  0  2  0  0  0
  -28.6781  -13.0807   21.0035 C   0  0  0  0  0  0
  -25.2484  -13.8107   20.5744 C   0  0  0  0  0  0
  -24.1766  -13.0394   20.9263 C   0  0  0  0  0  0
  -24.6328  -11.6849   20.8756 C   0  0  0  0  0  0
  -23.9000  -10.4240   21.0428 C   0  0  0  0  0  0
  -24.3600   -9.4153   21.9208 C   0  0  0  0  0  0
  -23.6250   -8.2186   22.0736 C   0  0  0  0  0  0
  -22.4229   -8.0231   21.3527 C   0  0  0  0  0  0
  -21.9873   -9.0195   20.4624 C   0  0  0  0  0  0
  -22.7188  -10.2080   20.3051 C   0  0  0  0  0  0
  -21.6851   -6.0685   22.5286 C   0  0  0  0  0  0
  -21.4027   -6.5598   23.8216 C   0  0  0  0  0  0
  -21.3645   -5.6756   24.9187 C   0  0  0  0  0  0
  -21.6059   -4.3011   24.7268 C   0  0  0  0  0  0
  -21.8816   -3.8099   23.4386 C   0  0  0  0  0  0
  -21.9179   -4.6909   22.3419 C   0  0  0  0  0  0
  -22.7803  -13.5156   21.1932 C   0  0  0  0  0  0
  -22.1591   -4.2082   21.0989 F   0  0  0  0  0  0
  -21.5662   -3.4490   25.7780 F   0  0  0  0  0  0
  -29.9688  -13.4846   20.4440 N   0  0  0  0  0  0
  -26.2892  -12.9276   20.3291 N   0  0  0  0  0  0
  -25.9245  -11.6462   20.5809 N   0  0  0  0  0  0
  -22.0435  -12.8238   22.0557 N   0  0  0  0  0  0
  -25.4095  -15.1885   20.4205 N   0  0  0  0  0  0
  -31.7332  -14.8766   20.2625 O   0  0  0  0  0  0
  -21.6622   -6.8818   21.4213 O   0  0  0  0  0  0
  -22.3469  -14.5408   20.6649 O   0  0  0  0  0  0
  -24.6308  -31.8532   23.2002 C   0  0  0  0  0  0
  -25.9126  -32.4757   23.8375 C   0  0  1  0  0  0
  -27.2155  -27.2595   20.1578 C   0  0  0  0  0  0
  -25.5920  -33.8576   24.2285 N   0  0  0  0  0  0
  -23.4295  -30.4759   21.5420 C   0  0  2  0  0  0
  -24.8766  -28.9235   20.1112 C   0  0  0  0  0  0
  -22.7532  -29.4592   22.4940 C   0  0  0  0  0  0
  -18.0290  -28.1385   22.8488 C   0  0  0  0  0  0
  -24.1471  -36.7251   23.2654 C   0  0  0  0  0  0
  -25.9761  -30.7716   21.3782 C   0  0  0  0  0  0
  -26.0496  -29.4000   20.7093 C   0  0  0  0  0  0
  -27.2285  -28.5913   20.6954 C   0  0  0  0  0  0
  -26.0232  -26.8421   19.5334 C   0  0  0  0  0  0
  -24.8706  -27.6568   19.5011 C   0  0  0  0  0  0
  -23.6455  -29.8067   20.1601 C   0  0  0  0  0  0
  -25.4108  -36.3084   24.0343 C   0  0  1  0  0  0
  -20.5900  -28.3687   23.1277 C   0  0  2  0  0  0
  -20.6784  -26.9408   22.5412 C   0  0  0  0  0  0
  -19.5757  -26.6379   21.5219 C   0  0  0  0  0  0
  -18.1928  -26.7930   22.1624 C   0  0  0  0  0  0
  -19.1542  -28.8858   23.2875 C   0  0  0  0  0  0
  -18.9465  -30.1464   23.8885 C   0  0  0  0  0  0
  -17.6461  -30.6584   24.0555 C   0  0  0  0  0  0
  -25.9049  -34.9440   23.5110 C   0  0  0  0  0  0
  -16.5353  -29.9068   23.6350 C   0  0  0  0  0  0
  -16.7274  -28.6490   23.0368 C   0  0  0  0  0  0
  -26.4487  -31.6599   25.0774 C   0  0  0  0  0  0
  -25.3706  -31.3726   26.1489 C   0  0  0  0  0  0
  -27.0391  -30.3021   24.6311 C   0  0  0  0  0  0
  -27.6025  -32.4374   25.7551 C   0  0  0  0  0  0
  -27.5575  -37.1804   24.8472 C   0  0  0  0  0  0
  -21.4228  -29.3035   22.3673 N   0  0  0  0  0  0
  -26.4283  -37.3774   23.9422 N   0  0  0  0  0  0
  -24.6979  -31.0518   22.0943 N   0  0  0  0  0  0
  -23.4212  -28.8138   23.3076 O   0  0  0  0  0  0
  -28.2972  -26.3517   20.1957 O   0  0  0  0  0  0
  -26.5630  -34.8901   22.4692 O   0  0  0  0  0  0
  -23.5452  -32.1381   23.7291 O   0  0  0  0  0  0
  -28.7655  -19.6518   21.3973 C   0  0  0  0  0  0
  -29.5063  -18.5378   20.9781 C   0  0  0  0  0  0
  -29.8015  -20.3257   19.5822 C   0  0  0  0  0  0
  -29.0330  -17.0433   22.9149 C   0  0  0  0  0  0
  -31.3757  -17.3126   22.0650 C   0  0  0  0  0  0
  -30.3169  -22.3788   18.0519 C   0  0  0  0  0  0
  -29.7065  -20.1868   17.1068 C   0  0  0  0  0  0
  -31.9299  -20.5295   18.2872 C   0  0  0  0  0  0
  -29.4513  -24.4555   23.3266 C   0  0  0  0  0  0
  -27.9643  -26.3891   23.2890 C   0  0  0  0  0  0
  -30.1857  -26.4534   22.1014 C   0  0  0  0  0  0
  -26.9585  -22.0781   19.7171 C   0  0  0  0  0  0
  -27.4930  -22.1498   22.1138 C   0  0  0  0  0  0
  -28.8126  -23.6765   20.4843 C   0  0  0  0  0  0
  -28.2350  -25.1130   21.0683 C   0  0  1  0  0  0
  -29.9037  -17.1466   21.6424 C   0  0  0  0  0  0
  -30.4151  -20.8721   18.2945 C   0  0  0  0  0  0
  -28.9438  -25.5845   22.4092 C   0  0  0  0  0  0
  -28.1418  -22.1658   20.7062 C   0  0  0  0  0  0
  -28.9496  -20.7872   20.5581 N   0  0  0  0  0  0
  -30.0694  -19.0185   19.8398 N   0  3  0  0  0  0
  -29.7170  -15.7818   20.9538 N   0  0  0  0  0  0
  -31.4886  -12.5951   19.2070 H   0  0  0  0  0  0
  -30.4054  -11.4617   19.9589 H   0  0  0  0  0  0
  -29.8183  -11.7608   17.5186 H   0  0  0  0  0  0
  -29.6179  -13.4697   17.7649 H   0  0  0  0  0  0
  -27.9709  -11.2478   19.0096 H   0  0  0  0  0  0
  -27.3747  -12.3872   17.8374 H   0  0  0  0  0  0
  -27.6608  -14.2229   19.4825 H   0  0  0  0  0  0
  -28.7249  -12.0485   21.3632 H   0  0  0  0  0  0
  -28.4125  -13.6897   21.8704 H   0  0  0  0  0  0
  -25.2728   -9.5603   22.4821 H   0  0  0  0  0  0
  -23.9920   -7.4548   22.7439 H   0  0  0  0  0  0
  -21.0815   -8.8684   19.8928 H   0  0  0  0  0  0
  -22.3608  -10.9620   19.6172 H   0  0  0  0  0  0
  -21.1999   -7.6099   23.9708 H   0  0  0  0  0  0
  -21.1485   -6.0495   25.9104 H   0  0  0  0  0  0
  -22.0628   -2.7564   23.2921 H   0  0  0  0  0  0
  -22.4074  -11.9989   22.5092 H   0  0  0  0  0  0
  -21.1053  -13.1279   22.2721 H   0  0  0  0  0  0
  -24.6431  -15.8232   20.6163 H   0  0  0  0  0  0
  -26.2130  -15.6492   20.0155 H   0  0  0  0  0  0
  -26.7212  -32.5395   23.1134 H   0  0  0  0  0  0
  -25.0090  -33.9726   25.0448 H   0  0  0  0  0  0
  -22.7230  -31.2949   21.3961 H   0  0  0  0  0  0
  -23.3771  -35.9550   23.3327 H   0  0  0  0  0  0
  -24.3546  -36.8862   22.2070 H   0  0  0  0  0  0
  -23.7189  -37.6428   23.6674 H   0  0  0  0  0  0
  -26.1317  -31.5471   20.6262 H   0  0  0  0  0  0
  -26.8434  -30.8040   22.0274 H   0  0  0  0  0  0
  -28.1305  -28.9598   21.1636 H   0  0  0  0  0  0
  -25.9781  -25.8599   19.0839 H   0  0  0  0  0  0
  -23.9719  -27.2886   19.0246 H   0  0  0  0  0  0
  -23.7608  -30.5788   19.4009 H   0  0  0  0  0  0
  -22.7663  -29.2320   19.8625 H   0  0  0  0  0  0
  -25.1301  -36.1940   25.0840 H   0  0  0  0  0  0
  -20.9967  -28.3263   24.1406 H   0  0  0  0  0  0
  -20.5695  -26.2294   23.3621 H   0  0  0  0  0  0
  -21.6648  -26.7436   22.1191 H   0  0  0  0  0  0
  -19.6909  -25.6284   21.1261 H   0  0  0  0  0  0
  -19.6693  -27.3190   20.6750 H   0  0  0  0  0  0
  -17.4201  -26.6684   21.4023 H   0  0  0  0  0  0
  -18.0306  -26.0073   22.9018 H   0  0  0  0  0  0
  -19.7930  -30.7288   24.2244 H   0  0  0  0  0  0
  -17.5001  -31.6265   24.5154 H   0  0  0  0  0  0
  -15.5347  -30.2958   23.7689 H   0  0  0  0  0  0
  -15.8672  -28.0799   22.7107 H   0  0  0  0  0  0
  -24.5843  -30.7137   25.7767 H   0  0  0  0  0  0
  -24.8945  -32.2890   26.4993 H   0  0  0  0  0  0
  -25.7998  -30.8806   27.0231 H   0  0  0  0  0  0
  -26.3035  -29.6743   24.1258 H   0  0  0  0  0  0
  -27.3980  -29.7296   25.4880 H   0  0  0  0  0  0
  -27.8934  -30.4301   23.9660 H   0  0  0  0  0  0
  -27.2615  -33.3678   26.2111 H   0  0  0  0  0  0
  -28.3832  -32.6949   25.0380 H   0  0  0  0  0  0
  -28.0712  -31.8540   26.5488 H   0  0  0  0  0  0
  -28.2572  -38.0106   24.7526 H   0  0  0  0  0  0
  -28.1076  -36.2646   24.6293 H   0  0  0  0  0  0
  -27.2285  -37.1434   25.8860 H   0  0  0  0  0  0
  -20.9430  -29.8718   21.6839 H   0  0  0  0  0  0
  -26.0163  -38.2847   24.1405 H   0  0  0  0  0  0
  -28.1410  -19.6977   22.2756 H   0  0  0  0  0  0
  -29.1254  -17.9298   23.5451 H   0  0  0  0  0  0
  -29.2832  -16.1826   23.5366 H   0  0  0  0  0  0
  -27.9799  -16.9490   22.6495 H   0  0  0  0  0  0
  -31.5002  -18.1533   22.7443 H   0  0  0  0  0  0
  -31.9965  -17.4989   21.1869 H   0  0  0  0  0  0
  -31.7678  -16.4326   22.5727 H   0  0  0  0  0  0
  -29.2887  -22.6861   17.9060 H   0  0  0  0  0  0
  -30.8180  -22.6652   17.1268 H   0  0  0  0  0  0
  -30.7969  -22.9450   18.8446 H   0  0  0  0  0  0
  -28.6461  -20.4456   17.0895 H   0  0  0  0  0  0
  -29.7655  -19.1005   17.1502 H   0  0  0  0  0  0
  -30.1243  -20.4975   16.1489 H   0  0  0  0  0  0
  -32.4255  -20.9622   19.1581 H   0  0  0  0  0  0
  -32.4397  -20.9229   17.4059 H   0  0  0  0  0  0
  -32.1293  -19.4570   18.3117 H   0  0  0  0  0  0
  -29.9317  -24.8696   24.2136 H   0  0  0  0  0  0
  -30.1978  -23.8167   22.8572 H   0  0  0  0  0  0
  -28.6344  -23.8574   23.7147 H   0  0  0  0  0  0
  -28.4518  -26.7532   24.1936 H   0  0  0  0  0  0
  -27.1118  -25.7813   23.5972 H   0  0  0  0  0  0
  -27.5621  -27.2641   22.7962 H   0  0  0  0  0  0
  -30.7388  -26.6936   23.0101 H   0  0  0  0  0  0
  -29.9236  -27.4081   21.6454 H   0  0  0  0  0  0
  -30.8705  -25.9407   21.4236 H   0  0  0  0  0  0
  -27.2923  -22.0045   18.6830 H   0  0  0  0  0  0
  -26.3200  -22.9596   19.7902 H   0  0  0  0  0  0
  -26.3260  -21.2091   19.9117 H   0  0  0  0  0  0
  -26.9540  -23.0647   22.3486 H   0  0  0  0  0  0
  -28.2439  -21.9826   22.8849 H   0  0  0  0  0  0
  -26.7556  -21.3544   22.2316 H   0  0  0  0  0  0
  -29.8812  -23.6291   20.6860 H   0  0  0  0  0  0
  -28.7300  -23.8841   19.4270 H   0  0  0  0  0  0
  -27.1762  -24.9517   21.2649 H   0  0  0  0  0  0
  -30.6620  -18.4501   19.2473 H   0  0  0  0  0  0
  -28.7632  -15.4703   21.0588 H   0  0  0  0  0  0
  1 25  1  0  0  0
  1 30  2  0  0  0
  1 92  1  0  0  0
  2  3  1  0  0  0
  2 25  1  0  0  0
  2 93  1  0  0  0
  2 94  1  0  0  0
  3  4  1  0  0  0
  3 95  1  0  0  0
  3 96  1  0  0  0
  4  5  1  0  0  0
  4 97  1  0  0  0
  4 98  1  0  0  0
  5  6  1  0  0  0
  5 26  1  0  0  0
  5 99  1  0  0  0
  6 25  1  0  0  0
  6100  1  0  0  0
  6101  1  0  0  0
  7  8  2  0  0  0
  7 26  1  0  0  0
  7 29  1  0  0  0
  8  9  1  0  0  0
  8 22  1  0  0  0
  9 10  1  0  0  0
  9 27  2  0  0  0
 10 11  2  0  0  0
 10 15  1  0  0  0
 11 12  1  0  0  0
 11102  1  0  0  0
 12 13  2  0  0  0
 12103  1  0  0  0
 13 14  1  0  0  0
 13 31  1  0  0  0
 14 15  2  0  0  0
 14104  1  0  0  0
 15105  1  0  0  0
 16 17  2  0  0  0
 16 21  1  0  0  0
 16 31  1  0  0  0
 17 18  1  0  0  0
 17106  1  0  0  0
 18 19  2  0  0  0
 18107  1  0  0  0
 19 20  1  0  0  0
 19 24  1  0  0  0
 20 21  2  0  0  0
 20108  1  0  0  0
 21 23  1  0  0  0
 22 28  1  0  0  0
 22 32  2  0  0  0
 26 27  1  0  0  0
 28109  1  0  0  0
 28110  1  0  0  0
 29111  1  0  0  0
 29112  1  0  0  0
 33 34  1  0  0  0
 33 66  1  0  0  0
 33 70  2  0  0  0
 34 36  1  0  0  0
 34 59  1  0  0  0
 34113  1  0  0  0
 35 44  2  0  0  0
 35 45  1  0  0  0
 35 68  1  0  0  0
 36 56  1  0  0  0
 36114  1  0  0  0
 37 39  1  0  0  0
 37 47  1  0  0  0
 37 66  1  0  0  0
 37115  1  0  0  0
 38 43  2  0  0  0
 38 46  1  0  0  0
 38 47  1  0  0  0
 39 64  1  0  0  0
 39 67  2  0  0  0
 40 52  1  0  0  0
 40 53  2  0  0  0
 40 58  1  0  0  0
 41116  1  0  0  0
 41117  1  0  0  0
 41118  1  0  0  0
 41 48  1  0  0  0
 42 43  1  0  0  0
 42 66  1  0  0  0
 42119  1  0  0  0
 42120  1  0  0  0
 43 44  1  0  0  0
 44121  1  0  0  0
 45 46  2  0  0  0
 45122  1  0  0  0
 46123  1  0  0  0
 47124  1  0  0  0
 47125  1  0  0  0
 48 56  1  0  0  0
 48 65  1  0  0  0
 48126  1  0  0  0
 49 50  1  0  0  0
 49 53  1  0  0  0
 49 64  1  0  0  0
 49127  1  0  0  0
 50 51  1  0  0  0
 50128  1  0  0  0
 50129  1  0  0  0
 51 52  1  0  0  0
 51130  1  0  0  0
 51131  1  0  0  0
 52132  1  0  0  0
 52133  1  0  0  0
 53 54  1  0  0  0
 54 55  2  0  0  0
 54134  1  0  0  0
 55 57  1  0  0  0
 55135  1  0  0  0
 56 69  2  0  0  0
 57 58  2  0  0  0
 57136  1  0  0  0
 58137  1  0  0  0
 59 60  1  0  0  0
 59 61  1  0  0  0
 59 62  1  0  0  0
 60138  1  0  0  0
 60139  1  0  0  0
 60140  1  0  0  0
 61141  1  0  0  0
 61142  1  0  0  0
 61143  1  0  0  0
 62144  1  0  0  0
 62145  1  0  0  0
 62146  1  0  0  0
 63 65  1  0  0  0
 63147  1  0  0  0
 63148  1  0  0  0
 63149  1  0  0  0
 64150  1  0  0  0
 65151  1  0  0  0
 68 85  1  0  0  0
 71 72  2  0  0  0
 71 90  1  0  0  0
 71152  1  0  0  0
 72 86  1  0  0  0
 72 91  1  0  0  0
 73 87  1  0  0  0
 73 90  1  0  0  0
 73 91  2  0  0  0
 74153  1  0  0  0
 74154  1  0  0  0
 74155  1  0  0  0
 74 86  1  0  0  0
 75 86  1  0  0  0
 75156  1  0  0  0
 75157  1  0  0  0
 75158  1  0  0  0
 76159  1  0  0  0
 76160  1  0  0  0
 76161  1  0  0  0
 76 87  1  0  0  0
 77 87  1  0  0  0
 77162  1  0  0  0
 77163  1  0  0  0
 77164  1  0  0  0
 78 87  1  0  0  0
 78165  1  0  0  0
 78166  1  0  0  0
 78167  1  0  0  0
 79168  1  0  0  0
 79169  1  0  0  0
 79170  1  0  0  0
 79 88  1  0  0  0
 80 88  1  0  0  0
 80171  1  0  0  0
 80172  1  0  0  0
 80173  1  0  0  0
 81 88  1  0  0  0
 81174  1  0  0  0
 81175  1  0  0  0
 81176  1  0  0  0
 82177  1  0  0  0
 82178  1  0  0  0
 82179  1  0  0  0
 82 89  1  0  0  0
 83 89  1  0  0  0
 83180  1  0  0  0
 83181  1  0  0  0
 83182  1  0  0  0
 84 89  1  0  0  0
 84183  1  0  0  0
 84184  1  0  0  0
 84 85  1  0  0  0
 85 88  1  0  0  0
 85185  1  0  0  0
 86 92  1  0  0  0
 89 90  1  0  0  0
 91186  1  0  0  0
 92187  1  0  0  0
M  CHG  1  91   1
M  ISO  4   1 100  68 101  85 101  92 100
M  END
> <chiral flag>
0

> <version>
0

> <s_m_source_file>
/data/baiqing/PycharmProjects/Reinvent-master-3.2/result/LINK_invent/BTK/process_docking_weight1_custom_sum_contain_oxygen_bond_distance_aromatic_linkinvent_7_9_3/rearranged_h_0066.sdf

> <i_m_source_file_index>
86

> <r_mmod_Potential_Energy-OPLS-2005>
296.460723876953

> <r_mmod_Stretch_Energy-OPLS-2005>
178.870010375977

> <r_mmod_Bend_Energy-OPLS-2005>
279.676727294922

> <r_mmod_Torsional_Energy-OPLS-2005>
326.8037109375

> <r_mmod_Improper_Torsional_Energy-OPLS-2005>
6.01965379714966

> <r_mmod_Van_der_Waal_Energy-OPLS-2005>
142.662979125977

> <r_mmod_Electrostatic_Energy-OPLS-2005>
-349.963745117188

> <r_mmod_Solvation_Energy-OPLS-2005>
-374.572357177734

> <b_mmod_Minimization_Converged-OPLS-2005>
0

> <r_mmod_RMS_Derivative-OPLS-2005>
7.17079210281372

$$$$
91
                    3D
 Structure written by MMmdl.
184192  0  0  1  0            999 V2000
  -30.6612  -14.6255   20.5654 C   0  0  0  0  0  0
  -30.4184  -12.4018   19.4566 C   0  0  0  0  0  0
  -29.4978  -12.5268   18.2252 C   0  0  0  0  0  0
  -28.0236  -12.3617   18.6374 C   0  0  0  0  0  0
  -27.6497  -13.2272   19.8715 C   0  0  2  0  0  0
  -28.6897  -13.0876   21.0028 C   0  0  0  0  0  0
  -25.2527  -13.8225   20.5707 C   0  0  0  0  0  0
  -24.1807  -13.0443   20.9215 C   0  0  0  0  0  0
  -24.6396  -11.6930   20.8746 C   0  0  0  0  0  0
  -23.9089  -10.4297   21.0395 C   0  0  0  0  0  0
  -24.3624   -9.4210   21.9179 C   0  0  0  0  0  0
  -23.6302   -8.2242   22.0755 C   0  0  0  0  0  0
  -22.4293   -8.0289   21.3540 C   0  0  0  0  0  0
  -21.9916   -9.0259   20.4654 C   0  0  0  0  0  0
  -22.7246  -10.2138   20.3054 C   0  0  0  0  0  0
  -21.6853   -6.0739   22.5281 C   0  0  0  0  0  0
  -21.4005   -6.5637   23.8217 C   0  0  0  0  0  0
  -21.3673   -5.6798   24.9184 C   0  0  0  0  0  0
  -21.6046   -4.3051   24.7234 C   0  0  0  0  0  0
  -21.8821   -3.8147   23.4345 C   0  0  0  0  0  0
  -21.9192   -4.6966   22.3410 C   0  0  0  0  0  0
  -22.7828  -13.5208   21.1882 C   0  0  0  0  0  0
  -22.1660   -4.2142   21.0985 F   0  0  0  0  0  0
  -21.5645   -3.4545   25.7747 F   0  0  0  0  0  0
  -30.0077  -13.4238   20.4449 N   0  0  0  0  0  0
  -26.2966  -12.9407   20.3343 N   0  0  0  0  0  0
  -25.9313  -11.6540   20.5749 N   0  0  0  0  0  0
  -22.0496  -12.8176   22.0452 N   0  0  0  0  0  0
  -25.4241  -15.1936   20.4103 N   0  0  0  0  0  0
  -31.7639  -14.7975   20.0366 O   0  0  0  0  0  0
  -21.6649   -6.8873   21.4250 O   0  0  0  0  0  0
  -22.3508  -14.5526   20.6783 O   0  0  0  0  0  0
  -24.6262  -31.8552   23.2069 C   0  0  0  0  0  0
  -25.9131  -32.4755   23.8351 C   0  0  1  0  0  0
  -27.2115  -27.3230   20.1190 C   0  0  0  0  0  0
  -25.5940  -33.8548   24.2315 N   0  0  0  0  0  0
  -23.4160  -30.4825   21.5466 C   0  0  2  0  0  0
  -24.8574  -28.9331   20.1073 C   0  0  0  0  0  0
  -22.7449  -29.4651   22.4959 C   0  0  0  0  0  0
  -18.0308  -28.1382   22.8471 C   0  0  0  0  0  0
  -24.1495  -36.7264   23.2645 C   0  0  0  0  0  0
  -25.9551  -30.7870   21.3719 C   0  0  0  0  0  0
  -26.0213  -29.4143   20.7183 C   0  0  0  0  0  0
  -27.1986  -28.6196   20.7179 C   0  0  0  0  0  0
  -26.0314  -26.8818   19.4864 C   0  0  0  0  0  0
  -24.8637  -27.6724   19.4829 C   0  0  0  0  0  0
  -23.6282  -29.8134   20.1615 C   0  0  0  0  0  0
  -25.4083  -36.3022   24.0359 C   0  0  1  0  0  0
  -20.5904  -28.3707   23.1271 C   0  0  2  0  0  0
  -20.6804  -26.9441   22.5394 C   0  0  0  0  0  0
  -19.5787  -26.6406   21.5190 C   0  0  0  0  0  0
  -18.1976  -26.7933   22.1611 C   0  0  0  0  0  0
  -19.1555  -28.8860   23.2881 C   0  0  0  0  0  0
  -18.9465  -30.1454   23.8914 C   0  0  0  0  0  0
  -17.6464  -30.6587   24.0545 C   0  0  0  0  0  0
  -25.9033  -34.9398   23.5117 C   0  0  0  0  0  0
  -16.5372  -29.9070   23.6315 C   0  0  0  0  0  0
  -16.7293  -28.6494   23.0342 C   0  0  0  0  0  0
  -26.4558  -31.6579   25.0703 C   0  0  0  0  0  0
  -25.3867  -31.3574   26.1439 C   0  0  0  0  0  0
  -27.0508  -30.3067   24.6160 C   0  0  0  0  0  0
  -27.6134  -32.4356   25.7393 C   0  0  0  0  0  0
  -27.5584  -37.1772   24.8437 C   0  0  0  0  0  0
  -21.4165  -29.3060   22.3637 N   0  0  0  0  0  0
  -26.4281  -37.3685   23.9391 N   0  0  0  0  0  0
  -24.6851  -31.0590   22.0996 N   0  0  0  0  0  0
  -23.4172  -28.8236   23.3069 O   0  0  0  0  0  0
  -28.3435  -26.5081   20.1972 O   0  0  0  0  0  0
  -26.5601  -34.8847   22.4679 O   0  0  0  0  0  0
  -23.5445  -32.1332   23.7406 O   0  0  0  0  0  0
  -28.1160  -20.1593   23.2657 C   0  0  0  0  0  0
  -29.3801  -19.8436   22.8195 C   0  0  0  0  0  0
  -28.1337  -20.2467   21.0575 C   0  0  0  0  0  0
  -27.4855  -18.8877   18.2738 C   0  0  0  0  0  0
  -26.2483  -21.2542   19.6986 C   0  0  0  0  0  0
  -30.5454  -15.7471   22.6883 C   0  0  0  0  0  0
  -28.1552  -20.2604   18.4707 C   0  0  0  0  0  0
  -27.8443  -23.8525   20.2422 C   0  0  0  0  0  0
  -28.4772  -22.4868   19.6940 C   0  0  0  0  0  0
  -29.8490  -18.2925   20.7029 C   0  0  0  0  0  0
  -29.2427  -16.8038   20.8367 C   0  0  0  0  0  0
  -28.4388  -25.1733   19.5810 C   0  0  0  0  0  0
  -33.3594  -20.3591   23.2302 C   0  0  0  0  0  0
  -30.6907  -20.1790   23.5791 C   0  0  0  0  0  0
  -27.7791  -21.0362   19.7644 C   0  0  2  0  0  0
  -31.9893  -19.8021   22.7697 C   0  0  0  0  0  0
  -30.6684  -21.7449   23.7903 C   0  0  0  0  0  0
  -30.6692  -19.4976   24.9919 C   0  0  0  0  0  0
  -29.1553  -19.4262   21.4936 N   0  0  0  0  0  0
  -27.4079  -20.4716   22.1539 N   0  3  0  0  0  0
  -30.0832  -15.6311   21.3089 N   0  0  0  0  0  0
  -34.3270  -19.8123   22.4932 F   0  0  0  0  0  0
  -31.8725  -20.2518   21.5174 F   0  0  0  0  0  0
  -32.1107  -18.4750   22.7783 F   0  0  0  0  0  0
  -31.6988  -22.1886   24.5072 F   0  0  0  0  0  0
  -30.6793  -22.3763   22.6142 F   0  0  0  0  0  0
  -29.5800  -22.1760   24.4317 F   0  0  0  0  0  0
  -30.6134  -18.1698   24.8855 F   0  0  0  0  0  0
  -29.6107  -19.8785   25.7075 F   0  0  0  0  0  0
  -31.7455  -19.7997   25.7142 F   0  0  0  0  0  0
  -31.4630  -12.5032   19.1582 H   0  0  0  0  0  0
  -30.3331  -11.4036   19.8893 H   0  0  0  0  0  0
  -29.7642  -11.7848   17.4707 H   0  0  0  0  0  0
  -29.6420  -13.5014   17.7553 H   0  0  0  0  0  0
  -27.8616  -11.3058   18.8611 H   0  0  0  0  0  0
  -27.3698  -12.6014   17.7989 H   0  0  0  0  0  0
  -27.6649  -14.2653   19.5391 H   0  0  0  0  0  0
  -28.6921  -12.0711   21.3960 H   0  0  0  0  0  0
  -28.4214  -13.7282   21.8412 H   0  0  0  0  0  0
  -25.2764   -9.5692   22.4742 H   0  0  0  0  0  0
  -24.0035   -7.4631   22.7431 H   0  0  0  0  0  0
  -21.0870   -8.8779   19.8923 H   0  0  0  0  0  0
  -22.3720  -10.9685   19.6162 H   0  0  0  0  0  0
  -21.1983   -7.6141   23.9716 H   0  0  0  0  0  0
  -21.1500   -6.0525   25.9090 H   0  0  0  0  0  0
  -22.0585   -2.7603   23.2859 H   0  0  0  0  0  0
  -22.4135  -11.9825   22.4806 H   0  0  0  0  0  0
  -21.1102  -13.1172   22.2655 H   0  0  0  0  0  0
  -24.6553  -15.8488   20.5049 H   0  0  0  0  0  0
  -26.2764  -15.6260   20.0820 H   0  0  0  0  0  0
  -26.7201  -32.5359   23.1064 H   0  0  0  0  0  0
  -25.0055  -33.9601   25.0445 H   0  0  0  0  0  0
  -22.7084  -31.3031   21.4012 H   0  0  0  0  0  0
  -23.3735  -35.9625   23.3276 H   0  0  0  0  0  0
  -24.3662  -36.8852   22.2082 H   0  0  0  0  0  0
  -23.7255  -37.6510   23.6592 H   0  0  0  0  0  0
  -26.0871  -31.5495   20.6036 H   0  0  0  0  0  0
  -26.8394  -30.8307   21.9935 H   0  0  0  0  0  0
  -28.0930  -28.9873   21.2017 H   0  0  0  0  0  0
  -25.9784  -25.9154   19.0062 H   0  0  0  0  0  0
  -23.9703  -27.2939   19.0042 H   0  0  0  0  0  0
  -23.7461  -30.5908   19.4073 H   0  0  0  0  0  0
  -22.7502  -29.2446   19.8509 H   0  0  0  0  0  0
  -25.1250  -36.1859   25.0854 H   0  0  0  0  0  0
  -21.0017  -28.3314   24.1388 H   0  0  0  0  0  0
  -20.5688  -26.2335   23.3587 H   0  0  0  0  0  0
  -21.6662  -26.7444   22.1198 H   0  0  0  0  0  0
  -19.6932  -25.6316   21.1222 H   0  0  0  0  0  0
  -19.6723  -27.3218   20.6716 H   0  0  0  0  0  0
  -17.4246  -26.6687   21.4014 H   0  0  0  0  0  0
  -18.0379  -26.0078   22.9013 H   0  0  0  0  0  0
  -19.7948  -30.7251   24.2346 H   0  0  0  0  0  0
  -17.5027  -31.6286   24.5105 H   0  0  0  0  0  0
  -15.5370  -30.2956   23.7651 H   0  0  0  0  0  0
  -15.8723  -28.0796   22.7035 H   0  0  0  0  0  0
  -24.5941  -30.7137   25.7596 H   0  0  0  0  0  0
  -24.9194  -32.2694   26.5152 H   0  0  0  0  0  0
  -25.8109  -30.8414   27.0081 H   0  0  0  0  0  0
  -26.3206  -29.6698   24.1132 H   0  0  0  0  0  0
  -27.4309  -29.7409   25.4685 H   0  0  0  0  0  0
  -27.8890  -30.4540   23.9371 H   0  0  0  0  0  0
  -27.2859  -33.3771   26.1799 H   0  0  0  0  0  0
  -28.3959  -32.6708   25.0194 H   0  0  0  0  0  0
  -28.0758  -31.8611   26.5402 H   0  0  0  0  0  0
  -28.2559  -38.0098   24.7411 H   0  0  0  0  0  0
  -28.1100  -36.2635   24.6262 H   0  0  0  0  0  0
  -27.2316  -37.1401   25.8840 H   0  0  0  0  0  0
  -20.9386  -29.8808   21.6844 H   0  0  0  0  0  0
  -26.0209  -38.2781   24.1315 H   0  0  0  0  0  0
  -27.7405  -20.4584   24.2381 H   0  0  0  0  0  0
  -27.9305  -18.3625   17.4276 H   0  0  0  0  0  0
  -26.4219  -18.9850   18.0555 H   0  0  0  0  0  0
  -27.5712  -18.2486   19.1465 H   0  0  0  0  0  0
  -25.8848  -21.9010   20.4941 H   0  0  0  0  0  0
  -25.7012  -20.3164   19.7853 H   0  0  0  0  0  0
  -25.9531  -21.7137   18.7547 H   0  0  0  0  0  0
  -30.0059  -16.5257   23.2217 H   0  0  0  0  0  0
  -31.6116  -15.9777   22.7174 H   0  0  0  0  0  0
  -30.3895  -14.8087   23.2242 H   0  0  0  0  0  0
  -27.8811  -20.8570   17.6002 H   0  0  0  0  0  0
  -29.2361  -20.1599   18.3964 H   0  0  0  0  0  0
  -26.7697  -23.8755   20.0748 H   0  0  0  0  0  0
  -27.9824  -23.8951   21.3226 H   0  0  0  0  0  0
  -29.4859  -22.3980   20.0999 H   0  0  0  0  0  0
  -28.6436  -22.6948   18.6364 H   0  0  0  0  0  0
  -29.8328  -18.5652   19.6550 H   0  0  0  0  0  0
  -30.9092  -18.2580   20.8991 H   0  0  0  0  0  0
  -28.3472  -16.8359   21.4638 H   0  0  0  0  0  0
  -28.8683  -16.5215   19.8527 H   0  0  0  0  0  0
  -28.1308  -25.2327   18.5357 H   0  0  0  0  0  0
  -29.5158  -25.0015   19.5239 H   0  0  0  0  0  0
  -33.5989  -20.1379   24.2694 H   0  0  0  0  0  0
  -33.4510  -21.4348   23.0814 H   0  0  0  0  0  0
  -26.5096  -20.9430   22.1524 H   0  0  0  0  0  0
  1 25  1  0  0  0
  1 30  2  0  0  0
  1 91  1  0  0  0
  2  3  1  0  0  0
  2 25  1  0  0  0
  2101  1  0  0  0
  2102  1  0  0  0
  3  4  1  0  0  0
  3103  1  0  0  0
  3104  1  0  0  0
  4  5  1  0  0  0
  4105  1  0  0  0
  4106  1  0  0  0
  5  6  1  0  0  0
  5 26  1  0  0  0
  5107  1  0  0  0
  6 25  1  0  0  0
  6108  1  0  0  0
  6109  1  0  0  0
  7  8  2  0  0  0
  7 26  1  0  0  0
  7 29  1  0  0  0
  8  9  1  0  0  0
  8 22  1  0  0  0
  9 10  1  0  0  0
  9 27  2  0  0  0
 10 11  2  0  0  0
 10 15  1  0  0  0
 11 12  1  0  0  0
 11110  1  0  0  0
 12 13  2  0  0  0
 12111  1  0  0  0
 13 14  1  0  0  0
 13 31  1  0  0  0
 14 15  2  0  0  0
 14112  1  0  0  0
 15113  1  0  0  0
 16 17  2  0  0  0
 16 21  1  0  0  0
 16 31  1  0  0  0
 17 18  1  0  0  0
 17114  1  0  0  0
 18 19  2  0  0  0
 18115  1  0  0  0
 19 20  1  0  0  0
 19 24  1  0  0  0
 20 21  2  0  0  0
 20116  1  0  0  0
 21 23  1  0  0  0
 22 28  1  0  0  0
 22 32  2  0  0  0
 26 27  1  0  0  0
 28117  1  0  0  0
 28118  1  0  0  0
 29119  1  0  0  0
 29120  1  0  0  0
 33 34  1  0  0  0
 33 66  1  0  0  0
 33 70  2  0  0  0
 34 36  1  0  0  0
 34 59  1  0  0  0
 34121  1  0  0  0
 35 44  2  0  0  0
 35 45  1  0  0  0
 35 68  1  0  0  0
 36 56  1  0  0  0
 36122  1  0  0  0
 37 39  1  0  0  0
 37 47  1  0  0  0
 37 66  1  0  0  0
 37123  1  0  0  0
 38 43  2  0  0  0
 38 46  1  0  0  0
 38 47  1  0  0  0
 39 64  1  0  0  0
 39 67  2  0  0  0
 40 52  1  0  0  0
 40 53  2  0  0  0
 40 58  1  0  0  0
 41124  1  0  0  0
 41125  1  0  0  0
 41126  1  0  0  0
 41 48  1  0  0  0
 42 43  1  0  0  0
 42 66  1  0  0  0
 42127  1  0  0  0
 42128  1  0  0  0
 43 44  1  0  0  0
 44129  1  0  0  0
 45 46  2  0  0  0
 45130  1  0  0  0
 46131  1  0  0  0
 47132  1  0  0  0
 47133  1  0  0  0
 48 56  1  0  0  0
 48 65  1  0  0  0
 48134  1  0  0  0
 49 50  1  0  0  0
 49 53  1  0  0  0
 49 64  1  0  0  0
 49135  1  0  0  0
 50 51  1  0  0  0
 50136  1  0  0  0
 50137  1  0  0  0
 51 52  1  0  0  0
 51138  1  0  0  0
 51139  1  0  0  0
 52140  1  0  0  0
 52141  1  0  0  0
 53 54  1  0  0  0
 54 55  2  0  0  0
 54142  1  0  0  0
 55 57  1  0  0  0
 55143  1  0  0  0
 56 69  2  0  0  0
 57 58  2  0  0  0
 57144  1  0  0  0
 58145  1  0  0  0
 59 60  1  0  0  0
 59 61  1  0  0  0
 59 62  1  0  0  0
 60146  1  0  0  0
 60147  1  0  0  0
 60148  1  0  0  0
 61149  1  0  0  0
 61150  1  0  0  0
 61151  1  0  0  0
 62152  1  0  0  0
 62153  1  0  0  0
 62154  1  0  0  0
 63 65  1  0  0  0
 63155  1  0  0  0
 63156  1  0  0  0
 63157  1  0  0  0
 64158  1  0  0  0
 65159  1  0  0  0
 68 82  1  0  0  0
 71 72  2  0  0  0
 71 90  1  0  0  0
 71160  1  0  0  0
 72 89  1  0  0  0
 72 84  1  0  0  0
 73 85  1  0  0  0
 73 89  1  0  0  0
 73 90  2  0  0  0
 74 77  1  0  0  0
 74161  1  0  0  0
 74162  1  0  0  0
 74163  1  0  0  0
 75164  1  0  0  0
 75165  1  0  0  0
 75166  1  0  0  0
 75 85  1  0  0  0
 76 91  1  0  0  0
 76167  1  0  0  0
 76168  1  0  0  0
 76169  1  0  0  0
 77 85  1  0  0  0
 77170  1  0  0  0
 77171  1  0  0  0
 78 79  1  0  0  0
 78 82  1  0  0  0
 78172  1  0  0  0
 78173  1  0  0  0
 79 85  1  0  0  0
 79174  1  0  0  0
 79175  1  0  0  0
 80 81  1  0  0  0
 80 89  1  0  0  0
 80176  1  0  0  0
 80177  1  0  0  0
 81 91  1  0  0  0
 81178  1  0  0  0
 81179  1  0  0  0
 82180  1  0  0  0
 82181  1  0  0  0
 83 86  1  0  0  0
 83 92  1  0  0  0
 83182  1  0  0  0
 83183  1  0  0  0
 84 86  1  0  0  0
 84 87  1  0  0  0
 84 88  1  0  0  0
 86 93  1  0  0  0
 86 94  1  0  0  0
 87 95  1  0  0  0
 87 96  1  0  0  0
 87 97  1  0  0  0
 88 98  1  0  0  0
 88 99  1  0  0  0
 88100  1  0  0  0
 90184  1  0  0  0
M  CHG  1  90   1
M  ISO  4   1 100  68 101  82 101  91 100
M  END
> <chiral flag>
0

> <version>
0

> <s_m_source_file>
/data/baiqing/PycharmProjects/Reinvent-master-3.2/result/LINK_invent/BTK/process_docking_weight1_custom_sum_contain_oxygen_bond_distance_aromatic_linkinvent_7_9_3/rearranged_h_0066.sdf

> <i_m_source_file_index>
87

> <r_mmod_Potential_Energy-OPLS-2005>
518.224304199219

> <r_mmod_Stretch_Energy-OPLS-2005>
115.273628234863

> <r_mmod_Bend_Energy-OPLS-2005>
229.370162963867

> <r_mmod_Torsional_Energy-OPLS-2005>
522.252563476562

> <r_mmod_Improper_Torsional_Energy-OPLS-2005>
6.43140316009521

> <r_mmod_Van_der_Waal_Energy-OPLS-2005>
139.983856201172

> <r_mmod_Electrostatic_Energy-OPLS-2005>
-141.949798583984

> <r_mmod_Solvation_Energy-OPLS-2005>
-397.922912597656

> <b_mmod_Minimization_Converged-OPLS-2005>
0

> <r_mmod_RMS_Derivative-OPLS-2005>
6.09822082519531

$$$$
92
                    3D
 Structure written by MMmdl.
164172  0  0  1  0            999 V2000
  -30.7598  -14.3815   20.7589 C   0  0  0  0  0  0
  -30.4219  -12.3254   19.3981 C   0  0  0  0  0  0
  -29.4869  -12.5461   18.1927 C   0  0  0  0  0  0
  -28.0093  -12.3877   18.6002 C   0  0  0  0  0  0
  -27.6670  -13.1961   19.8764 C   0  0  2  0  0  0
  -28.7048  -12.9029   20.9786 C   0  0  0  0  0  0
  -25.2613  -13.8139   20.5646 C   0  0  0  0  0  0
  -24.1858  -13.0431   20.9166 C   0  0  0  0  0  0
  -24.6395  -11.6895   20.8718 C   0  0  0  0  0  0
  -23.9051  -10.4292   21.0403 C   0  0  0  0  0  0
  -24.3612   -9.4213   21.9179 C   0  0  0  0  0  0
  -23.6291   -8.2248   22.0752 C   0  0  0  0  0  0
  -22.4270   -8.0285   21.3547 C   0  0  0  0  0  0
  -21.9902   -9.0254   20.4645 C   0  0  0  0  0  0
  -22.7227  -10.2133   20.3053 C   0  0  0  0  0  0
  -21.6852   -6.0737   22.5280 C   0  0  0  0  0  0
  -21.4013   -6.5641   23.8214 C   0  0  0  0  0  0
  -21.3658   -5.6792   24.9175 C   0  0  0  0  0  0
  -21.6048   -4.3056   24.7225 C   0  0  0  0  0  0
  -21.8817   -3.8151   23.4343 C   0  0  0  0  0  0
  -21.9193   -4.6966   22.3400 C   0  0  0  0  0  0
  -22.7885  -13.5238   21.1846 C   0  0  0  0  0  0
  -22.1660   -4.2154   21.0980 F   0  0  0  0  0  0
  -21.5628   -3.4541   25.7733 F   0  0  0  0  0  0
  -30.0389  -13.2536   20.4798 N   0  0  0  0  0  0
  -26.3048  -12.9294   20.3344 N   0  0  0  0  0  0
  -25.9316  -11.6463   20.5729 N   0  0  0  0  0  0
  -22.0522  -12.8232   22.0401 N   0  0  0  0  0  0
  -25.4325  -15.1851   20.4025 N   0  0  0  0  0  0
  -31.7181  -14.6756   20.0320 O   0  0  0  0  0  0
  -21.6637   -6.8880   21.4244 O   0  0  0  0  0  0
  -22.3563  -14.5542   20.6698 O   0  0  0  0  0  0
  -24.6112  -31.8690   23.2105 C   0  0  0  0  0  0
  -25.9002  -32.4835   23.8401 C   0  0  1  0  0  0
  -27.2384  -27.4600   20.1022 C   0  0  0  0  0  0
  -25.5876  -33.8636   24.2340 N   0  0  0  0  0  0
  -23.3992  -30.4905   21.5494 C   0  0  2  0  0  0
  -24.8483  -28.9524   20.1222 C   0  0  0  0  0  0
  -22.7397  -29.4653   22.4991 C   0  0  0  0  0  0
  -18.0277  -28.1387   22.8502 C   0  0  0  0  0  0
  -24.1482  -36.7323   23.2633 C   0  0  0  0  0  0
  -25.9227  -30.8426   21.3577 C   0  0  0  0  0  0
  -26.0036  -29.4736   20.7172 C   0  0  0  0  0  0
  -27.2041  -28.7324   20.7082 C   0  0  0  0  0  0
  -26.0724  -26.9410   19.5045 C   0  0  0  0  0  0
  -24.8732  -27.6823   19.5154 C   0  0  0  0  0  0
  -23.6094  -29.8176   20.1652 C   0  0  0  0  0  0
  -25.4100  -36.3127   24.0341 C   0  0  1  0  0  0
  -20.5866  -28.3651   23.1333 C   0  0  2  0  0  0
  -20.6763  -26.9391   22.5425 C   0  0  0  0  0  0
  -19.5740  -26.6393   21.5220 C   0  0  0  0  0  0
  -18.1917  -26.7941   22.1626 C   0  0  0  0  0  0
  -19.1530  -28.8840   23.2921 C   0  0  0  0  0  0
  -18.9457  -30.1451   23.8921 C   0  0  0  0  0  0
  -17.6457  -30.6593   24.0578 C   0  0  0  0  0  0
  -25.9027  -34.9489   23.5141 C   0  0  0  0  0  0
  -16.5344  -29.9098   23.6324 C   0  0  0  0  0  0
  -16.7268  -28.6517   23.0344 C   0  0  0  0  0  0
  -26.4461  -31.6607   25.0705 C   0  0  0  0  0  0
  -25.3764  -31.3710   26.1484 C   0  0  0  0  0  0
  -27.0250  -30.3051   24.6022 C   0  0  0  0  0  0
  -27.6042  -32.4322   25.7472 C   0  0  0  0  0  0
  -27.5586  -37.1814   24.8467 C   0  0  0  0  0  0
  -21.4127  -29.3032   22.3746 N   0  0  0  0  0  0
  -26.4295  -37.3805   23.9417 N   0  0  0  0  0  0
  -24.6626  -31.0815   22.0989 N   0  0  0  0  0  0
  -23.4182  -28.8188   23.3019 O   0  0  0  0  0  0
  -28.4122  -26.7525   20.0399 O   0  0  0  0  0  0
  -26.5581  -34.8936   22.4699 O   0  0  0  0  0  0
  -23.5313  -32.1412   23.7532 O   0  0  0  0  0  0
  -29.7062  -19.5944   22.8353 C   0  0  0  0  0  0
  -29.4224  -18.6013   20.8913 C   0  0  0  0  0  0
  -29.5423  -19.8486   21.4440 C   0  0  0  0  0  0
  -28.0226  -15.9518   22.8343 C   0  0  0  0  0  0
  -30.4958  -14.4307   23.3226 C   0  0  0  0  0  0
  -31.7874  -16.1679   22.2119 C   0  0  0  0  0  0
  -28.2727  -24.3836   20.6171 C   0  0  0  0  0  0
  -28.7685  -23.2875   21.5828 C   0  0  0  0  0  0
  -28.6146  -25.8081   21.0881 C   0  0  0  0  0  0
  -28.3645  -21.8617   21.1555 C   0  0  0  0  0  0
  -29.2105  -16.2278   21.8710 C   0  0  2  0  0  0
  -30.5026  -15.2958   22.0273 C   0  0  0  0  0  0
  -29.6367  -18.3022   23.1201 N   0  0  0  0  0  0
  -29.4532  -17.6807   21.9256 N   0  0  0  0  0  0
  -29.5067  -21.0720   20.8202 O   0  0  0  0  0  0
  -31.4630  -12.4390   19.0928 H   0  0  0  0  0  0
  -30.3411  -11.2965   19.7522 H   0  0  0  0  0  0
  -29.7298  -11.8439   17.3941 H   0  0  0  0  0  0
  -29.6492  -13.5446   17.7844 H   0  0  0  0  0  0
  -27.8193  -11.3274   18.7712 H   0  0  0  0  0  0
  -27.3559  -12.6842   17.7791 H   0  0  0  0  0  0
  -27.7319  -14.2535   19.6206 H   0  0  0  0  0  0
  -28.6823  -11.8446   21.2436 H   0  0  0  0  0  0
  -28.4324  -13.4099   21.8822 H   0  0  0  0  0  0
  -25.2762   -9.5691   22.4742 H   0  0  0  0  0  0
  -24.0006   -7.4638   22.7466 H   0  0  0  0  0  0
  -21.0835   -8.8772   19.8946 H   0  0  0  0  0  0
  -22.3693  -10.9671   19.6158 H   0  0  0  0  0  0
  -21.2003   -7.6146   23.9719 H   0  0  0  0  0  0
  -21.1480   -6.0520   25.9077 H   0  0  0  0  0  0
  -22.0596   -2.7613   23.2839 H   0  0  0  0  0  0
  -22.4144  -11.9891   22.4781 H   0  0  0  0  0  0
  -21.1144  -13.1266   22.2612 H   0  0  0  0  0  0
  -24.6671  -15.8399   20.5169 H   0  0  0  0  0  0
  -26.2841  -15.6244   20.0786 H   0  0  0  0  0  0
  -26.7071  -32.5558   23.1173 H   0  0  0  0  0  0
  -25.0059  -33.9810   25.0510 H   0  0  0  0  0  0
  -22.6882  -31.3057   21.4090 H   0  0  0  0  0  0
  -23.3742  -35.9659   23.3315 H   0  0  0  0  0  0
  -24.3579  -36.8913   22.2046 H   0  0  0  0  0  0
  -23.7236  -37.6534   23.6630 H   0  0  0  0  0  0
  -26.0237  -31.6025   20.5809 H   0  0  0  0  0  0
  -26.8157  -30.9075   21.9672 H   0  0  0  0  0  0
  -28.1005  -29.1362   21.1584 H   0  0  0  0  0  0
  -26.0968  -25.9733   19.0242 H   0  0  0  0  0  0
  -23.9844  -27.2763   19.0519 H   0  0  0  0  0  0
  -23.7202  -30.5893   19.4023 H   0  0  0  0  0  0
  -22.7351  -29.2349   19.8709 H   0  0  0  0  0  0
  -25.1285  -36.1992   25.0834 H   0  0  0  0  0  0
  -20.9970  -28.3209   24.1448 H   0  0  0  0  0  0
  -20.5663  -26.2254   23.3605 H   0  0  0  0  0  0
  -21.6633  -26.7435   22.1219 H   0  0  0  0  0  0
  -19.6889  -25.6310   21.1239 H   0  0  0  0  0  0
  -19.6693  -27.3212   20.6763 H   0  0  0  0  0  0
  -17.4195  -26.6703   21.4019 H   0  0  0  0  0  0
  -18.0306  -26.0083   22.9028 H   0  0  0  0  0  0
  -19.7931  -30.7281   24.2276 H   0  0  0  0  0  0
  -17.5013  -31.6268   24.5193 H   0  0  0  0  0  0
  -15.5349  -30.3019   23.7636 H   0  0  0  0  0  0
  -15.8667  -28.0863   22.7022 H   0  0  0  0  0  0
  -24.5924  -30.7053   25.7857 H   0  0  0  0  0  0
  -24.8967  -32.2869   26.4955 H   0  0  0  0  0  0
  -25.8162  -30.8886   27.0221 H   0  0  0  0  0  0
  -26.2740  -29.6856   24.1094 H   0  0  0  0  0  0
  -27.4055  -29.7246   25.4432 H   0  0  0  0  0  0
  -27.8582  -30.4383   23.9112 H   0  0  0  0  0  0
  -27.2646  -33.3605   26.2084 H   0  0  0  0  0  0
  -28.3840  -32.6909   25.0298 H   0  0  0  0  0  0
  -28.0713  -31.8416   26.5364 H   0  0  0  0  0  0
  -28.2618  -38.0103   24.7516 H   0  0  0  0  0  0
  -28.1069  -36.2633   24.6291 H   0  0  0  0  0  0
  -27.2308  -37.1473   25.8873 H   0  0  0  0  0  0
  -20.9260  -29.8771   21.7004 H   0  0  0  0  0  0
  -26.0188  -38.2883   24.1426 H   0  0  0  0  0  0
  -29.8446  -20.3047   23.6378 H   0  0  0  0  0  0
  -29.2672  -18.2979   19.8665 H   0  0  0  0  0  0
  -27.5181  -15.0050   22.6872 H   0  0  0  0  0  0
  -27.2441  -16.7034   22.6958 H   0  0  0  0  0  0
  -28.3274  -16.0087   23.8790 H   0  0  0  0  0  0
  -30.6076  -15.0530   24.2114 H   0  0  0  0  0  0
  -31.3259  -13.7229   23.3269 H   0  0  0  0  0  0
  -29.5939  -13.8523   23.4928 H   0  0  0  0  0  0
  -31.7603  -16.7510   23.1318 H   0  0  0  0  0  0
  -31.9326  -16.8702   21.3899 H   0  0  0  0  0  0
  -32.6895  -15.5569   22.2730 H   0  0  0  0  0  0
  -27.1930  -24.2982   20.4887 H   0  0  0  0  0  0
  -28.7143  -24.2145   19.6345 H   0  0  0  0  0  0
  -28.3648  -23.4845   22.5767 H   0  0  0  0  0  0
  -29.8523  -23.3508   21.6899 H   0  0  0  0  0  0
  -29.6674  -25.8561   21.3684 H   0  0  0  0  0  0
  -28.0460  -26.0665   21.9838 H   0  0  0  0  0  0
  -27.7148  -21.8937   20.2797 H   0  0  0  0  0  0
  -27.7676  -21.4074   21.9497 H   0  0  0  0  0  0
  -28.8125  -16.0508   20.8709 H   0  0  0  0  0  0
  1 25  1  0  0  0
  1 30  2  0  0  0
  1 82  1  0  0  0
  2  3  1  0  0  0
  2 25  1  0  0  0
  2 86  1  0  0  0
  2 87  1  0  0  0
  3  4  1  0  0  0
  3 88  1  0  0  0
  3 89  1  0  0  0
  4  5  1  0  0  0
  4 90  1  0  0  0
  4 91  1  0  0  0
  5  6  1  0  0  0
  5 26  1  0  0  0
  5 92  1  0  0  0
  6 25  1  0  0  0
  6 93  1  0  0  0
  6 94  1  0  0  0
  7  8  2  0  0  0
  7 26  1  0  0  0
  7 29  1  0  0  0
  8  9  1  0  0  0
  8 22  1  0  0  0
  9 10  1  0  0  0
  9 27  2  0  0  0
 10 11  2  0  0  0
 10 15  1  0  0  0
 11 12  1  0  0  0
 11 95  1  0  0  0
 12 13  2  0  0  0
 12 96  1  0  0  0
 13 14  1  0  0  0
 13 31  1  0  0  0
 14 15  2  0  0  0
 14 97  1  0  0  0
 15 98  1  0  0  0
 16 17  2  0  0  0
 16 21  1  0  0  0
 16 31  1  0  0  0
 17 18  1  0  0  0
 17 99  1  0  0  0
 18 19  2  0  0  0
 18100  1  0  0  0
 19 20  1  0  0  0
 19 24  1  0  0  0
 20 21  2  0  0  0
 20101  1  0  0  0
 21 23  1  0  0  0
 22 28  1  0  0  0
 22 32  2  0  0  0
 26 27  1  0  0  0
 28102  1  0  0  0
 28103  1  0  0  0
 29104  1  0  0  0
 29105  1  0  0  0
 33 34  1  0  0  0
 33 66  1  0  0  0
 33 70  2  0  0  0
 34 36  1  0  0  0
 34 59  1  0  0  0
 34106  1  0  0  0
 35 44  2  0  0  0
 35 45  1  0  0  0
 35 68  1  0  0  0
 36 56  1  0  0  0
 36107  1  0  0  0
 37 39  1  0  0  0
 37 47  1  0  0  0
 37 66  1  0  0  0
 37108  1  0  0  0
 38 43  2  0  0  0
 38 46  1  0  0  0
 38 47  1  0  0  0
 39 64  1  0  0  0
 39 67  2  0  0  0
 40 52  1  0  0  0
 40 53  2  0  0  0
 40 58  1  0  0  0
 41109  1  0  0  0
 41110  1  0  0  0
 41111  1  0  0  0
 41 48  1  0  0  0
 42 43  1  0  0  0
 42 66  1  0  0  0
 42112  1  0  0  0
 42113  1  0  0  0
 43 44  1  0  0  0
 44114  1  0  0  0
 45 46  2  0  0  0
 45115  1  0  0  0
 46116  1  0  0  0
 47117  1  0  0  0
 47118  1  0  0  0
 48 56  1  0  0  0
 48 65  1  0  0  0
 48119  1  0  0  0
 49 50  1  0  0  0
 49 53  1  0  0  0
 49 64  1  0  0  0
 49120  1  0  0  0
 50 51  1  0  0  0
 50121  1  0  0  0
 50122  1  0  0  0
 51 52  1  0  0  0
 51123  1  0  0  0
 51124  1  0  0  0
 52125  1  0  0  0
 52126  1  0  0  0
 53 54  1  0  0  0
 54 55  2  0  0  0
 54127  1  0  0  0
 55 57  1  0  0  0
 55128  1  0  0  0
 56 69  2  0  0  0
 57 58  2  0  0  0
 57129  1  0  0  0
 58130  1  0  0  0
 59 60  1  0  0  0
 59 61  1  0  0  0
 59 62  1  0  0  0
 60131  1  0  0  0
 60132  1  0  0  0
 60133  1  0  0  0
 61134  1  0  0  0
 61135  1  0  0  0
 61136  1  0  0  0
 62137  1  0  0  0
 62138  1  0  0  0
 62139  1  0  0  0
 63 65  1  0  0  0
 63140  1  0  0  0
 63141  1  0  0  0
 63142  1  0  0  0
 64143  1  0  0  0
 65144  1  0  0  0
 68 79  1  0  0  0
 71 73  1  0  0  0
 71 83  2  0  0  0
 71145  1  0  0  0
 72 73  2  0  0  0
 72 84  1  0  0  0
 72146  1  0  0  0
 73 85  1  0  0  0
 74147  1  0  0  0
 74148  1  0  0  0
 74149  1  0  0  0
 74 81  1  0  0  0
 75150  1  0  0  0
 75151  1  0  0  0
 75152  1  0  0  0
 75 82  1  0  0  0
 76 82  1  0  0  0
 76153  1  0  0  0
 76154  1  0  0  0
 76155  1  0  0  0
 77 78  1  0  0  0
 77 79  1  0  0  0
 77156  1  0  0  0
 77157  1  0  0  0
 78 80  1  0  0  0
 78158  1  0  0  0
 78159  1  0  0  0
 79160  1  0  0  0
 79161  1  0  0  0
 80 85  1  0  0  0
 80162  1  0  0  0
 80163  1  0  0  0
 81 82  1  0  0  0
 81 84  1  0  0  0
 81164  1  0  0  0
 83 84  1  0  0  0
M  ISO  4   1 100  68 101  79 101  82 100
M  END
> <chiral flag>
0

> <version>
0

> <s_m_source_file>
/data/baiqing/PycharmProjects/Reinvent-master-3.2/result/LINK_invent/BTK/process_docking_weight1_custom_sum_contain_oxygen_bond_distance_aromatic_linkinvent_7_9_3/rearranged_h_0066.sdf

> <i_m_source_file_index>
88

> <r_mmod_Potential_Energy-OPLS-2005>
79.7155456542969

> <r_mmod_Stretch_Energy-OPLS-2005>
46.9022789001465

> <r_mmod_Bend_Energy-OPLS-2005>
113.736610412598

> <r_mmod_Torsional_Energy-OPLS-2005>
272.361633300781

> <r_mmod_Improper_Torsional_Energy-OPLS-2005>
2.39725279808044

> <r_mmod_Van_der_Waal_Energy-OPLS-2005>
144.606781005859

> <r_mmod_Electrostatic_Energy-OPLS-2005>
-312.950561523438

> <r_mmod_Solvation_Energy-OPLS-2005>
-196.194732666016

> <b_mmod_Minimization_Converged-OPLS-2005>
0

> <r_mmod_RMS_Derivative-OPLS-2005>
1.75809478759766

$$$$
93
                    3D
 Structure written by MMmdl.
179187  0  0  1  0            999 V2000
  -30.6148  -14.7648   20.4259 C   0  0  0  0  0  0
  -30.4591  -12.4681   19.4601 C   0  0  0  0  0  0
  -29.5208  -12.5208   18.2307 C   0  0  0  0  0  0
  -28.0412  -12.3328   18.6418 C   0  0  0  0  0  0
  -27.6485  -13.1885   19.8729 C   0  0  2  0  0  0
  -28.7184  -13.0896   20.9818 C   0  0  0  0  0  0
  -25.2564  -13.8039   20.5739 C   0  0  0  0  0  0
  -24.1807  -13.0334   20.9216 C   0  0  0  0  0  0
  -24.6374  -11.6811   20.8792 C   0  0  0  0  0  0
  -23.9041  -10.4222   21.0462 C   0  0  0  0  0  0
  -24.3587   -9.4143   21.9237 C   0  0  0  0  0  0
  -23.6261   -8.2183   22.0770 C   0  0  0  0  0  0
  -22.4252   -8.0238   21.3546 C   0  0  0  0  0  0
  -21.9895   -9.0217   20.4661 C   0  0  0  0  0  0
  -22.7223  -10.2096   20.3096 C   0  0  0  0  0  0
  -21.6812   -6.0719   22.5269 C   0  0  0  0  0  0
  -21.4001   -6.5638   23.8206 C   0  0  0  0  0  0
  -21.3666   -5.6792   24.9169 C   0  0  0  0  0  0
  -21.6048   -4.3052   24.7220 C   0  0  0  0  0  0
  -21.8830   -3.8131   23.4349 C   0  0  0  0  0  0
  -21.9199   -4.6950   22.3401 C   0  0  0  0  0  0
  -22.7854  -13.5173   21.1838 C   0  0  0  0  0  0
  -22.1677   -4.2137   21.0979 F   0  0  0  0  0  0
  -21.5636   -3.4559   25.7752 F   0  0  0  0  0  0
  -30.0061  -13.5166   20.4064 N   0  0  0  0  0  0
  -26.2982  -12.9147   20.3446 N   0  0  0  0  0  0
  -25.9300  -11.6343   20.5821 N   0  0  0  0  0  0
  -22.0473  -12.8172   22.0390 N   0  0  0  0  0  0
  -25.4206  -15.1760   20.4153 N   0  0  0  0  0  0
  -31.8173  -14.8153   20.1573 O   0  0  0  0  0  0
  -21.6597   -6.8848   21.4237 O   0  0  0  0  0  0
  -22.3575  -14.5476   20.6679 O   0  0  0  0  0  0
  -24.6277  -31.8580   23.2002 C   0  0  0  0  0  0
  -25.9111  -32.4769   23.8335 C   0  0  1  0  0  0
  -27.2400  -27.3040   20.1119 C   0  0  0  0  0  0
  -25.5949  -33.8573   24.2276 N   0  0  0  0  0  0
  -23.4221  -30.4795   21.5457 C   0  0  2  0  0  0
  -24.8728  -28.9309   20.1129 C   0  0  0  0  0  0
  -22.7479  -29.4595   22.4947 C   0  0  0  0  0  0
  -18.0297  -28.1376   22.8479 C   0  0  0  0  0  0
  -24.1494  -36.7275   23.2640 C   0  0  0  0  0  0
  -25.9647  -30.7837   21.3736 C   0  0  0  0  0  0
  -26.0427  -29.4090   20.7167 C   0  0  0  0  0  0
  -27.2262  -28.6082   20.7046 C   0  0  0  0  0  0
  -26.0398  -26.8779   19.4958 C   0  0  0  0  0  0
  -24.8745  -27.6698   19.4972 C   0  0  0  0  0  0
  -23.6382  -29.8102   20.1634 C   0  0  0  0  0  0
  -25.4125  -36.3078   24.0324 C   0  0  1  0  0  0
  -20.5898  -28.3670   23.1295 C   0  0  2  0  0  0
  -20.6777  -26.9383   22.5432 C   0  0  0  0  0  0
  -19.5773  -26.6363   21.5213 C   0  0  0  0  0  0
  -18.1937  -26.7923   22.1595 C   0  0  0  0  0  0
  -19.1549  -28.8842   23.2888 C   0  0  0  0  0  0
  -18.9464  -30.1449   23.8893 C   0  0  0  0  0  0
  -17.6462  -30.6576   24.0562 C   0  0  0  0  0  0
  -25.9066  -34.9452   23.5100 C   0  0  0  0  0  0
  -16.5358  -29.9070   23.6338 C   0  0  0  0  0  0
  -16.7284  -28.6493   23.0346 C   0  0  0  0  0  0
  -26.4496  -31.6577   25.0704 C   0  0  0  0  0  0
  -25.3720  -31.3737   26.1425 C   0  0  0  0  0  0
  -27.0325  -30.2996   24.6153 C   0  0  0  0  0  0
  -27.6069  -32.4294   25.7475 C   0  0  0  0  0  0
  -27.5592  -37.1790   24.8462 C   0  0  0  0  0  0
  -21.4196  -29.3012   22.3664 N   0  0  0  0  0  0
  -26.4301  -37.3772   23.9411 N   0  0  0  0  0  0
  -24.6903  -31.0567   22.0966 N   0  0  0  0  0  0
  -23.4200  -28.8136   23.3028 O   0  0  0  0  0  0
  -28.3745  -26.4642   20.1464 O   0  0  0  0  0  0
  -26.5613  -34.8916   22.4651 O   0  0  0  0  0  0
  -23.5443  -32.1395   23.7324 O   0  0  0  0  0  0
  -29.7776  -20.0521   23.1194 C   0  0  0  0  0  0
  -29.5505  -21.2980   22.4799 C   0  0  0  0  0  0
  -29.7133  -21.2650   21.0345 C   0  0  0  0  0  0
  -30.2638  -18.9017   21.2291 C   0  0  0  0  0  0
  -26.6430  -22.0660   22.6385 C   0  0  0  0  0  0
  -29.2381  -23.8780   23.1329 C   0  0  0  0  0  0
  -29.9034  -22.3398   24.8197 C   0  0  0  0  0  0
  -30.4626  -22.1716   18.7616 C   0  0  0  0  0  0
  -28.0443  -22.0164   19.2602 C   0  0  0  0  0  0
  -29.1965  -16.4363   19.0843 C   0  0  0  0  0  0
  -28.7574  -16.2167   21.5761 C   0  0  0  0  0  0
  -30.7888  -17.5165   20.6478 C   0  0  0  0  0  0
  -27.5818  -22.1615   23.8511 C   0  0  0  0  0  0
  -29.4817  -24.0163   20.0925 C   0  0  0  0  0  0
  -28.2089  -24.9954   19.9615 C   0  0  0  0  0  0
  -29.0726  -22.4023   23.4985 C   0  0  0  0  0  0
  -29.4054  -22.3867   19.8908 C   0  0  0  0  0  0
  -29.8458  -16.2009   20.4762 C   0  0  0  0  0  0
  -30.1548  -18.9143   22.5347 N   0  0  0  0  0  0
  -30.0472  -20.0187   20.4882 N   0  0  0  0  0  0
  -31.4926  -12.6098   19.1392 H   0  0  0  0  0  0
  -30.4353  -11.4848   19.9354 H   0  0  0  0  0  0
  -29.8090  -11.7570   17.5070 H   0  0  0  0  0  0
  -29.6438  -13.4772   17.7183 H   0  0  0  0  0  0
  -27.8952  -11.2749   18.8682 H   0  0  0  0  0  0
  -27.3828  -12.5540   17.8024 H   0  0  0  0  0  0
  -27.6089  -14.2084   19.5284 H   0  0  0  0  0  0
  -28.7868  -12.0531   21.3223 H   0  0  0  0  0  0
  -28.4618  -13.6421   21.8824 H   0  0  0  0  0  0
  -25.2753   -9.5594   22.4786 H   0  0  0  0  0  0
  -23.9981   -7.4560   22.7465 H   0  0  0  0  0  0
  -21.0846   -8.8745   19.8941 H   0  0  0  0  0  0
  -22.3728  -10.9639   19.6176 H   0  0  0  0  0  0
  -21.1975   -7.6142   23.9701 H   0  0  0  0  0  0
  -21.1486   -6.0524   25.9076 H   0  0  0  0  0  0
  -22.0607   -2.7593   23.2842 H   0  0  0  0  0  0
  -22.4077  -11.9873   22.4839 H   0  0  0  0  0  0
  -21.1066  -13.1158   22.2507 H   0  0  0  0  0  0
  -24.6594  -15.8271   20.5701 H   0  0  0  0  0  0
  -26.2816  -15.6270   20.1388 H   0  0  0  0  0  0
  -26.7157  -32.5448   23.1069 H   0  0  0  0  0  0
  -25.0137  -33.9726   25.0449 H   0  0  0  0  0  0
  -22.7148  -31.3001   21.4012 H   0  0  0  0  0  0
  -23.3789  -35.9572   23.3284 H   0  0  0  0  0  0
  -24.3599  -36.8926   22.2059 H   0  0  0  0  0  0
  -23.7197  -37.6447   23.6680 H   0  0  0  0  0  0
  -26.0977  -31.5488   20.6068 H   0  0  0  0  0  0
  -26.8428  -30.8331   22.0059 H   0  0  0  0  0  0
  -28.1243  -28.9759   21.1820 H   0  0  0  0  0  0
  -25.9693  -25.9175   19.0080 H   0  0  0  0  0  0
  -23.9750  -27.2912   19.0323 H   0  0  0  0  0  0
  -23.7536  -30.5854   19.4049 H   0  0  0  0  0  0
  -22.7584  -29.2357   19.8674 H   0  0  0  0  0  0
  -25.1304  -36.1934   25.0813 H   0  0  0  0  0  0
  -20.9996  -28.3249   24.1419 H   0  0  0  0  0  0
  -20.5646  -26.2269   23.3624 H   0  0  0  0  0  0
  -21.6651  -26.7381   22.1258 H   0  0  0  0  0  0
  -19.6929  -25.6271   21.1243 H   0  0  0  0  0  0
  -19.6755  -27.3174   20.6745 H   0  0  0  0  0  0
  -17.4221  -26.6724   21.3967 H   0  0  0  0  0  0
  -18.0304  -26.0040   22.8958 H   0  0  0  0  0  0
  -19.7937  -30.7272   24.2252 H   0  0  0  0  0  0
  -17.5016  -31.6259   24.5152 H   0  0  0  0  0  0
  -15.5354  -30.2963   23.7667 H   0  0  0  0  0  0
  -15.8689  -28.0815   22.7049 H   0  0  0  0  0  0
  -24.5940  -30.7019   25.7781 H   0  0  0  0  0  0
  -24.8846  -32.2907   26.4745 H   0  0  0  0  0  0
  -25.8036  -30.9023   27.0260 H   0  0  0  0  0  0
  -26.2895  -29.6767   24.1149 H   0  0  0  0  0  0
  -27.4005  -29.7234   25.4653 H   0  0  0  0  0  0
  -27.8777  -30.4304   23.9391 H   0  0  0  0  0  0
  -27.2677  -33.3553   26.2133 H   0  0  0  0  0  0
  -28.3830  -32.6915   25.0272 H   0  0  0  0  0  0
  -28.0788  -31.8365   26.5324 H   0  0  0  0  0  0
  -28.2612  -38.0086   24.7507 H   0  0  0  0  0  0
  -28.1083  -36.2614   24.6283 H   0  0  0  0  0  0
  -27.2329  -37.1450   25.8874 H   0  0  0  0  0  0
  -20.9346  -29.8734   21.6886 H   0  0  0  0  0  0
  -26.0195  -38.2847   24.1428 H   0  0  0  0  0  0
  -29.6231  -19.9062   24.1741 H   0  0  0  0  0  0
  -25.5996  -22.0082   22.9503 H   0  0  0  0  0  0
  -26.8538  -21.1837   22.0347 H   0  0  0  0  0  0
  -26.7354  -22.9407   21.9998 H   0  0  0  0  0  0
  -30.2755  -24.1284   22.9106 H   0  0  0  0  0  0
  -28.9585  -24.5322   23.9614 H   0  0  0  0  0  0
  -28.5580  -24.1836   22.3579 H   0  0  0  0  0  0
  -30.9754  -22.3722   24.6118 H   0  0  0  0  0  0
  -29.7099  -21.4740   25.4515 H   0  0  0  0  0  0
  -29.6921  -23.1823   25.4827 H   0  0  0  0  0  0
  -30.4770  -21.1617   18.3560 H   0  0  0  0  0  0
  -31.4702  -22.3864   19.1193 H   0  0  0  0  0  0
  -30.2722  -22.8064   17.8945 H   0  0  0  0  0  0
  -28.0453  -20.9854   18.9026 H   0  0  0  0  0  0
  -27.7913  -22.6387   18.4046 H   0  0  0  0  0  0
  -27.2313  -22.0967   19.9746 H   0  0  0  0  0  0
  -28.4407  -17.2220   19.1243 H   0  0  0  0  0  0
  -28.7422  -15.5648   18.6343 H   0  0  0  0  0  0
  -29.9365  -16.7434   18.3469 H   0  0  0  0  0  0
  -28.3271  -17.2043   21.7195 H   0  0  0  0  0  0
  -29.1525  -15.8995   22.5410 H   0  0  0  0  0  0
  -27.9063  -15.5966   21.3306 H   0  0  0  0  0  0
  -31.6082  -17.2271   21.3066 H   0  0  0  0  0  0
  -31.3024  -17.7384   19.7125 H   0  0  0  0  0  0
  -27.4728  -21.2463   24.4348 H   0  0  0  0  0  0
  -27.2225  -22.9566   24.5060 H   0  0  0  0  0  0
  -30.1610  -24.2889   20.8833 H   0  0  0  0  0  0
  -30.0765  -24.4191   19.2730 H   0  0  0  0  0  0
  -27.4062  -24.6505   20.6105 H   0  0  0  0  0  0
  -27.8311  -24.8498   18.9527 H   0  0  0  0  0  0
  1 25  1  0  0  0
  1 30  2  0  0  0
  1 88  1  0  0  0
  2  3  1  0  0  0
  2 25  1  0  0  0
  2 91  1  0  0  0
  2 92  1  0  0  0
  3  4  1  0  0  0
  3 93  1  0  0  0
  3 94  1  0  0  0
  4  5  1  0  0  0
  4 95  1  0  0  0
  4 96  1  0  0  0
  5  6  1  0  0  0
  5 26  1  0  0  0
  5 97  1  0  0  0
  6 25  1  0  0  0
  6 98  1  0  0  0
  6 99  1  0  0  0
  7  8  2  0  0  0
  7 26  1  0  0  0
  7 29  1  0  0  0
  8  9  1  0  0  0
  8 22  1  0  0  0
  9 10  1  0  0  0
  9 27  2  0  0  0
 10 11  2  0  0  0
 10 15  1  0  0  0
 11 12  1  0  0  0
 11100  1  0  0  0
 12 13  2  0  0  0
 12101  1  0  0  0
 13 14  1  0  0  0
 13 31  1  0  0  0
 14 15  2  0  0  0
 14102  1  0  0  0
 15103  1  0  0  0
 16 17  2  0  0  0
 16 21  1  0  0  0
 16 31  1  0  0  0
 17 18  1  0  0  0
 17104  1  0  0  0
 18 19  2  0  0  0
 18105  1  0  0  0
 19 20  1  0  0  0
 19 24  1  0  0  0
 20 21  2  0  0  0
 20106  1  0  0  0
 21 23  1  0  0  0
 22 28  1  0  0  0
 22 32  2  0  0  0
 26 27  1  0  0  0
 28107  1  0  0  0
 28108  1  0  0  0
 29109  1  0  0  0
 29110  1  0  0  0
 33 34  1  0  0  0
 33 66  1  0  0  0
 33 70  2  0  0  0
 34 36  1  0  0  0
 34 59  1  0  0  0
 34111  1  0  0  0
 35 44  2  0  0  0
 35 45  1  0  0  0
 35 68  1  0  0  0
 36 56  1  0  0  0
 36112  1  0  0  0
 37 39  1  0  0  0
 37 47  1  0  0  0
 37 66  1  0  0  0
 37113  1  0  0  0
 38 43  2  0  0  0
 38 46  1  0  0  0
 38 47  1  0  0  0
 39 64  1  0  0  0
 39 67  2  0  0  0
 40 52  1  0  0  0
 40 53  2  0  0  0
 40 58  1  0  0  0
 41114  1  0  0  0
 41115  1  0  0  0
 41116  1  0  0  0
 41 48  1  0  0  0
 42 43  1  0  0  0
 42 66  1  0  0  0
 42117  1  0  0  0
 42118  1  0  0  0
 43 44  1  0  0  0
 44119  1  0  0  0
 45 46  2  0  0  0
 45120  1  0  0  0
 46121  1  0  0  0
 47122  1  0  0  0
 47123  1  0  0  0
 48 56  1  0  0  0
 48 65  1  0  0  0
 48124  1  0  0  0
 49 50  1  0  0  0
 49 53  1  0  0  0
 49 64  1  0  0  0
 49125  1  0  0  0
 50 51  1  0  0  0
 50126  1  0  0  0
 50127  1  0  0  0
 51 52  1  0  0  0
 51128  1  0  0  0
 51129  1  0  0  0
 52130  1  0  0  0
 52131  1  0  0  0
 53 54  1  0  0  0
 54 55  2  0  0  0
 54132  1  0  0  0
 55 57  1  0  0  0
 55133  1  0  0  0
 56 69  2  0  0  0
 57 58  2  0  0  0
 57134  1  0  0  0
 58135  1  0  0  0
 59 60  1  0  0  0
 59 61  1  0  0  0
 59 62  1  0  0  0
 60136  1  0  0  0
 60137  1  0  0  0
 60138  1  0  0  0
 61139  1  0  0  0
 61140  1  0  0  0
 61141  1  0  0  0
 62142  1  0  0  0
 62143  1  0  0  0
 62144  1  0  0  0
 63 65  1  0  0  0
 63145  1  0  0  0
 63146  1  0  0  0
 63147  1  0  0  0
 64148  1  0  0  0
 65149  1  0  0  0
 68 85  1  0  0  0
 71 72  2  0  0  0
 71 89  1  0  0  0
 71150  1  0  0  0
 72 73  1  0  0  0
 72 86  1  0  0  0
 73 87  1  0  0  0
 73 90  2  0  0  0
 74 82  1  0  0  0
 74 89  2  0  0  0
 74 90  1  0  0  0
 75 83  1  0  0  0
 75151  1  0  0  0
 75152  1  0  0  0
 75153  1  0  0  0
 76154  1  0  0  0
 76155  1  0  0  0
 76156  1  0  0  0
 76 86  1  0  0  0
 77 86  1  0  0  0
 77157  1  0  0  0
 77158  1  0  0  0
 77159  1  0  0  0
 78160  1  0  0  0
 78161  1  0  0  0
 78162  1  0  0  0
 78 87  1  0  0  0
 79 87  1  0  0  0
 79163  1  0  0  0
 79164  1  0  0  0
 79165  1  0  0  0
 80166  1  0  0  0
 80167  1  0  0  0
 80168  1  0  0  0
 80 88  1  0  0  0
 81 88  1  0  0  0
 81169  1  0  0  0
 81170  1  0  0  0
 81171  1  0  0  0
 82 88  1  0  0  0
 82172  1  0  0  0
 82173  1  0  0  0
 83 86  1  0  0  0
 83174  1  0  0  0
 83175  1  0  0  0
 84 85  1  0  0  0
 84 87  1  0  0  0
 84176  1  0  0  0
 84177  1  0  0  0
 85178  1  0  0  0
 85179  1  0  0  0
M  ISO  4   1 100  68 101  85 101  88 100
M  END
> <chiral flag>
0

> <version>
0

> <s_m_source_file>
/data/baiqing/PycharmProjects/Reinvent-master-3.2/result/LINK_invent/BTK/process_docking_weight1_custom_sum_contain_oxygen_bond_distance_aromatic_linkinvent_7_9_3/rearranged_h_0066.sdf

> <i_m_source_file_index>
89

> <r_mmod_Potential_Energy-OPLS-2005>
-9.40397834777832

> <r_mmod_Stretch_Energy-OPLS-2005>
157.366500854492

> <r_mmod_Bend_Energy-OPLS-2005>
295.055908203125

> <r_mmod_Torsional_Energy-OPLS-2005>
213.320510864258

> <r_mmod_Improper_Torsional_Energy-OPLS-2005>
7.09885168075562

> <r_mmod_Van_der_Waal_Energy-OPLS-2005>
205.675338745117

> <r_mmod_Electrostatic_Energy-OPLS-2005>
-768.388366699219

> <r_mmod_Solvation_Energy-OPLS-2005>
-192.026794433594

> <b_mmod_Minimization_Converged-OPLS-2005>
0

> <r_mmod_RMS_Derivative-OPLS-2005>
3.77019596099854

$$$$
