0
                    3D
 Structure written by MMmdl.
181189  0  0  1  0            999 V2000
  -30.6957  -14.4816   20.5329 C   0  0  0  0  0  0
  -30.4157  -12.3112   19.4070 C   0  0  0  0  0  0
  -29.4800  -12.5061   18.1943 C   0  0  0  0  0  0
  -27.9991  -12.3803   18.6085 C   0  0  0  0  0  0
  -27.6521  -13.2048   19.8762 C   0  0  2  0  0  0
  -28.7015  -12.9622   20.9828 C   0  0  0  0  0  0
  -25.2516  -13.8164   20.5692 C   0  0  0  0  0  0
  -24.1788  -13.0436   20.9209 C   0  0  0  0  0  0
  -24.6366  -11.6911   20.8789 C   0  0  0  0  0  0
  -23.9052  -10.4291   21.0446 C   0  0  0  0  0  0
  -24.3626   -9.4204   21.9202 C   0  0  0  0  0  0
  -23.6310   -8.2242   22.0762 C   0  0  0  0  0  0
  -22.4298   -8.0285   21.3538 C   0  0  0  0  0  0
  -21.9930   -9.0263   20.4648 C   0  0  0  0  0  0
  -22.7242  -10.2146   20.3081 C   0  0  0  0  0  0
  -21.6857   -6.0758   22.5287 C   0  0  0  0  0  0
  -21.4015   -6.5664   23.8224 C   0  0  0  0  0  0
  -21.3652   -5.6807   24.9180 C   0  0  0  0  0  0
  -21.6045   -4.3070   24.7230 C   0  0  0  0  0  0
  -21.8819   -3.8168   23.4343 C   0  0  0  0  0  0
  -21.9188   -4.6990   22.3406 C   0  0  0  0  0  0
  -22.7806  -13.5215   21.1854 C   0  0  0  0  0  0
  -22.1652   -4.2183   21.0977 F   0  0  0  0  0  0
  -21.5632   -3.4538   25.7725 F   0  0  0  0  0  0
  -30.0193  -13.3002   20.4238 N   0  0  0  0  0  0
  -26.2957  -12.9326   20.3406 N   0  0  0  0  0  0
  -25.9279  -11.6496   20.5834 N   0  0  0  0  0  0
  -22.0460  -12.8210   22.0432 N   0  0  0  0  0  0
  -25.4210  -15.1878   20.4026 N   0  0  0  0  0  0
  -31.8658  -14.5849   20.1588 O   0  0  0  0  0  0
  -21.6646   -6.8902   21.4246 O   0  0  0  0  0  0
  -22.3482  -14.5505   20.6687 O   0  0  0  0  0  0
  -24.6120  -31.8717   23.2126 C   0  0  0  0  0  0
  -25.9025  -32.4842   23.8402 C   0  0  1  0  0  0
  -27.2365  -27.4739   20.0756 C   0  0  0  0  0  0
  -25.5905  -33.8645   24.2340 N   0  0  0  0  0  0
  -23.3956  -30.4928   21.5560 C   0  0  2  0  0  0
  -24.8397  -28.9604   20.1193 C   0  0  0  0  0  0
  -22.7377  -29.4669   22.5060 C   0  0  0  0  0  0
  -18.0249  -28.1378   22.8487 C   0  0  0  0  0  0
  -24.1483  -36.7321   23.2639 C   0  0  0  0  0  0
  -25.9188  -30.8467   21.3583 C   0  0  0  0  0  0
  -25.9967  -29.4800   20.7133 C   0  0  0  0  0  0
  -27.1983  -28.7440   20.6945 C   0  0  0  0  0  0
  -26.0696  -26.9660   19.4727 C   0  0  0  0  0  0
  -24.8674  -27.6980   19.4998 C   0  0  0  0  0  0
  -23.5992  -29.8221   20.1712 C   0  0  0  0  0  0
  -25.4109  -36.3126   24.0338 C   0  0  1  0  0  0
  -20.5834  -28.3654   23.1342 C   0  0  2  0  0  0
  -20.6743  -26.9401   22.5425 C   0  0  0  0  0  0
  -19.5732  -26.6389   21.5214 C   0  0  0  0  0  0
  -18.1901  -26.7923   22.1610 C   0  0  0  0  0  0
  -19.1501  -28.8831   23.2906 C   0  0  0  0  0  0
  -18.9438  -30.1436   23.8925 C   0  0  0  0  0  0
  -17.6447  -30.6584   24.0573 C   0  0  0  0  0  0
  -25.9035  -34.9492   23.5134 C   0  0  0  0  0  0
  -16.5337  -29.9097   23.6334 C   0  0  0  0  0  0
  -16.7246  -28.6511   23.0355 C   0  0  0  0  0  0
  -26.4470  -31.6602   25.0714 C   0  0  0  0  0  0
  -25.3742  -31.3683   26.1471 C   0  0  0  0  0  0
  -27.0293  -30.3055   24.6042 C   0  0  0  0  0  0
  -27.6057  -32.4315   25.7465 C   0  0  0  0  0  0
  -27.5583  -37.1811   24.8465 C   0  0  0  0  0  0
  -21.4112  -29.3024   22.3761 N   0  0  0  0  0  0
  -26.4292  -37.3807   23.9414 N   0  0  0  0  0  0
  -24.6606  -31.0831   22.1018 N   0  0  0  0  0  0
  -23.4154  -28.8232   23.3113 O   0  0  0  0  0  0
  -28.3786  -26.7178   19.9776 O   0  0  0  0  0  0
  -26.5587  -34.8937   22.4692 O   0  0  0  0  0  0
  -23.5329  -32.1462   23.7548 O   0  0  0  0  0  0
  -31.2130  -19.8746   21.0780 C   0  0  0  0  0  0
  -30.1941  -20.2998   20.2681 C   0  0  0  0  0  0
  -30.3490  -18.0652   20.1041 C   0  0  0  0  0  0
  -35.8587  -16.5624   20.1274 C   0  0  0  0  0  0
  -28.9082  -16.6256   18.5741 C   0  0  0  0  0  0
  -29.8593  -24.9838   22.9751 C   0  0  0  0  0  0
  -27.4927  -24.9036   22.1649 C   0  0  0  0  0  0
  -29.1257  -15.9491   21.7810 C   0  0  0  0  0  0
  -29.7403  -21.6763   19.8903 C   0  0  0  0  0  0
  -34.7340  -16.7677   21.1494 C   0  0  0  0  0  0
  -29.4766  -22.5942   21.0969 C   0  0  0  0  0  0
  -33.5675  -17.5671   20.5579 C   0  0  0  0  0  0
  -29.3520  -24.0669   20.6495 C   0  0  0  0  0  0
  -32.3772  -17.6966   21.5220 C   0  0  0  0  0  0
  -29.1522  -26.5344   21.1579 C   0  0  0  0  0  0
  -30.0952  -16.6670   19.5594 C   0  0  2  0  0  0
  -28.9586  -25.1060   21.7325 C   0  0  0  0  0  0
  -31.3158  -18.5137   20.9306 N   0  0  0  0  0  0
  -29.6747  -19.1583   19.7146 N   0  3  0  0  0  0
  -29.9255  -15.6057   20.5938 N   0  0  0  0  0  0
  -31.4558  -12.4152   19.0934 H   0  0  0  0  0  0
  -30.3246  -11.2996   19.8064 H   0  0  0  0  0  0
  -29.7107  -11.7850   17.4089 H   0  0  0  0  0  0
  -29.6501  -13.4908   17.7590 H   0  0  0  0  0  0
  -27.7889  -11.3253   18.7830 H   0  0  0  0  0  0
  -27.3522  -12.6821   17.7822 H   0  0  0  0  0  0
  -27.6891  -14.2551   19.5958 H   0  0  0  0  0  0
  -28.6890  -11.9142   21.2822 H   0  0  0  0  0  0
  -28.4610  -13.5069   21.8922 H   0  0  0  0  0  0
  -25.2783   -9.5666   22.4760 H   0  0  0  0  0  0
  -24.0030   -7.4630   22.7476 H   0  0  0  0  0  0
  -21.0873   -8.8789   19.8930 H   0  0  0  0  0  0
  -22.3731  -10.9701   19.6197 H   0  0  0  0  0  0
  -21.2018   -7.6171   23.9746 H   0  0  0  0  0  0
  -21.1458   -6.0529   25.9085 H   0  0  0  0  0  0
  -22.0597   -2.7633   23.2847 H   0  0  0  0  0  0
  -22.4093  -11.9863   22.4794 H   0  0  0  0  0  0
  -21.1080  -13.1208   22.2665 H   0  0  0  0  0  0
  -24.6480  -15.8377   20.4902 H   0  0  0  0  0  0
  -26.2692  -15.6236   20.0661 H   0  0  0  0  0  0
  -26.7104  -32.5570   23.1182 H   0  0  0  0  0  0
  -25.0068  -33.9808   25.0490 H   0  0  0  0  0  0
  -22.6829  -31.3092   21.4196 H   0  0  0  0  0  0
  -23.3747  -35.9655   23.3316 H   0  0  0  0  0  0
  -24.3566  -36.8919   22.2050 H   0  0  0  0  0  0
  -23.7231  -37.6530   23.6638 H   0  0  0  0  0  0
  -26.0142  -31.6079   20.5829 H   0  0  0  0  0  0
  -26.8133  -30.9111   21.9664 H   0  0  0  0  0  0
  -28.0937  -29.1637   21.1293 H   0  0  0  0  0  0
  -26.0927  -26.0023   18.9835 H   0  0  0  0  0  0
  -23.9784  -27.2937   19.0357 H   0  0  0  0  0  0
  -23.6994  -30.5971   19.4104 H   0  0  0  0  0  0
  -22.7240  -29.2381   19.8819 H   0  0  0  0  0  0
  -25.1290  -36.1996   25.0828 H   0  0  0  0  0  0
  -20.9905  -28.3216   24.1475 H   0  0  0  0  0  0
  -20.5644  -26.2277   23.3609 H   0  0  0  0  0  0
  -21.6622  -26.7444   22.1243 H   0  0  0  0  0  0
  -19.6907  -25.6305   21.1243 H   0  0  0  0  0  0
  -19.6692  -27.3201   20.6747 H   0  0  0  0  0  0
  -17.4186  -26.6687   21.3992 H   0  0  0  0  0  0
  -18.0286  -26.0045   22.8982 H   0  0  0  0  0  0
  -19.7914  -30.7232   24.2325 H   0  0  0  0  0  0
  -17.5006  -31.6272   24.5160 H   0  0  0  0  0  0
  -15.5340  -30.3018   23.7637 H   0  0  0  0  0  0
  -15.8634  -28.0841   22.7077 H   0  0  0  0  0  0
  -24.5958  -30.6976   25.7813 H   0  0  0  0  0  0
  -24.8881  -32.2824   26.4898 H   0  0  0  0  0  0
  -25.8121  -30.8892   27.0242 H   0  0  0  0  0  0
  -26.2809  -29.6821   24.1145 H   0  0  0  0  0  0
  -27.4135  -29.7290   25.4465 H   0  0  0  0  0  0
  -27.8606  -30.4400   23.9119 H   0  0  0  0  0  0
  -27.2693  -33.3611   26.2080 H   0  0  0  0  0  0
  -28.3839  -32.6894   25.0262 H   0  0  0  0  0  0
  -28.0764  -31.8419   26.5348 H   0  0  0  0  0  0
  -28.2618  -38.0089   24.7513 H   0  0  0  0  0  0
  -28.1054  -36.2629   24.6291 H   0  0  0  0  0  0
  -27.2300  -37.1472   25.8864 H   0  0  0  0  0  0
  -20.9278  -29.8754   21.6984 H   0  0  0  0  0  0
  -26.0193  -38.2887   24.1421 H   0  0  0  0  0  0
  -31.9030  -20.4417   21.6873 H   0  0  0  0  0  0
  -36.6760  -15.9780   20.5508 H   0  0  0  0  0  0
  -36.2717  -17.5152   19.7941 H   0  0  0  0  0  0
  -35.4930  -16.0344   19.2450 H   0  0  0  0  0  0
  -29.0595  -17.3215   17.7479 H   0  0  0  0  0  0
  -27.9640  -16.8764   19.0583 H   0  0  0  0  0  0
  -28.7955  -15.6405   18.1253 H   0  0  0  0  0  0
  -29.7172  -24.0338   23.4893 H   0  0  0  0  0  0
  -29.6364  -25.7689   23.6987 H   0  0  0  0  0  0
  -30.9146  -25.0688   22.7138 H   0  0  0  0  0  0
  -27.3557  -23.9659   22.7029 H   0  0  0  0  0  0
  -26.8213  -24.8854   21.3072 H   0  0  0  0  0  0
  -27.1631  -25.7085   22.8222 H   0  0  0  0  0  0
  -29.1990  -16.9932   22.0772 H   0  0  0  0  0  0
  -29.4304  -15.3711   22.6535 H   0  0  0  0  0  0
  -28.0717  -15.7457   21.5909 H   0  0  0  0  0  0
  -28.8548  -21.6187   19.2561 H   0  0  0  0  0  0
  -30.5295  -22.1090   19.2741 H   0  0  0  0  0  0
  -35.1253  -17.2789   22.0299 H   0  0  0  0  0  0
  -34.3769  -15.7961   21.4928 H   0  0  0  0  0  0
  -30.3035  -22.5077   21.8033 H   0  0  0  0  0  0
  -28.5804  -22.2575   21.6190 H   0  0  0  0  0  0
  -33.2348  -17.0868   19.6378 H   0  0  0  0  0  0
  -33.9163  -18.5615   20.2725 H   0  0  0  0  0  0
  -28.6299  -24.1216   19.8326 H   0  0  0  0  0  0
  -30.3036  -24.3629   20.2054 H   0  0  0  0  0  0
  -32.6902  -18.1850   22.4454 H   0  0  0  0  0  0
  -31.9760  -16.7290   21.8121 H   0  0  0  0  0  0
  -30.1961  -26.6881   20.8802 H   0  0  0  0  0  0
  -28.9401  -27.2768   21.9264 H   0  0  0  0  0  0
  -30.9851  -16.4762   18.9569 H   0  0  0  0  0  0
  -28.9164  -19.1396   19.0427 H   0  0  0  0  0  0
  1 25  1  0  0  0
  1 30  2  0  0  0
  1 90  1  0  0  0
  2  3  1  0  0  0
  2 25  1  0  0  0
  2 91  1  0  0  0
  2 92  1  0  0  0
  3  4  1  0  0  0
  3 93  1  0  0  0
  3 94  1  0  0  0
  4  5  1  0  0  0
  4 95  1  0  0  0
  4 96  1  0  0  0
  5  6  1  0  0  0
  5 26  1  0  0  0
  5 97  1  0  0  0
  6 25  1  0  0  0
  6 98  1  0  0  0
  6 99  1  0  0  0
  7  8  2  0  0  0
  7 26  1  0  0  0
  7 29  1  0  0  0
  8  9  1  0  0  0
  8 22  1  0  0  0
  9 10  1  0  0  0
  9 27  2  0  0  0
 10 11  2  0  0  0
 10 15  1  0  0  0
 11 12  1  0  0  0
 11100  1  0  0  0
 12 13  2  0  0  0
 12101  1  0  0  0
 13 14  1  0  0  0
 13 31  1  0  0  0
 14 15  2  0  0  0
 14102  1  0  0  0
 15103  1  0  0  0
 16 17  2  0  0  0
 16 21  1  0  0  0
 16 31  1  0  0  0
 17 18  1  0  0  0
 17104  1  0  0  0
 18 19  2  0  0  0
 18105  1  0  0  0
 19 20  1  0  0  0
 19 24  1  0  0  0
 20 21  2  0  0  0
 20106  1  0  0  0
 21 23  1  0  0  0
 22 28  1  0  0  0
 22 32  2  0  0  0
 26 27  1  0  0  0
 28107  1  0  0  0
 28108  1  0  0  0
 29109  1  0  0  0
 29110  1  0  0  0
 33 34  1  0  0  0
 33 66  1  0  0  0
 33 70  2  0  0  0
 34 36  1  0  0  0
 34 59  1  0  0  0
 34111  1  0  0  0
 35 44  2  0  0  0
 35 45  1  0  0  0
 35 68  1  0  0  0
 36 56  1  0  0  0
 36112  1  0  0  0
 37 39  1  0  0  0
 37 47  1  0  0  0
 37 66  1  0  0  0
 37113  1  0  0  0
 38 43  2  0  0  0
 38 46  1  0  0  0
 38 47  1  0  0  0
 39 64  1  0  0  0
 39 67  2  0  0  0
 40 52  1  0  0  0
 40 53  2  0  0  0
 40 58  1  0  0  0
 41114  1  0  0  0
 41115  1  0  0  0
 41116  1  0  0  0
 41 48  1  0  0  0
 42 43  1  0  0  0
 42 66  1  0  0  0
 42117  1  0  0  0
 42118  1  0  0  0
 43 44  1  0  0  0
 44119  1  0  0  0
 45 46  2  0  0  0
 45120  1  0  0  0
 46121  1  0  0  0
 47122  1  0  0  0
 47123  1  0  0  0
 48 56  1  0  0  0
 48 65  1  0  0  0
 48124  1  0  0  0
 49 50  1  0  0  0
 49 53  1  0  0  0
 49 64  1  0  0  0
 49125  1  0  0  0
 50 51  1  0  0  0
 50126  1  0  0  0
 50127  1  0  0  0
 51 52  1  0  0  0
 51128  1  0  0  0
 51129  1  0  0  0
 52130  1  0  0  0
 52131  1  0  0  0
 53 54  1  0  0  0
 54 55  2  0  0  0
 54132  1  0  0  0
 55 57  1  0  0  0
 55133  1  0  0  0
 56 69  2  0  0  0
 57 58  2  0  0  0
 57134  1  0  0  0
 58135  1  0  0  0
 59 60  1  0  0  0
 59 61  1  0  0  0
 59 62  1  0  0  0
 60136  1  0  0  0
 60137  1  0  0  0
 60138  1  0  0  0
 61139  1  0  0  0
 61140  1  0  0  0
 61141  1  0  0  0
 62142  1  0  0  0
 62143  1  0  0  0
 62144  1  0  0  0
 63 65  1  0  0  0
 63145  1  0  0  0
 63146  1  0  0  0
 63147  1  0  0  0
 64148  1  0  0  0
 65149  1  0  0  0
 68 85  1  0  0  0
 71 72  2  0  0  0
 71 88  1  0  0  0
 71150  1  0  0  0
 72 79  1  0  0  0
 72 89  1  0  0  0
 73 86  1  0  0  0
 73 88  1  0  0  0
 73 89  2  0  0  0
 74 80  1  0  0  0
 74151  1  0  0  0
 74152  1  0  0  0
 74153  1  0  0  0
 75154  1  0  0  0
 75155  1  0  0  0
 75156  1  0  0  0
 75 86  1  0  0  0
 76157  1  0  0  0
 76158  1  0  0  0
 76159  1  0  0  0
 76 87  1  0  0  0
 77 87  1  0  0  0
 77160  1  0  0  0
 77161  1  0  0  0
 77162  1  0  0  0
 78 90  1  0  0  0
 78163  1  0  0  0
 78164  1  0  0  0
 78165  1  0  0  0
 79 81  1  0  0  0
 79166  1  0  0  0
 79167  1  0  0  0
 80 82  1  0  0  0
 80168  1  0  0  0
 80169  1  0  0  0
 81 83  1  0  0  0
 81170  1  0  0  0
 81171  1  0  0  0
 82 84  1  0  0  0
 82172  1  0  0  0
 82173  1  0  0  0
 83 87  1  0  0  0
 83174  1  0  0  0
 83175  1  0  0  0
 84 88  1  0  0  0
 84176  1  0  0  0
 84177  1  0  0  0
 85 87  1  0  0  0
 85178  1  0  0  0
 85179  1  0  0  0
 86 90  1  0  0  0
 86180  1  0  0  0
 89181  1  0  0  0
M  CHG  1  89   1
M  ISO  4   1 100  68 101  85 101  90 100
M  END
> <chiral flag>
0

> <version>
0

> <s_m_source_file>
/data/baiqing/PycharmProjects/Reinvent-master-3.2/result/LINK_invent/BTK/process_docking_weight1_custom_sum_contain_oxygen_bond_distance_aromatic_linkinvent_7_9_3/rearranged_h_0067.sdf

> <i_m_source_file_index>
1

> <r_mmod_Potential_Energy-OPLS-2005>
92.4962768554688

> <r_mmod_Stretch_Energy-OPLS-2005>
38.056697845459

> <r_mmod_Bend_Energy-OPLS-2005>
114.981201171875

> <r_mmod_Torsional_Energy-OPLS-2005>
316.078521728516

> <r_mmod_Improper_Torsional_Energy-OPLS-2005>
16.2937049865723

> <r_mmod_Van_der_Waal_Energy-OPLS-2005>
125.324592590332

> <r_mmod_Electrostatic_Energy-OPLS-2005>
-163.950347900391

> <r_mmod_Solvation_Energy-OPLS-2005>
-368.27099609375

> <b_mmod_Minimization_Converged-OPLS-2005>
0

> <r_mmod_RMS_Derivative-OPLS-2005>
2.59373188018799

$$$$
1
                    3D
 Structure written by MMmdl.
169177  0  0  1  0            999 V2000
  -30.6791  -14.7834   20.4036 C   0  0  0  0  0  0
  -30.4321  -12.4760   19.4784 C   0  0  0  0  0  0
  -29.5173  -12.4718   18.2370 C   0  0  0  0  0  0
  -28.0626  -12.2199   18.6707 C   0  0  0  0  0  0
  -27.6149  -13.1740   19.8041 C   0  0  2  0  0  0
  -28.6670  -13.2882   20.9375 C   0  0  0  0  0  0
  -25.2506  -13.7970   20.5681 C   0  0  0  0  0  0
  -24.1793  -13.0363   20.9261 C   0  0  0  0  0  0
  -24.6316  -11.6790   20.8797 C   0  0  0  0  0  0
  -23.9018  -10.4230   21.0456 C   0  0  0  0  0  0
  -24.3587   -9.4123   21.9203 C   0  0  0  0  0  0
  -23.6250   -8.2169   22.0718 C   0  0  0  0  0  0
  -22.4239   -8.0230   21.3494 C   0  0  0  0  0  0
  -21.9917   -9.0234   20.4613 C   0  0  0  0  0  0
  -22.7219  -10.2124   20.3068 C   0  0  0  0  0  0
  -21.6788   -6.0772   22.5349 C   0  0  0  0  0  0
  -21.3965   -6.5672   23.8306 C   0  0  0  0  0  0
  -21.3659   -5.6817   24.9251 C   0  0  0  0  0  0
  -21.6034   -4.3084   24.7293 C   0  0  0  0  0  0
  -21.8765   -3.8200   23.4391 C   0  0  0  0  0  0
  -21.9138   -4.7012   22.3463 C   0  0  0  0  0  0
  -22.7830  -13.5214   21.1958 C   0  0  0  0  0  0
  -22.1598   -4.2199   21.1023 F   0  0  0  0  0  0
  -21.5663   -3.4566   25.7796 F   0  0  0  0  0  0
  -29.9760  -13.5924   20.3370 N   0  0  0  0  0  0
  -26.2825  -12.9039   20.3151 N   0  0  0  0  0  0
  -25.9218  -11.6279   20.5803 N   0  0  0  0  0  0
  -22.0388  -12.8268   22.0435 N   0  0  0  0  0  0
  -25.4279  -15.1705   20.3962 N   0  0  0  0  0  0
  -31.9054  -14.7597   20.2837 O   0  0  0  0  0  0
  -21.6518   -6.8884   21.4285 O   0  0  0  0  0  0
  -22.3555  -14.5531   20.6762 O   0  0  0  0  0  0
  -24.6316  -31.8509   23.1946 C   0  0  0  0  0  0
  -25.9203  -32.4616   23.8221 C   0  0  1  0  0  0
  -27.2139  -27.2793   20.1323 C   0  0  0  0  0  0
  -25.5995  -33.8414   24.2168 N   0  0  0  0  0  0
  -23.4207  -30.4792   21.5391 C   0  0  2  0  0  0
  -24.8653  -28.9318   20.1033 C   0  0  0  0  0  0
  -22.7523  -29.4520   22.4865 C   0  0  0  0  0  0
  -18.0282  -28.1333   22.8565 C   0  0  0  0  0  0
  -24.1492  -36.7217   23.2626 C   0  0  0  0  0  0
  -25.9659  -30.7758   21.3640 C   0  0  0  0  0  0
  -26.0380  -29.3989   20.7138 C   0  0  0  0  0  0
  -27.2137  -28.5867   20.7186 C   0  0  0  0  0  0
  -26.0264  -26.8835   19.4702 C   0  0  0  0  0  0
  -24.8658  -27.6796   19.4718 C   0  0  0  0  0  0
  -23.6347  -29.8196   20.1518 C   0  0  0  0  0  0
  -25.4112  -36.2954   24.0275 C   0  0  1  0  0  0
  -20.5917  -28.3646   23.1273 C   0  0  2  0  0  0
  -20.6749  -26.9327   22.5468 C   0  0  0  0  0  0
  -19.5688  -26.6371   21.5284 C   0  0  0  0  0  0
  -18.1887  -26.7883   22.1704 C   0  0  0  0  0  0
  -19.1547  -28.8812   23.2915 C   0  0  0  0  0  0
  -18.9476  -30.1446   23.8886 C   0  0  0  0  0  0
  -17.6465  -30.6545   24.0577 C   0  0  0  0  0  0
  -25.9112  -34.9322   23.5028 C   0  0  0  0  0  0
  -16.5354  -29.9070   23.6291 C   0  0  0  0  0  0
  -16.7276  -28.6474   23.0334 C   0  0  0  0  0  0
  -26.4676  -31.6378   25.0555 C   0  0  0  0  0  0
  -25.3971  -31.3539   26.1340 C   0  0  0  0  0  0
  -27.0512  -30.2757   24.5947 C   0  0  0  0  0  0
  -27.6174  -32.4154   25.7393 C   0  0  0  0  0  0
  -27.5526  -37.1720   24.8468 C   0  0  0  0  0  0
  -21.4208  -29.3007   22.3653 N   0  0  0  0  0  0
  -26.4229  -37.3690   23.9440 N   0  0  0  0  0  0
  -24.6910  -31.0567   22.0885 N   0  0  0  0  0  0
  -23.4296  -28.8047   23.2889 O   0  0  0  0  0  0
  -28.3221  -26.4057   20.1614 O   0  0  0  0  0  0
  -26.5718  -34.8866   22.4614 O   0  0  0  0  0  0
  -23.5491  -32.1305   23.7321 O   0  0  0  0  0  0
  -31.3378  -17.4079   21.8876 C   0  0  0  0  0  0
  -31.2952  -19.7535   21.8757 C   0  0  0  0  0  0
  -30.3947  -19.7791   20.7601 C   0  0  0  0  0  0
  -30.4759  -17.3287   20.7697 C   0  0  0  0  0  0
  -31.3358  -21.1967   23.9814 C   0  0  0  0  0  0
  -31.0852  -21.7896   17.5723 C   0  0  0  0  0  0
  -28.7643  -20.6849   19.0109 C   0  0  0  0  0  0
  -28.9458  -16.1306   19.2558 C   0  0  0  0  0  0
  -31.9077  -20.9705   22.5616 C   0  0  0  0  0  0
  -31.2277  -21.5027   19.0819 C   0  0  0  0  0  0
  -29.2711  -23.8821   20.0571 C   0  0  0  0  0  0
  -29.3239  -22.3852   20.7065 C   0  0  0  0  0  0
  -28.1276  -24.9531   20.4814 C   0  0  0  0  0  0
  -29.9595  -21.0940   19.9194 C   0  0  2  0  0  0
  -31.7367  -18.5867   22.4244 N   0  0  0  0  0  0
  -30.0462  -18.5418   20.2358 N   0  0  0  0  0  0
  -30.0182  -16.0145   20.2607 N   0  0  0  0  0  0
  -31.4713  -12.6059   19.1690 H   0  0  0  0  0  0
  -30.3847  -11.5268   20.0172 H   0  0  0  0  0  0
  -29.8425  -11.7123   17.5263 H   0  0  0  0  0  0
  -29.5993  -13.4232   17.7158 H   0  0  0  0  0  0
  -28.0168  -11.1878   19.0217 H   0  0  0  0  0  0
  -27.3905  -12.2735   17.8111 H   0  0  0  0  0  0
  -27.4977  -14.1097   19.2877 H   0  0  0  0  0  0
  -28.7208  -12.3747   21.5304 H   0  0  0  0  0  0
  -28.3670  -14.0845   21.6212 H   0  0  0  0  0  0
  -25.2759   -9.5579   22.4741 H   0  0  0  0  0  0
  -23.9938   -7.4569   22.7472 H   0  0  0  0  0  0
  -21.0841   -8.8815   19.8942 H   0  0  0  0  0  0
  -22.3721  -10.9689   19.6198 H   0  0  0  0  0  0
  -21.1876   -7.6180   23.9860 H   0  0  0  0  0  0
  -21.1565   -6.0526   25.9175 H   0  0  0  0  0  0
  -22.0511   -2.7659   23.2913 H   0  0  0  0  0  0
  -22.3934  -11.9937   22.4926 H   0  0  0  0  0  0
  -21.1024  -13.1432   22.2622 H   0  0  0  0  0  0
  -24.6576  -15.8274   20.4432 H   0  0  0  0  0  0
  -26.2841  -15.5934   20.0651 H   0  0  0  0  0  0
  -26.7242  -32.5308   23.0922 H   0  0  0  0  0  0
  -25.0061  -33.9539   25.0258 H   0  0  0  0  0  0
  -22.7118  -31.2974   21.3984 H   0  0  0  0  0  0
  -23.3691  -35.9613   23.3295 H   0  0  0  0  0  0
  -24.3575  -36.8861   22.2045 H   0  0  0  0  0  0
  -23.7349  -37.6429   23.6708 H   0  0  0  0  0  0
  -26.1084  -31.5261   20.5862 H   0  0  0  0  0  0
  -26.8447  -30.8246   21.9937 H   0  0  0  0  0  0
  -28.1068  -28.9499   21.2045 H   0  0  0  0  0  0
  -25.9770  -25.9509   18.9317 H   0  0  0  0  0  0
  -23.9756  -27.3335   18.9649 H   0  0  0  0  0  0
  -23.7595  -30.5973   19.3971 H   0  0  0  0  0  0
  -22.7536  -29.2564   19.8418 H   0  0  0  0  0  0
  -25.1294  -36.1718   25.0742 H   0  0  0  0  0  0
  -21.0073  -28.3275   24.1356 H   0  0  0  0  0  0
  -20.5671  -26.2268   23.3727 H   0  0  0  0  0  0
  -21.6599  -26.7320   22.1210 H   0  0  0  0  0  0
  -19.6852  -25.6357   21.1153 H   0  0  0  0  0  0
  -19.6530  -27.3333   20.6926 H   0  0  0  0  0  0
  -17.4166  -26.6698   21.4076 H   0  0  0  0  0  0
  -18.0176  -25.9995   22.9036 H   0  0  0  0  0  0
  -19.7957  -30.7279   24.2200 H   0  0  0  0  0  0
  -17.4997  -31.6199   24.5238 H   0  0  0  0  0  0
  -15.5353  -30.2964   23.7553 H   0  0  0  0  0  0
  -15.8683  -28.0804   22.6965 H   0  0  0  0  0  0
  -24.6155  -30.6834   25.7770 H   0  0  0  0  0  0
  -24.9223  -32.2746   26.4722 H   0  0  0  0  0  0
  -25.8401  -30.8818   27.0112 H   0  0  0  0  0  0
  -26.3025  -29.6412   24.1158 H   0  0  0  0  0  0
  -27.4484  -29.7046   25.4358 H   0  0  0  0  0  0
  -27.8809  -30.3993   23.8957 H   0  0  0  0  0  0
  -27.2634  -33.3421   26.1915 H   0  0  0  0  0  0
  -28.4039  -32.6705   25.0277 H   0  0  0  0  0  0
  -28.0754  -31.8297   26.5381 H   0  0  0  0  0  0
  -28.2520  -38.0025   24.7466 H   0  0  0  0  0  0
  -28.1022  -36.2538   24.6330 H   0  0  0  0  0  0
  -27.2248  -37.1397   25.8870 H   0  0  0  0  0  0
  -20.9410  -29.8761   21.6873 H   0  0  0  0  0  0
  -26.0039  -38.2697   24.1552 H   0  0  0  0  0  0
  -31.7002  -16.5220   22.3904 H   0  0  0  0  0  0
  -31.5142  -20.3294   24.6251 H   0  0  0  0  0  0
  -30.2651  -21.3937   23.9919 H   0  0  0  0  0  0
  -31.8270  -22.0370   24.4671 H   0  0  0  0  0  0
  -30.3569  -22.5642   17.3347 H   0  0  0  0  0  0
  -30.8132  -20.8889   17.0171 H   0  0  0  0  0  0
  -32.0571  -22.1026   17.1813 H   0  0  0  0  0  0
  -28.4032  -21.5265   18.4218 H   0  0  0  0  0  0
  -27.9162  -20.3448   19.6079 H   0  0  0  0  0  0
  -28.9966  -19.8746   18.3165 H   0  0  0  0  0  0
  -27.9908  -16.1372   19.7799 H   0  0  0  0  0  0
  -28.9853  -15.3198   18.5295 H   0  0  0  0  0  0
  -28.9705  -17.0327   18.6356 H   0  0  0  0  0  0
  -31.8357  -21.8545   21.9264 H   0  0  0  0  0  0
  -32.9825  -20.7931   22.6726 H   0  0  0  0  0  0
  -31.7202  -22.3490   19.5576 H   0  0  0  0  0  0
  -31.9674  -20.6958   19.1244 H   0  0  0  0  0  0
  -30.2417  -24.3488   20.2595 H   0  0  0  0  0  0
  -29.2119  -23.7846   18.9697 H   0  0  0  0  0  0
  -28.3025  -22.1194   20.9706 H   0  0  0  0  0  0
  -29.7904  -22.4859   21.6805 H   0  0  0  0  0  0
  -27.9866  -24.9053   21.5631 H   0  0  0  0  0  0
  -27.1743  -24.5940   20.0809 H   0  0  0  0  0  0
  1 25  1  0  0  0
  1 30  2  0  0  0
  1 87  1  0  0  0
  2  3  1  0  0  0
  2 25  1  0  0  0
  2 88  1  0  0  0
  2 89  1  0  0  0
  3  4  1  0  0  0
  3 90  1  0  0  0
  3 91  1  0  0  0
  4  5  1  0  0  0
  4 92  1  0  0  0
  4 93  1  0  0  0
  5  6  1  0  0  0
  5 26  1  0  0  0
  5 94  1  0  0  0
  6 25  1  0  0  0
  6 95  1  0  0  0
  6 96  1  0  0  0
  7  8  2  0  0  0
  7 26  1  0  0  0
  7 29  1  0  0  0
  8  9  1  0  0  0
  8 22  1  0  0  0
  9 10  1  0  0  0
  9 27  2  0  0  0
 10 11  2  0  0  0
 10 15  1  0  0  0
 11 12  1  0  0  0
 11 97  1  0  0  0
 12 13  2  0  0  0
 12 98  1  0  0  0
 13 14  1  0  0  0
 13 31  1  0  0  0
 14 15  2  0  0  0
 14 99  1  0  0  0
 15100  1  0  0  0
 16 17  2  0  0  0
 16 21  1  0  0  0
 16 31  1  0  0  0
 17 18  1  0  0  0
 17101  1  0  0  0
 18 19  2  0  0  0
 18102  1  0  0  0
 19 20  1  0  0  0
 19 24  1  0  0  0
 20 21  2  0  0  0
 20103  1  0  0  0
 21 23  1  0  0  0
 22 28  1  0  0  0
 22 32  2  0  0  0
 26 27  1  0  0  0
 28104  1  0  0  0
 28105  1  0  0  0
 29106  1  0  0  0
 29107  1  0  0  0
 33 34  1  0  0  0
 33 66  1  0  0  0
 33 70  2  0  0  0
 34 36  1  0  0  0
 34 59  1  0  0  0
 34108  1  0  0  0
 35 44  2  0  0  0
 35 45  1  0  0  0
 35 68  1  0  0  0
 36 56  1  0  0  0
 36109  1  0  0  0
 37 39  1  0  0  0
 37 47  1  0  0  0
 37 66  1  0  0  0
 37110  1  0  0  0
 38 43  2  0  0  0
 38 46  1  0  0  0
 38 47  1  0  0  0
 39 64  1  0  0  0
 39 67  2  0  0  0
 40 52  1  0  0  0
 40 53  2  0  0  0
 40 58  1  0  0  0
 41111  1  0  0  0
 41112  1  0  0  0
 41113  1  0  0  0
 41 48  1  0  0  0
 42 43  1  0  0  0
 42 66  1  0  0  0
 42114  1  0  0  0
 42115  1  0  0  0
 43 44  1  0  0  0
 44116  1  0  0  0
 45 46  2  0  0  0
 45117  1  0  0  0
 46118  1  0  0  0
 47119  1  0  0  0
 47120  1  0  0  0
 48 56  1  0  0  0
 48 65  1  0  0  0
 48121  1  0  0  0
 49 50  1  0  0  0
 49 53  1  0  0  0
 49 64  1  0  0  0
 49122  1  0  0  0
 50 51  1  0  0  0
 50123  1  0  0  0
 50124  1  0  0  0
 51 52  1  0  0  0
 51125  1  0  0  0
 51126  1  0  0  0
 52127  1  0  0  0
 52128  1  0  0  0
 53 54  1  0  0  0
 54 55  2  0  0  0
 54129  1  0  0  0
 55 57  1  0  0  0
 55130  1  0  0  0
 56 69  2  0  0  0
 57 58  2  0  0  0
 57131  1  0  0  0
 58132  1  0  0  0
 59 60  1  0  0  0
 59 61  1  0  0  0
 59 62  1  0  0  0
 60133  1  0  0  0
 60134  1  0  0  0
 60135  1  0  0  0
 61136  1  0  0  0
 61137  1  0  0  0
 61138  1  0  0  0
 62139  1  0  0  0
 62140  1  0  0  0
 62141  1  0  0  0
 63 65  1  0  0  0
 63142  1  0  0  0
 63143  1  0  0  0
 63144  1  0  0  0
 64145  1  0  0  0
 65146  1  0  0  0
 68 83  1  0  0  0
 71 74  2  0  0  0
 71 85  1  0  0  0
 71147  1  0  0  0
 72 73  1  0  0  0
 72 79  1  0  0  0
 72 85  2  0  0  0
 73 84  1  0  0  0
 73 86  2  0  0  0
 74 86  1  0  0  0
 74 87  1  0  0  0
 75 79  1  0  0  0
 75148  1  0  0  0
 75149  1  0  0  0
 75150  1  0  0  0
 76 80  1  0  0  0
 76151  1  0  0  0
 76152  1  0  0  0
 76153  1  0  0  0
 77154  1  0  0  0
 77155  1  0  0  0
 77156  1  0  0  0
 77 84  1  0  0  0
 78 87  1  0  0  0
 78157  1  0  0  0
 78158  1  0  0  0
 78159  1  0  0  0
 79160  1  0  0  0
 79161  1  0  0  0
 80 84  1  0  0  0
 80162  1  0  0  0
 80163  1  0  0  0
 81 82  1  0  0  0
 81 83  1  0  0  0
 81164  1  0  0  0
 81165  1  0  0  0
 82 84  1  0  0  0
 82166  1  0  0  0
 82167  1  0  0  0
 83168  1  0  0  0
 83169  1  0  0  0
M  ISO  4   1 100  68 101  83 101  87 100
M  END
> <chiral flag>
0

> <version>
0

> <s_m_source_file>
/data/baiqing/PycharmProjects/Reinvent-master-3.2/result/LINK_invent/BTK/process_docking_weight1_custom_sum_contain_oxygen_bond_distance_aromatic_linkinvent_7_9_3/rearranged_h_0067.sdf

> <i_m_source_file_index>
2

> <r_mmod_Potential_Energy-OPLS-2005>
467.615264892578

> <r_mmod_Stretch_Energy-OPLS-2005>
145.657913208008

> <r_mmod_Bend_Energy-OPLS-2005>
201.316268920898

> <r_mmod_Torsional_Energy-OPLS-2005>
312.065338134766

> <r_mmod_Improper_Torsional_Energy-OPLS-2005>
10.225359916687

> <r_mmod_Van_der_Waal_Energy-OPLS-2005>
166.033004760742

> <r_mmod_Electrostatic_Energy-OPLS-2005>
-286.184600830078

> <r_mmod_Solvation_Energy-OPLS-2005>
-188.873031616211

> <b_mmod_Minimization_Converged-OPLS-2005>
0

> <r_mmod_RMS_Derivative-OPLS-2005>
10.4351902008057

$$$$
2
                    3D
 Structure written by MMmdl.
168176  0  0  1  0            999 V2000
  -30.7081  -14.4404   20.5670 C   0  0  0  0  0  0
  -30.4251  -12.2877   19.4110 C   0  0  0  0  0  0
  -29.4910  -12.4925   18.2002 C   0  0  0  0  0  0
  -28.0088  -12.3743   18.6147 C   0  0  0  0  0  0
  -27.6650  -13.1956   19.8867 C   0  0  2  0  0  0
  -28.7125  -12.9321   20.9911 C   0  0  0  0  0  0
  -25.2629  -13.8124   20.5719 C   0  0  0  0  0  0
  -24.1860  -13.0431   20.9215 C   0  0  0  0  0  0
  -24.6394  -11.6888   20.8781 C   0  0  0  0  0  0
  -23.9054  -10.4279   21.0428 C   0  0  0  0  0  0
  -24.3610   -9.4190   21.9197 C   0  0  0  0  0  0
  -23.6283   -8.2229   22.0753 C   0  0  0  0  0  0
  -22.4272   -8.0281   21.3540 C   0  0  0  0  0  0
  -21.9915   -9.0258   20.4647 C   0  0  0  0  0  0
  -22.7238  -10.2136   20.3057 C   0  0  0  0  0  0
  -21.6859   -6.0738   22.5282 C   0  0  0  0  0  0
  -21.4013   -6.5639   23.8214 C   0  0  0  0  0  0
  -21.3654   -5.6788   24.9176 C   0  0  0  0  0  0
  -21.6041   -4.3051   24.7236 C   0  0  0  0  0  0
  -21.8814   -3.8146   23.4357 C   0  0  0  0  0  0
  -21.9188   -4.6962   22.3414 C   0  0  0  0  0  0
  -22.7886  -13.5243   21.1871 C   0  0  0  0  0  0
  -22.1652   -4.2132   21.1000 F   0  0  0  0  0  0
  -21.5637   -3.4545   25.7761 F   0  0  0  0  0  0
  -30.0313  -13.2672   20.4342 N   0  0  0  0  0  0
  -26.3044  -12.9259   20.3436 N   0  0  0  0  0  0
  -25.9316  -11.6432   20.5818 N   0  0  0  0  0  0
  -22.0520  -12.8224   22.0432 N   0  0  0  0  0  0
  -25.4456  -15.1806   20.4094 N   0  0  0  0  0  0
  -31.8528  -14.6000   20.1424 O   0  0  0  0  0  0
  -21.6644   -6.8877   21.4238 O   0  0  0  0  0  0
  -22.3581  -14.5562   20.6734 O   0  0  0  0  0  0
  -24.6114  -31.8686   23.2139 C   0  0  0  0  0  0
  -25.9011  -32.4823   23.8422 C   0  0  1  0  0  0
  -27.2329  -27.4515   20.0900 C   0  0  0  0  0  0
  -25.5873  -33.8630   24.2338 N   0  0  0  0  0  0
  -23.3964  -30.4944   21.5557 C   0  0  2  0  0  0
  -24.8371  -28.9570   20.1228 C   0  0  0  0  0  0
  -22.7364  -29.4715   22.5063 C   0  0  0  0  0  0
  -18.0285  -28.1385   22.8519 C   0  0  0  0  0  0
  -24.1478  -36.7317   23.2643 C   0  0  0  0  0  0
  -25.9221  -30.8404   21.3596 C   0  0  0  0  0  0
  -25.9966  -29.4750   20.7100 C   0  0  0  0  0  0
  -27.1936  -28.7296   20.6885 C   0  0  0  0  0  0
  -26.0481  -26.9343   19.5123 C   0  0  0  0  0  0
  -24.8567  -27.6846   19.5261 C   0  0  0  0  0  0
  -23.5997  -29.8239   20.1713 C   0  0  0  0  0  0
  -25.4102  -36.3118   24.0344 C   0  0  1  0  0  0
  -20.5852  -28.3702   23.1383 C   0  0  2  0  0  0
  -20.6805  -26.9434   22.5517 C   0  0  0  0  0  0
  -19.5832  -26.6425   21.5252 C   0  0  0  0  0  0
  -18.1984  -26.7949   22.1627 C   0  0  0  0  0  0
  -19.1513  -28.8861   23.2930 C   0  0  0  0  0  0
  -18.9426  -30.1481   23.8898 C   0  0  0  0  0  0
  -17.6429  -30.6608   24.0510 C   0  0  0  0  0  0
  -25.9028  -34.9482   23.5145 C   0  0  0  0  0  0
  -16.5325  -29.9074   23.6307 C   0  0  0  0  0  0
  -16.7266  -28.6475   23.0378 C   0  0  0  0  0  0
  -26.4458  -31.6602   25.0739 C   0  0  0  0  0  0
  -25.3748  -31.3675   26.1502 C   0  0  0  0  0  0
  -27.0288  -30.3062   24.6080 C   0  0  0  0  0  0
  -27.6047  -32.4314   25.7488 C   0  0  0  0  0  0
  -27.5575  -37.1818   24.8469 C   0  0  0  0  0  0
  -21.4098  -29.3096   22.3815 N   0  0  0  0  0  0
  -26.4289  -37.3799   23.9410 N   0  0  0  0  0  0
  -24.6622  -31.0825   22.1010 N   0  0  0  0  0  0
  -23.4151  -28.8240   23.3070 O   0  0  0  0  0  0
  -28.4462  -26.7987   20.0745 O   0  0  0  0  0  0
  -26.5592  -34.8939   22.4706 O   0  0  0  0  0  0
  -23.5313  -32.1434   23.7548 O   0  0  0  0  0  0
  -25.1572  -19.7985   21.3761 C   0  0  0  0  0  0
  -26.6437  -21.2263   20.5537 C   0  0  0  0  0  0
  -27.2043  -19.0997   20.8683 C   0  0  0  0  0  0
  -23.7768  -19.5033   21.9270 C   0  0  0  0  0  0
  -30.4267  -18.2015   21.9655 C   0  0  0  0  0  0
  -28.3450  -17.8608   23.3033 C   0  0  0  0  0  0
  -27.0091  -22.6212   20.0599 C   0  0  0  0  0  0
  -28.2185  -17.9659   20.7113 C   0  0  0  0  0  0
  -27.1527  -23.6684   21.1855 C   0  0  0  0  0  0
  -28.4089  -24.5551   21.0727 C   0  0  0  0  0  0
  -29.2271  -15.9688   21.9270 C   0  0  0  0  0  0
  -28.5303  -25.4038   19.7891 C   0  0  0  0  0  0
  -29.0422  -17.5119   21.9693 C   0  0  0  0  0  0
  -25.4022  -21.0474   20.9956 N   0  0  0  0  0  0
  -25.9965  -18.7733   21.3133 N   0  0  0  0  0  0
  -27.6033  -20.3111   20.4944 N   0  0  0  0  0  0
  -29.9697  -15.5459   20.7392 N   0  0  0  0  0  0
  -31.4683  -12.3908   19.1060 H   0  0  0  0  0  0
  -30.3312  -11.2737   19.8026 H   0  0  0  0  0  0
  -29.7205  -11.7637   17.4220 H   0  0  0  0  0  0
  -29.6750  -13.4746   17.7600 H   0  0  0  0  0  0
  -27.7960  -11.3189   18.7891 H   0  0  0  0  0  0
  -27.3632  -12.6770   17.7897 H   0  0  0  0  0  0
  -27.7191  -14.2490   19.6159 H   0  0  0  0  0  0
  -28.6948  -11.8795   21.2708 H   0  0  0  0  0  0
  -28.4981  -13.4531   21.9189 H   0  0  0  0  0  0
  -25.2754   -9.5659   22.4768 H   0  0  0  0  0  0
  -23.9990   -7.4607   22.7470 H   0  0  0  0  0  0
  -21.0838   -8.8769   19.8966 H   0  0  0  0  0  0
  -22.3682  -10.9677   19.6165 H   0  0  0  0  0  0
  -21.1997   -7.6147   23.9703 H   0  0  0  0  0  0
  -21.1495   -6.0534   25.9074 H   0  0  0  0  0  0
  -22.0605   -2.7605   23.2870 H   0  0  0  0  0  0
  -22.4101  -11.9822   22.4721 H   0  0  0  0  0  0
  -21.1138  -13.1230   22.2681 H   0  0  0  0  0  0
  -24.7119  -15.8654   20.5540 H   0  0  0  0  0  0
  -26.3093  -15.5933   20.0845 H   0  0  0  0  0  0
  -26.7078  -32.5542   23.1192 H   0  0  0  0  0  0
  -25.0004  -33.9799   25.0469 H   0  0  0  0  0  0
  -22.6856  -31.3120   21.4191 H   0  0  0  0  0  0
  -23.3730  -35.9658   23.3321 H   0  0  0  0  0  0
  -24.3569  -36.8910   22.2054 H   0  0  0  0  0  0
  -23.7254  -37.6545   23.6638 H   0  0  0  0  0  0
  -26.0300  -31.6042   20.5891 H   0  0  0  0  0  0
  -26.8126  -30.8963   21.9729 H   0  0  0  0  0  0
  -28.0922  -29.1349   21.1305 H   0  0  0  0  0  0
  -26.0124  -25.9677   19.0356 H   0  0  0  0  0  0
  -23.9604  -27.2778   19.0789 H   0  0  0  0  0  0
  -23.7065  -30.5974   19.4096 H   0  0  0  0  0  0
  -22.7224  -29.2407   19.8809 H   0  0  0  0  0  0
  -25.1280  -36.1993   25.0837 H   0  0  0  0  0  0
  -20.9929  -28.3309   24.1520 H   0  0  0  0  0  0
  -20.5668  -26.2311   23.3700 H   0  0  0  0  0  0
  -21.6691  -26.7494   22.1364 H   0  0  0  0  0  0
  -19.7060  -25.6356   21.1255 H   0  0  0  0  0  0
  -19.6809  -27.3294   20.6830 H   0  0  0  0  0  0
  -17.4286  -26.6739   21.3994 H   0  0  0  0  0  0
  -18.0350  -26.0077   22.9004 H   0  0  0  0  0  0
  -19.7895  -30.7296   24.2264 H   0  0  0  0  0  0
  -17.4957  -31.6329   24.5035 H   0  0  0  0  0  0
  -15.5324  -30.2989   23.7564 H   0  0  0  0  0  0
  -15.8679  -28.0803   22.7057 H   0  0  0  0  0  0
  -24.5915  -30.7021   25.7844 H   0  0  0  0  0  0
  -24.8936  -32.2811   26.5007 H   0  0  0  0  0  0
  -25.8124  -30.8819   27.0236 H   0  0  0  0  0  0
  -26.2821  -29.6845   24.1111 H   0  0  0  0  0  0
  -27.4068  -29.7273   25.4519 H   0  0  0  0  0  0
  -27.8651  -30.4410   23.9212 H   0  0  0  0  0  0
  -27.2671  -33.3597   26.2119 H   0  0  0  0  0  0
  -28.3820  -32.6910   25.0280 H   0  0  0  0  0  0
  -28.0757  -31.8411   26.5361 H   0  0  0  0  0  0
  -28.2620  -38.0087   24.7486 H   0  0  0  0  0  0
  -28.1050  -36.2626   24.6321 H   0  0  0  0  0  0
  -27.2294  -37.1502   25.8874 H   0  0  0  0  0  0
  -20.9254  -29.8811   21.7046 H   0  0  0  0  0  0
  -26.0180  -38.2887   24.1388 H   0  0  0  0  0  0
  -23.1373  -19.0758   21.1547 H   0  0  0  0  0  0
  -23.2943  -20.4051   22.3015 H   0  0  0  0  0  0
  -23.8285  -18.7917   22.7526 H   0  0  0  0  0  0
  -30.9944  -17.9981   21.0578 H   0  0  0  0  0  0
  -30.3288  -19.2855   22.0325 H   0  0  0  0  0  0
  -31.0397  -17.8771   22.8090 H   0  0  0  0  0  0
  -27.3550  -17.4070   23.3708 H   0  0  0  0  0  0
  -28.2261  -18.9376   23.4248 H   0  0  0  0  0  0
  -28.9168  -17.5040   24.1594 H   0  0  0  0  0  0
  -26.2650  -22.9495   19.3335 H   0  0  0  0  0  0
  -27.9425  -22.5513   19.5022 H   0  0  0  0  0  0
  -28.8905  -18.2061   19.8883 H   0  0  0  0  0  0
  -27.6468  -17.1170   20.3365 H   0  0  0  0  0  0
  -27.2164  -23.1455   22.1411 H   0  0  0  0  0  0
  -26.2481  -24.2738   21.2463 H   0  0  0  0  0  0
  -29.2831  -23.9050   21.1407 H   0  0  0  0  0  0
  -28.4714  -25.2036   21.9475 H   0  0  0  0  0  0
  -29.7389  -15.6120   22.8235 H   0  0  0  0  0  0
  -28.2348  -15.5199   21.9249 H   0  0  0  0  0  0
  -29.5345  -25.2522   19.3913 H   0  0  0  0  0  0
  -27.8790  -25.0646   18.9856 H   0  0  0  0  0  0
  -30.4433  -16.3304   20.3177 H   0  0  0  0  0  0
  1 25  1  0  0  0
  1 30  2  0  0  0
  1 87  1  0  0  0
  2  3  1  0  0  0
  2 25  1  0  0  0
  2 88  1  0  0  0
  2 89  1  0  0  0
  3  4  1  0  0  0
  3 90  1  0  0  0
  3 91  1  0  0  0
  4  5  1  0  0  0
  4 92  1  0  0  0
  4 93  1  0  0  0
  5  6  1  0  0  0
  5 26  1  0  0  0
  5 94  1  0  0  0
  6 25  1  0  0  0
  6 95  1  0  0  0
  6 96  1  0  0  0
  7  8  2  0  0  0
  7 26  1  0  0  0
  7 29  1  0  0  0
  8  9  1  0  0  0
  8 22  1  0  0  0
  9 10  1  0  0  0
  9 27  2  0  0  0
 10 11  2  0  0  0
 10 15  1  0  0  0
 11 12  1  0  0  0
 11 97  1  0  0  0
 12 13  2  0  0  0
 12 98  1  0  0  0
 13 14  1  0  0  0
 13 31  1  0  0  0
 14 15  2  0  0  0
 14 99  1  0  0  0
 15100  1  0  0  0
 16 17  2  0  0  0
 16 21  1  0  0  0
 16 31  1  0  0  0
 17 18  1  0  0  0
 17101  1  0  0  0
 18 19  2  0  0  0
 18102  1  0  0  0
 19 20  1  0  0  0
 19 24  1  0  0  0
 20 21  2  0  0  0
 20103  1  0  0  0
 21 23  1  0  0  0
 22 28  1  0  0  0
 22 32  2  0  0  0
 26 27  1  0  0  0
 28104  1  0  0  0
 28105  1  0  0  0
 29106  1  0  0  0
 29107  1  0  0  0
 33 34  1  0  0  0
 33 66  1  0  0  0
 33 70  2  0  0  0
 34 36  1  0  0  0
 34 59  1  0  0  0
 34108  1  0  0  0
 35 44  2  0  0  0
 35 45  1  0  0  0
 35 68  1  0  0  0
 36 56  1  0  0  0
 36109  1  0  0  0
 37 39  1  0  0  0
 37 47  1  0  0  0
 37 66  1  0  0  0
 37110  1  0  0  0
 38 43  2  0  0  0
 38 46  1  0  0  0
 38 47  1  0  0  0
 39 64  1  0  0  0
 39 67  2  0  0  0
 40 52  1  0  0  0
 40 53  2  0  0  0
 40 58  1  0  0  0
 41111  1  0  0  0
 41112  1  0  0  0
 41113  1  0  0  0
 41 48  1  0  0  0
 42 43  1  0  0  0
 42 66  1  0  0  0
 42114  1  0  0  0
 42115  1  0  0  0
 43 44  1  0  0  0
 44116  1  0  0  0
 45 46  2  0  0  0
 45117  1  0  0  0
 46118  1  0  0  0
 47119  1  0  0  0
 47120  1  0  0  0
 48 56  1  0  0  0
 48 65  1  0  0  0
 48121  1  0  0  0
 49 50  1  0  0  0
 49 53  1  0  0  0
 49 64  1  0  0  0
 49122  1  0  0  0
 50 51  1  0  0  0
 50123  1  0  0  0
 50124  1  0  0  0
 51 52  1  0  0  0
 51125  1  0  0  0
 51126  1  0  0  0
 52127  1  0  0  0
 52128  1  0  0  0
 53 54  1  0  0  0
 54 55  2  0  0  0
 54129  1  0  0  0
 55 57  1  0  0  0
 55130  1  0  0  0
 56 69  2  0  0  0
 57 58  2  0  0  0
 57131  1  0  0  0
 58132  1  0  0  0
 59 60  1  0  0  0
 59 61  1  0  0  0
 59 62  1  0  0  0
 60133  1  0  0  0
 60134  1  0  0  0
 60135  1  0  0  0
 61136  1  0  0  0
 61137  1  0  0  0
 61138  1  0  0  0
 62139  1  0  0  0
 62140  1  0  0  0
 62141  1  0  0  0
 63 65  1  0  0  0
 63142  1  0  0  0
 63143  1  0  0  0
 63144  1  0  0  0
 64145  1  0  0  0
 65146  1  0  0  0
 68 82  1  0  0  0
 71 74  1  0  0  0
 71 84  2  0  0  0
 71 85  1  0  0  0
 72 77  1  0  0  0
 72 84  1  0  0  0
 72 86  2  0  0  0
 73 78  1  0  0  0
 73 85  2  0  0  0
 73 86  1  0  0  0
 74147  1  0  0  0
 74148  1  0  0  0
 74149  1  0  0  0
 75150  1  0  0  0
 75151  1  0  0  0
 75152  1  0  0  0
 75 83  1  0  0  0
 76 83  1  0  0  0
 76153  1  0  0  0
 76154  1  0  0  0
 76155  1  0  0  0
 77 79  1  0  0  0
 77156  1  0  0  0
 77157  1  0  0  0
 78 83  1  0  0  0
 78158  1  0  0  0
 78159  1  0  0  0
 79 80  1  0  0  0
 79160  1  0  0  0
 79161  1  0  0  0
 80 82  1  0  0  0
 80162  1  0  0  0
 80163  1  0  0  0
 81 83  1  0  0  0
 81 87  1  0  0  0
 81164  1  0  0  0
 81165  1  0  0  0
 82166  1  0  0  0
 82167  1  0  0  0
 87168  1  0  0  0
M  ISO  4   1 100  68 101  82 101  87 100
M  END
> <chiral flag>
0

> <version>
0

> <s_m_source_file>
/data/baiqing/PycharmProjects/Reinvent-master-3.2/result/LINK_invent/BTK/process_docking_weight1_custom_sum_contain_oxygen_bond_distance_aromatic_linkinvent_7_9_3/rearranged_h_0067.sdf

> <i_m_source_file_index>
3

> <r_mmod_Potential_Energy-OPLS-2005>
-592.107116699219

> <r_mmod_Stretch_Energy-OPLS-2005>
34.1682434082031

> <r_mmod_Bend_Energy-OPLS-2005>
130.430480957031

> <r_mmod_Torsional_Energy-OPLS-2005>
252.419586181641

> <r_mmod_Improper_Torsional_Energy-OPLS-2005>
17.2700214385986

> <r_mmod_Van_der_Waal_Energy-OPLS-2005>
169.477996826172

> <r_mmod_Electrostatic_Energy-OPLS-2005>
-992.469055175781

> <r_mmod_Solvation_Energy-OPLS-2005>
-215.759674072266

> <b_mmod_Minimization_Converged-OPLS-2005>
0

> <r_mmod_RMS_Derivative-OPLS-2005>
2.95875263214111

$$$$
3
                    3D
 Structure written by MMmdl.
161170  0  0  1  0            999 V2000
  -30.7813  -14.3286   20.7296 C   0  0  0  0  0  0
  -30.4116  -12.3013   19.3681 C   0  0  0  0  0  0
  -29.4726  -12.5513   18.1746 C   0  0  0  0  0  0
  -27.9997  -12.3998   18.5973 C   0  0  0  0  0  0
  -27.6648  -13.2056   19.8800 C   0  0  2  0  0  0
  -28.7034  -12.9285   20.9865 C   0  0  0  0  0  0
  -25.2599  -13.8159   20.5718 C   0  0  0  0  0  0
  -24.1850  -13.0432   20.9186 C   0  0  0  0  0  0
  -24.6394  -11.6895   20.8712 C   0  0  0  0  0  0
  -23.9047  -10.4292   21.0380 C   0  0  0  0  0  0
  -24.3603   -9.4219   21.9169 C   0  0  0  0  0  0
  -23.6289   -8.2248   22.0750 C   0  0  0  0  0  0
  -22.4277   -8.0271   21.3534 C   0  0  0  0  0  0
  -21.9891   -9.0241   20.4641 C   0  0  0  0  0  0
  -22.7207  -10.2129   20.3045 C   0  0  0  0  0  0
  -21.6853   -6.0728   22.5279 C   0  0  0  0  0  0
  -21.4017   -6.5638   23.8212 C   0  0  0  0  0  0
  -21.3657   -5.6796   24.9174 C   0  0  0  0  0  0
  -21.6043   -4.3057   24.7232 C   0  0  0  0  0  0
  -21.8814   -3.8139   23.4355 C   0  0  0  0  0  0
  -21.9198   -4.6952   22.3411 C   0  0  0  0  0  0
  -22.7873  -13.5235   21.1845 C   0  0  0  0  0  0
  -22.1666   -4.2133   21.0992 F   0  0  0  0  0  0
  -21.5625   -3.4548   25.7750 F   0  0  0  0  0  0
  -30.0457  -13.2232   20.4504 N   0  0  0  0  0  0
  -26.3042  -12.9334   20.3395 N   0  0  0  0  0  0
  -25.9321  -11.6482   20.5742 N   0  0  0  0  0  0
  -22.0501  -12.8234   22.0390 N   0  0  0  0  0  0
  -25.4303  -15.1885   20.4169 N   0  0  0  0  0  0
  -31.7762  -14.6702   20.0813 O   0  0  0  0  0  0
  -21.6640   -6.8868   21.4236 O   0  0  0  0  0  0
  -22.3553  -14.5532   20.6684 O   0  0  0  0  0  0
  -24.6155  -31.8698   23.2097 C   0  0  0  0  0  0
  -25.9055  -32.4825   23.8380 C   0  0  1  0  0  0
  -27.2294  -27.4481   20.1097 C   0  0  0  0  0  0
  -25.5922  -33.8621   24.2316 N   0  0  0  0  0  0
  -23.4008  -30.4971   21.5480 C   0  0  2  0  0  0
  -24.8450  -28.9575   20.1151 C   0  0  0  0  0  0
  -22.7381  -29.4711   22.4971 C   0  0  0  0  0  0
  -18.0280  -28.1385   22.8481 C   0  0  0  0  0  0
  -24.1497  -36.7316   23.2646 C   0  0  0  0  0  0
  -25.9241  -30.8407   21.3562 C   0  0  0  0  0  0
  -26.0015  -29.4730   20.7124 C   0  0  0  0  0  0
  -27.1991  -28.7268   20.7082 C   0  0  0  0  0  0
  -26.0670  -26.9418   19.4973 C   0  0  0  0  0  0
  -24.8724  -27.6905   19.5013 C   0  0  0  0  0  0
  -23.6065  -29.8260   20.1627 C   0  0  0  0  0  0
  -25.4121  -36.3118   24.0340 C   0  0  1  0  0  0
  -20.5864  -28.3694   23.1314 C   0  0  2  0  0  0
  -20.6781  -26.9433   22.5429 C   0  0  0  0  0  0
  -19.5760  -26.6399   21.5223 C   0  0  0  0  0  0
  -18.1922  -26.7932   22.1605 C   0  0  0  0  0  0
  -19.1528  -28.8847   23.2898 C   0  0  0  0  0  0
  -18.9459  -30.1445   23.8918 C   0  0  0  0  0  0
  -17.6469  -30.6588   24.0586 C   0  0  0  0  0  0
  -25.9048  -34.9480   23.5126 C   0  0  0  0  0  0
  -16.5357  -29.9106   23.6331 C   0  0  0  0  0  0
  -16.7270  -28.6529   23.0331 C   0  0  0  0  0  0
  -26.4492  -31.6599   25.0705 C   0  0  0  0  0  0
  -25.3769  -31.3718   26.1477 C   0  0  0  0  0  0
  -27.0319  -30.3050   24.6027 C   0  0  0  0  0  0
  -27.6050  -32.4332   25.7469 C   0  0  0  0  0  0
  -27.5569  -37.1813   24.8462 C   0  0  0  0  0  0
  -21.4116  -29.3078   22.3712 N   0  0  0  0  0  0
  -26.4299  -37.3805   23.9398 N   0  0  0  0  0  0
  -24.6656  -31.0810   22.0993 N   0  0  0  0  0  0
  -23.4163  -28.8221   23.2992 O   0  0  0  0  0  0
  -28.3795  -26.7020   20.0868 O   0  0  0  0  0  0
  -26.5603  -34.8927   22.4682 O   0  0  0  0  0  0
  -23.5357  -32.1481   23.7499 O   0  0  0  0  0  0
  -28.1204  -17.3562   22.5916 C   0  0  0  0  0  0
  -27.2763  -18.3628   22.0897 C   0  0  0  0  0  0
  -29.8076  -19.0609   22.8827 C   0  0  0  0  0  0
  -27.5777  -22.7556   22.6752 C   0  0  0  0  0  0
  -27.5462  -22.6351   20.3045 C   0  0  0  0  0  0
  -29.4170  -17.7126   23.0150 C   0  0  0  0  0  0
  -27.3337  -21.9882   21.5282 C   0  0  0  0  0  0
  -27.7454  -19.6847   22.0336 C   0  0  0  0  0  0
  -28.1451  -24.5676   21.3815 C   0  0  0  0  0  0
  -29.7253  -15.7505   24.6369 C   0  0  0  0  0  0
  -28.6637  -26.0112   21.3150 C   0  0  0  0  0  0
  -31.2103  -15.9601   22.5516 C   0  0  0  0  0  0
  -30.3917  -16.7062   23.6238 C   0  0  1  0  0  0
  -28.9955  -20.0296   22.4109 N   0  0  0  0  0  0
  -27.9808  -24.0417   22.5967 N   0  0  0  0  0  0
  -27.9489  -23.9199   20.2327 N   0  0  0  0  0  0
  -30.4155  -14.9620   21.8474 N   0  0  0  0  0  0
  -26.9039  -20.6796   21.5804 O   0  0  0  0  0  0
  -31.4531  -12.4107   19.0597 H   0  0  0  0  0  0
  -30.3106  -11.2717   19.7152 H   0  0  0  0  0  0
  -29.6997  -11.8620   17.3607 H   0  0  0  0  0  0
  -29.6384  -13.5535   17.7750 H   0  0  0  0  0  0
  -27.8049  -11.3413   18.7649 H   0  0  0  0  0  0
  -27.3428  -12.7075   17.7840 H   0  0  0  0  0  0
  -27.7256  -14.2649   19.6259 H   0  0  0  0  0  0
  -28.6681  -11.8800   21.2860 H   0  0  0  0  0  0
  -28.4442  -13.4922   21.8829 H   0  0  0  0  0  0
  -25.2751   -9.5706   22.4733 H   0  0  0  0  0  0
  -23.9995   -7.4649   22.7486 H   0  0  0  0  0  0
  -21.0811   -8.8749   19.8971 H   0  0  0  0  0  0
  -22.3643  -10.9661   19.6152 H   0  0  0  0  0  0
  -21.2009   -7.6142   23.9703 H   0  0  0  0  0  0
  -21.1479   -6.0531   25.9072 H   0  0  0  0  0  0
  -22.0591   -2.7601   23.2868 H   0  0  0  0  0  0
  -22.4122  -11.9925   22.4826 H   0  0  0  0  0  0
  -21.1106  -13.1242   22.2559 H   0  0  0  0  0  0
  -24.6564  -15.8355   20.5223 H   0  0  0  0  0  0
  -26.2759  -15.6302   20.0799 H   0  0  0  0  0  0
  -26.7106  -32.5521   23.1116 H   0  0  0  0  0  0
  -25.0136  -33.9763   25.0503 H   0  0  0  0  0  0
  -22.6976  -31.3200   21.4042 H   0  0  0  0  0  0
  -23.3741  -35.9664   23.3369 H   0  0  0  0  0  0
  -24.3609  -36.8890   22.2052 H   0  0  0  0  0  0
  -23.7262  -37.6544   23.6629 H   0  0  0  0  0  0
  -26.0249  -31.6017   20.5806 H   0  0  0  0  0  0
  -26.8191  -30.9036   21.9625 H   0  0  0  0  0  0
  -28.0946  -29.1311   21.1599 H   0  0  0  0  0  0
  -26.0877  -25.9678   19.0277 H   0  0  0  0  0  0
  -23.9864  -27.2932   19.0285 H   0  0  0  0  0  0
  -23.7178  -30.6040   19.4067 H   0  0  0  0  0  0
  -22.7269  -29.2553   19.8613 H   0  0  0  0  0  0
  -25.1297  -36.2002   25.0839 H   0  0  0  0  0  0
  -20.9953  -28.3267   24.1437 H   0  0  0  0  0  0
  -20.5714  -26.2302   23.3616 H   0  0  0  0  0  0
  -21.6644  -26.7507   22.1194 H   0  0  0  0  0  0
  -19.6972  -25.6321   21.1230 H   0  0  0  0  0  0
  -19.6705  -27.3224   20.6758 H   0  0  0  0  0  0
  -17.4221  -26.6715   21.3973 H   0  0  0  0  0  0
  -18.0294  -26.0058   22.8972 H   0  0  0  0  0  0
  -19.7956  -30.7242   24.2274 H   0  0  0  0  0  0
  -17.5055  -31.6257   24.5197 H   0  0  0  0  0  0
  -15.5368  -30.3025   23.7648 H   0  0  0  0  0  0
  -15.8665  -28.0867   22.7009 H   0  0  0  0  0  0
  -24.5925  -30.7053   25.7876 H   0  0  0  0  0  0
  -24.8957  -32.2874   26.4928 H   0  0  0  0  0  0
  -25.8148  -30.8924   27.0237 H   0  0  0  0  0  0
  -26.2828  -29.6791   24.1157 H   0  0  0  0  0  0
  -27.4221  -29.7297   25.4431 H   0  0  0  0  0  0
  -27.8593  -30.4420   23.9056 H   0  0  0  0  0  0
  -27.2645  -33.3620   26.2056 H   0  0  0  0  0  0
  -28.3838  -32.6952   25.0293 H   0  0  0  0  0  0
  -28.0734  -31.8468   26.5384 H   0  0  0  0  0  0
  -28.2623  -38.0076   24.7488 H   0  0  0  0  0  0
  -28.1019  -36.2604   24.6319 H   0  0  0  0  0  0
  -27.2278  -37.1515   25.8865 H   0  0  0  0  0  0
  -20.9268  -29.8810   21.6947 H   0  0  0  0  0  0
  -26.0196  -38.2891   24.1390 H   0  0  0  0  0  0
  -27.7668  -16.3365   22.6553 H   0  0  0  0  0  0
  -26.2741  -18.1240   21.7625 H   0  0  0  0  0  0
  -30.7958  -19.3767   23.1832 H   0  0  0  0  0  0
  -27.4443  -22.3441   23.6652 H   0  0  0  0  0  0
  -27.3775  -22.1211   19.3702 H   0  0  0  0  0  0
  -29.2121  -16.3018   25.4241 H   0  0  0  0  0  0
  -30.4765  -15.1235   25.1193 H   0  0  0  0  0  0
  -28.9983  -15.0837   24.1756 H   0  0  0  0  0  0
  -29.7460  -25.9855   21.4415 H   0  0  0  0  0  0
  -28.2771  -26.5659   22.1731 H   0  0  0  0  0  0
  -32.0339  -15.4328   23.0356 H   0  0  0  0  0  0
  -31.6624  -16.6656   21.8509 H   0  0  0  0  0  0
  -31.1080  -17.2957   24.1989 H   0  0  0  0  0  0
  -29.6053  -14.5984   22.3249 H   0  0  0  0  0  0
  1 25  1  0  0  0
  1 30  2  0  0  0
  1 87  1  0  0  0
  2  3  1  0  0  0
  2 25  1  0  0  0
  2 89  1  0  0  0
  2 90  1  0  0  0
  3  4  1  0  0  0
  3 91  1  0  0  0
  3 92  1  0  0  0
  4  5  1  0  0  0
  4 93  1  0  0  0
  4 94  1  0  0  0
  5  6  1  0  0  0
  5 26  1  0  0  0
  5 95  1  0  0  0
  6 25  1  0  0  0
  6 96  1  0  0  0
  6 97  1  0  0  0
  7  8  2  0  0  0
  7 26  1  0  0  0
  7 29  1  0  0  0
  8  9  1  0  0  0
  8 22  1  0  0  0
  9 10  1  0  0  0
  9 27  2  0  0  0
 10 11  2  0  0  0
 10 15  1  0  0  0
 11 12  1  0  0  0
 11 98  1  0  0  0
 12 13  2  0  0  0
 12 99  1  0  0  0
 13 14  1  0  0  0
 13 31  1  0  0  0
 14 15  2  0  0  0
 14100  1  0  0  0
 15101  1  0  0  0
 16 17  2  0  0  0
 16 21  1  0  0  0
 16 31  1  0  0  0
 17 18  1  0  0  0
 17102  1  0  0  0
 18 19  2  0  0  0
 18103  1  0  0  0
 19 20  1  0  0  0
 19 24  1  0  0  0
 20 21  2  0  0  0
 20104  1  0  0  0
 21 23  1  0  0  0
 22 28  1  0  0  0
 22 32  2  0  0  0
 26 27  1  0  0  0
 28105  1  0  0  0
 28106  1  0  0  0
 29107  1  0  0  0
 29108  1  0  0  0
 33 34  1  0  0  0
 33 66  1  0  0  0
 33 70  2  0  0  0
 34 36  1  0  0  0
 34 59  1  0  0  0
 34109  1  0  0  0
 35 44  2  0  0  0
 35 45  1  0  0  0
 35 68  1  0  0  0
 36 56  1  0  0  0
 36110  1  0  0  0
 37 39  1  0  0  0
 37 47  1  0  0  0
 37 66  1  0  0  0
 37111  1  0  0  0
 38 43  2  0  0  0
 38 46  1  0  0  0
 38 47  1  0  0  0
 39 64  1  0  0  0
 39 67  2  0  0  0
 40 52  1  0  0  0
 40 53  2  0  0  0
 40 58  1  0  0  0
 41112  1  0  0  0
 41113  1  0  0  0
 41114  1  0  0  0
 41 48  1  0  0  0
 42 43  1  0  0  0
 42 66  1  0  0  0
 42115  1  0  0  0
 42116  1  0  0  0
 43 44  1  0  0  0
 44117  1  0  0  0
 45 46  2  0  0  0
 45118  1  0  0  0
 46119  1  0  0  0
 47120  1  0  0  0
 47121  1  0  0  0
 48 56  1  0  0  0
 48 65  1  0  0  0
 48122  1  0  0  0
 49 50  1  0  0  0
 49 53  1  0  0  0
 49 64  1  0  0  0
 49123  1  0  0  0
 50 51  1  0  0  0
 50124  1  0  0  0
 50125  1  0  0  0
 51 52  1  0  0  0
 51126  1  0  0  0
 51127  1  0  0  0
 52128  1  0  0  0
 52129  1  0  0  0
 53 54  1  0  0  0
 54 55  2  0  0  0
 54130  1  0  0  0
 55 57  1  0  0  0
 55131  1  0  0  0
 56 69  2  0  0  0
 57 58  2  0  0  0
 57132  1  0  0  0
 58133  1  0  0  0
 59 60  1  0  0  0
 59 61  1  0  0  0
 59 62  1  0  0  0
 60134  1  0  0  0
 60135  1  0  0  0
 60136  1  0  0  0
 61137  1  0  0  0
 61138  1  0  0  0
 61139  1  0  0  0
 62140  1  0  0  0
 62141  1  0  0  0
 62142  1  0  0  0
 63 65  1  0  0  0
 63143  1  0  0  0
 63144  1  0  0  0
 63145  1  0  0  0
 64146  1  0  0  0
 65147  1  0  0  0
 68 81  1  0  0  0
 71 72  2  0  0  0
 71 76  1  0  0  0
 71148  1  0  0  0
 72 78  1  0  0  0
 72149  1  0  0  0
 73 76  2  0  0  0
 73 84  1  0  0  0
 73150  1  0  0  0
 74 77  2  0  0  0
 74 85  1  0  0  0
 74151  1  0  0  0
 75 77  1  0  0  0
 75 86  2  0  0  0
 75152  1  0  0  0
 76 83  1  0  0  0
 77 88  1  0  0  0
 78 84  2  0  0  0
 78 88  1  0  0  0
 79 81  1  0  0  0
 79 85  2  0  0  0
 79 86  1  0  0  0
 80153  1  0  0  0
 80154  1  0  0  0
 80155  1  0  0  0
 80 83  1  0  0  0
 81156  1  0  0  0
 81157  1  0  0  0
 82 83  1  0  0  0
 82 87  1  0  0  0
 82158  1  0  0  0
 82159  1  0  0  0
 83160  1  0  0  0
 87161  1  0  0  0
M  ISO  4   1 100  68 101  81 101  87 100
M  END
> <chiral flag>
0

> <version>
0

> <s_m_source_file>
/data/baiqing/PycharmProjects/Reinvent-master-3.2/result/LINK_invent/BTK/process_docking_weight1_custom_sum_contain_oxygen_bond_distance_aromatic_linkinvent_7_9_3/rearranged_h_0067.sdf

> <i_m_source_file_index>
4

> <r_mmod_Potential_Energy-OPLS-2005>
-714.370483398438

> <r_mmod_Stretch_Energy-OPLS-2005>
33.5831527709961

> <r_mmod_Bend_Energy-OPLS-2005>
93.995475769043

> <r_mmod_Torsional_Energy-OPLS-2005>
239.52587890625

> <r_mmod_Improper_Torsional_Energy-OPLS-2005>
2.94612765312195

> <r_mmod_Van_der_Waal_Energy-OPLS-2005>
181.118057250977

> <r_mmod_Electrostatic_Energy-OPLS-2005>
-1038.3798828125

> <r_mmod_Solvation_Energy-OPLS-2005>
-235.192932128906

> <b_mmod_Minimization_Converged-OPLS-2005>
0

> <r_mmod_RMS_Derivative-OPLS-2005>
3.01821541786194

$$$$
4
                    3D
 Structure written by MMmdl.
163171  0  0  1  0            999 V2000
  -30.6556  -14.5471   20.5363 C   0  0  0  0  0  0
  -30.4312  -12.3431   19.4396 C   0  0  0  0  0  0
  -29.4990  -12.4963   18.2173 C   0  0  0  0  0  0
  -28.0214  -12.3406   18.6320 C   0  0  0  0  0  0
  -27.6558  -13.2027   19.8693 C   0  0  2  0  0  0
  -28.6980  -13.0251   20.9981 C   0  0  0  0  0  0
  -25.2577  -13.8119   20.5717 C   0  0  0  0  0  0
  -24.1809  -13.0408   20.9215 C   0  0  0  0  0  0
  -24.6358  -11.6880   20.8752 C   0  0  0  0  0  0
  -23.9034  -10.4263   21.0397 C   0  0  0  0  0  0
  -24.3599   -9.4172   21.9156 C   0  0  0  0  0  0
  -23.6270   -8.2215   22.0742 C   0  0  0  0  0  0
  -22.4251   -8.0258   21.3534 C   0  0  0  0  0  0
  -21.9889   -9.0228   20.4635 C   0  0  0  0  0  0
  -22.7220  -10.2100   20.3035 C   0  0  0  0  0  0
  -21.6837   -6.0718   22.5271 C   0  0  0  0  0  0
  -21.3987   -6.5614   23.8205 C   0  0  0  0  0  0
  -21.3666   -5.6768   24.9168 C   0  0  0  0  0  0
  -21.6063   -4.3037   24.7213 C   0  0  0  0  0  0
  -21.8814   -3.8129   23.4333 C   0  0  0  0  0  0
  -21.9186   -4.6950   22.3394 C   0  0  0  0  0  0
  -22.7835  -13.5230   21.1868 C   0  0  0  0  0  0
  -22.1658   -4.2146   21.0970 F   0  0  0  0  0  0
  -21.5651   -3.4516   25.7722 F   0  0  0  0  0  0
  -30.0242  -13.3420   20.4439 N   0  0  0  0  0  0
  -26.2983  -12.9280   20.3339 N   0  0  0  0  0  0
  -25.9285  -11.6456   20.5785 N   0  0  0  0  0  0
  -22.0469  -12.8219   22.0427 N   0  0  0  0  0  0
  -25.4349  -15.1813   20.4131 N   0  0  0  0  0  0
  -31.7928  -14.7356   20.0953 O   0  0  0  0  0  0
  -21.6612   -6.8859   21.4234 O   0  0  0  0  0  0
  -22.3516  -14.5529   20.6711 O   0  0  0  0  0  0
  -24.6207  -31.8618   23.2037 C   0  0  0  0  0  0
  -25.9076  -32.4791   23.8349 C   0  0  1  0  0  0
  -27.2391  -27.3797   20.1079 C   0  0  0  0  0  0
  -25.5901  -33.8586   24.2299 N   0  0  0  0  0  0
  -23.4108  -30.4846   21.5436 C   0  0  2  0  0  0
  -24.8561  -28.9344   20.1189 C   0  0  0  0  0  0
  -22.7425  -29.4645   22.4949 C   0  0  0  0  0  0
  -18.0279  -28.1360   22.8493 C   0  0  0  0  0  0
  -24.1481  -36.7308   23.2641 C   0  0  0  0  0  0
  -25.9424  -30.8119   21.3612 C   0  0  0  0  0  0
  -26.0177  -29.4394   20.7141 C   0  0  0  0  0  0
  -27.2079  -28.6706   20.7005 C   0  0  0  0  0  0
  -26.0513  -26.8937   19.5149 C   0  0  0  0  0  0
  -24.8705  -27.6636   19.5179 C   0  0  0  0  0  0
  -23.6224  -29.8091   20.1617 C   0  0  0  0  0  0
  -25.4098  -36.3096   24.0351 C   0  0  1  0  0  0
  -20.5867  -28.3679   23.1294 C   0  0  2  0  0  0
  -20.6757  -26.9405   22.5402 C   0  0  0  0  0  0
  -19.5735  -26.6381   21.5192 C   0  0  0  0  0  0
  -18.1925  -26.7907   22.1624 C   0  0  0  0  0  0
  -19.1522  -28.8830   23.2903 C   0  0  0  0  0  0
  -18.9437  -30.1431   23.8919 C   0  0  0  0  0  0
  -17.6435  -30.6571   24.0556 C   0  0  0  0  0  0
  -25.9036  -34.9463   23.5130 C   0  0  0  0  0  0
  -16.5331  -29.9067   23.6299 C   0  0  0  0  0  0
  -16.7269  -28.6474   23.0348 C   0  0  0  0  0  0
  -26.4496  -31.6576   25.0694 C   0  0  0  0  0  0
  -25.3773  -31.3690   26.1458 C   0  0  0  0  0  0
  -27.0338  -30.3013   24.6090 C   0  0  0  0  0  0
  -27.6064  -32.4301   25.7465 C   0  0  0  0  0  0
  -27.5579  -37.1801   24.8474 C   0  0  0  0  0  0
  -21.4144  -29.3065   22.3711 N   0  0  0  0  0  0
  -26.4284  -37.3783   23.9428 N   0  0  0  0  0  0
  -24.6768  -31.0685   22.0948 N   0  0  0  0  0  0
  -23.4182  -28.8190   23.3010 O   0  0  0  0  0  0
  -28.4318  -26.6678   20.1329 O   0  0  0  0  0  0
  -26.5597  -34.8935   22.4695 O   0  0  0  0  0  0
  -23.5385  -32.1384   23.7414 O   0  0  0  0  0  0
  -27.6927  -20.5188   18.4613 C   0  0  0  0  0  0
  -27.8910  -19.2810   19.0868 C   0  0  0  0  0  0
  -28.6718  -19.2806   20.2631 C   0  0  0  0  0  0
  -28.8798  -21.6069   20.0825 C   0  0  0  0  0  0
  -27.1381  -23.8126   21.2669 C   0  0  0  0  0  0
  -29.2107  -24.8837   22.1476 C   0  0  0  0  0  0
  -28.9134  -17.9746   21.0750 C   0  0  0  0  0  0
  -29.4975  -22.9448   20.5503 C   0  0  0  0  0  0
  -30.0844  -17.0267   20.6173 C   0  0  0  0  0  0
  -28.5561  -25.2715   19.7374 C   0  0  0  0  0  0
  -27.1889  -18.0524   18.5226 C   0  0  0  0  0  0
  -28.5853  -24.2072   20.9053 C   0  0  0  0  0  0
  -28.2005  -21.6657   18.9467 N   0  0  0  0  0  0
  -29.1585  -20.4657   20.7466 N   0  0  0  0  0  0
  -29.8789  -15.5832   20.9381 N   0  0  0  0  0  0
  -26.0895  -17.8381   19.2415 F   0  0  0  0  0  0
  -26.8299  -18.2463   17.2543 F   0  0  0  0  0  0
  -27.9452  -16.9581   18.5614 F   0  0  0  0  0  0
  -31.4741  -12.4568   19.1375 H   0  0  0  0  0  0
  -30.3521  -11.3386   19.8570 H   0  0  0  0  0  0
  -29.7511  -11.7550   17.4572 H   0  0  0  0  0  0
  -29.6528  -13.4722   17.7533 H   0  0  0  0  0  0
  -27.8507  -11.2871   18.8550 H   0  0  0  0  0  0
  -27.3650  -12.5813   17.7946 H   0  0  0  0  0  0
  -27.6874  -14.2416   19.5427 H   0  0  0  0  0  0
  -28.6915  -11.9997   21.3725 H   0  0  0  0  0  0
  -28.4539  -13.6518   21.8576 H   0  0  0  0  0  0
  -25.2759   -9.5644   22.4704 H   0  0  0  0  0  0
  -23.9985   -7.4620   22.7468 H   0  0  0  0  0  0
  -21.0816   -8.8737   19.8961 H   0  0  0  0  0  0
  -22.3686  -10.9623   19.6130 H   0  0  0  0  0  0
  -21.1942   -7.6117   23.9702 H   0  0  0  0  0  0
  -21.1518   -6.0495   25.9076 H   0  0  0  0  0  0
  -22.0598   -2.7596   23.2821 H   0  0  0  0  0  0
  -22.4081  -11.9907   22.4863 H   0  0  0  0  0  0
  -21.1084  -13.1250   22.2603 H   0  0  0  0  0  0
  -24.6698  -15.8379   20.5199 H   0  0  0  0  0  0
  -26.2577  -15.6025   20.0061 H   0  0  0  0  0  0
  -26.7152  -32.5492   23.1105 H   0  0  0  0  0  0
  -25.0056  -33.9715   25.0449 H   0  0  0  0  0  0
  -22.7034  -31.3037   21.3959 H   0  0  0  0  0  0
  -23.3737  -35.9647   23.3306 H   0  0  0  0  0  0
  -24.3571  -36.8910   22.2055 H   0  0  0  0  0  0
  -23.7245  -37.6524   23.6643 H   0  0  0  0  0  0
  -26.0561  -31.5700   20.5851 H   0  0  0  0  0  0
  -26.8306  -30.8711   21.9784 H   0  0  0  0  0  0
  -28.1071  -29.0581   21.1602 H   0  0  0  0  0  0
  -26.0076  -25.9212   19.0499 H   0  0  0  0  0  0
  -23.9757  -27.2642   19.0609 H   0  0  0  0  0  0
  -23.7412  -30.5776   19.3970 H   0  0  0  0  0  0
  -22.7455  -29.2304   19.8650 H   0  0  0  0  0  0
  -25.1269  -36.1955   25.0844 H   0  0  0  0  0  0
  -20.9978  -28.3236   24.1404 H   0  0  0  0  0  0
  -20.5641  -26.2282   23.3593 H   0  0  0  0  0  0
  -21.6630  -26.7439   22.1204 H   0  0  0  0  0  0
  -19.6897  -25.6306   21.1192 H   0  0  0  0  0  0
  -19.6653  -27.3217   20.6747 H   0  0  0  0  0  0
  -17.4174  -26.6634   21.4050 H   0  0  0  0  0  0
  -18.0356  -26.0043   22.9027 H   0  0  0  0  0  0
  -19.7920  -30.7236   24.2304 H   0  0  0  0  0  0
  -17.4993  -31.6259   24.5141 H   0  0  0  0  0  0
  -15.5330  -30.2971   23.7583 H   0  0  0  0  0  0
  -15.8679  -28.0774   22.7064 H   0  0  0  0  0  0
  -24.5937  -30.7039   25.7806 H   0  0  0  0  0  0
  -24.8993  -32.2858   26.4919 H   0  0  0  0  0  0
  -25.8154  -30.8853   27.0202 H   0  0  0  0  0  0
  -26.2882  -29.6741   24.1190 H   0  0  0  0  0  0
  -27.4151  -29.7275   25.4547 H   0  0  0  0  0  0
  -27.8696  -30.4311   23.9212 H   0  0  0  0  0  0
  -27.2665  -33.3575   26.2080 H   0  0  0  0  0  0
  -28.3863  -32.6895   25.0295 H   0  0  0  0  0  0
  -28.0753  -31.8408   26.5353 H   0  0  0  0  0  0
  -28.2605  -38.0086   24.7499 H   0  0  0  0  0  0
  -28.1057  -36.2618   24.6309 H   0  0  0  0  0  0
  -27.2298  -37.1476   25.8875 H   0  0  0  0  0  0
  -20.9299  -29.8843   21.6982 H   0  0  0  0  0  0
  -26.0173  -38.2867   24.1407 H   0  0  0  0  0  0
  -27.0968  -20.6098   17.5653 H   0  0  0  0  0  0
  -26.5686  -24.6738   21.6180 H   0  0  0  0  0  0
  -26.6017  -23.4090   20.4088 H   0  0  0  0  0  0
  -27.1109  -23.0637   22.0607 H   0  0  0  0  0  0
  -28.6482  -25.7634   22.4611 H   0  0  0  0  0  0
  -30.2338  -25.2027   21.9438 H   0  0  0  0  0  0
  -29.2368  -24.2099   23.0050 H   0  0  0  0  0  0
  -27.9756  -17.4176   21.0790 H   0  0  0  0  0  0
  -29.0660  -18.2418   22.1210 H   0  0  0  0  0  0
  -30.2613  -23.2202   19.8240 H   0  0  0  0  0  0
  -30.0717  -22.6845   21.4409 H   0  0  0  0  0  0
  -30.1954  -17.0990   19.5355 H   0  0  0  0  0  0
  -31.0312  -17.3778   21.0292 H   0  0  0  0  0  0
  -27.8638  -24.9768   18.9511 H   0  0  0  0  0  0
  -29.5252  -25.2451   19.2399 H   0  0  0  0  0  0
  -28.9740  -15.3241   21.3024 H   0  0  0  0  0  0
  1 25  1  0  0  0
  1 30  2  0  0  0
  1 85  1  0  0  0
  2  3  1  0  0  0
  2 25  1  0  0  0
  2 89  1  0  0  0
  2 90  1  0  0  0
  3  4  1  0  0  0
  3 91  1  0  0  0
  3 92  1  0  0  0
  4  5  1  0  0  0
  4 93  1  0  0  0
  4 94  1  0  0  0
  5  6  1  0  0  0
  5 26  1  0  0  0
  5 95  1  0  0  0
  6 25  1  0  0  0
  6 96  1  0  0  0
  6 97  1  0  0  0
  7  8  2  0  0  0
  7 26  1  0  0  0
  7 29  1  0  0  0
  8  9  1  0  0  0
  8 22  1  0  0  0
  9 10  1  0  0  0
  9 27  2  0  0  0
 10 11  2  0  0  0
 10 15  1  0  0  0
 11 12  1  0  0  0
 11 98  1  0  0  0
 12 13  2  0  0  0
 12 99  1  0  0  0
 13 14  1  0  0  0
 13 31  1  0  0  0
 14 15  2  0  0  0
 14100  1  0  0  0
 15101  1  0  0  0
 16 17  2  0  0  0
 16 21  1  0  0  0
 16 31  1  0  0  0
 17 18  1  0  0  0
 17102  1  0  0  0
 18 19  2  0  0  0
 18103  1  0  0  0
 19 20  1  0  0  0
 19 24  1  0  0  0
 20 21  2  0  0  0
 20104  1  0  0  0
 21 23  1  0  0  0
 22 28  1  0  0  0
 22 32  2  0  0  0
 26 27  1  0  0  0
 28105  1  0  0  0
 28106  1  0  0  0
 29107  1  0  0  0
 29108  1  0  0  0
 33 34  1  0  0  0
 33 66  1  0  0  0
 33 70  2  0  0  0
 34 36  1  0  0  0
 34 59  1  0  0  0
 34109  1  0  0  0
 35 44  2  0  0  0
 35 45  1  0  0  0
 35 68  1  0  0  0
 36 56  1  0  0  0
 36110  1  0  0  0
 37 39  1  0  0  0
 37 47  1  0  0  0
 37 66  1  0  0  0
 37111  1  0  0  0
 38 43  2  0  0  0
 38 46  1  0  0  0
 38 47  1  0  0  0
 39 64  1  0  0  0
 39 67  2  0  0  0
 40 52  1  0  0  0
 40 53  2  0  0  0
 40 58  1  0  0  0
 41112  1  0  0  0
 41113  1  0  0  0
 41114  1  0  0  0
 41 48  1  0  0  0
 42 43  1  0  0  0
 42 66  1  0  0  0
 42115  1  0  0  0
 42116  1  0  0  0
 43 44  1  0  0  0
 44117  1  0  0  0
 45 46  2  0  0  0
 45118  1  0  0  0
 46119  1  0  0  0
 47120  1  0  0  0
 47121  1  0  0  0
 48 56  1  0  0  0
 48 65  1  0  0  0
 48122  1  0  0  0
 49 50  1  0  0  0
 49 53  1  0  0  0
 49 64  1  0  0  0
 49123  1  0  0  0
 50 51  1  0  0  0
 50124  1  0  0  0
 50125  1  0  0  0
 51 52  1  0  0  0
 51126  1  0  0  0
 51127  1  0  0  0
 52128  1  0  0  0
 52129  1  0  0  0
 53 54  1  0  0  0
 54 55  2  0  0  0
 54130  1  0  0  0
 55 57  1  0  0  0
 55131  1  0  0  0
 56 69  2  0  0  0
 57 58  2  0  0  0
 57132  1  0  0  0
 58133  1  0  0  0
 59 60  1  0  0  0
 59 61  1  0  0  0
 59 62  1  0  0  0
 60134  1  0  0  0
 60135  1  0  0  0
 60136  1  0  0  0
 61137  1  0  0  0
 61138  1  0  0  0
 61139  1  0  0  0
 62140  1  0  0  0
 62141  1  0  0  0
 62142  1  0  0  0
 63 65  1  0  0  0
 63143  1  0  0  0
 63144  1  0  0  0
 63145  1  0  0  0
 64146  1  0  0  0
 65147  1  0  0  0
 68 80  1  0  0  0
 71 72  2  0  0  0
 71 83  1  0  0  0
 71148  1  0  0  0
 72 73  1  0  0  0
 72 81  1  0  0  0
 73 77  1  0  0  0
 73 84  2  0  0  0
 74 78  1  0  0  0
 74 83  2  0  0  0
 74 84  1  0  0  0
 75149  1  0  0  0
 75150  1  0  0  0
 75151  1  0  0  0
 75 82  1  0  0  0
 76 82  1  0  0  0
 76152  1  0  0  0
 76153  1  0  0  0
 76154  1  0  0  0
 77 79  1  0  0  0
 77155  1  0  0  0
 77156  1  0  0  0
 78 82  1  0  0  0
 78157  1  0  0  0
 78158  1  0  0  0
 79 85  1  0  0  0
 79159  1  0  0  0
 79160  1  0  0  0
 80 82  1  0  0  0
 80161  1  0  0  0
 80162  1  0  0  0
 81 86  1  0  0  0
 81 87  1  0  0  0
 81 88  1  0  0  0
 85163  1  0  0  0
M  ISO  4   1 100  68 101  80 101  85 100
M  END
> <chiral flag>
0

> <version>
0

> <s_m_source_file>
/data/baiqing/PycharmProjects/Reinvent-master-3.2/result/LINK_invent/BTK/process_docking_weight1_custom_sum_contain_oxygen_bond_distance_aromatic_linkinvent_7_9_3/rearranged_h_0067.sdf

> <i_m_source_file_index>
5

> <r_mmod_Potential_Energy-OPLS-2005>
-334.319702148438

> <r_mmod_Stretch_Energy-OPLS-2005>
58.291015625

> <r_mmod_Bend_Energy-OPLS-2005>
138.826171875

> <r_mmod_Torsional_Energy-OPLS-2005>
199.139083862305

> <r_mmod_Improper_Torsional_Energy-OPLS-2005>
6.64662790298462

> <r_mmod_Van_der_Waal_Energy-OPLS-2005>
152.365478515625

> <r_mmod_Electrostatic_Energy-OPLS-2005>
-698.705688476562

> <r_mmod_Solvation_Energy-OPLS-2005>
-214.183547973633

> <b_mmod_Minimization_Converged-OPLS-2005>
0

> <r_mmod_RMS_Derivative-OPLS-2005>
2.30783987045288

$$$$
5
                    3D
 Structure written by MMmdl.
170178  0  0  1  0            999 V2000
  -30.7071  -14.5358   20.6354 C   0  0  0  0  0  0
  -30.4294  -12.3642   19.4537 C   0  0  0  0  0  0
  -29.5076  -12.5263   18.2270 C   0  0  0  0  0  0
  -28.0278  -12.3686   18.6292 C   0  0  0  0  0  0
  -27.6574  -13.2181   19.8716 C   0  0  2  0  0  0
  -28.6896  -13.0258   21.0011 C   0  0  0  0  0  0
  -25.2532  -13.8166   20.5658 C   0  0  0  0  0  0
  -24.1807  -13.0423   20.9185 C   0  0  0  0  0  0
  -24.6394  -11.6906   20.8741 C   0  0  0  0  0  0
  -23.9065  -10.4282   21.0407 C   0  0  0  0  0  0
  -24.3613   -9.4200   21.9189 C   0  0  0  0  0  0
  -23.6288   -8.2239   22.0754 C   0  0  0  0  0  0
  -22.4271   -8.0276   21.3540 C   0  0  0  0  0  0
  -21.9907   -9.0251   20.4646 C   0  0  0  0  0  0
  -22.7240  -10.2128   20.3055 C   0  0  0  0  0  0
  -21.6844   -6.0736   22.5273 C   0  0  0  0  0  0
  -21.4017   -6.5641   23.8212 C   0  0  0  0  0  0
  -21.3663   -5.6793   24.9172 C   0  0  0  0  0  0
  -21.6039   -4.3053   24.7222 C   0  0  0  0  0  0
  -21.8819   -3.8143   23.4338 C   0  0  0  0  0  0
  -21.9189   -4.6967   22.3398 C   0  0  0  0  0  0
  -22.7825  -13.5205   21.1852 C   0  0  0  0  0  0
  -22.1657   -4.2155   21.0973 F   0  0  0  0  0  0
  -21.5626   -3.4535   25.7729 F   0  0  0  0  0  0
  -30.0245  -13.3574   20.4708 N   0  0  0  0  0  0
  -26.2989  -12.9379   20.3325 N   0  0  0  0  0  0
  -25.9328  -11.6523   20.5754 N   0  0  0  0  0  0
  -22.0464  -12.8215   22.0427 N   0  0  0  0  0  0
  -25.4152  -15.1885   20.4031 N   0  0  0  0  0  0
  -31.7726  -14.7413   20.0431 O   0  0  0  0  0  0
  -21.6630   -6.8885   21.4240 O   0  0  0  0  0  0
  -22.3512  -14.5506   20.6704 O   0  0  0  0  0  0
  -24.6179  -31.8666   23.2068 C   0  0  0  0  0  0
  -25.9045  -32.4826   23.8377 C   0  0  1  0  0  0
  -27.2327  -27.4010   20.1103 C   0  0  0  0  0  0
  -25.5902  -33.8617   24.2317 N   0  0  0  0  0  0
  -23.4080  -30.4916   21.5469 C   0  0  2  0  0  0
  -24.8566  -28.9539   20.1089 C   0  0  0  0  0  0
  -22.7434  -29.4669   22.4948 C   0  0  0  0  0  0
  -18.0284  -28.1352   22.8489 C   0  0  0  0  0  0
  -24.1485  -36.7321   23.2640 C   0  0  0  0  0  0
  -25.9385  -30.8231   21.3638 C   0  0  0  0  0  0
  -26.0175  -29.4552   20.7111 C   0  0  0  0  0  0
  -27.2108  -28.6887   20.7028 C   0  0  0  0  0  0
  -26.0595  -26.9350   19.4782 C   0  0  0  0  0  0
  -24.8756  -27.6970   19.4818 C   0  0  0  0  0  0
  -23.6186  -29.8234   20.1623 C   0  0  0  0  0  0
  -25.4107  -36.3116   24.0332 C   0  0  1  0  0  0
  -20.5885  -28.3674   23.1283 C   0  0  2  0  0  0
  -20.6779  -26.9402   22.5397 C   0  0  0  0  0  0
  -19.5759  -26.6369   21.5193 C   0  0  0  0  0  0
  -18.1937  -26.7902   22.1607 C   0  0  0  0  0  0
  -19.1539  -28.8820   23.2890 C   0  0  0  0  0  0
  -18.9468  -30.1419   23.8912 C   0  0  0  0  0  0
  -17.6471  -30.6572   24.0545 C   0  0  0  0  0  0
  -25.9029  -34.9480   23.5121 C   0  0  0  0  0  0
  -16.5356  -29.9081   23.6299 C   0  0  0  0  0  0
  -16.7276  -28.6488   23.0338 C   0  0  0  0  0  0
  -26.4468  -31.6612   25.0709 C   0  0  0  0  0  0
  -25.3720  -31.3708   26.1448 C   0  0  0  0  0  0
  -27.0325  -30.3064   24.6090 C   0  0  0  0  0  0
  -27.6056  -32.4348   25.7459 C   0  0  0  0  0  0
  -27.5590  -37.1809   24.8467 C   0  0  0  0  0  0
  -21.4156  -29.3048   22.3689 N   0  0  0  0  0  0
  -26.4306  -37.3799   23.9402 N   0  0  0  0  0  0
  -24.6733  -31.0749   22.0988 N   0  0  0  0  0  0
  -23.4177  -28.8182   23.2992 O   0  0  0  0  0  0
  -28.3822  -26.6232   20.1380 O   0  0  0  0  0  0
  -26.5585  -34.8936   22.4680 O   0  0  0  0  0  0
  -23.5373  -32.1426   23.7451 O   0  0  0  0  0  0
  -29.1028  -20.3756   20.4946 C   0  0  0  0  0  0
  -29.9951  -22.3063   21.6146 C   0  0  0  0  0  0
  -29.2616  -21.7923   20.5324 C   0  0  0  0  0  0
  -29.6359  -19.5346   21.5112 C   0  0  0  0  0  0
  -30.3798  -20.1857   22.5383 C   0  0  0  0  0  0
  -27.8383  -17.7409   21.1506 C   0  0  0  0  0  0
  -29.1565  -22.2303   18.0630 C   0  0  0  0  0  0
  -27.1061  -22.5297   19.4528 C   0  0  0  0  0  0
  -30.0285  -15.3519   22.8078 C   0  0  0  0  0  0
  -28.9839  -24.2628   19.5045 C   0  0  0  0  0  0
  -30.2860  -16.9807   20.9574 C   0  0  0  0  0  0
  -28.2304  -25.2167   20.4854 C   0  0  0  0  0  0
  -29.2819  -18.0139   21.6019 C   0  0  1  0  0  0
  -28.6370  -22.7132   19.4392 C   0  0  0  0  0  0
  -30.9993  -19.4319   23.7325 C   0  0  0  0  0  0
  -30.5412  -21.5345   22.5701 N   0  0  0  0  0  0
  -30.1070  -15.5402   21.3503 N   0  0  0  0  0  0
  -30.0458  -19.0290   24.5770 F   0  0  0  0  0  0
  -31.6919  -18.3688   23.3258 F   0  0  0  0  0  0
  -31.8437  -20.2113   24.4147 F   0  0  0  0  0  0
  -31.4739  -12.4708   19.1577 H   0  0  0  0  0  0
  -30.3458  -11.3578   19.8678 H   0  0  0  0  0  0
  -29.7676  -11.7955   17.4607 H   0  0  0  0  0  0
  -29.6646  -13.5087   17.7786 H   0  0  0  0  0  0
  -27.8530  -11.3130   18.8398 H   0  0  0  0  0  0
  -27.3786  -12.6227   17.7903 H   0  0  0  0  0  0
  -27.6927  -14.2648   19.5661 H   0  0  0  0  0  0
  -28.6834  -11.9939   21.3549 H   0  0  0  0  0  0
  -28.3992  -13.6281   21.8579 H   0  0  0  0  0  0
  -25.2752   -9.5674   22.4778 H   0  0  0  0  0  0
  -23.9986   -7.4624   22.7477 H   0  0  0  0  0  0
  -21.0836   -8.8771   19.8952 H   0  0  0  0  0  0
  -22.3694  -10.9672   19.6164 H   0  0  0  0  0  0
  -21.2018   -7.6146   23.9721 H   0  0  0  0  0  0
  -21.1489   -6.0518   25.9080 H   0  0  0  0  0  0
  -22.0597   -2.7607   23.2831 H   0  0  0  0  0  0
  -22.4063  -11.9872   22.4829 H   0  0  0  0  0  0
  -21.1085  -13.1258   22.2624 H   0  0  0  0  0  0
  -24.6429  -15.8368   20.5120 H   0  0  0  0  0  0
  -26.2670  -15.6346   20.0875 H   0  0  0  0  0  0
  -26.7119  -32.5540   23.1152 H   0  0  0  0  0  0
  -25.0107  -33.9772   25.0502 H   0  0  0  0  0  0
  -22.6988  -31.3091   21.4064 H   0  0  0  0  0  0
  -23.3753  -35.9647   23.3320 H   0  0  0  0  0  0
  -24.3591  -36.8932   22.2056 H   0  0  0  0  0  0
  -23.7236  -37.6527   23.6652 H   0  0  0  0  0  0
  -26.0497  -31.5843   20.5907 H   0  0  0  0  0  0
  -26.8267  -30.8848   21.9809 H   0  0  0  0  0  0
  -28.1085  -29.0683   21.1716 H   0  0  0  0  0  0
  -26.0516  -25.9784   18.9759 H   0  0  0  0  0  0
  -23.9886  -27.3153   18.9938 H   0  0  0  0  0  0
  -23.7261  -30.5971   19.4014 H   0  0  0  0  0  0
  -22.7422  -29.2440   19.8678 H   0  0  0  0  0  0
  -25.1293  -36.1993   25.0829 H   0  0  0  0  0  0
  -20.9991  -28.3265   24.1405 H   0  0  0  0  0  0
  -20.5684  -26.2293   23.3602 H   0  0  0  0  0  0
  -21.6653  -26.7444   22.1189 H   0  0  0  0  0  0
  -19.6925  -25.6280   21.1234 H   0  0  0  0  0  0
  -19.6686  -27.3165   20.6704 H   0  0  0  0  0  0
  -17.4202  -26.6650   21.3999 H   0  0  0  0  0  0
  -18.0346  -26.0004   22.8971 H   0  0  0  0  0  0
  -19.7945  -30.7206   24.2326 H   0  0  0  0  0  0
  -17.5032  -31.6259   24.5139 H   0  0  0  0  0  0
  -15.5365  -30.2983   23.7623 H   0  0  0  0  0  0
  -15.8667  -28.0810   22.7052 H   0  0  0  0  0  0
  -24.5886  -30.7082   25.7755 H   0  0  0  0  0  0
  -24.8899  -32.2857   26.4905 H   0  0  0  0  0  0
  -25.8029  -30.8848   27.0207 H   0  0  0  0  0  0
  -26.2875  -29.6794   24.1170 H   0  0  0  0  0  0
  -27.4169  -29.7331   25.4537 H   0  0  0  0  0  0
  -27.8672  -30.4418   23.9199 H   0  0  0  0  0  0
  -27.2700  -33.3665   26.2027 H   0  0  0  0  0  0
  -28.3841  -32.6886   25.0250 H   0  0  0  0  0  0
  -28.0743  -31.8473   26.5371 H   0  0  0  0  0  0
  -28.2596  -38.0114   24.7539 H   0  0  0  0  0  0
  -28.1096  -36.2646   24.6273 H   0  0  0  0  0  0
  -27.2303  -37.1454   25.8868 H   0  0  0  0  0  0
  -20.9319  -29.8820   21.6945 H   0  0  0  0  0  0
  -26.0202  -38.2886   24.1400 H   0  0  0  0  0  0
  -28.5243  -19.9359   19.6981 H   0  0  0  0  0  0
  -30.1560  -23.3660   21.7386 H   0  0  0  0  0  0
  -27.1355  -18.4016   21.6606 H   0  0  0  0  0  0
  -27.5498  -16.7193   21.3881 H   0  0  0  0  0  0
  -27.7074  -17.8785   20.0776 H   0  0  0  0  0  0
  -28.9103  -21.1882   17.8624 H   0  0  0  0  0  0
  -30.2403  -22.3325   17.9919 H   0  0  0  0  0  0
  -28.7285  -22.8052   17.2402 H   0  0  0  0  0  0
  -26.8124  -21.5022   19.2405 H   0  0  0  0  0  0
  -26.6179  -23.1604   18.7078 H   0  0  0  0  0  0
  -26.6842  -22.7841   20.4239 H   0  0  0  0  0  0
  -29.0368  -15.6158   23.1769 H   0  0  0  0  0  0
  -30.7622  -15.9750   23.3198 H   0  0  0  0  0  0
  -30.2247  -14.3237   23.1217 H   0  0  0  0  0  0
  -30.0600  -24.4049   19.6111 H   0  0  0  0  0  0
  -28.7604  -24.6752   18.5195 H   0  0  0  0  0  0
  -31.3135  -17.2621   21.1883 H   0  0  0  0  0  0
  -30.2043  -17.0551   19.8712 H   0  0  0  0  0  0
  -28.6253  -25.0812   21.4911 H   0  0  0  0  0  0
  -27.1840  -24.9332   20.5705 H   0  0  0  0  0  0
  -29.2556  -17.8161   22.6690 H   0  0  0  0  0  0
  1 25  1  0  0  0
  1 30  2  0  0  0
  1 87  1  0  0  0
  2  3  1  0  0  0
  2 25  1  0  0  0
  2 91  1  0  0  0
  2 92  1  0  0  0
  3  4  1  0  0  0
  3 93  1  0  0  0
  3 94  1  0  0  0
  4  5  1  0  0  0
  4 95  1  0  0  0
  4 96  1  0  0  0
  5  6  1  0  0  0
  5 26  1  0  0  0
  5 97  1  0  0  0
  6 25  1  0  0  0
  6 98  1  0  0  0
  6 99  1  0  0  0
  7  8  2  0  0  0
  7 26  1  0  0  0
  7 29  1  0  0  0
  8  9  1  0  0  0
  8 22  1  0  0  0
  9 10  1  0  0  0
  9 27  2  0  0  0
 10 11  2  0  0  0
 10 15  1  0  0  0
 11 12  1  0  0  0
 11100  1  0  0  0
 12 13  2  0  0  0
 12101  1  0  0  0
 13 14  1  0  0  0
 13 31  1  0  0  0
 14 15  2  0  0  0
 14102  1  0  0  0
 15103  1  0  0  0
 16 17  2  0  0  0
 16 21  1  0  0  0
 16 31  1  0  0  0
 17 18  1  0  0  0
 17104  1  0  0  0
 18 19  2  0  0  0
 18105  1  0  0  0
 19 20  1  0  0  0
 19 24  1  0  0  0
 20 21  2  0  0  0
 20106  1  0  0  0
 21 23  1  0  0  0
 22 28  1  0  0  0
 22 32  2  0  0  0
 26 27  1  0  0  0
 28107  1  0  0  0
 28108  1  0  0  0
 29109  1  0  0  0
 29110  1  0  0  0
 33 34  1  0  0  0
 33 66  1  0  0  0
 33 70  2  0  0  0
 34 36  1  0  0  0
 34 59  1  0  0  0
 34111  1  0  0  0
 35 44  2  0  0  0
 35 45  1  0  0  0
 35 68  1  0  0  0
 36 56  1  0  0  0
 36112  1  0  0  0
 37 39  1  0  0  0
 37 47  1  0  0  0
 37 66  1  0  0  0
 37113  1  0  0  0
 38 43  2  0  0  0
 38 46  1  0  0  0
 38 47  1  0  0  0
 39 64  1  0  0  0
 39 67  2  0  0  0
 40 52  1  0  0  0
 40 53  2  0  0  0
 40 58  1  0  0  0
 41114  1  0  0  0
 41115  1  0  0  0
 41116  1  0  0  0
 41 48  1  0  0  0
 42 43  1  0  0  0
 42 66  1  0  0  0
 42117  1  0  0  0
 42118  1  0  0  0
 43 44  1  0  0  0
 44119  1  0  0  0
 45 46  2  0  0  0
 45120  1  0  0  0
 46121  1  0  0  0
 47122  1  0  0  0
 47123  1  0  0  0
 48 56  1  0  0  0
 48 65  1  0  0  0
 48124  1  0  0  0
 49 50  1  0  0  0
 49 53  1  0  0  0
 49 64  1  0  0  0
 49125  1  0  0  0
 50 51  1  0  0  0
 50126  1  0  0  0
 50127  1  0  0  0
 51 52  1  0  0  0
 51128  1  0  0  0
 51129  1  0  0  0
 52130  1  0  0  0
 52131  1  0  0  0
 53 54  1  0  0  0
 54 55  2  0  0  0
 54132  1  0  0  0
 55 57  1  0  0  0
 55133  1  0  0  0
 56 69  2  0  0  0
 57 58  2  0  0  0
 57134  1  0  0  0
 58135  1  0  0  0
 59 60  1  0  0  0
 59 61  1  0  0  0
 59 62  1  0  0  0
 60136  1  0  0  0
 60137  1  0  0  0
 60138  1  0  0  0
 61139  1  0  0  0
 61140  1  0  0  0
 61141  1  0  0  0
 62142  1  0  0  0
 62143  1  0  0  0
 62144  1  0  0  0
 63 65  1  0  0  0
 63145  1  0  0  0
 63146  1  0  0  0
 63147  1  0  0  0
 64148  1  0  0  0
 65149  1  0  0  0
 68 82  1  0  0  0
 71 73  2  0  0  0
 71 74  1  0  0  0
 71150  1  0  0  0
 72 73  1  0  0  0
 72 86  2  0  0  0
 72151  1  0  0  0
 73 84  1  0  0  0
 74 75  2  0  0  0
 74 83  1  0  0  0
 75 85  1  0  0  0
 75 86  1  0  0  0
 76152  1  0  0  0
 76153  1  0  0  0
 76154  1  0  0  0
 76 83  1  0  0  0
 77155  1  0  0  0
 77156  1  0  0  0
 77157  1  0  0  0
 77 84  1  0  0  0
 78 84  1  0  0  0
 78158  1  0  0  0
 78159  1  0  0  0
 78160  1  0  0  0
 79 87  1  0  0  0
 79161  1  0  0  0
 79162  1  0  0  0
 79163  1  0  0  0
 80 82  1  0  0  0
 80 84  1  0  0  0
 80164  1  0  0  0
 80165  1  0  0  0
 81 83  1  0  0  0
 81 87  1  0  0  0
 81166  1  0  0  0
 81167  1  0  0  0
 82168  1  0  0  0
 82169  1  0  0  0
 83170  1  0  0  0
 85 88  1  0  0  0
 85 89  1  0  0  0
 85 90  1  0  0  0
M  ISO  4   1 100  68 101  82 101  87 100
M  END
> <chiral flag>
0

> <version>
0

> <s_m_source_file>
/data/baiqing/PycharmProjects/Reinvent-master-3.2/result/LINK_invent/BTK/process_docking_weight1_custom_sum_contain_oxygen_bond_distance_aromatic_linkinvent_7_9_3/rearranged_h_0067.sdf

> <i_m_source_file_index>
6

> <r_mmod_Potential_Energy-OPLS-2005>
159.761871337891

> <r_mmod_Stretch_Energy-OPLS-2005>
65.2365264892578

> <r_mmod_Bend_Energy-OPLS-2005>
132.20735168457

> <r_mmod_Torsional_Energy-OPLS-2005>
304.772918701172

> <r_mmod_Improper_Torsional_Energy-OPLS-2005>
6.86259746551514

> <r_mmod_Van_der_Waal_Energy-OPLS-2005>
165.236343383789

> <r_mmod_Electrostatic_Energy-OPLS-2005>
-346.509338378906

> <r_mmod_Solvation_Energy-OPLS-2005>
-188.537246704102

> <b_mmod_Minimization_Converged-OPLS-2005>
0

> <r_mmod_RMS_Derivative-OPLS-2005>
2.88151335716248

$$$$
6
                    3D
 Structure written by MMmdl.
162171  0  0  1  0            999 V2000
  -30.1829  -14.4495   19.3766 C   0  0  0  0  0  0
  -30.7956  -12.2034   19.4764 C   0  0  0  0  0  0
  -29.7377  -11.7793   18.4836 C   0  0  0  0  0  0
  -28.4407  -11.7239   19.3169 C   0  0  0  0  0  0
  -28.1468  -12.9453   20.4734 C   0  0  2  0  0  0
  -29.3355  -13.1058   21.2642 C   0  0  0  0  0  0
  -25.9557  -14.0930   20.8663 C   0  0  0  0  0  0
  -24.1853  -13.4662   20.6536 C   0  0  0  0  0  0
  -24.0111  -12.2263   20.2786 C   0  0  0  0  0  0
  -23.6413  -10.7504   20.8163 C   0  0  0  0  0  0
  -24.2555   -9.7258   21.6582 C   0  0  0  0  0  0
  -23.6511   -8.4541   21.9394 C   0  0  0  0  0  0
  -22.4233   -8.1145   21.3276 C   0  0  0  0  0  0
  -21.8716   -9.0489   20.4440 C   0  0  0  0  0  0
  -22.4610  -10.3040   20.2059 C   0  0  0  0  0  0
  -21.7453   -6.1028   22.5243 C   0  0  0  0  0  0
  -21.4519   -6.5906   23.8157 C   0  0  0  0  0  0
  -21.3851   -5.7002   24.9082 C   0  0  0  0  0  0
  -21.6034   -4.3219   24.7145 C   0  0  0  0  0  0
  -21.8759   -3.8315   23.4265 C   0  0  0  0  0  0
  -21.9384   -4.7164   22.3358 C   0  0  0  0  0  0
  -22.6235  -13.8328   21.0599 C   0  0  0  0  0  0
  -22.1772   -4.2286   21.0946 F   0  0  0  0  0  0
  -21.5497   -3.4683   25.7645 F   0  0  0  0  0  0
  -30.2633  -13.3591   20.1694 N   0  0  0  0  0  0
  -26.8345  -13.5948   21.0329 N   0  0  0  0  0  0
  -24.9668  -13.3764   20.6235 N   0  0  0  0  0  0
  -21.9969  -13.0514   21.9650 N   0  0  0  0  0  0
  -26.8405  -15.2759   21.0876 N   0  0  0  0  0  0
  -31.2018  -15.1530   19.4789 O   0  0  0  0  0  0
  -21.7541   -6.9086   21.4107 O   0  0  0  0  0  0
  -22.0377  -14.7691   20.5441 O   0  0  0  0  0  0
  -24.6722  -31.8146   23.1689 C   0  0  0  0  0  0
  -25.9385  -32.4517   23.8126 C   0  0  1  0  0  0
  -26.7786  -26.6107   20.3006 C   0  0  0  0  0  0
  -25.6048  -33.8366   24.2012 N   0  0  0  0  0  0
  -23.4755  -30.4470   21.5251 C   0  0  2  0  0  0
  -24.8648  -28.8320   20.0735 C   0  0  0  0  0  0
  -22.7618  -29.4399   22.4678 C   0  0  0  0  0  0
  -18.0281  -28.1417   22.8428 C   0  0  0  0  0  0
  -24.1494  -36.7193   23.2636 C   0  0  0  0  0  0
  -26.0495  -30.5089   21.4518 C   0  0  0  0  0  0
  -26.0359  -29.0831   20.7940 C   0  0  0  0  0  0
  -27.0088  -27.9738   20.9063 C   0  0  0  0  0  0
  -25.7361  -26.6421   19.3778 C   0  0  0  0  0  0
  -24.7689  -27.6589   19.3229 C   0  0  0  0  0  0
  -23.7089  -29.8193   20.1269 C   0  0  0  0  0  0
  -25.4141  -36.2959   24.0281 C   0  0  1  0  0  0
  -20.5911  -28.3778   23.1144 C   0  0  2  0  0  0
  -20.6788  -26.9452   22.5395 C   0  0  0  0  0  0
  -19.5779  -26.6365   21.5200 C   0  0  0  0  0  0
  -18.1936  -26.7942   22.1590 C   0  0  0  0  0  0
  -19.1542  -28.8902   23.2786 C   0  0  0  0  0  0
  -18.9481  -30.1484   23.8829 C   0  0  0  0  0  0
  -17.6488  -30.6613   24.0539 C   0  0  0  0  0  0
  -25.9120  -34.9333   23.4962 C   0  0  0  0  0  0
  -16.5364  -29.9103   23.6362 C   0  0  0  0  0  0
  -16.7267  -28.6527   23.0361 C   0  0  0  0  0  0
  -26.4582  -31.6547   25.0737 C   0  0  0  0  0  0
  -25.3640  -31.3905   26.1352 C   0  0  0  0  0  0
  -27.0527  -30.2879   24.6687 C   0  0  0  0  0  0
  -27.6065  -32.4375   25.7542 C   0  0  0  0  0  0
  -27.5575  -37.1760   24.8453 C   0  0  0  0  0  0
  -21.4278  -29.3055   22.3460 N   0  0  0  0  0  0
  -26.4269  -37.3722   23.9412 N   0  0  0  0  0  0
  -24.7585  -30.9609   22.0979 N   0  0  0  0  0  0
  -23.4120  -28.7902   23.2902 O   0  0  0  0  0  0
  -27.2734  -25.1925   20.5543 O   0  0  0  0  0  0
  -26.5738  -34.8888   22.4564 O   0  0  0  0  0  0
  -23.5784  -32.1286   23.6672 O   0  0  0  0  0  0
  -25.1733  -15.0271   18.9985 C   0  0  0  0  0  0
  -24.7609  -14.4763   22.6979 C   0  0  0  0  0  0
  -24.5549  -15.8488   20.9026 C   0  0  0  0  0  0
  -26.1482  -13.1125   18.7741 C   0  0  0  0  0  0
  -25.5350  -12.3739   22.4877 C   0  0  0  0  0  0
  -26.5126  -20.5791   22.7665 C   0  0  0  0  0  0
  -25.5005  -19.3269   21.0965 C   0  0  0  0  0  0
  -26.2549  -21.9173   20.9074 C   0  0  0  0  0  0
  -26.8210  -20.5856   24.2519 C   0  0  0  0  0  0
  -24.5548  -17.7279   20.8197 C   0  0  0  0  0  0
  -27.5797  -13.7643   17.9305 C   0  0  0  0  0  0
  -26.4193  -23.6625   20.2521 C   0  0  0  0  0  0
  -25.8050  -11.5950   23.7724 C   0  0  0  0  0  0
  -26.1914  -11.5754   20.4853 N   0  0  0  0  0  0
  -26.0104  -19.4047   22.3279 N   0  0  0  0  0  0
  -26.6935  -21.7703   22.1587 N   0  0  0  0  0  0
  -25.6124  -20.6532   20.3861 N   0  0  0  0  0  0
  -29.0468  -14.5453   18.3986 N   0  0  0  0  0  0
  -24.7328  -10.9126   24.1727 F   0  0  0  0  0  0
  -26.8334  -10.7617   23.6191 F   0  0  0  0  0  0
  -26.1096  -12.4584   24.7408 F   0  0  0  0  0  0
  -31.7398  -12.4305   18.9763 H   0  0  0  0  0  0
  -31.0079  -11.4054   20.1865 H   0  0  0  0  0  0
  -29.9778  -10.7728   18.1382 H   0  0  0  0  0  0
  -29.7438  -12.3626   17.5657 H   0  0  0  0  0  0
  -28.5625  -10.8304   19.9334 H   0  0  0  0  0  0
  -27.6809  -11.3539   18.6321 H   0  0  0  0  0  0
  -28.1099  -13.8411   20.1015 H   0  0  0  0  0  0
  -29.5717  -12.2018   21.8264 H   0  0  0  0  0  0
  -29.3021  -13.9533   21.9525 H   0  0  0  0  0  0
  -25.2441   -9.8613   22.0537 H   0  0  0  0  0  0
  -24.1602   -7.7363   22.5670 H   0  0  0  0  0  0
  -20.9535   -8.7970   19.9322 H   0  0  0  0  0  0
  -21.9544  -10.9673   19.5207 H   0  0  0  0  0  0
  -21.2795   -7.6464   23.9683 H   0  0  0  0  0  0
  -21.1706   -6.0770   25.8968 H   0  0  0  0  0  0
  -22.0343   -2.7751   23.2704 H   0  0  0  0  0  0
  -22.4700  -12.2807   22.4070 H   0  0  0  0  0  0
  -21.0497  -13.2664   22.2410 H   0  0  0  0  0  0
  -26.4853  -16.2063   20.9306 H   0  0  0  0  0  0
  -27.8392  -15.2456   21.2257 H   0  0  0  0  0  0
  -26.7393  -32.4899   23.0755 H   0  0  0  0  0  0
  -25.0162  -33.9477   25.0137 H   0  0  0  0  0  0
  -22.7951  -31.2867   21.3807 H   0  0  0  0  0  0
  -23.3802  -35.9478   23.3239 H   0  0  0  0  0  0
  -24.3549  -36.8919   22.2059 H   0  0  0  0  0  0
  -23.7186  -37.6328   23.6743 H   0  0  0  0  0  0
  -26.2878  -31.2311   20.6697 H   0  0  0  0  0  0
  -26.8970  -30.5303   22.1217 H   0  0  0  0  0  0
  -27.8273  -28.1024   21.6004 H   0  0  0  0  0  0
  -25.5352  -25.7615   18.7853 H   0  0  0  0  0  0
  -23.8983  -27.5004   18.7027 H   0  0  0  0  0  0
  -23.9312  -30.6094   19.4096 H   0  0  0  0  0  0
  -22.7964  -29.3417   19.7690 H   0  0  0  0  0  0
  -25.1335  -36.1757   25.0773 H   0  0  0  0  0  0
  -20.9987  -28.3432   24.1275 H   0  0  0  0  0  0
  -20.5689  -26.2392   23.3639 H   0  0  0  0  0  0
  -21.6646  -26.7448   22.1181 H   0  0  0  0  0  0
  -19.6979  -25.6248   21.1295 H   0  0  0  0  0  0
  -19.6756  -27.3104   20.6671 H   0  0  0  0  0  0
  -17.4216  -26.6615   21.3993 H   0  0  0  0  0  0
  -18.0374  -26.0102   22.9013 H   0  0  0  0  0  0
  -19.7961  -30.7297   24.2175 H   0  0  0  0  0  0
  -17.5055  -31.6290   24.5155 H   0  0  0  0  0  0
  -15.5368  -30.3006   23.7755 H   0  0  0  0  0  0
  -15.8642  -28.0846   22.7152 H   0  0  0  0  0  0
  -24.5839  -30.7242   25.7660 H   0  0  0  0  0  0
  -24.8815  -32.3154   26.4521 H   0  0  0  0  0  0
  -25.7787  -30.9227   27.0287 H   0  0  0  0  0  0
  -26.3263  -29.6449   24.1715 H   0  0  0  0  0  0
  -27.3956  -29.7400   25.5471 H   0  0  0  0  0  0
  -27.9242  -30.4004   24.0234 H   0  0  0  0  0  0
  -27.2654  -33.3756   26.1936 H   0  0  0  0  0  0
  -28.3974  -32.6786   25.0426 H   0  0  0  0  0  0
  -28.0616  -31.8609   26.5609 H   0  0  0  0  0  0
  -28.2547  -38.0109   24.7562 H   0  0  0  0  0  0
  -28.1132  -36.2635   24.6210 H   0  0  0  0  0  0
  -27.2303  -37.1309   25.8862 H   0  0  0  0  0  0
  -20.9491  -29.8827   21.6677 H   0  0  0  0  0  0
  -26.0116  -38.2780   24.1449 H   0  0  0  0  0  0
  -25.2969  -15.7447   18.1998 H   0  0  0  0  0  0
  -24.5671  -14.8620   23.6857 H   0  0  0  0  0  0
  -26.9932  -19.5769   24.6232 H   0  0  0  0  0  0
  -25.9851  -21.0022   24.8155 H   0  0  0  0  0  0
  -27.7025  -21.1823   24.4794 H   0  0  0  0  0  0
  -23.6406  -17.9485   21.3696 H   0  0  0  0  0  0
  -24.2564  -17.8627   19.7799 H   0  0  0  0  0  0
  -27.1253  -14.5514   17.3312 H   0  0  0  0  0  0
  -27.7977  -13.0555   17.1339 H   0  0  0  0  0  0
  -25.3734  -23.9632   20.1884 H   0  0  0  0  0  0
  -26.6888  -23.4729   19.2157 H   0  0  0  0  0  0
  -29.1628  -15.3832   17.8471 H   0  0  0  0  0  0
  1 25  1  0  0  0
  1 30  2  0  0  0
  1 88  1  0  0  0
  2  3  1  0  0  0
  2 25  1  0  0  0
  2 92  1  0  0  0
  2 93  1  0  0  0
  3  4  1  0  0  0
  3 94  1  0  0  0
  3 95  1  0  0  0
  4  5  1  0  0  0
  4 96  1  0  0  0
  4 97  1  0  0  0
  5  6  1  0  0  0
  5 26  1  0  0  0
  5 98  1  0  0  0
  6 25  1  0  0  0
  6 99  1  0  0  0
  6100  1  0  0  0
  7  8  2  0  0  0
  7 26  1  0  0  0
  7 29  1  0  0  0
  8  9  1  0  0  0
  8 22  1  0  0  0
  9 10  1  0  0  0
  9 27  2  0  0  0
 10 11  2  0  0  0
 10 15  1  0  0  0
 11 12  1  0  0  0
 11101  1  0  0  0
 12 13  2  0  0  0
 12102  1  0  0  0
 13 14  1  0  0  0
 13 31  1  0  0  0
 14 15  2  0  0  0
 14103  1  0  0  0
 15104  1  0  0  0
 16 17  2  0  0  0
 16 21  1  0  0  0
 16 31  1  0  0  0
 17 18  1  0  0  0
 17105  1  0  0  0
 18 19  2  0  0  0
 18106  1  0  0  0
 19 20  1  0  0  0
 19 24  1  0  0  0
 20 21  2  0  0  0
 20107  1  0  0  0
 21 23  1  0  0  0
 22 28  1  0  0  0
 22 32  2  0  0  0
 26 27  1  0  0  0
 28108  1  0  0  0
 28109  1  0  0  0
 29110  1  0  0  0
 29111  1  0  0  0
 33 34  1  0  0  0
 33 66  1  0  0  0
 33 70  2  0  0  0
 34 36  1  0  0  0
 34 59  1  0  0  0
 34112  1  0  0  0
 35 44  2  0  0  0
 35 45  1  0  0  0
 35 68  1  0  0  0
 36 56  1  0  0  0
 36113  1  0  0  0
 37 39  1  0  0  0
 37 47  1  0  0  0
 37 66  1  0  0  0
 37114  1  0  0  0
 38 43  2  0  0  0
 38 46  1  0  0  0
 38 47  1  0  0  0
 39 64  1  0  0  0
 39 67  2  0  0  0
 40 52  1  0  0  0
 40 53  2  0  0  0
 40 58  1  0  0  0
 41115  1  0  0  0
 41116  1  0  0  0
 41117  1  0  0  0
 41 48  1  0  0  0
 42 43  1  0  0  0
 42 66  1  0  0  0
 42118  1  0  0  0
 42119  1  0  0  0
 43 44  1  0  0  0
 44120  1  0  0  0
 45 46  2  0  0  0
 45121  1  0  0  0
 46122  1  0  0  0
 47123  1  0  0  0
 47124  1  0  0  0
 48 56  1  0  0  0
 48 65  1  0  0  0
 48125  1  0  0  0
 49 50  1  0  0  0
 49 53  1  0  0  0
 49 64  1  0  0  0
 49126  1  0  0  0
 50 51  1  0  0  0
 50127  1  0  0  0
 50128  1  0  0  0
 51 52  1  0  0  0
 51129  1  0  0  0
 51130  1  0  0  0
 52131  1  0  0  0
 52132  1  0  0  0
 53 54  1  0  0  0
 54 55  2  0  0  0
 54133  1  0  0  0
 55 57  1  0  0  0
 55134  1  0  0  0
 56 69  2  0  0  0
 57 58  2  0  0  0
 57135  1  0  0  0
 58136  1  0  0  0
 59 60  1  0  0  0
 59 61  1  0  0  0
 59 62  1  0  0  0
 60137  1  0  0  0
 60138  1  0  0  0
 60139  1  0  0  0
 61140  1  0  0  0
 61141  1  0  0  0
 61142  1  0  0  0
 62143  1  0  0  0
 62144  1  0  0  0
 62145  1  0  0  0
 63 65  1  0  0  0
 63146  1  0  0  0
 63147  1  0  0  0
 63148  1  0  0  0
 64149  1  0  0  0
 65150  1  0  0  0
 68 82  1  0  0  0
 71 73  2  0  0  0
 71 74  1  0  0  0
 71151  1  0  0  0
 72 73  1  0  0  0
 72 75  2  0  0  0
 72152  1  0  0  0
 73 80  1  0  0  0
 74 81  1  0  0  0
 74 84  2  0  0  0
 75 83  1  0  0  0
 75 84  1  0  0  0
 76 79  1  0  0  0
 76 85  2  0  0  0
 76 86  1  0  0  0
 77 80  1  0  0  0
 77 85  1  0  0  0
 77 87  2  0  0  0
 78 82  1  0  0  0
 78 86  2  0  0  0
 78 87  1  0  0  0
 79153  1  0  0  0
 79154  1  0  0  0
 79155  1  0  0  0
 80156  1  0  0  0
 80157  1  0  0  0
 81 88  1  0  0  0
 81158  1  0  0  0
 81159  1  0  0  0
 82160  1  0  0  0
 82161  1  0  0  0
 83 89  1  0  0  0
 83 90  1  0  0  0
 83 91  1  0  0  0
 88162  1  0  0  0
M  ISO  4   1 100  68 101  82 101  88 100
M  END
> <chiral flag>
0

> <version>
0

> <s_m_source_file>
/data/baiqing/PycharmProjects/Reinvent-master-3.2/result/LINK_invent/BTK/process_docking_weight1_custom_sum_contain_oxygen_bond_distance_aromatic_linkinvent_7_9_3/rearranged_h_0067.sdf

> <i_m_source_file_index>
7

> <r_mmod_Potential_Energy-OPLS-2005>
20743.826171875

> <r_mmod_Stretch_Energy-OPLS-2005>
11699.8056640625

> <r_mmod_Bend_Energy-OPLS-2005>
2522.91137695312

> <r_mmod_Torsional_Energy-OPLS-2005>
590.984191894531

> <r_mmod_Improper_Torsional_Energy-OPLS-2005>
87.8573913574219

> <r_mmod_Van_der_Waal_Energy-OPLS-2005>
4702.158203125

> <r_mmod_Electrostatic_Energy-OPLS-2005>
-905.983520507812

> <r_mmod_Solvation_Energy-OPLS-2005>
-279.363250732422

> <b_mmod_Minimization_Converged-OPLS-2005>
0

> <r_mmod_RMS_Derivative-OPLS-2005>
7.8106951713562

$$$$
7
                    3D
 Structure written by MMmdl.
184192  0  0  1  0            999 V2000
  -30.6545  -14.9714   20.4597 C   0  0  0  0  0  0
  -30.3904  -12.6213   19.5439 C   0  0  0  0  0  0
  -29.5171  -12.5647   18.2792 C   0  0  0  0  0  0
  -28.0615  -12.3184   18.7000 C   0  0  0  0  0  0
  -27.6220  -13.2689   19.8459 C   0  0  2  0  0  0
  -28.6444  -13.3637   20.9973 C   0  0  0  0  0  0
  -25.2497  -13.8237   20.5901 C   0  0  0  0  0  0
  -24.1761  -13.0537   20.9276 C   0  0  0  0  0  0
  -24.6355  -11.6995   20.8783 C   0  0  0  0  0  0
  -23.9055  -10.4366   21.0399 C   0  0  0  0  0  0
  -24.3603   -9.4282   21.9187 C   0  0  0  0  0  0
  -23.6231   -8.2367   22.0805 C   0  0  0  0  0  0
  -22.4186   -8.0426   21.3619 C   0  0  0  0  0  0
  -21.9884   -9.0405   20.4684 C   0  0  0  0  0  0
  -22.7272  -10.2204   20.3014 C   0  0  0  0  0  0
  -21.6875   -6.0790   22.5314 C   0  0  0  0  0  0
  -21.4109   -6.5701   23.8274 C   0  0  0  0  0  0
  -21.3554   -5.6816   24.9193 C   0  0  0  0  0  0
  -21.5977   -4.3100   24.7226 C   0  0  0  0  0  0
  -21.8832   -3.8219   23.4369 C   0  0  0  0  0  0
  -21.9202   -4.7013   22.3412 C   0  0  0  0  0  0
  -22.7789  -13.5348   21.1869 C   0  0  0  0  0  0
  -22.1656   -4.2236   21.0981 F   0  0  0  0  0  0
  -21.5486   -3.4556   25.7700 F   0  0  0  0  0  0
  -29.9182  -13.7724   20.3989 N   0  0  0  0  0  0
  -26.2867  -12.9522   20.3284 N   0  0  0  0  0  0
  -25.9292  -11.6623   20.5740 N   0  0  0  0  0  0
  -22.0316  -12.8351   22.0264 N   0  0  0  0  0  0
  -25.4559  -15.1907   20.4593 N   0  0  0  0  0  0
  -31.8239  -14.8135   20.0853 O   0  0  0  0  0  0
  -21.6620   -6.8976   21.4298 O   0  0  0  0  0  0
  -22.3596  -14.5739   20.6780 O   0  0  0  0  0  0
  -24.6379  -31.8387   23.1806 C   0  0  0  0  0  0
  -25.9155  -32.4652   23.8214 C   0  0  1  0  0  0
  -27.2460  -27.1694   20.1250 C   0  0  0  0  0  0
  -25.5922  -33.8460   24.2160 N   0  0  0  0  0  0
  -23.4406  -30.4504   21.5203 C   0  0  2  0  0  0
  -24.8977  -28.8718   20.0813 C   0  0  0  0  0  0
  -22.7507  -29.4525   22.4828 C   0  0  0  0  0  0
  -18.0252  -28.1487   22.8549 C   0  0  0  0  0  0
  -24.1491  -36.7268   23.2627 C   0  0  0  0  0  0
  -25.9832  -30.7204   21.3669 C   0  0  0  0  0  0
  -26.0534  -29.3265   20.7223 C   0  0  0  0  0  0
  -27.2143  -28.4750   20.7414 C   0  0  0  0  0  0
  -26.0853  -26.8133   19.4079 C   0  0  0  0  0  0
  -24.9269  -27.6337   19.4068 C   0  0  0  0  0  0
  -23.6665  -29.7612   20.1402 C   0  0  0  0  0  0
  -25.4108  -36.3044   24.0330 C   0  0  1  0  0  0
  -20.5902  -28.3674   23.1145 C   0  0  2  0  0  0
  -20.6764  -26.9480   22.5037 C   0  0  0  0  0  0
  -19.5444  -26.6405   21.5152 C   0  0  0  0  0  0
  -18.1864  -26.7865   22.2052 C   0  0  0  0  0  0
  -19.1595  -28.8861   23.2908 C   0  0  0  0  0  0
  -18.9643  -30.1376   23.9102 C   0  0  0  0  0  0
  -17.6703  -30.6650   24.0793 C   0  0  0  0  0  0
  -25.9037  -34.9401   23.5064 C   0  0  0  0  0  0
  -16.5517  -29.9302   23.6484 C   0  0  0  0  0  0
  -16.7266  -28.6704   23.0491 C   0  0  0  0  0  0
  -26.4571  -31.6504   25.0647 C   0  0  0  0  0  0
  -25.3772  -31.3571   26.1345 C   0  0  0  0  0  0
  -27.0365  -30.2932   24.6040 C   0  0  0  0  0  0
  -27.6170  -32.4206   25.7404 C   0  0  0  0  0  0
  -27.5579  -37.1804   24.8477 C   0  0  0  0  0  0
  -21.4205  -29.3102   22.3607 N   0  0  0  0  0  0
  -26.4300  -37.3742   23.9405 N   0  0  0  0  0  0
  -24.7060  -31.0336   22.0735 N   0  0  0  0  0  0
  -23.4181  -28.8111   23.2952 O   0  0  0  0  0  0
  -28.3459  -26.2788   20.3464 O   0  0  0  0  0  0
  -26.5669  -34.8872   22.4669 O   0  0  0  0  0  0
  -23.5521  -32.1297   23.7004 O   0  0  0  0  0  0
  -29.6809  -21.0428   19.7387 C   0  0  0  0  0  0
  -28.6395  -21.8924   20.2673 C   0  0  0  0  0  0
  -27.8468  -21.0649   21.1191 C   0  0  0  0  0  0
  -29.0574  -18.9785   20.8376 C   0  0  0  0  0  0
  -25.3778  -21.1910   20.7280 C   0  0  0  0  0  0
  -31.2540  -23.8729   20.4933 C   0  0  0  0  0  0
  -30.2868  -24.8339   17.4953 C   0  0  0  0  0  0
  -26.2522  -17.7608   22.6096 C   0  0  0  0  0  0
  -26.9993  -15.9996   24.1956 C   0  0  0  0  0  0
  -27.7329  -18.3563   24.5258 C   0  0  0  0  0  0
  -31.5023  -17.0976   21.2395 C   0  0  0  0  0  0
  -28.1710  -23.4141   19.7499 C   0  0  0  0  0  0
  -26.5251  -21.5580   21.6837 C   0  0  0  0  0  0
  -30.1833  -24.9797   20.6186 C   0  0  0  0  0  0
  -29.1103  -25.4434   18.2753 C   0  0  0  0  0  0
  -28.7700  -16.9540   22.6470 C   0  0  0  0  0  0
  -29.0714  -17.3042   21.1269 C   0  0  2  0  0  0
  -27.4519  -17.2811   23.4510 C   0  0  0  0  0  0
  -28.8780  -24.9532   19.7502 C   0  0  0  0  0  0
  -29.8688  -19.6731   19.9991 N   0  0  0  0  0  0
  -28.0766  -19.7260   21.3732 N   0  0  0  0  0  0
  -30.2910  -16.3362   20.8383 N   0  0  0  0  0  0
  -31.4356  -12.6914   19.2443 H   0  0  0  0  0  0
  -30.3264  -11.6848   20.0985 H   0  0  0  0  0  0
  -29.8639  -11.7844   17.6004 H   0  0  0  0  0  0
  -29.6052  -13.5122   17.7408 H   0  0  0  0  0  0
  -27.9990  -11.2826   19.0404 H   0  0  0  0  0  0
  -27.3980  -12.4082   17.8421 H   0  0  0  0  0  0
  -27.5717  -14.2579   19.3886 H   0  0  0  0  0  0
  -28.7389  -12.4105   21.5268 H   0  0  0  0  0  0
  -28.3111  -14.0848   21.7402 H   0  0  0  0  0  0
  -25.2766   -9.5734   22.4726 H   0  0  0  0  0  0
  -23.9918   -7.4755   22.7545 H   0  0  0  0  0  0
  -21.0824   -8.9007   19.8962 H   0  0  0  0  0  0
  -22.3923  -10.9749   19.6070 H   0  0  0  0  0  0
  -21.2302   -7.6253   23.9833 H   0  0  0  0  0  0
  -21.1216   -6.0524   25.9066 H   0  0  0  0  0  0
  -22.0668   -2.7675   23.2890 H   0  0  0  0  0  0
  -22.3819  -11.9860   22.4431 H   0  0  0  0  0  0
  -21.1096  -13.1704   22.2711 H   0  0  0  0  0  0
  -24.7566  -15.8845   20.6934 H   0  0  0  0  0  0
  -26.3831  -15.5662   20.3215 H   0  0  0  0  0  0
  -26.7185  -32.5261   23.0891 H   0  0  0  0  0  0
  -25.0105  -33.9528   25.0327 H   0  0  0  0  0  0
  -22.7400  -31.2763   21.3603 H   0  0  0  0  0  0
  -23.3757  -35.9608   23.3244 H   0  0  0  0  0  0
  -24.3616  -36.8910   22.2066 H   0  0  0  0  0  0
  -23.7228  -37.6418   23.6700 H   0  0  0  0  0  0
  -26.1315  -31.4550   20.5739 H   0  0  0  0  0  0
  -26.8536  -30.7708   22.0032 H   0  0  0  0  0  0
  -28.0881  -28.7897   21.2923 H   0  0  0  0  0  0
  -26.0584  -25.8692   18.8828 H   0  0  0  0  0  0
  -24.0577  -27.3041   18.8553 H   0  0  0  0  0  0
  -23.7792  -30.5277   19.3714 H   0  0  0  0  0  0
  -22.7805  -29.1908   19.8534 H   0  0  0  0  0  0
  -25.1292  -36.1883   25.0848 H   0  0  0  0  0  0
  -21.0084  -28.3101   24.1215 H   0  0  0  0  0  0
  -20.5991  -26.2192   23.3133 H   0  0  0  0  0  0
  -21.6482  -26.7621   22.0472 H   0  0  0  0  0  0
  -19.6535  -25.6229   21.1377 H   0  0  0  0  0  0
  -19.6020  -27.3055   20.6509 H   0  0  0  0  0  0
  -17.3744  -26.5954   21.5043 H   0  0  0  0  0  0
  -18.0948  -26.0406   22.9966 H   0  0  0  0  0  0
  -19.8232  -30.6916   24.2716 H   0  0  0  0  0  0
  -17.5342  -31.6257   24.5603 H   0  0  0  0  0  0
  -15.5574  -30.3297   23.7916 H   0  0  0  0  0  0
  -15.8526  -28.1134   22.7397 H   0  0  0  0  0  0
  -24.6142  -30.6688   25.7687 H   0  0  0  0  0  0
  -24.8723  -32.2618   26.4757 H   0  0  0  0  0  0
  -25.8183  -30.8873   27.0116 H   0  0  0  0  0  0
  -26.2841  -29.6699   24.1189 H   0  0  0  0  0  0
  -27.4163  -29.7252   25.4516 H   0  0  0  0  0  0
  -27.8718  -30.4140   23.9132 H   0  0  0  0  0  0
  -27.2899  -33.3582   26.1876 H   0  0  0  0  0  0
  -28.4098  -32.6539   25.0296 H   0  0  0  0  0  0
  -28.0690  -31.8298   26.5356 H   0  0  0  0  0  0
  -28.2624  -38.0086   24.7594 H   0  0  0  0  0  0
  -28.1056  -36.2638   24.6249 H   0  0  0  0  0  0
  -27.2350  -37.1417   25.8892 H   0  0  0  0  0  0
  -20.9425  -29.8695   21.6644 H   0  0  0  0  0  0
  -26.0194  -38.2830   24.1331 H   0  0  0  0  0  0
  -30.3812  -21.4755   19.0393 H   0  0  0  0  0  0
  -25.3787  -20.1125   20.5429 H   0  0  0  0  0  0
  -25.4954  -21.6873   19.7678 H   0  0  0  0  0  0
  -24.4071  -21.4841   21.1326 H   0  0  0  0  0  0
  -32.1615  -24.1600   21.0291 H   0  0  0  0  0  0
  -31.5635  -23.6601   19.4738 H   0  0  0  0  0  0
  -30.9219  -22.9566   20.9689 H   0  0  0  0  0  0
  -30.3264  -25.2263   16.4776 H   0  0  0  0  0  0
  -30.2219  -23.7414   17.4588 H   0  0  0  0  0  0
  -31.2371  -25.1080   17.9505 H   0  0  0  0  0  0
  -26.0963  -18.8411   22.6992 H   0  0  0  0  0  0
  -25.3114  -17.3160   22.9320 H   0  0  0  0  0  0
  -26.3741  -17.5333   21.5583 H   0  0  0  0  0  0
  -26.1634  -16.1841   24.8705 H   0  0  0  0  0  0
  -27.7951  -15.5583   24.7965 H   0  0  0  0  0  0
  -26.6634  -15.2346   23.4936 H   0  0  0  0  0  0
  -26.9057  -18.4432   25.2296 H   0  0  0  0  0  0
  -27.8565  -19.3396   24.0770 H   0  0  0  0  0  0
  -28.6286  -18.1532   25.1191 H   0  0  0  0  0  0
  -32.1862  -17.2592   20.4059 H   0  0  0  0  0  0
  -32.0333  -16.5565   22.0311 H   0  0  0  0  0  0
  -31.2990  -18.0822   21.6608 H   0  0  0  0  0  0
  -27.1573  -23.5904   20.0897 H   0  0  0  0  0  0
  -27.9957  -23.2144   18.6925 H   0  0  0  0  0  0
  -26.5697  -22.6252   21.8820 H   0  0  0  0  0  0
  -26.3510  -21.1047   22.6562 H   0  0  0  0  0  0
  -30.6948  -25.9338   20.4624 H   0  0  0  0  0  0
  -29.8766  -24.9880   21.6700 H   0  0  0  0  0  0
  -28.2064  -25.2784   17.6892 H   0  0  0  0  0  0
  -29.2467  -26.5283   18.2519 H   0  0  0  0  0  0
  -29.6179  -17.3064   23.2367 H   0  0  0  0  0  0
  -28.8714  -15.8745   22.7114 H   0  0  0  0  0  0
  -28.2435  -16.9064   20.5332 H   0  0  0  0  0  0
  1 25  1  0  0  0
  1 30  2  0  0  0
  1 92  1  0  0  0
  2  3  1  0  0  0
  2 25  1  0  0  0
  2 93  1  0  0  0
  2 94  1  0  0  0
  3  4  1  0  0  0
  3 95  1  0  0  0
  3 96  1  0  0  0
  4  5  1  0  0  0
  4 97  1  0  0  0
  4 98  1  0  0  0
  5  6  1  0  0  0
  5 26  1  0  0  0
  5 99  1  0  0  0
  6 25  1  0  0  0
  6100  1  0  0  0
  6101  1  0  0  0
  7  8  2  0  0  0
  7 26  1  0  0  0
  7 29  1  0  0  0
  8  9  1  0  0  0
  8 22  1  0  0  0
  9 10  1  0  0  0
  9 27  2  0  0  0
 10 11  2  0  0  0
 10 15  1  0  0  0
 11 12  1  0  0  0
 11102  1  0  0  0
 12 13  2  0  0  0
 12103  1  0  0  0
 13 14  1  0  0  0
 13 31  1  0  0  0
 14 15  2  0  0  0
 14104  1  0  0  0
 15105  1  0  0  0
 16 17  2  0  0  0
 16 21  1  0  0  0
 16 31  1  0  0  0
 17 18  1  0  0  0
 17106  1  0  0  0
 18 19  2  0  0  0
 18107  1  0  0  0
 19 20  1  0  0  0
 19 24  1  0  0  0
 20 21  2  0  0  0
 20108  1  0  0  0
 21 23  1  0  0  0
 22 28  1  0  0  0
 22 32  2  0  0  0
 26 27  1  0  0  0
 28109  1  0  0  0
 28110  1  0  0  0
 29111  1  0  0  0
 29112  1  0  0  0
 33 34  1  0  0  0
 33 66  1  0  0  0
 33 70  2  0  0  0
 34 36  1  0  0  0
 34 59  1  0  0  0
 34113  1  0  0  0
 35 44  2  0  0  0
 35 45  1  0  0  0
 35 68  1  0  0  0
 36 56  1  0  0  0
 36114  1  0  0  0
 37 39  1  0  0  0
 37 47  1  0  0  0
 37 66  1  0  0  0
 37115  1  0  0  0
 38 43  2  0  0  0
 38 46  1  0  0  0
 38 47  1  0  0  0
 39 64  1  0  0  0
 39 67  2  0  0  0
 40 52  1  0  0  0
 40 53  2  0  0  0
 40 58  1  0  0  0
 41116  1  0  0  0
 41117  1  0  0  0
 41118  1  0  0  0
 41 48  1  0  0  0
 42 43  1  0  0  0
 42 66  1  0  0  0
 42119  1  0  0  0
 42120  1  0  0  0
 43 44  1  0  0  0
 44121  1  0  0  0
 45 46  2  0  0  0
 45122  1  0  0  0
 46123  1  0  0  0
 47124  1  0  0  0
 47125  1  0  0  0
 48 56  1  0  0  0
 48 65  1  0  0  0
 48126  1  0  0  0
 49 50  1  0  0  0
 49 53  1  0  0  0
 49 64  1  0  0  0
 49127  1  0  0  0
 50 51  1  0  0  0
 50128  1  0  0  0
 50129  1  0  0  0
 51 52  1  0  0  0
 51130  1  0  0  0
 51131  1  0  0  0
 52132  1  0  0  0
 52133  1  0  0  0
 53 54  1  0  0  0
 54 55  2  0  0  0
 54134  1  0  0  0
 55 57  1  0  0  0
 55135  1  0  0  0
 56 69  2  0  0  0
 57 58  2  0  0  0
 57136  1  0  0  0
 58137  1  0  0  0
 59 60  1  0  0  0
 59 61  1  0  0  0
 59 62  1  0  0  0
 60138  1  0  0  0
 60139  1  0  0  0
 60140  1  0  0  0
 61141  1  0  0  0
 61142  1  0  0  0
 61143  1  0  0  0
 62144  1  0  0  0
 62145  1  0  0  0
 62146  1  0  0  0
 63 65  1  0  0  0
 63147  1  0  0  0
 63148  1  0  0  0
 63149  1  0  0  0
 64150  1  0  0  0
 65151  1  0  0  0
 68 89  1  0  0  0
 71 72  2  0  0  0
 71 90  1  0  0  0
 71152  1  0  0  0
 72 73  1  0  0  0
 72 82  1  0  0  0
 73 83  1  0  0  0
 73 91  2  0  0  0
 74 87  1  0  0  0
 74 90  2  0  0  0
 74 91  1  0  0  0
 75 83  1  0  0  0
 75153  1  0  0  0
 75154  1  0  0  0
 75155  1  0  0  0
 76 84  1  0  0  0
 76156  1  0  0  0
 76157  1  0  0  0
 76158  1  0  0  0
 77 85  1  0  0  0
 77159  1  0  0  0
 77160  1  0  0  0
 77161  1  0  0  0
 78162  1  0  0  0
 78163  1  0  0  0
 78164  1  0  0  0
 78 88  1  0  0  0
 79 88  1  0  0  0
 79165  1  0  0  0
 79166  1  0  0  0
 79167  1  0  0  0
 80 88  1  0  0  0
 80168  1  0  0  0
 80169  1  0  0  0
 80170  1  0  0  0
 81 92  1  0  0  0
 81171  1  0  0  0
 81172  1  0  0  0
 81173  1  0  0  0
 82174  1  0  0  0
 82175  1  0  0  0
 82 89  1  0  0  0
 83176  1  0  0  0
 83177  1  0  0  0
 84 89  1  0  0  0
 84178  1  0  0  0
 84179  1  0  0  0
 85 89  1  0  0  0
 85180  1  0  0  0
 85181  1  0  0  0
 86 88  1  0  0  0
 86182  1  0  0  0
 86183  1  0  0  0
 86 87  1  0  0  0
 87 92  1  0  0  0
 87184  1  0  0  0
M  ISO  4   1 100  68 101  89 101  92 100
M  END
> <chiral flag>
0

> <version>
0

> <s_m_source_file>
/data/baiqing/PycharmProjects/Reinvent-master-3.2/result/LINK_invent/BTK/process_docking_weight1_custom_sum_contain_oxygen_bond_distance_aromatic_linkinvent_7_9_3/rearranged_h_0067.sdf

> <i_m_source_file_index>
8

> <r_mmod_Potential_Energy-OPLS-2005>
467.1572265625

> <r_mmod_Stretch_Energy-OPLS-2005>
297.320129394531

> <r_mmod_Bend_Energy-OPLS-2005>
530.434143066406

> <r_mmod_Torsional_Energy-OPLS-2005>
291.285522460938

> <r_mmod_Improper_Torsional_Energy-OPLS-2005>
6.09355974197388

> <r_mmod_Van_der_Waal_Energy-OPLS-2005>
169.294036865234

> <r_mmod_Electrostatic_Energy-OPLS-2005>
-820.994567871094

> <r_mmod_Solvation_Energy-OPLS-2005>
-197.533645629883

> <b_mmod_Minimization_Converged-OPLS-2005>
0

> <r_mmod_RMS_Derivative-OPLS-2005>
11.1893739700317

$$$$
8
                    3D
 Structure written by MMmdl.
193201  0  0  1  0            999 V2000
  -30.7284  -14.4414   20.4319 C   0  0  0  0  0  0
  -30.3940  -12.2383   19.4437 C   0  0  0  0  0  0
  -29.4849  -12.4526   18.2153 C   0  0  0  0  0  0
  -28.0002  -12.3699   18.6276 C   0  0  0  0  0  0
  -27.6571  -13.2029   19.8972 C   0  0  2  0  0  0
  -28.7131  -13.0193   21.0117 C   0  0  0  0  0  0
  -25.2524  -13.8121   20.5745 C   0  0  0  0  0  0
  -24.1771  -13.0397   20.9228 C   0  0  0  0  0  0
  -24.6368  -11.6887   20.8805 C   0  0  0  0  0  0
  -23.9009  -10.4298   21.0477 C   0  0  0  0  0  0
  -24.3602   -9.4206   21.9215 C   0  0  0  0  0  0
  -23.6292   -8.2224   22.0775 C   0  0  0  0  0  0
  -22.4267   -8.0290   21.3561 C   0  0  0  0  0  0
  -21.9897   -9.0234   20.4639 C   0  0  0  0  0  0
  -22.7216  -10.2124   20.3078 C   0  0  0  0  0  0
  -21.6836   -6.0725   22.5248 C   0  0  0  0  0  0
  -21.4007   -6.5636   23.8200 C   0  0  0  0  0  0
  -21.3667   -5.6808   24.9159 C   0  0  0  0  0  0
  -21.6073   -4.3072   24.7231 C   0  0  0  0  0  0
  -21.8824   -3.8148   23.4342 C   0  0  0  0  0  0
  -21.9195   -4.6948   22.3406 C   0  0  0  0  0  0
  -22.7802  -13.5198   21.1882 C   0  0  0  0  0  0
  -22.1672   -4.2149   21.0978 F   0  0  0  0  0  0
  -21.5639   -3.4567   25.7737 F   0  0  0  0  0  0
  -30.0382  -13.2709   20.4223 N   0  0  0  0  0  0
  -26.3009  -12.9285   20.3590 N   0  0  0  0  0  0
  -25.9312  -11.6448   20.5910 N   0  0  0  0  0  0
  -22.0511  -12.8143   22.0454 N   0  0  0  0  0  0
  -25.4086  -15.1802   20.3987 N   0  0  0  0  0  0
  -31.9252  -14.5234   20.1547 O   0  0  0  0  0  0
  -21.6663   -6.8859   21.4223 O   0  0  0  0  0  0
  -22.3469  -14.5543   20.6807 O   0  0  0  0  0  0
  -24.6148  -31.8621   23.2128 C   0  0  0  0  0  0
  -25.9059  -32.4772   23.8395 C   0  0  1  0  0  0
  -27.2448  -27.4201   20.1253 C   0  0  0  0  0  0
  -25.5997  -33.8590   24.2356 N   0  0  0  0  0  0
  -23.4049  -30.4916   21.5521 C   0  0  2  0  0  0
  -24.8494  -28.9363   20.1433 C   0  0  0  0  0  0
  -22.7402  -29.4696   22.5016 C   0  0  0  0  0  0
  -18.0239  -28.1440   22.8412 C   0  0  0  0  0  0
  -24.1536  -36.7310   23.2653 C   0  0  0  0  0  0
  -25.9308  -30.8311   21.3604 C   0  0  0  0  0  0
  -26.0116  -29.4587   20.7217 C   0  0  0  0  0  0
  -27.2070  -28.7100   20.7073 C   0  0  0  0  0  0
  -26.0621  -26.9146   19.5359 C   0  0  0  0  0  0
  -24.8658  -27.6600   19.5540 C   0  0  0  0  0  0
  -23.6183  -29.8125   20.1770 C   0  0  0  0  0  0
  -25.4123  -36.3062   24.0368 C   0  0  1  0  0  0
  -20.5824  -28.3742   23.1248 C   0  0  2  0  0  0
  -20.6825  -26.9515   22.5320 C   0  0  0  0  0  0
  -19.5773  -26.6348   21.5211 C   0  0  0  0  0  0
  -18.1921  -26.7909   22.1649 C   0  0  0  0  0  0
  -19.1492  -28.8881   23.2838 C   0  0  0  0  0  0
  -18.9472  -30.1449   23.8949 C   0  0  0  0  0  0
  -17.6495  -30.6626   24.0596 C   0  0  0  0  0  0
  -25.9064  -34.9435   23.5130 C   0  0  0  0  0  0
  -16.5377  -29.9163   23.6340 C   0  0  0  0  0  0
  -16.7250  -28.6587   23.0327 C   0  0  0  0  0  0
  -26.4527  -31.6539   25.0697 C   0  0  0  0  0  0
  -25.3762  -31.3652   26.1413 C   0  0  0  0  0  0
  -27.0454  -30.3013   24.6060 C   0  0  0  0  0  0
  -27.6107  -32.4235   25.7445 C   0  0  0  0  0  0
  -27.5605  -37.1770   24.8470 C   0  0  0  0  0  0
  -21.4128  -29.3120   22.3694 N   0  0  0  0  0  0
  -26.4320  -37.3733   23.9408 N   0  0  0  0  0  0
  -24.6696  -31.0758   22.1011 N   0  0  0  0  0  0
  -23.4118  -28.8246   23.3077 O   0  0  0  0  0  0
  -28.4404  -26.7232   20.1565 O   0  0  0  0  0  0
  -26.5559  -34.8885   22.4644 O   0  0  0  0  0  0
  -23.5345  -32.1351   23.7533 O   0  0  0  0  0  0
  -31.9662  -18.6502   20.6874 C   0  0  0  0  0  0
  -30.0776  -18.2843   21.7874 C   0  0  0  0  0  0
  -30.7854  -17.8538   20.7089 C   0  0  0  0  0  0
  -31.8930  -19.6281   21.6481 C   0  0  0  0  0  0
  -29.7638  -19.4342   24.5755 C   0  0  0  0  0  0
  -34.1590  -20.5510   21.0726 C   0  0  0  0  0  0
  -33.3322  -20.8983   23.3719 C   0  0  0  0  0  0
  -32.2664  -22.1020   21.4146 C   0  0  0  0  0  0
  -28.9848  -16.2195   17.6447 C   0  0  0  0  0  0
  -29.6839  -18.5697   17.9731 C   0  0  0  0  0  0
  -27.9271  -17.6064   19.4491 C   0  0  0  0  0  0
  -29.6212  -25.1925   22.4295 C   0  0  0  0  0  0
  -27.0947  -25.0557   22.3169 C   0  0  0  0  0  0
  -28.4052  -22.3119   22.8723 C   0  0  0  0  0  0
  -28.6419  -20.7930   22.6995 C   0  0  0  0  0  0
  -28.4905  -23.1070   21.5345 C   0  0  0  0  0  0
  -28.4628  -25.2820   20.1981 C   0  0  0  0  0  0
  -30.3600  -16.7895   19.7193 C   0  0  2  0  0  0
  -29.9801  -20.2510   23.2887 C   0  0  2  0  0  0
  -32.8743  -20.7715   21.8968 C   0  0  0  0  0  0
  -29.2494  -17.2895   18.7218 C   0  0  0  0  0  0
  -28.4154  -24.6626   21.6288 C   0  0  0  0  0  0
  -30.6620  -19.4326   22.2915 N   0  0  0  0  0  0
  -29.9603  -15.5387   20.3926 N   0  0  0  0  0  0
  -31.4478  -12.2713   19.1584 H   0  0  0  0  0  0
  -30.2246  -11.2482   19.8716 H   0  0  0  0  0  0
  -29.7019  -11.6956   17.4587 H   0  0  0  0  0  0
  -29.7021  -13.4164   17.7529 H   0  0  0  0  0  0
  -27.7738  -11.3175   18.8030 H   0  0  0  0  0  0
  -27.3652  -12.6798   17.7990 H   0  0  0  0  0  0
  -27.6762  -14.2506   19.6219 H   0  0  0  0  0  0
  -28.6726  -12.0040   21.4111 H   0  0  0  0  0  0
  -28.5153  -13.6855   21.8553 H   0  0  0  0  0  0
  -25.2768   -9.5660   22.4759 H   0  0  0  0  0  0
  -24.0020   -7.4603   22.7483 H   0  0  0  0  0  0
  -21.0848   -8.8719   19.8905 H   0  0  0  0  0  0
  -22.3695  -10.9652   19.6176 H   0  0  0  0  0  0
  -21.1993   -7.6157   23.9653 H   0  0  0  0  0  0
  -21.1493   -6.0585   25.9061 H   0  0  0  0  0  0
  -22.0595   -2.7610   23.2868 H   0  0  0  0  0  0
  -22.4254  -11.9803   22.4737 H   0  0  0  0  0  0
  -21.1097  -13.1025   22.2726 H   0  0  0  0  0  0
  -24.6231  -15.8162   20.4828 H   0  0  0  0  0  0
  -26.2245  -15.6108   19.9859 H   0  0  0  0  0  0
  -26.7142  -32.5533   23.1161 H   0  0  0  0  0  0
  -25.0301  -33.9746   25.0614 H   0  0  0  0  0  0
  -22.6982  -31.3100   21.3996 H   0  0  0  0  0  0
  -23.3783  -35.9674   23.3280 H   0  0  0  0  0  0
  -24.3698  -36.8913   22.2093 H   0  0  0  0  0  0
  -23.7309  -37.6524   23.6664 H   0  0  0  0  0  0
  -26.0305  -31.5892   20.5852 H   0  0  0  0  0  0
  -26.8256  -30.8992   21.9673 H   0  0  0  0  0  0
  -28.1025  -29.1117   21.1637 H   0  0  0  0  0  0
  -26.0301  -25.9475   19.0626 H   0  0  0  0  0  0
  -23.9679  -27.2377   19.1255 H   0  0  0  0  0  0
  -23.7543  -30.5800   19.4143 H   0  0  0  0  0  0
  -22.7381  -29.2466   19.8718 H   0  0  0  0  0  0
  -25.1265  -36.1943   25.0867 H   0  0  0  0  0  0
  -20.9840  -28.3408   24.1391 H   0  0  0  0  0  0
  -20.5991  -26.2331   23.3462 H   0  0  0  0  0  0
  -21.6634  -26.7683   22.0975 H   0  0  0  0  0  0
  -19.7070  -25.6222   21.1361 H   0  0  0  0  0  0
  -19.6715  -27.3013   20.6628 H   0  0  0  0  0  0
  -17.4102  -26.6452   21.4177 H   0  0  0  0  0  0
  -18.0484  -26.0144   22.9175 H   0  0  0  0  0  0
  -19.7982  -30.7192   24.2428 H   0  0  0  0  0  0
  -17.5124  -31.6282   24.5289 H   0  0  0  0  0  0
  -15.5422  -30.3164   23.7666 H   0  0  0  0  0  0
  -15.8622  -28.0959   22.7074 H   0  0  0  0  0  0
  -24.5959  -30.6973   25.7712 H   0  0  0  0  0  0
  -24.8919  -32.2825   26.4777 H   0  0  0  0  0  0
  -25.8052  -30.8850   27.0197 H   0  0  0  0  0  0
  -26.3051  -29.6595   24.1244 H   0  0  0  0  0  0
  -27.4477  -29.7383   25.4494 H   0  0  0  0  0  0
  -27.8719  -30.4437   23.9081 H   0  0  0  0  0  0
  -27.2805  -33.3555   26.2019 H   0  0  0  0  0  0
  -28.3920  -32.6690   25.0248 H   0  0  0  0  0  0
  -28.0744  -31.8307   26.5328 H   0  0  0  0  0  0
  -28.2520  -38.0149   24.7480 H   0  0  0  0  0  0
  -28.1173  -36.2637   24.6279 H   0  0  0  0  0  0
  -27.2323  -37.1377   25.8876 H   0  0  0  0  0  0
  -20.9369  -29.8686   21.6733 H   0  0  0  0  0  0
  -26.0212  -38.2826   24.1325 H   0  0  0  0  0  0
  -32.7660  -18.5535   19.9653 H   0  0  0  0  0  0
  -29.1277  -17.9398   22.1704 H   0  0  0  0  0  0
  -29.2822  -20.0260   25.3545 H   0  0  0  0  0  0
  -30.7172  -19.0796   24.9690 H   0  0  0  0  0  0
  -29.1387  -18.5573   24.3959 H   0  0  0  0  0  0
  -34.7000  -19.6623   21.4014 H   0  0  0  0  0  0
  -34.8371  -21.3987   21.1564 H   0  0  0  0  0  0
  -33.9418  -20.4331   20.0108 H   0  0  0  0  0  0
  -33.5982  -19.9285   23.8020 H   0  0  0  0  0  0
  -32.5966  -21.3591   24.0261 H   0  0  0  0  0  0
  -34.2153  -21.5345   23.4566 H   0  0  0  0  0  0
  -31.9186  -22.0142   20.3848 H   0  0  0  0  0  0
  -32.9901  -22.9147   21.4441 H   0  0  0  0  0  0
  -31.4180  -22.4172   22.0153 H   0  0  0  0  0  0
  -28.2646  -16.5581   16.9017 H   0  0  0  0  0  0
  -28.5784  -15.3105   18.0649 H   0  0  0  0  0  0
  -29.8976  -15.9496   17.1147 H   0  0  0  0  0  0
  -28.8822  -18.9453   17.3346 H   0  0  0  0  0  0
  -30.5478  -18.3893   17.3342 H   0  0  0  0  0  0
  -29.9447  -19.3791   18.6530 H   0  0  0  0  0  0
  -27.1093  -17.7526   18.7447 H   0  0  0  0  0  0
  -28.0058  -18.5244   20.0292 H   0  0  0  0  0  0
  -27.6270  -16.8233   20.1393 H   0  0  0  0  0  0
  -29.5873  -24.8867   23.4754 H   0  0  0  0  0  0
  -29.6599  -26.2826   22.4105 H   0  0  0  0  0  0
  -30.5637  -24.8248   22.0233 H   0  0  0  0  0  0
  -26.2296  -24.7830   21.7107 H   0  0  0  0  0  0
  -27.0562  -26.1286   22.4981 H   0  0  0  0  0  0
  -26.9773  -24.5706   23.2854 H   0  0  0  0  0  0
  -29.0941  -22.7073   23.6185 H   0  0  0  0  0  0
  -27.4118  -22.4356   23.3055 H   0  0  0  0  0  0
  -28.5656  -20.5626   21.6355 H   0  0  0  0  0  0
  -27.8161  -20.2351   23.1492 H   0  0  0  0  0  0
  -27.6883  -22.7552   20.8872 H   0  0  0  0  0  0
  -29.4037  -22.8243   21.0114 H   0  0  0  0  0  0
  -27.7066  -24.8281   19.5627 H   0  0  0  0  0  0
  -29.4109  -24.9883   19.7461 H   0  0  0  0  0  0
  -31.2427  -16.6056   19.1005 H   0  0  0  0  0  0
  -30.6087  -21.0912   23.5455 H   0  0  0  0  0  0
  -28.9806  -15.4211   20.5780 H   0  0  0  0  0  0
  1 25  1  0  0  0
  1 30  2  0  0  0
  1 94  1  0  0  0
  2  3  1  0  0  0
  2 25  1  0  0  0
  2 95  1  0  0  0
  2 96  1  0  0  0
  3  4  1  0  0  0
  3 97  1  0  0  0
  3 98  1  0  0  0
  4  5  1  0  0  0
  4 99  1  0  0  0
  4100  1  0  0  0
  5  6  1  0  0  0
  5 26  1  0  0  0
  5101  1  0  0  0
  6 25  1  0  0  0
  6102  1  0  0  0
  6103  1  0  0  0
  7  8  2  0  0  0
  7 26  1  0  0  0
  7 29  1  0  0  0
  8  9  1  0  0  0
  8 22  1  0  0  0
  9 10  1  0  0  0
  9 27  2  0  0  0
 10 11  2  0  0  0
 10 15  1  0  0  0
 11 12  1  0  0  0
 11104  1  0  0  0
 12 13  2  0  0  0
 12105  1  0  0  0
 13 14  1  0  0  0
 13 31  1  0  0  0
 14 15  2  0  0  0
 14106  1  0  0  0
 15107  1  0  0  0
 16 17  2  0  0  0
 16 21  1  0  0  0
 16 31  1  0  0  0
 17 18  1  0  0  0
 17108  1  0  0  0
 18 19  2  0  0  0
 18109  1  0  0  0
 19 20  1  0  0  0
 19 24  1  0  0  0
 20 21  2  0  0  0
 20110  1  0  0  0
 21 23  1  0  0  0
 22 28  1  0  0  0
 22 32  2  0  0  0
 26 27  1  0  0  0
 28111  1  0  0  0
 28112  1  0  0  0
 29113  1  0  0  0
 29114  1  0  0  0
 33 34  1  0  0  0
 33 66  1  0  0  0
 33 70  2  0  0  0
 34 36  1  0  0  0
 34 59  1  0  0  0
 34115  1  0  0  0
 35 44  2  0  0  0
 35 45  1  0  0  0
 35 68  1  0  0  0
 36 56  1  0  0  0
 36116  1  0  0  0
 37 39  1  0  0  0
 37 47  1  0  0  0
 37 66  1  0  0  0
 37117  1  0  0  0
 38 43  2  0  0  0
 38 46  1  0  0  0
 38 47  1  0  0  0
 39 64  1  0  0  0
 39 67  2  0  0  0
 40 52  1  0  0  0
 40 53  2  0  0  0
 40 58  1  0  0  0
 41118  1  0  0  0
 41119  1  0  0  0
 41120  1  0  0  0
 41 48  1  0  0  0
 42 43  1  0  0  0
 42 66  1  0  0  0
 42121  1  0  0  0
 42122  1  0  0  0
 43 44  1  0  0  0
 44123  1  0  0  0
 45 46  2  0  0  0
 45124  1  0  0  0
 46125  1  0  0  0
 47126  1  0  0  0
 47127  1  0  0  0
 48 56  1  0  0  0
 48 65  1  0  0  0
 48128  1  0  0  0
 49 50  1  0  0  0
 49 53  1  0  0  0
 49 64  1  0  0  0
 49129  1  0  0  0
 50 51  1  0  0  0
 50130  1  0  0  0
 50131  1  0  0  0
 51 52  1  0  0  0
 51132  1  0  0  0
 51133  1  0  0  0
 52134  1  0  0  0
 52135  1  0  0  0
 53 54  1  0  0  0
 54 55  2  0  0  0
 54136  1  0  0  0
 55 57  1  0  0  0
 55137  1  0  0  0
 56 69  2  0  0  0
 57 58  2  0  0  0
 57138  1  0  0  0
 58139  1  0  0  0
 59 60  1  0  0  0
 59 61  1  0  0  0
 59 62  1  0  0  0
 60140  1  0  0  0
 60141  1  0  0  0
 60142  1  0  0  0
 61143  1  0  0  0
 61144  1  0  0  0
 61145  1  0  0  0
 62146  1  0  0  0
 62147  1  0  0  0
 62148  1  0  0  0
 63 65  1  0  0  0
 63149  1  0  0  0
 63150  1  0  0  0
 63151  1  0  0  0
 64152  1  0  0  0
 65153  1  0  0  0
 68 87  1  0  0  0
 71 73  1  0  0  0
 71 74  2  0  0  0
 71154  1  0  0  0
 72 73  2  0  0  0
 72 93  1  0  0  0
 72155  1  0  0  0
 73 88  1  0  0  0
 74 90  1  0  0  0
 74 93  1  0  0  0
 75156  1  0  0  0
 75157  1  0  0  0
 75158  1  0  0  0
 75 89  1  0  0  0
 76159  1  0  0  0
 76160  1  0  0  0
 76161  1  0  0  0
 76 90  1  0  0  0
 77 90  1  0  0  0
 77162  1  0  0  0
 77163  1  0  0  0
 77164  1  0  0  0
 78 90  1  0  0  0
 78165  1  0  0  0
 78166  1  0  0  0
 78167  1  0  0  0
 79168  1  0  0  0
 79169  1  0  0  0
 79170  1  0  0  0
 79 91  1  0  0  0
 80 91  1  0  0  0
 80171  1  0  0  0
 80172  1  0  0  0
 80173  1  0  0  0
 81 91  1  0  0  0
 81174  1  0  0  0
 81175  1  0  0  0
 81176  1  0  0  0
 82177  1  0  0  0
 82178  1  0  0  0
 82179  1  0  0  0
 82 92  1  0  0  0
 83 92  1  0  0  0
 83180  1  0  0  0
 83181  1  0  0  0
 83182  1  0  0  0
 84 85  1  0  0  0
 84 86  1  0  0  0
 84183  1  0  0  0
 84184  1  0  0  0
 85 89  1  0  0  0
 85185  1  0  0  0
 85186  1  0  0  0
 86 92  1  0  0  0
 86187  1  0  0  0
 86188  1  0  0  0
 87 92  1  0  0  0
 87189  1  0  0  0
 87190  1  0  0  0
 88 91  1  0  0  0
 88 94  1  0  0  0
 88191  1  0  0  0
 89 93  1  0  0  0
 89192  1  0  0  0
 94193  1  0  0  0
M  ISO  4   1 100  68 101  87 101  94 100
M  END
> <chiral flag>
0

> <version>
0

> <s_m_source_file>
/data/baiqing/PycharmProjects/Reinvent-master-3.2/result/LINK_invent/BTK/process_docking_weight1_custom_sum_contain_oxygen_bond_distance_aromatic_linkinvent_7_9_3/rearranged_h_0067.sdf

> <i_m_source_file_index>
9

> <r_mmod_Potential_Energy-OPLS-2005>
-37.2642631530762

> <r_mmod_Stretch_Energy-OPLS-2005>
44.174144744873

> <r_mmod_Bend_Energy-OPLS-2005>
137.524383544922

> <r_mmod_Torsional_Energy-OPLS-2005>
303.444000244141

> <r_mmod_Improper_Torsional_Energy-OPLS-2005>
11.9206972122192

> <r_mmod_Van_der_Waal_Energy-OPLS-2005>
134.638076782227

> <r_mmod_Electrostatic_Energy-OPLS-2005>
-514.7666015625

> <r_mmod_Solvation_Energy-OPLS-2005>
-177.970489501953

> <b_mmod_Minimization_Converged-OPLS-2005>
0

> <r_mmod_RMS_Derivative-OPLS-2005>
7.13698482513428

$$$$
9
                    3D
 Structure written by MMmdl.
166174  0  0  1  0            999 V2000
  -30.6865  -14.4528   20.5806 C   0  0  0  0  0  0
  -30.4322  -12.2996   19.4090 C   0  0  0  0  0  0
  -29.4923  -12.5069   18.2012 C   0  0  0  0  0  0
  -28.0114  -12.3756   18.6187 C   0  0  0  0  0  0
  -27.6645  -13.2039   19.8853 C   0  0  2  0  0  0
  -28.7104  -12.9506   20.9943 C   0  0  0  0  0  0
  -25.2599  -13.8162   20.5729 C   0  0  0  0  0  0
  -24.1844  -13.0449   20.9211 C   0  0  0  0  0  0
  -24.6403  -11.6910   20.8769 C   0  0  0  0  0  0
  -23.9061  -10.4295   21.0390 C   0  0  0  0  0  0
  -24.3596   -9.4192   21.9187 C   0  0  0  0  0  0
  -23.6244   -8.2245   22.0749 C   0  0  0  0  0  0
  -22.4229   -8.0304   21.3536 C   0  0  0  0  0  0
  -21.9890   -9.0276   20.4634 C   0  0  0  0  0  0
  -22.7237  -10.2150   20.3037 C   0  0  0  0  0  0
  -21.6861   -6.0742   22.5275 C   0  0  0  0  0  0
  -21.4025   -6.5630   23.8215 C   0  0  0  0  0  0
  -21.3649   -5.6778   24.9181 C   0  0  0  0  0  0
  -21.6019   -4.3041   24.7230 C   0  0  0  0  0  0
  -21.8811   -3.8141   23.4348 C   0  0  0  0  0  0
  -21.9187   -4.6963   22.3401 C   0  0  0  0  0  0
  -22.7861  -13.5237   21.1857 C   0  0  0  0  0  0
  -22.1674   -4.2154   21.0991 F   0  0  0  0  0  0
  -21.5586   -3.4513   25.7740 F   0  0  0  0  0  0
  -30.0404  -13.2667   20.4417 N   0  0  0  0  0  0
  -26.3049  -12.9324   20.3436 N   0  0  0  0  0  0
  -25.9323  -11.6494   20.5816 N   0  0  0  0  0  0
  -22.0513  -12.8224   22.0416 N   0  0  0  0  0  0
  -25.4306  -15.1875   20.4105 N   0  0  0  0  0  0
  -31.8218  -14.6694   20.1515 O   0  0  0  0  0  0
  -21.6609   -6.8888   21.4243 O   0  0  0  0  0  0
  -22.3541  -14.5528   20.6685 O   0  0  0  0  0  0
  -24.6139  -31.8672   23.2118 C   0  0  0  0  0  0
  -25.9033  -32.4816   23.8399 C   0  0  1  0  0  0
  -27.2377  -27.4513   20.0578 C   0  0  0  0  0  0
  -25.5880  -33.8616   24.2313 N   0  0  0  0  0  0
  -23.4023  -30.4936   21.5502 C   0  0  2  0  0  0
  -24.8421  -28.9535   20.1175 C   0  0  0  0  0  0
  -22.7371  -29.4687   22.4977 C   0  0  0  0  0  0
  -18.0271  -28.1374   22.8516 C   0  0  0  0  0  0
  -24.1498  -36.7312   23.2650 C   0  0  0  0  0  0
  -25.9278  -30.8309   21.3658 C   0  0  0  0  0  0
  -26.0006  -29.4639   20.7140 C   0  0  0  0  0  0
  -27.1953  -28.7104   20.6971 C   0  0  0  0  0  0
  -26.0517  -26.9375   19.4895 C   0  0  0  0  0  0
  -24.8568  -27.6812   19.5182 C   0  0  0  0  0  0
  -23.6068  -29.8236   20.1657 C   0  0  0  0  0  0
  -25.4116  -36.3107   24.0343 C   0  0  1  0  0  0
  -20.5852  -28.3665   23.1318 C   0  0  2  0  0  0
  -20.6776  -26.9392   22.5435 C   0  0  0  0  0  0
  -19.5752  -26.6383   21.5244 C   0  0  0  0  0  0
  -18.1917  -26.7919   22.1642 C   0  0  0  0  0  0
  -19.1526  -28.8835   23.2914 C   0  0  0  0  0  0
  -18.9448  -30.1436   23.8917 C   0  0  0  0  0  0
  -17.6455  -30.6582   24.0568 C   0  0  0  0  0  0
  -25.9029  -34.9486   23.5133 C   0  0  0  0  0  0
  -16.5340  -29.9094   23.6318 C   0  0  0  0  0  0
  -16.7262  -28.6503   23.0346 C   0  0  0  0  0  0
  -26.4447  -31.6616   25.0748 C   0  0  0  0  0  0
  -25.3731  -31.3698   26.1505 C   0  0  0  0  0  0
  -27.0329  -30.3089   24.6136 C   0  0  0  0  0  0
  -27.6034  -32.4342   25.7475 C   0  0  0  0  0  0
  -27.5580  -37.1813   24.8456 C   0  0  0  0  0  0
  -21.4102  -29.3044   22.3715 N   0  0  0  0  0  0
  -26.4296  -37.3800   23.9417 N   0  0  0  0  0  0
  -24.6663  -31.0789   22.1005 N   0  0  0  0  0  0
  -23.4144  -28.8238   23.3033 O   0  0  0  0  0  0
  -28.4383  -26.7709   20.0264 O   0  0  0  0  0  0
  -26.5598  -34.8932   22.4701 O   0  0  0  0  0  0
  -23.5333  -32.1414   23.7536 O   0  0  0  0  0  0
  -27.4812  -20.2030   20.9279 C   0  0  0  0  0  0
  -29.3397  -19.1352   20.3058 C   0  0  0  0  0  0
  -29.1648  -21.3492   20.0755 C   0  0  0  0  0  0
  -26.0623  -20.1494   21.4494 C   0  0  0  0  0  0
  -28.5121  -26.7847   17.5160 C   0  0  0  0  0  0
  -31.4659  -18.0226   19.4371 C   0  0  0  0  0  0
  -29.2241  -17.1014   18.8441 C   0  0  0  0  0  0
  -28.5797  -24.5484   18.8450 C   0  0  0  0  0  0
  -30.1825  -16.8669   21.2526 C   0  0  0  0  0  0
  -29.2381  -23.7874   20.0246 C   0  0  0  0  0  0
  -28.8709  -26.0740   18.8417 C   0  0  2  0  0  0
  -30.0330  -17.7797   19.9739 C   0  0  0  0  0  0
  -28.1197  -19.0441   20.8265 N   0  0  0  0  0  0
  -27.9418  -21.3995   20.5870 N   0  0  0  0  0  0
  -29.9062  -20.2683   19.8808 N   0  0  0  0  0  0
  -29.9127  -15.4263   21.0809 N   0  0  0  0  0  0
  -29.7500  -22.4952   19.6464 O   0  0  0  0  0  0
  -31.4757  -12.4145   19.1064 H   0  0  0  0  0  0
  -30.3408  -11.2844   19.8016 H   0  0  0  0  0  0
  -29.7237  -11.7804   17.4210 H   0  0  0  0  0  0
  -29.6665  -13.4943   17.7663 H   0  0  0  0  0  0
  -27.8083  -11.3207   18.8050 H   0  0  0  0  0  0
  -27.3612  -12.6644   17.7926 H   0  0  0  0  0  0
  -27.7140  -14.2558   19.6086 H   0  0  0  0  0  0
  -28.6889  -11.9029   21.2929 H   0  0  0  0  0  0
  -28.4782  -13.5112   21.9022 H   0  0  0  0  0  0
  -25.2734   -9.5627   22.4787 H   0  0  0  0  0  0
  -23.9918   -7.4605   22.7436 H   0  0  0  0  0  0
  -21.0840   -8.8796   19.8921 H   0  0  0  0  0  0
  -22.3684  -10.9699   19.6136 H   0  0  0  0  0  0
  -21.2052   -7.6146   23.9727 H   0  0  0  0  0  0
  -21.1469   -6.0524   25.9084 H   0  0  0  0  0  0
  -22.0596   -2.7611   23.2864 H   0  0  0  0  0  0
  -22.4135  -11.9842   22.4732 H   0  0  0  0  0  0
  -21.1130  -13.1248   22.2630 H   0  0  0  0  0  0
  -24.6597  -15.8395   20.5017 H   0  0  0  0  0  0
  -26.2753  -15.6272   20.0673 H   0  0  0  0  0  0
  -26.7125  -32.5505   23.1172 H   0  0  0  0  0  0
  -25.0057  -33.9763   25.0485 H   0  0  0  0  0  0
  -22.6936  -31.3130   21.4113 H   0  0  0  0  0  0
  -23.3761  -35.9639   23.3313 H   0  0  0  0  0  0
  -24.3601  -36.8933   22.2066 H   0  0  0  0  0  0
  -23.7244  -37.6520   23.6657 H   0  0  0  0  0  0
  -26.0470  -31.5981   20.5996 H   0  0  0  0  0  0
  -26.8135  -30.8782   21.9876 H   0  0  0  0  0  0
  -28.0940  -29.1018   21.1516 H   0  0  0  0  0  0
  -26.0377  -25.9677   19.0153 H   0  0  0  0  0  0
  -23.9546  -27.2695   19.0841 H   0  0  0  0  0  0
  -23.7208  -30.5972   19.4065 H   0  0  0  0  0  0
  -22.7261  -29.2546   19.8637 H   0  0  0  0  0  0
  -25.1318  -36.1973   25.0831 H   0  0  0  0  0  0
  -20.9966  -28.3261   24.1437 H   0  0  0  0  0  0
  -20.5743  -26.2268   23.3635 H   0  0  0  0  0  0
  -21.6636  -26.7480   22.1199 H   0  0  0  0  0  0
  -19.6920  -25.6325   21.1220 H   0  0  0  0  0  0
  -19.6693  -27.3234   20.6806 H   0  0  0  0  0  0
  -17.4218  -26.6698   21.4017 H   0  0  0  0  0  0
  -18.0277  -26.0040   22.9008 H   0  0  0  0  0  0
  -19.7930  -30.7248   24.2283 H   0  0  0  0  0  0
  -17.5011  -31.6256   24.5175 H   0  0  0  0  0  0
  -15.5345  -30.3009   23.7618 H   0  0  0  0  0  0
  -15.8652  -28.0831   22.7052 H   0  0  0  0  0  0
  -24.5859  -30.7103   25.7813 H   0  0  0  0  0  0
  -24.8969  -32.2860   26.5029 H   0  0  0  0  0  0
  -25.8081  -30.8787   27.0218 H   0  0  0  0  0  0
  -26.2890  -29.6801   24.1229 H   0  0  0  0  0  0
  -27.4179  -29.7381   25.4587 H   0  0  0  0  0  0
  -27.8672  -30.4482   23.9258 H   0  0  0  0  0  0
  -27.2656  -33.3624   26.2103 H   0  0  0  0  0  0
  -28.3765  -32.6938   25.0233 H   0  0  0  0  0  0
  -28.0783  -31.8457   26.5333 H   0  0  0  0  0  0
  -28.2598  -38.0111   24.7523 H   0  0  0  0  0  0
  -28.1069  -36.2651   24.6260 H   0  0  0  0  0  0
  -27.2287  -37.1442   25.8850 H   0  0  0  0  0  0
  -20.9242  -29.8749   21.6930 H   0  0  0  0  0  0
  -26.0180  -38.2872   24.1438 H   0  0  0  0  0  0
  -25.7839  -19.1359   21.7374 H   0  0  0  0  0  0
  -25.3676  -20.4811   20.6766 H   0  0  0  0  0  0
  -25.9450  -20.7973   22.3187 H   0  0  0  0  0  0
  -29.0565  -26.3483   16.6776 H   0  0  0  0  0  0
  -28.7745  -27.8419   17.5525 H   0  0  0  0  0  0
  -27.4536  -26.7194   17.2726 H   0  0  0  0  0  0
  -31.4479  -18.5819   18.5014 H   0  0  0  0  0  0
  -31.9937  -17.0890   19.2479 H   0  0  0  0  0  0
  -32.0639  -18.6017   20.1416 H   0  0  0  0  0  0
  -29.1070  -17.7773   17.9965 H   0  0  0  0  0  0
  -28.2215  -16.8284   19.1750 H   0  0  0  0  0  0
  -29.7142  -16.2055   18.4676 H   0  0  0  0  0  0
  -27.5135  -24.3369   18.8186 H   0  0  0  0  0  0
  -28.9692  -24.1373   17.9127 H   0  0  0  0  0  0
  -29.4685  -17.1858   22.0090 H   0  0  0  0  0  0
  -31.1579  -17.0017   21.7192 H   0  0  0  0  0  0
  -28.5816  -23.7781   20.8949 H   0  0  0  0  0  0
  -30.1159  -24.3452   20.3530 H   0  0  0  0  0  0
  -29.9574  -26.1584   18.8912 H   0  0  0  0  0  0
  -28.9956  -15.1196   21.3696 H   0  0  0  0  0  0
  1 25  1  0  0  0
  1 30  2  0  0  0
  1 86  1  0  0  0
  2  3  1  0  0  0
  2 25  1  0  0  0
  2 88  1  0  0  0
  2 89  1  0  0  0
  3  4  1  0  0  0
  3 90  1  0  0  0
  3 91  1  0  0  0
  4  5  1  0  0  0
  4 92  1  0  0  0
  4 93  1  0  0  0
  5  6  1  0  0  0
  5 26  1  0  0  0
  5 94  1  0  0  0
  6 25  1  0  0  0
  6 95  1  0  0  0
  6 96  1  0  0  0
  7  8  2  0  0  0
  7 26  1  0  0  0
  7 29  1  0  0  0
  8  9  1  0  0  0
  8 22  1  0  0  0
  9 10  1  0  0  0
  9 27  2  0  0  0
 10 11  2  0  0  0
 10 15  1  0  0  0
 11 12  1  0  0  0
 11 97  1  0  0  0
 12 13  2  0  0  0
 12 98  1  0  0  0
 13 14  1  0  0  0
 13 31  1  0  0  0
 14 15  2  0  0  0
 14 99  1  0  0  0
 15100  1  0  0  0
 16 17  2  0  0  0
 16 21  1  0  0  0
 16 31  1  0  0  0
 17 18  1  0  0  0
 17101  1  0  0  0
 18 19  2  0  0  0
 18102  1  0  0  0
 19 20  1  0  0  0
 19 24  1  0  0  0
 20 21  2  0  0  0
 20103  1  0  0  0
 21 23  1  0  0  0
 22 28  1  0  0  0
 22 32  2  0  0  0
 26 27  1  0  0  0
 28104  1  0  0  0
 28105  1  0  0  0
 29106  1  0  0  0
 29107  1  0  0  0
 33 34  1  0  0  0
 33 66  1  0  0  0
 33 70  2  0  0  0
 34 36  1  0  0  0
 34 59  1  0  0  0
 34108  1  0  0  0
 35 44  2  0  0  0
 35 45  1  0  0  0
 35 68  1  0  0  0
 36 56  1  0  0  0
 36109  1  0  0  0
 37 39  1  0  0  0
 37 47  1  0  0  0
 37 66  1  0  0  0
 37110  1  0  0  0
 38 43  2  0  0  0
 38 46  1  0  0  0
 38 47  1  0  0  0
 39 64  1  0  0  0
 39 67  2  0  0  0
 40 52  1  0  0  0
 40 53  2  0  0  0
 40 58  1  0  0  0
 41111  1  0  0  0
 41112  1  0  0  0
 41113  1  0  0  0
 41 48  1  0  0  0
 42 43  1  0  0  0
 42 66  1  0  0  0
 42114  1  0  0  0
 42115  1  0  0  0
 43 44  1  0  0  0
 44116  1  0  0  0
 45 46  2  0  0  0
 45117  1  0  0  0
 46118  1  0  0  0
 47119  1  0  0  0
 47120  1  0  0  0
 48 56  1  0  0  0
 48 65  1  0  0  0
 48121  1  0  0  0
 49 50  1  0  0  0
 49 53  1  0  0  0
 49 64  1  0  0  0
 49122  1  0  0  0
 50 51  1  0  0  0
 50123  1  0  0  0
 50124  1  0  0  0
 51 52  1  0  0  0
 51125  1  0  0  0
 51126  1  0  0  0
 52127  1  0  0  0
 52128  1  0  0  0
 53 54  1  0  0  0
 54 55  2  0  0  0
 54129  1  0  0  0
 55 57  1  0  0  0
 55130  1  0  0  0
 56 69  2  0  0  0
 57 58  2  0  0  0
 57131  1  0  0  0
 58132  1  0  0  0
 59 60  1  0  0  0
 59 61  1  0  0  0
 59 62  1  0  0  0
 60133  1  0  0  0
 60134  1  0  0  0
 60135  1  0  0  0
 61136  1  0  0  0
 61137  1  0  0  0
 61138  1  0  0  0
 62139  1  0  0  0
 62140  1  0  0  0
 62141  1  0  0  0
 63 65  1  0  0  0
 63142  1  0  0  0
 63143  1  0  0  0
 63144  1  0  0  0
 64145  1  0  0  0
 65146  1  0  0  0
 68 81  1  0  0  0
 71 74  1  0  0  0
 71 83  2  0  0  0
 71 84  1  0  0  0
 72 82  1  0  0  0
 72 83  1  0  0  0
 72 85  2  0  0  0
 73 84  2  0  0  0
 73 85  1  0  0  0
 73 87  1  0  0  0
 74147  1  0  0  0
 74148  1  0  0  0
 74149  1  0  0  0
 75150  1  0  0  0
 75151  1  0  0  0
 75152  1  0  0  0
 75 81  1  0  0  0
 76153  1  0  0  0
 76154  1  0  0  0
 76155  1  0  0  0
 76 82  1  0  0  0
 77 82  1  0  0  0
 77156  1  0  0  0
 77157  1  0  0  0
 77158  1  0  0  0
 78 80  1  0  0  0
 78 81  1  0  0  0
 78159  1  0  0  0
 78160  1  0  0  0
 79 82  1  0  0  0
 79 86  1  0  0  0
 79161  1  0  0  0
 79162  1  0  0  0
 80 87  1  0  0  0
 80163  1  0  0  0
 80164  1  0  0  0
 81165  1  0  0  0
 86166  1  0  0  0
M  ISO  4   1 100  68 101  81 101  86 100
M  END
> <chiral flag>
0

> <version>
0

> <s_m_source_file>
/data/baiqing/PycharmProjects/Reinvent-master-3.2/result/LINK_invent/BTK/process_docking_weight1_custom_sum_contain_oxygen_bond_distance_aromatic_linkinvent_7_9_3/rearranged_h_0067.sdf

> <i_m_source_file_index>
10

> <r_mmod_Potential_Energy-OPLS-2005>
-716.365234375

> <r_mmod_Stretch_Energy-OPLS-2005>
41.5799369812012

> <r_mmod_Bend_Energy-OPLS-2005>
134.921783447266

> <r_mmod_Torsional_Energy-OPLS-2005>
223.938888549805

> <r_mmod_Improper_Torsional_Energy-OPLS-2005>
4.90530824661255

> <r_mmod_Van_der_Waal_Energy-OPLS-2005>
187.876449584961

> <r_mmod_Electrostatic_Energy-OPLS-2005>
-1107.76098632812

> <r_mmod_Solvation_Energy-OPLS-2005>
-213.444854736328

> <b_mmod_Minimization_Converged-OPLS-2005>
0

> <r_mmod_RMS_Derivative-OPLS-2005>
4.2648663520813

$$$$
10
                    3D
 Structure written by MMmdl.
168176  0  0  1  0            999 V2000
  -30.6679  -14.5534   20.6041 C   0  0  0  0  0  0
  -30.4345  -12.3692   19.4267 C   0  0  0  0  0  0
  -29.4983  -12.5376   18.2100 C   0  0  0  0  0  0
  -28.0201  -12.3842   18.6192 C   0  0  0  0  0  0
  -27.6630  -13.2160   19.8786 C   0  0  2  0  0  0
  -28.7087  -12.9970   20.9946 C   0  0  0  0  0  0
  -25.2586  -13.8185   20.5682 C   0  0  0  0  0  0
  -24.1833  -13.0442   20.9173 C   0  0  0  0  0  0
  -24.6404  -11.6919   20.8734 C   0  0  0  0  0  0
  -23.9073  -10.4304   21.0403 C   0  0  0  0  0  0
  -24.3630   -9.4221   21.9180 C   0  0  0  0  0  0
  -23.6298   -8.2256   22.0756 C   0  0  0  0  0  0
  -22.4281   -8.0283   21.3537 C   0  0  0  0  0  0
  -21.9918   -9.0256   20.4639 C   0  0  0  0  0  0
  -22.7246  -10.2137   20.3048 C   0  0  0  0  0  0
  -21.6848   -6.0737   22.5278 C   0  0  0  0  0  0
  -21.4004   -6.5645   23.8206 C   0  0  0  0  0  0
  -21.3671   -5.6799   24.9177 C   0  0  0  0  0  0
  -21.6050   -4.3057   24.7227 C   0  0  0  0  0  0
  -21.8817   -3.8146   23.4349 C   0  0  0  0  0  0
  -21.9195   -4.6965   22.3407 C   0  0  0  0  0  0
  -22.7865  -13.5239   21.1841 C   0  0  0  0  0  0
  -22.1670   -4.2145   21.0980 F   0  0  0  0  0  0
  -21.5643   -3.4551   25.7752 F   0  0  0  0  0  0
  -30.0257  -13.3539   20.4459 N   0  0  0  0  0  0
  -26.3043  -12.9367   20.3384 N   0  0  0  0  0  0
  -25.9336  -11.6514   20.5752 N   0  0  0  0  0  0
  -22.0503  -12.8203   22.0386 N   0  0  0  0  0  0
  -25.4292  -15.1894   20.4123 N   0  0  0  0  0  0
  -31.7782  -14.7358   20.0848 O   0  0  0  0  0  0
  -21.6630   -6.8879   21.4239 O   0  0  0  0  0  0
  -22.3544  -14.5538   20.6694 O   0  0  0  0  0  0
  -24.6192  -31.8651   23.2071 C   0  0  0  0  0  0
  -25.9075  -32.4801   23.8356 C   0  0  1  0  0  0
  -27.2325  -27.3925   20.0673 C   0  0  0  0  0  0
  -25.5911  -33.8593   24.2290 N   0  0  0  0  0  0
  -23.4073  -30.4893   21.5536 C   0  0  2  0  0  0
  -24.8467  -28.9470   20.1159 C   0  0  0  0  0  0
  -22.7425  -29.4653   22.5008 C   0  0  0  0  0  0
  -18.0257  -28.1395   22.8453 C   0  0  0  0  0  0
  -24.1495  -36.7318   23.2631 C   0  0  0  0  0  0
  -25.9392  -30.8117   21.3657 C   0  0  0  0  0  0
  -26.0128  -29.4419   20.7115 C   0  0  0  0  0  0
  -27.2036  -28.6707   20.6874 C   0  0  0  0  0  0
  -26.0353  -26.9198   19.4793 C   0  0  0  0  0  0
  -24.8535  -27.6839   19.5014 C   0  0  0  0  0  0
  -23.6128  -29.8231   20.1682 C   0  0  0  0  0  0
  -25.4120  -36.3109   24.0315 C   0  0  1  0  0  0
  -20.5839  -28.3701   23.1290 C   0  0  2  0  0  0
  -20.6759  -26.9437   22.5406 C   0  0  0  0  0  0
  -19.5747  -26.6397   21.5193 C   0  0  0  0  0  0
  -18.1919  -26.7927   22.1601 C   0  0  0  0  0  0
  -19.1502  -28.8863   23.2854 C   0  0  0  0  0  0
  -18.9449  -30.1457   23.8873 C   0  0  0  0  0  0
  -17.6452  -30.6593   24.0559 C   0  0  0  0  0  0
  -25.9041  -34.9469   23.5104 C   0  0  0  0  0  0
  -16.5340  -29.9095   23.6335 C   0  0  0  0  0  0
  -16.7243  -28.6522   23.0320 C   0  0  0  0  0  0
  -26.4476  -31.6591   25.0698 C   0  0  0  0  0  0
  -25.3754  -31.3674   26.1455 C   0  0  0  0  0  0
  -27.0283  -30.3025   24.6076 C   0  0  0  0  0  0
  -27.6053  -32.4320   25.7452 C   0  0  0  0  0  0
  -27.5591  -37.1808   24.8448 C   0  0  0  0  0  0
  -21.4156  -29.3048   22.3720 N   0  0  0  0  0  0
  -26.4294  -37.3799   23.9399 N   0  0  0  0  0  0
  -24.6751  -31.0686   22.1002 N   0  0  0  0  0  0
  -23.4170  -28.8213   23.3085 O   0  0  0  0  0  0
  -28.4168  -26.6592   20.0669 O   0  0  0  0  0  0
  -26.5606  -34.8928   22.4669 O   0  0  0  0  0  0
  -23.5376  -32.1413   23.7467 O   0  0  0  0  0  0
  -29.5750  -18.7355   19.5961 C   0  0  0  0  0  0
  -30.0703  -19.2610   20.8248 C   0  0  0  0  0  0
  -27.3018  -23.2070   19.0378 C   0  0  0  0  0  0
  -30.4443  -20.8441   22.7526 C   0  0  0  0  0  0
  -31.7645  -21.0527   20.6384 C   0  0  0  0  0  0
  -30.4551  -24.0121   21.0420 C   0  0  0  0  0  0
  -28.4524  -23.4045   22.4029 C   0  0  0  0  0  0
  -29.2769  -21.7425   20.5980 C   0  0  0  0  0  0
  -28.5363  -25.4240   19.3119 C   0  0  0  0  0  0
  -30.0132  -15.7330   21.4170 C   0  0  2  0  0  0
  -28.0660  -24.1013   20.0364 C   0  0  2  0  0  0
  -30.3655  -20.7372   21.2084 C   0  0  0  0  0  0
  -29.0872  -23.2948   20.9919 C   0  0  0  0  0  0
  -29.5450  -17.4202   19.6180 N   0  0  0  0  0  0
  -30.4005  -18.2193   21.5748 N   0  0  0  0  0  0
  -30.0777  -17.1045   20.8322 N   0  0  0  0  0  0
  -30.5528  -15.7387   22.6428 F   0  0  0  0  0  0
  -31.4761  -12.4966   19.1262 H   0  0  0  0  0  0
  -30.3655  -11.3586   19.8327 H   0  0  0  0  0  0
  -29.7522  -11.8146   17.4344 H   0  0  0  0  0  0
  -29.6509  -13.5238   17.7673 H   0  0  0  0  0  0
  -27.8350  -11.3262   18.8071 H   0  0  0  0  0  0
  -27.3701  -12.6714   17.7908 H   0  0  0  0  0  0
  -27.7044  -14.2638   19.5820 H   0  0  0  0  0  0
  -28.7099  -11.9513   21.3054 H   0  0  0  0  0  0
  -28.4581  -13.5511   21.8976 H   0  0  0  0  0  0
  -25.2787   -9.5692   22.4726 H   0  0  0  0  0  0
  -24.0009   -7.4646   22.7489 H   0  0  0  0  0  0
  -21.0853   -8.8787   19.8934 H   0  0  0  0  0  0
  -22.3720  -10.9680   19.6145 H   0  0  0  0  0  0
  -21.1964   -7.6145   23.9706 H   0  0  0  0  0  0
  -21.1507   -6.0534   25.9080 H   0  0  0  0  0  0
  -22.0576   -2.7606   23.2859 H   0  0  0  0  0  0
  -22.4160  -11.9869   22.4734 H   0  0  0  0  0  0
  -21.1112  -13.1202   22.2603 H   0  0  0  0  0  0
  -24.6600  -15.8434   20.5044 H   0  0  0  0  0  0
  -26.2763  -15.6310   20.0770 H   0  0  0  0  0  0
  -26.7148  -32.5491   23.1116 H   0  0  0  0  0  0
  -25.0069  -33.9715   25.0443 H   0  0  0  0  0  0
  -22.6986  -31.3094   21.4186 H   0  0  0  0  0  0
  -23.3748  -35.9659   23.3278 H   0  0  0  0  0  0
  -24.3577  -36.8964   22.2049 H   0  0  0  0  0  0
  -23.7257  -37.6520   23.6662 H   0  0  0  0  0  0
  -26.0470  -31.5729   20.5923 H   0  0  0  0  0  0
  -26.8270  -30.8660   21.9820 H   0  0  0  0  0  0
  -28.1078  -29.0479   21.1462 H   0  0  0  0  0  0
  -25.9778  -25.9558   18.9986 H   0  0  0  0  0  0
  -23.9535  -27.2934   19.0436 H   0  0  0  0  0  0
  -23.7260  -30.5982   19.4089 H   0  0  0  0  0  0
  -22.7303  -29.2502   19.8784 H   0  0  0  0  0  0
  -25.1308  -36.1961   25.0801 H   0  0  0  0  0  0
  -20.9871  -28.3278   24.1423 H   0  0  0  0  0  0
  -20.5678  -26.2306   23.3587 H   0  0  0  0  0  0
  -21.6641  -26.7495   22.1203 H   0  0  0  0  0  0
  -19.6921  -25.6303   21.1227 H   0  0  0  0  0  0
  -19.6700  -27.3204   20.6718 H   0  0  0  0  0  0
  -17.4192  -26.6643   21.3998 H   0  0  0  0  0  0
  -18.0332  -26.0077   22.9012 H   0  0  0  0  0  0
  -19.7938  -30.7257   24.2244 H   0  0  0  0  0  0
  -17.5025  -31.6259   24.5202 H   0  0  0  0  0  0
  -15.5341  -30.2998   23.7681 H   0  0  0  0  0  0
  -15.8632  -28.0856   22.7021 H   0  0  0  0  0  0
  -24.5929  -30.7020   25.7784 H   0  0  0  0  0  0
  -24.8931  -32.2809   26.4951 H   0  0  0  0  0  0
  -25.8129  -30.8814   27.0191 H   0  0  0  0  0  0
  -26.2797  -29.6781   24.1190 H   0  0  0  0  0  0
  -27.4095  -29.7269   25.4519 H   0  0  0  0  0  0
  -27.8624  -30.4298   23.9171 H   0  0  0  0  0  0
  -27.2684  -33.3632   26.2023 H   0  0  0  0  0  0
  -28.3865  -32.6880   25.0278 H   0  0  0  0  0  0
  -28.0720  -31.8452   26.5376 H   0  0  0  0  0  0
  -28.2606  -38.0120   24.7521 H   0  0  0  0  0  0
  -28.1112  -36.2645   24.6271 H   0  0  0  0  0  0
  -27.2276  -37.1430   25.8843 H   0  0  0  0  0  0
  -20.9363  -29.8782   21.6917 H   0  0  0  0  0  0
  -26.0190  -38.2872   24.1439 H   0  0  0  0  0  0
  -29.2627  -19.2750   18.7108 H   0  0  0  0  0  0
  -26.5120  -23.7695   18.5378 H   0  0  0  0  0  0
  -26.8086  -22.3732   19.5371 H   0  0  0  0  0  0
  -27.9481  -22.8069   18.2578 H   0  0  0  0  0  0
  -31.1353  -20.1168   23.1806 H   0  0  0  0  0  0
  -29.4774  -20.6784   23.2261 H   0  0  0  0  0  0
  -30.8332  -21.8071   23.0771 H   0  0  0  0  0  0
  -32.4816  -20.2735   20.8962 H   0  0  0  0  0  0
  -32.1799  -21.9809   21.0215 H   0  0  0  0  0  0
  -31.7460  -21.1277   19.5516 H   0  0  0  0  0  0
  -31.0664  -23.6753   21.8772 H   0  0  0  0  0  0
  -30.3609  -25.0897   21.1796 H   0  0  0  0  0  0
  -31.0219  -23.8410   20.1267 H   0  0  0  0  0  0
  -29.0502  -22.9681   23.1947 H   0  0  0  0  0  0
  -27.4773  -22.9184   22.4335 H   0  0  0  0  0  0
  -28.2976  -24.4461   22.6898 H   0  0  0  0  0  0
  -28.3093  -21.2706   20.7725 H   0  0  0  0  0  0
  -29.4289  -21.6990   19.5186 H   0  0  0  0  0  0
  -28.0097  -25.5478   18.3658 H   0  0  0  0  0  0
  -29.5693  -25.3271   18.9808 H   0  0  0  0  0  0
  -28.9533  -15.5558   21.5706 H   0  0  0  0  0  0
  -27.2531  -24.4676   20.6633 H   0  0  0  0  0  0
  1 25  1  0  0  0
  1 30  2  0  0  0
  1 80  1  0  0  0
  2  3  1  0  0  0
  2 25  1  0  0  0
  2 88  1  0  0  0
  2 89  1  0  0  0
  3  4  1  0  0  0
  3 90  1  0  0  0
  3 91  1  0  0  0
  4  5  1  0  0  0
  4 92  1  0  0  0
  4 93  1  0  0  0
  5  6  1  0  0  0
  5 26  1  0  0  0
  5 94  1  0  0  0
  6 25  1  0  0  0
  6 95  1  0  0  0
  6 96  1  0  0  0
  7  8  2  0  0  0
  7 26  1  0  0  0
  7 29  1  0  0  0
  8  9  1  0  0  0
  8 22  1  0  0  0
  9 10  1  0  0  0
  9 27  2  0  0  0
 10 11  2  0  0  0
 10 15  1  0  0  0
 11 12  1  0  0  0
 11 97  1  0  0  0
 12 13  2  0  0  0
 12 98  1  0  0  0
 13 14  1  0  0  0
 13 31  1  0  0  0
 14 15  2  0  0  0
 14 99  1  0  0  0
 15100  1  0  0  0
 16 17  2  0  0  0
 16 21  1  0  0  0
 16 31  1  0  0  0
 17 18  1  0  0  0
 17101  1  0  0  0
 18 19  2  0  0  0
 18102  1  0  0  0
 19 20  1  0  0  0
 19 24  1  0  0  0
 20 21  2  0  0  0
 20103  1  0  0  0
 21 23  1  0  0  0
 22 28  1  0  0  0
 22 32  2  0  0  0
 26 27  1  0  0  0
 28104  1  0  0  0
 28105  1  0  0  0
 29106  1  0  0  0
 29107  1  0  0  0
 33 34  1  0  0  0
 33 66  1  0  0  0
 33 70  2  0  0  0
 34 36  1  0  0  0
 34 59  1  0  0  0
 34108  1  0  0  0
 35 44  2  0  0  0
 35 45  1  0  0  0
 35 68  1  0  0  0
 36 56  1  0  0  0
 36109  1  0  0  0
 37 39  1  0  0  0
 37 47  1  0  0  0
 37 66  1  0  0  0
 37110  1  0  0  0
 38 43  2  0  0  0
 38 46  1  0  0  0
 38 47  1  0  0  0
 39 64  1  0  0  0
 39 67  2  0  0  0
 40 52  1  0  0  0
 40 53  2  0  0  0
 40 58  1  0  0  0
 41111  1  0  0  0
 41112  1  0  0  0
 41113  1  0  0  0
 41 48  1  0  0  0
 42 43  1  0  0  0
 42 66  1  0  0  0
 42114  1  0  0  0
 42115  1  0  0  0
 43 44  1  0  0  0
 44116  1  0  0  0
 45 46  2  0  0  0
 45117  1  0  0  0
 46118  1  0  0  0
 47119  1  0  0  0
 47120  1  0  0  0
 48 56  1  0  0  0
 48 65  1  0  0  0
 48121  1  0  0  0
 49 50  1  0  0  0
 49 53  1  0  0  0
 49 64  1  0  0  0
 49122  1  0  0  0
 50 51  1  0  0  0
 50123  1  0  0  0
 50124  1  0  0  0
 51 52  1  0  0  0
 51125  1  0  0  0
 51126  1  0  0  0
 52127  1  0  0  0
 52128  1  0  0  0
 53 54  1  0  0  0
 54 55  2  0  0  0
 54129  1  0  0  0
 55 57  1  0  0  0
 55130  1  0  0  0
 56 69  2  0  0  0
 57 58  2  0  0  0
 57131  1  0  0  0
 58132  1  0  0  0
 59 60  1  0  0  0
 59 61  1  0  0  0
 59 62  1  0  0  0
 60133  1  0  0  0
 60134  1  0  0  0
 60135  1  0  0  0
 61136  1  0  0  0
 61137  1  0  0  0
 61138  1  0  0  0
 62139  1  0  0  0
 62140  1  0  0  0
 62141  1  0  0  0
 63 65  1  0  0  0
 63142  1  0  0  0
 63143  1  0  0  0
 63144  1  0  0  0
 64145  1  0  0  0
 65146  1  0  0  0
 68 79  1  0  0  0
 71 72  1  0  0  0
 71 84  2  0  0  0
 71147  1  0  0  0
 72 82  1  0  0  0
 72 85  2  0  0  0
 73148  1  0  0  0
 73149  1  0  0  0
 73150  1  0  0  0
 73 81  1  0  0  0
 74151  1  0  0  0
 74152  1  0  0  0
 74153  1  0  0  0
 74 82  1  0  0  0
 75 82  1  0  0  0
 75154  1  0  0  0
 75155  1  0  0  0
 75156  1  0  0  0
 76157  1  0  0  0
 76158  1  0  0  0
 76159  1  0  0  0
 76 83  1  0  0  0
 77 83  1  0  0  0
 77160  1  0  0  0
 77161  1  0  0  0
 77162  1  0  0  0
 78 82  1  0  0  0
 78 83  1  0  0  0
 78163  1  0  0  0
 78164  1  0  0  0
 79 81  1  0  0  0
 79165  1  0  0  0
 79166  1  0  0  0
 80 86  1  0  0  0
 80 87  1  0  0  0
 80167  1  0  0  0
 81 83  1  0  0  0
 81168  1  0  0  0
 84 86  1  0  0  0
 85 86  1  0  0  0
M  ISO  4   1 100  68 101  79 101  80 100
M  END
> <chiral flag>
0

> <version>
0

> <s_m_source_file>
/data/baiqing/PycharmProjects/Reinvent-master-3.2/result/LINK_invent/BTK/process_docking_weight1_custom_sum_contain_oxygen_bond_distance_aromatic_linkinvent_7_9_3/rearranged_h_0067.sdf

> <i_m_source_file_index>
11

> <r_mmod_Potential_Energy-OPLS-2005>
234.435943603516

> <r_mmod_Stretch_Energy-OPLS-2005>
76.1539077758789

> <r_mmod_Bend_Energy-OPLS-2005>
167.392807006836

> <r_mmod_Torsional_Energy-OPLS-2005>
227.943267822266

> <r_mmod_Improper_Torsional_Energy-OPLS-2005>
4.16576766967773

> <r_mmod_Van_der_Waal_Energy-OPLS-2005>
146.867446899414

> <r_mmod_Electrostatic_Energy-OPLS-2005>
-219.125213623047

> <r_mmod_Solvation_Energy-OPLS-2005>
-189.628280639648

> <b_mmod_Minimization_Converged-OPLS-2005>
0

> <r_mmod_RMS_Derivative-OPLS-2005>
3.57310676574707

$$$$
11
                    3D
 Structure written by MMmdl.
166174  0  0  1  0            999 V2000
  -30.7174  -14.4650   20.5455 C   0  0  0  0  0  0
  -30.4258  -12.2957   19.4161 C   0  0  0  0  0  0
  -29.4902  -12.4879   18.2042 C   0  0  0  0  0  0
  -28.0133  -12.3475   18.6241 C   0  0  0  0  0  0
  -27.6572  -13.1915   19.8758 C   0  0  2  0  0  0
  -28.7111  -12.9972   20.9927 C   0  0  0  0  0  0
  -25.2596  -13.8098   20.5721 C   0  0  0  0  0  0
  -24.1834  -13.0396   20.9194 C   0  0  0  0  0  0
  -24.6378  -11.6856   20.8752 C   0  0  0  0  0  0
  -23.9040  -10.4256   21.0410 C   0  0  0  0  0  0
  -24.3596   -9.4173   21.9185 C   0  0  0  0  0  0
  -23.6269   -8.2213   22.0753 C   0  0  0  0  0  0
  -22.4253   -8.0261   21.3540 C   0  0  0  0  0  0
  -21.9887   -9.0234   20.4643 C   0  0  0  0  0  0
  -22.7216  -10.2108   20.3054 C   0  0  0  0  0  0
  -21.6839   -6.0724   22.5272 C   0  0  0  0  0  0
  -21.4011   -6.5636   23.8205 C   0  0  0  0  0  0
  -21.3656   -5.6791   24.9170 C   0  0  0  0  0  0
  -21.6042   -4.3054   24.7225 C   0  0  0  0  0  0
  -21.8824   -3.8140   23.4350 C   0  0  0  0  0  0
  -21.9194   -4.6953   22.3403 C   0  0  0  0  0  0
  -22.7862  -13.5202   21.1859 C   0  0  0  0  0  0
  -22.1661   -4.2134   21.0982 F   0  0  0  0  0  0
  -21.5622   -3.4543   25.7745 F   0  0  0  0  0  0
  -30.0415  -13.2888   20.4276 N   0  0  0  0  0  0
  -26.3014  -12.9229   20.3422 N   0  0  0  0  0  0
  -25.9304  -11.6406   20.5808 N   0  0  0  0  0  0
  -22.0516  -12.8186   22.0416 N   0  0  0  0  0  0
  -25.4337  -15.1815   20.4139 N   0  0  0  0  0  0
  -31.8671  -14.6281   20.1310 O   0  0  0  0  0  0
  -21.6616   -6.8862   21.4233 O   0  0  0  0  0  0
  -22.3554  -14.5516   20.6716 O   0  0  0  0  0  0
  -24.6140  -31.8695   23.2113 C   0  0  0  0  0  0
  -25.9038  -32.4831   23.8401 C   0  0  1  0  0  0
  -27.2349  -27.4472   20.0895 C   0  0  0  0  0  0
  -25.5900  -33.8629   24.2336 N   0  0  0  0  0  0
  -23.4003  -30.4946   21.5520 C   0  0  2  0  0  0
  -24.8445  -28.9644   20.1139 C   0  0  0  0  0  0
  -22.7402  -29.4672   22.4997 C   0  0  0  0  0  0
  -18.0272  -28.1377   22.8501 C   0  0  0  0  0  0
  -24.1484  -36.7315   23.2637 C   0  0  0  0  0  0
  -25.9285  -30.8400   21.3606 C   0  0  0  0  0  0
  -26.0057  -29.4762   20.7066 C   0  0  0  0  0  0
  -27.2035  -28.7269   20.6877 C   0  0  0  0  0  0
  -26.0506  -26.9496   19.4927 C   0  0  0  0  0  0
  -24.8618  -27.7005   19.5034 C   0  0  0  0  0  0
  -23.6060  -29.8286   20.1657 C   0  0  0  0  0  0
  -25.4106  -36.3117   24.0341 C   0  0  1  0  0  0
  -20.5861  -28.3660   23.1325 C   0  0  2  0  0  0
  -20.6761  -26.9397   22.5415 C   0  0  0  0  0  0
  -19.5738  -26.6385   21.5211 C   0  0  0  0  0  0
  -18.1919  -26.7928   22.1625 C   0  0  0  0  0  0
  -19.1521  -28.8834   23.2911 C   0  0  0  0  0  0
  -18.9451  -30.1443   23.8915 C   0  0  0  0  0  0
  -17.6454  -30.6585   24.0567 C   0  0  0  0  0  0
  -25.9033  -34.9483   23.5133 C   0  0  0  0  0  0
  -16.5344  -29.9087   23.6325 C   0  0  0  0  0  0
  -16.7261  -28.6503   23.0351 C   0  0  0  0  0  0
  -26.4467  -31.6606   25.0722 C   0  0  0  0  0  0
  -25.3739  -31.3707   26.1473 C   0  0  0  0  0  0
  -27.0291  -30.3056   24.6071 C   0  0  0  0  0  0
  -27.6048  -32.4315   25.7482 C   0  0  0  0  0  0
  -27.5582  -37.1810   24.8465 C   0  0  0  0  0  0
  -21.4130  -29.3034   22.3736 N   0  0  0  0  0  0
  -26.4295  -37.3800   23.9416 N   0  0  0  0  0  0
  -24.6664  -31.0812   22.1003 N   0  0  0  0  0  0
  -23.4188  -28.8208   23.3024 O   0  0  0  0  0  0
  -28.4098  -26.7209   20.1084 O   0  0  0  0  0  0
  -26.5587  -34.8933   22.4686 O   0  0  0  0  0  0
  -23.5336  -32.1437   23.7523 O   0  0  0  0  0  0
  -32.6988  -18.7876   21.1708 C   0  0  0  0  0  0
  -30.9182  -17.6455   21.8389 C   0  0  0  0  0  0
  -30.7920  -19.8388   21.5489 C   0  0  0  0  0  0
  -34.1526  -18.8218   20.7529 C   0  0  0  0  0  0
  -30.8970  -16.3183   24.6251 C   0  0  0  0  0  0
  -29.3779  -16.2911   19.7860 C   0  0  0  0  0  0
  -30.8138  -15.5269   23.3093 C   0  0  0  0  0  0
  -29.5467  -24.5677   20.5441 C   0  0  0  0  0  0
  -29.2515  -23.0867   20.8568 C   0  0  0  0  0  0
  -28.2624  -25.2982   20.1156 C   0  0  0  0  0  0
  -30.4820  -22.1943   21.1024 C   0  0  0  0  0  0
  -30.2024  -16.3176   22.1192 C   0  0  2  0  0  0
  -32.1933  -17.5978   21.4746 N   0  0  0  0  0  0
  -32.0607  -19.9526   21.1785 N   0  0  0  0  0  0
  -30.1633  -18.7346   21.9121 N   0  0  0  0  0  0
  -29.9542  -15.5167   20.8998 N   0  0  0  0  0  0
  -29.9857  -20.9254   21.5352 O   0  0  0  0  0  0
  -31.4679  -12.3945   19.1065 H   0  0  0  0  0  0
  -30.3289  -11.2881   19.8233 H   0  0  0  0  0  0
  -29.7252  -11.7568   17.4300 H   0  0  0  0  0  0
  -29.6571  -13.4693   17.7569 H   0  0  0  0  0  0
  -27.8306  -11.2919   18.8291 H   0  0  0  0  0  0
  -27.3575  -12.6118   17.7936 H   0  0  0  0  0  0
  -27.6711  -14.2299   19.5635 H   0  0  0  0  0  0
  -28.6883  -11.9711   21.3623 H   0  0  0  0  0  0
  -28.4820  -13.6264   21.8544 H   0  0  0  0  0  0
  -25.2748   -9.5632   22.4751 H   0  0  0  0  0  0
  -23.9972   -7.4600   22.7467 H   0  0  0  0  0  0
  -21.0820   -8.8758   19.8946 H   0  0  0  0  0  0
  -22.3690  -10.9651   19.6156 H   0  0  0  0  0  0
  -21.2006   -7.6144   23.9708 H   0  0  0  0  0  0
  -21.1468   -6.0520   25.9072 H   0  0  0  0  0  0
  -22.0611   -2.7602   23.2854 H   0  0  0  0  0  0
  -22.4142  -11.9821   22.4752 H   0  0  0  0  0  0
  -21.1147  -13.1209   22.2675 H   0  0  0  0  0  0
  -24.6703  -15.8396   20.5270 H   0  0  0  0  0  0
  -26.2950  -15.6214   20.1181 H   0  0  0  0  0  0
  -26.7109  -32.5546   23.1169 H   0  0  0  0  0  0
  -25.0077  -33.9791   25.0498 H   0  0  0  0  0  0
  -22.6888  -31.3116   21.4156 H   0  0  0  0  0  0
  -23.3743  -35.9649   23.3315 H   0  0  0  0  0  0
  -24.3580  -36.8907   22.2046 H   0  0  0  0  0  0
  -23.7238  -37.6529   23.6633 H   0  0  0  0  0  0
  -26.0372  -31.6068   20.5924 H   0  0  0  0  0  0
  -26.8189  -30.8939   21.9756 H   0  0  0  0  0  0
  -28.1002  -29.1198   21.1458 H   0  0  0  0  0  0
  -26.0237  -25.9850   19.0086 H   0  0  0  0  0  0
  -23.9698  -27.3013   19.0401 H   0  0  0  0  0  0
  -23.7109  -30.6040   19.4058 H   0  0  0  0  0  0
  -22.7305  -29.2466   19.8722 H   0  0  0  0  0  0
  -25.1279  -36.1985   25.0834 H   0  0  0  0  0  0
  -20.9961  -28.3212   24.1444 H   0  0  0  0  0  0
  -20.5662  -26.2261   23.3597 H   0  0  0  0  0  0
  -21.6633  -26.7441   22.1207 H   0  0  0  0  0  0
  -19.6896  -25.6299   21.1232 H   0  0  0  0  0  0
  -19.6681  -27.3203   20.6748 H   0  0  0  0  0  0
  -17.4189  -26.6684   21.4026 H   0  0  0  0  0  0
  -18.0319  -26.0063   22.9015 H   0  0  0  0  0  0
  -19.7926  -30.7258   24.2290 H   0  0  0  0  0  0
  -17.5009  -31.6269   24.5162 H   0  0  0  0  0  0
  -15.5347  -30.3000   23.7637 H   0  0  0  0  0  0
  -15.8662  -28.0830   22.7058 H   0  0  0  0  0  0
  -24.5909  -30.7057   25.7813 H   0  0  0  0  0  0
  -24.8932  -32.2864   26.4929 H   0  0  0  0  0  0
  -25.8098  -30.8873   27.0225 H   0  0  0  0  0  0
  -26.2827  -29.6831   24.1126 H   0  0  0  0  0  0
  -27.4082  -29.7275   25.4508 H   0  0  0  0  0  0
  -27.8652  -30.4392   23.9202 H   0  0  0  0  0  0
  -27.2673  -33.3601   26.2097 H   0  0  0  0  0  0
  -28.3842  -32.6898   25.0300 H   0  0  0  0  0  0
  -28.0736  -31.8416   26.5368 H   0  0  0  0  0  0
  -28.2603  -38.0103   24.7520 H   0  0  0  0  0  0
  -28.1074  -36.2640   24.6279 H   0  0  0  0  0  0
  -27.2305  -37.1447   25.8868 H   0  0  0  0  0  0
  -20.9278  -29.8776   21.6983 H   0  0  0  0  0  0
  -26.0184  -38.2879   24.1416 H   0  0  0  0  0  0
  -34.5465  -17.8193   20.5847 H   0  0  0  0  0  0
  -34.7580  -19.2989   21.5228 H   0  0  0  0  0  0
  -34.2700  -19.3856   19.8280 H   0  0  0  0  0  0
  -31.2812  -15.6916   25.4312 H   0  0  0  0  0  0
  -29.9188  -16.6877   24.9309 H   0  0  0  0  0  0
  -31.5648  -17.1763   24.5363 H   0  0  0  0  0  0
  -29.1317  -15.6730   18.9221 H   0  0  0  0  0  0
  -30.0813  -17.0372   19.4155 H   0  0  0  0  0  0
  -28.4668  -16.8037   20.0974 H   0  0  0  0  0  0
  -30.2271  -14.6246   23.4861 H   0  0  0  0  0  0
  -31.8214  -15.1968   23.0528 H   0  0  0  0  0  0
  -30.2945  -24.6514   19.7552 H   0  0  0  0  0  0
  -29.9699  -25.0457   21.4283 H   0  0  0  0  0  0
  -28.6742  -22.6556   20.0374 H   0  0  0  0  0  0
  -28.6026  -23.0422   21.7328 H   0  0  0  0  0  0
  -27.4633  -25.0257   20.8082 H   0  0  0  0  0  0
  -27.9708  -24.9462   19.1246 H   0  0  0  0  0  0
  -31.1269  -22.6202   21.8721 H   0  0  0  0  0  0
  -31.0587  -22.1145   20.1794 H   0  0  0  0  0  0
  -29.1968  -16.5779   22.4552 H   0  0  0  0  0  0
  1 25  1  0  0  0
  1 30  2  0  0  0
  1 86  1  0  0  0
  2  3  1  0  0  0
  2 25  1  0  0  0
  2 88  1  0  0  0
  2 89  1  0  0  0
  3  4  1  0  0  0
  3 90  1  0  0  0
  3 91  1  0  0  0
  4  5  1  0  0  0
  4 92  1  0  0  0
  4 93  1  0  0  0
  5  6  1  0  0  0
  5 26  1  0  0  0
  5 94  1  0  0  0
  6 25  1  0  0  0
  6 95  1  0  0  0
  6 96  1  0  0  0
  7  8  2  0  0  0
  7 26  1  0  0  0
  7 29  1  0  0  0
  8  9  1  0  0  0
  8 22  1  0  0  0
  9 10  1  0  0  0
  9 27  2  0  0  0
 10 11  2  0  0  0
 10 15  1  0  0  0
 11 12  1  0  0  0
 11 97  1  0  0  0
 12 13  2  0  0  0
 12 98  1  0  0  0
 13 14  1  0  0  0
 13 31  1  0  0  0
 14 15  2  0  0  0
 14 99  1  0  0  0
 15100  1  0  0  0
 16 17  2  0  0  0
 16 21  1  0  0  0
 16 31  1  0  0  0
 17 18  1  0  0  0
 17101  1  0  0  0
 18 19  2  0  0  0
 18102  1  0  0  0
 19 20  1  0  0  0
 19 24  1  0  0  0
 20 21  2  0  0  0
 20103  1  0  0  0
 21 23  1  0  0  0
 22 28  1  0  0  0
 22 32  2  0  0  0
 26 27  1  0  0  0
 28104  1  0  0  0
 28105  1  0  0  0
 29106  1  0  0  0
 29107  1  0  0  0
 33 34  1  0  0  0
 33 66  1  0  0  0
 33 70  2  0  0  0
 34 36  1  0  0  0
 34 59  1  0  0  0
 34108  1  0  0  0
 35 44  2  0  0  0
 35 45  1  0  0  0
 35 68  1  0  0  0
 36 56  1  0  0  0
 36109  1  0  0  0
 37 39  1  0  0  0
 37 47  1  0  0  0
 37 66  1  0  0  0
 37110  1  0  0  0
 38 43  2  0  0  0
 38 46  1  0  0  0
 38 47  1  0  0  0
 39 64  1  0  0  0
 39 67  2  0  0  0
 40 52  1  0  0  0
 40 53  2  0  0  0
 40 58  1  0  0  0
 41111  1  0  0  0
 41112  1  0  0  0
 41113  1  0  0  0
 41 48  1  0  0  0
 42 43  1  0  0  0
 42 66  1  0  0  0
 42114  1  0  0  0
 42115  1  0  0  0
 43 44  1  0  0  0
 44116  1  0  0  0
 45 46  2  0  0  0
 45117  1  0  0  0
 46118  1  0  0  0
 47119  1  0  0  0
 47120  1  0  0  0
 48 56  1  0  0  0
 48 65  1  0  0  0
 48121  1  0  0  0
 49 50  1  0  0  0
 49 53  1  0  0  0
 49 64  1  0  0  0
 49122  1  0  0  0
 50 51  1  0  0  0
 50123  1  0  0  0
 50124  1  0  0  0
 51 52  1  0  0  0
 51125  1  0  0  0
 51126  1  0  0  0
 52127  1  0  0  0
 52128  1  0  0  0
 53 54  1  0  0  0
 54 55  2  0  0  0
 54129  1  0  0  0
 55 57  1  0  0  0
 55130  1  0  0  0
 56 69  2  0  0  0
 57 58  2  0  0  0
 57131  1  0  0  0
 58132  1  0  0  0
 59 60  1  0  0  0
 59 61  1  0  0  0
 59 62  1  0  0  0
 60133  1  0  0  0
 60134  1  0  0  0
 60135  1  0  0  0
 61136  1  0  0  0
 61137  1  0  0  0
 61138  1  0  0  0
 62139  1  0  0  0
 62140  1  0  0  0
 62141  1  0  0  0
 63 65  1  0  0  0
 63142  1  0  0  0
 63143  1  0  0  0
 63144  1  0  0  0
 64145  1  0  0  0
 65146  1  0  0  0
 68 80  1  0  0  0
 71 74  1  0  0  0
 71 83  2  0  0  0
 71 84  1  0  0  0
 72 82  1  0  0  0
 72 83  1  0  0  0
 72 85  2  0  0  0
 73 84  2  0  0  0
 73 85  1  0  0  0
 73 87  1  0  0  0
 74147  1  0  0  0
 74148  1  0  0  0
 74149  1  0  0  0
 75 77  1  0  0  0
 75150  1  0  0  0
 75151  1  0  0  0
 75152  1  0  0  0
 76 86  1  0  0  0
 76153  1  0  0  0
 76154  1  0  0  0
 76155  1  0  0  0
 77156  1  0  0  0
 77157  1  0  0  0
 77 82  1  0  0  0
 78 79  1  0  0  0
 78 80  1  0  0  0
 78158  1  0  0  0
 78159  1  0  0  0
 79 81  1  0  0  0
 79160  1  0  0  0
 79161  1  0  0  0
 80162  1  0  0  0
 80163  1  0  0  0
 81 87  1  0  0  0
 81164  1  0  0  0
 81165  1  0  0  0
 82 86  1  0  0  0
 82166  1  0  0  0
M  ISO  4   1 100  68 101  80 101  86 100
M  END
> <chiral flag>
0

> <version>
0

> <s_m_source_file>
/data/baiqing/PycharmProjects/Reinvent-master-3.2/result/LINK_invent/BTK/process_docking_weight1_custom_sum_contain_oxygen_bond_distance_aromatic_linkinvent_7_9_3/rearranged_h_0067.sdf

> <i_m_source_file_index>
12

> <r_mmod_Potential_Energy-OPLS-2005>
-653.780151367188

> <r_mmod_Stretch_Energy-OPLS-2005>
35.7146759033203

> <r_mmod_Bend_Energy-OPLS-2005>
108.586761474609

> <r_mmod_Torsional_Energy-OPLS-2005>
266.947479248047

> <r_mmod_Improper_Torsional_Energy-OPLS-2005>
8.55141925811768

> <r_mmod_Van_der_Waal_Energy-OPLS-2005>
184.787139892578

> <r_mmod_Electrostatic_Energy-OPLS-2005>
-1062.53063964844

> <r_mmod_Solvation_Energy-OPLS-2005>
-209.576019287109

> <b_mmod_Minimization_Converged-OPLS-2005>
0

> <r_mmod_RMS_Derivative-OPLS-2005>
1.23032903671265

$$$$
12
                    3D
 Structure written by MMmdl.
155163  0  0  1  0            999 V2000
  -30.5942  -14.9928   20.3591 C   0  0  0  0  0  0
  -30.4749  -12.6038   19.4785 C   0  0  0  0  0  0
  -29.5256  -12.4608   18.2600 C   0  0  0  0  0  0
  -28.0573  -12.2340   18.6914 C   0  0  0  0  0  0
  -27.6205  -13.1596   19.8501 C   0  0  2  0  0  0
  -28.7165  -13.2268   20.9564 C   0  0  0  0  0  0
  -25.2138  -13.7760   20.5449 C   0  0  0  0  0  0
  -24.1553  -13.0096   20.9221 C   0  0  0  0  0  0
  -24.6256  -11.6649   20.8914 C   0  0  0  0  0  0
  -23.8967  -10.4104   21.0517 C   0  0  0  0  0  0
  -24.3552   -9.4042   21.9269 C   0  0  0  0  0  0
  -23.6224   -8.2097   22.0780 C   0  0  0  0  0  0
  -22.4213   -8.0187   21.3545 C   0  0  0  0  0  0
  -21.9854   -9.0154   20.4646 C   0  0  0  0  0  0
  -22.7185  -10.2017   20.3095 C   0  0  0  0  0  0
  -21.6804   -6.0692   22.5282 C   0  0  0  0  0  0
  -21.3986   -6.5610   23.8214 C   0  0  0  0  0  0
  -21.3649   -5.6772   24.9184 C   0  0  0  0  0  0
  -21.6038   -4.3034   24.7241 C   0  0  0  0  0  0
  -21.8825   -3.8122   23.4365 C   0  0  0  0  0  0
  -21.9180   -4.6931   22.3417 C   0  0  0  0  0  0
  -22.7608  -13.4975   21.1866 C   0  0  0  0  0  0
  -22.1657   -4.2122   21.0998 F   0  0  0  0  0  0
  -21.5638   -3.4527   25.7760 F   0  0  0  0  0  0
  -29.9821  -13.7143   20.3500 N   0  0  0  0  0  0
  -26.2784  -12.8963   20.3485 N   0  0  0  0  0  0
  -25.9208  -11.6202   20.6099 N   0  0  0  0  0  0
  -22.0284  -12.8049   22.0503 N   0  0  0  0  0  0
  -25.3013  -15.1417   20.3277 N   0  0  0  0  0  0
  -31.8232  -14.9642   20.2100 O   0  0  0  0  0  0
  -21.6561   -6.8813   21.4238 O   0  0  0  0  0  0
  -22.3325  -14.5307   20.6728 O   0  0  0  0  0  0
  -24.6332  -31.8530   23.1947 C   0  0  0  0  0  0
  -25.9145  -32.4746   23.8313 C   0  0  1  0  0  0
  -27.2591  -27.2540   20.1426 C   0  0  0  0  0  0
  -25.5939  -33.8549   24.2249 N   0  0  0  0  0  0
  -23.4335  -30.4694   21.5378 C   0  0  2  0  0  0
  -24.8912  -28.9100   20.1146 C   0  0  0  0  0  0
  -22.7518  -29.4580   22.4914 C   0  0  0  0  0  0
  -18.0299  -28.1387   22.8477 C   0  0  0  0  0  0
  -24.1498  -36.7281   23.2639 C   0  0  0  0  0  0
  -25.9783  -30.7655   21.3742 C   0  0  0  0  0  0
  -26.0603  -29.3843   20.7213 C   0  0  0  0  0  0
  -27.2428  -28.5721   20.7190 C   0  0  0  0  0  0
  -26.0577  -26.8456   19.5136 C   0  0  0  0  0  0
  -24.8963  -27.6483   19.4986 C   0  0  0  0  0  0
  -23.6565  -29.7938   20.1578 C   0  0  0  0  0  0
  -25.4120  -36.3067   24.0326 C   0  0  1  0  0  0
  -20.5905  -28.3708   23.1270 C   0  0  2  0  0  0
  -20.6793  -26.9424   22.5414 C   0  0  0  0  0  0
  -19.5770  -26.6384   21.5217 C   0  0  0  0  0  0
  -18.1949  -26.7930   22.1620 C   0  0  0  0  0  0
  -19.1550  -28.8863   23.2867 C   0  0  0  0  0  0
  -18.9469  -30.1463   23.8889 C   0  0  0  0  0  0
  -17.6467  -30.6588   24.0556 C   0  0  0  0  0  0
  -25.9055  -34.9437   23.5088 C   0  0  0  0  0  0
  -16.5360  -29.9079   23.6331 C   0  0  0  0  0  0
  -16.7285  -28.6496   23.0350 C   0  0  0  0  0  0
  -26.4513  -31.6570   25.0702 C   0  0  0  0  0  0
  -25.3725  -31.3716   26.1416 C   0  0  0  0  0  0
  -27.0360  -30.2990   24.6175 C   0  0  0  0  0  0
  -27.6066  -32.4309   25.7478 C   0  0  0  0  0  0
  -27.5581  -37.1796   24.8464 C   0  0  0  0  0  0
  -21.4224  -29.3040   22.3650 N   0  0  0  0  0  0
  -26.4295  -37.3763   23.9406 N   0  0  0  0  0  0
  -24.7004  -31.0473   22.0926 N   0  0  0  0  0  0
  -23.4199  -28.8138   23.3039 O   0  0  0  0  0  0
  -28.3826  -26.3793   20.2000 O   0  0  0  0  0  0
  -26.5629  -34.8918   22.4657 O   0  0  0  0  0  0
  -23.5475  -32.1356   23.7232 O   0  0  0  0  0  0
  -30.2691  -20.1621   19.3202 C   0  0  0  0  0  0
  -29.9941  -20.0144   21.6160 C   0  0  0  0  0  0
  -29.8092  -20.8394   20.4713 C   0  0  0  0  0  0
  -30.4790  -18.0215   20.3846 C   0  0  0  0  0  0
  -28.9041  -22.1808   20.4250 C   0  0  0  0  0  0
  -29.3578  -23.7505   20.3839 C   0  0  0  0  0  0
  -28.1910  -24.8795   20.1344 C   0  0  0  0  0  0
  -29.8241  -16.4982   20.1938 C   0  0  0  0  0  0
  -28.5936  -16.5945   21.1491 C   0  0  0  0  0  0
  -29.3502  -16.4998   18.6809 C   0  0  0  0  0  0
  -30.6134  -18.8337   19.3042 N   0  0  0  0  0  0
  -30.3567  -18.6800   21.5679 N   0  0  0  0  0  0
  -27.9076  -17.7425   21.0841 F   0  0  0  0  0  0
  -27.6975  -15.7124   20.8548 F   0  0  0  0  0  0
  -28.9374  -16.3655   22.4210 F   0  0  0  0  0  0
  -30.3915  -16.5800   17.8429 F   0  0  0  0  0  0
  -28.7390  -15.4056   18.2771 F   0  0  0  0  0  0
  -28.4832  -17.4794   18.3967 F   0  0  0  0  0  0
  -31.4907  -12.7816   19.1215 H   0  0  0  0  0  0
  -30.5295  -11.6674   20.0366 H   0  0  0  0  0  0
  -29.8530  -11.6268   17.6378 H   0  0  0  0  0  0
  -29.6066  -13.3363   17.6188 H   0  0  0  0  0  0
  -27.9700  -11.1952   19.0130 H   0  0  0  0  0  0
  -27.3859  -12.3409   17.8386 H   0  0  0  0  0  0
  -27.4838  -14.1019   19.3670 H   0  0  0  0  0  0
  -28.8573  -12.2300   21.3777 H   0  0  0  0  0  0
  -28.4285  -13.8195   21.8221 H   0  0  0  0  0  0
  -25.2699   -9.5509   22.4847 H   0  0  0  0  0  0
  -23.9917   -7.4472   22.7486 H   0  0  0  0  0  0
  -21.0795   -8.8678   19.8942 H   0  0  0  0  0  0
  -22.3683  -10.9573   19.6202 H   0  0  0  0  0  0
  -21.1968   -7.6119   23.9710 H   0  0  0  0  0  0
  -21.1467   -6.0507   25.9084 H   0  0  0  0  0  0
  -22.0618   -2.7583   23.2870 H   0  0  0  0  0  0
  -22.3902  -11.9721   22.4907 H   0  0  0  0  0  0
  -21.0926  -13.1117   22.2753 H   0  0  0  0  0  0
  -24.5166  -15.7669   20.4696 H   0  0  0  0  0  0
  -26.1840  -15.6206   20.1995 H   0  0  0  0  0  0
  -26.7207  -32.5410   23.1056 H   0  0  0  0  0  0
  -25.0102  -33.9682   25.0405 H   0  0  0  0  0  0
  -22.7309  -31.2911   21.3845 H   0  0  0  0  0  0
  -23.3765  -35.9606   23.3290 H   0  0  0  0  0  0
  -24.3588  -36.8911   22.2055 H   0  0  0  0  0  0
  -23.7250  -37.6475   23.6669 H   0  0  0  0  0  0
  -26.1125  -31.5231   20.6011 H   0  0  0  0  0  0
  -26.8563  -30.8237   22.0055 H   0  0  0  0  0  0
  -28.1371  -28.9366   21.2048 H   0  0  0  0  0  0
  -25.9891  -25.8811   19.0340 H   0  0  0  0  0  0
  -24.0018  -27.2776   19.0172 H   0  0  0  0  0  0
  -23.7770  -30.5654   19.3967 H   0  0  0  0  0  0
  -22.7777  -29.2203   19.8566 H   0  0  0  0  0  0
  -25.1305  -36.1905   25.0818 H   0  0  0  0  0  0
  -20.9998  -28.3290   24.1390 H   0  0  0  0  0  0
  -20.5709  -26.2314   23.3618 H   0  0  0  0  0  0
  -21.6661  -26.7452   22.1199 H   0  0  0  0  0  0
  -19.6938  -25.6290   21.1259 H   0  0  0  0  0  0
  -19.6715  -27.3183   20.6738 H   0  0  0  0  0  0
  -17.4224  -26.6683   21.4014 H   0  0  0  0  0  0
  -18.0335  -26.0070   22.9013 H   0  0  0  0  0  0
  -19.7942  -30.7282   24.2260 H   0  0  0  0  0  0
  -17.5016  -31.6267   24.5158 H   0  0  0  0  0  0
  -15.5358  -30.2976   23.7656 H   0  0  0  0  0  0
  -15.8689  -28.0811   22.7071 H   0  0  0  0  0  0
  -24.5904  -30.7072   25.7729 H   0  0  0  0  0  0
  -24.8921  -32.2885   26.4840 H   0  0  0  0  0  0
  -25.8038  -30.8883   27.0195 H   0  0  0  0  0  0
  -26.2936  -29.6730   24.1216 H   0  0  0  0  0  0
  -27.4069  -29.7263   25.4686 H   0  0  0  0  0  0
  -27.8805  -30.4274   23.9400 H   0  0  0  0  0  0
  -27.2677  -33.3616   26.2046 H   0  0  0  0  0  0
  -28.3885  -32.6856   25.0309 H   0  0  0  0  0  0
  -28.0727  -31.8434   26.5401 H   0  0  0  0  0  0
  -28.2597  -38.0098   24.7516 H   0  0  0  0  0  0
  -28.1087  -36.2629   24.6289 H   0  0  0  0  0  0
  -27.2301  -37.1436   25.8870 H   0  0  0  0  0  0
  -20.9428  -29.8727   21.6815 H   0  0  0  0  0  0
  -26.0176  -38.2837   24.1403 H   0  0  0  0  0  0
  -30.2234  -20.6436   18.3546 H   0  0  0  0  0  0
  -29.7109  -20.3809   22.5923 H   0  0  0  0  0  0
  -28.2124  -22.0909   21.2641 H   0  0  0  0  0  0
  -28.2661  -22.0429   19.5502 H   0  0  0  0  0  0
  -30.1094  -23.8734   19.6036 H   0  0  0  0  0  0
  -29.8648  -23.9821   21.3211 H   0  0  0  0  0  0
  -27.3875  -24.6508   20.8353 H   0  0  0  0  0  0
  -27.7865  -24.6625   19.1457 H   0  0  0  0  0  0
  1 25  1  0  0  0
  1 30  2  0  0  0
  1 78  1  0  0  0
  2  3  1  0  0  0
  2 25  1  0  0  0
  2 89  1  0  0  0
  2 90  1  0  0  0
  3  4  1  0  0  0
  3 91  1  0  0  0
  3 92  1  0  0  0
  4  5  1  0  0  0
  4 93  1  0  0  0
  4 94  1  0  0  0
  5  6  1  0  0  0
  5 26  1  0  0  0
  5 95  1  0  0  0
  6 25  1  0  0  0
  6 96  1  0  0  0
  6 97  1  0  0  0
  7  8  2  0  0  0
  7 26  1  0  0  0
  7 29  1  0  0  0
  8  9  1  0  0  0
  8 22  1  0  0  0
  9 10  1  0  0  0
  9 27  2  0  0  0
 10 11  2  0  0  0
 10 15  1  0  0  0
 11 12  1  0  0  0
 11 98  1  0  0  0
 12 13  2  0  0  0
 12 99  1  0  0  0
 13 14  1  0  0  0
 13 31  1  0  0  0
 14 15  2  0  0  0
 14100  1  0  0  0
 15101  1  0  0  0
 16 17  2  0  0  0
 16 21  1  0  0  0
 16 31  1  0  0  0
 17 18  1  0  0  0
 17102  1  0  0  0
 18 19  2  0  0  0
 18103  1  0  0  0
 19 20  1  0  0  0
 19 24  1  0  0  0
 20 21  2  0  0  0
 20104  1  0  0  0
 21 23  1  0  0  0
 22 28  1  0  0  0
 22 32  2  0  0  0
 26 27  1  0  0  0
 28105  1  0  0  0
 28106  1  0  0  0
 29107  1  0  0  0
 29108  1  0  0  0
 33 34  1  0  0  0
 33 66  1  0  0  0
 33 70  2  0  0  0
 34 36  1  0  0  0
 34 59  1  0  0  0
 34109  1  0  0  0
 35 44  2  0  0  0
 35 45  1  0  0  0
 35 68  1  0  0  0
 36 56  1  0  0  0
 36110  1  0  0  0
 37 39  1  0  0  0
 37 47  1  0  0  0
 37 66  1  0  0  0
 37111  1  0  0  0
 38 43  2  0  0  0
 38 46  1  0  0  0
 38 47  1  0  0  0
 39 64  1  0  0  0
 39 67  2  0  0  0
 40 52  1  0  0  0
 40 53  2  0  0  0
 40 58  1  0  0  0
 41112  1  0  0  0
 41113  1  0  0  0
 41114  1  0  0  0
 41 48  1  0  0  0
 42 43  1  0  0  0
 42 66  1  0  0  0
 42115  1  0  0  0
 42116  1  0  0  0
 43 44  1  0  0  0
 44117  1  0  0  0
 45 46  2  0  0  0
 45118  1  0  0  0
 46119  1  0  0  0
 47120  1  0  0  0
 47121  1  0  0  0
 48 56  1  0  0  0
 48 65  1  0  0  0
 48122  1  0  0  0
 49 50  1  0  0  0
 49 53  1  0  0  0
 49 64  1  0  0  0
 49123  1  0  0  0
 50 51  1  0  0  0
 50124  1  0  0  0
 50125  1  0  0  0
 51 52  1  0  0  0
 51126  1  0  0  0
 51127  1  0  0  0
 52128  1  0  0  0
 52129  1  0  0  0
 53 54  1  0  0  0
 54 55  2  0  0  0
 54130  1  0  0  0
 55 57  1  0  0  0
 55131  1  0  0  0
 56 69  2  0  0  0
 57 58  2  0  0  0
 57132  1  0  0  0
 58133  1  0  0  0
 59 60  1  0  0  0
 59 61  1  0  0  0
 59 62  1  0  0  0
 60134  1  0  0  0
 60135  1  0  0  0
 60136  1  0  0  0
 61137  1  0  0  0
 61138  1  0  0  0
 61139  1  0  0  0
 62140  1  0  0  0
 62141  1  0  0  0
 62142  1  0  0  0
 63 65  1  0  0  0
 63143  1  0  0  0
 63144  1  0  0  0
 63145  1  0  0  0
 64146  1  0  0  0
 65147  1  0  0  0
 68 77  1  0  0  0
 71 73  2  0  0  0
 71 81  1  0  0  0
 71148  1  0  0  0
 72 73  1  0  0  0
 72 82  2  0  0  0
 72149  1  0  0  0
 73 75  1  0  0  0
 74 78  1  0  0  0
 74 81  2  0  0  0
 74 82  1  0  0  0
 75 76  1  0  0  0
 75150  1  0  0  0
 75151  1  0  0  0
 76 77  1  0  0  0
 76152  1  0  0  0
 76153  1  0  0  0
 77154  1  0  0  0
 77155  1  0  0  0
 78 79  1  0  0  0
 78 80  1  0  0  0
 79 83  1  0  0  0
 79 84  1  0  0  0
 79 85  1  0  0  0
 80 86  1  0  0  0
 80 87  1  0  0  0
 80 88  1  0  0  0
M  ISO  4   1 100  68 101  77 101  78 100
M  END
> <chiral flag>
0

> <version>
0

> <s_m_source_file>
/data/baiqing/PycharmProjects/Reinvent-master-3.2/result/LINK_invent/BTK/process_docking_weight1_custom_sum_contain_oxygen_bond_distance_aromatic_linkinvent_7_9_3/rearranged_h_0067.sdf

> <i_m_source_file_index>
13

> <r_mmod_Potential_Energy-OPLS-2005>
616.57177734375

> <r_mmod_Stretch_Energy-OPLS-2005>
213.409225463867

> <r_mmod_Bend_Energy-OPLS-2005>
294.149139404297

> <r_mmod_Torsional_Energy-OPLS-2005>
255.799575805664

> <r_mmod_Improper_Torsional_Energy-OPLS-2005>
17.8076972961426

> <r_mmod_Van_der_Waal_Energy-OPLS-2005>
213.395324707031

> <r_mmod_Electrostatic_Energy-OPLS-2005>
-358.228881835938

> <r_mmod_Solvation_Energy-OPLS-2005>
-181.426467895508

> <b_mmod_Minimization_Converged-OPLS-2005>
0

> <r_mmod_RMS_Derivative-OPLS-2005>
1.18612146377563

$$$$
13
                    3D
 Structure written by MMmdl.
176184  0  0  1  0            999 V2000
  -30.7934  -14.5894   20.3963 C   0  0  0  0  0  0
  -30.4014  -12.3585   19.4461 C   0  0  0  0  0  0
  -29.4798  -12.4232   18.2160 C   0  0  0  0  0  0
  -28.0074  -12.2473   18.6359 C   0  0  0  0  0  0
  -27.6143  -13.1646   19.8185 C   0  0  2  0  0  0
  -28.6876  -13.1929   20.9372 C   0  0  0  0  0  0
  -25.2437  -13.7992   20.5691 C   0  0  0  0  0  0
  -24.1703  -13.0309   20.9245 C   0  0  0  0  0  0
  -24.6275  -11.6791   20.8843 C   0  0  0  0  0  0
  -23.8982  -10.4215   21.0487 C   0  0  0  0  0  0
  -24.3583   -9.4143   21.9235 C   0  0  0  0  0  0
  -23.6277   -8.2178   22.0767 C   0  0  0  0  0  0
  -22.4252   -8.0249   21.3552 C   0  0  0  0  0  0
  -21.9875   -9.0217   20.4650 C   0  0  0  0  0  0
  -22.7195  -10.2094   20.3087 C   0  0  0  0  0  0
  -21.6823   -6.0735   22.5297 C   0  0  0  0  0  0
  -21.3988   -6.5643   23.8231 C   0  0  0  0  0  0
  -21.3643   -5.6788   24.9188 C   0  0  0  0  0  0
  -21.6054   -4.3056   24.7232 C   0  0  0  0  0  0
  -21.8817   -3.8149   23.4352 C   0  0  0  0  0  0
  -21.9167   -4.6973   22.3410 C   0  0  0  0  0  0
  -22.7762  -13.5175   21.1898 C   0  0  0  0  0  0
  -22.1621   -4.2154   21.0985 F   0  0  0  0  0  0
  -21.5649   -3.4541   25.7749 F   0  0  0  0  0  0
  -30.0045  -13.4645   20.3391 N   0  0  0  0  0  0
  -26.2793  -12.9046   20.3288 N   0  0  0  0  0  0
  -25.9176  -11.6281   20.5887 N   0  0  0  0  0  0
  -22.0403  -12.8184   22.0472 N   0  0  0  0  0  0
  -25.4056  -15.1703   20.4103 N   0  0  0  0  0  0
  -32.0047  -14.4178   20.3088 O   0  0  0  0  0  0
  -21.6594   -6.8877   21.4259 O   0  0  0  0  0  0
  -22.3466  -14.5492   20.6767 O   0  0  0  0  0  0
  -24.6120  -31.8691   23.2066 C   0  0  0  0  0  0
  -25.9015  -32.4842   23.8362 C   0  0  1  0  0  0
  -27.2520  -27.4465   20.0947 C   0  0  0  0  0  0
  -25.5867  -33.8637   24.2300 N   0  0  0  0  0  0
  -23.4009  -30.4858   21.5498 C   0  0  2  0  0  0
  -24.8484  -28.9472   20.1144 C   0  0  0  0  0  0
  -22.7423  -29.4638   22.5033 C   0  0  0  0  0  0
  -18.0270  -28.1379   22.8507 C   0  0  0  0  0  0
  -24.1478  -36.7321   23.2636 C   0  0  0  0  0  0
  -25.9254  -30.8364   21.3538 C   0  0  0  0  0  0
  -26.0047  -29.4696   20.7058 C   0  0  0  0  0  0
  -27.2048  -28.7270   20.6871 C   0  0  0  0  0  0
  -26.0777  -26.9299   19.4987 C   0  0  0  0  0  0
  -24.8815  -27.6793   19.5043 C   0  0  0  0  0  0
  -23.6064  -29.8105   20.1652 C   0  0  0  0  0  0
  -25.4107  -36.3138   24.0333 C   0  0  1  0  0  0
  -20.5866  -28.3648   23.1355 C   0  0  2  0  0  0
  -20.6761  -26.9401   22.5433 C   0  0  0  0  0  0
  -19.5736  -26.6399   21.5232 C   0  0  0  0  0  0
  -18.1916  -26.7927   22.1643 C   0  0  0  0  0  0
  -19.1522  -28.8840   23.2921 C   0  0  0  0  0  0
  -18.9441  -30.1451   23.8917 C   0  0  0  0  0  0
  -17.6436  -30.6591   24.0573 C   0  0  0  0  0  0
  -25.9039  -34.9497   23.5134 C   0  0  0  0  0  0
  -16.5333  -29.9090   23.6325 C   0  0  0  0  0  0
  -16.7260  -28.6515   23.0337 C   0  0  0  0  0  0
  -26.4448  -31.6609   25.0677 C   0  0  0  0  0  0
  -25.3716  -31.3647   26.1415 C   0  0  0  0  0  0
  -27.0233  -30.3064   24.5988 C   0  0  0  0  0  0
  -27.6059  -32.4285   25.7428 C   0  0  0  0  0  0
  -27.5590  -37.1821   24.8476 C   0  0  0  0  0  0
  -21.4160  -29.2991   22.3763 N   0  0  0  0  0  0
  -26.4299  -37.3821   23.9419 N   0  0  0  0  0  0
  -24.6652  -31.0778   22.0968 N   0  0  0  0  0  0
  -23.4193  -28.8215   23.3099 O   0  0  0  0  0  0
  -28.4686  -26.7917   20.0910 O   0  0  0  0  0  0
  -26.5618  -34.8954   22.4704 O   0  0  0  0  0  0
  -23.5320  -32.1434   23.7484 O   0  0  0  0  0  0
  -30.6135  -20.4837   20.9297 C   0  0  0  0  0  0
  -29.2663  -20.8765   20.9344 C   0  0  0  0  0  0
  -28.3425  -19.8939   21.3376 C   0  0  0  0  0  0
  -30.0355  -18.3485   21.5202 C   0  0  0  0  0  0
  -26.0508  -19.7127   20.2385 C   0  0  0  0  0  0
  -29.6760  -16.2157   22.8257 C   0  0  0  0  0  0
  -26.9242  -24.5176   21.8280 C   0  0  0  0  0  0
  -29.0368  -25.6168   22.5720 C   0  0  0  0  0  0
  -28.8647  -22.2883   20.5018 C   0  0  0  0  0  0
  -26.8487  -20.1469   21.4753 C   0  0  0  0  0  0
  -29.1494  -23.3368   21.5948 C   0  0  0  0  0  0
  -28.5699  -25.3591   20.0796 C   0  0  0  0  0  0
  -30.4339  -16.8670   21.6385 C   0  0  1  0  0  0
  -30.3535  -16.1138   20.2475 C   0  0  0  0  0  0
  -28.4140  -24.7080   21.4895 C   0  0  0  0  0  0
  -28.9739  -16.3324   19.5494 C   0  0  0  0  0  0
  -31.3842  -16.7770   19.2319 C   0  0  0  0  0  0
  -30.9915  -19.2306   21.2449 N   0  0  0  0  0  0
  -28.7417  -18.6371   21.6064 N   0  0  0  0  0  0
  -31.6928  -16.8145   22.0952 F   0  0  0  0  0  0
  -28.7112  -17.5651   19.1188 F   0  0  0  0  0  0
  -27.9865  -16.0213   20.3757 F   0  0  0  0  0  0
  -28.8844  -15.5851   18.4530 F   0  0  0  0  0  0
  -31.0775  -18.0088   18.8262 F   0  0  0  0  0  0
  -32.6360  -16.8582   19.6941 F   0  0  0  0  0  0
  -31.4510  -16.0581   18.1067 F   0  0  0  0  0  0
  -31.4414  -12.4093   19.1185 H   0  0  0  0  0  0
  -30.3066  -11.4001   19.9600 H   0  0  0  0  0  0
  -29.7585  -11.6422   17.5103 H   0  0  0  0  0  0
  -29.6148  -13.3681   17.6908 H   0  0  0  0  0  0
  -27.8614  -11.2045   18.9178 H   0  0  0  0  0  0
  -27.3474  -12.4175   17.7823 H   0  0  0  0  0  0
  -27.5174  -14.1201   19.3430 H   0  0  0  0  0  0
  -28.7133  -12.2320   21.4567 H   0  0  0  0  0  0
  -28.4416  -13.9352   21.6943 H   0  0  0  0  0  0
  -25.2759   -9.5619   22.4765 H   0  0  0  0  0  0
  -24.0003   -7.4554   22.7460 H   0  0  0  0  0  0
  -21.0807   -8.8744   19.8948 H   0  0  0  0  0  0
  -22.3708  -10.9636   19.6167 H   0  0  0  0  0  0
  -21.1973   -7.6147   23.9743 H   0  0  0  0  0  0
  -21.1457   -6.0513   25.9087 H   0  0  0  0  0  0
  -22.0614   -2.7615   23.2848 H   0  0  0  0  0  0
  -22.3973  -11.9834   22.4866 H   0  0  0  0  0  0
  -21.1036  -13.1243   22.2674 H   0  0  0  0  0  0
  -24.6511  -15.8325   20.5522 H   0  0  0  0  0  0
  -26.2914  -15.6200   20.2083 H   0  0  0  0  0  0
  -26.7099  -32.5563   23.1136 H   0  0  0  0  0  0
  -24.9970  -33.9798   25.0419 H   0  0  0  0  0  0
  -22.6897  -31.3031   21.4114 H   0  0  0  0  0  0
  -23.3754  -35.9648   23.3330 H   0  0  0  0  0  0
  -24.3560  -36.8907   22.2048 H   0  0  0  0  0  0
  -23.7225  -37.6528   23.6628 H   0  0  0  0  0  0
  -26.0207  -31.5969   20.5786 H   0  0  0  0  0  0
  -26.8206  -30.9026   21.9598 H   0  0  0  0  0  0
  -28.1039  -29.1356   21.1287 H   0  0  0  0  0  0
  -26.0740  -25.9666   19.0124 H   0  0  0  0  0  0
  -23.9964  -27.2788   19.0292 H   0  0  0  0  0  0
  -23.7116  -30.5840   19.4048 H   0  0  0  0  0  0
  -22.7311  -29.2259   19.8712 H   0  0  0  0  0  0
  -25.1293  -36.2007   25.0825 H   0  0  0  0  0  0
  -20.9945  -28.3186   24.1481 H   0  0  0  0  0  0
  -20.5680  -26.2256   23.3596 H   0  0  0  0  0  0
  -21.6625  -26.7453   22.1210 H   0  0  0  0  0  0
  -19.6878  -25.6317   21.1232 H   0  0  0  0  0  0
  -19.6658  -27.3237   20.6777 H   0  0  0  0  0  0
  -17.4184  -26.6706   21.4039 H   0  0  0  0  0  0
  -18.0303  -26.0064   22.9032 H   0  0  0  0  0  0
  -19.7904  -30.7297   24.2291 H   0  0  0  0  0  0
  -17.4966  -31.6266   24.5170 H   0  0  0  0  0  0
  -15.5327  -30.2981   23.7628 H   0  0  0  0  0  0
  -15.8672  -28.0844   22.6997 H   0  0  0  0  0  0
  -24.5953  -30.6935   25.7719 H   0  0  0  0  0  0
  -24.8806  -32.2746   26.4869 H   0  0  0  0  0  0
  -25.8073  -30.8817   27.0174 H   0  0  0  0  0  0
  -26.2707  -29.6873   24.1080 H   0  0  0  0  0  0
  -27.4061  -29.7257   25.4395 H   0  0  0  0  0  0
  -27.8543  -30.4397   23.9050 H   0  0  0  0  0  0
  -27.2741  -33.3608   26.2004 H   0  0  0  0  0  0
  -28.3857  -32.6798   25.0224 H   0  0  0  0  0  0
  -28.0729  -31.8384   26.5322 H   0  0  0  0  0  0
  -28.2644  -38.0088   24.7528 H   0  0  0  0  0  0
  -28.1049  -36.2632   24.6303 H   0  0  0  0  0  0
  -27.2303  -37.1470   25.8875 H   0  0  0  0  0  0
  -20.9346  -29.8660   21.6941 H   0  0  0  0  0  0
  -26.0206  -38.2915   24.1399 H   0  0  0  0  0  0
  -31.3958  -21.1716   20.6476 H   0  0  0  0  0  0
  -24.9841  -19.8671   20.3992 H   0  0  0  0  0  0
  -26.2041  -18.6555   20.0182 H   0  0  0  0  0  0
  -26.3449  -20.2883   19.3613 H   0  0  0  0  0  0
  -30.0204  -15.2063   23.0436 H   0  0  0  0  0  0
  -28.6011  -16.1711   22.6641 H   0  0  0  0  0  0
  -29.8226  -16.8004   23.7347 H   0  0  0  0  0  0
  -26.3953  -25.4686   21.8606 H   0  0  0  0  0  0
  -26.7980  -24.0488   22.8051 H   0  0  0  0  0  0
  -26.4171  -23.8909   21.0961 H   0  0  0  0  0  0
  -28.4978  -26.5592   22.6704 H   0  0  0  0  0  0
  -30.0793  -25.8461   22.3513 H   0  0  0  0  0  0
  -29.0152  -25.1405   23.5524 H   0  0  0  0  0  0
  -27.8204  -22.3078   20.1924 H   0  0  0  0  0  0
  -29.4217  -22.5452   19.5992 H   0  0  0  0  0  0
  -26.6561  -21.1945   21.7027 H   0  0  0  0  0  0
  -26.4878  -19.5970   22.3433 H   0  0  0  0  0  0
  -30.2289  -23.4952   21.6405 H   0  0  0  0  0  0
  -28.8825  -22.9003   22.5598 H   0  0  0  0  0  0
  -29.5788  -25.1543   19.7152 H   0  0  0  0  0  0
  -27.9173  -24.8937   19.3423 H   0  0  0  0  0  0
  1 25  1  0  0  0
  1 30  2  0  0  0
  1 84  1  0  0  0
  2  3  1  0  0  0
  2 25  1  0  0  0
  2 97  1  0  0  0
  2 98  1  0  0  0
  3  4  1  0  0  0
  3 99  1  0  0  0
  3100  1  0  0  0
  4  5  1  0  0  0
  4101  1  0  0  0
  4102  1  0  0  0
  5  6  1  0  0  0
  5 26  1  0  0  0
  5103  1  0  0  0
  6 25  1  0  0  0
  6104  1  0  0  0
  6105  1  0  0  0
  7  8  2  0  0  0
  7 26  1  0  0  0
  7 29  1  0  0  0
  8  9  1  0  0  0
  8 22  1  0  0  0
  9 10  1  0  0  0
  9 27  2  0  0  0
 10 11  2  0  0  0
 10 15  1  0  0  0
 11 12  1  0  0  0
 11106  1  0  0  0
 12 13  2  0  0  0
 12107  1  0  0  0
 13 14  1  0  0  0
 13 31  1  0  0  0
 14 15  2  0  0  0
 14108  1  0  0  0
 15109  1  0  0  0
 16 17  2  0  0  0
 16 21  1  0  0  0
 16 31  1  0  0  0
 17 18  1  0  0  0
 17110  1  0  0  0
 18 19  2  0  0  0
 18111  1  0  0  0
 19 20  1  0  0  0
 19 24  1  0  0  0
 20 21  2  0  0  0
 20112  1  0  0  0
 21 23  1  0  0  0
 22 28  1  0  0  0
 22 32  2  0  0  0
 26 27  1  0  0  0
 28113  1  0  0  0
 28114  1  0  0  0
 29115  1  0  0  0
 29116  1  0  0  0
 33 34  1  0  0  0
 33 66  1  0  0  0
 33 70  2  0  0  0
 34 36  1  0  0  0
 34 59  1  0  0  0
 34117  1  0  0  0
 35 44  2  0  0  0
 35 45  1  0  0  0
 35 68  1  0  0  0
 36 56  1  0  0  0
 36118  1  0  0  0
 37 39  1  0  0  0
 37 47  1  0  0  0
 37 66  1  0  0  0
 37119  1  0  0  0
 38 43  2  0  0  0
 38 46  1  0  0  0
 38 47  1  0  0  0
 39 64  1  0  0  0
 39 67  2  0  0  0
 40 52  1  0  0  0
 40 53  2  0  0  0
 40 58  1  0  0  0
 41120  1  0  0  0
 41121  1  0  0  0
 41122  1  0  0  0
 41 48  1  0  0  0
 42 43  1  0  0  0
 42 66  1  0  0  0
 42123  1  0  0  0
 42124  1  0  0  0
 43 44  1  0  0  0
 44125  1  0  0  0
 45 46  2  0  0  0
 45126  1  0  0  0
 46127  1  0  0  0
 47128  1  0  0  0
 47129  1  0  0  0
 48 56  1  0  0  0
 48 65  1  0  0  0
 48130  1  0  0  0
 49 50  1  0  0  0
 49 53  1  0  0  0
 49 64  1  0  0  0
 49131  1  0  0  0
 50 51  1  0  0  0
 50132  1  0  0  0
 50133  1  0  0  0
 51 52  1  0  0  0
 51134  1  0  0  0
 51135  1  0  0  0
 52136  1  0  0  0
 52137  1  0  0  0
 53 54  1  0  0  0
 54 55  2  0  0  0
 54138  1  0  0  0
 55 57  1  0  0  0
 55139  1  0  0  0
 56 69  2  0  0  0
 57 58  2  0  0  0
 57140  1  0  0  0
 58141  1  0  0  0
 59 60  1  0  0  0
 59 61  1  0  0  0
 59 62  1  0  0  0
 60142  1  0  0  0
 60143  1  0  0  0
 60144  1  0  0  0
 61145  1  0  0  0
 61146  1  0  0  0
 61147  1  0  0  0
 62148  1  0  0  0
 62149  1  0  0  0
 62150  1  0  0  0
 63 65  1  0  0  0
 63151  1  0  0  0
 63152  1  0  0  0
 63153  1  0  0  0
 64154  1  0  0  0
 65155  1  0  0  0
 68 82  1  0  0  0
 71 72  2  0  0  0
 71 88  1  0  0  0
 71156  1  0  0  0
 72 73  1  0  0  0
 72 79  1  0  0  0
 73 80  1  0  0  0
 73 89  2  0  0  0
 74 83  1  0  0  0
 74 88  2  0  0  0
 74 89  1  0  0  0
 75 80  1  0  0  0
 75157  1  0  0  0
 75158  1  0  0  0
 75159  1  0  0  0
 76160  1  0  0  0
 76161  1  0  0  0
 76162  1  0  0  0
 76 83  1  0  0  0
 77163  1  0  0  0
 77164  1  0  0  0
 77165  1  0  0  0
 77 85  1  0  0  0
 78 85  1  0  0  0
 78166  1  0  0  0
 78167  1  0  0  0
 78168  1  0  0  0
 79 81  1  0  0  0
 79169  1  0  0  0
 79170  1  0  0  0
 80171  1  0  0  0
 80172  1  0  0  0
 81 85  1  0  0  0
 81173  1  0  0  0
 81174  1  0  0  0
 82 85  1  0  0  0
 82175  1  0  0  0
 82176  1  0  0  0
 83 84  1  0  0  0
 83 90  1  0  0  0
 84 86  1  0  0  0
 84 87  1  0  0  0
 86 91  1  0  0  0
 86 92  1  0  0  0
 86 93  1  0  0  0
 87 94  1  0  0  0
 87 95  1  0  0  0
 87 96  1  0  0  0
M  ISO  4   1 100  68 101  82 101  84 100
M  END
> <chiral flag>
0

> <version>
0

> <s_m_source_file>
/data/baiqing/PycharmProjects/Reinvent-master-3.2/result/LINK_invent/BTK/process_docking_weight1_custom_sum_contain_oxygen_bond_distance_aromatic_linkinvent_7_9_3/rearranged_h_0067.sdf

> <i_m_source_file_index>
14

> <r_mmod_Potential_Energy-OPLS-2005>
-365.838958740234

> <r_mmod_Stretch_Energy-OPLS-2005>
54.2234268188477

> <r_mmod_Bend_Energy-OPLS-2005>
175.361709594727

> <r_mmod_Torsional_Energy-OPLS-2005>
172.089050292969

> <r_mmod_Improper_Torsional_Energy-OPLS-2005>
6.9543776512146

> <r_mmod_Van_der_Waal_Energy-OPLS-2005>
201.250564575195

> <r_mmod_Electrostatic_Energy-OPLS-2005>
-865.572570800781

> <r_mmod_Solvation_Energy-OPLS-2005>
-169.688537597656

> <b_mmod_Minimization_Converged-OPLS-2005>
0

> <r_mmod_RMS_Derivative-OPLS-2005>
3.3646092414856

$$$$
14
                    3D
 Structure written by MMmdl.
163171  0  0  1  0            999 V2000
  -30.6978  -14.4279   20.7816 C   0  0  0  0  0  0
  -30.4677  -12.3547   19.4135 C   0  0  0  0  0  0
  -29.5204  -12.5438   18.2073 C   0  0  0  0  0  0
  -28.0355  -12.3881   18.6150 C   0  0  0  0  0  0
  -27.6859  -13.1750   19.9104 C   0  0  2  0  0  0
  -28.7302  -12.8478   21.0044 C   0  0  0  0  0  0
  -25.2710  -13.7975   20.5754 C   0  0  0  0  0  0
  -24.1951  -13.0306   20.9179 C   0  0  0  0  0  0
  -24.6462  -11.6743   20.8865 C   0  0  0  0  0  0
  -23.9120  -10.4174   21.0565 C   0  0  0  0  0  0
  -24.3617   -9.4049   21.9333 C   0  0  0  0  0  0
  -23.6259   -8.2097   22.0812 C   0  0  0  0  0  0
  -22.4254   -8.0210   21.3556 C   0  0  0  0  0  0
  -21.9946   -9.0238   20.4684 C   0  0  0  0  0  0
  -22.7318  -10.2084   20.3180 C   0  0  0  0  0  0
  -21.6806   -6.0706   22.5299 C   0  0  0  0  0  0
  -21.3971   -6.5619   23.8233 C   0  0  0  0  0  0
  -21.3688   -5.6793   24.9217 C   0  0  0  0  0  0
  -21.6056   -4.3053   24.7266 C   0  0  0  0  0  0
  -21.8791   -3.8128   23.4384 C   0  0  0  0  0  0
  -21.9138   -4.6941   22.3435 C   0  0  0  0  0  0
  -22.7968  -13.5164   21.1801 C   0  0  0  0  0  0
  -22.1609   -4.2123   21.1020 F   0  0  0  0  0  0
  -21.5673   -3.4532   25.7771 F   0  0  0  0  0  0
  -30.0453  -13.2622   20.4915 N   0  0  0  0  0  0
  -26.3176  -12.9107   20.3580 N   0  0  0  0  0  0
  -25.9378  -11.6278   20.5881 N   0  0  0  0  0  0
  -22.0509  -12.8306   22.0359 N   0  0  0  0  0  0
  -25.4367  -15.1732   20.4166 N   0  0  0  0  0  0
  -31.7126  -14.7466   20.1410 O   0  0  0  0  0  0
  -21.6600   -6.8837   21.4236 O   0  0  0  0  0  0
  -22.3723  -14.5488   20.6602 O   0  0  0  0  0  0
  -24.6154  -31.8645   23.2054 C   0  0  0  0  0  0
  -25.9052  -32.4830   23.8339 C   0  0  1  0  0  0
  -27.2245  -27.4267   20.0752 C   0  0  0  0  0  0
  -25.5902  -33.8618   24.2281 N   0  0  0  0  0  0
  -23.4041  -30.4908   21.5440 C   0  0  2  0  0  0
  -24.8469  -28.9592   20.1051 C   0  0  0  0  0  0
  -22.7429  -29.4669   22.4953 C   0  0  0  0  0  0
  -18.0269  -28.1423   22.8460 C   0  0  0  0  0  0
  -24.1484  -36.7312   23.2634 C   0  0  0  0  0  0
  -25.9361  -30.8305   21.3552 C   0  0  0  0  0  0
  -26.0103  -29.4655   20.6979 C   0  0  0  0  0  0
  -27.2087  -28.7123   20.6641 C   0  0  0  0  0  0
  -26.0402  -26.9333   19.4872 C   0  0  0  0  0  0
  -24.8591  -27.6983   19.4866 C   0  0  0  0  0  0
  -23.6111  -29.8274   20.1570 C   0  0  0  0  0  0
  -25.4099  -36.3102   24.0335 C   0  0  1  0  0  0
  -20.5860  -28.3661   23.1313 C   0  0  2  0  0  0
  -20.6767  -26.9395   22.5406 C   0  0  0  0  0  0
  -19.5759  -26.6410   21.5189 C   0  0  0  0  0  0
  -18.1939  -26.7957   22.1601 C   0  0  0  0  0  0
  -19.1526  -28.8847   23.2888 C   0  0  0  0  0  0
  -18.9440  -30.1455   23.8900 C   0  0  0  0  0  0
  -17.6444  -30.6601   24.0560 C   0  0  0  0  0  0
  -25.9024  -34.9481   23.5096 C   0  0  0  0  0  0
  -16.5329  -29.9105   23.6344 C   0  0  0  0  0  0
  -16.7255  -28.6543   23.0318 C   0  0  0  0  0  0
  -26.4474  -31.6618   25.0676 C   0  0  0  0  0  0
  -25.3776  -31.3700   26.1453 C   0  0  0  0  0  0
  -27.0253  -30.3048   24.6041 C   0  0  0  0  0  0
  -27.6052  -32.4312   25.7463 C   0  0  0  0  0  0
  -27.5584  -37.1811   24.8468 C   0  0  0  0  0  0
  -21.4135  -29.3033   22.3721 N   0  0  0  0  0  0
  -26.4293  -37.3787   23.9410 N   0  0  0  0  0  0
  -24.6703  -31.0750   22.0934 N   0  0  0  0  0  0
  -23.4194  -28.8169   23.2980 O   0  0  0  0  0  0
  -28.3877  -26.6857   20.0457 O   0  0  0  0  0  0
  -26.5570  -34.8928   22.4644 O   0  0  0  0  0  0
  -23.5350  -32.1385   23.7461 O   0  0  0  0  0  0
  -30.4882  -18.7359   23.3090 C   0  0  0  0  0  0
  -30.5136  -19.4877   22.1182 C   0  0  0  0  0  0
  -30.5490  -16.8137   22.0364 C   0  0  0  0  0  0
  -28.8897  -22.3580   18.2141 C   0  0  0  0  0  0
  -30.2794  -24.4049   18.4670 C   0  0  0  0  0  0
  -30.5619  -21.0136   22.1356 C   0  0  0  0  0  0
  -29.5044  -21.7349   21.2619 C   0  0  0  0  0  0
  -30.2104  -22.7367   20.3232 C   0  0  0  0  0  0
  -28.1100  -24.1865   19.7387 C   0  0  0  0  0  0
  -28.3350  -25.3974   20.6809 C   0  0  0  0  0  0
  -30.2002  -15.3063   21.9905 C   0  0  0  0  0  0
  -29.3629  -23.4263   19.2193 C   0  0  0  0  0  0
  -30.4933  -17.3831   23.2572 N   0  0  0  0  0  0
  -30.6058  -18.8568   20.9200 N   0  0  0  0  0  0
  -30.5998  -17.5126   20.8816 N   0  0  0  0  0  0
  -28.8691  -15.3675   21.9996 F   0  0  0  0  0  0
  -30.5988  -14.6940   23.1137 F   0  0  0  0  0  0
  -31.5033  -12.5374   19.1151 H   0  0  0  0  0  0
  -30.4476  -11.3270   19.7777 H   0  0  0  0  0  0
  -29.7726  -11.8326   17.4228 H   0  0  0  0  0  0
  -29.6895  -13.5292   17.7696 H   0  0  0  0  0  0
  -27.8355  -11.3245   18.7603 H   0  0  0  0  0  0
  -27.3992  -12.7079   17.7906 H   0  0  0  0  0  0
  -27.7601  -14.2363   19.6797 H   0  0  0  0  0  0
  -28.7406  -11.7718   21.1747 H   0  0  0  0  0  0
  -28.4735  -13.2294   21.9897 H   0  0  0  0  0  0
  -25.2700   -9.5439   22.5016 H   0  0  0  0  0  0
  -23.9893   -7.4439   22.7510 H   0  0  0  0  0  0
  -21.0876   -8.8804   19.8992 H   0  0  0  0  0  0
  -22.3818  -10.9677   19.6367 H   0  0  0  0  0  0
  -21.1936   -7.6123   23.9719 H   0  0  0  0  0  0
  -21.1603   -6.0555   25.9133 H   0  0  0  0  0  0
  -22.0549   -2.7577   23.2917 H   0  0  0  0  0  0
  -22.3942  -12.0030   22.5016 H   0  0  0  0  0  0
  -21.1148  -13.1520   22.2349 H   0  0  0  0  0  0
  -24.6471  -15.8039   20.5087 H   0  0  0  0  0  0
  -26.2921  -15.6387   20.1431 H   0  0  0  0  0  0
  -26.7100  -32.5512   23.1079 H   0  0  0  0  0  0
  -25.0108  -33.9775   25.0463 H   0  0  0  0  0  0
  -22.6911  -31.3052   21.4036 H   0  0  0  0  0  0
  -23.3753  -35.9653   23.3305 H   0  0  0  0  0  0
  -24.3561  -36.8917   22.2050 H   0  0  0  0  0  0
  -23.7251  -37.6523   23.6625 H   0  0  0  0  0  0
  -26.0486  -31.6015   20.5890 H   0  0  0  0  0  0
  -26.8266  -30.8799   21.9728 H   0  0  0  0  0  0
  -28.1196  -29.1056   21.0894 H   0  0  0  0  0  0
  -26.0140  -25.9700   19.0053 H   0  0  0  0  0  0
  -23.9722  -27.3138   19.0001 H   0  0  0  0  0  0
  -23.7132  -30.6010   19.3940 H   0  0  0  0  0  0
  -22.7372  -29.2427   19.8652 H   0  0  0  0  0  0
  -25.1296  -36.1957   25.0840 H   0  0  0  0  0  0
  -20.9922  -28.3227   24.1444 H   0  0  0  0  0  0
  -20.5659  -26.2247   23.3566 H   0  0  0  0  0  0
  -21.6647  -26.7463   22.1199 H   0  0  0  0  0  0
  -19.6915  -25.6317   21.1238 H   0  0  0  0  0  0
  -19.6757  -27.3205   20.6699 H   0  0  0  0  0  0
  -17.4195  -26.6636   21.4034 H   0  0  0  0  0  0
  -18.0378  -26.0139   22.9032 H   0  0  0  0  0  0
  -19.7910  -30.7281   24.2284 H   0  0  0  0  0  0
  -17.4996  -31.6296   24.5150 H   0  0  0  0  0  0
  -15.5335  -30.2997   23.7705 H   0  0  0  0  0  0
  -15.8646  -28.0896   22.6994 H   0  0  0  0  0  0
  -24.5952  -30.7041   25.7808 H   0  0  0  0  0  0
  -24.8985  -32.2838   26.4965 H   0  0  0  0  0  0
  -25.8220  -30.8843   27.0153 H   0  0  0  0  0  0
  -26.2742  -29.6856   24.1126 H   0  0  0  0  0  0
  -27.4009  -29.7273   25.4497 H   0  0  0  0  0  0
  -27.8604  -30.4335   23.9157 H   0  0  0  0  0  0
  -27.2662  -33.3564   26.2122 H   0  0  0  0  0  0
  -28.3853  -32.6943   25.0315 H   0  0  0  0  0  0
  -28.0710  -31.8369   26.5328 H   0  0  0  0  0  0
  -28.2618  -38.0094   24.7492 H   0  0  0  0  0  0
  -28.1065  -36.2625   24.6318 H   0  0  0  0  0  0
  -27.2292  -37.1502   25.8871 H   0  0  0  0  0  0
  -20.9252  -29.8738   21.6949 H   0  0  0  0  0  0
  -26.0191  -38.2876   24.1392 H   0  0  0  0  0  0
  -30.4736  -19.2130   24.2819 H   0  0  0  0  0  0
  -29.7204  -21.7373   17.8748 H   0  0  0  0  0  0
  -28.4572  -22.8199   17.3266 H   0  0  0  0  0  0
  -28.1299  -21.6988   18.6412 H   0  0  0  0  0  0
  -30.6623  -25.1851   19.1241 H   0  0  0  0  0  0
  -29.7422  -24.8928   17.6529 H   0  0  0  0  0  0
  -31.1397  -23.8893   18.0367 H   0  0  0  0  0  0
  -31.5658  -21.3252   21.8428 H   0  0  0  0  0  0
  -30.4581  -21.3518   23.1684 H   0  0  0  0  0  0
  -28.7901  -22.2663   21.8947 H   0  0  0  0  0  0
  -28.9176  -21.0146   20.6901 H   0  0  0  0  0  0
  -31.0199  -22.1912   19.8287 H   0  0  0  0  0  0
  -30.7138  -23.4889   20.9337 H   0  0  0  0  0  0
  -27.5233  -24.4947   18.8768 H   0  0  0  0  0  0
  -27.4754  -23.4688   20.2604 H   0  0  0  0  0  0
  -29.2689  -25.2698   21.2277 H   0  0  0  0  0  0
  -27.5583  -25.3917   21.4486 H   0  0  0  0  0  0
  1 25  1  0  0  0
  1 30  2  0  0  0
  1 81  1  0  0  0
  2  3  1  0  0  0
  2 25  1  0  0  0
  2 88  1  0  0  0
  2 89  1  0  0  0
  3  4  1  0  0  0
  3 90  1  0  0  0
  3 91  1  0  0  0
  4  5  1  0  0  0
  4 92  1  0  0  0
  4 93  1  0  0  0
  5  6  1  0  0  0
  5 26  1  0  0  0
  5 94  1  0  0  0
  6 25  1  0  0  0
  6 95  1  0  0  0
  6 96  1  0  0  0
  7  8  2  0  0  0
  7 26  1  0  0  0
  7 29  1  0  0  0
  8  9  1  0  0  0
  8 22  1  0  0  0
  9 10  1  0  0  0
  9 27  2  0  0  0
 10 11  2  0  0  0
 10 15  1  0  0  0
 11 12  1  0  0  0
 11 97  1  0  0  0
 12 13  2  0  0  0
 12 98  1  0  0  0
 13 14  1  0  0  0
 13 31  1  0  0  0
 14 15  2  0  0  0
 14 99  1  0  0  0
 15100  1  0  0  0
 16 17  2  0  0  0
 16 21  1  0  0  0
 16 31  1  0  0  0
 17 18  1  0  0  0
 17101  1  0  0  0
 18 19  2  0  0  0
 18102  1  0  0  0
 19 20  1  0  0  0
 19 24  1  0  0  0
 20 21  2  0  0  0
 20103  1  0  0  0
 21 23  1  0  0  0
 22 28  1  0  0  0
 22 32  2  0  0  0
 26 27  1  0  0  0
 28104  1  0  0  0
 28105  1  0  0  0
 29106  1  0  0  0
 29107  1  0  0  0
 33 34  1  0  0  0
 33 66  1  0  0  0
 33 70  2  0  0  0
 34 36  1  0  0  0
 34 59  1  0  0  0
 34108  1  0  0  0
 35 44  2  0  0  0
 35 45  1  0  0  0
 35 68  1  0  0  0
 36 56  1  0  0  0
 36109  1  0  0  0
 37 39  1  0  0  0
 37 47  1  0  0  0
 37 66  1  0  0  0
 37110  1  0  0  0
 38 43  2  0  0  0
 38 46  1  0  0  0
 38 47  1  0  0  0
 39 64  1  0  0  0
 39 67  2  0  0  0
 40 52  1  0  0  0
 40 53  2  0  0  0
 40 58  1  0  0  0
 41111  1  0  0  0
 41112  1  0  0  0
 41113  1  0  0  0
 41 48  1  0  0  0
 42 43  1  0  0  0
 42 66  1  0  0  0
 42114  1  0  0  0
 42115  1  0  0  0
 43 44  1  0  0  0
 44116  1  0  0  0
 45 46  2  0  0  0
 45117  1  0  0  0
 46118  1  0  0  0
 47119  1  0  0  0
 47120  1  0  0  0
 48 56  1  0  0  0
 48 65  1  0  0  0
 48121  1  0  0  0
 49 50  1  0  0  0
 49 53  1  0  0  0
 49 64  1  0  0  0
 49122  1  0  0  0
 50 51  1  0  0  0
 50123  1  0  0  0
 50124  1  0  0  0
 51 52  1  0  0  0
 51125  1  0  0  0
 51126  1  0  0  0
 52127  1  0  0  0
 52128  1  0  0  0
 53 54  1  0  0  0
 54 55  2  0  0  0
 54129  1  0  0  0
 55 57  1  0  0  0
 55130  1  0  0  0
 56 69  2  0  0  0
 57 58  2  0  0  0
 57131  1  0  0  0
 58132  1  0  0  0
 59 60  1  0  0  0
 59 61  1  0  0  0
 59 62  1  0  0  0
 60133  1  0  0  0
 60134  1  0  0  0
 60135  1  0  0  0
 61136  1  0  0  0
 61137  1  0  0  0
 61138  1  0  0  0
 62139  1  0  0  0
 62140  1  0  0  0
 62141  1  0  0  0
 63 65  1  0  0  0
 63142  1  0  0  0
 63143  1  0  0  0
 63144  1  0  0  0
 64145  1  0  0  0
 65146  1  0  0  0
 68 80  1  0  0  0
 71 72  2  0  0  0
 71 83  1  0  0  0
 71147  1  0  0  0
 72 76  1  0  0  0
 72 84  1  0  0  0
 73 81  1  0  0  0
 73 83  2  0  0  0
 73 85  1  0  0  0
 74148  1  0  0  0
 74149  1  0  0  0
 74150  1  0  0  0
 74 82  1  0  0  0
 75 82  1  0  0  0
 75151  1  0  0  0
 75152  1  0  0  0
 75153  1  0  0  0
 76 77  1  0  0  0
 76154  1  0  0  0
 76155  1  0  0  0
 77 78  1  0  0  0
 77156  1  0  0  0
 77157  1  0  0  0
 78 82  1  0  0  0
 78158  1  0  0  0
 78159  1  0  0  0
 79 80  1  0  0  0
 79 82  1  0  0  0
 79160  1  0  0  0
 79161  1  0  0  0
 80162  1  0  0  0
 80163  1  0  0  0
 81 86  1  0  0  0
 81 87  1  0  0  0
 84 85  2  0  0  0
M  ISO  4   1 100  68 101  80 101  81 100
M  END
> <chiral flag>
0

> <version>
0

> <s_m_source_file>
/data/baiqing/PycharmProjects/Reinvent-master-3.2/result/LINK_invent/BTK/process_docking_weight1_custom_sum_contain_oxygen_bond_distance_aromatic_linkinvent_7_9_3/rearranged_h_0067.sdf

> <i_m_source_file_index>
15

> <r_mmod_Potential_Energy-OPLS-2005>
240.116439819336

> <r_mmod_Stretch_Energy-OPLS-2005>
47.4766006469727

> <r_mmod_Bend_Energy-OPLS-2005>
130.300064086914

> <r_mmod_Torsional_Energy-OPLS-2005>
219.378784179688

> <r_mmod_Improper_Torsional_Energy-OPLS-2005>
4.46489143371582

> <r_mmod_Van_der_Waal_Energy-OPLS-2005>
171.787368774414

> <r_mmod_Electrostatic_Energy-OPLS-2005>
-153.677337646484

> <r_mmod_Solvation_Energy-OPLS-2005>
-196.568054199219

> <b_mmod_Minimization_Converged-OPLS-2005>
0

> <r_mmod_RMS_Derivative-OPLS-2005>
6.72211837768555

$$$$
15
                    3D
 Structure written by MMmdl.
169177  0  0  1  0            999 V2000
  -30.7722  -14.4622   20.5527 C   0  0  0  0  0  0
  -30.3955  -12.3010   19.4393 C   0  0  0  0  0  0
  -29.4842  -12.5143   18.2118 C   0  0  0  0  0  0
  -28.0017  -12.3846   18.6104 C   0  0  0  0  0  0
  -27.6529  -13.2166   19.8711 C   0  0  2  0  0  0
  -28.6968  -13.0096   20.9902 C   0  0  0  0  0  0
  -25.2515  -13.8185   20.5642 C   0  0  0  0  0  0
  -24.1799  -13.0453   20.9187 C   0  0  0  0  0  0
  -24.6378  -11.6925   20.8749 C   0  0  0  0  0  0
  -23.9049  -10.4298   21.0388 C   0  0  0  0  0  0
  -24.3609   -9.4195   21.9133 C   0  0  0  0  0  0
  -23.6295   -8.2226   22.0698 C   0  0  0  0  0  0
  -22.4259   -8.0277   21.3519 C   0  0  0  0  0  0
  -21.9912   -9.0245   20.4600 C   0  0  0  0  0  0
  -22.7230  -10.2130   20.3029 C   0  0  0  0  0  0
  -21.6827   -6.0756   22.5295 C   0  0  0  0  0  0
  -21.4022   -6.5658   23.8233 C   0  0  0  0  0  0
  -21.3645   -5.6800   24.9186 C   0  0  0  0  0  0
  -21.6031   -4.3067   24.7222 C   0  0  0  0  0  0
  -21.8820   -3.8154   23.4339 C   0  0  0  0  0  0
  -21.9183   -4.6983   22.3399 C   0  0  0  0  0  0
  -22.7805  -13.5207   21.1847 C   0  0  0  0  0  0
  -22.1661   -4.2171   21.0977 F   0  0  0  0  0  0
  -21.5600   -3.4542   25.7723 F   0  0  0  0  0  0
  -30.0254  -13.3188   20.4470 N   0  0  0  0  0  0
  -26.2980  -12.9386   20.3369 N   0  0  0  0  0  0
  -25.9304  -11.6529   20.5775 N   0  0  0  0  0  0
  -22.0517  -12.8156   22.0416 N   0  0  0  0  0  0
  -25.4176  -15.1885   20.3902 N   0  0  0  0  0  0
  -31.9370  -14.4475   20.1448 O   0  0  0  0  0  0
  -21.6606   -6.8893   21.4247 O   0  0  0  0  0  0
  -22.3440  -14.5507   20.6706 O   0  0  0  0  0  0
  -24.6120  -31.8699   23.2108 C   0  0  0  0  0  0
  -25.9023  -32.4832   23.8398 C   0  0  1  0  0  0
  -27.2334  -27.4665   20.1026 C   0  0  0  0  0  0
  -25.5900  -33.8628   24.2343 N   0  0  0  0  0  0
  -23.3988  -30.4909   21.5515 C   0  0  2  0  0  0
  -24.8462  -28.9589   20.1159 C   0  0  0  0  0  0
  -22.7403  -29.4660   22.5013 C   0  0  0  0  0  0
  -18.0271  -28.1389   22.8501 C   0  0  0  0  0  0
  -24.1483  -36.7319   23.2641 C   0  0  0  0  0  0
  -25.9210  -30.8490   21.3532 C   0  0  0  0  0  0
  -26.0024  -29.4819   20.7103 C   0  0  0  0  0  0
  -27.2020  -28.7403   20.7055 C   0  0  0  0  0  0
  -26.0688  -26.9486   19.5015 C   0  0  0  0  0  0
  -24.8714  -27.6892   19.5104 C   0  0  0  0  0  0
  -23.6049  -29.8204   20.1661 C   0  0  0  0  0  0
  -25.4101  -36.3115   24.0344 C   0  0  1  0  0  0
  -20.5862  -28.3666   23.1349 C   0  0  2  0  0  0
  -20.6760  -26.9404   22.5444 C   0  0  0  0  0  0
  -19.5742  -26.6398   21.5230 C   0  0  0  0  0  0
  -18.1911  -26.7940   22.1622 C   0  0  0  0  0  0
  -19.1520  -28.8844   23.2917 C   0  0  0  0  0  0
  -18.9441  -30.1451   23.8921 C   0  0  0  0  0  0
  -17.6445  -30.6588   24.0578 C   0  0  0  0  0  0
  -25.9029  -34.9482   23.5138 C   0  0  0  0  0  0
  -16.5341  -29.9092   23.6332 C   0  0  0  0  0  0
  -16.7262  -28.6518   23.0340 C   0  0  0  0  0  0
  -26.4473  -31.6587   25.0698 C   0  0  0  0  0  0
  -25.3772  -31.3665   26.1470 C   0  0  0  0  0  0
  -27.0284  -30.3045   24.6002 C   0  0  0  0  0  0
  -27.6059  -32.4289   25.7456 C   0  0  0  0  0  0
  -27.5578  -37.1806   24.8465 C   0  0  0  0  0  0
  -21.4136  -29.3026   22.3754 N   0  0  0  0  0  0
  -26.4285  -37.3799   23.9419 N   0  0  0  0  0  0
  -24.6627  -31.0826   22.0991 N   0  0  0  0  0  0
  -23.4184  -28.8221   23.3059 O   0  0  0  0  0  0
  -28.3788  -26.7165   20.1126 O   0  0  0  0  0  0
  -26.5586  -34.8932   22.4696 O   0  0  0  0  0  0
  -23.5324  -32.1426   23.7533 O   0  0  0  0  0  0
  -27.9184  -20.4671   19.8848 C   0  0  0  0  0  0
  -28.4077  -19.1876   19.9472 C   0  0  0  0  0  0
  -29.0183  -21.2425   19.4241 C   0  0  0  0  0  0
  -28.9551  -16.0453   21.7111 C   0  0  0  0  0  0
  -31.3515  -16.4717   21.9032 C   0  0  0  0  0  0
  -32.1005  -18.4787   19.7106 C   0  0  0  0  0  0
  -30.7905  -18.2197   17.6422 C   0  0  0  0  0  0
  -29.0630  -22.6560   18.8929 C   0  0  0  0  0  0
  -28.2702  -23.7148   19.6793 C   0  0  0  0  0  0
  -29.1007  -24.4794   20.7270 C   0  0  0  0  0  0
  -28.4111  -25.7736   21.1859 C   0  0  0  0  0  0
  -30.2044  -16.6747   19.5220 C   0  0  2  0  0  0
  -30.2818  -15.9147   20.9231 C   0  0  0  0  0  0
  -30.6759  -18.1504   19.1927 C   0  0  0  0  0  0
  -30.1107  -20.5081   19.3245 N   0  0  0  0  0  0
  -29.7406  -19.2251   19.5791 N   0  0  0  0  0  0
  -29.0051  -16.4390   18.9790 F   0  0  0  0  0  0
  -31.4394  -12.3432   19.1294 H   0  0  0  0  0  0
  -30.2590  -11.2968   19.8457 H   0  0  0  0  0  0
  -29.7208  -11.7937   17.4273 H   0  0  0  0  0  0
  -29.6576  -13.5025   17.7837 H   0  0  0  0  0  0
  -27.7928  -11.3306   18.7884 H   0  0  0  0  0  0
  -27.3622  -12.6851   17.7798 H   0  0  0  0  0  0
  -27.6894  -14.2578   19.5579 H   0  0  0  0  0  0
  -28.6761  -11.9688   21.3161 H   0  0  0  0  0  0
  -28.4536  -13.5661   21.8886 H   0  0  0  0  0  0
  -25.2752   -9.5671   22.4691 H   0  0  0  0  0  0
  -24.0016   -7.4614   22.7397 H   0  0  0  0  0  0
  -21.0859   -8.8763   19.8882 H   0  0  0  0  0  0
  -22.3689  -10.9676   19.6139 H   0  0  0  0  0  0
  -21.2061   -7.6177   23.9756 H   0  0  0  0  0  0
  -21.1434   -6.0519   25.9094 H   0  0  0  0  0  0
  -22.0609   -2.7621   23.2832 H   0  0  0  0  0  0
  -22.4251  -11.9907   22.4871 H   0  0  0  0  0  0
  -21.1108  -13.1065   22.2621 H   0  0  0  0  0  0
  -24.6441  -15.8406   20.4620 H   0  0  0  0  0  0
  -26.2579  -15.6067   20.0138 H   0  0  0  0  0  0
  -26.7101  -32.5570   23.1182 H   0  0  0  0  0  0
  -25.0076  -33.9788   25.0506 H   0  0  0  0  0  0
  -22.6857  -31.3053   21.4131 H   0  0  0  0  0  0
  -23.3742  -35.9649   23.3293 H   0  0  0  0  0  0
  -24.3584  -36.8944   22.2057 H   0  0  0  0  0  0
  -23.7225  -37.6521   23.6660 H   0  0  0  0  0  0
  -26.0112  -31.6062   20.5728 H   0  0  0  0  0  0
  -26.8189  -30.9197   21.9552 H   0  0  0  0  0  0
  -28.0966  -29.1346   21.1673 H   0  0  0  0  0  0
  -26.0876  -25.9727   19.0379 H   0  0  0  0  0  0
  -23.9817  -27.2764   19.0552 H   0  0  0  0  0  0
  -23.7108  -30.5942   19.4046 H   0  0  0  0  0  0
  -22.7301  -29.2364   19.8748 H   0  0  0  0  0  0
  -25.1268  -36.1984   25.0834 H   0  0  0  0  0  0
  -20.9938  -28.3219   24.1475 H   0  0  0  0  0  0
  -20.5679  -26.2259   23.3617 H   0  0  0  0  0  0
  -21.6628  -26.7455   22.1229 H   0  0  0  0  0  0
  -19.6899  -25.6315   21.1235 H   0  0  0  0  0  0
  -19.6689  -27.3234   20.6780 H   0  0  0  0  0  0
  -17.4192  -26.6726   21.4001 H   0  0  0  0  0  0
  -18.0273  -26.0075   22.9006 H   0  0  0  0  0  0
  -19.7909  -30.7273   24.2287 H   0  0  0  0  0  0
  -17.4993  -31.6263   24.5194 H   0  0  0  0  0  0
  -15.5341  -30.3001   23.7640 H   0  0  0  0  0  0
  -15.8660  -28.0857   22.7016 H   0  0  0  0  0  0
  -24.5961  -30.6978   25.7835 H   0  0  0  0  0  0
  -24.8938  -32.2803   26.4930 H   0  0  0  0  0  0
  -25.8172  -30.8855   27.0214 H   0  0  0  0  0  0
  -26.2781  -29.6804   24.1130 H   0  0  0  0  0  0
  -27.4176  -29.7272   25.4398 H   0  0  0  0  0  0
  -27.8560  -30.4392   23.9031 H   0  0  0  0  0  0
  -27.2690  -33.3582   26.2061 H   0  0  0  0  0  0
  -28.3855  -32.6855   25.0270 H   0  0  0  0  0  0
  -28.0739  -31.8387   26.5348 H   0  0  0  0  0  0
  -28.2600  -38.0101   24.7514 H   0  0  0  0  0  0
  -28.1066  -36.2632   24.6278 H   0  0  0  0  0  0
  -27.2304  -37.1450   25.8871 H   0  0  0  0  0  0
  -20.9291  -29.8747   21.6982 H   0  0  0  0  0  0
  -26.0175  -38.2873   24.1438 H   0  0  0  0  0  0
  -26.8947  -20.7776   20.0406 H   0  0  0  0  0  0
  -27.8915  -18.2608   20.1509 H   0  0  0  0  0  0
  -28.7707  -17.0814   21.9929 H   0  0  0  0  0  0
  -28.9882  -15.4896   22.6488 H   0  0  0  0  0  0
  -28.0817  -15.7294   21.1472 H   0  0  0  0  0  0
  -31.4277  -15.8432   22.7909 H   0  0  0  0  0  0
  -31.0986  -17.4699   22.2579 H   0  0  0  0  0  0
  -32.3554  -16.5040   21.4814 H   0  0  0  0  0  0
  -32.7840  -17.6454   19.5441 H   0  0  0  0  0  0
  -32.1111  -18.7422   20.7668 H   0  0  0  0  0  0
  -32.5299  -19.3395   19.1955 H   0  0  0  0  0  0
  -31.5228  -17.5112   17.2553 H   0  0  0  0  0  0
  -31.1107  -19.2008   17.2934 H   0  0  0  0  0  0
  -29.8391  -18.0089   17.1551 H   0  0  0  0  0  0
  -28.6582  -22.6313   17.8804 H   0  0  0  0  0  0
  -30.0943  -22.9867   18.7679 H   0  0  0  0  0  0
  -27.3590  -23.3002   20.1104 H   0  0  0  0  0  0
  -27.9351  -24.4467   18.9447 H   0  0  0  0  0  0
  -30.0837  -24.7295   20.3280 H   0  0  0  0  0  0
  -29.2798  -23.8347   21.5875 H   0  0  0  0  0  0
  -28.9604  -26.2178   22.0164 H   0  0  0  0  0  0
  -27.4149  -25.5367   21.5671 H   0  0  0  0  0  0
  -30.8294  -16.1123   18.8276 H   0  0  0  0  0  0
  1 25  1  0  0  0
  1 30  2  0  0  0
  1 83  1  0  0  0
  2  3  1  0  0  0
  2 25  1  0  0  0
  2 88  1  0  0  0
  2 89  1  0  0  0
  3  4  1  0  0  0
  3 90  1  0  0  0
  3 91  1  0  0  0
  4  5  1  0  0  0
  4 92  1  0  0  0
  4 93  1  0  0  0
  5  6  1  0  0  0
  5 26  1  0  0  0
  5 94  1  0  0  0
  6 25  1  0  0  0
  6 95  1  0  0  0
  6 96  1  0  0  0
  7  8  2  0  0  0
  7 26  1  0  0  0
  7 29  1  0  0  0
  8  9  1  0  0  0
  8 22  1  0  0  0
  9 10  1  0  0  0
  9 27  2  0  0  0
 10 11  2  0  0  0
 10 15  1  0  0  0
 11 12  1  0  0  0
 11 97  1  0  0  0
 12 13  2  0  0  0
 12 98  1  0  0  0
 13 14  1  0  0  0
 13 31  1  0  0  0
 14 15  2  0  0  0
 14 99  1  0  0  0
 15100  1  0  0  0
 16 17  2  0  0  0
 16 21  1  0  0  0
 16 31  1  0  0  0
 17 18  1  0  0  0
 17101  1  0  0  0
 18 19  2  0  0  0
 18102  1  0  0  0
 19 20  1  0  0  0
 19 24  1  0  0  0
 20 21  2  0  0  0
 20103  1  0  0  0
 21 23  1  0  0  0
 22 28  1  0  0  0
 22 32  2  0  0  0
 26 27  1  0  0  0
 28104  1  0  0  0
 28105  1  0  0  0
 29106  1  0  0  0
 29107  1  0  0  0
 33 34  1  0  0  0
 33 66  1  0  0  0
 33 70  2  0  0  0
 34 36  1  0  0  0
 34 59  1  0  0  0
 34108  1  0  0  0
 35 44  2  0  0  0
 35 45  1  0  0  0
 35 68  1  0  0  0
 36 56  1  0  0  0
 36109  1  0  0  0
 37 39  1  0  0  0
 37 47  1  0  0  0
 37 66  1  0  0  0
 37110  1  0  0  0
 38 43  2  0  0  0
 38 46  1  0  0  0
 38 47  1  0  0  0
 39 64  1  0  0  0
 39 67  2  0  0  0
 40 52  1  0  0  0
 40 53  2  0  0  0
 40 58  1  0  0  0
 41111  1  0  0  0
 41112  1  0  0  0
 41113  1  0  0  0
 41 48  1  0  0  0
 42 43  1  0  0  0
 42 66  1  0  0  0
 42114  1  0  0  0
 42115  1  0  0  0
 43 44  1  0  0  0
 44116  1  0  0  0
 45 46  2  0  0  0
 45117  1  0  0  0
 46118  1  0  0  0
 47119  1  0  0  0
 47120  1  0  0  0
 48 56  1  0  0  0
 48 65  1  0  0  0
 48121  1  0  0  0
 49 50  1  0  0  0
 49 53  1  0  0  0
 49 64  1  0  0  0
 49122  1  0  0  0
 50 51  1  0  0  0
 50123  1  0  0  0
 50124  1  0  0  0
 51 52  1  0  0  0
 51125  1  0  0  0
 51126  1  0  0  0
 52127  1  0  0  0
 52128  1  0  0  0
 53 54  1  0  0  0
 54 55  2  0  0  0
 54129  1  0  0  0
 55 57  1  0  0  0
 55130  1  0  0  0
 56 69  2  0  0  0
 57 58  2  0  0  0
 57131  1  0  0  0
 58132  1  0  0  0
 59 60  1  0  0  0
 59 61  1  0  0  0
 59 62  1  0  0  0
 60133  1  0  0  0
 60134  1  0  0  0
 60135  1  0  0  0
 61136  1  0  0  0
 61137  1  0  0  0
 61138  1  0  0  0
 62139  1  0  0  0
 62140  1  0  0  0
 62141  1  0  0  0
 63 65  1  0  0  0
 63142  1  0  0  0
 63143  1  0  0  0
 63144  1  0  0  0
 64145  1  0  0  0
 65146  1  0  0  0
 68 81  1  0  0  0
 71 72  2  0  0  0
 71 73  1  0  0  0
 71147  1  0  0  0
 72 86  1  0  0  0
 72148  1  0  0  0
 73 78  1  0  0  0
 73 85  2  0  0  0
 74149  1  0  0  0
 74150  1  0  0  0
 74151  1  0  0  0
 74 83  1  0  0  0
 75 83  1  0  0  0
 75152  1  0  0  0
 75153  1  0  0  0
 75154  1  0  0  0
 76155  1  0  0  0
 76156  1  0  0  0
 76157  1  0  0  0
 76 84  1  0  0  0
 77 84  1  0  0  0
 77158  1  0  0  0
 77159  1  0  0  0
 77160  1  0  0  0
 78 79  1  0  0  0
 78161  1  0  0  0
 78162  1  0  0  0
 79 80  1  0  0  0
 79163  1  0  0  0
 79164  1  0  0  0
 80 81  1  0  0  0
 80165  1  0  0  0
 80166  1  0  0  0
 81167  1  0  0  0
 81168  1  0  0  0
 82 83  1  0  0  0
 82 84  1  0  0  0
 82 87  1  0  0  0
 82169  1  0  0  0
 84 86  1  0  0  0
 85 86  1  0  0  0
M  ISO  4   1 100  68 101  81 101  83 100
M  END
> <chiral flag>
0

> <version>
0

> <s_m_source_file>
/data/baiqing/PycharmProjects/Reinvent-master-3.2/result/LINK_invent/BTK/process_docking_weight1_custom_sum_contain_oxygen_bond_distance_aromatic_linkinvent_7_9_3/rearranged_h_0067.sdf

> <i_m_source_file_index>
16

> <r_mmod_Potential_Energy-OPLS-2005>
150.489196777344

> <r_mmod_Stretch_Energy-OPLS-2005>
47.4018821716309

> <r_mmod_Bend_Energy-OPLS-2005>
169.332107543945

> <r_mmod_Torsional_Energy-OPLS-2005>
287.221649169922

> <r_mmod_Improper_Torsional_Energy-OPLS-2005>
7.00333261489868

> <r_mmod_Van_der_Waal_Energy-OPLS-2005>
155.054306030273

> <r_mmod_Electrostatic_Energy-OPLS-2005>
-355.786468505859

> <r_mmod_Solvation_Energy-OPLS-2005>
-179.481918334961

> <b_mmod_Minimization_Converged-OPLS-2005>
0

> <r_mmod_RMS_Derivative-OPLS-2005>
2.81035399436951

$$$$
16
                    3D
 Structure written by MMmdl.
168176  0  0  1  0            999 V2000
  -30.6643  -14.4652   20.5746 C   0  0  0  0  0  0
  -30.4326  -12.3047   19.4030 C   0  0  0  0  0  0
  -29.4931  -12.5080   18.1950 C   0  0  0  0  0  0
  -28.0149  -12.3536   18.6097 C   0  0  0  0  0  0
  -27.6611  -13.1790   19.8731 C   0  0  2  0  0  0
  -28.7046  -12.9399   20.9875 C   0  0  0  0  0  0
  -25.2596  -13.8084   20.5650 C   0  0  0  0  0  0
  -24.1827  -13.0394   20.9157 C   0  0  0  0  0  0
  -24.6345  -11.6854   20.8714 C   0  0  0  0  0  0
  -23.8996  -10.4266   21.0400 C   0  0  0  0  0  0
  -24.3569   -9.4199   21.9181 C   0  0  0  0  0  0
  -23.6261   -8.2225   22.0755 C   0  0  0  0  0  0
  -22.4241   -8.0254   21.3537 C   0  0  0  0  0  0
  -21.9856   -9.0221   20.4636 C   0  0  0  0  0  0
  -22.7170  -10.2108   20.3046 C   0  0  0  0  0  0
  -21.6847   -6.0703   22.5277 C   0  0  0  0  0  0
  -21.4015   -6.5622   23.8204 C   0  0  0  0  0  0
  -21.3659   -5.6790   24.9177 C   0  0  0  0  0  0
  -21.6039   -4.3048   24.7227 C   0  0  0  0  0  0
  -21.8831   -3.8124   23.4352 C   0  0  0  0  0  0
  -21.9195   -4.6933   22.3401 C   0  0  0  0  0  0
  -22.7865  -13.5219   21.1840 C   0  0  0  0  0  0
  -22.1668   -4.2112   21.0981 F   0  0  0  0  0  0
  -21.5622   -3.4536   25.7742 F   0  0  0  0  0  0
  -30.0330  -13.2694   20.4367 N   0  0  0  0  0  0
  -26.3007  -12.9203   20.3354 N   0  0  0  0  0  0
  -25.9264  -11.6395   20.5763 N   0  0  0  0  0  0
  -22.0499  -12.8218   22.0404 N   0  0  0  0  0  0
  -25.4341  -15.1787   20.4042 N   0  0  0  0  0  0
  -31.7959  -14.6942   20.1425 O   0  0  0  0  0  0
  -21.6624   -6.8839   21.4233 O   0  0  0  0  0  0
  -22.3551  -14.5529   20.6698 O   0  0  0  0  0  0
  -24.6318  -31.8762   23.2178 C   0  0  0  0  0  0
  -25.9171  -32.4899   23.8472 C   0  0  1  0  0  0
  -27.2527  -27.4533   20.0848 C   0  0  0  0  0  0
  -25.5966  -33.8678   24.2406 N   0  0  0  0  0  0
  -23.4341  -30.5014   21.5724 C   0  0  2  0  0  0
  -24.8560  -28.9599   20.1272 C   0  0  0  0  0  0
  -22.7750  -29.4859   22.5274 C   0  0  0  0  0  0
  -17.9931  -28.1196   22.8698 C   0  0  0  0  0  0
  -24.1483  -36.7332   23.2638 C   0  0  0  0  0  0
  -25.9473  -30.8430   21.3649 C   0  0  0  0  0  0
  -26.0161  -29.4757   20.7147 C   0  0  0  0  0  0
  -27.2112  -28.7290   20.6902 C   0  0  0  0  0  0
  -26.0654  -26.9411   19.5046 C   0  0  0  0  0  0
  -24.8743  -27.6924   19.5216 C   0  0  0  0  0  0
  -23.6226  -29.8285   20.1844 C   0  0  0  0  0  0
  -25.4109  -36.3157   24.0345 C   0  0  1  0  0  0
  -20.4773  -28.4596   22.7799 C   0  0  2  0  0  0
  -20.6924  -26.9634   22.5307 C   0  0  0  0  0  0
  -19.5569  -26.4580   21.6163 C   0  0  0  0  0  0
  -18.1556  -26.7538   22.1982 C   0  0  0  0  0  0
  -19.1133  -28.8958   23.2525 C   0  0  0  0  0  0
  -18.9336  -30.1465   23.8766 C   0  0  0  0  0  0
  -17.6358  -30.6488   24.0792 C   0  0  0  0  0  0
  -25.9039  -34.9523   23.5164 C   0  0  0  0  0  0
  -16.5187  -29.8954   23.6745 C   0  0  0  0  0  0
  -16.6978  -28.6294   23.0862 C   0  0  0  0  0  0
  -26.4531  -31.6619   25.0778 C   0  0  0  0  0  0
  -25.3767  -31.3671   26.1495 C   0  0  0  0  0  0
  -27.0351  -30.3073   24.6105 C   0  0  0  0  0  0
  -27.6113  -32.4302   25.7542 C   0  0  0  0  0  0
  -27.5589  -37.1835   24.8475 C   0  0  0  0  0  0
  -21.4531  -29.4501   22.4051 N   0  0  0  0  0  0
  -26.4302  -37.3833   23.9412 N   0  0  0  0  0  0
  -24.6933  -31.0867   22.1109 N   0  0  0  0  0  0
  -23.4241  -28.7630   23.2831 O   0  0  0  0  0  0
  -28.4699  -26.7972   20.0842 O   0  0  0  0  0  0
  -26.5581  -34.8962   22.4715 O   0  0  0  0  0  0
  -23.5478  -32.1492   23.7553 O   0  0  0  0  0  0
  -28.7311  -21.0679   21.7987 C   0  0  0  0  0  0
  -29.2368  -19.7654   21.6267 C   0  0  0  0  0  0
  -28.4285  -21.8459   20.6638 C   0  0  0  0  0  0
  -29.4213  -19.2627   20.3213 C   0  0  0  0  0  0
  -28.7558  -21.3117   19.4041 C   0  0  0  0  0  0
  -30.4868  -17.5317   18.8034 C   0  0  0  0  0  0
  -28.1194  -17.2847   19.6351 C   0  0  0  0  0  0
  -28.0077  -25.2525   22.3056 C   0  0  0  0  0  0
  -30.0124  -24.1208   21.4211 C   0  0  0  0  0  0
  -30.1009  -16.8815   21.1981 C   0  0  0  0  0  0
  -28.5592  -25.3959   19.7997 C   0  0  0  0  0  0
  -27.6793  -23.1780   20.7803 C   0  0  2  0  0  0
  -29.5444  -17.7478   20.0092 C   0  0  0  0  0  0
  -28.5465  -24.4727   21.0723 C   0  0  0  0  0  0
  -29.2283  -20.0590   19.2411 N   0  0  0  0  0  0
  -29.8761  -15.4307   21.0763 N   0  0  0  0  0  0
  -26.6042  -23.0508   21.6996 O   0  0  0  0  0  0
  -28.5384  -22.0489   18.2882 F   0  0  0  0  0  0
  -31.4745  -12.4248   19.0993 H   0  0  0  0  0  0
  -30.3446  -11.2860   19.7860 H   0  0  0  0  0  0
  -29.7344  -11.7951   17.4054 H   0  0  0  0  0  0
  -29.6536  -13.5007   17.7717 H   0  0  0  0  0  0
  -27.8364  -11.2950   18.8029 H   0  0  0  0  0  0
  -27.3579  -12.6240   17.7819 H   0  0  0  0  0  0
  -27.7107  -14.2200   19.5769 H   0  0  0  0  0  0
  -28.6889  -11.8932   21.2989 H   0  0  0  0  0  0
  -28.4626  -13.5127   21.8845 H   0  0  0  0  0  0
  -25.2725   -9.5693   22.4745 H   0  0  0  0  0  0
  -23.9969   -7.4621   22.7489 H   0  0  0  0  0  0
  -21.0779   -8.8713   19.8959 H   0  0  0  0  0  0
  -22.3613  -10.9627   19.6140 H   0  0  0  0  0  0
  -21.2027   -7.6136   23.9695 H   0  0  0  0  0  0
  -21.1470   -6.0523   25.9074 H   0  0  0  0  0  0
  -22.0611   -2.7582   23.2869 H   0  0  0  0  0  0
  -22.4069  -11.9840   22.4768 H   0  0  0  0  0  0
  -21.1140  -13.1291   22.2648 H   0  0  0  0  0  0
  -24.6681  -15.8375   20.4990 H   0  0  0  0  0  0
  -26.2853  -15.6096   20.0715 H   0  0  0  0  0  0
  -26.7278  -32.5630   23.1268 H   0  0  0  0  0  0
  -25.0134  -33.9818   25.0569 H   0  0  0  0  0  0
  -22.7318  -31.3253   21.4306 H   0  0  0  0  0  0
  -23.3749  -35.9658   23.3321 H   0  0  0  0  0  0
  -24.3574  -36.8923   22.2045 H   0  0  0  0  0  0
  -23.7216  -37.6542   23.6623 H   0  0  0  0  0  0
  -26.0464  -31.6065   20.5922 H   0  0  0  0  0  0
  -26.8414  -30.9026   21.9744 H   0  0  0  0  0  0
  -28.1095  -29.1314   21.1371 H   0  0  0  0  0  0
  -26.0251  -25.9798   19.0186 H   0  0  0  0  0  0
  -23.9804  -27.2912   19.0654 H   0  0  0  0  0  0
  -23.7272  -30.6012   19.4223 H   0  0  0  0  0  0
  -22.7427  -29.2485   19.9009 H   0  0  0  0  0  0
  -25.1274  -36.2034   25.0828 H   0  0  0  0  0  0
  -20.1618  -28.6801   21.7592 H   0  0  0  0  0  0
  -21.6619  -26.7650   22.0705 H   0  0  0  0  0  0
  -20.6823  -26.4284   23.4802 H   0  0  0  0  0  0
  -19.6612  -25.3856   21.4452 H   0  0  0  0  0  0
  -19.6453  -26.9135   20.6289 H   0  0  0  0  0  0
  -17.4084  -26.6441   21.4112 H   0  0  0  0  0  0
  -17.9146  -25.9987   22.9469 H   0  0  0  0  0  0
  -19.7895  -30.7491   24.1490 H   0  0  0  0  0  0
  -17.4983  -31.6206   24.5342 H   0  0  0  0  0  0
  -15.5211  -30.2855   23.8263 H   0  0  0  0  0  0
  -15.8316  -28.0547   22.7871 H   0  0  0  0  0  0
  -24.5936  -30.7056   25.7762 H   0  0  0  0  0  0
  -24.8977  -32.2814   26.5002 H   0  0  0  0  0  0
  -25.8100  -30.8758   27.0219 H   0  0  0  0  0  0
  -26.2884  -29.6820   24.1205 H   0  0  0  0  0  0
  -27.4191  -29.7301   25.4521 H   0  0  0  0  0  0
  -27.8676  -30.4399   23.9200 H   0  0  0  0  0  0
  -27.2752  -33.3577   26.2179 H   0  0  0  0  0  0
  -28.3892  -32.6899   25.0349 H   0  0  0  0  0  0
  -28.0822  -31.8393   26.5407 H   0  0  0  0  0  0
  -28.2633  -38.0111   24.7530 H   0  0  0  0  0  0
  -28.1059  -36.2652   24.6289 H   0  0  0  0  0  0
  -27.2317  -37.1483   25.8882 H   0  0  0  0  0  0
  -21.0767  -30.1702   21.8060 H   0  0  0  0  0  0
  -26.0207  -38.2917   24.1399 H   0  0  0  0  0  0
  -28.5060  -21.4413   22.7870 H   0  0  0  0  0  0
  -29.3696  -19.1558   22.5065 H   0  0  0  0  0  0
  -30.5647  -16.4813   18.5319 H   0  0  0  0  0  0
  -30.1255  -18.0408   17.9092 H   0  0  0  0  0  0
  -31.4912  -17.8988   19.0185 H   0  0  0  0  0  0
  -27.6959  -17.8966   18.8380 H   0  0  0  0  0  0
  -27.4367  -17.3572   20.4852 H   0  0  0  0  0  0
  -28.1103  -16.2666   19.2667 H   0  0  0  0  0  0
  -28.6184  -26.1326   22.5134 H   0  0  0  0  0  0
  -28.0294  -24.6396   23.2089 H   0  0  0  0  0  0
  -26.9848  -25.6025   22.1649 H   0  0  0  0  0  0
  -30.5186  -23.5881   20.6166 H   0  0  0  0  0  0
  -30.0770  -23.5007   22.3159 H   0  0  0  0  0  0
  -30.5957  -25.0202   21.6167 H   0  0  0  0  0  0
  -31.1552  -17.0977   21.3735 H   0  0  0  0  0  0
  -29.5812  -17.1276   22.1215 H   0  0  0  0  0  0
  -27.8548  -25.0923   19.0332 H   0  0  0  0  0  0
  -29.5121  -25.2651   19.2861 H   0  0  0  0  0  0
  -27.1584  -23.3002   19.8306 H   0  0  0  0  0  0
  -28.9690  -15.1101   21.3767 H   0  0  0  0  0  0
  -26.1853  -23.9029   21.7692 H   0  0  0  0  0  0
  1 25  1  0  0  0
  1 30  2  0  0  0
  1 86  1  0  0  0
  2  3  1  0  0  0
  2 25  1  0  0  0
  2 89  1  0  0  0
  2 90  1  0  0  0
  3  4  1  0  0  0
  3 91  1  0  0  0
  3 92  1  0  0  0
  4  5  1  0  0  0
  4 93  1  0  0  0
  4 94  1  0  0  0
  5  6  1  0  0  0
  5 26  1  0  0  0
  5 95  1  0  0  0
  6 25  1  0  0  0
  6 96  1  0  0  0
  6 97  1  0  0  0
  7  8  2  0  0  0
  7 26  1  0  0  0
  7 29  1  0  0  0
  8  9  1  0  0  0
  8 22  1  0  0  0
  9 10  1  0  0  0
  9 27  2  0  0  0
 10 11  2  0  0  0
 10 15  1  0  0  0
 11 12  1  0  0  0
 11 98  1  0  0  0
 12 13  2  0  0  0
 12 99  1  0  0  0
 13 14  1  0  0  0
 13 31  1  0  0  0
 14 15  2  0  0  0
 14100  1  0  0  0
 15101  1  0  0  0
 16 17  2  0  0  0
 16 21  1  0  0  0
 16 31  1  0  0  0
 17 18  1  0  0  0
 17102  1  0  0  0
 18 19  2  0  0  0
 18103  1  0  0  0
 19 20  1  0  0  0
 19 24  1  0  0  0
 20 21  2  0  0  0
 20104  1  0  0  0
 21 23  1  0  0  0
 22 28  1  0  0  0
 22 32  2  0  0  0
 26 27  1  0  0  0
 28105  1  0  0  0
 28106  1  0  0  0
 29107  1  0  0  0
 29108  1  0  0  0
 33 34  1  0  0  0
 33 66  1  0  0  0
 33 70  2  0  0  0
 34 36  1  0  0  0
 34 59  1  0  0  0
 34109  1  0  0  0
 35 44  2  0  0  0
 35 45  1  0  0  0
 35 68  1  0  0  0
 36 56  1  0  0  0
 36110  1  0  0  0
 37 39  1  0  0  0
 37 47  1  0  0  0
 37 66  1  0  0  0
 37111  1  0  0  0
 38 43  2  0  0  0
 38 46  1  0  0  0
 38 47  1  0  0  0
 39 64  1  0  0  0
 39 67  2  0  0  0
 40 52  1  0  0  0
 40 53  2  0  0  0
 40 58  1  0  0  0
 41112  1  0  0  0
 41113  1  0  0  0
 41114  1  0  0  0
 41 48  1  0  0  0
 42 43  1  0  0  0
 42 66  1  0  0  0
 42115  1  0  0  0
 42116  1  0  0  0
 43 44  1  0  0  0
 44117  1  0  0  0
 45 46  2  0  0  0
 45118  1  0  0  0
 46119  1  0  0  0
 47120  1  0  0  0
 47121  1  0  0  0
 48 56  1  0  0  0
 48 65  1  0  0  0
 48122  1  0  0  0
 49 50  1  0  0  0
 49 53  1  0  0  0
 49 64  1  0  0  0
 49123  1  0  0  0
 50 51  1  0  0  0
 50124  1  0  0  0
 50125  1  0  0  0
 51 52  1  0  0  0
 51126  1  0  0  0
 51127  1  0  0  0
 52128  1  0  0  0
 52129  1  0  0  0
 53 54  1  0  0  0
 54 55  2  0  0  0
 54130  1  0  0  0
 55 57  1  0  0  0
 55131  1  0  0  0
 56 69  2  0  0  0
 57 58  2  0  0  0
 57132  1  0  0  0
 58133  1  0  0  0
 59 60  1  0  0  0
 59 61  1  0  0  0
 59 62  1  0  0  0
 60134  1  0  0  0
 60135  1  0  0  0
 60136  1  0  0  0
 61137  1  0  0  0
 61138  1  0  0  0
 61139  1  0  0  0
 62140  1  0  0  0
 62141  1  0  0  0
 62142  1  0  0  0
 63 65  1  0  0  0
 63143  1  0  0  0
 63144  1  0  0  0
 63145  1  0  0  0
 64146  1  0  0  0
 65147  1  0  0  0
 68 81  1  0  0  0
 71 72  2  0  0  0
 71 73  1  0  0  0
 71148  1  0  0  0
 72 74  1  0  0  0
 72149  1  0  0  0
 73 75  2  0  0  0
 73 82  1  0  0  0
 74 83  1  0  0  0
 74 85  2  0  0  0
 75 85  1  0  0  0
 75 88  1  0  0  0
 76150  1  0  0  0
 76151  1  0  0  0
 76152  1  0  0  0
 76 83  1  0  0  0
 77 83  1  0  0  0
 77153  1  0  0  0
 77154  1  0  0  0
 77155  1  0  0  0
 78156  1  0  0  0
 78157  1  0  0  0
 78158  1  0  0  0
 78 84  1  0  0  0
 79 84  1  0  0  0
 79159  1  0  0  0
 79160  1  0  0  0
 79161  1  0  0  0
 80 83  1  0  0  0
 80 86  1  0  0  0
 80162  1  0  0  0
 80163  1  0  0  0
 81 84  1  0  0  0
 81164  1  0  0  0
 81165  1  0  0  0
 82 84  1  0  0  0
 82 87  1  0  0  0
 82166  1  0  0  0
 86167  1  0  0  0
 87168  1  0  0  0
M  ISO  4   1 100  68 101  81 101  86 100
M  END
> <chiral flag>
0

> <version>
0

> <s_m_source_file>
/data/baiqing/PycharmProjects/Reinvent-master-3.2/result/LINK_invent/BTK/process_docking_weight1_custom_sum_contain_oxygen_bond_distance_aromatic_linkinvent_7_9_3/rearranged_h_0067.sdf

> <i_m_source_file_index>
17

> <r_mmod_Potential_Energy-OPLS-2005>
-73.3955993652344

> <r_mmod_Stretch_Energy-OPLS-2005>
42.3725128173828

> <r_mmod_Bend_Energy-OPLS-2005>
234.234466552734

> <r_mmod_Torsional_Energy-OPLS-2005>
236.564529418945

> <r_mmod_Improper_Torsional_Energy-OPLS-2005>
7.26730537414551

> <r_mmod_Van_der_Waal_Energy-OPLS-2005>
189.698608398438

> <r_mmod_Electrostatic_Energy-OPLS-2005>
-599.246765136719

> <r_mmod_Solvation_Energy-OPLS-2005>
-217.231063842773

> <b_mmod_Minimization_Converged-OPLS-2005>
0

> <r_mmod_RMS_Derivative-OPLS-2005>
3.46620917320251

$$$$
17
                    3D
 Structure written by MMmdl.
157165  0  0  1  0            999 V2000
  -30.7673  -14.4344   20.5268 C   0  0  0  0  0  0
  -30.3961  -12.2660   19.4407 C   0  0  0  0  0  0
  -29.4896  -12.4681   18.2123 C   0  0  0  0  0  0
  -28.0114  -12.3344   18.6220 C   0  0  0  0  0  0
  -27.6495  -13.2052   19.8541 C   0  0  2  0  0  0
  -28.6947  -13.0594   20.9871 C   0  0  0  0  0  0
  -25.2564  -13.8164   20.5693 C   0  0  0  0  0  0
  -24.1819  -13.0434   20.9190 C   0  0  0  0  0  0
  -24.6370  -11.6904   20.8729 C   0  0  0  0  0  0
  -23.9044  -10.4290   21.0393 C   0  0  0  0  0  0
  -24.3601   -9.4211   21.9175 C   0  0  0  0  0  0
  -23.6281   -8.2244   22.0748 C   0  0  0  0  0  0
  -22.4266   -8.0275   21.3540 C   0  0  0  0  0  0
  -21.9891   -9.0250   20.4649 C   0  0  0  0  0  0
  -22.7212  -10.2132   20.3052 C   0  0  0  0  0  0
  -21.6857   -6.0728   22.5279 C   0  0  0  0  0  0
  -21.4021   -6.5634   23.8212 C   0  0  0  0  0  0
  -21.3656   -5.6786   24.9174 C   0  0  0  0  0  0
  -21.6040   -4.3049   24.7230 C   0  0  0  0  0  0
  -21.8819   -3.8140   23.4352 C   0  0  0  0  0  0
  -21.9195   -4.6954   22.3404 C   0  0  0  0  0  0
  -22.7844  -13.5242   21.1839 C   0  0  0  0  0  0
  -22.1662   -4.2137   21.0982 F   0  0  0  0  0  0
  -21.5620   -3.4534   25.7745 F   0  0  0  0  0  0
  -30.0297  -13.2959   20.4273 N   0  0  0  0  0  0
  -26.2968  -12.9322   20.3297 N   0  0  0  0  0  0
  -25.9295  -11.6488   20.5761 N   0  0  0  0  0  0
  -22.0472  -12.8254   22.0399 N   0  0  0  0  0  0
  -25.4290  -15.1887   20.4150 N   0  0  0  0  0  0
  -31.9402  -14.4388   20.1510 O   0  0  0  0  0  0
  -21.6636   -6.8870   21.4241 O   0  0  0  0  0  0
  -22.3533  -14.5534   20.6665 O   0  0  0  0  0  0
  -24.6086  -31.8720   23.2144 C   0  0  0  0  0  0
  -25.8998  -32.4846   23.8435 C   0  0  1  0  0  0
  -27.2306  -27.4884   20.0925 C   0  0  0  0  0  0
  -25.5882  -33.8642   24.2369 N   0  0  0  0  0  0
  -23.3931  -30.4957   21.5535 C   0  0  2  0  0  0
  -24.8386  -28.9699   20.1143 C   0  0  0  0  0  0
  -22.7381  -29.4664   22.5009 C   0  0  0  0  0  0
  -18.0262  -28.1369   22.8498 C   0  0  0  0  0  0
  -24.1479  -36.7330   23.2640 C   0  0  0  0  0  0
  -25.9149  -30.8567   21.3565 C   0  0  0  0  0  0
  -25.9945  -29.4940   20.7063 C   0  0  0  0  0  0
  -27.1953  -28.7606   20.6912 C   0  0  0  0  0  0
  -26.0628  -26.9655   19.4938 C   0  0  0  0  0  0
  -24.8649  -27.7029   19.5056 C   0  0  0  0  0  0
  -23.5984  -29.8299   20.1662 C   0  0  0  0  0  0
  -25.4096  -36.3127   24.0348 C   0  0  1  0  0  0
  -20.5847  -28.3643   23.1343 C   0  0  2  0  0  0
  -20.6743  -26.9384   22.5423 C   0  0  0  0  0  0
  -19.5728  -26.6379   21.5208 C   0  0  0  0  0  0
  -18.1909  -26.7918   22.1623 C   0  0  0  0  0  0
  -19.1511  -28.8820   23.2921 C   0  0  0  0  0  0
  -18.9441  -30.1427   23.8932 C   0  0  0  0  0  0
  -17.6447  -30.6579   24.0563 C   0  0  0  0  0  0
  -25.9017  -34.9487   23.5150 C   0  0  0  0  0  0
  -16.5335  -29.9087   23.6318 C   0  0  0  0  0  0
  -16.7253  -28.6497   23.0348 C   0  0  0  0  0  0
  -26.4461  -31.6600   25.0729 C   0  0  0  0  0  0
  -25.3757  -31.3684   26.1500 C   0  0  0  0  0  0
  -27.0272  -30.3054   24.6036 C   0  0  0  0  0  0
  -27.6054  -32.4303   25.7483 C   0  0  0  0  0  0
  -27.5576  -37.1820   24.8466 C   0  0  0  0  0  0
  -21.4112  -29.3025   22.3765 N   0  0  0  0  0  0
  -26.4289  -37.3803   23.9408 N   0  0  0  0  0  0
  -24.6571  -31.0877   22.1013 N   0  0  0  0  0  0
  -23.4184  -28.8198   23.3020 O   0  0  0  0  0  0
  -28.4099  -26.7936   20.1052 O   0  0  0  0  0  0
  -26.5569  -34.8923   22.4707 O   0  0  0  0  0  0
  -23.5290  -32.1440   23.7578 O   0  0  0  0  0  0
  -30.7522  -20.5638   20.4617 C   0  0  0  0  0  0
  -29.7979  -20.8332   19.4531 C   0  0  0  0  0  0
  -30.3450  -18.3398   20.1460 C   0  0  0  0  0  0
  -31.5749  -21.6400   21.1457 C   0  0  0  0  0  0
  -29.5762  -22.2186   18.8829 C   0  0  0  0  0  0
  -28.6236  -23.0603   19.7319 C   0  0  0  0  0  0
  -28.6663  -24.5392   19.3327 C   0  0  0  0  0  0
  -28.3086  -25.4385   20.5110 C   0  0  0  0  0  0
  -30.9514  -16.9377   20.1529 C   0  0  0  0  0  0
  -30.1663  -15.8156   20.9015 C   0  0  0  0  0  0
  -31.0120  -19.2907   20.8176 N   0  0  0  0  0  0
  -29.0658  -19.8288   18.9162 N   0  0  0  0  0  0
  -29.3520  -18.5659   19.2617 N   0  0  0  0  0  0
  -32.1919  -17.0112   20.6587 F   0  0  0  0  0  0
  -31.0901  -16.6104   18.8597 F   0  0  0  0  0  0
  -28.8817  -15.8853   20.5565 F   0  0  0  0  0  0
  -30.2473  -15.9870   22.2232 F   0  0  0  0  0  0
  -31.4446  -12.3006   19.1411 H   0  0  0  0  0  0
  -30.2515  -11.2725   19.8679 H   0  0  0  0  0  0
  -29.7295  -11.7330   17.4429 H   0  0  0  0  0  0
  -29.6728  -13.4474   17.7668 H   0  0  0  0  0  0
  -27.8266  -11.2829   18.8458 H   0  0  0  0  0  0
  -27.3642  -12.5840   17.7812 H   0  0  0  0  0  0
  -27.6602  -14.2306   19.4925 H   0  0  0  0  0  0
  -28.6562  -12.0573   21.4162 H   0  0  0  0  0  0
  -28.4790  -13.7447   21.8079 H   0  0  0  0  0  0
  -25.2747   -9.5696   22.4747 H   0  0  0  0  0  0
  -23.9992   -7.4643   22.7469 H   0  0  0  0  0  0
  -21.0817   -8.8770   19.8966 H   0  0  0  0  0  0
  -22.3660  -10.9667   19.6163 H   0  0  0  0  0  0
  -21.2021   -7.6144   23.9716 H   0  0  0  0  0  0
  -21.1471   -6.0515   25.9076 H   0  0  0  0  0  0
  -22.0599   -2.7600   23.2856 H   0  0  0  0  0  0
  -22.4083  -11.9949   22.4845 H   0  0  0  0  0  0
  -21.1085  -13.1291   22.2570 H   0  0  0  0  0  0
  -24.6652  -15.8450   20.5378 H   0  0  0  0  0  0
  -26.2913  -15.6336   20.1275 H   0  0  0  0  0  0
  -26.7070  -32.5584   23.1212 H   0  0  0  0  0  0
  -25.0053  -33.9818   25.0527 H   0  0  0  0  0  0
  -22.6784  -31.3097   21.4181 H   0  0  0  0  0  0
  -23.3728  -35.9675   23.3316 H   0  0  0  0  0  0
  -24.3581  -36.8924   22.2050 H   0  0  0  0  0  0
  -23.7237  -37.6548   23.6636 H   0  0  0  0  0  0
  -26.0112  -31.6235   20.5867 H   0  0  0  0  0  0
  -26.8085  -30.9172   21.9661 H   0  0  0  0  0  0
  -28.0895  -29.1616   21.1471 H   0  0  0  0  0  0
  -26.0724  -25.9968   19.0154 H   0  0  0  0  0  0
  -23.9774  -27.2965   19.0413 H   0  0  0  0  0  0
  -23.7029  -30.6049   19.4066 H   0  0  0  0  0  0
  -22.7244  -29.2468   19.8719 H   0  0  0  0  0  0
  -25.1265  -36.2009   25.0841 H   0  0  0  0  0  0
  -20.9938  -28.3186   24.1463 H   0  0  0  0  0  0
  -20.5627  -26.2244   23.3599 H   0  0  0  0  0  0
  -21.6619  -26.7419   22.1226 H   0  0  0  0  0  0
  -19.6885  -25.6296   21.1222 H   0  0  0  0  0  0
  -19.6669  -27.3201   20.6748 H   0  0  0  0  0  0
  -17.4174  -26.6666   21.4026 H   0  0  0  0  0  0
  -18.0314  -26.0056   22.9017 H   0  0  0  0  0  0
  -19.7917  -30.7227   24.2321 H   0  0  0  0  0  0
  -17.5003  -31.6263   24.5158 H   0  0  0  0  0  0
  -15.5339  -30.2999   23.7616 H   0  0  0  0  0  0
  -15.8651  -28.0820   22.7056 H   0  0  0  0  0  0
  -24.5922  -30.7033   25.7854 H   0  0  0  0  0  0
  -24.8957  -32.2829   26.4993 H   0  0  0  0  0  0
  -25.8143  -30.8836   27.0230 H   0  0  0  0  0  0
  -26.2786  -29.6839   24.1106 H   0  0  0  0  0  0
  -27.4091  -29.7262   25.4454 H   0  0  0  0  0  0
  -27.8602  -30.4404   23.9130 H   0  0  0  0  0  0
  -27.2688  -33.3581   26.2123 H   0  0  0  0  0  0
  -28.3837  -32.6895   25.0293 H   0  0  0  0  0  0
  -28.0753  -31.8386   26.5352 H   0  0  0  0  0  0
  -28.2608  -38.0103   24.7496 H   0  0  0  0  0  0
  -28.1056  -36.2634   24.6307 H   0  0  0  0  0  0
  -27.2300  -37.1496   25.8873 H   0  0  0  0  0  0
  -20.9249  -29.8796   21.7048 H   0  0  0  0  0  0
  -26.0184  -38.2884   24.1408 H   0  0  0  0  0  0
  -32.1836  -22.1795   20.4212 H   0  0  0  0  0  0
  -32.2454  -21.2123   21.8915 H   0  0  0  0  0  0
  -30.9295  -22.3536   21.6562 H   0  0  0  0  0  0
  -29.1975  -22.1425   17.8627 H   0  0  0  0  0  0
  -30.5464  -22.7074   18.7994 H   0  0  0  0  0  0
  -28.9198  -22.9704   20.7763 H   0  0  0  0  0  0
  -27.6050  -22.6728   19.6791 H   0  0  0  0  0  0
  -27.9991  -24.7192   18.4896 H   0  0  0  0  0  0
  -29.6649  -24.8160   18.9923 H   0  0  0  0  0  0
  -29.0221  -25.2873   21.3218 H   0  0  0  0  0  0
  -27.3318  -25.1747   20.9224 H   0  0  0  0  0  0
  1 25  1  0  0  0
  1 30  2  0  0  0
  1 80  1  0  0  0
  2  3  1  0  0  0
  2 25  1  0  0  0
  2 88  1  0  0  0
  2 89  1  0  0  0
  3  4  1  0  0  0
  3 90  1  0  0  0
  3 91  1  0  0  0
  4  5  1  0  0  0
  4 92  1  0  0  0
  4 93  1  0  0  0
  5  6  1  0  0  0
  5 26  1  0  0  0
  5 94  1  0  0  0
  6 25  1  0  0  0
  6 95  1  0  0  0
  6 96  1  0  0  0
  7  8  2  0  0  0
  7 26  1  0  0  0
  7 29  1  0  0  0
  8  9  1  0  0  0
  8 22  1  0  0  0
  9 10  1  0  0  0
  9 27  2  0  0  0
 10 11  2  0  0  0
 10 15  1  0  0  0
 11 12  1  0  0  0
 11 97  1  0  0  0
 12 13  2  0  0  0
 12 98  1  0  0  0
 13 14  1  0  0  0
 13 31  1  0  0  0
 14 15  2  0  0  0
 14 99  1  0  0  0
 15100  1  0  0  0
 16 17  2  0  0  0
 16 21  1  0  0  0
 16 31  1  0  0  0
 17 18  1  0  0  0
 17101  1  0  0  0
 18 19  2  0  0  0
 18102  1  0  0  0
 19 20  1  0  0  0
 19 24  1  0  0  0
 20 21  2  0  0  0
 20103  1  0  0  0
 21 23  1  0  0  0
 22 28  1  0  0  0
 22 32  2  0  0  0
 26 27  1  0  0  0
 28104  1  0  0  0
 28105  1  0  0  0
 29106  1  0  0  0
 29107  1  0  0  0
 33 34  1  0  0  0
 33 66  1  0  0  0
 33 70  2  0  0  0
 34 36  1  0  0  0
 34 59  1  0  0  0
 34108  1  0  0  0
 35 44  2  0  0  0
 35 45  1  0  0  0
 35 68  1  0  0  0
 36 56  1  0  0  0
 36109  1  0  0  0
 37 39  1  0  0  0
 37 47  1  0  0  0
 37 66  1  0  0  0
 37110  1  0  0  0
 38 43  2  0  0  0
 38 46  1  0  0  0
 38 47  1  0  0  0
 39 64  1  0  0  0
 39 67  2  0  0  0
 40 52  1  0  0  0
 40 53  2  0  0  0
 40 58  1  0  0  0
 41111  1  0  0  0
 41112  1  0  0  0
 41113  1  0  0  0
 41 48  1  0  0  0
 42 43  1  0  0  0
 42 66  1  0  0  0
 42114  1  0  0  0
 42115  1  0  0  0
 43 44  1  0  0  0
 44116  1  0  0  0
 45 46  2  0  0  0
 45117  1  0  0  0
 46118  1  0  0  0
 47119  1  0  0  0
 47120  1  0  0  0
 48 56  1  0  0  0
 48 65  1  0  0  0
 48121  1  0  0  0
 49 50  1  0  0  0
 49 53  1  0  0  0
 49 64  1  0  0  0
 49122  1  0  0  0
 50 51  1  0  0  0
 50123  1  0  0  0
 50124  1  0  0  0
 51 52  1  0  0  0
 51125  1  0  0  0
 51126  1  0  0  0
 52127  1  0  0  0
 52128  1  0  0  0
 53 54  1  0  0  0
 54 55  2  0  0  0
 54129  1  0  0  0
 55 57  1  0  0  0
 55130  1  0  0  0
 56 69  2  0  0  0
 57 58  2  0  0  0
 57131  1  0  0  0
 58132  1  0  0  0
 59 60  1  0  0  0
 59 61  1  0  0  0
 59 62  1  0  0  0
 60133  1  0  0  0
 60134  1  0  0  0
 60135  1  0  0  0
 61136  1  0  0  0
 61137  1  0  0  0
 61138  1  0  0  0
 62139  1  0  0  0
 62140  1  0  0  0
 62141  1  0  0  0
 63 65  1  0  0  0
 63142  1  0  0  0
 63143  1  0  0  0
 63144  1  0  0  0
 64145  1  0  0  0
 65146  1  0  0  0
 68 78  1  0  0  0
 71 72  2  0  0  0
 71 74  1  0  0  0
 71 81  1  0  0  0
 72 75  1  0  0  0
 72 82  1  0  0  0
 73 79  1  0  0  0
 73 81  2  0  0  0
 73 83  1  0  0  0
 74147  1  0  0  0
 74148  1  0  0  0
 74149  1  0  0  0
 75 76  1  0  0  0
 75150  1  0  0  0
 75151  1  0  0  0
 76 77  1  0  0  0
 76152  1  0  0  0
 76153  1  0  0  0
 77 78  1  0  0  0
 77154  1  0  0  0
 77155  1  0  0  0
 78156  1  0  0  0
 78157  1  0  0  0
 79 80  1  0  0  0
 79 84  1  0  0  0
 79 85  1  0  0  0
 80 86  1  0  0  0
 80 87  1  0  0  0
 82 83  2  0  0  0
M  ISO  4   1 100  68 101  78 101  80 100
M  END
> <chiral flag>
0

> <version>
0

> <s_m_source_file>
/data/baiqing/PycharmProjects/Reinvent-master-3.2/result/LINK_invent/BTK/process_docking_weight1_custom_sum_contain_oxygen_bond_distance_aromatic_linkinvent_7_9_3/rearranged_h_0067.sdf

> <i_m_source_file_index>
18

> <r_mmod_Potential_Energy-OPLS-2005>
72.9745025634766

> <r_mmod_Stretch_Energy-OPLS-2005>
34.6771278381348

> <r_mmod_Bend_Energy-OPLS-2005>
102.046562194824

> <r_mmod_Torsional_Energy-OPLS-2005>
166.669281005859

> <r_mmod_Improper_Torsional_Energy-OPLS-2005>
5.86017465591431

> <r_mmod_Van_der_Waal_Energy-OPLS-2005>
185.03076171875

> <r_mmod_Electrostatic_Energy-OPLS-2005>
-250.870315551758

> <r_mmod_Solvation_Energy-OPLS-2005>
-192.030502319336

> <b_mmod_Minimization_Converged-OPLS-2005>
0

> <r_mmod_RMS_Derivative-OPLS-2005>
1.28352308273315

$$$$
18
                    3D
 Structure written by MMmdl.
179187  0  0  1  0            999 V2000
  -30.7364  -14.5102   20.5008 C   0  0  0  0  0  0
  -30.4088  -12.3160   19.4448 C   0  0  0  0  0  0
  -29.4966  -12.4827   18.2158 C   0  0  0  0  0  0
  -28.0190  -12.3472   18.6283 C   0  0  0  0  0  0
  -27.6557  -13.2172   19.8635 C   0  0  2  0  0  0
  -28.7016  -13.0744   20.9925 C   0  0  0  0  0  0
  -25.2582  -13.8186   20.5711 C   0  0  0  0  0  0
  -24.1845  -13.0467   20.9191 C   0  0  0  0  0  0
  -24.6399  -11.6922   20.8729 C   0  0  0  0  0  0
  -23.9059  -10.4303   21.0377 C   0  0  0  0  0  0
  -24.3603   -9.4229   21.9173 C   0  0  0  0  0  0
  -23.6287   -8.2261   22.0753 C   0  0  0  0  0  0
  -22.4266   -8.0285   21.3543 C   0  0  0  0  0  0
  -21.9892   -9.0260   20.4645 C   0  0  0  0  0  0
  -22.7217  -10.2148   20.3049 C   0  0  0  0  0  0
  -21.6865   -6.0726   22.5278 C   0  0  0  0  0  0
  -21.4018   -6.5627   23.8208 C   0  0  0  0  0  0
  -21.3660   -5.6781   24.9166 C   0  0  0  0  0  0
  -21.6047   -4.3045   24.7213 C   0  0  0  0  0  0
  -21.8826   -3.8138   23.4333 C   0  0  0  0  0  0
  -21.9200   -4.6957   22.3391 C   0  0  0  0  0  0
  -22.7860  -13.5262   21.1820 C   0  0  0  0  0  0
  -22.1667   -4.2148   21.0965 F   0  0  0  0  0  0
  -21.5632   -3.4527   25.7725 F   0  0  0  0  0  0
  -30.0243  -13.3521   20.4186 N   0  0  0  0  0  0
  -26.3013  -12.9374   20.3344 N   0  0  0  0  0  0
  -25.9334  -11.6533   20.5763 N   0  0  0  0  0  0
  -22.0457  -12.8302   22.0367 N   0  0  0  0  0  0
  -25.4315  -15.1907   20.4094 N   0  0  0  0  0  0
  -31.8995  -14.5831   20.1009 O   0  0  0  0  0  0
  -21.6651   -6.8867   21.4234 O   0  0  0  0  0  0
  -22.3564  -14.5571   20.6643 O   0  0  0  0  0  0
  -24.6164  -31.8657   23.2075 C   0  0  0  0  0  0
  -25.9064  -32.4796   23.8366 C   0  0  1  0  0  0
  -27.2201  -27.4118   20.1115 C   0  0  0  0  0  0
  -25.5919  -33.8597   24.2298 N   0  0  0  0  0  0
  -23.4023  -30.4889   21.5478 C   0  0  2  0  0  0
  -24.8479  -28.9538   20.1084 C   0  0  0  0  0  0
  -22.7401  -29.4649   22.4981 C   0  0  0  0  0  0
  -18.0274  -28.1374   22.8510 C   0  0  0  0  0  0
  -24.1485  -36.7316   23.2633 C   0  0  0  0  0  0
  -25.9297  -30.8254   21.3625 C   0  0  0  0  0  0
  -26.0062  -29.4559   20.7164 C   0  0  0  0  0  0
  -27.1950  -28.6893   20.7208 C   0  0  0  0  0  0
  -26.0518  -26.9326   19.4848 C   0  0  0  0  0  0
  -24.8675  -27.6940   19.4852 C   0  0  0  0  0  0
  -23.6084  -29.8196   20.1618 C   0  0  0  0  0  0
  -25.4107  -36.3088   24.0324 C   0  0  1  0  0  0
  -20.5861  -28.3665   23.1332 C   0  0  2  0  0  0
  -20.6760  -26.9401   22.5431 C   0  0  0  0  0  0
  -19.5736  -26.6390   21.5229 C   0  0  0  0  0  0
  -18.1914  -26.7921   22.1633 C   0  0  0  0  0  0
  -19.1520  -28.8839   23.2918 C   0  0  0  0  0  0
  -18.9438  -30.1446   23.8933 C   0  0  0  0  0  0
  -17.6436  -30.6584   24.0569 C   0  0  0  0  0  0
  -25.9040  -34.9458   23.5101 C   0  0  0  0  0  0
  -16.5336  -29.9090   23.6317 C   0  0  0  0  0  0
  -16.7261  -28.6502   23.0353 C   0  0  0  0  0  0
  -26.4503  -31.6574   25.0703 C   0  0  0  0  0  0
  -25.3775  -31.3694   26.1462 C   0  0  0  0  0  0
  -27.0321  -30.3004   24.6080 C   0  0  0  0  0  0
  -27.6083  -32.4284   25.7481 C   0  0  0  0  0  0
  -27.5568  -37.1808   24.8453 C   0  0  0  0  0  0
  -21.4125  -29.3038   22.3740 N   0  0  0  0  0  0
  -26.4282  -37.3779   23.9398 N   0  0  0  0  0  0
  -24.6672  -31.0747   22.0974 N   0  0  0  0  0  0
  -23.4176  -28.8194   23.3019 O   0  0  0  0  0  0
  -28.3659  -26.6473   20.1110 O   0  0  0  0  0  0
  -26.5591  -34.8921   22.4658 O   0  0  0  0  0  0
  -23.5365  -32.1424   23.7470 O   0  0  0  0  0  0
  -32.9277  -20.3777   21.2852 C   0  0  0  0  0  0
  -31.0510  -19.4613   21.1002 C   0  0  0  0  0  0
  -34.3557  -20.6349   21.6080 C   0  0  0  0  0  0
  -30.7956  -20.4165   17.6728 C   0  0  0  0  0  0
  -29.4493  -24.7364   18.5124 C   0  0  0  0  0  0
  -28.7396  -18.4968   20.4009 C   0  0  0  0  0  0
  -29.6565  -18.0565   22.6615 C   0  0  0  0  0  0
  -30.9908  -23.8022   20.9540 C   0  0  0  0  0  0
  -28.9615  -22.6818   21.9097 C   0  0  0  0  0  0
  -30.2346  -21.6683   18.3683 C   0  0  0  0  0  0
  -30.7473  -16.9750   20.6560 C   0  0  0  0  0  0
  -28.2421  -25.3113   20.6585 C   0  0  0  0  0  0
  -28.7917  -24.1161   19.7780 C   0  0  2  0  0  0
  -29.9435  -21.5957   19.8904 C   0  0  2  0  0  0
  -30.0432  -18.2830   21.1869 C   0  0  0  0  0  0
  -29.6838  -23.0459   20.5822 C   0  0  0  0  0  0
  -32.2569  -19.2622   21.6525 N   0  0  0  0  0  0
  -32.2274  -21.2474   20.5893 N   0  0  0  0  0  0
  -30.9679  -20.7311   20.5646 N   0  0  0  0  0  0
  -30.0862  -15.6507   20.8293 N   0  0  0  0  0  0
  -31.4535  -12.3814   19.1384 H   0  0  0  0  0  0
  -30.2910  -11.3240   19.8832 H   0  0  0  0  0  0
  -29.7411  -11.7296   17.4662 H   0  0  0  0  0  0
  -29.6710  -13.4547   17.7515 H   0  0  0  0  0  0
  -27.8435  -11.2935   18.8530 H   0  0  0  0  0  0
  -27.3676  -12.5909   17.7876 H   0  0  0  0  0  0
  -27.6797  -14.2550   19.5303 H   0  0  0  0  0  0
  -28.6865  -12.0644   21.4073 H   0  0  0  0  0  0
  -28.4734  -13.7472   21.8203 H   0  0  0  0  0  0
  -25.2736   -9.5747   22.4764 H   0  0  0  0  0  0
  -24.0010   -7.4670   22.7490 H   0  0  0  0  0  0
  -21.0819   -8.8753   19.8954 H   0  0  0  0  0  0
  -22.3631  -10.9683   19.6170 H   0  0  0  0  0  0
  -21.2000   -7.6138   23.9711 H   0  0  0  0  0  0
  -21.1481   -6.0500   25.9068 H   0  0  0  0  0  0
  -22.0603   -2.7605   23.2828 H   0  0  0  0  0  0
  -22.4038  -11.9983   22.4829 H   0  0  0  0  0  0
  -21.1074  -13.1378   22.2503 H   0  0  0  0  0  0
  -24.6671  -15.8470   20.5253 H   0  0  0  0  0  0
  -26.2791  -15.6264   20.0719 H   0  0  0  0  0  0
  -26.7131  -32.5496   23.1125 H   0  0  0  0  0  0
  -25.0103  -33.9747   25.0466 H   0  0  0  0  0  0
  -22.6928  -31.3064   21.4090 H   0  0  0  0  0  0
  -23.3729  -35.9664   23.3297 H   0  0  0  0  0  0
  -24.3584  -36.8943   22.2047 H   0  0  0  0  0  0
  -23.7266  -37.6530   23.6666 H   0  0  0  0  0  0
  -26.0352  -31.5838   20.5858 H   0  0  0  0  0  0
  -26.8203  -30.8861   21.9753 H   0  0  0  0  0  0
  -28.0824  -29.0616   21.2137 H   0  0  0  0  0  0
  -26.0621  -25.9702   18.9948 H   0  0  0  0  0  0
  -23.9826  -27.3090   18.9973 H   0  0  0  0  0  0
  -23.7027  -30.5900   19.3961 H   0  0  0  0  0  0
  -22.7352  -29.2317   19.8746 H   0  0  0  0  0  0
  -25.1288  -36.1934   25.0816 H   0  0  0  0  0  0
  -20.9954  -28.3221   24.1450 H   0  0  0  0  0  0
  -20.5673  -26.2262   23.3614 H   0  0  0  0  0  0
  -21.6624  -26.7451   22.1211 H   0  0  0  0  0  0
  -19.6883  -25.6310   21.1240 H   0  0  0  0  0  0
  -19.6661  -27.3220   20.6777 H   0  0  0  0  0  0
  -17.4178  -26.6695   21.4032 H   0  0  0  0  0  0
  -18.0292  -26.0063   22.9026 H   0  0  0  0  0  0
  -19.7924  -30.7256   24.2307 H   0  0  0  0  0  0
  -17.5003  -31.6274   24.5154 H   0  0  0  0  0  0
  -15.5341  -30.2998   23.7637 H   0  0  0  0  0  0
  -15.8659  -28.0835   22.7051 H   0  0  0  0  0  0
  -24.5943  -30.7043   25.7809 H   0  0  0  0  0  0
  -24.8989  -32.2858   26.4921 H   0  0  0  0  0  0
  -25.8149  -30.8861   27.0204 H   0  0  0  0  0  0
  -26.2849  -29.6762   24.1166 H   0  0  0  0  0  0
  -27.4111  -29.7257   25.4540 H   0  0  0  0  0  0
  -27.8682  -30.4310   23.9206 H   0  0  0  0  0  0
  -27.2704  -33.3567   26.2102 H   0  0  0  0  0  0
  -28.3897  -32.6857   25.0316 H   0  0  0  0  0  0
  -28.0745  -31.8369   26.5371 H   0  0  0  0  0  0
  -28.2591  -38.0099   24.7489 H   0  0  0  0  0  0
  -28.1058  -36.2634   24.6286 H   0  0  0  0  0  0
  -27.2291  -37.1468   25.8857 H   0  0  0  0  0  0
  -20.9262  -29.8786   21.7001 H   0  0  0  0  0  0
  -26.0160  -38.2849   24.1408 H   0  0  0  0  0  0
  -34.7910  -19.7984   22.1545 H   0  0  0  0  0  0
  -34.4443  -21.5391   22.2124 H   0  0  0  0  0  0
  -34.9245  -20.7811   20.6900 H   0  0  0  0  0  0
  -30.8884  -20.6019   16.6018 H   0  0  0  0  0  0
  -30.1499  -19.5514   17.7935 H   0  0  0  0  0  0
  -31.7881  -20.1557   18.0407 H   0  0  0  0  0  0
  -28.8020  -25.4916   18.0682 H   0  0  0  0  0  0
  -29.6117  -24.0424   17.6973 H   0  0  0  0  0  0
  -30.3989  -25.2216   18.7366 H   0  0  0  0  0  0
  -28.1486  -19.3087   20.8195 H   0  0  0  0  0  0
  -28.1074  -17.6102   20.4352 H   0  0  0  0  0  0
  -28.9326  -18.7032   19.3524 H   0  0  0  0  0  0
  -29.1729  -18.9368   23.0849 H   0  0  0  0  0  0
  -30.5341  -17.8370   23.2699 H   0  0  0  0  0  0
  -28.9678  -17.2185   22.7743 H   0  0  0  0  0  0
  -30.8316  -24.8470   21.2111 H   0  0  0  0  0  0
  -31.6928  -23.8032   20.1196 H   0  0  0  0  0  0
  -31.4951  -23.3647   21.8149 H   0  0  0  0  0  0
  -28.8108  -23.5248   22.5797 H   0  0  0  0  0  0
  -29.5277  -21.9504   22.4884 H   0  0  0  0  0  0
  -27.9792  -22.2476   21.7179 H   0  0  0  0  0  0
  -29.3071  -21.9323   17.8606 H   0  0  0  0  0  0
  -30.9586  -22.4611   18.1867 H   0  0  0  0  0  0
  -31.7114  -16.8775   21.1581 H   0  0  0  0  0  0
  -30.9880  -17.1090   19.5985 H   0  0  0  0  0  0
  -28.7871  -25.3978   21.5950 H   0  0  0  0  0  0
  -27.2219  -25.0774   20.9708 H   0  0  0  0  0  0
  -27.9086  -23.5819   19.4249 H   0  0  0  0  0  0
  -29.0016  -21.0627   19.9541 H   0  0  0  0  0  0
  -29.1166  -15.6080   21.1003 H   0  0  0  0  0  0
  1 25  1  0  0  0
  1 30  2  0  0  0
  1 90  1  0  0  0
  2  3  1  0  0  0
  2 25  1  0  0  0
  2 91  1  0  0  0
  2 92  1  0  0  0
  3  4  1  0  0  0
  3 93  1  0  0  0
  3 94  1  0  0  0
  4  5  1  0  0  0
  4 95  1  0  0  0
  4 96  1  0  0  0
  5  6  1  0  0  0
  5 26  1  0  0  0
  5 97  1  0  0  0
  6 25  1  0  0  0
  6 98  1  0  0  0
  6 99  1  0  0  0
  7  8  2  0  0  0
  7 26  1  0  0  0
  7 29  1  0  0  0
  8  9  1  0  0  0
  8 22  1  0  0  0
  9 10  1  0  0  0
  9 27  2  0  0  0
 10 11  2  0  0  0
 10 15  1  0  0  0
 11 12  1  0  0  0
 11100  1  0  0  0
 12 13  2  0  0  0
 12101  1  0  0  0
 13 14  1  0  0  0
 13 31  1  0  0  0
 14 15  2  0  0  0
 14102  1  0  0  0
 15103  1  0  0  0
 16 17  2  0  0  0
 16 21  1  0  0  0
 16 31  1  0  0  0
 17 18  1  0  0  0
 17104  1  0  0  0
 18 19  2  0  0  0
 18105  1  0  0  0
 19 20  1  0  0  0
 19 24  1  0  0  0
 20 21  2  0  0  0
 20106  1  0  0  0
 21 23  1  0  0  0
 22 28  1  0  0  0
 22 32  2  0  0  0
 26 27  1  0  0  0
 28107  1  0  0  0
 28108  1  0  0  0
 29109  1  0  0  0
 29110  1  0  0  0
 33 34  1  0  0  0
 33 66  1  0  0  0
 33 70  2  0  0  0
 34 36  1  0  0  0
 34 59  1  0  0  0
 34111  1  0  0  0
 35 44  2  0  0  0
 35 45  1  0  0  0
 35 68  1  0  0  0
 36 56  1  0  0  0
 36112  1  0  0  0
 37 39  1  0  0  0
 37 47  1  0  0  0
 37 66  1  0  0  0
 37113  1  0  0  0
 38 43  2  0  0  0
 38 46  1  0  0  0
 38 47  1  0  0  0
 39 64  1  0  0  0
 39 67  2  0  0  0
 40 52  1  0  0  0
 40 53  2  0  0  0
 40 58  1  0  0  0
 41114  1  0  0  0
 41115  1  0  0  0
 41116  1  0  0  0
 41 48  1  0  0  0
 42 43  1  0  0  0
 42 66  1  0  0  0
 42117  1  0  0  0
 42118  1  0  0  0
 43 44  1  0  0  0
 44119  1  0  0  0
 45 46  2  0  0  0
 45120  1  0  0  0
 46121  1  0  0  0
 47122  1  0  0  0
 47123  1  0  0  0
 48 56  1  0  0  0
 48 65  1  0  0  0
 48124  1  0  0  0
 49 50  1  0  0  0
 49 53  1  0  0  0
 49 64  1  0  0  0
 49125  1  0  0  0
 50 51  1  0  0  0
 50126  1  0  0  0
 50127  1  0  0  0
 51 52  1  0  0  0
 51128  1  0  0  0
 51129  1  0  0  0
 52130  1  0  0  0
 52131  1  0  0  0
 53 54  1  0  0  0
 54 55  2  0  0  0
 54132  1  0  0  0
 55 57  1  0  0  0
 55133  1  0  0  0
 56 69  2  0  0  0
 57 58  2  0  0  0
 57134  1  0  0  0
 58135  1  0  0  0
 59 60  1  0  0  0
 59 61  1  0  0  0
 59 62  1  0  0  0
 60136  1  0  0  0
 60137  1  0  0  0
 60138  1  0  0  0
 61139  1  0  0  0
 61140  1  0  0  0
 61141  1  0  0  0
 62142  1  0  0  0
 62143  1  0  0  0
 62144  1  0  0  0
 63 65  1  0  0  0
 63145  1  0  0  0
 63146  1  0  0  0
 63147  1  0  0  0
 64148  1  0  0  0
 65149  1  0  0  0
 68 82  1  0  0  0
 71 73  1  0  0  0
 71 87  1  0  0  0
 71 88  2  0  0  0
 72 85  1  0  0  0
 72 87  2  0  0  0
 72 89  1  0  0  0
 73150  1  0  0  0
 73151  1  0  0  0
 73152  1  0  0  0
 74 80  1  0  0  0
 74153  1  0  0  0
 74154  1  0  0  0
 74155  1  0  0  0
 75156  1  0  0  0
 75157  1  0  0  0
 75158  1  0  0  0
 75 83  1  0  0  0
 76159  1  0  0  0
 76160  1  0  0  0
 76161  1  0  0  0
 76 85  1  0  0  0
 77 85  1  0  0  0
 77162  1  0  0  0
 77163  1  0  0  0
 77164  1  0  0  0
 78165  1  0  0  0
 78166  1  0  0  0
 78167  1  0  0  0
 78 86  1  0  0  0
 79 86  1  0  0  0
 79168  1  0  0  0
 79169  1  0  0  0
 79170  1  0  0  0
 80171  1  0  0  0
 80172  1  0  0  0
 80 84  1  0  0  0
 81 85  1  0  0  0
 81 90  1  0  0  0
 81173  1  0  0  0
 81174  1  0  0  0
 82 83  1  0  0  0
 82175  1  0  0  0
 82176  1  0  0  0
 83 86  1  0  0  0
 83177  1  0  0  0
 84 86  1  0  0  0
 84 89  1  0  0  0
 84178  1  0  0  0
 88 89  1  0  0  0
 90179  1  0  0  0
M  ISO  4   1 100  68 101  82 101  90 100
M  END
> <chiral flag>
0

> <version>
0

> <s_m_source_file>
/data/baiqing/PycharmProjects/Reinvent-master-3.2/result/LINK_invent/BTK/process_docking_weight1_custom_sum_contain_oxygen_bond_distance_aromatic_linkinvent_7_9_3/rearranged_h_0067.sdf

> <i_m_source_file_index>
19

> <r_mmod_Potential_Energy-OPLS-2005>
116.798934936523

> <r_mmod_Stretch_Energy-OPLS-2005>
75.165397644043

> <r_mmod_Bend_Energy-OPLS-2005>
183.967147827148

> <r_mmod_Torsional_Energy-OPLS-2005>
291.58154296875

> <r_mmod_Improper_Torsional_Energy-OPLS-2005>
4.97337436676025

> <r_mmod_Van_der_Waal_Energy-OPLS-2005>
161.030822753906

> <r_mmod_Electrostatic_Energy-OPLS-2005>
-416.441741943359

> <r_mmod_Solvation_Energy-OPLS-2005>
-205.931411743164

> <b_mmod_Minimization_Converged-OPLS-2005>
0

> <r_mmod_RMS_Derivative-OPLS-2005>
2.91633248329163

$$$$
19
                    3D
 Structure written by MMmdl.
169177  0  0  1  0            999 V2000
  -30.7382  -14.4626   20.5872 C   0  0  0  0  0  0
  -30.4243  -12.3112   19.4288 C   0  0  0  0  0  0
  -29.4983  -12.5096   18.2119 C   0  0  0  0  0  0
  -28.0208  -12.3553   18.6234 C   0  0  0  0  0  0
  -27.6615  -13.2033   19.8698 C   0  0  2  0  0  0
  -28.7072  -13.0120   20.9971 C   0  0  0  0  0  0
  -25.2518  -13.8115   20.5636 C   0  0  0  0  0  0
  -24.1818  -13.0394   20.9164 C   0  0  0  0  0  0
  -24.6396  -11.6874   20.8742 C   0  0  0  0  0  0
  -23.9069  -10.4267   21.0415 C   0  0  0  0  0  0
  -24.3623   -9.4192   21.9184 C   0  0  0  0  0  0
  -23.6298   -8.2237   22.0761 C   0  0  0  0  0  0
  -22.4283   -8.0275   21.3542 C   0  0  0  0  0  0
  -21.9907   -9.0255   20.4649 C   0  0  0  0  0  0
  -22.7247  -10.2129   20.3061 C   0  0  0  0  0  0
  -21.6856   -6.0729   22.5265 C   0  0  0  0  0  0
  -21.4006   -6.5637   23.8201 C   0  0  0  0  0  0
  -21.3661   -5.6784   24.9158 C   0  0  0  0  0  0
  -21.6048   -4.3049   24.7197 C   0  0  0  0  0  0
  -21.8833   -3.8143   23.4318 C   0  0  0  0  0  0
  -21.9193   -4.6957   22.3382 C   0  0  0  0  0  0
  -22.7825  -13.5192   21.1790 C   0  0  0  0  0  0
  -22.1661   -4.2151   21.0964 F   0  0  0  0  0  0
  -21.5626   -3.4538   25.7722 F   0  0  0  0  0  0
  -30.0458  -13.2981   20.4494 N   0  0  0  0  0  0
  -26.3011  -12.9325   20.3342 N   0  0  0  0  0  0
  -25.9331  -11.6490   20.5816 N   0  0  0  0  0  0
  -22.0476  -12.8230   22.0383 N   0  0  0  0  0  0
  -25.4012  -15.1818   20.3954 N   0  0  0  0  0  0
  -31.8480  -14.6507   20.0850 O   0  0  0  0  0  0
  -21.6637   -6.8881   21.4230 O   0  0  0  0  0  0
  -22.3521  -14.5504   20.6628 O   0  0  0  0  0  0
  -24.6143  -31.8658   23.2081 C   0  0  0  0  0  0
  -25.9049  -32.4804   23.8371 C   0  0  1  0  0  0
  -27.2405  -27.4295   20.0930 C   0  0  0  0  0  0
  -25.5901  -33.8603   24.2294 N   0  0  0  0  0  0
  -23.4038  -30.4885   21.5477 C   0  0  2  0  0  0
  -24.8511  -28.9531   20.1115 C   0  0  0  0  0  0
  -22.7403  -29.4653   22.4972 C   0  0  0  0  0  0
  -18.0275  -28.1367   22.8494 C   0  0  0  0  0  0
  -24.1499  -36.7312   23.2637 C   0  0  0  0  0  0
  -25.9334  -30.8290   21.3629 C   0  0  0  0  0  0
  -26.0114  -29.4640   20.7061 C   0  0  0  0  0  0
  -27.2097  -28.7127   20.6870 C   0  0  0  0  0  0
  -26.0622  -26.9330   19.4908 C   0  0  0  0  0  0
  -24.8721  -27.6863   19.5011 C   0  0  0  0  0  0
  -23.6120  -29.8183   20.1631 C   0  0  0  0  0  0
  -25.4122  -36.3096   24.0325 C   0  0  1  0  0  0
  -20.5861  -28.3659   23.1319 C   0  0  2  0  0  0
  -20.6768  -26.9394   22.5422 C   0  0  0  0  0  0
  -19.5752  -26.6377   21.5212 C   0  0  0  0  0  0
  -18.1927  -26.7922   22.1617 C   0  0  0  0  0  0
  -19.1524  -28.8830   23.2901 C   0  0  0  0  0  0
  -18.9454  -30.1437   23.8907 C   0  0  0  0  0  0
  -17.6459  -30.6576   24.0564 C   0  0  0  0  0  0
  -25.9037  -34.9466   23.5103 C   0  0  0  0  0  0
  -16.5347  -29.9077   23.6322 C   0  0  0  0  0  0
  -16.7267  -28.6492   23.0351 C   0  0  0  0  0  0
  -26.4473  -31.6595   25.0708 C   0  0  0  0  0  0
  -25.3743  -31.3719   26.1461 C   0  0  0  0  0  0
  -27.0294  -30.3038   24.6091 C   0  0  0  0  0  0
  -27.6032  -32.4329   25.7474 C   0  0  0  0  0  0
  -27.5585  -37.1808   24.8456 C   0  0  0  0  0  0
  -21.4129  -29.3026   22.3715 N   0  0  0  0  0  0
  -26.4300  -37.3788   23.9389 N   0  0  0  0  0  0
  -24.6687  -31.0759   22.0979 N   0  0  0  0  0  0
  -23.4179  -28.8195   23.3013 O   0  0  0  0  0  0
  -28.4113  -26.6942   20.1046 O   0  0  0  0  0  0
  -26.5607  -34.8924   22.4664 O   0  0  0  0  0  0
  -23.5332  -32.1417   23.7471 O   0  0  0  0  0  0
  -28.7248  -21.1387   20.6958 C   0  0  0  0  0  0
  -28.7163  -21.7276   19.4180 C   0  0  0  0  0  0
  -29.3207  -20.9569   18.4028 C   0  0  0  0  0  0
  -29.5302  -19.1627   19.8505 C   0  0  0  0  0  0
  -28.3924  -20.6982   16.0739 C   0  0  0  0  0  0
  -30.8686  -21.1840   16.3979 C   0  0  0  0  0  0
  -29.6681  -16.9559   18.5516 C   0  0  0  0  0  0
  -27.9233  -17.3075   20.2784 C   0  0  0  0  0  0
  -27.9126  -23.0136   19.1511 C   0  0  0  0  0  0
  -28.6496  -24.3824   19.1757 C   0  0  0  0  0  0
  -30.3326  -16.9295   20.9876 C   0  0  0  0  0  0
  -28.2997  -25.2848   20.3867 C   0  0  0  0  0  0
  -29.4452  -21.3991   16.9465 C   0  0  0  0  0  0
  -29.3935  -17.6110   19.9344 C   0  0  0  0  0  0
  -29.1365  -19.8713   20.9077 N   0  0  0  0  0  0
  -29.6962  -19.6859   18.6381 N   0  0  0  0  0  0
  -30.0620  -15.4766   21.1546 N   0  0  0  0  0  0
  -31.4685  -12.3983   19.1226 H   0  0  0  0  0  0
  -30.3184  -11.3038   19.8313 H   0  0  0  0  0  0
  -29.7467  -11.7893   17.4315 H   0  0  0  0  0  0
  -29.6629  -13.4968   17.7774 H   0  0  0  0  0  0
  -27.8473  -11.2999   18.8309 H   0  0  0  0  0  0
  -27.3688  -12.6105   17.7895 H   0  0  0  0  0  0
  -27.6968  -14.2384   19.5446 H   0  0  0  0  0  0
  -28.6811  -11.9879   21.3720 H   0  0  0  0  0  0
  -28.4643  -13.6405   21.8547 H   0  0  0  0  0  0
  -25.2785   -9.5673   22.4736 H   0  0  0  0  0  0
  -24.0008   -7.4632   22.7488 H   0  0  0  0  0  0
  -21.0828   -8.8783   19.8954 H   0  0  0  0  0  0
  -22.3726  -10.9660   19.6153 H   0  0  0  0  0  0
  -21.2016   -7.6151   23.9697 H   0  0  0  0  0  0
  -21.1462   -6.0514   25.9056 H   0  0  0  0  0  0
  -22.0620   -2.7611   23.2817 H   0  0  0  0  0  0
  -22.4118  -11.9926   22.4808 H   0  0  0  0  0  0
  -21.1087  -13.1243   22.2593 H   0  0  0  0  0  0
  -24.6217  -15.8217   20.4963 H   0  0  0  0  0  0
  -26.2411  -15.6345   20.0624 H   0  0  0  0  0  0
  -26.7109  -32.5512   23.1111 H   0  0  0  0  0  0
  -25.0065  -33.9768   25.0454 H   0  0  0  0  0  0
  -22.6929  -31.3053   21.4064 H   0  0  0  0  0  0
  -23.3751  -35.9653   23.3306 H   0  0  0  0  0  0
  -24.3588  -36.8928   22.2047 H   0  0  0  0  0  0
  -23.7266  -37.6523   23.6657 H   0  0  0  0  0  0
  -26.0518  -31.5977   20.5977 H   0  0  0  0  0  0
  -26.8183  -30.8758   21.9862 H   0  0  0  0  0  0
  -28.1073  -29.1061   21.1454 H   0  0  0  0  0  0
  -26.0563  -25.9651   19.0094 H   0  0  0  0  0  0
  -23.9816  -27.2875   19.0361 H   0  0  0  0  0  0
  -23.7166  -30.5918   19.4005 H   0  0  0  0  0  0
  -22.7374  -29.2344   19.8710 H   0  0  0  0  0  0
  -25.1305  -36.1948   25.0820 H   0  0  0  0  0  0
  -20.9963  -28.3222   24.1433 H   0  0  0  0  0  0
  -20.5668  -26.2260   23.3602 H   0  0  0  0  0  0
  -21.6640  -26.7434   22.1211 H   0  0  0  0  0  0
  -19.6913  -25.6289   21.1233 H   0  0  0  0  0  0
  -19.6702  -27.3193   20.6745 H   0  0  0  0  0  0
  -17.4203  -26.6681   21.4005 H   0  0  0  0  0  0
  -18.0317  -26.0051   22.8996 H   0  0  0  0  0  0
  -19.7929  -30.7248   24.2282 H   0  0  0  0  0  0
  -17.5013  -31.6267   24.5145 H   0  0  0  0  0  0
  -15.5346  -30.2981   23.7647 H   0  0  0  0  0  0
  -15.8667  -28.0815   22.7059 H   0  0  0  0  0  0
  -24.5903  -30.7075   25.7813 H   0  0  0  0  0  0
  -24.8954  -32.2883   26.4915 H   0  0  0  0  0  0
  -25.8104  -30.8888   27.0210 H   0  0  0  0  0  0
  -26.2832  -29.6806   24.1150 H   0  0  0  0  0  0
  -27.4061  -29.7270   25.4541 H   0  0  0  0  0  0
  -27.8666  -30.4344   23.9236 H   0  0  0  0  0  0
  -27.2628  -33.3604   26.2086 H   0  0  0  0  0  0
  -28.3826  -32.6936   25.0304 H   0  0  0  0  0  0
  -28.0720  -31.8445   26.5366 H   0  0  0  0  0  0
  -28.2603  -38.0112   24.7503 H   0  0  0  0  0  0
  -28.1088  -36.2632   24.6280 H   0  0  0  0  0  0
  -27.2296  -37.1455   25.8865 H   0  0  0  0  0  0
  -20.9283  -29.8748   21.6945 H   0  0  0  0  0  0
  -26.0183  -38.2863   24.1403 H   0  0  0  0  0  0
  -28.2875  -21.6435   21.5444 H   0  0  0  0  0  0
  -27.3860  -20.9257   16.4252 H   0  0  0  0  0  0
  -28.5142  -19.6139   16.1018 H   0  0  0  0  0  0
  -28.4639  -21.0160   15.0347 H   0  0  0  0  0  0
  -31.6076  -21.7089   17.0023 H   0  0  0  0  0  0
  -30.9565  -21.5499   15.3760 H   0  0  0  0  0  0
  -31.1397  -20.1268   16.3925 H   0  0  0  0  0  0
  -29.0110  -17.3588   17.7824 H   0  0  0  0  0  0
  -29.4952  -15.8832   18.5526 H   0  0  0  0  0  0
  -30.6949  -17.1296   18.2294 H   0  0  0  0  0  0
  -27.2397  -17.7640   19.5607 H   0  0  0  0  0  0
  -27.6574  -17.6793   21.2681 H   0  0  0  0  0  0
  -27.7428  -16.2429   20.2823 H   0  0  0  0  0  0
  -27.0710  -23.0314   19.8446 H   0  0  0  0  0  0
  -27.4248  -22.9063   18.1801 H   0  0  0  0  0  0
  -28.3411  -24.9282   18.2817 H   0  0  0  0  0  0
  -29.7287  -24.2569   19.0735 H   0  0  0  0  0  0
  -31.3760  -17.1057   20.7224 H   0  0  0  0  0  0
  -30.1911  -17.4071   21.9585 H   0  0  0  0  0  0
  -28.9838  -25.0496   21.2013 H   0  0  0  0  0  0
  -27.3129  -25.0410   20.7832 H   0  0  0  0  0  0
  -29.2593  -22.4712   16.8949 H   0  0  0  0  0  0
  -29.1791  -15.2280   21.5752 H   0  0  0  0  0  0
  1 25  1  0  0  0
  1 30  2  0  0  0
  1 87  1  0  0  0
  2  3  1  0  0  0
  2 25  1  0  0  0
  2 88  1  0  0  0
  2 89  1  0  0  0
  3  4  1  0  0  0
  3 90  1  0  0  0
  3 91  1  0  0  0
  4  5  1  0  0  0
  4 92  1  0  0  0
  4 93  1  0  0  0
  5  6  1  0  0  0
  5 26  1  0  0  0
  5 94  1  0  0  0
  6 25  1  0  0  0
  6 95  1  0  0  0
  6 96  1  0  0  0
  7  8  2  0  0  0
  7 26  1  0  0  0
  7 29  1  0  0  0
  8  9  1  0  0  0
  8 22  1  0  0  0
  9 10  1  0  0  0
  9 27  2  0  0  0
 10 11  2  0  0  0
 10 15  1  0  0  0
 11 12  1  0  0  0
 11 97  1  0  0  0
 12 13  2  0  0  0
 12 98  1  0  0  0
 13 14  1  0  0  0
 13 31  1  0  0  0
 14 15  2  0  0  0
 14 99  1  0  0  0
 15100  1  0  0  0
 16 17  2  0  0  0
 16 21  1  0  0  0
 16 31  1  0  0  0
 17 18  1  0  0  0
 17101  1  0  0  0
 18 19  2  0  0  0
 18102  1  0  0  0
 19 20  1  0  0  0
 19 24  1  0  0  0
 20 21  2  0  0  0
 20103  1  0  0  0
 21 23  1  0  0  0
 22 28  1  0  0  0
 22 32  2  0  0  0
 26 27  1  0  0  0
 28104  1  0  0  0
 28105  1  0  0  0
 29106  1  0  0  0
 29107  1  0  0  0
 33 34  1  0  0  0
 33 66  1  0  0  0
 33 70  2  0  0  0
 34 36  1  0  0  0
 34 59  1  0  0  0
 34108  1  0  0  0
 35 44  2  0  0  0
 35 45  1  0  0  0
 35 68  1  0  0  0
 36 56  1  0  0  0
 36109  1  0  0  0
 37 39  1  0  0  0
 37 47  1  0  0  0
 37 66  1  0  0  0
 37110  1  0  0  0
 38 43  2  0  0  0
 38 46  1  0  0  0
 38 47  1  0  0  0
 39 64  1  0  0  0
 39 67  2  0  0  0
 40 52  1  0  0  0
 40 53  2  0  0  0
 40 58  1  0  0  0
 41111  1  0  0  0
 41112  1  0  0  0
 41113  1  0  0  0
 41 48  1  0  0  0
 42 43  1  0  0  0
 42 66  1  0  0  0
 42114  1  0  0  0
 42115  1  0  0  0
 43 44  1  0  0  0
 44116  1  0  0  0
 45 46  2  0  0  0
 45117  1  0  0  0
 46118  1  0  0  0
 47119  1  0  0  0
 47120  1  0  0  0
 48 56  1  0  0  0
 48 65  1  0  0  0
 48121  1  0  0  0
 49 50  1  0  0  0
 49 53  1  0  0  0
 49 64  1  0  0  0
 49122  1  0  0  0
 50 51  1  0  0  0
 50123  1  0  0  0
 50124  1  0  0  0
 51 52  1  0  0  0
 51125  1  0  0  0
 51126  1  0  0  0
 52127  1  0  0  0
 52128  1  0  0  0
 53 54  1  0  0  0
 54 55  2  0  0  0
 54129  1  0  0  0
 55 57  1  0  0  0
 55130  1  0  0  0
 56 69  2  0  0  0
 57 58  2  0  0  0
 57131  1  0  0  0
 58132  1  0  0  0
 59 60  1  0  0  0
 59 61  1  0  0  0
 59 62  1  0  0  0
 60133  1  0  0  0
 60134  1  0  0  0
 60135  1  0  0  0
 61136  1  0  0  0
 61137  1  0  0  0
 61138  1  0  0  0
 62139  1  0  0  0
 62140  1  0  0  0
 62141  1  0  0  0
 63 65  1  0  0  0
 63142  1  0  0  0
 63143  1  0  0  0
 63144  1  0  0  0
 64145  1  0  0  0
 65146  1  0  0  0
 68 82  1  0  0  0
 71 72  2  0  0  0
 71 85  1  0  0  0
 71147  1  0  0  0
 72 73  1  0  0  0
 72 79  1  0  0  0
 73 83  1  0  0  0
 73 86  2  0  0  0
 74 84  1  0  0  0
 74 85  2  0  0  0
 74 86  1  0  0  0
 75148  1  0  0  0
 75149  1  0  0  0
 75150  1  0  0  0
 75 83  1  0  0  0
 76 83  1  0  0  0
 76151  1  0  0  0
 76152  1  0  0  0
 76153  1  0  0  0
 77154  1  0  0  0
 77155  1  0  0  0
 77156  1  0  0  0
 77 84  1  0  0  0
 78 84  1  0  0  0
 78157  1  0  0  0
 78158  1  0  0  0
 78159  1  0  0  0
 79 80  1  0  0  0
 79160  1  0  0  0
 79161  1  0  0  0
 80 82  1  0  0  0
 80162  1  0  0  0
 80163  1  0  0  0
 81 84  1  0  0  0
 81 87  1  0  0  0
 81164  1  0  0  0
 81165  1  0  0  0
 82166  1  0  0  0
 82167  1  0  0  0
 83168  1  0  0  0
 87169  1  0  0  0
M  ISO  4   1 100  68 101  82 101  87 100
M  END
> <chiral flag>
0

> <version>
0

> <s_m_source_file>
/data/baiqing/PycharmProjects/Reinvent-master-3.2/result/LINK_invent/BTK/process_docking_weight1_custom_sum_contain_oxygen_bond_distance_aromatic_linkinvent_7_9_3/rearranged_h_0067.sdf

> <i_m_source_file_index>
20

> <r_mmod_Potential_Energy-OPLS-2005>
-445.320556640625

> <r_mmod_Stretch_Energy-OPLS-2005>
43.68115234375

> <r_mmod_Bend_Energy-OPLS-2005>
113.926284790039

> <r_mmod_Torsional_Energy-OPLS-2005>
234.455596923828

> <r_mmod_Improper_Torsional_Energy-OPLS-2005>
9.13851642608643

> <r_mmod_Van_der_Waal_Energy-OPLS-2005>
168.802291870117

> <r_mmod_Electrostatic_Energy-OPLS-2005>
-813.101867675781

> <r_mmod_Solvation_Energy-OPLS-2005>
-214.992294311523

> <b_mmod_Minimization_Converged-OPLS-2005>
0

> <r_mmod_RMS_Derivative-OPLS-2005>
3.26282238960266

$$$$
20
                    3D
 Structure written by MMmdl.
156164  0  0  1  0            999 V2000
  -30.6302  -14.7281   20.4441 C   0  0  0  0  0  0
  -30.4357  -12.4399   19.4693 C   0  0  0  0  0  0
  -29.5053  -12.4898   18.2345 C   0  0  0  0  0  0
  -28.0349  -12.2979   18.6539 C   0  0  0  0  0  0
  -27.6390  -13.2057   19.8426 C   0  0  2  0  0  0
  -28.6878  -13.1747   20.9773 C   0  0  0  0  0  0
  -25.2584  -13.8139   20.5716 C   0  0  0  0  0  0
  -24.1823  -13.0424   20.9201 C   0  0  0  0  0  0
  -24.6374  -11.6890   20.8779 C   0  0  0  0  0  0
  -23.9036  -10.4290   21.0471 C   0  0  0  0  0  0
  -24.3600   -9.4196   21.9230 C   0  0  0  0  0  0
  -23.6287   -8.2218   22.0768 C   0  0  0  0  0  0
  -22.4264   -8.0278   21.3554 C   0  0  0  0  0  0
  -21.9920   -9.0254   20.4656 C   0  0  0  0  0  0
  -22.7231  -10.2141   20.3091 C   0  0  0  0  0  0
  -21.6836   -6.0749   22.5293 C   0  0  0  0  0  0
  -21.4005   -6.5666   23.8226 C   0  0  0  0  0  0
  -21.3632   -5.6816   24.9180 C   0  0  0  0  0  0
  -21.6029   -4.3080   24.7227 C   0  0  0  0  0  0
  -21.8829   -3.8162   23.4355 C   0  0  0  0  0  0
  -21.9211   -4.6981   22.3415 C   0  0  0  0  0  0
  -22.7870  -13.5250   21.1884 C   0  0  0  0  0  0
  -22.1692   -4.2161   21.0994 F   0  0  0  0  0  0
  -21.5609   -3.4580   25.7751 F   0  0  0  0  0  0
  -29.9944  -13.5071   20.3997 N   0  0  0  0  0  0
  -26.2951  -12.9261   20.3295 N   0  0  0  0  0  0
  -25.9294  -11.6437   20.5793 N   0  0  0  0  0  0
  -22.0530  -12.8197   22.0432 N   0  0  0  0  0  0
  -25.4419  -15.1847   20.4189 N   0  0  0  0  0  0
  -31.8361  -14.7821   20.1866 O   0  0  0  0  0  0
  -21.6617   -6.8881   21.4247 O   0  0  0  0  0  0
  -22.3574  -14.5576   20.6766 O   0  0  0  0  0  0
  -24.6282  -31.8620   23.2030 C   0  0  0  0  0  0
  -25.9134  -32.4795   23.8372 C   0  0  1  0  0  0
  -27.2270  -27.3031   20.1410 C   0  0  0  0  0  0
  -25.5972  -33.8606   24.2321 N   0  0  0  0  0  0
  -23.4233  -30.4856   21.5451 C   0  0  2  0  0  0
  -24.8715  -28.9329   20.1178 C   0  0  0  0  0  0
  -22.7503  -29.4639   22.4933 C   0  0  0  0  0  0
  -18.0302  -28.1361   22.8497 C   0  0  0  0  0  0
  -24.1491  -36.7286   23.2630 C   0  0  0  0  0  0
  -25.9660  -30.7899   21.3745 C   0  0  0  0  0  0
  -26.0426  -29.4140   20.7203 C   0  0  0  0  0  0
  -27.2239  -28.6118   20.7187 C   0  0  0  0  0  0
  -26.0394  -26.8843   19.5002 C   0  0  0  0  0  0
  -24.8725  -27.6735   19.4980 C   0  0  0  0  0  0
  -23.6434  -29.8189   20.1622 C   0  0  0  0  0  0
  -25.4125  -36.3102   24.0333 C   0  0  1  0  0  0
  -20.5904  -28.3694   23.1264 C   0  0  2  0  0  0
  -20.6793  -26.9414   22.5404 C   0  0  0  0  0  0
  -19.5771  -26.6365   21.5211 C   0  0  0  0  0  0
  -18.1944  -26.7905   22.1615 C   0  0  0  0  0  0
  -19.1551  -28.8842   23.2872 C   0  0  0  0  0  0
  -18.9473  -30.1440   23.8892 C   0  0  0  0  0  0
  -17.6468  -30.6569   24.0548 C   0  0  0  0  0  0
  -25.9062  -34.9470   23.5121 C   0  0  0  0  0  0
  -16.5367  -29.9055   23.6316 C   0  0  0  0  0  0
  -16.7288  -28.6465   23.0363 C   0  0  0  0  0  0
  -26.4520  -31.6584   25.0726 C   0  0  0  0  0  0
  -25.3751  -31.3702   26.1448 C   0  0  0  0  0  0
  -27.0353  -30.3019   24.6131 C   0  0  0  0  0  0
  -27.6073  -32.4305   25.7512 C   0  0  0  0  0  0
  -27.5595  -37.1811   24.8475 C   0  0  0  0  0  0
  -21.4213  -29.3061   22.3669 N   0  0  0  0  0  0
  -26.4305  -37.3805   23.9413 N   0  0  0  0  0  0
  -24.6909  -31.0633   22.0983 N   0  0  0  0  0  0
  -23.4216  -28.8167   23.3016 O   0  0  0  0  0  0
  -28.3327  -26.4333   20.1839 O   0  0  0  0  0  0
  -26.5587  -34.8922   22.4660 O   0  0  0  0  0  0
  -23.5455  -32.1425   23.7365 O   0  0  0  0  0  0
  -30.2847  -17.3296   21.0499 C   0  0  0  0  0  0
  -29.8477  -16.0886   20.5755 C   0  0  0  0  0  0
  -29.1533  -23.7933   18.6889 C   0  0  0  0  0  0
  -30.4864  -24.1432   20.7939 C   0  0  0  0  0  0
  -29.3350  -20.9901   20.3279 C   0  0  0  0  0  0
  -28.6405  -22.3790   20.7800 C   0  0  0  0  0  0
  -29.0315  -19.7083   21.2434 C   0  0  0  0  0  0
  -28.0928  -25.0286   20.6310 C   0  0  0  0  0  0
  -29.0886  -23.8299   20.2243 C   0  0  0  0  0  0
  -28.6003  -16.3729   19.9985 N   0  0  0  0  0  0
  -28.2682  -17.6299   20.1422 N   0  0  0  0  0  0
  -29.2716  -18.2807   20.7815 N   0  0  0  0  0  0
  -31.4734  -12.5627   19.1525 H   0  0  0  0  0  0
  -30.3872  -11.4640   19.9556 H   0  0  0  0  0  0
  -29.7873  -11.7184   17.5155 H   0  0  0  0  0  0
  -29.6151  -13.4453   17.7178 H   0  0  0  0  0  0
  -27.8996  -11.2520   18.9271 H   0  0  0  0  0  0
  -27.3704  -12.4820   17.8090 H   0  0  0  0  0  0
  -27.6095  -14.2007   19.4155 H   0  0  0  0  0  0
  -28.7238  -12.1904   21.4464 H   0  0  0  0  0  0
  -28.4235  -13.8836   21.7643 H   0  0  0  0  0  0
  -25.2761   -9.5674   22.4767 H   0  0  0  0  0  0
  -24.0031   -7.4604   22.7473 H   0  0  0  0  0  0
  -21.0870   -8.8767   19.8947 H   0  0  0  0  0  0
  -22.3722  -10.9679   19.6182 H   0  0  0  0  0  0
  -21.1981   -7.6174   23.9725 H   0  0  0  0  0  0
  -21.1440   -6.0549   25.9081 H   0  0  0  0  0  0
  -22.0629   -2.7629   23.2851 H   0  0  0  0  0  0
  -22.4202  -11.9834   22.4717 H   0  0  0  0  0  0
  -21.1174  -13.1205   22.2716 H   0  0  0  0  0  0
  -24.7015  -15.8665   20.5428 H   0  0  0  0  0  0
  -26.3391  -15.6067   20.1927 H   0  0  0  0  0  0
  -26.7198  -32.5478   23.1121 H   0  0  0  0  0  0
  -25.0254  -33.9767   25.0561 H   0  0  0  0  0  0
  -22.7180  -31.3069   21.4004 H   0  0  0  0  0  0
  -23.3778  -35.9591   23.3300 H   0  0  0  0  0  0
  -24.3581  -36.8904   22.2043 H   0  0  0  0  0  0
  -23.7202  -37.6474   23.6642 H   0  0  0  0  0  0
  -26.0934  -31.5518   20.6044 H   0  0  0  0  0  0
  -26.8490  -30.8452   21.9997 H   0  0  0  0  0  0
  -28.1218  -28.9796   21.1953 H   0  0  0  0  0  0
  -25.9982  -25.9283   18.9978 H   0  0  0  0  0  0
  -23.9760  -27.3033   19.0202 H   0  0  0  0  0  0
  -23.7768  -30.5963   19.4105 H   0  0  0  0  0  0
  -22.7617  -29.2579   19.8479 H   0  0  0  0  0  0
  -25.1299  -36.1978   25.0827 H   0  0  0  0  0  0
  -21.0000  -28.3262   24.1379 H   0  0  0  0  0  0
  -20.5698  -26.2308   23.3616 H   0  0  0  0  0  0
  -21.6665  -26.7442   22.1204 H   0  0  0  0  0  0
  -19.6944  -25.6269   21.1253 H   0  0  0  0  0  0
  -19.6681  -27.3161   20.6730 H   0  0  0  0  0  0
  -17.4223  -26.6676   21.3994 H   0  0  0  0  0  0
  -18.0325  -26.0013   22.8978 H   0  0  0  0  0  0
  -19.7947  -30.7259   24.2254 H   0  0  0  0  0  0
  -17.5018  -31.6242   24.5162 H   0  0  0  0  0  0
  -15.5357  -30.2953   23.7634 H   0  0  0  0  0  0
  -15.8691  -28.0761   22.7100 H   0  0  0  0  0  0
  -24.5946  -30.7031   25.7780 H   0  0  0  0  0  0
  -24.8916  -32.2855   26.4876 H   0  0  0  0  0  0
  -25.8093  -30.8892   27.0225 H   0  0  0  0  0  0
  -26.2906  -29.6778   24.1174 H   0  0  0  0  0  0
  -27.4105  -29.7259   25.4603 H   0  0  0  0  0  0
  -27.8762  -30.4344   23.9309 H   0  0  0  0  0  0
  -27.2693  -33.3614   26.2086 H   0  0  0  0  0  0
  -28.3899  -32.6861   25.0349 H   0  0  0  0  0  0
  -28.0717  -31.8423   26.5442 H   0  0  0  0  0  0
  -28.2615  -38.0109   24.7548 H   0  0  0  0  0  0
  -28.1086  -36.2645   24.6282 H   0  0  0  0  0  0
  -27.2303  -37.1440   25.8872 H   0  0  0  0  0  0
  -20.9395  -29.8823   21.6920 H   0  0  0  0  0  0
  -26.0196  -38.2886   24.1411 H   0  0  0  0  0  0
  -31.2049  -17.5978   21.5523 H   0  0  0  0  0  0
  -29.7923  -22.9873   18.3268 H   0  0  0  0  0  0
  -29.5503  -24.7281   18.2889 H   0  0  0  0  0  0
  -28.1614  -23.6523   18.2571 H   0  0  0  0  0  0
  -31.2340  -23.4210   20.4591 H   0  0  0  0  0  0
  -30.4797  -24.1287   21.8847 H   0  0  0  0  0  0
  -30.8276  -25.1350   20.4939 H   0  0  0  0  0  0
  -30.4178  -21.1155   20.2740 H   0  0  0  0  0  0
  -29.0226  -20.7692   19.3067 H   0  0  0  0  0  0
  -28.6950  -22.4260   21.8690 H   0  0  0  0  0  0
  -27.5737  -22.2701   20.5759 H   0  0  0  0  0  0
  -27.9711  -19.7623   21.4930 H   0  0  0  0  0  0
  -29.5391  -19.8311   22.2004 H   0  0  0  0  0  0
  -28.0440  -25.0679   21.7203 H   0  0  0  0  0  0
  -27.0980  -24.6981   20.3375 H   0  0  0  0  0  0
  1 25  1  0  0  0
  1 30  2  0  0  0
  1 72  1  0  0  0
  2  3  1  0  0  0
  2 25  1  0  0  0
  2 83  1  0  0  0
  2 84  1  0  0  0
  3  4  1  0  0  0
  3 85  1  0  0  0
  3 86  1  0  0  0
  4  5  1  0  0  0
  4 87  1  0  0  0
  4 88  1  0  0  0
  5  6  1  0  0  0
  5 26  1  0  0  0
  5 89  1  0  0  0
  6 25  1  0  0  0
  6 90  1  0  0  0
  6 91  1  0  0  0
  7  8  2  0  0  0
  7 26  1  0  0  0
  7 29  1  0  0  0
  8  9  1  0  0  0
  8 22  1  0  0  0
  9 10  1  0  0  0
  9 27  2  0  0  0
 10 11  2  0  0  0
 10 15  1  0  0  0
 11 12  1  0  0  0
 11 92  1  0  0  0
 12 13  2  0  0  0
 12 93  1  0  0  0
 13 14  1  0  0  0
 13 31  1  0  0  0
 14 15  2  0  0  0
 14 94  1  0  0  0
 15 95  1  0  0  0
 16 17  2  0  0  0
 16 21  1  0  0  0
 16 31  1  0  0  0
 17 18  1  0  0  0
 17 96  1  0  0  0
 18 19  2  0  0  0
 18 97  1  0  0  0
 19 20  1  0  0  0
 19 24  1  0  0  0
 20 21  2  0  0  0
 20 98  1  0  0  0
 21 23  1  0  0  0
 22 28  1  0  0  0
 22 32  2  0  0  0
 26 27  1  0  0  0
 28 99  1  0  0  0
 28100  1  0  0  0
 29101  1  0  0  0
 29102  1  0  0  0
 33 34  1  0  0  0
 33 66  1  0  0  0
 33 70  2  0  0  0
 34 36  1  0  0  0
 34 59  1  0  0  0
 34103  1  0  0  0
 35 44  2  0  0  0
 35 45  1  0  0  0
 35 68  1  0  0  0
 36 56  1  0  0  0
 36104  1  0  0  0
 37 39  1  0  0  0
 37 47  1  0  0  0
 37 66  1  0  0  0
 37105  1  0  0  0
 38 43  2  0  0  0
 38 46  1  0  0  0
 38 47  1  0  0  0
 39 64  1  0  0  0
 39 67  2  0  0  0
 40 52  1  0  0  0
 40 53  2  0  0  0
 40 58  1  0  0  0
 41106  1  0  0  0
 41107  1  0  0  0
 41108  1  0  0  0
 41 48  1  0  0  0
 42 43  1  0  0  0
 42 66  1  0  0  0
 42109  1  0  0  0
 42110  1  0  0  0
 43 44  1  0  0  0
 44111  1  0  0  0
 45 46  2  0  0  0
 45112  1  0  0  0
 46113  1  0  0  0
 47114  1  0  0  0
 47115  1  0  0  0
 48 56  1  0  0  0
 48 65  1  0  0  0
 48116  1  0  0  0
 49 50  1  0  0  0
 49 53  1  0  0  0
 49 64  1  0  0  0
 49117  1  0  0  0
 50 51  1  0  0  0
 50118  1  0  0  0
 50119  1  0  0  0
 51 52  1  0  0  0
 51120  1  0  0  0
 51121  1  0  0  0
 52122  1  0  0  0
 52123  1  0  0  0
 53 54  1  0  0  0
 54 55  2  0  0  0
 54124  1  0  0  0
 55 57  1  0  0  0
 55125  1  0  0  0
 56 69  2  0  0  0
 57 58  2  0  0  0
 57126  1  0  0  0
 58127  1  0  0  0
 59 60  1  0  0  0
 59 61  1  0  0  0
 59 62  1  0  0  0
 60128  1  0  0  0
 60129  1  0  0  0
 60130  1  0  0  0
 61131  1  0  0  0
 61132  1  0  0  0
 61133  1  0  0  0
 62134  1  0  0  0
 62135  1  0  0  0
 62136  1  0  0  0
 63 65  1  0  0  0
 63137  1  0  0  0
 63138  1  0  0  0
 63139  1  0  0  0
 64140  1  0  0  0
 65141  1  0  0  0
 68 78  1  0  0  0
 71 72  2  0  0  0
 71 82  1  0  0  0
 71142  1  0  0  0
 72 80  1  0  0  0
 73143  1  0  0  0
 73144  1  0  0  0
 73145  1  0  0  0
 73 79  1  0  0  0
 74 79  1  0  0  0
 74146  1  0  0  0
 74147  1  0  0  0
 74148  1  0  0  0
 75 76  1  0  0  0
 75 77  1  0  0  0
 75149  1  0  0  0
 75150  1  0  0  0
 76 79  1  0  0  0
 76151  1  0  0  0
 76152  1  0  0  0
 77 82  1  0  0  0
 77153  1  0  0  0
 77154  1  0  0  0
 78 79  1  0  0  0
 78155  1  0  0  0
 78156  1  0  0  0
 80 81  2  0  0  0
 81 82  1  0  0  0
M  ISO  4   1 100  68 101  72 100  78 101
M  END
> <chiral flag>
0

> <version>
0

> <s_m_source_file>
/data/baiqing/PycharmProjects/Reinvent-master-3.2/result/LINK_invent/BTK/process_docking_weight1_custom_sum_contain_oxygen_bond_distance_aromatic_linkinvent_7_9_3/rearranged_h_0067.sdf

> <i_m_source_file_index>
21

> <r_mmod_Potential_Energy-OPLS-2005>
240.941650390625

> <r_mmod_Stretch_Energy-OPLS-2005>
105.487480163574

> <r_mmod_Bend_Energy-OPLS-2005>
160.225921630859

> <r_mmod_Torsional_Energy-OPLS-2005>
244.649551391602

> <r_mmod_Improper_Torsional_Energy-OPLS-2005>
6.19087028503418

> <r_mmod_Van_der_Waal_Energy-OPLS-2005>
113.624137878418

> <r_mmod_Electrostatic_Energy-OPLS-2005>
-277.668762207031

> <r_mmod_Solvation_Energy-OPLS-2005>
-184.912933349609

> <b_mmod_Minimization_Converged-OPLS-2005>
0

> <r_mmod_RMS_Derivative-OPLS-2005>
3.24275970458984

$$$$
21
                    3D
 Structure written by MMmdl.
201209  0  0  1  0            999 V2000
  -30.7660  -14.4163   20.6954 C   0  0  0  0  0  0
  -30.3995  -12.3159   19.4175 C   0  0  0  0  0  0
  -29.4777  -12.5433   18.2060 C   0  0  0  0  0  0
  -27.9998  -12.3797   18.6117 C   0  0  0  0  0  0
  -27.6603  -13.1897   19.8896 C   0  0  2  0  0  0
  -28.7059  -12.8954   20.9881 C   0  0  0  0  0  0
  -25.2546  -13.8122   20.5695 C   0  0  0  0  0  0
  -24.1804  -13.0423   20.9202 C   0  0  0  0  0  0
  -24.6352  -11.6880   20.8788 C   0  0  0  0  0  0
  -23.9043  -10.4283   21.0432 C   0  0  0  0  0  0
  -24.3608   -9.4198   21.9190 C   0  0  0  0  0  0
  -23.6287   -8.2226   22.0764 C   0  0  0  0  0  0
  -22.4264   -8.0293   21.3580 C   0  0  0  0  0  0
  -21.9905   -9.0256   20.4670 C   0  0  0  0  0  0
  -22.7220  -10.2126   20.3076 C   0  0  0  0  0  0
  -21.6803   -6.0772   22.5291 C   0  0  0  0  0  0
  -21.4005   -6.5680   23.8243 C   0  0  0  0  0  0
  -21.3646   -5.6821   24.9191 C   0  0  0  0  0  0
  -21.6044   -4.3088   24.7231 C   0  0  0  0  0  0
  -21.8799   -3.8202   23.4348 C   0  0  0  0  0  0
  -21.9179   -4.7021   22.3416 C   0  0  0  0  0  0
  -22.7829  -13.5218   21.1859 C   0  0  0  0  0  0
  -22.1663   -4.2227   21.0993 F   0  0  0  0  0  0
  -21.5656   -3.4573   25.7745 F   0  0  0  0  0  0
  -30.0193  -13.2850   20.4704 N   0  0  0  0  0  0
  -26.3015  -12.9276   20.3481 N   0  0  0  0  0  0
  -25.9279  -11.6459   20.5836 N   0  0  0  0  0  0
  -22.0489  -12.8231   22.0413 N   0  0  0  0  0  0
  -25.4224  -15.1826   20.3994 N   0  0  0  0  0  0
  -31.8343  -14.4883   20.0747 O   0  0  0  0  0  0
  -21.6612   -6.8907   21.4249 O   0  0  0  0  0  0
  -22.3486  -14.5491   20.6650 O   0  0  0  0  0  0
  -24.6072  -31.8707   23.2140 C   0  0  0  0  0  0
  -25.8991  -32.4840   23.8420 C   0  0  1  0  0  0
  -27.2640  -27.5041   20.0709 C   0  0  0  0  0  0
  -25.5871  -33.8637   24.2353 N   0  0  0  0  0  0
  -23.3940  -30.4899   21.5525 C   0  0  2  0  0  0
  -24.8440  -28.9521   20.1258 C   0  0  0  0  0  0
  -22.7370  -29.4654   22.5031 C   0  0  0  0  0  0
  -18.0265  -28.1367   22.8498 C   0  0  0  0  0  0
  -24.1482  -36.7329   23.2641 C   0  0  0  0  0  0
  -25.9133  -30.8517   21.3589 C   0  0  0  0  0  0
  -25.9938  -29.4848   20.7202 C   0  0  0  0  0  0
  -27.2005  -28.7621   20.7061 C   0  0  0  0  0  0
  -26.0932  -26.9538   19.5098 C   0  0  0  0  0  0
  -24.8830  -27.6767   19.5294 C   0  0  0  0  0  0
  -23.6017  -29.8119   20.1698 C   0  0  0  0  0  0
  -25.4100  -36.3125   24.0345 C   0  0  1  0  0  0
  -20.5849  -28.3643   23.1346 C   0  0  2  0  0  0
  -20.6756  -26.9382   22.5431 C   0  0  0  0  0  0
  -19.5738  -26.6372   21.5219 C   0  0  0  0  0  0
  -18.1914  -26.7919   22.1620 C   0  0  0  0  0  0
  -19.1514  -28.8819   23.2921 C   0  0  0  0  0  0
  -18.9442  -30.1434   23.8928 C   0  0  0  0  0  0
  -17.6441  -30.6582   24.0567 C   0  0  0  0  0  0
  -25.9020  -34.9489   23.5147 C   0  0  0  0  0  0
  -16.5335  -29.9085   23.6321 C   0  0  0  0  0  0
  -16.7254  -28.6500   23.0347 C   0  0  0  0  0  0
  -26.4456  -31.6608   25.0725 C   0  0  0  0  0  0
  -25.3743  -31.3688   26.1485 C   0  0  0  0  0  0
  -27.0282  -30.3067   24.6049 C   0  0  0  0  0  0
  -27.6047  -32.4317   25.7473 C   0  0  0  0  0  0
  -27.5581  -37.1814   24.8463 C   0  0  0  0  0  0
  -21.4107  -29.3015   22.3757 N   0  0  0  0  0  0
  -26.4293  -37.3802   23.9410 N   0  0  0  0  0  0
  -24.6556  -31.0848   22.1013 N   0  0  0  0  0  0
  -23.4161  -28.8205   23.3062 O   0  0  0  0  0  0
  -28.4593  -26.8420   19.9322 O   0  0  0  0  0  0
  -26.5584  -34.8926   22.4706 O   0  0  0  0  0  0
  -23.5278  -32.1437   23.7565 O   0  0  0  0  0  0
  -31.0881  -19.1895   22.3030 C   0  0  0  0  0  0
  -31.0663  -18.2366   21.3171 C   0  0  0  0  0  0
  -31.5077  -13.8321   23.4094 C   0  0  0  0  0  0
  -31.5256  -16.1890   24.1022 C   0  0  0  0  0  0
  -29.4288  -14.9609   24.1239 C   0  0  0  0  0  0
  -34.9112  -24.8614   20.8356 C   0  0  0  0  0  0
  -34.2117  -26.7667   22.2157 C   0  0  0  0  0  0
  -31.6137  -23.3085   20.4941 C   0  0  0  0  0  0
  -33.2895  -21.9680   21.7048 C   0  0  0  0  0  0
  -33.9110  -24.0099   23.6055 C   0  0  0  0  0  0
  -31.8602  -25.2546   23.3677 C   0  0  0  0  0  0
  -31.4812  -16.7819   21.2962 C   0  0  0  0  0  0
  -31.4935  -26.7528   20.4229 C   0  0  0  0  0  0
  -30.7748  -26.9215   19.0758 C   0  0  0  0  0  0
  -32.8798  -26.1034   20.2469 C   0  0  0  0  0  0
  -31.1248  -22.4997   22.8383 C   0  0  0  0  0  0
  -30.0384  -21.5337   22.3042 C   0  0  0  0  0  0
  -29.4193  -27.6216   19.2041 C   0  0  0  0  0  0
  -30.4445  -15.6162   21.7159 C   0  0  2  0  0  0
  -30.7110  -15.1617   23.2672 C   0  0  0  0  0  0
  -33.6586  -25.5062   21.4819 C   0  0  0  0  0  0
  -32.2383  -23.1038   21.8895 C   0  0  0  0  0  0
  -32.9022  -24.4681   22.5023 C   0  0  0  0  0  0
  -28.9951  -16.2290   21.4904 C   0  0  0  0  0  0
  -30.5443  -18.8228   20.1644 N   0  0  0  0  0  0
  -30.1669  -20.0304   20.4214 N   0  0  0  0  0  0
  -30.4839  -20.2837   21.7108 N   0  0  0  0  0  0
  -27.9890  -15.4306   21.8003 F   0  0  0  0  0  0
  -28.7553  -17.3147   22.2278 F   0  0  0  0  0  0
  -28.8054  -16.5317   20.2052 F   0  0  0  0  0  0
  -31.4419  -12.3764   19.1028 H   0  0  0  0  0  0
  -30.2887  -11.2991   19.7934 H   0  0  0  0  0  0
  -29.7316  -11.8504   17.4035 H   0  0  0  0  0  0
  -29.6376  -13.5472   17.8086 H   0  0  0  0  0  0
  -27.8048  -11.3211   18.7794 H   0  0  0  0  0  0
  -27.3502  -12.6802   17.7911 H   0  0  0  0  0  0
  -27.7246  -14.2413   19.6183 H   0  0  0  0  0  0
  -28.7001  -11.8241   21.1892 H   0  0  0  0  0  0
  -28.4577  -13.3063   21.9528 H   0  0  0  0  0  0
  -25.2752   -9.5691   22.4757 H   0  0  0  0  0  0
  -24.0009   -7.4588   22.7435 H   0  0  0  0  0  0
  -21.0873   -8.8743   19.8944 H   0  0  0  0  0  0
  -22.3679  -10.9665   19.6189 H   0  0  0  0  0  0
  -21.1983   -7.6186   23.9788 H   0  0  0  0  0  0
  -21.1477   -6.0554   25.9108 H   0  0  0  0  0  0
  -22.0575   -2.7668   23.2803 H   0  0  0  0  0  0
  -22.4060  -11.9871   22.4827 H   0  0  0  0  0  0
  -21.1118  -13.1306   22.2575 H   0  0  0  0  0  0
  -24.6634  -15.8406   20.5261 H   0  0  0  0  0  0
  -26.3077  -15.6245   20.1843 H   0  0  0  0  0  0
  -26.7067  -32.5587   23.1200 H   0  0  0  0  0  0
  -25.0027  -33.9811   25.0500 H   0  0  0  0  0  0
  -22.6806  -31.3046   21.4098 H   0  0  0  0  0  0
  -23.3731  -35.9673   23.3312 H   0  0  0  0  0  0
  -24.3580  -36.8926   22.2053 H   0  0  0  0  0  0
  -23.7241  -37.6541   23.6642 H   0  0  0  0  0  0
  -26.0105  -31.6134   20.5833 H   0  0  0  0  0  0
  -26.8062  -30.9170   21.9689 H   0  0  0  0  0  0
  -28.0845  -29.1865   21.1609 H   0  0  0  0  0  0
  -26.1312  -25.9871   19.0268 H   0  0  0  0  0  0
  -23.9972  -27.2563   19.0730 H   0  0  0  0  0  0
  -23.7053  -30.5808   19.4034 H   0  0  0  0  0  0
  -22.7294  -29.2234   19.8803 H   0  0  0  0  0  0
  -25.1268  -36.2007   25.0839 H   0  0  0  0  0  0
  -20.9939  -28.3197   24.1465 H   0  0  0  0  0  0
  -20.5652  -26.2238   23.3603 H   0  0  0  0  0  0
  -21.6626  -26.7428   22.1231 H   0  0  0  0  0  0
  -19.6898  -25.6288   21.1233 H   0  0  0  0  0  0
  -19.6689  -27.3191   20.6756 H   0  0  0  0  0  0
  -17.4187  -26.6680   21.4016 H   0  0  0  0  0  0
  -18.0302  -26.0058   22.9011 H   0  0  0  0  0  0
  -19.7912  -30.7241   24.2310 H   0  0  0  0  0  0
  -17.4997  -31.6263   24.5160 H   0  0  0  0  0  0
  -15.5340  -30.2996   23.7626 H   0  0  0  0  0  0
  -15.8652  -28.0830   22.7042 H   0  0  0  0  0  0
  -24.5908  -30.7045   25.7817 H   0  0  0  0  0  0
  -24.8945  -32.2835   26.4980 H   0  0  0  0  0  0
  -25.8121  -30.8822   27.0211 H   0  0  0  0  0  0
  -26.2805  -29.6826   24.1136 H   0  0  0  0  0  0
  -27.4113  -29.7303   25.4481 H   0  0  0  0  0  0
  -27.8612  -30.4414   23.9143 H   0  0  0  0  0  0
  -27.2680  -33.3594   26.2113 H   0  0  0  0  0  0
  -28.3823  -32.6909   25.0275 H   0  0  0  0  0  0
  -28.0751  -31.8399   26.5336 H   0  0  0  0  0  0
  -28.2608  -38.0104   24.7510 H   0  0  0  0  0  0
  -28.1070  -36.2637   24.6287 H   0  0  0  0  0  0
  -27.2304  -37.1467   25.8869 H   0  0  0  0  0  0
  -20.9254  -29.8735   21.6987 H   0  0  0  0  0  0
  -26.0189  -38.2883   24.1403 H   0  0  0  0  0  0
  -31.4040  -19.1853   23.3367 H   0  0  0  0  0  0
  -31.7548  -13.6169   24.4497 H   0  0  0  0  0  0
  -32.4526  -13.8606   22.8669 H   0  0  0  0  0  0
  -30.9459  -12.9641   23.0576 H   0  0  0  0  0  0
  -31.5954  -15.8987   25.1494 H   0  0  0  0  0  0
  -31.0564  -17.1686   24.1024 H   0  0  0  0  0  0
  -32.5649  -16.2823   23.7912 H   0  0  0  0  0  0
  -29.6780  -14.7457   25.1638 H   0  0  0  0  0  0
  -28.8211  -14.1197   23.8116 H   0  0  0  0  0  0
  -28.7943  -15.8487   24.1589 H   0  0  0  0  0  0
  -35.4444  -25.5761   20.2083 H   0  0  0  0  0  0
  -34.6499  -24.0442   20.1669 H   0  0  0  0  0  0
  -35.6421  -24.5041   21.5581 H   0  0  0  0  0  0
  -34.8373  -27.3656   21.5534 H   0  0  0  0  0  0
  -34.8400  -26.5402   23.0723 H   0  0  0  0  0  0
  -33.4263  -27.4467   22.5410 H   0  0  0  0  0  0
  -31.1143  -22.4222   20.1195 H   0  0  0  0  0  0
  -32.3818  -23.4787   19.7480 H   0  0  0  0  0  0
  -30.8683  -24.0983   20.4712 H   0  0  0  0  0  0
  -32.9053  -21.1567   21.0890 H   0  0  0  0  0  0
  -33.5861  -21.5145   22.6515 H   0  0  0  0  0  0
  -34.2018  -22.2899   21.2170 H   0  0  0  0  0  0
  -34.2662  -24.8285   24.2281 H   0  0  0  0  0  0
  -34.7936  -23.5069   23.2200 H   0  0  0  0  0  0
  -33.4481  -23.3024   24.2945 H   0  0  0  0  0  0
  -32.1998  -26.2234   23.7203 H   0  0  0  0  0  0
  -31.6255  -24.7289   24.2956 H   0  0  0  0  0  0
  -30.9034  -25.4063   22.8804 H   0  0  0  0  0  0
  -32.4548  -16.6410   21.7515 H   0  0  0  0  0  0
  -31.7350  -16.6998   20.2413 H   0  0  0  0  0  0
  -30.8372  -26.1497   21.0276 H   0  0  0  0  0  0
  -31.5927  -27.7116   20.9306 H   0  0  0  0  0  0
  -30.6377  -25.9532   18.5936 H   0  0  0  0  0  0
  -31.4057  -27.5090   18.4081 H   0  0  0  0  0  0
  -33.5025  -26.8851   19.8075 H   0  0  0  0  0  0
  -32.8410  -25.4031   19.4196 H   0  0  0  0  0  0
  -31.5913  -22.0523   23.7158 H   0  0  0  0  0  0
  -30.4842  -23.2817   23.2266 H   0  0  0  0  0  0
  -29.4076  -22.0614   21.5862 H   0  0  0  0  0  0
  -29.3697  -21.2716   23.1244 H   0  0  0  0  0  0
  -29.0270  -27.8146   18.2026 H   0  0  0  0  0  0
  -29.5918  -28.5969   19.6593 H   0  0  0  0  0  0
  1 25  1  0  0  0
  1 30  2  0  0  0
  1 89  1  0  0  0
  2  3  1  0  0  0
  2 25  1  0  0  0
  2101  1  0  0  0
  2102  1  0  0  0
  3  4  1  0  0  0
  3103  1  0  0  0
  3104  1  0  0  0
  4  5  1  0  0  0
  4105  1  0  0  0
  4106  1  0  0  0
  5  6  1  0  0  0
  5 26  1  0  0  0
  5107  1  0  0  0
  6 25  1  0  0  0
  6108  1  0  0  0
  6109  1  0  0  0
  7  8  2  0  0  0
  7 26  1  0  0  0
  7 29  1  0  0  0
  8  9  1  0  0  0
  8 22  1  0  0  0
  9 10  1  0  0  0
  9 27  2  0  0  0
 10 11  2  0  0  0
 10 15  1  0  0  0
 11 12  1  0  0  0
 11110  1  0  0  0
 12 13  2  0  0  0
 12111  1  0  0  0
 13 14  1  0  0  0
 13 31  1  0  0  0
 14 15  2  0  0  0
 14112  1  0  0  0
 15113  1  0  0  0
 16 17  2  0  0  0
 16 21  1  0  0  0
 16 31  1  0  0  0
 17 18  1  0  0  0
 17114  1  0  0  0
 18 19  2  0  0  0
 18115  1  0  0  0
 19 20  1  0  0  0
 19 24  1  0  0  0
 20 21  2  0  0  0
 20116  1  0  0  0
 21 23  1  0  0  0
 22 28  1  0  0  0
 22 32  2  0  0  0
 26 27  1  0  0  0
 28117  1  0  0  0
 28118  1  0  0  0
 29119  1  0  0  0
 29120  1  0  0  0
 33 34  1  0  0  0
 33 66  1  0  0  0
 33 70  2  0  0  0
 34 36  1  0  0  0
 34 59  1  0  0  0
 34121  1  0  0  0
 35 44  2  0  0  0
 35 45  1  0  0  0
 35 68  1  0  0  0
 36 56  1  0  0  0
 36122  1  0  0  0
 37 39  1  0  0  0
 37 47  1  0  0  0
 37 66  1  0  0  0
 37123  1  0  0  0
 38 43  2  0  0  0
 38 46  1  0  0  0
 38 47  1  0  0  0
 39 64  1  0  0  0
 39 67  2  0  0  0
 40 52  1  0  0  0
 40 53  2  0  0  0
 40 58  1  0  0  0
 41124  1  0  0  0
 41125  1  0  0  0
 41126  1  0  0  0
 41 48  1  0  0  0
 42 43  1  0  0  0
 42 66  1  0  0  0
 42127  1  0  0  0
 42128  1  0  0  0
 43 44  1  0  0  0
 44129  1  0  0  0
 45 46  2  0  0  0
 45130  1  0  0  0
 46131  1  0  0  0
 47132  1  0  0  0
 47133  1  0  0  0
 48 56  1  0  0  0
 48 65  1  0  0  0
 48134  1  0  0  0
 49 50  1  0  0  0
 49 53  1  0  0  0
 49 64  1  0  0  0
 49135  1  0  0  0
 50 51  1  0  0  0
 50136  1  0  0  0
 50137  1  0  0  0
 51 52  1  0  0  0
 51138  1  0  0  0
 51139  1  0  0  0
 52140  1  0  0  0
 52141  1  0  0  0
 53 54  1  0  0  0
 54 55  2  0  0  0
 54142  1  0  0  0
 55 57  1  0  0  0
 55143  1  0  0  0
 56 69  2  0  0  0
 57 58  2  0  0  0
 57144  1  0  0  0
 58145  1  0  0  0
 59 60  1  0  0  0
 59 61  1  0  0  0
 59 62  1  0  0  0
 60146  1  0  0  0
 60147  1  0  0  0
 60148  1  0  0  0
 61149  1  0  0  0
 61150  1  0  0  0
 61151  1  0  0  0
 62152  1  0  0  0
 62153  1  0  0  0
 62154  1  0  0  0
 63 65  1  0  0  0
 63155  1  0  0  0
 63156  1  0  0  0
 63157  1  0  0  0
 64158  1  0  0  0
 65159  1  0  0  0
 68 88  1  0  0  0
 71 72  2  0  0  0
 71 97  1  0  0  0
 71160  1  0  0  0
 72 82  1  0  0  0
 72 95  1  0  0  0
 73161  1  0  0  0
 73162  1  0  0  0
 73163  1  0  0  0
 73 90  1  0  0  0
 74 90  1  0  0  0
 74164  1  0  0  0
 74165  1  0  0  0
 74166  1  0  0  0
 75 90  1  0  0  0
 75167  1  0  0  0
 75168  1  0  0  0
 75169  1  0  0  0
 76170  1  0  0  0
 76171  1  0  0  0
 76172  1  0  0  0
 76 91  1  0  0  0
 77 91  1  0  0  0
 77173  1  0  0  0
 77174  1  0  0  0
 77175  1  0  0  0
 78176  1  0  0  0
 78177  1  0  0  0
 78178  1  0  0  0
 78 92  1  0  0  0
 79 92  1  0  0  0
 79179  1  0  0  0
 79180  1  0  0  0
 79181  1  0  0  0
 80182  1  0  0  0
 80183  1  0  0  0
 80184  1  0  0  0
 80 93  1  0  0  0
 81 93  1  0  0  0
 81185  1  0  0  0
 81186  1  0  0  0
 81187  1  0  0  0
 82188  1  0  0  0
 82189  1  0  0  0
 82 89  1  0  0  0
 83 84  1  0  0  0
 83 85  1  0  0  0
 83190  1  0  0  0
 83191  1  0  0  0
 84 88  1  0  0  0
 84192  1  0  0  0
 84193  1  0  0  0
 85 91  1  0  0  0
 85194  1  0  0  0
 85195  1  0  0  0
 86 87  1  0  0  0
 86 92  1  0  0  0
 86196  1  0  0  0
 86197  1  0  0  0
 87 97  1  0  0  0
 87198  1  0  0  0
 87199  1  0  0  0
 88200  1  0  0  0
 88201  1  0  0  0
 89 90  1  0  0  0
 89 94  1  0  0  0
 91 93  1  0  0  0
 92 93  1  0  0  0
 94 98  1  0  0  0
 94 99  1  0  0  0
 94100  1  0  0  0
 95 96  2  0  0  0
 96 97  1  0  0  0
M  ISO  4   1 100  68 101  88 101  89 100
M  END
> <chiral flag>
0

> <version>
0

> <s_m_source_file>
/data/baiqing/PycharmProjects/Reinvent-master-3.2/result/LINK_invent/BTK/process_docking_weight1_custom_sum_contain_oxygen_bond_distance_aromatic_linkinvent_7_9_3/rearranged_h_0067.sdf

> <i_m_source_file_index>
22

> <r_mmod_Potential_Energy-OPLS-2005>
400.082000732422

> <r_mmod_Stretch_Energy-OPLS-2005>
109.696311950684

> <r_mmod_Bend_Energy-OPLS-2005>
254.430084228516

> <r_mmod_Torsional_Energy-OPLS-2005>
275.710174560547

> <r_mmod_Improper_Torsional_Energy-OPLS-2005>
2.22598814964294

> <r_mmod_Van_der_Waal_Energy-OPLS-2005>
250.117599487305

> <r_mmod_Electrostatic_Energy-OPLS-2005>
-348.602203369141

> <r_mmod_Solvation_Energy-OPLS-2005>
-156.966995239258

> <b_mmod_Minimization_Converged-OPLS-2005>
0

> <r_mmod_RMS_Derivative-OPLS-2005>
3.83339071273804

$$$$
22
                    3D
 Structure written by MMmdl.
162170  0  0  1  0            999 V2000
  -30.4669  -14.9774   20.4606 C   0  0  0  0  0  0
  -30.4693  -12.5962   19.5353 C   0  0  0  0  0  0
  -29.5561  -12.5259   18.2877 C   0  0  0  0  0  0
  -28.0882  -12.2773   18.6876 C   0  0  0  0  0  0
  -27.6386  -13.2116   19.8399 C   0  0  2  0  0  0
  -28.6586  -13.2565   20.9975 C   0  0  0  0  0  0
  -25.2644  -13.8166   20.5660 C   0  0  0  0  0  0
  -24.1837  -13.0405   20.9207 C   0  0  0  0  0  0
  -24.6405  -11.6926   20.8727 C   0  0  0  0  0  0
  -23.9055  -10.4277   21.0398 C   0  0  0  0  0  0
  -24.3631   -9.4232   21.9176 C   0  0  0  0  0  0
  -23.6300   -8.2260   22.0747 C   0  0  0  0  0  0
  -22.4288   -8.0316   21.3534 C   0  0  0  0  0  0
  -21.9913   -9.0289   20.4636 C   0  0  0  0  0  0
  -22.7244  -10.2172   20.3040 C   0  0  0  0  0  0
  -21.6862   -6.0756   22.5268 C   0  0  0  0  0  0
  -21.4011   -6.5637   23.8219 C   0  0  0  0  0  0
  -21.3673   -5.6784   24.9157 C   0  0  0  0  0  0
  -21.6033   -4.3035   24.7191 C   0  0  0  0  0  0
  -21.8835   -3.8163   23.4307 C   0  0  0  0  0  0
  -21.9204   -4.6988   22.3385 C   0  0  0  0  0  0
  -22.7874  -13.5252   21.1801 C   0  0  0  0  0  0
  -22.1680   -4.2190   21.0953 F   0  0  0  0  0  0
  -21.5625   -3.4519   25.7695 F   0  0  0  0  0  0
  -29.9392  -13.6816   20.4256 N   0  0  0  0  0  0
  -26.2926  -12.9252   20.3131 N   0  0  0  0  0  0
  -25.9327  -11.6454   20.5677 N   0  0  0  0  0  0
  -22.0485  -12.8258   22.0411 N   0  0  0  0  0  0
  -25.4500  -15.1812   20.4162 N   0  0  0  0  0  0
  -31.6821  -15.0593   20.2163 O   0  0  0  0  0  0
  -21.6647   -6.8925   21.4246 O   0  0  0  0  0  0
  -22.3604  -14.5571   20.6733 O   0  0  0  0  0  0
  -24.6593  -31.8289   23.1763 C   0  0  0  0  0  0
  -25.9347  -32.4576   23.8187 C   0  0  1  0  0  0
  -27.1920  -27.0371   20.2578 C   0  0  0  0  0  0
  -25.6008  -33.8402   24.1985 N   0  0  0  0  0  0
  -23.4524  -30.4434   21.5298 C   0  0  2  0  0  0
  -24.8997  -28.8537   20.1085 C   0  0  0  0  0  0
  -22.7515  -29.4468   22.4897 C   0  0  0  0  0  0
  -18.0244  -28.1565   22.8528 C   0  0  0  0  0  0
  -24.1498  -36.7272   23.2620 C   0  0  0  0  0  0
  -26.0118  -30.6724   21.3809 C   0  0  0  0  0  0
  -26.0746  -29.2767   20.7406 C   0  0  0  0  0  0
  -27.2277  -28.3994   20.7722 C   0  0  0  0  0  0
  -25.9964  -26.7222   19.5654 C   0  0  0  0  0  0
  -24.8902  -27.6018   19.4727 C   0  0  0  0  0  0
  -23.6746  -29.7652   20.1496 C   0  0  0  0  0  0
  -25.4145  -36.2949   24.0229 C   0  0  1  0  0  0
  -20.5841  -28.3659   23.1069 C   0  0  2  0  0  0
  -20.6564  -26.9268   22.5471 C   0  0  0  0  0  0
  -19.5432  -26.6285   21.5400 C   0  0  0  0  0  0
  -18.1679  -26.7932   22.1925 C   0  0  0  0  0  0
  -19.1602  -28.9050   23.2623 C   0  0  0  0  0  0
  -18.9718  -30.1769   23.8523 C   0  0  0  0  0  0
  -17.6766  -30.6790   24.0578 C   0  0  0  0  0  0
  -25.9141  -34.9340   23.4943 C   0  0  0  0  0  0
  -16.5503  -29.9273   23.6653 C   0  0  0  0  0  0
  -16.7276  -28.6716   23.0590 C   0  0  0  0  0  0
  -26.4575  -31.6589   25.0751 C   0  0  0  0  0  0
  -25.3741  -31.3844   26.1420 C   0  0  0  0  0  0
  -27.0311  -30.2907   24.6466 C   0  0  0  0  0  0
  -27.5995  -32.4462   25.7637 C   0  0  0  0  0  0
  -27.5557  -37.1778   24.8440 C   0  0  0  0  0  0
  -21.4318  -29.2623   22.3231 N   0  0  0  0  0  0
  -26.4264  -37.3712   23.9379 N   0  0  0  0  0  0
  -24.7299  -31.0075   22.0819 N   0  0  0  0  0  0
  -23.3991  -28.8320   23.3456 O   0  0  0  0  0  0
  -28.2210  -26.0258   20.4365 O   0  0  0  0  0  0
  -26.5776  -34.8902   22.4561 O   0  0  0  0  0  0
  -23.5726  -32.1204   23.6898 O   0  0  0  0  0  0
  -28.1057  -17.8170   20.0080 C   0  0  0  0  0  0
  -29.5800  -16.3542   20.5685 C   0  0  0  0  0  0
  -27.9787  -20.1322   24.1680 C   0  0  0  0  0  0
  -27.7553  -21.1472   19.2810 C   0  0  0  0  0  0
  -26.5747  -21.7430   21.3688 C   0  0  0  0  0  0
  -30.0143  -20.4130   22.0864 C   0  0  0  0  0  0
  -27.7641  -19.5036   22.7807 C   0  0  0  0  0  0
  -28.0193  -24.4734   20.1952 C   0  0  0  0  0  0
  -27.9990  -21.4475   20.7918 C   0  0  0  0  0  0
  -28.6445  -19.9797   21.5427 C   0  0  1  0  0  0
  -28.6371  -23.0514   20.9605 C   0  0  0  0  0  0
  -28.4570  -16.5246   19.7870 N   0  0  0  0  0  0
  -29.8807  -17.5556   21.1990 N   0  0  0  0  0  0
  -28.8960  -18.5538   20.8161 N   0  0  0  0  0  0
  -28.5467  -23.3316   22.2631 F   0  0  0  0  0  0
  -29.9415  -22.9770   20.6763 F   0  0  0  0  0  0
  -31.4992  -12.7772   19.2206 H   0  0  0  0  0  0
  -30.4998  -11.6295   20.0485 H   0  0  0  0  0  0
  -29.9028  -11.7526   17.5991 H   0  0  0  0  0  0
  -29.6355  -13.4681   17.7427 H   0  0  0  0  0  0
  -28.0047  -11.2329   19.0084 H   0  0  0  0  0  0
  -27.4385  -12.3925   17.8200 H   0  0  0  0  0  0
  -27.5969  -14.1957   19.3893 H   0  0  0  0  0  0
  -28.7457  -12.2945   21.5064 H   0  0  0  0  0  0
  -28.3413  -13.9810   21.7511 H   0  0  0  0  0  0
  -25.2805   -9.5704   22.4719 H   0  0  0  0  0  0
  -24.0041   -7.4643   22.7451 H   0  0  0  0  0  0
  -21.0859   -8.8837   19.8910 H   0  0  0  0  0  0
  -22.3762  -10.9723   19.6129 H   0  0  0  0  0  0
  -21.2034   -7.6148   23.9738 H   0  0  0  0  0  0
  -21.1443   -6.0478   25.9057 H   0  0  0  0  0  0
  -22.0615   -2.7627   23.2773 H   0  0  0  0  0  0
  -22.4090  -11.9949   22.4816 H   0  0  0  0  0  0
  -21.1068  -13.1307   22.2492 H   0  0  0  0  0  0
  -24.7065  -15.8583   20.5291 H   0  0  0  0  0  0
  -26.3328  -15.5986   20.1387 H   0  0  0  0  0  0
  -26.7400  -32.5087   23.0905 H   0  0  0  0  0  0
  -24.9875  -33.9476   24.9905 H   0  0  0  0  0  0
  -22.7549  -31.2745   21.3789 H   0  0  0  0  0  0
  -23.3701  -35.9684   23.3307 H   0  0  0  0  0  0
  -24.3487  -36.8945   22.2025 H   0  0  0  0  0  0
  -23.7369  -37.6498   23.6735 H   0  0  0  0  0  0
  -26.1851  -31.4043   20.5928 H   0  0  0  0  0  0
  -26.8789  -30.7166   22.0257 H   0  0  0  0  0  0
  -28.1291  -28.7262   21.2725 H   0  0  0  0  0  0
  -25.8691  -25.7587   19.0977 H   0  0  0  0  0  0
  -24.0146  -27.2729   18.9230 H   0  0  0  0  0  0
  -23.7931  -30.5375   19.3944 H   0  0  0  0  0  0
  -22.7971  -29.2049   19.8301 H   0  0  0  0  0  0
  -25.1360  -36.1669   25.0712 H   0  0  0  0  0  0
  -20.9808  -28.3535   24.1204 H   0  0  0  0  0  0
  -20.5356  -26.2246   23.3738 H   0  0  0  0  0  0
  -21.6270  -26.7092   22.1084 H   0  0  0  0  0  0
  -19.6524  -25.6186   21.1427 H   0  0  0  0  0  0
  -19.6373  -27.3133   20.6989 H   0  0  0  0  0  0
  -17.3802  -26.6474   21.4477 H   0  0  0  0  0  0
  -18.0086  -26.0418   22.9582 H   0  0  0  0  0  0
  -19.8347  -30.7725   24.1192 H   0  0  0  0  0  0
  -17.5569  -31.6503   24.5090 H   0  0  0  0  0  0
  -15.5564  -30.3223   23.8418 H   0  0  0  0  0  0
  -15.8532  -28.1096   22.7539 H   0  0  0  0  0  0
  -24.5904  -30.7186   25.7753 H   0  0  0  0  0  0
  -24.8949  -32.3046   26.4825 H   0  0  0  0  0  0
  -25.8041  -30.9036   27.0215 H   0  0  0  0  0  0
  -26.2801  -29.6779   24.1424 H   0  0  0  0  0  0
  -27.3639  -29.7154   25.5113 H   0  0  0  0  0  0
  -27.8952  -30.3939   23.9881 H   0  0  0  0  0  0
  -27.2392  -33.3731   26.2176 H   0  0  0  0  0  0
  -28.3938  -32.7141   25.0639 H   0  0  0  0  0  0
  -28.0586  -31.8664   26.5678 H   0  0  0  0  0  0
  -28.2562  -38.0068   24.7457 H   0  0  0  0  0  0
  -28.1059  -36.2607   24.6306 H   0  0  0  0  0  0
  -27.2287  -37.1481   25.8837 H   0  0  0  0  0  0
  -20.9830  -29.7334   21.5498 H   0  0  0  0  0  0
  -26.0093  -38.2768   24.1387 H   0  0  0  0  0  0
  -27.1900  -18.2085   19.5878 H   0  0  0  0  0  0
  -28.9187  -19.7702   24.5920 H   0  0  0  0  0  0
  -27.2064  -19.8133   24.8800 H   0  0  0  0  0  0
  -28.0219  -21.2247   24.0985 H   0  0  0  0  0  0
  -26.9097  -20.4690   19.1293 H   0  0  0  0  0  0
  -28.5995  -20.6643   18.7927 H   0  0  0  0  0  0
  -27.4966  -22.0372   18.6966 H   0  0  0  0  0  0
  -25.7881  -21.1113   20.9827 H   0  0  0  0  0  0
  -26.2321  -22.7303   21.1070 H   0  0  0  0  0  0
  -26.5027  -21.7245   22.4552 H   0  0  0  0  0  0
  -29.9659  -21.3817   22.5876 H   0  0  0  0  0  0
  -30.7315  -20.4744   21.2659 H   0  0  0  0  0  0
  -30.4047  -19.7213   22.8364 H   0  0  0  0  0  0
  -26.7031  -19.5022   22.5358 H   0  0  0  0  0  0
  -27.9261  -18.4445   22.9708 H   0  0  0  0  0  0
  -26.9479  -24.3361   20.2092 H   0  0  0  0  0  0
  -28.2611  -24.3428   19.1376 H   0  0  0  0  0  0
  1 25  1  0  0  0
  1 30  2  0  0  0
  1 72  1  0  0  0
  2  3  1  0  0  0
  2 25  1  0  0  0
  2 87  1  0  0  0
  2 88  1  0  0  0
  3  4  1  0  0  0
  3 89  1  0  0  0
  3 90  1  0  0  0
  4  5  1  0  0  0
  4 91  1  0  0  0
  4 92  1  0  0  0
  5  6  1  0  0  0
  5 26  1  0  0  0
  5 93  1  0  0  0
  6 25  1  0  0  0
  6 94  1  0  0  0
  6 95  1  0  0  0
  7  8  2  0  0  0
  7 26  1  0  0  0
  7 29  1  0  0  0
  8  9  1  0  0  0
  8 22  1  0  0  0
  9 10  1  0  0  0
  9 27  2  0  0  0
 10 11  2  0  0  0
 10 15  1  0  0  0
 11 12  1  0  0  0
 11 96  1  0  0  0
 12 13  2  0  0  0
 12 97  1  0  0  0
 13 14  1  0  0  0
 13 31  1  0  0  0
 14 15  2  0  0  0
 14 98  1  0  0  0
 15 99  1  0  0  0
 16 17  2  0  0  0
 16 21  1  0  0  0
 16 31  1  0  0  0
 17 18  1  0  0  0
 17100  1  0  0  0
 18 19  2  0  0  0
 18101  1  0  0  0
 19 20  1  0  0  0
 19 24  1  0  0  0
 20 21  2  0  0  0
 20102  1  0  0  0
 21 23  1  0  0  0
 22 28  1  0  0  0
 22 32  2  0  0  0
 26 27  1  0  0  0
 28103  1  0  0  0
 28104  1  0  0  0
 29105  1  0  0  0
 29106  1  0  0  0
 33 34  1  0  0  0
 33 66  1  0  0  0
 33 70  2  0  0  0
 34 36  1  0  0  0
 34 59  1  0  0  0
 34107  1  0  0  0
 35 44  2  0  0  0
 35 45  1  0  0  0
 35 68  1  0  0  0
 36 56  1  0  0  0
 36108  1  0  0  0
 37 39  1  0  0  0
 37 47  1  0  0  0
 37 66  1  0  0  0
 37109  1  0  0  0
 38 43  2  0  0  0
 38 46  1  0  0  0
 38 47  1  0  0  0
 39 64  1  0  0  0
 39 67  2  0  0  0
 40 52  1  0  0  0
 40 53  2  0  0  0
 40 58  1  0  0  0
 41110  1  0  0  0
 41111  1  0  0  0
 41112  1  0  0  0
 41 48  1  0  0  0
 42 43  1  0  0  0
 42 66  1  0  0  0
 42113  1  0  0  0
 42114  1  0  0  0
 43 44  1  0  0  0
 44115  1  0  0  0
 45 46  2  0  0  0
 45116  1  0  0  0
 46117  1  0  0  0
 47118  1  0  0  0
 47119  1  0  0  0
 48 56  1  0  0  0
 48 65  1  0  0  0
 48120  1  0  0  0
 49 50  1  0  0  0
 49 53  1  0  0  0
 49 64  1  0  0  0
 49121  1  0  0  0
 50 51  1  0  0  0
 50122  1  0  0  0
 50123  1  0  0  0
 51 52  1  0  0  0
 51124  1  0  0  0
 51125  1  0  0  0
 52126  1  0  0  0
 52127  1  0  0  0
 53 54  1  0  0  0
 54 55  2  0  0  0
 54128  1  0  0  0
 55 57  1  0  0  0
 55129  1  0  0  0
 56 69  2  0  0  0
 57 58  2  0  0  0
 57130  1  0  0  0
 58131  1  0  0  0
 59 60  1  0  0  0
 59 61  1  0  0  0
 59 62  1  0  0  0
 60132  1  0  0  0
 60133  1  0  0  0
 60134  1  0  0  0
 61135  1  0  0  0
 61136  1  0  0  0
 61137  1  0  0  0
 62138  1  0  0  0
 62139  1  0  0  0
 62140  1  0  0  0
 63 65  1  0  0  0
 63141  1  0  0  0
 63142  1  0  0  0
 63143  1  0  0  0
 64144  1  0  0  0
 65145  1  0  0  0
 68 78  1  0  0  0
 71 82  2  0  0  0
 71 84  1  0  0  0
 71146  1  0  0  0
 72 82  1  0  0  0
 72 83  2  0  0  0
 73 77  1  0  0  0
 73147  1  0  0  0
 73148  1  0  0  0
 73149  1  0  0  0
 74150  1  0  0  0
 74151  1  0  0  0
 74152  1  0  0  0
 74 79  1  0  0  0
 75 79  1  0  0  0
 75153  1  0  0  0
 75154  1  0  0  0
 75155  1  0  0  0
 76156  1  0  0  0
 76157  1  0  0  0
 76158  1  0  0  0
 76 80  1  0  0  0
 77 80  1  0  0  0
 77159  1  0  0  0
 77160  1  0  0  0
 78 81  1  0  0  0
 78161  1  0  0  0
 78162  1  0  0  0
 79 80  1  0  0  0
 79 81  1  0  0  0
 80 84  1  0  0  0
 81 85  1  0  0  0
 81 86  1  0  0  0
 83 84  1  0  0  0
M  ISO  4   1 100  68 101  72 100  78 101
M  END
> <chiral flag>
0

> <version>
0

> <s_m_source_file>
/data/baiqing/PycharmProjects/Reinvent-master-3.2/result/LINK_invent/BTK/process_docking_weight1_custom_sum_contain_oxygen_bond_distance_aromatic_linkinvent_7_9_3/rearranged_h_0067.sdf

> <i_m_source_file_index>
23

> <r_mmod_Potential_Energy-OPLS-2005>
1063.62365722656

> <r_mmod_Stretch_Energy-OPLS-2005>
387.294311523438

> <r_mmod_Bend_Energy-OPLS-2005>
340.767791748047

> <r_mmod_Torsional_Energy-OPLS-2005>
293.138153076172

> <r_mmod_Improper_Torsional_Energy-OPLS-2005>
8.26950740814209

> <r_mmod_Van_der_Waal_Energy-OPLS-2005>
131.796798706055

> <r_mmod_Electrostatic_Energy-OPLS-2005>
-165.91535949707

> <r_mmod_Solvation_Energy-OPLS-2005>
-197.620971679688

> <b_mmod_Minimization_Converged-OPLS-2005>
0

> <r_mmod_RMS_Derivative-OPLS-2005>
16.4436874389648

$$$$
23
                    3D
 Structure written by MMmdl.
174182  0  0  1  0            999 V2000
  -30.7641  -14.5089   20.7503 C   0  0  0  0  0  0
  -30.4445  -12.3937   19.4374 C   0  0  0  0  0  0
  -29.5025  -12.5410   18.2208 C   0  0  0  0  0  0
  -28.0273  -12.3578   18.6251 C   0  0  0  0  0  0
  -27.6681  -13.1945   19.8744 C   0  0  2  0  0  0
  -28.7107  -12.9264   20.9799 C   0  0  0  0  0  0
  -25.2619  -13.8130   20.5705 C   0  0  0  0  0  0
  -24.1846  -13.0405   20.9186 C   0  0  0  0  0  0
  -24.6404  -11.6881   20.8732 C   0  0  0  0  0  0
  -23.9053  -10.4278   21.0396 C   0  0  0  0  0  0
  -24.3596   -9.4202   21.9187 C   0  0  0  0  0  0
  -23.6269   -8.2239   22.0766 C   0  0  0  0  0  0
  -22.4256   -8.0282   21.3556 C   0  0  0  0  0  0
  -21.9890   -9.0257   20.4662 C   0  0  0  0  0  0
  -22.7218  -10.2132   20.3055 C   0  0  0  0  0  0
  -21.6849   -6.0719   22.5283 C   0  0  0  0  0  0
  -21.4009   -6.5627   23.8211 C   0  0  0  0  0  0
  -21.3656   -5.6787   24.9174 C   0  0  0  0  0  0
  -21.6037   -4.3050   24.7223 C   0  0  0  0  0  0
  -21.8815   -3.8133   23.4350 C   0  0  0  0  0  0
  -21.9198   -4.6946   22.3405 C   0  0  0  0  0  0
  -22.7866  -13.5225   21.1818 C   0  0  0  0  0  0
  -22.1652   -4.2127   21.0984 F   0  0  0  0  0  0
  -21.5638   -3.4532   25.7746 F   0  0  0  0  0  0
  -30.0417  -13.3511   20.5054 N   0  0  0  0  0  0
  -26.3054  -12.9272   20.3356 N   0  0  0  0  0  0
  -25.9333  -11.6447   20.5765 N   0  0  0  0  0  0
  -22.0473  -12.8280   22.0405 N   0  0  0  0  0  0
  -25.4342  -15.1850   20.4191 N   0  0  0  0  0  0
  -31.6982  -14.7297   19.9726 O   0  0  0  0  0  0
  -21.6633   -6.8869   21.4248 O   0  0  0  0  0  0
  -22.3548  -14.5496   20.6618 O   0  0  0  0  0  0
  -24.6204  -31.8681   23.2108 C   0  0  0  0  0  0
  -25.9089  -32.4827   23.8396 C   0  0  1  0  0  0
  -27.2229  -27.3915   20.1165 C   0  0  0  0  0  0
  -25.5948  -33.8625   24.2321 N   0  0  0  0  0  0
  -23.4105  -30.4932   21.5512 C   0  0  2  0  0  0
  -24.8564  -28.9536   20.1240 C   0  0  0  0  0  0
  -22.7446  -29.4669   22.4982 C   0  0  0  0  0  0
  -18.0285  -28.1402   22.8503 C   0  0  0  0  0  0
  -24.1489  -36.7289   23.2638 C   0  0  0  0  0  0
  -25.9447  -30.8158   21.3765 C   0  0  0  0  0  0
  -26.0172  -29.4408   20.7402 C   0  0  0  0  0  0
  -27.2038  -28.6603   20.7508 C   0  0  0  0  0  0
  -26.0584  -26.9595   19.4502 C   0  0  0  0  0  0
  -24.8711  -27.7086   19.4792 C   0  0  0  0  0  0
  -23.6240  -29.8278   20.1660 C   0  0  0  0  0  0
  -25.4110  -36.3103   24.0336 C   0  0  1  0  0  0
  -20.5882  -28.3692   23.1300 C   0  0  2  0  0  0
  -20.6781  -26.9426   22.5409 C   0  0  0  0  0  0
  -19.5744  -26.6401   21.5223 C   0  0  0  0  0  0
  -18.1926  -26.7949   22.1632 C   0  0  0  0  0  0
  -19.1539  -28.8861   23.2900 C   0  0  0  0  0  0
  -18.9463  -30.1468   23.8906 C   0  0  0  0  0  0
  -17.6462  -30.6603   24.0581 C   0  0  0  0  0  0
  -25.9042  -34.9480   23.5107 C   0  0  0  0  0  0
  -16.5354  -29.9106   23.6340 C   0  0  0  0  0  0
  -16.7270  -28.6532   23.0343 C   0  0  0  0  0  0
  -26.4493  -31.6612   25.0731 C   0  0  0  0  0  0
  -25.3758  -31.3753   26.1485 C   0  0  0  0  0  0
  -27.0306  -30.3049   24.6117 C   0  0  0  0  0  0
  -27.6079  -32.4321   25.7480 C   0  0  0  0  0  0
  -27.5571  -37.1803   24.8472 C   0  0  0  0  0  0
  -21.4174  -29.3056   22.3705 N   0  0  0  0  0  0
  -26.4284  -37.3800   23.9421 N   0  0  0  0  0  0
  -24.6768  -31.0752   22.1031 N   0  0  0  0  0  0
  -23.4197  -28.8199   23.3038 O   0  0  0  0  0  0
  -28.3560  -26.6069   20.0075 O   0  0  0  0  0  0
  -26.5588  -34.8947   22.4660 O   0  0  0  0  0  0
  -23.5377  -32.1431   23.7464 O   0  0  0  0  0  0
  -29.7391  -20.2164   22.1332 C   0  0  0  0  0  0
  -31.1055  -18.8196   20.2734 C   0  0  0  0  0  0
  -30.1088  -20.8481   20.9163 C   0  0  0  0  0  0
  -30.7879  -18.2072   21.5153 C   0  0  0  0  0  0
  -31.2990  -23.0401   20.6703 C   0  0  0  0  0  0
  -29.3780  -22.5199   19.1643 C   0  0  0  0  0  0
  -26.9727  -24.0083   20.3009 C   0  0  0  0  0  0
  -27.2031  -24.5802   22.6652 C   0  0  0  0  0  0
  -28.9562  -23.1106   21.6595 C   0  0  0  0  0  0
  -28.7588  -25.7637   21.1135 C   0  0  0  0  0  0
  -29.9052  -22.3764   20.6088 C   0  0  0  0  0  0
  -31.5003  -16.8899   22.0040 C   0  0  2  0  0  0
  -30.6587  -15.4778   22.0365 C   0  0  1  0  0  0
  -28.0261  -24.3763   21.3685 C   0  0  0  0  0  0
  -32.1414  -17.1991   23.4171 C   0  0  0  0  0  0
  -29.2108  -15.6866   22.6200 C   0  0  0  0  0  0
  -30.7785  -20.1111   19.9816 N   0  0  0  0  0  0
  -30.0554  -18.9238   22.4127 N   0  0  0  0  0  0
  -32.7493  -16.7658   21.3099 O   0  0  0  0  0  0
  -31.2790  -14.7558   22.9764 F   0  0  0  0  0  0
  -31.2785  -17.1751   24.4311 F   0  0  0  0  0  0
  -33.1101  -16.3215   23.7121 F   0  0  0  0  0  0
  -32.7254  -18.4034   23.4220 F   0  0  0  0  0  0
  -28.8788  -14.6829   23.4322 F   0  0  0  0  0  0
  -28.3081  -15.7806   21.6419 F   0  0  0  0  0  0
  -29.0435  -16.7376   23.4059 F   0  0  0  0  0  0
  -31.4808  -12.5183   19.1169 H   0  0  0  0  0  0
  -30.4127  -11.3723   19.8175 H   0  0  0  0  0  0
  -29.7685  -11.8183   17.4480 H   0  0  0  0  0  0
  -29.6361  -13.5274   17.7770 H   0  0  0  0  0  0
  -27.8630  -11.2983   18.8327 H   0  0  0  0  0  0
  -27.3679  -12.6102   17.7949 H   0  0  0  0  0  0
  -27.7243  -14.2456   19.5908 H   0  0  0  0  0  0
  -28.7410  -11.8567   21.1928 H   0  0  0  0  0  0
  -28.3645  -13.3332   21.9037 H   0  0  0  0  0  0
  -25.2740   -9.5675   22.4768 H   0  0  0  0  0  0
  -23.9983   -7.4619   22.7483 H   0  0  0  0  0  0
  -21.0821   -8.8756   19.8973 H   0  0  0  0  0  0
  -22.3667  -10.9663   19.6163 H   0  0  0  0  0  0
  -21.1985   -7.6133   23.9710 H   0  0  0  0  0  0
  -21.1483   -6.0517   25.9084 H   0  0  0  0  0  0
  -22.0601   -2.7599   23.2859 H   0  0  0  0  0  0
  -22.4053  -11.9983   22.4887 H   0  0  0  0  0  0
  -21.1089  -13.1351   22.2524 H   0  0  0  0  0  0
  -24.6797  -15.8425   20.5826 H   0  0  0  0  0  0
  -26.3014  -15.6399   20.1611 H   0  0  0  0  0  0
  -26.7169  -32.5535   23.1165 H   0  0  0  0  0  0
  -25.0217  -33.9792   25.0546 H   0  0  0  0  0  0
  -22.7045  -31.3124   21.4085 H   0  0  0  0  0  0
  -23.3764  -35.9614   23.3324 H   0  0  0  0  0  0
  -24.3583  -36.8860   22.2046 H   0  0  0  0  0  0
  -23.7222  -37.6495   23.6629 H   0  0  0  0  0  0
  -26.0580  -31.5688   20.5946 H   0  0  0  0  0  0
  -26.8344  -30.8774   21.9905 H   0  0  0  0  0  0
  -28.1011  -29.0318   21.2242 H   0  0  0  0  0  0
  -26.0634  -26.0433   18.8820 H   0  0  0  0  0  0
  -23.9894  -27.3384   18.9741 H   0  0  0  0  0  0
  -23.7453  -30.6012   19.4066 H   0  0  0  0  0  0
  -22.7477  -29.2526   19.8616 H   0  0  0  0  0  0
  -25.1282  -36.1962   25.0826 H   0  0  0  0  0  0
  -20.9971  -28.3265   24.1412 H   0  0  0  0  0  0
  -20.5716  -26.2301   23.3604 H   0  0  0  0  0  0
  -21.6647  -26.7490   22.1167 H   0  0  0  0  0  0
  -19.6911  -25.6314   21.1242 H   0  0  0  0  0  0
  -19.6674  -27.3232   20.6770 H   0  0  0  0  0  0
  -17.4194  -26.6715   21.4035 H   0  0  0  0  0  0
  -18.0313  -26.0085   22.9013 H   0  0  0  0  0  0
  -19.7940  -30.7295   24.2258 H   0  0  0  0  0  0
  -17.5021  -31.6282   24.5188 H   0  0  0  0  0  0
  -15.5355  -30.3012   23.7674 H   0  0  0  0  0  0
  -15.8672  -28.0874   22.7021 H   0  0  0  0  0  0
  -24.5898  -30.7135   25.7826 H   0  0  0  0  0  0
  -24.9011  -32.2935   26.4962 H   0  0  0  0  0  0
  -25.8097  -30.8888   27.0229 H   0  0  0  0  0  0
  -26.2841  -29.6831   24.1162 H   0  0  0  0  0  0
  -27.4059  -29.7265   25.4567 H   0  0  0  0  0  0
  -27.8697  -30.4362   23.9280 H   0  0  0  0  0  0
  -27.2728  -33.3639   26.2058 H   0  0  0  0  0  0
  -28.3899  -32.6841   25.0299 H   0  0  0  0  0  0
  -28.0751  -31.8445   26.5395 H   0  0  0  0  0  0
  -28.2598  -38.0092   24.7518 H   0  0  0  0  0  0
  -28.1039  -36.2619   24.6286 H   0  0  0  0  0  0
  -27.2292  -37.1436   25.8877 H   0  0  0  0  0  0
  -20.9351  -29.8775   21.6919 H   0  0  0  0  0  0
  -26.0160  -38.2870   24.1443 H   0  0  0  0  0  0
  -29.2443  -20.7451   22.9338 H   0  0  0  0  0  0
  -31.7113  -18.3096   19.5385 H   0  0  0  0  0  0
  -31.9963  -22.5642   19.9807 H   0  0  0  0  0  0
  -31.7378  -22.9646   21.6664 H   0  0  0  0  0  0
  -31.2745  -24.0926   20.3986 H   0  0  0  0  0  0
  -30.0498  -22.0704   18.4327 H   0  0  0  0  0  0
  -29.2978  -23.5679   18.8769 H   0  0  0  0  0  0
  -28.4100  -22.0372   19.0359 H   0  0  0  0  0  0
  -26.7401  -22.9442   20.3170 H   0  0  0  0  0  0
  -27.2906  -24.2613   19.2921 H   0  0  0  0  0  0
  -26.0213  -24.5065   20.4789 H   0  0  0  0  0  0
  -26.6118  -23.6979   22.9157 H   0  0  0  0  0  0
  -26.5040  -25.4128   22.5656 H   0  0  0  0  0  0
  -27.8424  -24.7981   23.5219 H   0  0  0  0  0  0
  -29.5404  -23.3084   22.5601 H   0  0  0  0  0  0
  -28.2394  -22.3557   21.9751 H   0  0  0  0  0  0
  -29.8152  -25.5694   20.9534 H   0  0  0  0  0  0
  -28.7526  -26.3831   22.0125 H   0  0  0  0  0  0
  -33.3517  -16.3617   21.9305 H   0  0  0  0  0  0
  1 25  1  0  0  0
  1 30  2  0  0  0
  1 83  1  0  0  0
  2  3  1  0  0  0
  2 25  1  0  0  0
  2 97  1  0  0  0
  2 98  1  0  0  0
  3  4  1  0  0  0
  3 99  1  0  0  0
  3100  1  0  0  0
  4  5  1  0  0  0
  4101  1  0  0  0
  4102  1  0  0  0
  5  6  1  0  0  0
  5 26  1  0  0  0
  5103  1  0  0  0
  6 25  1  0  0  0
  6104  1  0  0  0
  6105  1  0  0  0
  7  8  2  0  0  0
  7 26  1  0  0  0
  7 29  1  0  0  0
  8  9  1  0  0  0
  8 22  1  0  0  0
  9 10  1  0  0  0
  9 27  2  0  0  0
 10 11  2  0  0  0
 10 15  1  0  0  0
 11 12  1  0  0  0
 11106  1  0  0  0
 12 13  2  0  0  0
 12107  1  0  0  0
 13 14  1  0  0  0
 13 31  1  0  0  0
 14 15  2  0  0  0
 14108  1  0  0  0
 15109  1  0  0  0
 16 17  2  0  0  0
 16 21  1  0  0  0
 16 31  1  0  0  0
 17 18  1  0  0  0
 17110  1  0  0  0
 18 19  2  0  0  0
 18111  1  0  0  0
 19 20  1  0  0  0
 19 24  1  0  0  0
 20 21  2  0  0  0
 20112  1  0  0  0
 21 23  1  0  0  0
 22 28  1  0  0  0
 22 32  2  0  0  0
 26 27  1  0  0  0
 28113  1  0  0  0
 28114  1  0  0  0
 29115  1  0  0  0
 29116  1  0  0  0
 33 34  1  0  0  0
 33 66  1  0  0  0
 33 70  2  0  0  0
 34 36  1  0  0  0
 34 59  1  0  0  0
 34117  1  0  0  0
 35 44  2  0  0  0
 35 45  1  0  0  0
 35 68  1  0  0  0
 36 56  1  0  0  0
 36118  1  0  0  0
 37 39  1  0  0  0
 37 47  1  0  0  0
 37 66  1  0  0  0
 37119  1  0  0  0
 38 43  2  0  0  0
 38 46  1  0  0  0
 38 47  1  0  0  0
 39 64  1  0  0  0
 39 67  2  0  0  0
 40 52  1  0  0  0
 40 53  2  0  0  0
 40 58  1  0  0  0
 41120  1  0  0  0
 41121  1  0  0  0
 41122  1  0  0  0
 41 48  1  0  0  0
 42 43  1  0  0  0
 42 66  1  0  0  0
 42123  1  0  0  0
 42124  1  0  0  0
 43 44  1  0  0  0
 44125  1  0  0  0
 45 46  2  0  0  0
 45126  1  0  0  0
 46127  1  0  0  0
 47128  1  0  0  0
 47129  1  0  0  0
 48 56  1  0  0  0
 48 65  1  0  0  0
 48130  1  0  0  0
 49 50  1  0  0  0
 49 53  1  0  0  0
 49 64  1  0  0  0
 49131  1  0  0  0
 50 51  1  0  0  0
 50132  1  0  0  0
 50133  1  0  0  0
 51 52  1  0  0  0
 51134  1  0  0  0
 51135  1  0  0  0
 52136  1  0  0  0
 52137  1  0  0  0
 53 54  1  0  0  0
 54 55  2  0  0  0
 54138  1  0  0  0
 55 57  1  0  0  0
 55139  1  0  0  0
 56 69  2  0  0  0
 57 58  2  0  0  0
 57140  1  0  0  0
 58141  1  0  0  0
 59 60  1  0  0  0
 59 61  1  0  0  0
 59 62  1  0  0  0
 60142  1  0  0  0
 60143  1  0  0  0
 60144  1  0  0  0
 61145  1  0  0  0
 61146  1  0  0  0
 61147  1  0  0  0
 62148  1  0  0  0
 62149  1  0  0  0
 62150  1  0  0  0
 63 65  1  0  0  0
 63151  1  0  0  0
 63152  1  0  0  0
 63153  1  0  0  0
 64154  1  0  0  0
 65155  1  0  0  0
 68 80  1  0  0  0
 71 73  2  0  0  0
 71 88  1  0  0  0
 71156  1  0  0  0
 72 74  1  0  0  0
 72 87  2  0  0  0
 72157  1  0  0  0
 73 81  1  0  0  0
 73 87  1  0  0  0
 74 82  1  0  0  0
 74 88  2  0  0  0
 75158  1  0  0  0
 75159  1  0  0  0
 75160  1  0  0  0
 75 81  1  0  0  0
 76 81  1  0  0  0
 76161  1  0  0  0
 76162  1  0  0  0
 76163  1  0  0  0
 77164  1  0  0  0
 77165  1  0  0  0
 77166  1  0  0  0
 77 84  1  0  0  0
 78 84  1  0  0  0
 78167  1  0  0  0
 78168  1  0  0  0
 78169  1  0  0  0
 79 81  1  0  0  0
 79 84  1  0  0  0
 79170  1  0  0  0
 79171  1  0  0  0
 80 84  1  0  0  0
 80172  1  0  0  0
 80173  1  0  0  0
 82 83  1  0  0  0
 82 85  1  0  0  0
 82 89  1  0  0  0
 83 86  1  0  0  0
 83 90  1  0  0  0
 85 91  1  0  0  0
 85 92  1  0  0  0
 85 93  1  0  0  0
 86 94  1  0  0  0
 86 95  1  0  0  0
 86 96  1  0  0  0
 89174  1  0  0  0
M  ISO  4   1 100  68 101  80 101  83 100
M  END
> <chiral flag>
0

> <version>
0

> <s_m_source_file>
/data/baiqing/PycharmProjects/Reinvent-master-3.2/result/LINK_invent/BTK/process_docking_weight1_custom_sum_contain_oxygen_bond_distance_aromatic_linkinvent_7_9_3/rearranged_h_0067.sdf

> <i_m_source_file_index>
24

> <r_mmod_Potential_Energy-OPLS-2005>
486.039459228516

> <r_mmod_Stretch_Energy-OPLS-2005>
104.233520507812

> <r_mmod_Bend_Energy-OPLS-2005>
228.093124389648

> <r_mmod_Torsional_Energy-OPLS-2005>
243.111038208008

> <r_mmod_Improper_Torsional_Energy-OPLS-2005>
6.22689008712769

> <r_mmod_Van_der_Waal_Energy-OPLS-2005>
218.517166137695

> <r_mmod_Electrostatic_Energy-OPLS-2005>
-166.447006225586

> <r_mmod_Solvation_Energy-OPLS-2005>
-169.831268310547

> <b_mmod_Minimization_Converged-OPLS-2005>
0

> <r_mmod_RMS_Derivative-OPLS-2005>
2.83898949623108

$$$$
24
                    3D
 Structure written by MMmdl.
157165  0  0  1  0            999 V2000
  -30.6572  -14.6514   20.5227 C   0  0  0  0  0  0
  -30.4409  -12.4278   19.4296 C   0  0  0  0  0  0
  -29.4857  -12.5263   18.2123 C   0  0  0  0  0  0
  -28.0142  -12.3542   18.6363 C   0  0  0  0  0  0
  -27.6468  -13.2285   19.8609 C   0  0  2  0  0  0
  -28.7021  -13.1023   20.9865 C   0  0  0  0  0  0
  -25.2496  -13.8196   20.5603 C   0  0  0  0  0  0
  -24.1805  -13.0486   20.9191 C   0  0  0  0  0  0
  -24.6394  -11.6935   20.8799 C   0  0  0  0  0  0
  -23.9078  -10.4331   21.0435 C   0  0  0  0  0  0
  -24.3639   -9.4255   21.9220 C   0  0  0  0  0  0
  -23.6328   -8.2289   22.0764 C   0  0  0  0  0  0
  -22.4337   -8.0306   21.3521 C   0  0  0  0  0  0
  -21.9946   -9.0301   20.4650 C   0  0  0  0  0  0
  -22.7256  -10.2177   20.3076 C   0  0  0  0  0  0
  -21.6869   -6.0764   22.5274 C   0  0  0  0  0  0
  -21.4023   -6.5665   23.8207 C   0  0  0  0  0  0
  -21.3662   -5.6807   24.9163 C   0  0  0  0  0  0
  -21.6033   -4.3080   24.7217 C   0  0  0  0  0  0
  -21.8827   -3.8168   23.4353 C   0  0  0  0  0  0
  -21.9200   -4.6984   22.3392 C   0  0  0  0  0  0
  -22.7821  -13.5254   21.1868 C   0  0  0  0  0  0
  -22.1669   -4.2163   21.0981 F   0  0  0  0  0  0
  -21.5626   -3.4556   25.7741 F   0  0  0  0  0  0
  -30.0156  -13.4426   20.4171 N   0  0  0  0  0  0
  -26.2967  -12.9409   20.3361 N   0  0  0  0  0  0
  -25.9353  -11.6574   20.5893 N   0  0  0  0  0  0
  -22.0478  -12.8206   22.0393 N   0  0  0  0  0  0
  -25.4151  -15.1919   20.3714 N   0  0  0  0  0  0
  -31.8129  -14.8006   20.1204 O   0  0  0  0  0  0
  -21.6664   -6.8930   21.4257 O   0  0  0  0  0  0
  -22.3451  -14.5553   20.6708 O   0  0  0  0  0  0
  -24.6234  -31.8596   23.2040 C   0  0  0  0  0  0
  -25.9100  -32.4779   23.8363 C   0  0  1  0  0  0
  -27.2304  -27.3237   20.1279 C   0  0  0  0  0  0
  -25.5917  -33.8585   24.2296 N   0  0  0  0  0  0
  -23.4190  -30.4833   21.5436 C   0  0  2  0  0  0
  -24.8678  -28.9378   20.1117 C   0  0  0  0  0  0
  -22.7479  -29.4624   22.4921 C   0  0  0  0  0  0
  -18.0294  -28.1358   22.8487 C   0  0  0  0  0  0
  -24.1492  -36.7300   23.2644 C   0  0  0  0  0  0
  -25.9603  -30.7922   21.3747 C   0  0  0  0  0  0
  -26.0353  -29.4218   20.7146 C   0  0  0  0  0  0
  -27.2203  -28.6272   20.7104 C   0  0  0  0  0  0
  -26.0427  -26.8915   19.4954 C   0  0  0  0  0  0
  -24.8729  -27.6777   19.4929 C   0  0  0  0  0  0
  -23.6352  -29.8184   20.1595 C   0  0  0  0  0  0
  -25.4124  -36.3098   24.0335 C   0  0  1  0  0  0
  -20.5899  -28.3705   23.1284 C   0  0  2  0  0  0
  -20.6811  -26.9437   22.5411 C   0  0  0  0  0  0
  -19.5802  -26.6394   21.5206 C   0  0  0  0  0  0
  -18.1973  -26.7911   22.1610 C   0  0  0  0  0  0
  -19.1546  -28.8836   23.2861 C   0  0  0  0  0  0
  -18.9472  -30.1439   23.8882 C   0  0  0  0  0  0
  -17.6470  -30.6559   24.0571 C   0  0  0  0  0  0
  -25.9065  -34.9450   23.5129 C   0  0  0  0  0  0
  -16.5378  -29.9059   23.6327 C   0  0  0  0  0  0
  -16.7290  -28.6496   23.0333 C   0  0  0  0  0  0
  -26.4478  -31.6592   25.0729 C   0  0  0  0  0  0
  -25.3733  -31.3687   26.1464 C   0  0  0  0  0  0
  -27.0327  -30.3031   24.6176 C   0  0  0  0  0  0
  -27.6036  -32.4320   25.7492 C   0  0  0  0  0  0
  -27.5590  -37.1814   24.8465 C   0  0  0  0  0  0
  -21.4188  -29.3053   22.3686 N   0  0  0  0  0  0
  -26.4312  -37.3781   23.9402 N   0  0  0  0  0  0
  -24.6861  -31.0621   22.0982 N   0  0  0  0  0  0
  -23.4191  -28.8197   23.3026 O   0  0  0  0  0  0
  -28.3590  -26.4900   20.1920 O   0  0  0  0  0  0
  -26.5620  -34.8915   22.4688 O   0  0  0  0  0  0
  -23.5398  -32.1400   23.7380 O   0  0  0  0  0  0
  -28.2975  -21.8717   21.4588 C   0  0  0  0  0  0
  -30.3661  -21.7253   20.3646 C   0  0  0  0  0  0
  -29.3187  -22.5733   20.7930 C   0  0  0  0  0  0
  -29.3872  -19.7923   21.2538 C   0  0  0  0  0  0
  -28.0739  -17.7193   22.0084 C   0  0  0  0  0  0
  -29.3967  -24.1475   20.6675 C   0  0  0  0  0  0
  -30.1627  -17.2155   20.7075 C   0  0  0  0  0  0
  -28.1686  -25.0219   20.1670 C   0  0  0  0  0  0
  -29.5025  -18.2612   21.7392 C   0  0  1  0  0  0
  -30.3047  -18.1990   23.0779 C   0  0  0  0  0  0
  -28.3456  -20.5299   21.6835 N   0  0  0  0  0  0
  -30.3971  -20.3777   20.5955 N   0  0  0  0  0  0
  -29.8975  -15.7245   20.8983 N   0  0  0  0  0  0
  -29.6886  -18.8616   24.0566 F   0  0  0  0  0  0
  -31.5277  -18.7134   22.9349 F   0  0  0  0  0  0
  -30.4552  -16.9360   23.4904 F   0  0  0  0  0  0
  -31.4708  -12.5829   19.0921 H   0  0  0  0  0  0
  -30.4118  -11.4317   19.8763 H   0  0  0  0  0  0
  -29.7383  -11.7792   17.4568 H   0  0  0  0  0  0
  -29.5969  -13.5017   17.7327 H   0  0  0  0  0  0
  -27.8531  -11.3006   18.8755 H   0  0  0  0  0  0
  -27.3445  -12.5828   17.8054 H   0  0  0  0  0  0
  -27.6532  -14.2610   19.5101 H   0  0  0  0  0  0
  -28.7253  -12.0850   21.3804 H   0  0  0  0  0  0
  -28.4509  -13.7467   21.8332 H   0  0  0  0  0  0
  -25.2792   -9.5732   22.4780 H   0  0  0  0  0  0
  -24.0038   -7.4661   22.7451 H   0  0  0  0  0  0
  -21.0899   -8.8841   19.8925 H   0  0  0  0  0  0
  -22.3751  -10.9738   19.6176 H   0  0  0  0  0  0
  -21.2014   -7.6167   23.9713 H   0  0  0  0  0  0
  -21.1471   -6.0539   25.9061 H   0  0  0  0  0  0
  -22.0600   -2.7637   23.2835 H   0  0  0  0  0  0
  -22.4096  -11.9862   22.4782 H   0  0  0  0  0  0
  -21.1101  -13.1175   22.2609 H   0  0  0  0  0  0
  -24.6311  -15.8348   20.4100 H   0  0  0  0  0  0
  -26.2226  -15.5965   19.9124 H   0  0  0  0  0  0
  -26.7183  -32.5459   23.1112 H   0  0  0  0  0  0
  -25.0045  -33.9722   25.0437 H   0  0  0  0  0  0
  -22.7140  -31.3051   21.4007 H   0  0  0  0  0  0
  -23.3759  -35.9628   23.3317 H   0  0  0  0  0  0
  -24.3589  -36.8908   22.2056 H   0  0  0  0  0  0
  -23.7233  -37.6503   23.6663 H   0  0  0  0  0  0
  -26.1011  -31.5605   20.6136 H   0  0  0  0  0  0
  -26.8358  -30.8355   22.0097 H   0  0  0  0  0  0
  -28.1159  -28.9948   21.1893 H   0  0  0  0  0  0
  -25.9947  -25.9270   19.0107 H   0  0  0  0  0  0
  -23.9796  -27.3025   19.0101 H   0  0  0  0  0  0
  -23.7595  -30.5961   19.4052 H   0  0  0  0  0  0
  -22.7547  -29.2500   19.8533 H   0  0  0  0  0  0
  -25.1308  -36.1961   25.0829 H   0  0  0  0  0  0
  -20.9972  -28.3253   24.1409 H   0  0  0  0  0  0
  -21.6682  -26.7434   22.1207 H   0  0  0  0  0  0
  -20.5685  -26.2326   23.3608 H   0  0  0  0  0  0
  -19.6978  -25.6298   21.1239 H   0  0  0  0  0  0
  -19.6740  -27.3192   20.6724 H   0  0  0  0  0  0
  -17.4277  -26.6631   21.3982 H   0  0  0  0  0  0
  -18.0322  -26.0055   22.9008 H   0  0  0  0  0  0
  -19.7931  -30.7263   24.2254 H   0  0  0  0  0  0
  -17.4996  -31.6231   24.5165 H   0  0  0  0  0  0
  -15.5366  -30.2927   23.7651 H   0  0  0  0  0  0
  -15.8699  -28.0803   22.7043 H   0  0  0  0  0  0
  -24.5907  -30.7033   25.7795 H   0  0  0  0  0  0
  -24.8909  -32.2822   26.4952 H   0  0  0  0  0  0
  -25.8071  -30.8822   27.0214 H   0  0  0  0  0  0
  -26.2892  -29.6769   24.1229 H   0  0  0  0  0  0
  -27.4076  -29.7280   25.4654 H   0  0  0  0  0  0
  -27.8743  -30.4333   23.9371 H   0  0  0  0  0  0
  -27.2662  -33.3616   26.2081 H   0  0  0  0  0  0
  -28.3832  -32.6890   25.0314 H   0  0  0  0  0  0
  -28.0735  -31.8449   26.5388 H   0  0  0  0  0  0
  -28.2613  -38.0102   24.7523 H   0  0  0  0  0  0
  -28.1080  -36.2642   24.6299 H   0  0  0  0  0  0
  -27.2311  -37.1471   25.8865 H   0  0  0  0  0  0
  -20.9339  -29.8794   21.6925 H   0  0  0  0  0  0
  -26.0200  -38.2867   24.1380 H   0  0  0  0  0  0
  -27.4543  -22.4031   21.8727 H   0  0  0  0  0  0
  -31.2368  -22.1333   19.8737 H   0  0  0  0  0  0
  -28.0911  -16.7134   22.4258 H   0  0  0  0  0  0
  -27.4752  -17.7092   21.0990 H   0  0  0  0  0  0
  -27.5460  -18.3273   22.7410 H   0  0  0  0  0  0
  -30.2461  -24.3808   20.0221 H   0  0  0  0  0  0
  -29.6863  -24.5226   21.6502 H   0  0  0  0  0  0
  -31.2391  -17.3903   20.6814 H   0  0  0  0  0  0
  -29.8160  -17.4791   19.7073 H   0  0  0  0  0  0
  -27.3022  -24.7728   20.7820 H   0  0  0  0  0  0
  -27.9289  -24.7228   19.1450 H   0  0  0  0  0  0
  -28.9742  -15.4744   21.2219 H   0  0  0  0  0  0
  1 25  1  0  0  0
  1 30  2  0  0  0
  1 83  1  0  0  0
  2  3  1  0  0  0
  2 25  1  0  0  0
  2 87  1  0  0  0
  2 88  1  0  0  0
  3  4  1  0  0  0
  3 89  1  0  0  0
  3 90  1  0  0  0
  4  5  1  0  0  0
  4 91  1  0  0  0
  4 92  1  0  0  0
  5  6  1  0  0  0
  5 26  1  0  0  0
  5 93  1  0  0  0
  6 25  1  0  0  0
  6 94  1  0  0  0
  6 95  1  0  0  0
  7  8  2  0  0  0
  7 26  1  0  0  0
  7 29  1  0  0  0
  8  9  1  0  0  0
  8 22  1  0  0  0
  9 10  1  0  0  0
  9 27  2  0  0  0
 10 11  2  0  0  0
 10 15  1  0  0  0
 11 12  1  0  0  0
 11 96  1  0  0  0
 12 13  2  0  0  0
 12 97  1  0  0  0
 13 14  1  0  0  0
 13 31  1  0  0  0
 14 15  2  0  0  0
 14 98  1  0  0  0
 15 99  1  0  0  0
 16 17  2  0  0  0
 16 21  1  0  0  0
 16 31  1  0  0  0
 17 18  1  0  0  0
 17100  1  0  0  0
 18 19  2  0  0  0
 18101  1  0  0  0
 19 20  1  0  0  0
 19 24  1  0  0  0
 20 21  2  0  0  0
 20102  1  0  0  0
 21 23  1  0  0  0
 22 28  1  0  0  0
 22 32  2  0  0  0
 26 27  1  0  0  0
 28103  1  0  0  0
 28104  1  0  0  0
 29105  1  0  0  0
 29106  1  0  0  0
 33 34  1  0  0  0
 33 66  1  0  0  0
 33 70  2  0  0  0
 34 36  1  0  0  0
 34 59  1  0  0  0
 34107  1  0  0  0
 35 44  2  0  0  0
 35 45  1  0  0  0
 35 68  1  0  0  0
 36 56  1  0  0  0
 36108  1  0  0  0
 37 39  1  0  0  0
 37 47  1  0  0  0
 37 66  1  0  0  0
 37109  1  0  0  0
 38 43  2  0  0  0
 38 46  1  0  0  0
 38 47  1  0  0  0
 39 64  1  0  0  0
 39 67  2  0  0  0
 40 52  1  0  0  0
 40 53  2  0  0  0
 40 58  1  0  0  0
 41110  1  0  0  0
 41111  1  0  0  0
 41112  1  0  0  0
 41 48  1  0  0  0
 42 43  1  0  0  0
 42 66  1  0  0  0
 42113  1  0  0  0
 42114  1  0  0  0
 43 44  1  0  0  0
 44115  1  0  0  0
 45 46  2  0  0  0
 45116  1  0  0  0
 46117  1  0  0  0
 47118  1  0  0  0
 47119  1  0  0  0
 48 56  1  0  0  0
 48 65  1  0  0  0
 48120  1  0  0  0
 49 50  1  0  0  0
 49 53  1  0  0  0
 49 64  1  0  0  0
 49121  1  0  0  0
 50 51  1  0  0  0
 50122  1  0  0  0
 50123  1  0  0  0
 51 52  1  0  0  0
 51124  1  0  0  0
 51125  1  0  0  0
 52126  1  0  0  0
 52127  1  0  0  0
 53 54  1  0  0  0
 54 55  2  0  0  0
 54128  1  0  0  0
 55 57  1  0  0  0
 55129  1  0  0  0
 56 69  2  0  0  0
 57 58  2  0  0  0
 57130  1  0  0  0
 58131  1  0  0  0
 59 60  1  0  0  0
 59 61  1  0  0  0
 59 62  1  0  0  0
 60132  1  0  0  0
 60133  1  0  0  0
 60134  1  0  0  0
 61135  1  0  0  0
 61136  1  0  0  0
 61137  1  0  0  0
 62138  1  0  0  0
 62139  1  0  0  0
 62140  1  0  0  0
 63 65  1  0  0  0
 63141  1  0  0  0
 63142  1  0  0  0
 63143  1  0  0  0
 64144  1  0  0  0
 65145  1  0  0  0
 68 78  1  0  0  0
 71 73  2  0  0  0
 71 81  1  0  0  0
 71146  1  0  0  0
 72 73  1  0  0  0
 72 82  2  0  0  0
 72147  1  0  0  0
 73 76  1  0  0  0
 74 79  1  0  0  0
 74 81  2  0  0  0
 74 82  1  0  0  0
 75148  1  0  0  0
 75149  1  0  0  0
 75150  1  0  0  0
 75 79  1  0  0  0
 76 78  1  0  0  0
 76151  1  0  0  0
 76152  1  0  0  0
 77 79  1  0  0  0
 77 83  1  0  0  0
 77153  1  0  0  0
 77154  1  0  0  0
 78155  1  0  0  0
 78156  1  0  0  0
 79 80  1  0  0  0
 80 84  1  0  0  0
 80 85  1  0  0  0
 80 86  1  0  0  0
 83157  1  0  0  0
M  ISO  4   1 100  68 101  78 101  83 100
M  END
> <chiral flag>
0

> <version>
0

> <s_m_source_file>
/data/baiqing/PycharmProjects/Reinvent-master-3.2/result/LINK_invent/BTK/process_docking_weight1_custom_sum_contain_oxygen_bond_distance_aromatic_linkinvent_7_9_3/rearranged_h_0067.sdf

> <i_m_source_file_index>
25

> <r_mmod_Potential_Energy-OPLS-2005>
-198.799041748047

> <r_mmod_Stretch_Energy-OPLS-2005>
93.3472900390625

> <r_mmod_Bend_Energy-OPLS-2005>
144.085083007812

> <r_mmod_Torsional_Energy-OPLS-2005>
219.8701171875

> <r_mmod_Improper_Torsional_Energy-OPLS-2005>
6.88607788085938

> <r_mmod_Van_der_Waal_Energy-OPLS-2005>
153.439163208008

> <r_mmod_Electrostatic_Energy-OPLS-2005>
-646.349792480469

> <r_mmod_Solvation_Energy-OPLS-2005>
-219.849563598633

> <b_mmod_Minimization_Converged-OPLS-2005>
0

> <r_mmod_RMS_Derivative-OPLS-2005>
6.39262771606445

$$$$
25
                    3D
 Structure written by MMmdl.
174182  0  0  1  0            999 V2000
  -30.8470  -14.4772   20.3091 C   0  0  0  0  0  0
  -30.3809  -12.2785   19.4077 C   0  0  0  0  0  0
  -29.4610  -12.3851   18.1846 C   0  0  0  0  0  0
  -27.9866  -12.2851   18.6196 C   0  0  0  0  0  0
  -27.6310  -13.1827   19.8361 C   0  0  2  0  0  0
  -28.7190  -13.1713   20.9330 C   0  0  0  0  0  0
  -25.2594  -13.8090   20.5794 C   0  0  0  0  0  0
  -24.1820  -13.0373   20.9247 C   0  0  0  0  0  0
  -24.6352  -11.6852   20.8803 C   0  0  0  0  0  0
  -23.8993  -10.4272   21.0451 C   0  0  0  0  0  0
  -24.3562   -9.4190   21.9210 C   0  0  0  0  0  0
  -23.6256   -8.2211   22.0766 C   0  0  0  0  0  0
  -22.4239   -8.0265   21.3551 C   0  0  0  0  0  0
  -21.9856   -9.0236   20.4661 C   0  0  0  0  0  0
  -22.7181  -10.2123   20.3091 C   0  0  0  0  0  0
  -21.6839   -6.0734   22.5302 C   0  0  0  0  0  0
  -21.4002   -6.5648   23.8238 C   0  0  0  0  0  0
  -21.3651   -5.6804   24.9209 C   0  0  0  0  0  0
  -21.6039   -4.3074   24.7265 C   0  0  0  0  0  0
  -21.8821   -3.8163   23.4389 C   0  0  0  0  0  0
  -21.9197   -4.6967   22.3431 C   0  0  0  0  0  0
  -22.7870  -13.5211   21.1860 C   0  0  0  0  0  0
  -22.1673   -4.2153   21.1012 F   0  0  0  0  0  0
  -21.5594   -3.4555   25.7772 F   0  0  0  0  0  0
  -30.0216  -13.3931   20.2900 N   0  0  0  0  0  0
  -26.2945  -12.9167   20.3450 N   0  0  0  0  0  0
  -25.9277  -11.6365   20.5924 N   0  0  0  0  0  0
  -22.0490  -12.8252   22.0438 N   0  0  0  0  0  0
  -25.4382  -15.1797   20.4249 N   0  0  0  0  0  0
  -32.0444  -14.2870   20.4532 O   0  0  0  0  0  0
  -21.6607   -6.8866   21.4255 O   0  0  0  0  0  0
  -22.3575  -14.5502   20.6680 O   0  0  0  0  0  0
  -24.6118  -31.8714   23.2119 C   0  0  0  0  0  0
  -25.9021  -32.4846   23.8397 C   0  0  1  0  0  0
  -27.2430  -27.4772   20.0953 C   0  0  0  0  0  0
  -25.5892  -33.8645   24.2362 N   0  0  0  0  0  0
  -23.3974  -30.4893   21.5542 C   0  0  2  0  0  0
  -24.8474  -28.9640   20.1081 C   0  0  0  0  0  0
  -22.7407  -29.4643   22.5048 C   0  0  0  0  0  0
  -18.0267  -28.1367   22.8525 C   0  0  0  0  0  0
  -24.1487  -36.7322   23.2630 C   0  0  0  0  0  0
  -25.9187  -30.8482   21.3572 C   0  0  0  0  0  0
  -26.0001  -29.4858   20.7076 C   0  0  0  0  0  0
  -27.1996  -28.7458   20.7061 C   0  0  0  0  0  0
  -26.0740  -26.9519   19.5034 C   0  0  0  0  0  0
  -24.8779  -27.6964   19.4992 C   0  0  0  0  0  0
  -23.6006  -29.8176   20.1680 C   0  0  0  0  0  0
  -25.4108  -36.3142   24.0344 C   0  0  1  0  0  0
  -20.5854  -28.3649   23.1378 C   0  0  2  0  0  0
  -20.6756  -26.9386   22.5470 C   0  0  0  0  0  0
  -19.5728  -26.6387   21.5259 C   0  0  0  0  0  0
  -18.1893  -26.7944   22.1617 C   0  0  0  0  0  0
  -19.1515  -28.8832   23.2934 C   0  0  0  0  0  0
  -18.9420  -30.1452   23.8931 C   0  0  0  0  0  0
  -17.6413  -30.6580   24.0578 C   0  0  0  0  0  0
  -25.9035  -34.9499   23.5150 C   0  0  0  0  0  0
  -16.5323  -29.9084   23.6318 C   0  0  0  0  0  0
  -16.7257  -28.6492   23.0363 C   0  0  0  0  0  0
  -26.4445  -31.6601   25.0713 C   0  0  0  0  0  0
  -25.3738  -31.3713   26.1490 C   0  0  0  0  0  0
  -27.0204  -30.3033   24.6037 C   0  0  0  0  0  0
  -27.6054  -32.4294   25.7456 C   0  0  0  0  0  0
  -27.5604  -37.1794   24.8445 C   0  0  0  0  0  0
  -21.4147  -29.3009   22.3801 N   0  0  0  0  0  0
  -26.4303  -37.3820   23.9420 N   0  0  0  0  0  0
  -24.6598  -31.0832   22.1009 N   0  0  0  0  0  0
  -23.4198  -28.8198   23.3084 O   0  0  0  0  0  0
  -28.3936  -26.7373   20.1644 O   0  0  0  0  0  0
  -26.5594  -34.8939   22.4707 O   0  0  0  0  0  0
  -23.5329  -32.1439   23.7552 O   0  0  0  0  0  0
  -31.3187  -16.9161   20.5755 C   0  0  0  0  0  0
  -32.7017  -17.3447   20.6064 C   0  0  0  0  0  0
  -31.2425  -15.9424   18.2795 C   0  0  0  0  0  0
  -31.1601  -25.3721   18.1199 C   0  0  0  0  0  0
  -31.3088  -26.4717   20.3892 C   0  0  0  0  0  0
  -30.5286  -22.1864   21.2844 C   0  0  0  0  0  0
  -30.9421  -23.2454   20.2462 C   0  0  0  0  0  0
  -31.3214  -20.8848   21.1357 C   0  0  0  0  0  0
  -29.9134  -24.3892   20.1306 C   0  0  0  0  0  0
  -31.1188  -19.8785   22.2905 C   0  0  0  0  0  0
  -30.5784  -15.8986   19.6882 C   0  0  1  0  0  0
  -33.9269  -16.9669   19.7842 C   0  0  0  0  0  0
  -30.3854  -25.6937   19.4190 C   0  0  0  0  0  0
  -29.1462  -26.5740   19.0467 C   0  0  0  0  0  0
  -29.1095  -16.3640   19.4203 C   0  0  0  0  0  0
  -30.6507  -17.6392   21.4468 N   0  0  0  0  0  0
  -32.8047  -18.3607   21.4325 N   0  0  0  0  0  0
  -31.5416  -18.5698   21.8450 N   0  0  0  0  0  0
  -34.1136  -15.6589   19.6486 F   0  0  0  0  0  0
  -33.8633  -17.5024   18.5637 F   0  0  0  0  0  0
  -35.0481  -17.4300   20.3454 F   0  0  0  0  0  0
  -28.4348  -25.9459   18.0740 F   0  0  0  0  0  0
  -29.5636  -27.7714   18.5632 F   0  0  0  0  0  0
  -29.0795  -17.6647   19.1087 F   0  0  0  0  0  0
  -28.5770  -15.7476   18.3655 F   0  0  0  0  0  0
  -28.3131  -16.1759   20.4735 F   0  0  0  0  0  0
  -31.4246  -12.2950   19.0849 H   0  0  0  0  0  0
  -30.2396  -11.3247   19.9210 H   0  0  0  0  0  0
  -29.6893  -11.5819   17.4814 H   0  0  0  0  0  0
  -29.6371  -13.3162   17.6476 H   0  0  0  0  0  0
  -27.7926  -11.2405   18.8669 H   0  0  0  0  0  0
  -27.3340  -12.5222   17.7786 H   0  0  0  0  0  0
  -27.5659  -14.1742   19.4390 H   0  0  0  0  0  0
  -28.7255  -12.2127   21.4541 H   0  0  0  0  0  0
  -28.5240  -13.9329   21.6903 H   0  0  0  0  0  0
  -25.2719   -9.5661   22.4781 H   0  0  0  0  0  0
  -23.9995   -7.4584   22.7461 H   0  0  0  0  0  0
  -21.0797   -8.8733   19.8952 H   0  0  0  0  0  0
  -22.3645  -10.9645   19.6197 H   0  0  0  0  0  0
  -21.1978   -7.6156   23.9735 H   0  0  0  0  0  0
  -21.1447   -6.0553   25.9098 H   0  0  0  0  0  0
  -22.0595   -2.7623   23.2909 H   0  0  0  0  0  0
  -22.4052  -11.9896   22.4830 H   0  0  0  0  0  0
  -21.1108  -13.1338   22.2549 H   0  0  0  0  0  0
  -24.6854  -15.8460   20.5498 H   0  0  0  0  0  0
  -26.3326  -15.6237   20.2521 H   0  0  0  0  0  0
  -26.7102  -32.5568   23.1172 H   0  0  0  0  0  0
  -25.0026  -33.9809   25.0504 H   0  0  0  0  0  0
  -22.6841  -31.3034   21.4193 H   0  0  0  0  0  0
  -23.3782  -35.9610   23.3241 H   0  0  0  0  0  0
  -24.3597  -36.8997   22.2053 H   0  0  0  0  0  0
  -23.7187  -37.6486   23.6677 H   0  0  0  0  0  0
  -26.0208  -31.6124   20.5840 H   0  0  0  0  0  0
  -26.8114  -30.9088   21.9669 H   0  0  0  0  0  0
  -28.0874  -29.1381   21.1809 H   0  0  0  0  0  0
  -26.0849  -25.9658   19.0630 H   0  0  0  0  0  0
  -23.9903  -27.2878   19.0358 H   0  0  0  0  0  0
  -23.6862  -30.5888   19.4021 H   0  0  0  0  0  0
  -22.7311  -29.2225   19.8844 H   0  0  0  0  0  0
  -25.1286  -36.1988   25.0834 H   0  0  0  0  0  0
  -20.9921  -28.3187   24.1509 H   0  0  0  0  0  0
  -20.5636  -26.2254   23.3639 H   0  0  0  0  0  0
  -21.6627  -26.7412   22.1253 H   0  0  0  0  0  0
  -19.6862  -25.6303   21.1255 H   0  0  0  0  0  0
  -19.6696  -27.3245   20.6822 H   0  0  0  0  0  0
  -17.4200  -26.6812   21.3968 H   0  0  0  0  0  0
  -18.0184  -26.0059   22.8950 H   0  0  0  0  0  0
  -19.7898  -30.7297   24.2306 H   0  0  0  0  0  0
  -17.4956  -31.6250   24.5188 H   0  0  0  0  0  0
  -15.5329  -30.2969   23.7649 H   0  0  0  0  0  0
  -15.8652  -28.0819   22.7059 H   0  0  0  0  0  0
  -24.5928  -30.7025   25.7840 H   0  0  0  0  0  0
  -24.8902  -32.2877   26.4892 H   0  0  0  0  0  0
  -25.8121  -30.8920   27.0258 H   0  0  0  0  0  0
  -26.2671  -29.6878   24.1102 H   0  0  0  0  0  0
  -27.3972  -29.7200   25.4444 H   0  0  0  0  0  0
  -27.8526  -30.4338   23.9121 H   0  0  0  0  0  0
  -27.2688  -33.3609   26.2006 H   0  0  0  0  0  0
  -28.3840  -32.6825   25.0255 H   0  0  0  0  0  0
  -28.0707  -31.8424   26.5380 H   0  0  0  0  0  0
  -28.2594  -38.0118   24.7542 H   0  0  0  0  0  0
  -28.1137  -36.2665   24.6194 H   0  0  0  0  0  0
  -27.2342  -37.1330   25.8849 H   0  0  0  0  0  0
  -20.9314  -29.8706   21.7000 H   0  0  0  0  0  0
  -26.0207  -38.2897   24.1446 H   0  0  0  0  0  0
  -30.6980  -15.3624   17.5394 H   0  0  0  0  0  0
  -32.2471  -15.5386   18.2482 H   0  0  0  0  0  0
  -31.2789  -16.9665   17.9032 H   0  0  0  0  0  0
  -32.0347  -24.7484   18.2985 H   0  0  0  0  0  0
  -31.5117  -26.2888   17.6465 H   0  0  0  0  0  0
  -30.5302  -24.8501   17.3972 H   0  0  0  0  0  0
  -32.2118  -25.9123   20.6305 H   0  0  0  0  0  0
  -30.8021  -26.6907   21.3324 H   0  0  0  0  0  0
  -31.6278  -27.4256   19.9692 H   0  0  0  0  0  0
  -29.4672  -21.9572   21.1771 H   0  0  0  0  0  0
  -30.6613  -22.5881   22.2897 H   0  0  0  0  0  0
  -31.0569  -22.7867   19.2626 H   0  0  0  0  0  0
  -31.9223  -23.6349   20.5207 H   0  0  0  0  0  0
  -32.3859  -21.1034   21.0364 H   0  0  0  0  0  0
  -31.0226  -20.4154   20.1945 H   0  0  0  0  0  0
  -29.5751  -24.6465   21.1359 H   0  0  0  0  0  0
  -29.0297  -23.9964   19.6261 H   0  0  0  0  0  0
  -30.0690  -19.8250   22.5826 H   0  0  0  0  0  0
  -31.6967  -20.1609   23.1707 H   0  0  0  0  0  0
  1 25  1  0  0  0
  1 30  2  0  0  0
  1 81  1  0  0  0
  2  3  1  0  0  0
  2 25  1  0  0  0
  2 97  1  0  0  0
  2 98  1  0  0  0
  3  4  1  0  0  0
  3 99  1  0  0  0
  3100  1  0  0  0
  4  5  1  0  0  0
  4101  1  0  0  0
  4102  1  0  0  0
  5  6  1  0  0  0
  5 26  1  0  0  0
  5103  1  0  0  0
  6 25  1  0  0  0
  6104  1  0  0  0
  6105  1  0  0  0
  7  8  2  0  0  0
  7 26  1  0  0  0
  7 29  1  0  0  0
  8  9  1  0  0  0
  8 22  1  0  0  0
  9 10  1  0  0  0
  9 27  2  0  0  0
 10 11  2  0  0  0
 10 15  1  0  0  0
 11 12  1  0  0  0
 11106  1  0  0  0
 12 13  2  0  0  0
 12107  1  0  0  0
 13 14  1  0  0  0
 13 31  1  0  0  0
 14 15  2  0  0  0
 14108  1  0  0  0
 15109  1  0  0  0
 16 17  2  0  0  0
 16 21  1  0  0  0
 16 31  1  0  0  0
 17 18  1  0  0  0
 17110  1  0  0  0
 18 19  2  0  0  0
 18111  1  0  0  0
 19 20  1  0  0  0
 19 24  1  0  0  0
 20 21  2  0  0  0
 20112  1  0  0  0
 21 23  1  0  0  0
 22 28  1  0  0  0
 22 32  2  0  0  0
 26 27  1  0  0  0
 28113  1  0  0  0
 28114  1  0  0  0
 29115  1  0  0  0
 29116  1  0  0  0
 33 34  1  0  0  0
 33 66  1  0  0  0
 33 70  2  0  0  0
 34 36  1  0  0  0
 34 59  1  0  0  0
 34117  1  0  0  0
 35 44  2  0  0  0
 35 45  1  0  0  0
 35 68  1  0  0  0
 36 56  1  0  0  0
 36118  1  0  0  0
 37 39  1  0  0  0
 37 47  1  0  0  0
 37 66  1  0  0  0
 37119  1  0  0  0
 38 43  2  0  0  0
 38 46  1  0  0  0
 38 47  1  0  0  0
 39 64  1  0  0  0
 39 67  2  0  0  0
 40 52  1  0  0  0
 40 53  2  0  0  0
 40 58  1  0  0  0
 41120  1  0  0  0
 41121  1  0  0  0
 41122  1  0  0  0
 41 48  1  0  0  0
 42 43  1  0  0  0
 42 66  1  0  0  0
 42123  1  0  0  0
 42124  1  0  0  0
 43 44  1  0  0  0
 44125  1  0  0  0
 45 46  2  0  0  0
 45126  1  0  0  0
 46127  1  0  0  0
 47128  1  0  0  0
 47129  1  0  0  0
 48 56  1  0  0  0
 48 65  1  0  0  0
 48130  1  0  0  0
 49 50  1  0  0  0
 49 53  1  0  0  0
 49 64  1  0  0  0
 49131  1  0  0  0
 50 51  1  0  0  0
 50132  1  0  0  0
 50133  1  0  0  0
 51 52  1  0  0  0
 51134  1  0  0  0
 51135  1  0  0  0
 52136  1  0  0  0
 52137  1  0  0  0
 53 54  1  0  0  0
 54 55  2  0  0  0
 54138  1  0  0  0
 55 57  1  0  0  0
 55139  1  0  0  0
 56 69  2  0  0  0
 57 58  2  0  0  0
 57140  1  0  0  0
 58141  1  0  0  0
 59 60  1  0  0  0
 59 61  1  0  0  0
 59 62  1  0  0  0
 60142  1  0  0  0
 60143  1  0  0  0
 60144  1  0  0  0
 61145  1  0  0  0
 61146  1  0  0  0
 61147  1  0  0  0
 62148  1  0  0  0
 62149  1  0  0  0
 62150  1  0  0  0
 63 65  1  0  0  0
 63151  1  0  0  0
 63152  1  0  0  0
 63153  1  0  0  0
 64154  1  0  0  0
 65155  1  0  0  0
 68 84  1  0  0  0
 71 72  1  0  0  0
 71 81  1  0  0  0
 71 86  2  0  0  0
 72 82  1  0  0  0
 72 87  2  0  0  0
 73156  1  0  0  0
 73157  1  0  0  0
 73158  1  0  0  0
 73 81  1  0  0  0
 74159  1  0  0  0
 74160  1  0  0  0
 74161  1  0  0  0
 74 83  1  0  0  0
 75 83  1  0  0  0
 75162  1  0  0  0
 75163  1  0  0  0
 75164  1  0  0  0
 76 77  1  0  0  0
 76 78  1  0  0  0
 76165  1  0  0  0
 76166  1  0  0  0
 77 79  1  0  0  0
 77167  1  0  0  0
 77168  1  0  0  0
 78 80  1  0  0  0
 78169  1  0  0  0
 78170  1  0  0  0
 79 83  1  0  0  0
 79171  1  0  0  0
 79172  1  0  0  0
 80 88  1  0  0  0
 80173  1  0  0  0
 80174  1  0  0  0
 81 85  1  0  0  0
 82 89  1  0  0  0
 82 90  1  0  0  0
 82 91  1  0  0  0
 83 84  1  0  0  0
 84 92  1  0  0  0
 84 93  1  0  0  0
 85 94  1  0  0  0
 85 95  1  0  0  0
 85 96  1  0  0  0
 86 88  1  0  0  0
 87 88  1  0  0  0
M  ISO  4   1 100  68 101  81 100  84 101
M  END
> <chiral flag>
0

> <version>
0

> <s_m_source_file>
/data/baiqing/PycharmProjects/Reinvent-master-3.2/result/LINK_invent/BTK/process_docking_weight1_custom_sum_contain_oxygen_bond_distance_aromatic_linkinvent_7_9_3/rearranged_h_0067.sdf

> <i_m_source_file_index>
26

> <r_mmod_Potential_Energy-OPLS-2005>
385.669921875

> <r_mmod_Stretch_Energy-OPLS-2005>
42.801326751709

> <r_mmod_Bend_Energy-OPLS-2005>
156.992156982422

> <r_mmod_Torsional_Energy-OPLS-2005>
277.331787109375

> <r_mmod_Improper_Torsional_Energy-OPLS-2005>
17.8492164611816

> <r_mmod_Van_der_Waal_Energy-OPLS-2005>
159.803756713867

> <r_mmod_Electrostatic_Energy-OPLS-2005>
-191.358428955078

> <r_mmod_Solvation_Energy-OPLS-2005>
-154.304489135742

> <b_mmod_Minimization_Converged-OPLS-2005>
0

> <r_mmod_RMS_Derivative-OPLS-2005>
4.00374317169189

$$$$
26
                    3D
 Structure written by MMmdl.
189197  0  0  1  0            999 V2000
  -30.4332  -14.9568   20.5281 C   0  0  0  0  0  0
  -30.4373  -12.6085   19.5305 C   0  0  0  0  0  0
  -29.5278  -12.5503   18.2772 C   0  0  0  0  0  0
  -28.0598  -12.3168   18.6814 C   0  0  0  0  0  0
  -27.6244  -13.2354   19.8528 C   0  0  2  0  0  0
  -28.6417  -13.2186   21.0108 C   0  0  0  0  0  0
  -25.2423  -13.8190   20.5677 C   0  0  0  0  0  0
  -24.1748  -13.0417   20.9227 C   0  0  0  0  0  0
  -24.6353  -11.6908   20.8741 C   0  0  0  0  0  0
  -23.9052  -10.4285   21.0417 C   0  0  0  0  0  0
  -24.3610   -9.4198   21.9189 C   0  0  0  0  0  0
  -23.6287   -8.2237   22.0748 C   0  0  0  0  0  0
  -22.4276   -8.0277   21.3547 C   0  0  0  0  0  0
  -21.9909   -9.0251   20.4647 C   0  0  0  0  0  0
  -22.7226  -10.2125   20.3059 C   0  0  0  0  0  0
  -21.6852   -6.0732   22.5286 C   0  0  0  0  0  0
  -21.4019   -6.5639   23.8212 C   0  0  0  0  0  0
  -21.3653   -5.6793   24.9181 C   0  0  0  0  0  0
  -21.6041   -4.3051   24.7226 C   0  0  0  0  0  0
  -21.8822   -3.8145   23.4344 C   0  0  0  0  0  0
  -21.9194   -4.6967   22.3402 C   0  0  0  0  0  0
  -22.7777  -13.5203   21.1888 C   0  0  0  0  0  0
  -22.1663   -4.2146   21.0979 F   0  0  0  0  0  0
  -21.5624   -3.4540   25.7735 F   0  0  0  0  0  0
  -29.9142  -13.6653   20.4497 N   0  0  0  0  0  0
  -26.2812  -12.9379   20.3205 N   0  0  0  0  0  0
  -25.9262  -11.6517   20.5712 N   0  0  0  0  0  0
  -22.0448  -12.8201   22.0437 N   0  0  0  0  0  0
  -25.4123  -15.1901   20.4110 N   0  0  0  0  0  0
  -31.6108  -15.0973   20.1682 O   0  0  0  0  0  0
  -21.6631   -6.8868   21.4243 O   0  0  0  0  0  0
  -22.3473  -14.5520   20.6730 O   0  0  0  0  0  0
  -24.5953  -31.8889   23.2405 C   0  0  0  0  0  0
  -25.8937  -32.4899   23.8625 C   0  0  1  0  0  0
  -27.6705  -27.0810   19.8551 C   0  0  0  0  0  0
  -25.5937  -33.8730   24.2515 N   0  0  0  0  0  0
  -23.3566  -30.5112   21.5949 C   0  0  2  0  0  0
  -24.5942  -28.7658   20.2574 C   0  0  0  0  0  0
  -22.7020  -29.4955   22.5497 C   0  0  0  0  0  0
  -18.0151  -28.1377   22.8504 C   0  0  0  0  0  0
  -24.1497  -36.7331   23.2632 C   0  0  0  0  0  0
  -25.9161  -30.7559   21.4980 C   0  0  0  0  0  0
  -25.9928  -29.3173   21.0908 C   0  0  0  0  0  0
  -27.5278  -28.5053   20.9272 C   0  0  0  0  0  0
  -26.1952  -26.4702   19.0011 C   0  0  0  0  0  0
  -24.6613  -27.3497   19.1937 C   0  0  0  0  0  0
  -23.5027  -29.7904   20.2266 C   0  0  0  0  0  0
  -25.4105  -36.3172   24.0365 C   0  0  1  0  0  0
  -20.5688  -28.3571   23.1552 C   0  0  2  0  0  0
  -20.6492  -26.9267   22.5771 C   0  0  0  0  0  0
  -19.5706  -26.6379   21.5319 C   0  0  0  0  0  0
  -18.1807  -26.7960   22.1548 C   0  0  0  0  0  0
  -19.1381  -28.8798   23.3029 C   0  0  0  0  0  0
  -18.9361  -30.1424   23.8996 C   0  0  0  0  0  0
  -17.6387  -30.6623   24.0580 C   0  0  0  0  0  0
  -25.9021  -34.9514   23.5219 C   0  0  0  0  0  0
  -16.5270  -29.9134   23.6324 C   0  0  0  0  0  0
  -16.7169  -28.6539   23.0341 C   0  0  0  0  0  0
  -26.4436  -31.6610   25.0878 C   0  0  0  0  0  0
  -25.3748  -31.3714   26.1654 C   0  0  0  0  0  0
  -27.0216  -30.3023   24.6250 C   0  0  0  0  0  0
  -27.6058  -32.4256   25.7616 C   0  0  0  0  0  0
  -27.5596  -37.1822   24.8484 C   0  0  0  0  0  0
  -21.3881  -29.2925   22.3922 N   0  0  0  0  0  0
  -26.4310  -37.3828   23.9426 N   0  0  0  0  0  0
  -24.6355  -31.0804   22.1482 N   0  0  0  0  0  0
  -23.3864  -28.8729   23.3629 O   0  0  0  0  0  0
  -28.8941  -26.5568   19.6729 O   0  0  0  0  0  0
  -26.5514  -34.8923   22.4724 O   0  0  0  0  0  0
  -23.5160  -32.1848   23.7731 O   0  0  0  0  0  0
  -27.1562  -24.2113   21.3630 C   0  0  0  0  0  0
  -27.4512  -22.8536   21.8268 C   0  0  0  0  0  0
  -28.5327  -23.1025   20.0260 C   0  0  0  0  0  0
  -28.0402  -26.2907   22.6374 C   0  0  0  0  0  0
  -26.0674  -25.4251   23.3871 C   0  0  0  0  0  0
  -28.6842  -18.5259   22.7259 C   0  0  0  0  0  0
  -27.3689  -18.8084   20.6235 C   0  0  0  0  0  0
  -30.2978  -20.9382   22.1028 C   0  0  0  0  0  0
  -30.0170  -20.4689   19.6929 C   0  0  0  0  0  0
  -26.4509  -28.7312   18.9197 C   0  0  0  0  0  0
  -24.3991  -26.4483   21.5955 C   0  0  0  0  0  0
  -29.6101  -23.2997   18.9797 C   0  0  0  0  0  0
  -30.1217  -24.7363   18.6325 C   0  0  0  0  0  0
  -29.7440  -17.6337   20.6433 C   0  0  0  0  0  0
  -29.1495  -25.9101   18.4182 C   0  0  0  0  0  0
  -26.7175  -25.7373   21.9807 C   0  0  0  0  0  0
  -27.0188  -22.2919   23.1431 C   0  0  0  0  0  0
  -28.7713  -18.9440   21.2320 C   0  0  0  0  0  0
  -29.2319  -20.6319   21.0275 C   0  0  0  0  0  0
  -27.6968  -24.1303   20.1125 N   0  0  0  0  0  0
  -28.3566  -22.0593   20.9348 N   0  0  0  0  0  0
  -29.5845  -16.0659   20.8396 N   0  0  0  0  0  0
  -25.8140  -26.9830   21.1846 N   0  3  0  0  0  0
  -25.7623  -22.6102   23.4339 F   0  0  0  0  0  0
  -27.0304  -20.9771   23.1447 F   0  0  0  0  0  0
  -27.8002  -22.7030   24.1402 F   0  0  0  0  0  0
  -31.4689  -12.8051   19.2352 H   0  0  0  0  0  0
  -30.4540  -11.6409   20.0342 H   0  0  0  0  0  0
  -29.8623  -11.7593   17.6048 H   0  0  0  0  0  0
  -29.6124  -13.4843   17.7182 H   0  0  0  0  0  0
  -27.9672  -11.2720   18.9809 H   0  0  0  0  0  0
  -27.4005  -12.4476   17.8214 H   0  0  0  0  0  0
  -27.6037  -14.2463   19.4442 H   0  0  0  0  0  0
  -28.7292  -12.2236   21.4503 H   0  0  0  0  0  0
  -28.3161  -13.8777   21.8163 H   0  0  0  0  0  0
  -25.2764   -9.5671   22.4757 H   0  0  0  0  0  0
  -24.0003   -7.4617   22.7468 H   0  0  0  0  0  0
  -21.0835   -8.8769   19.8947 H   0  0  0  0  0  0
  -22.3698  -10.9668   19.6163 H   0  0  0  0  0  0
  -21.2018   -7.6149   23.9718 H   0  0  0  0  0  0
  -21.1471   -6.0520   25.9075 H   0  0  0  0  0  0
  -22.0604   -2.7610   23.2847 H   0  0  0  0  0  0
  -22.4083  -11.9864   22.4826 H   0  0  0  0  0  0
  -21.1051  -13.1207   22.2645 H   0  0  0  0  0  0
  -24.6372  -15.8356   20.5199 H   0  0  0  0  0  0
  -26.2411  -15.6302   20.0350 H   0  0  0  0  0  0
  -26.6974  -32.5723   23.1385 H   0  0  0  0  0  0
  -25.0196  -33.9964   25.0730 H   0  0  0  0  0  0
  -22.6542  -31.3363   21.4527 H   0  0  0  0  0  0
  -23.3765  -35.9659   23.3303 H   0  0  0  0  0  0
  -24.3634  -36.8908   22.2052 H   0  0  0  0  0  0
  -23.7231  -37.6546   23.6601 H   0  0  0  0  0  0
  -26.0146  -31.3732   20.6048 H   0  0  0  0  0  0
  -26.8206  -30.9097   22.0651 H   0  0  0  0  0  0
  -28.4158  -28.9372   21.3684 H   0  0  0  0  0  0
  -26.2220  -25.6142   18.3423 H   0  0  0  0  0  0
  -23.7913  -27.0660   18.6171 H   0  0  0  0  0  0
  -23.7500  -30.5218   19.4565 H   0  0  0  0  0  0
  -22.5715  -29.3253   19.9038 H   0  0  0  0  0  0
  -25.1265  -36.2079   25.0857 H   0  0  0  0  0  0
  -20.9762  -28.3197   24.1691 H   0  0  0  0  0  0
  -20.5057  -26.2227   23.3972 H   0  0  0  0  0  0
  -21.6372  -26.7059   22.1915 H   0  0  0  0  0  0
  -19.6906  -25.6311   21.1305 H   0  0  0  0  0  0
  -19.6863  -27.3244   20.6912 H   0  0  0  0  0  0
  -17.4176  -26.6811   21.3842 H   0  0  0  0  0  0
  -18.0069  -26.0055   22.8847 H   0  0  0  0  0  0
  -19.7850  -30.7190   24.2424 H   0  0  0  0  0  0
  -17.4950  -31.6311   24.5131 H   0  0  0  0  0  0
  -15.5289  -30.3065   23.7628 H   0  0  0  0  0  0
  -15.8543  -28.0909   22.7029 H   0  0  0  0  0  0
  -24.5880  -30.7092   25.8035 H   0  0  0  0  0  0
  -24.9008  -32.2867   26.5197 H   0  0  0  0  0  0
  -25.8138  -30.8837   27.0362 H   0  0  0  0  0  0
  -26.2732  -29.6838   24.1287 H   0  0  0  0  0  0
  -27.3890  -29.7236   25.4734 H   0  0  0  0  0  0
  -27.8674  -30.4280   23.9484 H   0  0  0  0  0  0
  -27.2762  -33.3595   26.2173 H   0  0  0  0  0  0
  -28.3902  -32.6704   25.0448 H   0  0  0  0  0  0
  -28.0628  -31.8344   26.5564 H   0  0  0  0  0  0
  -28.2609  -38.0123   24.7546 H   0  0  0  0  0  0
  -28.1092  -36.2658   24.6279 H   0  0  0  0  0  0
  -27.2325  -37.1443   25.8891 H   0  0  0  0  0  0
  -20.9025  -29.8414   21.6957 H   0  0  0  0  0  0
  -26.0208  -38.2906   24.1442 H   0  0  0  0  0  0
  -28.5094  -25.5904   23.3299 H   0  0  0  0  0  0
  -27.8528  -27.2039   23.2050 H   0  0  0  0  0  0
  -28.8599  -26.4938   21.9637 H   0  0  0  0  0  0
  -26.7056  -24.8636   24.0665 H   0  0  0  0  0  0
  -25.1605  -24.8274   23.3413 H   0  0  0  0  0  0
  -25.8302  -26.3430   23.9296 H   0  0  0  0  0  0
  -28.4604  -17.4643   22.8279 H   0  0  0  0  0  0
  -27.9044  -19.0041   23.2952 H   0  0  0  0  0  0
  -29.6222  -18.6826   23.2569 H   0  0  0  0  0  0
  -26.9484  -17.8151   20.7844 H   0  0  0  0  0  0
  -27.3951  -18.9942   19.5496 H   0  0  0  0  0  0
  -26.6838  -19.5342   21.0629 H   0  0  0  0  0  0
  -31.0588  -20.1593   22.1557 H   0  0  0  0  0  0
  -29.8549  -21.0403   23.0949 H   0  0  0  0  0  0
  -30.8144  -21.8756   21.8941 H   0  0  0  0  0  0
  -30.5839  -19.5634   19.5803 H   0  0  0  0  0  0
  -30.8815  -21.1045   19.5979 H   0  0  0  0  0  0
  -29.3683  -20.5278   18.8197 H   0  0  0  0  0  0
  -25.6837  -29.2777   18.3434 H   0  0  0  0  0  0
  -26.9561  -28.3553   18.0085 H   0  0  0  0  0  0
  -27.1116  -29.6127   19.0105 H   0  0  0  0  0  0
  -23.4928  -26.8271   21.1376 H   0  0  0  0  0  0
  -24.1610  -26.6605   22.6316 H   0  0  0  0  0  0
  -24.3187  -25.3745   21.4187 H   0  0  0  0  0  0
  -29.3685  -22.7259   18.0863 H   0  0  0  0  0  0
  -30.5339  -22.9591   19.4085 H   0  0  0  0  0  0
  -30.7272  -24.6360   17.7298 H   0  0  0  0  0  0
  -30.8192  -25.0567   19.4087 H   0  0  0  0  0  0
  -30.7711  -17.8350   20.9535 H   0  0  0  0  0  0
  -29.7423  -17.6990   19.5543 H   0  0  0  0  0  0
  -28.2832  -25.5722   17.8549 H   0  0  0  0  0  0
  -29.6351  -26.6542   17.7880 H   0  0  0  0  0  0
  -28.6611  -15.7882   21.1350 H   0  0  0  0  0  0
  -25.8844  -27.7360   21.8517 H   0  0  0  0  0  0
  1 25  1  0  0  0
  1 30  2  0  0  0
  1 92  1  0  0  0
  2  3  1  0  0  0
  2 25  1  0  0  0
  2 97  1  0  0  0
  2 98  1  0  0  0
  3  4  1  0  0  0
  3 99  1  0  0  0
  3100  1  0  0  0
  4  5  1  0  0  0
  4101  1  0  0  0
  4102  1  0  0  0
  5  6  1  0  0  0
  5 26  1  0  0  0
  5103  1  0  0  0
  6 25  1  0  0  0
  6104  1  0  0  0
  6105  1  0  0  0
  7  8  2  0  0  0
  7 26  1  0  0  0
  7 29  1  0  0  0
  8  9  1  0  0  0
  8 22  1  0  0  0
  9 10  1  0  0  0
  9 27  2  0  0  0
 10 11  2  0  0  0
 10 15  1  0  0  0
 11 12  1  0  0  0
 11106  1  0  0  0
 12 13  2  0  0  0
 12107  1  0  0  0
 13 14  1  0  0  0
 13 31  1  0  0  0
 14 15  2  0  0  0
 14108  1  0  0  0
 15109  1  0  0  0
 16 17  2  0  0  0
 16 21  1  0  0  0
 16 31  1  0  0  0
 17 18  1  0  0  0
 17110  1  0  0  0
 18 19  2  0  0  0
 18111  1  0  0  0
 19 20  1  0  0  0
 19 24  1  0  0  0
 20 21  2  0  0  0
 20112  1  0  0  0
 21 23  1  0  0  0
 22 28  1  0  0  0
 22 32  2  0  0  0
 26 27  1  0  0  0
 28113  1  0  0  0
 28114  1  0  0  0
 29115  1  0  0  0
 29116  1  0  0  0
 33 34  1  0  0  0
 33 66  1  0  0  0
 33 70  2  0  0  0
 34 36  1  0  0  0
 34 59  1  0  0  0
 34117  1  0  0  0
 35 44  2  0  0  0
 35 45  1  0  0  0
 35 68  1  0  0  0
 36 56  1  0  0  0
 36118  1  0  0  0
 37 39  1  0  0  0
 37 47  1  0  0  0
 37 66  1  0  0  0
 37119  1  0  0  0
 38 43  2  0  0  0
 38 46  1  0  0  0
 38 47  1  0  0  0
 39 64  1  0  0  0
 39 67  2  0  0  0
 40 52  1  0  0  0
 40 53  2  0  0  0
 40 58  1  0  0  0
 41120  1  0  0  0
 41121  1  0  0  0
 41122  1  0  0  0
 41 48  1  0  0  0
 42 43  1  0  0  0
 42 66  1  0  0  0
 42123  1  0  0  0
 42124  1  0  0  0
 43 44  1  0  0  0
 44125  1  0  0  0
 45 46  2  0  0  0
 45126  1  0  0  0
 46127  1  0  0  0
 47128  1  0  0  0
 47129  1  0  0  0
 48 56  1  0  0  0
 48 65  1  0  0  0
 48130  1  0  0  0
 49 50  1  0  0  0
 49 53  1  0  0  0
 49 64  1  0  0  0
 49131  1  0  0  0
 50 51  1  0  0  0
 50132  1  0  0  0
 50133  1  0  0  0
 51 52  1  0  0  0
 51134  1  0  0  0
 51135  1  0  0  0
 52136  1  0  0  0
 52137  1  0  0  0
 53 54  1  0  0  0
 54 55  2  0  0  0
 54138  1  0  0  0
 55 57  1  0  0  0
 55139  1  0  0  0
 56 69  2  0  0  0
 57 58  2  0  0  0
 57140  1  0  0  0
 58141  1  0  0  0
 59 60  1  0  0  0
 59 61  1  0  0  0
 59 62  1  0  0  0
 60142  1  0  0  0
 60143  1  0  0  0
 60144  1  0  0  0
 61145  1  0  0  0
 61146  1  0  0  0
 61147  1  0  0  0
 62148  1  0  0  0
 62149  1  0  0  0
 62150  1  0  0  0
 63 65  1  0  0  0
 63151  1  0  0  0
 63152  1  0  0  0
 63153  1  0  0  0
 64154  1  0  0  0
 65155  1  0  0  0
 68 85  1  0  0  0
 71 72  2  0  0  0
 71 86  1  0  0  0
 71 90  1  0  0  0
 72 87  1  0  0  0
 72 91  1  0  0  0
 73 82  1  0  0  0
 73 90  2  0  0  0
 73 91  1  0  0  0
 74156  1  0  0  0
 74157  1  0  0  0
 74158  1  0  0  0
 74 86  1  0  0  0
 75 86  1  0  0  0
 75159  1  0  0  0
 75160  1  0  0  0
 75161  1  0  0  0
 76162  1  0  0  0
 76163  1  0  0  0
 76164  1  0  0  0
 76 88  1  0  0  0
 77 88  1  0  0  0
 77165  1  0  0  0
 77166  1  0  0  0
 77167  1  0  0  0
 78168  1  0  0  0
 78169  1  0  0  0
 78170  1  0  0  0
 78 89  1  0  0  0
 79 89  1  0  0  0
 79171  1  0  0  0
 79172  1  0  0  0
 79173  1  0  0  0
 80174  1  0  0  0
 80175  1  0  0  0
 80176  1  0  0  0
 80 93  1  0  0  0
 81 93  1  0  0  0
 81177  1  0  0  0
 81178  1  0  0  0
 81179  1  0  0  0
 82 83  1  0  0  0
 82180  1  0  0  0
 82181  1  0  0  0
 83 85  1  0  0  0
 83182  1  0  0  0
 83183  1  0  0  0
 84 88  1  0  0  0
 84 92  1  0  0  0
 84184  1  0  0  0
 84185  1  0  0  0
 85186  1  0  0  0
 85187  1  0  0  0
 86 93  1  0  0  0
 87 94  1  0  0  0
 87 95  1  0  0  0
 87 96  1  0  0  0
 88 89  1  0  0  0
 89 91  1  0  0  0
 92188  1  0  0  0
 93189  1  0  0  0
M  CHG  1  93   1
M  ISO  4   1 100  68 101  85 101  92 100
M  END
> <chiral flag>
0

> <version>
0

> <s_m_source_file>
/data/baiqing/PycharmProjects/Reinvent-master-3.2/result/LINK_invent/BTK/process_docking_weight1_custom_sum_contain_oxygen_bond_distance_aromatic_linkinvent_7_9_3/rearranged_h_0067.sdf

> <i_m_source_file_index>
27

> <r_mmod_Potential_Energy-OPLS-2005>
8470.5595703125

> <r_mmod_Stretch_Energy-OPLS-2005>
5387.46435546875

> <r_mmod_Bend_Energy-OPLS-2005>
633.774719238281

> <r_mmod_Torsional_Energy-OPLS-2005>
357.424163818359

> <r_mmod_Improper_Torsional_Energy-OPLS-2005>
18.0221500396729

> <r_mmod_Van_der_Waal_Energy-OPLS-2005>
2573.64624023438

> <r_mmod_Electrostatic_Energy-OPLS-2005>
-517.91748046875

> <r_mmod_Solvation_Energy-OPLS-2005>
-331.496520996094

> <b_mmod_Minimization_Converged-OPLS-2005>
0

> <r_mmod_RMS_Derivative-OPLS-2005>
8.42776870727539

$$$$
27
                    3D
 Structure written by MMmdl.
169177  0  0  1  0            999 V2000
  -30.7231  -14.4478   20.2666 C   0  0  0  0  0  0
  -30.3921  -12.2024   19.4528 C   0  0  0  0  0  0
  -29.4861  -12.3587   18.2126 C   0  0  0  0  0  0
  -27.9995  -12.3134   18.6161 C   0  0  0  0  0  0
  -27.6493  -13.2076   19.8391 C   0  0  2  0  0  0
  -28.7091  -13.1005   20.9640 C   0  0  0  0  0  0
  -25.2564  -13.8181   20.5699 C   0  0  0  0  0  0
  -24.1830  -13.0464   20.9240 C   0  0  0  0  0  0
  -24.6395  -11.6926   20.8803 C   0  0  0  0  0  0
  -23.9059  -10.4312   21.0459 C   0  0  0  0  0  0
  -24.3613   -9.4213   21.9234 C   0  0  0  0  0  0
  -23.6295   -8.2239   22.0785 C   0  0  0  0  0  0
  -22.4278   -8.0291   21.3558 C   0  0  0  0  0  0
  -21.9913   -9.0253   20.4653 C   0  0  0  0  0  0
  -22.7239  -10.2137   20.3081 C   0  0  0  0  0  0
  -21.6860   -6.0744   22.5273 C   0  0  0  0  0  0
  -21.4024   -6.5635   23.8208 C   0  0  0  0  0  0
  -21.3699   -5.6786   24.9181 C   0  0  0  0  0  0
  -21.6080   -4.3051   24.7224 C   0  0  0  0  0  0
  -21.8829   -3.8147   23.4337 C   0  0  0  0  0  0
  -21.9200   -4.6969   22.3394 C   0  0  0  0  0  0
  -22.7830  -13.5237   21.1899 C   0  0  0  0  0  0
  -22.1650   -4.2163   21.0964 F   0  0  0  0  0  0
  -21.5676   -3.4533   25.7742 F   0  0  0  0  0  0
  -30.0418  -13.2828   20.3743 N   0  0  0  0  0  0
  -26.2991  -12.9344   20.3285 N   0  0  0  0  0  0
  -25.9309  -11.6531   20.5813 N   0  0  0  0  0  0
  -22.0405  -12.8220   22.0395 N   0  0  0  0  0  0
  -25.4262  -15.1911   20.4124 N   0  0  0  0  0  0
  -31.9382  -14.5549   20.3989 O   0  0  0  0  0  0
  -21.6619   -6.8901   21.4247 O   0  0  0  0  0  0
  -22.3541  -14.5565   20.6764 O   0  0  0  0  0  0
  -24.6120  -31.8708   23.2139 C   0  0  0  0  0  0
  -25.9045  -32.4822   23.8391 C   0  0  1  0  0  0
  -27.2394  -27.4833   20.0461 C   0  0  0  0  0  0
  -25.5916  -33.8617   24.2322 N   0  0  0  0  0  0
  -23.3935  -30.4963   21.5570 C   0  0  2  0  0  0
  -24.8350  -28.9657   20.1207 C   0  0  0  0  0  0
  -22.7343  -29.4680   22.5044 C   0  0  0  0  0  0
  -18.0255  -28.1347   22.8538 C   0  0  0  0  0  0
  -24.1480  -36.7321   23.2635 C   0  0  0  0  0  0
  -25.9192  -30.8446   21.3617 C   0  0  0  0  0  0
  -25.9942  -29.4791   20.7144 C   0  0  0  0  0  0
  -27.1949  -28.7385   20.6886 C   0  0  0  0  0  0
  -26.0508  -26.9659   19.4774 C   0  0  0  0  0  0
  -24.8534  -27.7008   19.5113 C   0  0  0  0  0  0
  -23.5961  -29.8277   20.1711 C   0  0  0  0  0  0
  -25.4101  -36.3099   24.0319 C   0  0  1  0  0  0
  -20.5835  -28.3631   23.1348 C   0  0  2  0  0  0
  -20.6741  -26.9380   22.5413 C   0  0  0  0  0  0
  -19.5702  -26.6378   21.5216 C   0  0  0  0  0  0
  -18.1876  -26.7912   22.1628 C   0  0  0  0  0  0
  -19.1501  -28.8806   23.2943 C   0  0  0  0  0  0
  -18.9437  -30.1419   23.8949 C   0  0  0  0  0  0
  -17.6440  -30.6582   24.0564 C   0  0  0  0  0  0
  -25.9043  -34.9473   23.5118 C   0  0  0  0  0  0
  -16.5329  -29.9075   23.6334 C   0  0  0  0  0  0
  -16.7248  -28.6463   23.0412 C   0  0  0  0  0  0
  -26.4487  -31.6580   25.0702 C   0  0  0  0  0  0
  -25.3760  -31.3620   26.1433 C   0  0  0  0  0  0
  -27.0307  -30.3019   24.6069 C   0  0  0  0  0  0
  -27.6057  -32.4277   25.7508 C   0  0  0  0  0  0
  -27.5587  -37.1777   24.8450 C   0  0  0  0  0  0
  -21.4083  -29.3033   22.3769 N   0  0  0  0  0  0
  -26.4267  -37.3803   23.9442 N   0  0  0  0  0  0
  -24.6595  -31.0838   22.1027 N   0  0  0  0  0  0
  -23.4135  -28.8216   23.3057 O   0  0  0  0  0  0
  -28.4465  -26.8237   19.9804 O   0  0  0  0  0  0
  -26.5616  -34.8927   22.4681 O   0  0  0  0  0  0
  -23.5328  -32.1451   23.7550 O   0  0  0  0  0  0
  -27.9008  -18.5859   18.0024 C   0  0  0  0  0  0
  -30.5973  -18.7736   18.0459 C   0  0  0  0  0  0
  -28.5711  -19.7924   17.6823 C   0  0  0  0  0  0
  -29.9356  -17.5685   18.3811 C   0  0  0  0  0  0
  -33.6622  -15.7333   17.3903 C   0  0  0  0  0  0
  -32.5311  -14.5053   15.5049 C   0  0  0  0  0  0
  -27.8365  -21.0820   17.3606 C   0  0  0  0  0  0
  -27.9374  -22.0769   18.5332 C   0  0  0  0  0  0
  -28.0507  -23.5539   18.1147 C   0  0  0  0  0  0
  -31.0883  -15.7253   17.1860 C   0  0  0  0  0  0
  -28.6449  -25.9315   18.8818 C   0  0  0  0  0  0
  -30.7578  -16.3093   18.5983 C   0  0  2  0  0  0
  -32.4101  -14.9444   16.9715 C   0  0  0  0  0  0
  -28.4103  -24.4682   19.3019 C   0  0  0  0  0  0
  -29.9219  -19.8846   17.6878 N   0  0  0  0  0  0
  -28.5812  -17.4605   18.3442 N   0  0  0  0  0  0
  -30.0863  -15.3441   19.4951 N   0  0  0  0  0  0
  -32.3890  -13.8148   17.6654 F   0  0  0  0  0  0
  -27.4283  -24.3842   20.2001 F   0  0  0  0  0  0
  -29.5390  -24.0380   19.8707 F   0  0  0  0  0  0
  -31.4474  -12.2196   19.1775 H   0  0  0  0  0  0
  -30.2233  -11.2352   19.9307 H   0  0  0  0  0  0
  -29.6941  -11.5623   17.4981 H   0  0  0  0  0  0
  -29.7003  -13.2851   17.6896 H   0  0  0  0  0  0
  -27.7672  -11.2718   18.8380 H   0  0  0  0  0  0
  -27.3729  -12.5811   17.7658 H   0  0  0  0  0  0
  -27.6498  -14.2324   19.4721 H   0  0  0  0  0  0
  -28.6566  -12.1265   21.4525 H   0  0  0  0  0  0
  -28.5279  -13.8515   21.7381 H   0  0  0  0  0  0
  -25.2763   -9.5661   22.4806 H   0  0  0  0  0  0
  -24.0019   -7.4626   22.7493 H   0  0  0  0  0  0
  -21.0858   -8.8757   19.8935 H   0  0  0  0  0  0
  -22.3736  -10.9674   19.6172 H   0  0  0  0  0  0
  -21.1978   -7.6124   23.9734 H   0  0  0  0  0  0
  -21.1569   -6.0507   25.9099 H   0  0  0  0  0  0
  -22.0608   -2.7608   23.2825 H   0  0  0  0  0  0
  -22.3935  -11.9873   22.4836 H   0  0  0  0  0  0
  -21.1009  -13.1275   22.2513 H   0  0  0  0  0  0
  -24.6690  -15.8463   20.5649 H   0  0  0  0  0  0
  -26.2700  -15.6349   20.0699 H   0  0  0  0  0  0
  -26.7124  -32.5556   23.1163 H   0  0  0  0  0  0
  -25.0018  -33.9775   25.0431 H   0  0  0  0  0  0
  -22.6814  -31.3121   21.4176 H   0  0  0  0  0  0
  -23.3748  -35.9642   23.3222 H   0  0  0  0  0  0
  -24.3593  -36.9037   22.2072 H   0  0  0  0  0  0
  -23.7204  -37.6479   23.6722 H   0  0  0  0  0  0
  -26.0240  -31.6085   20.5901 H   0  0  0  0  0  0
  -26.8104  -30.9013   21.9744 H   0  0  0  0  0  0
  -28.0959  -29.1453   21.1262 H   0  0  0  0  0  0
  -26.0309  -26.0025   18.9910 H   0  0  0  0  0  0
  -23.9604  -27.2924   19.0584 H   0  0  0  0  0  0
  -23.6965  -30.5998   19.4077 H   0  0  0  0  0  0
  -22.7198  -29.2457   19.8794 H   0  0  0  0  0  0
  -25.1259  -36.1954   25.0801 H   0  0  0  0  0  0
  -20.9936  -28.3185   24.1464 H   0  0  0  0  0  0
  -20.5671  -26.2225   23.3575 H   0  0  0  0  0  0
  -21.6613  -26.7425   22.1216 H   0  0  0  0  0  0
  -19.6866  -25.6293   21.1234 H   0  0  0  0  0  0
  -19.6628  -27.3215   20.6762 H   0  0  0  0  0  0
  -17.4147  -26.6718   21.4017 H   0  0  0  0  0  0
  -18.0237  -26.0012   22.8971 H   0  0  0  0  0  0
  -19.7896  -30.7237   24.2354 H   0  0  0  0  0  0
  -17.4972  -31.6284   24.5101 H   0  0  0  0  0  0
  -15.5336  -30.2995   23.7596 H   0  0  0  0  0  0
  -15.8642  -28.0768   22.7175 H   0  0  0  0  0  0
  -24.5978  -30.6939   25.7733 H   0  0  0  0  0  0
  -24.8904  -32.2735   26.4917 H   0  0  0  0  0  0
  -25.8125  -30.8751   27.0163 H   0  0  0  0  0  0
  -26.2822  -29.6762   24.1196 H   0  0  0  0  0  0
  -27.4140  -29.7273   25.4516 H   0  0  0  0  0  0
  -27.8630  -30.4317   23.9145 H   0  0  0  0  0  0
  -27.2699  -33.3580   26.2103 H   0  0  0  0  0  0
  -28.3902  -32.6830   25.0372 H   0  0  0  0  0  0
  -28.0685  -31.8371   26.5427 H   0  0  0  0  0  0
  -28.2515  -38.0168   24.7650 H   0  0  0  0  0  0
  -28.1176  -36.2701   24.6091 H   0  0  0  0  0  0
  -27.2312  -37.1226   25.8849 H   0  0  0  0  0  0
  -20.9209  -29.8775   21.7037 H   0  0  0  0  0  0
  -26.0135  -38.2851   24.1545 H   0  0  0  0  0  0
  -26.8230  -18.5223   17.9901 H   0  0  0  0  0  0
  -31.6757  -18.8317   18.0171 H   0  0  0  0  0  0
  -33.7075  -16.6989   16.8895 H   0  0  0  0  0  0
  -34.5699  -15.1876   17.1334 H   0  0  0  0  0  0
  -33.6939  -15.9038   18.4659 H   0  0  0  0  0  0
  -32.6117  -15.3625   14.8347 H   0  0  0  0  0  0
  -31.6637  -13.9216   15.1947 H   0  0  0  0  0  0
  -33.4139  -13.8833   15.3500 H   0  0  0  0  0  0
  -26.7924  -20.8779   17.1169 H   0  0  0  0  0  0
  -28.2817  -21.5031   16.4579 H   0  0  0  0  0  0
  -28.8386  -21.8494   19.1015 H   0  0  0  0  0  0
  -27.1121  -21.9232   19.2306 H   0  0  0  0  0  0
  -27.1122  -23.8824   17.6645 H   0  0  0  0  0  0
  -28.8126  -23.6599   17.3408 H   0  0  0  0  0  0
  -31.1649  -16.5592   16.4881 H   0  0  0  0  0  0
  -30.2341  -15.1656   16.8084 H   0  0  0  0  0  0
  -28.0374  -26.2084   18.0168 H   0  0  0  0  0  0
  -29.6732  -26.0465   18.5354 H   0  0  0  0  0  0
  -31.6736  -16.6557   19.0764 H   0  0  0  0  0  0
  -29.1066  -15.1933   19.3159 H   0  0  0  0  0  0
  1 25  1  0  0  0
  1 30  2  0  0  0
  1 87  1  0  0  0
  2  3  1  0  0  0
  2 25  1  0  0  0
  2 91  1  0  0  0
  2 92  1  0  0  0
  3  4  1  0  0  0
  3 93  1  0  0  0
  3 94  1  0  0  0
  4  5  1  0  0  0
  4 95  1  0  0  0
  4 96  1  0  0  0
  5  6  1  0  0  0
  5 26  1  0  0  0
  5 97  1  0  0  0
  6 25  1  0  0  0
  6 98  1  0  0  0
  6 99  1  0  0  0
  7  8  2  0  0  0
  7 26  1  0  0  0
  7 29  1  0  0  0
  8  9  1  0  0  0
  8 22  1  0  0  0
  9 10  1  0  0  0
  9 27  2  0  0  0
 10 11  2  0  0  0
 10 15  1  0  0  0
 11 12  1  0  0  0
 11100  1  0  0  0
 12 13  2  0  0  0
 12101  1  0  0  0
 13 14  1  0  0  0
 13 31  1  0  0  0
 14 15  2  0  0  0
 14102  1  0  0  0
 15103  1  0  0  0
 16 17  2  0  0  0
 16 21  1  0  0  0
 16 31  1  0  0  0
 17 18  1  0  0  0
 17104  1  0  0  0
 18 19  2  0  0  0
 18105  1  0  0  0
 19 20  1  0  0  0
 19 24  1  0  0  0
 20 21  2  0  0  0
 20106  1  0  0  0
 21 23  1  0  0  0
 22 28  1  0  0  0
 22 32  2  0  0  0
 26 27  1  0  0  0
 28107  1  0  0  0
 28108  1  0  0  0
 29109  1  0  0  0
 29110  1  0  0  0
 33 34  1  0  0  0
 33 66  1  0  0  0
 33 70  2  0  0  0
 34 36  1  0  0  0
 34 59  1  0  0  0
 34111  1  0  0  0
 35 44  2  0  0  0
 35 45  1  0  0  0
 35 68  1  0  0  0
 36 56  1  0  0  0
 36112  1  0  0  0
 37 39  1  0  0  0
 37 47  1  0  0  0
 37 66  1  0  0  0
 37113  1  0  0  0
 38 43  2  0  0  0
 38 46  1  0  0  0
 38 47  1  0  0  0
 39 64  1  0  0  0
 39 67  2  0  0  0
 40 52  1  0  0  0
 40 53  2  0  0  0
 40 58  1  0  0  0
 41114  1  0  0  0
 41115  1  0  0  0
 41116  1  0  0  0
 41 48  1  0  0  0
 42 43  1  0  0  0
 42 66  1  0  0  0
 42117  1  0  0  0
 42118  1  0  0  0
 43 44  1  0  0  0
 44119  1  0  0  0
 45 46  2  0  0  0
 45120  1  0  0  0
 46121  1  0  0  0
 47122  1  0  0  0
 47123  1  0  0  0
 48 56  1  0  0  0
 48 65  1  0  0  0
 48124  1  0  0  0
 49 50  1  0  0  0
 49 53  1  0  0  0
 49 64  1  0  0  0
 49125  1  0  0  0
 50 51  1  0  0  0
 50126  1  0  0  0
 50127  1  0  0  0
 51 52  1  0  0  0
 51128  1  0  0  0
 51129  1  0  0  0
 52130  1  0  0  0
 52131  1  0  0  0
 53 54  1  0  0  0
 54 55  2  0  0  0
 54132  1  0  0  0
 55 57  1  0  0  0
 55133  1  0  0  0
 56 69  2  0  0  0
 57 58  2  0  0  0
 57134  1  0  0  0
 58135  1  0  0  0
 59 60  1  0  0  0
 59 61  1  0  0  0
 59 62  1  0  0  0
 60136  1  0  0  0
 60137  1  0  0  0
 60138  1  0  0  0
 61139  1  0  0  0
 61140  1  0  0  0
 61141  1  0  0  0
 62142  1  0  0  0
 62143  1  0  0  0
 62144  1  0  0  0
 63 65  1  0  0  0
 63145  1  0  0  0
 63146  1  0  0  0
 63147  1  0  0  0
 64148  1  0  0  0
 65149  1  0  0  0
 68 81  1  0  0  0
 71 73  2  0  0  0
 71 86  1  0  0  0
 71150  1  0  0  0
 72 74  1  0  0  0
 72 85  2  0  0  0
 72151  1  0  0  0
 73 77  1  0  0  0
 73 85  1  0  0  0
 74 82  1  0  0  0
 74 86  2  0  0  0
 75152  1  0  0  0
 75153  1  0  0  0
 75154  1  0  0  0
 75 83  1  0  0  0
 76 83  1  0  0  0
 76155  1  0  0  0
 76156  1  0  0  0
 76157  1  0  0  0
 77 78  1  0  0  0
 77158  1  0  0  0
 77159  1  0  0  0
 78 79  1  0  0  0
 78160  1  0  0  0
 78161  1  0  0  0
 79 84  1  0  0  0
 79162  1  0  0  0
 79163  1  0  0  0
 80 83  1  0  0  0
 80164  1  0  0  0
 80165  1  0  0  0
 80 82  1  0  0  0
 81 84  1  0  0  0
 81166  1  0  0  0
 81167  1  0  0  0
 82 87  1  0  0  0
 82168  1  0  0  0
 83 88  1  0  0  0
 84 89  1  0  0  0
 84 90  1  0  0  0
 87169  1  0  0  0
M  ISO  4   1 100  68 101  81 101  87 100
M  END
> <chiral flag>
0

> <version>
0

> <s_m_source_file>
/data/baiqing/PycharmProjects/Reinvent-master-3.2/result/LINK_invent/BTK/process_docking_weight1_custom_sum_contain_oxygen_bond_distance_aromatic_linkinvent_7_9_3/rearranged_h_0067.sdf

> <i_m_source_file_index>
28

> <r_mmod_Potential_Energy-OPLS-2005>
47.1324615478516

> <r_mmod_Stretch_Energy-OPLS-2005>
35.9774436950684

> <r_mmod_Bend_Energy-OPLS-2005>
106.411041259766

> <r_mmod_Torsional_Energy-OPLS-2005>
250.84831237793

> <r_mmod_Improper_Torsional_Energy-OPLS-2005>
18.3908634185791

> <r_mmod_Van_der_Waal_Energy-OPLS-2005>
162.924118041992

> <r_mmod_Electrostatic_Energy-OPLS-2005>
-366.070068359375

> <r_mmod_Solvation_Energy-OPLS-2005>
-209.907974243164

> <b_mmod_Minimization_Converged-OPLS-2005>
0

> <r_mmod_RMS_Derivative-OPLS-2005>
3.58816766738892

$$$$
28
                    3D
 Structure written by MMmdl.
182190  0  0  1  0            999 V2000
  -30.6930  -14.5114   20.5075 C   0  0  0  0  0  0
  -30.4167  -12.3050   19.4392 C   0  0  0  0  0  0
  -29.4950  -12.4735   18.2135 C   0  0  0  0  0  0
  -28.0155  -12.3471   18.6244 C   0  0  0  0  0  0
  -27.6548  -13.2078   19.8651 C   0  0  2  0  0  0
  -28.6992  -13.0371   20.9912 C   0  0  0  0  0  0
  -25.2595  -13.8162   20.5708 C   0  0  0  0  0  0
  -24.1853  -13.0448   20.9185 C   0  0  0  0  0  0
  -24.6395  -11.6900   20.8739 C   0  0  0  0  0  0
  -23.9062  -10.4290   21.0408 C   0  0  0  0  0  0
  -24.3608   -9.4207   21.9194 C   0  0  0  0  0  0
  -23.6282   -8.2246   22.0766 C   0  0  0  0  0  0
  -22.4263   -8.0281   21.3546 C   0  0  0  0  0  0
  -21.9898   -9.0256   20.4651 C   0  0  0  0  0  0
  -22.7227  -10.2136   20.3065 C   0  0  0  0  0  0
  -21.6850   -6.0734   22.5281 C   0  0  0  0  0  0
  -21.4006   -6.5640   23.8213 C   0  0  0  0  0  0
  -21.3666   -5.6803   24.9178 C   0  0  0  0  0  0
  -21.6048   -4.3066   24.7236 C   0  0  0  0  0  0
  -21.8818   -3.8149   23.4359 C   0  0  0  0  0  0
  -21.9198   -4.6962   22.3408 C   0  0  0  0  0  0
  -22.7877  -13.5251   21.1853 C   0  0  0  0  0  0
  -22.1665   -4.2151   21.0985 F   0  0  0  0  0  0
  -21.5639   -3.4552   25.7751 F   0  0  0  0  0  0
  -30.0230  -13.3273   20.4228 N   0  0  0  0  0  0
  -26.3006  -12.9327   20.3349 N   0  0  0  0  0  0
  -25.9323  -11.6475   20.5784 N   0  0  0  0  0  0
  -22.0515  -12.8235   22.0400 N   0  0  0  0  0  0
  -25.4371  -15.1881   20.4109 N   0  0  0  0  0  0
  -31.8704  -14.6198   20.1521 O   0  0  0  0  0  0
  -21.6632   -6.8868   21.4234 O   0  0  0  0  0  0
  -22.3559  -14.5567   20.6712 O   0  0  0  0  0  0
  -24.6160  -31.8668   23.2088 C   0  0  0  0  0  0
  -25.9061  -32.4816   23.8374 C   0  0  1  0  0  0
  -27.2328  -27.4203   20.0911 C   0  0  0  0  0  0
  -25.5907  -33.8615   24.2311 N   0  0  0  0  0  0
  -23.4032  -30.4914   21.5490 C   0  0  2  0  0  0
  -24.8501  -28.9599   20.1052 C   0  0  0  0  0  0
  -22.7405  -29.4660   22.4978 C   0  0  0  0  0  0
  -18.0265  -28.1387   22.8496 C   0  0  0  0  0  0
  -24.1478  -36.7313   23.2636 C   0  0  0  0  0  0
  -25.9331  -30.8269   21.3658 C   0  0  0  0  0  0
  -26.0080  -29.4603   20.7122 C   0  0  0  0  0  0
  -27.1963  -28.6917   20.7142 C   0  0  0  0  0  0
  -26.0571  -26.9421   19.4738 C   0  0  0  0  0  0
  -24.8703  -27.6996   19.4842 C   0  0  0  0  0  0
  -23.6105  -29.8259   20.1619 C   0  0  0  0  0  0
  -25.4104  -36.3117   24.0339 C   0  0  1  0  0  0
  -20.5853  -28.3678   23.1315 C   0  0  2  0  0  0
  -20.6757  -26.9407   22.5435 C   0  0  0  0  0  0
  -19.5736  -26.6392   21.5227 C   0  0  0  0  0  0
  -18.1910  -26.7937   22.1621 C   0  0  0  0  0  0
  -19.1513  -28.8851   23.2901 C   0  0  0  0  0  0
  -18.9444  -30.1452   23.8921 C   0  0  0  0  0  0
  -17.6449  -30.6593   24.0570 C   0  0  0  0  0  0
  -25.9042  -34.9484   23.5129 C   0  0  0  0  0  0
  -16.5339  -29.9097   23.6327 C   0  0  0  0  0  0
  -16.7257  -28.6510   23.0357 C   0  0  0  0  0  0
  -26.4491  -31.6600   25.0708 C   0  0  0  0  0  0
  -25.3756  -31.3729   26.1458 C   0  0  0  0  0  0
  -27.0305  -30.3020   24.6120 C   0  0  0  0  0  0
  -27.6055  -32.4336   25.7477 C   0  0  0  0  0  0
  -27.5594  -37.1787   24.8450 C   0  0  0  0  0  0
  -21.4133  -29.3035   22.3712 N   0  0  0  0  0  0
  -26.4288  -37.3809   23.9426 N   0  0  0  0  0  0
  -24.6685  -31.0760   22.0995 N   0  0  0  0  0  0
  -23.4166  -28.8215   23.3042 O   0  0  0  0  0  0
  -28.3782  -26.6515   20.1786 O   0  0  0  0  0  0
  -26.5611  -34.8941   22.4694 O   0  0  0  0  0  0
  -23.5356  -32.1435   23.7480 O   0  0  0  0  0  0
  -32.2364  -18.3891   22.6042 C   0  0  0  0  0  0
  -30.4901  -17.4471   21.9898 C   0  0  0  0  0  0
  -33.5995  -18.6169   23.1571 C   0  0  0  0  0  0
  -30.3267  -24.3196   22.7999 C   0  0  0  0  0  0
  -31.9188  -23.2186   21.2010 C   0  0  0  0  0  0
  -31.2502  -25.5443   20.8914 C   0  0  0  0  0  0
  -27.5215  -23.8007   18.7661 C   0  0  0  0  0  0
  -29.8971  -23.8734   18.0097 C   0  0  0  0  0  0
  -29.9504  -16.4359   19.2415 C   0  0  0  0  0  0
  -29.4813  -16.3683   21.6529 C   0  0  0  0  0  0
  -29.1828  -21.1274   21.6441 C   0  0  0  0  0  0
  -29.4258  -22.0263   20.3926 C   0  0  0  0  0  0
  -29.1747  -19.5824   21.3386 C   0  0  0  0  0  0
  -28.8404  -25.8922   19.0500 C   0  0  0  0  0  0
  -29.4063  -23.6187   20.5232 C   0  0  1  0  0  0
  -30.6960  -24.1629   21.3066 C   0  0  0  0  0  0
  -28.9422  -24.3110   19.1454 C   0  0  0  0  0  0
  -31.6869  -17.1477   22.4922 N   0  0  0  0  0  0
  -31.4683  -19.3965   22.2028 N   0  0  0  0  0  0
  -30.3109  -18.7850   21.8389 N   0  0  0  0  0  0
  -29.8933  -15.6084   20.4544 N   0  0  0  0  0  0
  -31.4621  -12.3879   19.1379 H   0  0  0  0  0  0
  -30.3069  -11.3054   19.8643 H   0  0  0  0  0  0
  -29.7295  -11.7232   17.4570 H   0  0  0  0  0  0
  -29.6710  -13.4426   17.7471 H   0  0  0  0  0  0
  -27.8227  -11.2942   18.8359 H   0  0  0  0  0  0
  -27.3711  -12.6086   17.7859 H   0  0  0  0  0  0
  -27.6809  -14.2459   19.5369 H   0  0  0  0  0  0
  -28.6793  -12.0213   21.3852 H   0  0  0  0  0  0
  -28.4698  -13.6898   21.8334 H   0  0  0  0  0  0
  -25.2749   -9.5683   22.4778 H   0  0  0  0  0  0
  -23.9998   -7.4626   22.7476 H   0  0  0  0  0  0
  -21.0846   -8.8765   19.8939 H   0  0  0  0  0  0
  -22.3689  -10.9677   19.6179 H   0  0  0  0  0  0
  -21.1979   -7.6144   23.9711 H   0  0  0  0  0  0
  -21.1485   -6.0536   25.9081 H   0  0  0  0  0  0
  -22.0586   -2.7614   23.2867 H   0  0  0  0  0  0
  -22.4134  -11.9885   22.4762 H   0  0  0  0  0  0
  -21.1144  -13.1261   22.2614 H   0  0  0  0  0  0
  -24.6751  -15.8492   20.5099 H   0  0  0  0  0  0
  -26.2908  -15.6137   20.0746 H   0  0  0  0  0  0
  -26.7128  -32.5531   23.1129 H   0  0  0  0  0  0
  -25.0061  -33.9761   25.0460 H   0  0  0  0  0  0
  -22.6931  -31.3093   21.4121 H   0  0  0  0  0  0
  -23.3760  -35.9621   23.3266 H   0  0  0  0  0  0
  -24.3585  -36.8963   22.2055 H   0  0  0  0  0  0
  -23.7185  -37.6493   23.6665 H   0  0  0  0  0  0
  -26.0495  -31.5924   20.5978 H   0  0  0  0  0  0
  -26.8189  -30.8762   21.9884 H   0  0  0  0  0  0
  -28.0855  -29.0666   21.2015 H   0  0  0  0  0  0
  -26.0308  -25.9726   19.0078 H   0  0  0  0  0  0
  -23.9785  -27.3042   19.0176 H   0  0  0  0  0  0
  -23.7134  -30.6024   19.4028 H   0  0  0  0  0  0
  -22.7337  -29.2453   19.8700 H   0  0  0  0  0  0
  -25.1274  -36.1975   25.0830 H   0  0  0  0  0  0
  -20.9947  -28.3260   24.1431 H   0  0  0  0  0  0
  -20.5654  -26.2295   23.3630 H   0  0  0  0  0  0
  -21.6631  -26.7448   22.1219 H   0  0  0  0  0  0
  -19.6893  -25.6303   21.1250 H   0  0  0  0  0  0
  -19.6687  -27.3217   20.6763 H   0  0  0  0  0  0
  -17.4190  -26.6709   21.4005 H   0  0  0  0  0  0
  -18.0282  -26.0066   22.8998 H   0  0  0  0  0  0
  -19.7923  -30.7257   24.2292 H   0  0  0  0  0  0
  -17.5009  -31.6276   24.5173 H   0  0  0  0  0  0
  -15.5341  -30.3014   23.7645 H   0  0  0  0  0  0
  -15.8656  -28.0848   22.7064 H   0  0  0  0  0  0
  -24.5932  -30.7066   25.7804 H   0  0  0  0  0  0
  -24.8956  -32.2897   26.4887 H   0  0  0  0  0  0
  -25.8115  -30.8916   27.0222 H   0  0  0  0  0  0
  -26.2838  -29.6783   24.1187 H   0  0  0  0  0  0
  -27.4041  -29.7266   25.4604 H   0  0  0  0  0  0
  -27.8700  -30.4295   23.9282 H   0  0  0  0  0  0
  -27.2646  -33.3614   26.2087 H   0  0  0  0  0  0
  -28.3848  -32.6939   25.0300 H   0  0  0  0  0  0
  -28.0745  -31.8450   26.5375 H   0  0  0  0  0  0
  -28.2573  -38.0125   24.7584 H   0  0  0  0  0  0
  -28.1129  -36.2667   24.6160 H   0  0  0  0  0  0
  -27.2335  -37.1300   25.8856 H   0  0  0  0  0  0
  -20.9295  -29.8764   21.6939 H   0  0  0  0  0  0
  -26.0182  -38.2876   24.1489 H   0  0  0  0  0  0
  -34.3513  -18.1596   22.5150 H   0  0  0  0  0  0
  -33.6781  -18.1727   24.1495 H   0  0  0  0  0  0
  -33.8174  -19.6821   23.2425 H   0  0  0  0  0  0
  -31.1660  -24.6909   23.3904 H   0  0  0  0  0  0
  -30.0059  -23.3860   23.2555 H   0  0  0  0  0  0
  -29.5119  -25.0341   22.9274 H   0  0  0  0  0  0
  -32.7870  -23.6161   21.7286 H   0  0  0  0  0  0
  -32.2153  -23.0725   20.1622 H   0  0  0  0  0  0
  -31.7409  -22.2388   21.6389 H   0  0  0  0  0  0
  -32.1246  -25.8107   21.4884 H   0  0  0  0  0  0
  -30.5484  -26.3553   21.0651 H   0  0  0  0  0  0
  -31.5874  -25.5683   19.8562 H   0  0  0  0  0  0
  -27.1070  -24.3441   17.9171 H   0  0  0  0  0  0
  -26.8255  -23.9071   19.5974 H   0  0  0  0  0  0
  -27.4888  -22.7644   18.4395 H   0  0  0  0  0  0
  -29.6144  -24.3241   17.0570 H   0  0  0  0  0  0
  -29.8974  -22.7950   17.8552 H   0  0  0  0  0  0
  -30.9251  -24.1699   18.2123 H   0  0  0  0  0  0
  -29.0431  -17.0309   19.1263 H   0  0  0  0  0  0
  -30.0527  -15.8252   18.3423 H   0  0  0  0  0  0
  -30.8023  -17.1175   19.2719 H   0  0  0  0  0  0
  -28.4950  -16.8025   21.4967 H   0  0  0  0  0  0
  -29.3917  -15.7031   22.5138 H   0  0  0  0  0  0
  -28.2022  -21.3943   22.0406 H   0  0  0  0  0  0
  -29.8698  -21.3588   22.4532 H   0  0  0  0  0  0
  -28.6583  -21.6955   19.7047 H   0  0  0  0  0  0
  -30.3407  -21.7002   19.8990 H   0  0  0  0  0  0
  -29.0930  -19.4065   20.2659 H   0  0  0  0  0  0
  -28.2717  -19.1563   21.7758 H   0  0  0  0  0  0
  -28.2778  -26.1767   18.1602 H   0  0  0  0  0  0
  -29.8211  -26.3027   18.8177 H   0  0  0  0  0  0
  -28.5622  -23.8409   21.1777 H   0  0  0  0  0  0
  1 25  1  0  0  0
  1 30  2  0  0  0
  1 91  1  0  0  0
  2  3  1  0  0  0
  2 25  1  0  0  0
  2 92  1  0  0  0
  2 93  1  0  0  0
  3  4  1  0  0  0
  3 94  1  0  0  0
  3 95  1  0  0  0
  4  5  1  0  0  0
  4 96  1  0  0  0
  4 97  1  0  0  0
  5  6  1  0  0  0
  5 26  1  0  0  0
  5 98  1  0  0  0
  6 25  1  0  0  0
  6 99  1  0  0  0
  6100  1  0  0  0
  7  8  2  0  0  0
  7 26  1  0  0  0
  7 29  1  0  0  0
  8  9  1  0  0  0
  8 22  1  0  0  0
  9 10  1  0  0  0
  9 27  2  0  0  0
 10 11  2  0  0  0
 10 15  1  0  0  0
 11 12  1  0  0  0
 11101  1  0  0  0
 12 13  2  0  0  0
 12102  1  0  0  0
 13 14  1  0  0  0
 13 31  1  0  0  0
 14 15  2  0  0  0
 14103  1  0  0  0
 15104  1  0  0  0
 16 17  2  0  0  0
 16 21  1  0  0  0
 16 31  1  0  0  0
 17 18  1  0  0  0
 17105  1  0  0  0
 18 19  2  0  0  0
 18106  1  0  0  0
 19 20  1  0  0  0
 19 24  1  0  0  0
 20 21  2  0  0  0
 20107  1  0  0  0
 21 23  1  0  0  0
 22 28  1  0  0  0
 22 32  2  0  0  0
 26 27  1  0  0  0
 28108  1  0  0  0
 28109  1  0  0  0
 29110  1  0  0  0
 29111  1  0  0  0
 33 34  1  0  0  0
 33 66  1  0  0  0
 33 70  2  0  0  0
 34 36  1  0  0  0
 34 59  1  0  0  0
 34112  1  0  0  0
 35 44  2  0  0  0
 35 45  1  0  0  0
 35 68  1  0  0  0
 36 56  1  0  0  0
 36113  1  0  0  0
 37 39  1  0  0  0
 37 47  1  0  0  0
 37 66  1  0  0  0
 37114  1  0  0  0
 38 43  2  0  0  0
 38 46  1  0  0  0
 38 47  1  0  0  0
 39 64  1  0  0  0
 39 67  2  0  0  0
 40 52  1  0  0  0
 40 53  2  0  0  0
 40 58  1  0  0  0
 41115  1  0  0  0
 41116  1  0  0  0
 41117  1  0  0  0
 41 48  1  0  0  0
 42 43  1  0  0  0
 42 66  1  0  0  0
 42118  1  0  0  0
 42119  1  0  0  0
 43 44  1  0  0  0
 44120  1  0  0  0
 45 46  2  0  0  0
 45121  1  0  0  0
 46122  1  0  0  0
 47123  1  0  0  0
 47124  1  0  0  0
 48 56  1  0  0  0
 48 65  1  0  0  0
 48125  1  0  0  0
 49 50  1  0  0  0
 49 53  1  0  0  0
 49 64  1  0  0  0
 49126  1  0  0  0
 50 51  1  0  0  0
 50127  1  0  0  0
 50128  1  0  0  0
 51 52  1  0  0  0
 51129  1  0  0  0
 51130  1  0  0  0
 52131  1  0  0  0
 52132  1  0  0  0
 53 54  1  0  0  0
 54 55  2  0  0  0
 54133  1  0  0  0
 55 57  1  0  0  0
 55134  1  0  0  0
 56 69  2  0  0  0
 57 58  2  0  0  0
 57135  1  0  0  0
 58136  1  0  0  0
 59 60  1  0  0  0
 59 61  1  0  0  0
 59 62  1  0  0  0
 60137  1  0  0  0
 60138  1  0  0  0
 60139  1  0  0  0
 61140  1  0  0  0
 61141  1  0  0  0
 61142  1  0  0  0
 62143  1  0  0  0
 62144  1  0  0  0
 62145  1  0  0  0
 63 65  1  0  0  0
 63146  1  0  0  0
 63147  1  0  0  0
 63148  1  0  0  0
 64149  1  0  0  0
 65150  1  0  0  0
 68 84  1  0  0  0
 71 73  1  0  0  0
 71 88  1  0  0  0
 71 89  2  0  0  0
 72 80  1  0  0  0
 72 88  2  0  0  0
 72 90  1  0  0  0
 73151  1  0  0  0
 73152  1  0  0  0
 73153  1  0  0  0
 74154  1  0  0  0
 74155  1  0  0  0
 74156  1  0  0  0
 74 86  1  0  0  0
 75 86  1  0  0  0
 75157  1  0  0  0
 75158  1  0  0  0
 75159  1  0  0  0
 76 86  1  0  0  0
 76160  1  0  0  0
 76161  1  0  0  0
 76162  1  0  0  0
 77163  1  0  0  0
 77164  1  0  0  0
 77165  1  0  0  0
 77 87  1  0  0  0
 78 87  1  0  0  0
 78166  1  0  0  0
 78167  1  0  0  0
 78168  1  0  0  0
 79 91  1  0  0  0
 79169  1  0  0  0
 79170  1  0  0  0
 79171  1  0  0  0
 80 91  1  0  0  0
 80172  1  0  0  0
 80173  1  0  0  0
 81 82  1  0  0  0
 81 83  1  0  0  0
 81174  1  0  0  0
 81175  1  0  0  0
 82176  1  0  0  0
 82177  1  0  0  0
 82 85  1  0  0  0
 83 90  1  0  0  0
 83178  1  0  0  0
 83179  1  0  0  0
 84 87  1  0  0  0
 84180  1  0  0  0
 84181  1  0  0  0
 85 86  1  0  0  0
 85 87  1  0  0  0
 85182  1  0  0  0
 89 90  1  0  0  0
M  ISO  4   1 100  68 101  84 101  91 100
M  END
> <chiral flag>
0

> <version>
0

> <s_m_source_file>
/data/baiqing/PycharmProjects/Reinvent-master-3.2/result/LINK_invent/BTK/process_docking_weight1_custom_sum_contain_oxygen_bond_distance_aromatic_linkinvent_7_9_3/rearranged_h_0067.sdf

> <i_m_source_file_index>
29

> <r_mmod_Potential_Energy-OPLS-2005>
177.980316162109

> <r_mmod_Stretch_Energy-OPLS-2005>
65.8583679199219

> <r_mmod_Bend_Energy-OPLS-2005>
173.923690795898

> <r_mmod_Torsional_Energy-OPLS-2005>
346.569274902344

> <r_mmod_Improper_Torsional_Energy-OPLS-2005>
20.311653137207

> <r_mmod_Van_der_Waal_Energy-OPLS-2005>
146.977966308594

> <r_mmod_Electrostatic_Energy-OPLS-2005>
-395.234039306641

> <r_mmod_Solvation_Energy-OPLS-2005>
-202.777587890625

> <b_mmod_Minimization_Converged-OPLS-2005>
0

> <r_mmod_RMS_Derivative-OPLS-2005>
2.48742747306824

$$$$
29
                    3D
 Structure written by MMmdl.
176184  0  0  1  0            999 V2000
  -30.7034  -14.5071   20.5950 C   0  0  0  0  0  0
  -30.4226  -12.3413   19.4199 C   0  0  0  0  0  0
  -29.4921  -12.5110   18.2025 C   0  0  0  0  0  0
  -28.0143  -12.3630   18.6172 C   0  0  0  0  0  0
  -27.6559  -13.2120   19.8662 C   0  0  2  0  0  0
  -28.6999  -13.0165   20.9863 C   0  0  0  0  0  0
  -25.2576  -13.8176   20.5685 C   0  0  0  0  0  0
  -24.1835  -13.0442   20.9184 C   0  0  0  0  0  0
  -24.6392  -11.6911   20.8730 C   0  0  0  0  0  0
  -23.9061  -10.4295   21.0399 C   0  0  0  0  0  0
  -24.3614   -9.4208   21.9178 C   0  0  0  0  0  0
  -23.6289   -8.2245   22.0752 C   0  0  0  0  0  0
  -22.4268   -8.0279   21.3547 C   0  0  0  0  0  0
  -21.9905   -9.0249   20.4646 C   0  0  0  0  0  0
  -22.7233  -10.2131   20.3047 C   0  0  0  0  0  0
  -21.6854   -6.0737   22.5280 C   0  0  0  0  0  0
  -21.4014   -6.5641   23.8216 C   0  0  0  0  0  0
  -21.3657   -5.6792   24.9180 C   0  0  0  0  0  0
  -21.6045   -4.3058   24.7228 C   0  0  0  0  0  0
  -21.8820   -3.8147   23.4349 C   0  0  0  0  0  0
  -21.9192   -4.6962   22.3403 C   0  0  0  0  0  0
  -22.7857  -13.5235   21.1847 C   0  0  0  0  0  0
  -22.1663   -4.2147   21.0982 F   0  0  0  0  0  0
  -21.5625   -3.4538   25.7742 F   0  0  0  0  0  0
  -30.0213  -13.3391   20.4250 N   0  0  0  0  0  0
  -26.2998  -12.9348   20.3334 N   0  0  0  0  0  0
  -25.9318  -11.6504   20.5746 N   0  0  0  0  0  0
  -22.0500  -12.8217   22.0404 N   0  0  0  0  0  0
  -25.4301  -15.1893   20.4112 N   0  0  0  0  0  0
  -31.8330  -14.6883   20.1344 O   0  0  0  0  0  0
  -21.6638   -6.8870   21.4239 O   0  0  0  0  0  0
  -22.3533  -14.5537   20.6696 O   0  0  0  0  0  0
  -24.6130  -31.8651   23.2081 C   0  0  0  0  0  0
  -25.9001  -32.4807   23.8390 C   0  0  1  0  0  0
  -27.2371  -27.4097   20.1092 C   0  0  0  0  0  0
  -25.5839  -33.8607   24.2313 N   0  0  0  0  0  0
  -23.4061  -30.4838   21.5499 C   0  0  2  0  0  0
  -24.8546  -28.9454   20.1176 C   0  0  0  0  0  0
  -22.7426  -29.4605   22.5005 C   0  0  0  0  0  0
  -18.0280  -28.1354   22.8490 C   0  0  0  0  0  0
  -24.1490  -36.7342   23.2641 C   0  0  0  0  0  0
  -25.9351  -30.8254   21.3635 C   0  0  0  0  0  0
  -26.0161  -29.4570   20.7113 C   0  0  0  0  0  0
  -27.2139  -28.7002   20.6936 C   0  0  0  0  0  0
  -26.0579  -26.9159   19.5113 C   0  0  0  0  0  0
  -24.8718  -27.6755   19.5121 C   0  0  0  0  0  0
  -23.6151  -29.8117   20.1668 C   0  0  0  0  0  0
  -25.4105  -36.3106   24.0329 C   0  0  1  0  0  0
  -20.5862  -28.3630   23.1323 C   0  0  2  0  0  0
  -20.6773  -26.9371   22.5420 C   0  0  0  0  0  0
  -19.5762  -26.6371   21.5207 C   0  0  0  0  0  0
  -18.1934  -26.7900   22.1613 C   0  0  0  0  0  0
  -19.1522  -28.8816   23.2899 C   0  0  0  0  0  0
  -18.9446  -30.1423   23.8898 C   0  0  0  0  0  0
  -17.6445  -30.6559   24.0543 C   0  0  0  0  0  0
  -25.9023  -34.9468   23.5131 C   0  0  0  0  0  0
  -16.5339  -29.9052   23.6329 C   0  0  0  0  0  0
  -16.7267  -28.6470   23.0344 C   0  0  0  0  0  0
  -26.4437  -31.6578   25.0710 C   0  0  0  0  0  0
  -25.3704  -31.3635   26.1451 C   0  0  0  0  0  0
  -27.0249  -30.3021   24.6058 C   0  0  0  0  0  0
  -27.6044  -32.4281   25.7437 C   0  0  0  0  0  0
  -27.5595  -37.1808   24.8452 C   0  0  0  0  0  0
  -21.4149  -29.2977   22.3721 N   0  0  0  0  0  0
  -26.4311  -37.3778   23.9386 N   0  0  0  0  0  0
  -24.6697  -31.0731   22.0994 N   0  0  0  0  0  0
  -23.4189  -28.8154   23.3063 O   0  0  0  0  0  0
  -28.4011  -26.6629   20.0894 O   0  0  0  0  0  0
  -26.5622  -34.8915   22.4719 O   0  0  0  0  0  0
  -23.5309  -32.1398   23.7456 O   0  0  0  0  0  0
  -27.4207  -20.5815   22.3328 C   0  0  0  0  0  0
  -27.7049  -19.4350   23.0765 C   0  0  0  0  0  0
  -28.2587  -20.8594   21.2552 C   0  0  0  0  0  0
  -29.4492  -18.9204   21.6717 C   0  0  0  0  0  0
  -27.7761  -19.0456   25.5736 C   0  0  0  0  0  0
  -26.1292  -17.7536   24.1168 C   0  0  0  0  0  0
  -33.5676  -20.6115   22.7619 C   0  0  0  0  0  0
  -32.6228  -20.4413   20.4351 C   0  0  0  0  0  0
  -28.8183  -24.2305   19.6089 C   0  0  0  0  0  0
  -31.9276  -18.7606   22.2593 C   0  0  0  0  0  0
  -30.7001  -16.5848   22.0215 C   0  0  0  0  0  0
  -28.3419  -25.3146   20.6169 C   0  0  0  0  0  0
  -29.1907  -22.8294   20.2000 C   0  0  0  0  0  0
  -26.8984  -19.0672   24.3122 C   0  0  0  0  0  0
  -30.7457  -18.0839   21.4945 C   0  0  1  0  0  0
  -32.3385  -20.2163   21.9286 C   0  0  0  0  0  0
  -28.7266  -18.6272   22.7481 N   0  0  0  0  0  0
  -29.2464  -20.0019   20.8946 N   0  0  0  0  0  0
  -30.0533  -15.4924   21.2541 N   0  0  0  0  0  0
  -28.0506  -22.0423   20.5598 O   0  0  0  0  0  0
  -31.3872  -21.0618   22.3181 F   0  0  0  0  0  0
  -31.4663  -12.4463   19.1174 H   0  0  0  0  0  0
  -30.3336  -11.3352   19.8336 H   0  0  0  0  0  0
  -29.7412  -11.7807   17.4311 H   0  0  0  0  0  0
  -29.6494  -13.4932   17.7542 H   0  0  0  0  0  0
  -27.8297  -11.3073   18.8191 H   0  0  0  0  0  0
  -27.3626  -12.6275   17.7840 H   0  0  0  0  0  0
  -27.6920  -14.2566   19.5562 H   0  0  0  0  0  0
  -28.6912  -11.9830   21.3363 H   0  0  0  0  0  0
  -28.4526  -13.6201   21.8604 H   0  0  0  0  0  0
  -25.2756   -9.5691   22.4757 H   0  0  0  0  0  0
  -24.0003   -7.4635   22.7472 H   0  0  0  0  0  0
  -21.0840   -8.8759   19.8950 H   0  0  0  0  0  0
  -22.3681  -10.9667   19.6158 H   0  0  0  0  0  0
  -21.2006   -7.6150   23.9719 H   0  0  0  0  0  0
  -21.1480   -6.0526   25.9085 H   0  0  0  0  0  0
  -22.0599   -2.7608   23.2852 H   0  0  0  0  0  0
  -22.4117  -11.9867   22.4773 H   0  0  0  0  0  0
  -21.1117  -13.1232   22.2608 H   0  0  0  0  0  0
  -24.6662  -15.8461   20.5242 H   0  0  0  0  0  0
  -26.2863  -15.6287   20.0978 H   0  0  0  0  0  0
  -26.7068  -32.5504   23.1159 H   0  0  0  0  0  0
  -24.9873  -33.9770   25.0377 H   0  0  0  0  0  0
  -22.6945  -31.2994   21.4112 H   0  0  0  0  0  0
  -23.3735  -35.9695   23.3294 H   0  0  0  0  0  0
  -24.3599  -36.8985   22.2069 H   0  0  0  0  0  0
  -23.7289  -37.6556   23.6675 H   0  0  0  0  0  0
  -26.0478  -31.5906   20.5948 H   0  0  0  0  0  0
  -26.8224  -30.8826   21.9812 H   0  0  0  0  0  0
  -28.1137  -29.0946   21.1447 H   0  0  0  0  0  0
  -26.0594  -25.9434   19.0385 H   0  0  0  0  0  0
  -23.9767  -27.2806   19.0508 H   0  0  0  0  0  0
  -23.7148  -30.5861   19.4041 H   0  0  0  0  0  0
  -22.7393  -29.2252   19.8787 H   0  0  0  0  0  0
  -25.1293  -36.1983   25.0820 H   0  0  0  0  0  0
  -20.9954  -28.3190   24.1441 H   0  0  0  0  0  0
  -20.5690  -26.2223   23.3593 H   0  0  0  0  0  0
  -21.6642  -26.7417   22.1203 H   0  0  0  0  0  0
  -19.6918  -25.6288   21.1220 H   0  0  0  0  0  0
  -19.6711  -27.3196   20.6744 H   0  0  0  0  0  0
  -17.4215  -26.6643   21.4006 H   0  0  0  0  0  0
  -18.0323  -26.0037   22.8999 H   0  0  0  0  0  0
  -19.7912  -30.7241   24.2277 H   0  0  0  0  0  0
  -17.4986  -31.6245   24.5126 H   0  0  0  0  0  0
  -15.5325  -30.2935   23.7662 H   0  0  0  0  0  0
  -15.8668  -28.0786   22.7050 H   0  0  0  0  0  0
  -24.5904  -30.6945   25.7775 H   0  0  0  0  0  0
  -24.8841  -32.2746   26.4926 H   0  0  0  0  0  0
  -25.8060  -30.8795   27.0196 H   0  0  0  0  0  0
  -26.2754  -29.6778   24.1169 H   0  0  0  0  0  0
  -27.4074  -29.7249   25.4487 H   0  0  0  0  0  0
  -27.8584  -30.4345   23.9155 H   0  0  0  0  0  0
  -27.2715  -33.3589   26.2026 H   0  0  0  0  0  0
  -28.3829  -32.6813   25.0226 H   0  0  0  0  0  0
  -28.0725  -31.8394   26.5329 H   0  0  0  0  0  0
  -28.2590  -38.0128   24.7513 H   0  0  0  0  0  0
  -28.1126  -36.2654   24.6269 H   0  0  0  0  0  0
  -27.2308  -37.1449   25.8856 H   0  0  0  0  0  0
  -20.9320  -29.8695   21.6928 H   0  0  0  0  0  0
  -26.0205  -38.2859   24.1370 H   0  0  0  0  0  0
  -26.6177  -21.2530   22.6046 H   0  0  0  0  0  0
  -28.2802  -20.0019   25.7133 H   0  0  0  0  0  0
  -28.5448  -18.2744   25.5078 H   0  0  0  0  0  0
  -27.1806  -18.8468   26.4641 H   0  0  0  0  0  0
  -25.4597  -17.8208   23.2594 H   0  0  0  0  0  0
  -25.5275  -17.5181   24.9934 H   0  0  0  0  0  0
  -26.8096  -16.9200   23.9407 H   0  0  0  0  0  0
  -34.4294  -19.9883   22.5230 H   0  0  0  0  0  0
  -33.3707  -20.5079   23.8298 H   0  0  0  0  0  0
  -33.8513  -21.6496   22.5840 H   0  0  0  0  0  0
  -33.4206  -19.7880   20.0796 H   0  0  0  0  0  0
  -32.9346  -21.4696   20.2480 H   0  0  0  0  0  0
  -31.7438  -20.2582   19.8180 H   0  0  0  0  0  0
  -29.7148  -24.6198   19.1270 H   0  0  0  0  0  0
  -28.0855  -24.1145   18.8105 H   0  0  0  0  0  0
  -32.8176  -18.1450   22.1258 H   0  0  0  0  0  0
  -31.6981  -18.7158   23.3256 H   0  0  0  0  0  0
  -30.2630  -16.5713   23.0201 H   0  0  0  0  0  0
  -31.7243  -16.2528   22.1955 H   0  0  0  0  0  0
  -29.0109  -25.3025   21.4791 H   0  0  0  0  0  0
  -27.3569  -25.0616   21.0105 H   0  0  0  0  0  0
  -29.8342  -22.9556   21.0725 H   0  0  0  0  0  0
  -29.7679  -22.2720   19.4614 H   0  0  0  0  0  0
  -26.1561  -19.8525   24.4589 H   0  0  0  0  0  0
  -30.9909  -18.0597   20.4327 H   0  0  0  0  0  0
  -29.0950  -15.2900   21.4973 H   0  0  0  0  0  0
  1 25  1  0  0  0
  1 30  2  0  0  0
  1 89  1  0  0  0
  2  3  1  0  0  0
  2 25  1  0  0  0
  2 92  1  0  0  0
  2 93  1  0  0  0
  3  4  1  0  0  0
  3 94  1  0  0  0
  3 95  1  0  0  0
  4  5  1  0  0  0
  4 96  1  0  0  0
  4 97  1  0  0  0
  5  6  1  0  0  0
  5 26  1  0  0  0
  5 98  1  0  0  0
  6 25  1  0  0  0
  6 99  1  0  0  0
  6100  1  0  0  0
  7  8  2  0  0  0
  7 26  1  0  0  0
  7 29  1  0  0  0
  8  9  1  0  0  0
  8 22  1  0  0  0
  9 10  1  0  0  0
  9 27  2  0  0  0
 10 11  2  0  0  0
 10 15  1  0  0  0
 11 12  1  0  0  0
 11101  1  0  0  0
 12 13  2  0  0  0
 12102  1  0  0  0
 13 14  1  0  0  0
 13 31  1  0  0  0
 14 15  2  0  0  0
 14103  1  0  0  0
 15104  1  0  0  0
 16 17  2  0  0  0
 16 21  1  0  0  0
 16 31  1  0  0  0
 17 18  1  0  0  0
 17105  1  0  0  0
 18 19  2  0  0  0
 18106  1  0  0  0
 19 20  1  0  0  0
 19 24  1  0  0  0
 20 21  2  0  0  0
 20107  1  0  0  0
 21 23  1  0  0  0
 22 28  1  0  0  0
 22 32  2  0  0  0
 26 27  1  0  0  0
 28108  1  0  0  0
 28109  1  0  0  0
 29110  1  0  0  0
 29111  1  0  0  0
 33 34  1  0  0  0
 33 66  1  0  0  0
 33 70  2  0  0  0
 34 36  1  0  0  0
 34 59  1  0  0  0
 34112  1  0  0  0
 35 44  2  0  0  0
 35 45  1  0  0  0
 35 68  1  0  0  0
 36 56  1  0  0  0
 36113  1  0  0  0
 37 39  1  0  0  0
 37 47  1  0  0  0
 37 66  1  0  0  0
 37114  1  0  0  0
 38 43  2  0  0  0
 38 46  1  0  0  0
 38 47  1  0  0  0
 39 64  1  0  0  0
 39 67  2  0  0  0
 40 52  1  0  0  0
 40 53  2  0  0  0
 40 58  1  0  0  0
 41115  1  0  0  0
 41116  1  0  0  0
 41117  1  0  0  0
 41 48  1  0  0  0
 42 43  1  0  0  0
 42 66  1  0  0  0
 42118  1  0  0  0
 42119  1  0  0  0
 43 44  1  0  0  0
 44120  1  0  0  0
 45 46  2  0  0  0
 45121  1  0  0  0
 46122  1  0  0  0
 47123  1  0  0  0
 47124  1  0  0  0
 48 56  1  0  0  0
 48 65  1  0  0  0
 48125  1  0  0  0
 49 50  1  0  0  0
 49 53  1  0  0  0
 49 64  1  0  0  0
 49126  1  0  0  0
 50 51  1  0  0  0
 50127  1  0  0  0
 50128  1  0  0  0
 51 52  1  0  0  0
 51129  1  0  0  0
 51130  1  0  0  0
 52131  1  0  0  0
 52132  1  0  0  0
 53 54  1  0  0  0
 54 55  2  0  0  0
 54133  1  0  0  0
 55 57  1  0  0  0
 55134  1  0  0  0
 56 69  2  0  0  0
 57 58  2  0  0  0
 57135  1  0  0  0
 58136  1  0  0  0
 59 60  1  0  0  0
 59 61  1  0  0  0
 59 62  1  0  0  0
 60137  1  0  0  0
 60138  1  0  0  0
 60139  1  0  0  0
 61140  1  0  0  0
 61141  1  0  0  0
 61142  1  0  0  0
 62143  1  0  0  0
 62144  1  0  0  0
 62145  1  0  0  0
 63 65  1  0  0  0
 63146  1  0  0  0
 63147  1  0  0  0
 63148  1  0  0  0
 64149  1  0  0  0
 65150  1  0  0  0
 68 82  1  0  0  0
 71 72  2  0  0  0
 71 73  1  0  0  0
 71151  1  0  0  0
 72 84  1  0  0  0
 72 87  1  0  0  0
 73 88  2  0  0  0
 73 90  1  0  0  0
 74 85  1  0  0  0
 74 87  2  0  0  0
 74 88  1  0  0  0
 75152  1  0  0  0
 75153  1  0  0  0
 75154  1  0  0  0
 75 84  1  0  0  0
 76 84  1  0  0  0
 76155  1  0  0  0
 76156  1  0  0  0
 76157  1  0  0  0
 77158  1  0  0  0
 77159  1  0  0  0
 77160  1  0  0  0
 77 86  1  0  0  0
 78 86  1  0  0  0
 78161  1  0  0  0
 78162  1  0  0  0
 78163  1  0  0  0
 79 82  1  0  0  0
 79 83  1  0  0  0
 79164  1  0  0  0
 79165  1  0  0  0
 80 86  1  0  0  0
 80166  1  0  0  0
 80167  1  0  0  0
 80 85  1  0  0  0
 81 85  1  0  0  0
 81 89  1  0  0  0
 81168  1  0  0  0
 81169  1  0  0  0
 82170  1  0  0  0
 82171  1  0  0  0
 83 90  1  0  0  0
 83172  1  0  0  0
 83173  1  0  0  0
 84174  1  0  0  0
 85175  1  0  0  0
 86 91  1  0  0  0
 89176  1  0  0  0
M  ISO  4   1 100  68 101  82 101  89 100
M  END
> <chiral flag>
0

> <version>
0

> <s_m_source_file>
/data/baiqing/PycharmProjects/Reinvent-master-3.2/result/LINK_invent/BTK/process_docking_weight1_custom_sum_contain_oxygen_bond_distance_aromatic_linkinvent_7_9_3/rearranged_h_0067.sdf

> <i_m_source_file_index>
30

> <r_mmod_Potential_Energy-OPLS-2005>
-535.3134765625

> <r_mmod_Stretch_Energy-OPLS-2005>
49.3742752075195

> <r_mmod_Bend_Energy-OPLS-2005>
139.015396118164

> <r_mmod_Torsional_Energy-OPLS-2005>
224.271789550781

> <r_mmod_Improper_Torsional_Energy-OPLS-2005>
4.42455625534058

> <r_mmod_Van_der_Waal_Energy-OPLS-2005>
152.39306640625

> <r_mmod_Electrostatic_Energy-OPLS-2005>
-915.945495605469

> <r_mmod_Solvation_Energy-OPLS-2005>
-205.315200805664

> <b_mmod_Minimization_Converged-OPLS-2005>
0

> <r_mmod_RMS_Derivative-OPLS-2005>
2.13324284553528

$$$$
30
                    3D
 Structure written by MMmdl.
177185  0  0  1  0            999 V2000
  -30.7827  -14.6569   20.2473 C   0  0  0  0  0  0
  -30.3766  -12.4052   19.3592 C   0  0  0  0  0  0
  -29.4405  -12.5042   18.1466 C   0  0  0  0  0  0
  -28.0070  -12.2524   18.6454 C   0  0  0  0  0  0
  -27.6145  -13.1949   19.8117 C   0  0  2  0  0  0
  -28.7118  -13.3065   20.8971 C   0  0  0  0  0  0
  -25.2549  -13.8050   20.5942 C   0  0  0  0  0  0
  -24.1761  -13.0340   20.9352 C   0  0  0  0  0  0
  -24.6336  -11.6822   20.8793 C   0  0  0  0  0  0
  -23.9040  -10.4253   21.0489 C   0  0  0  0  0  0
  -24.3576   -9.4223   21.9319 C   0  0  0  0  0  0
  -23.6277   -8.2297   22.0908 C   0  0  0  0  0  0
  -22.4312   -8.0296   21.3601 C   0  0  0  0  0  0
  -21.9975   -9.0208   20.4615 C   0  0  0  0  0  0
  -22.7264  -10.2116   20.3084 C   0  0  0  0  0  0
  -21.6857   -6.0717   22.5304 C   0  0  0  0  0  0
  -21.3999   -6.5676   23.8183 C   0  0  0  0  0  0
  -21.3645   -5.6854   24.9179 C   0  0  0  0  0  0
  -21.6028   -4.3117   24.7261 C   0  0  0  0  0  0
  -21.8831   -3.8166   23.4396 C   0  0  0  0  0  0
  -21.9189   -4.6955   22.3418 C   0  0  0  0  0  0
  -22.7794  -13.5217   21.2033 C   0  0  0  0  0  0
  -22.1674   -4.2079   21.1024 F   0  0  0  0  0  0
  -21.5573   -3.4642   25.7803 F   0  0  0  0  0  0
  -29.9952  -13.5368   20.2069 N   0  0  0  0  0  0
  -26.2867  -12.9159   20.3389 N   0  0  0  0  0  0
  -25.9205  -11.6344   20.5723 N   0  0  0  0  0  0
  -22.0370  -12.8256   22.0640 N   0  0  0  0  0  0
  -25.4294  -15.1797   20.4538 N   0  0  0  0  0  0
  -31.8895  -14.5360   20.7461 O   0  0  0  0  0  0
  -21.6713   -6.8879   21.4256 O   0  0  0  0  0  0
  -22.3534  -14.5548   20.6909 O   0  0  0  0  0  0
  -24.6173  -31.8661   23.2032 C   0  0  0  0  0  0
  -25.9046  -32.4812   23.8358 C   0  0  1  0  0  0
  -27.2449  -27.4123   20.1186 C   0  0  0  0  0  0
  -25.5890  -33.8617   24.2292 N   0  0  0  0  0  0
  -23.4079  -30.4854   21.5414 C   0  0  2  0  0  0
  -24.8584  -28.9451   20.1140 C   0  0  0  0  0  0
  -22.7424  -29.4661   22.4941 C   0  0  0  0  0  0
  -18.0281  -28.1390   22.8479 C   0  0  0  0  0  0
  -24.1501  -36.7325   23.2634 C   0  0  0  0  0  0
  -25.9380  -30.8276   21.3599 C   0  0  0  0  0  0
  -26.0184  -29.4599   20.7075 C   0  0  0  0  0  0
  -27.2164  -28.7020   20.7004 C   0  0  0  0  0  0
  -26.0695  -26.9201   19.5122 C   0  0  0  0  0  0
  -24.8816  -27.6756   19.5080 C   0  0  0  0  0  0
  -23.6184  -29.8082   20.1603 C   0  0  0  0  0  0
  -25.4117  -36.3123   24.0331 C   0  0  1  0  0  0
  -20.5873  -28.3692   23.1278 C   0  0  2  0  0  0
  -20.6778  -26.9429   22.5387 C   0  0  0  0  0  0
  -19.5756  -26.6407   21.5189 C   0  0  0  0  0  0
  -18.1939  -26.7939   22.1610 C   0  0  0  0  0  0
  -19.1530  -28.8858   23.2878 C   0  0  0  0  0  0
  -18.9456  -30.1455   23.8906 C   0  0  0  0  0  0
  -17.6457  -30.6593   24.0580 C   0  0  0  0  0  0
  -25.9038  -34.9487   23.5124 C   0  0  0  0  0  0
  -16.5348  -29.9097   23.6333 C   0  0  0  0  0  0
  -16.7271  -28.6514   23.0353 C   0  0  0  0  0  0
  -26.4472  -31.6589   25.0686 C   0  0  0  0  0  0
  -25.3742  -31.3651   26.1420 C   0  0  0  0  0  0
  -27.0330  -30.3037   24.6083 C   0  0  0  0  0  0
  -27.6033  -32.4319   25.7472 C   0  0  0  0  0  0
  -27.5587  -37.1802   24.8463 C   0  0  0  0  0  0
  -21.4144  -29.3062   22.3680 N   0  0  0  0  0  0
  -26.4308  -37.3781   23.9408 N   0  0  0  0  0  0
  -24.6708  -31.0760   22.0935 N   0  0  0  0  0  0
  -23.4156  -28.8204   23.3025 O   0  0  0  0  0  0
  -28.3986  -26.6501   20.1290 O   0  0  0  0  0  0
  -26.5610  -34.8934   22.4684 O   0  0  0  0  0  0
  -23.5349  -32.1411   23.7396 O   0  0  0  0  0  0
  -29.0658  -19.3536   21.1435 C   0  0  0  0  0  0
  -29.6690  -18.1126   19.5808 C   0  0  0  0  0  0
  -30.1455  -17.4131   17.2266 C   0  0  0  0  0  0
  -28.3648  -16.3530   18.4371 C   0  0  0  0  0  0
  -27.4086  -22.2615   20.5111 C   0  0  0  0  0  0
  -29.0388  -22.7929   22.2933 C   0  0  0  0  0  0
  -30.6091  -24.5796   20.2046 C   0  0  0  0  0  0
  -28.7180  -24.1905   18.6135 C   0  0  0  0  0  0
  -29.8976  -21.6278   20.1994 C   0  0  0  0  0  0
  -31.9392  -15.3060   18.0477 C   0  0  0  0  0  0
  -28.3062  -25.3632   20.7968 C   0  0  0  0  0  0
  -30.8876  -15.7977   19.1257 C   0  0  1  0  0  0
  -29.7856  -16.8841   18.6517 C   0  0  0  0  0  0
  -28.8698  -22.7204   20.7523 C   0  0  0  0  0  0
  -29.1131  -24.1875   20.1111 C   0  0  0  0  0  0
  -29.1100  -18.0553   20.8284 N   0  0  0  0  0  0
  -30.0316  -19.3546   19.2096 N   0  0  0  0  0  0
  -29.5819  -20.1707   20.2158 N   0  0  0  0  0  0
  -33.3413  -15.4349   18.5023 N   0  3  0  0  0  0
  -31.4234  -12.4329   19.0477 H   0  0  0  0  0  0
  -30.2313  -11.4508   19.8735 H   0  0  0  0  0  0
  -29.7254  -11.7940   17.3705 H   0  0  0  0  0  0
  -29.4909  -13.4880   17.6788 H   0  0  0  0  0  0
  -27.9459  -11.2170   18.9850 H   0  0  0  0  0  0
  -27.2966  -12.3418   17.8234 H   0  0  0  0  0  0
  -27.5149  -14.1511   19.3489 H   0  0  0  0  0  0
  -28.7673  -12.4177   21.5277 H   0  0  0  0  0  0
  -28.4815  -14.1477   21.5580 H   0  0  0  0  0  0
  -25.2622   -9.5779   22.5000 H   0  0  0  0  0  0
  -23.9903   -7.4735   22.7729 H   0  0  0  0  0  0
  -21.0928   -8.8754   19.8853 H   0  0  0  0  0  0
  -22.3738  -10.9730   19.6245 H   0  0  0  0  0  0
  -21.2036   -7.6186   23.9686 H   0  0  0  0  0  0
  -21.1418   -6.0599   25.9070 H   0  0  0  0  0  0
  -22.0625   -2.7629   23.2936 H   0  0  0  0  0  0
  -22.3976  -12.0180   22.5430 H   0  0  0  0  0  0
  -21.0968  -13.1223   22.2833 H   0  0  0  0  0  0
  -24.6940  -15.8392   20.6842 H   0  0  0  0  0  0
  -26.3140  -15.6330   20.2692 H   0  0  0  0  0  0
  -26.7126  -32.5524   23.1124 H   0  0  0  0  0  0
  -25.0064  -33.9776   25.0458 H   0  0  0  0  0  0
  -22.6971  -31.3014   21.3937 H   0  0  0  0  0  0
  -23.3761  -35.9651   23.3291 H   0  0  0  0  0  0
  -24.3604  -36.8948   22.2048 H   0  0  0  0  0  0
  -23.7247  -37.6521   23.6659 H   0  0  0  0  0  0
  -26.0534  -31.5901   20.5874 H   0  0  0  0  0  0
  -26.8253  -30.8818   21.9799 H   0  0  0  0  0  0
  -28.1131  -29.0968   21.1534 H   0  0  0  0  0  0
  -26.0707  -25.9443   19.0459 H   0  0  0  0  0  0
  -23.9915  -27.2677   19.0457 H   0  0  0  0  0  0
  -23.7238  -30.5760   19.3955 H   0  0  0  0  0  0
  -22.7451  -29.2203   19.8722 H   0  0  0  0  0  0
  -25.1288  -36.1993   25.0815 H   0  0  0  0  0  0
  -20.9973  -28.3290   24.1386 H   0  0  0  0  0  0
  -20.5698  -26.2305   23.3579 H   0  0  0  0  0  0
  -21.6647  -26.7489   22.1161 H   0  0  0  0  0  0
  -19.6937  -25.6319   21.1220 H   0  0  0  0  0  0
  -19.6708  -27.3216   20.6720 H   0  0  0  0  0  0
  -17.4201  -26.6667   21.4028 H   0  0  0  0  0  0
  -18.0368  -26.0082   22.9012 H   0  0  0  0  0  0
  -19.7937  -30.7272   24.2278 H   0  0  0  0  0  0
  -17.5022  -31.6275   24.5188 H   0  0  0  0  0  0
  -15.5351  -30.3015   23.7661 H   0  0  0  0  0  0
  -15.8658  -28.0849   22.7055 H   0  0  0  0  0  0
  -24.5864  -30.7089   25.7684 H   0  0  0  0  0  0
  -24.8994  -32.2797   26.4993 H   0  0  0  0  0  0
  -25.8083  -30.8667   27.0105 H   0  0  0  0  0  0
  -26.2872  -29.6736   24.1211 H   0  0  0  0  0  0
  -27.4175  -29.7324   25.4549 H   0  0  0  0  0  0
  -27.8675  -30.4337   23.9181 H   0  0  0  0  0  0
  -27.2621  -33.3575   26.2126 H   0  0  0  0  0  0
  -28.3811  -32.6965   25.0295 H   0  0  0  0  0  0
  -28.0759  -31.8410   26.5328 H   0  0  0  0  0  0
  -28.2595  -38.0107   24.7531 H   0  0  0  0  0  0
  -28.1104  -36.2643   24.6293 H   0  0  0  0  0  0
  -27.2307  -37.1440   25.8863 H   0  0  0  0  0  0
  -20.9310  -29.8762   21.6882 H   0  0  0  0  0  0
  -26.0221  -38.2866   24.1385 H   0  0  0  0  0  0
  -28.6663  -19.7053   22.0814 H   0  0  0  0  0  0
  -29.4853  -18.2109   16.8975 H   0  0  0  0  0  0
  -30.0468  -16.6398   16.4678 H   0  0  0  0  0  0
  -31.1505  -17.8340   17.1751 H   0  0  0  0  0  0
  -27.8690  -16.1771   19.3864 H   0  0  0  0  0  0
  -28.3598  -15.4474   17.8342 H   0  0  0  0  0  0
  -27.7543  -17.0890   17.9063 H   0  0  0  0  0  0
  -27.1124  -21.4623   21.1893 H   0  0  0  0  0  0
  -27.2565  -21.8987   19.4952 H   0  0  0  0  0  0
  -26.6894  -23.0653   20.6759 H   0  0  0  0  0  0
  -28.9228  -21.8165   22.7625 H   0  0  0  0  0  0
  -28.2889  -23.4403   22.7498 H   0  0  0  0  0  0
  -30.0181  -23.1629   22.5942 H   0  0  0  0  0  0
  -30.7814  -25.5711   19.7867 H   0  0  0  0  0  0
  -31.2571  -23.8941   19.6627 H   0  0  0  0  0  0
  -30.9615  -24.6198   21.2336 H   0  0  0  0  0  0
  -28.9353  -25.1514   18.1467 H   0  0  0  0  0  0
  -27.6530  -24.0090   18.4750 H   0  0  0  0  0  0
  -29.2568  -23.4475   18.0322 H   0  0  0  0  0  0
  -30.8469  -21.7292   20.7316 H   0  0  0  0  0  0
  -30.1404  -21.8714   19.1669 H   0  0  0  0  0  0
  -31.9236  -15.7995   17.0785 H   0  0  0  0  0  0
  -31.7542  -14.2651   17.7909 H   0  0  0  0  0  0
  -28.6941  -25.5216   21.8040 H   0  0  0  0  0  0
  -27.2661  -25.0862   20.9459 H   0  0  0  0  0  0
  -31.4949  -16.5232   19.6701 H   0  0  0  0  0  0
  -33.9677  -14.9244   17.9011 H   0  0  0  0  0  0
  -33.4380  -15.0827   19.4396 H   0  0  0  0  0  0
  -33.6356  -16.3980   18.4923 H   0  0  0  0  0  0
  1 25  1  0  0  0
  1 30  2  0  0  0
  1 82  1  0  0  0
  2  3  1  0  0  0
  2 25  1  0  0  0
  2 90  1  0  0  0
  2 91  1  0  0  0
  3  4  1  0  0  0
  3 92  1  0  0  0
  3 93  1  0  0  0
  4  5  1  0  0  0
  4 94  1  0  0  0
  4 95  1  0  0  0
  5  6  1  0  0  0
  5 26  1  0  0  0
  5 96  1  0  0  0
  6 25  1  0  0  0
  6 97  1  0  0  0
  6 98  1  0  0  0
  7  8  2  0  0  0
  7 26  1  0  0  0
  7 29  1  0  0  0
  8  9  1  0  0  0
  8 22  1  0  0  0
  9 10  1  0  0  0
  9 27  2  0  0  0
 10 11  2  0  0  0
 10 15  1  0  0  0
 11 12  1  0  0  0
 11 99  1  0  0  0
 12 13  2  0  0  0
 12100  1  0  0  0
 13 14  1  0  0  0
 13 31  1  0  0  0
 14 15  2  0  0  0
 14101  1  0  0  0
 15102  1  0  0  0
 16 17  2  0  0  0
 16 21  1  0  0  0
 16 31  1  0  0  0
 17 18  1  0  0  0
 17103  1  0  0  0
 18 19  2  0  0  0
 18104  1  0  0  0
 19 20  1  0  0  0
 19 24  1  0  0  0
 20 21  2  0  0  0
 20105  1  0  0  0
 21 23  1  0  0  0
 22 28  1  0  0  0
 22 32  2  0  0  0
 26 27  1  0  0  0
 28106  1  0  0  0
 28107  1  0  0  0
 29108  1  0  0  0
 29109  1  0  0  0
 33 34  1  0  0  0
 33 66  1  0  0  0
 33 70  2  0  0  0
 34 36  1  0  0  0
 34 59  1  0  0  0
 34110  1  0  0  0
 35 44  2  0  0  0
 35 45  1  0  0  0
 35 68  1  0  0  0
 36 56  1  0  0  0
 36111  1  0  0  0
 37 39  1  0  0  0
 37 47  1  0  0  0
 37 66  1  0  0  0
 37112  1  0  0  0
 38 43  2  0  0  0
 38 46  1  0  0  0
 38 47  1  0  0  0
 39 64  1  0  0  0
 39 67  2  0  0  0
 40 52  1  0  0  0
 40 53  2  0  0  0
 40 58  1  0  0  0
 41113  1  0  0  0
 41114  1  0  0  0
 41115  1  0  0  0
 41 48  1  0  0  0
 42 43  1  0  0  0
 42 66  1  0  0  0
 42116  1  0  0  0
 42117  1  0  0  0
 43 44  1  0  0  0
 44118  1  0  0  0
 45 46  2  0  0  0
 45119  1  0  0  0
 46120  1  0  0  0
 47121  1  0  0  0
 47122  1  0  0  0
 48 56  1  0  0  0
 48 65  1  0  0  0
 48123  1  0  0  0
 49 50  1  0  0  0
 49 53  1  0  0  0
 49 64  1  0  0  0
 49124  1  0  0  0
 50 51  1  0  0  0
 50125  1  0  0  0
 50126  1  0  0  0
 51 52  1  0  0  0
 51127  1  0  0  0
 51128  1  0  0  0
 52129  1  0  0  0
 52130  1  0  0  0
 53 54  1  0  0  0
 54 55  2  0  0  0
 54131  1  0  0  0
 55 57  1  0  0  0
 55132  1  0  0  0
 56 69  2  0  0  0
 57 58  2  0  0  0
 57133  1  0  0  0
 58134  1  0  0  0
 59 60  1  0  0  0
 59 61  1  0  0  0
 59 62  1  0  0  0
 60135  1  0  0  0
 60136  1  0  0  0
 60137  1  0  0  0
 61138  1  0  0  0
 61139  1  0  0  0
 61140  1  0  0  0
 62141  1  0  0  0
 62142  1  0  0  0
 62143  1  0  0  0
 63 65  1  0  0  0
 63144  1  0  0  0
 63145  1  0  0  0
 63146  1  0  0  0
 64147  1  0  0  0
 65148  1  0  0  0
 68 81  1  0  0  0
 71 86  2  0  0  0
 71 88  1  0  0  0
 71149  1  0  0  0
 72 83  1  0  0  0
 72 86  1  0  0  0
 72 87  2  0  0  0
 73150  1  0  0  0
 73151  1  0  0  0
 73152  1  0  0  0
 73 83  1  0  0  0
 74 83  1  0  0  0
 74153  1  0  0  0
 74154  1  0  0  0
 74155  1  0  0  0
 75156  1  0  0  0
 75157  1  0  0  0
 75158  1  0  0  0
 75 84  1  0  0  0
 76 84  1  0  0  0
 76159  1  0  0  0
 76160  1  0  0  0
 76161  1  0  0  0
 77162  1  0  0  0
 77163  1  0  0  0
 77164  1  0  0  0
 77 85  1  0  0  0
 78 85  1  0  0  0
 78165  1  0  0  0
 78166  1  0  0  0
 78167  1  0  0  0
 79 84  1  0  0  0
 79 88  1  0  0  0
 79168  1  0  0  0
 79169  1  0  0  0
 80 89  1  0  0  0
 80170  1  0  0  0
 80171  1  0  0  0
 80 82  1  0  0  0
 81 85  1  0  0  0
 81172  1  0  0  0
 81173  1  0  0  0
 82 83  1  0  0  0
 82174  1  0  0  0
 84 85  1  0  0  0
 87 88  1  0  0  0
 89175  1  0  0  0
 89176  1  0  0  0
 89177  1  0  0  0
M  CHG  1  89   1
M  ISO  4   1 100  68 101  81 101  82 100
M  END
> <chiral flag>
0

> <version>
0

> <s_m_source_file>
/data/baiqing/PycharmProjects/Reinvent-master-3.2/result/LINK_invent/BTK/process_docking_weight1_custom_sum_contain_oxygen_bond_distance_aromatic_linkinvent_7_9_3/rearranged_h_0067.sdf

> <i_m_source_file_index>
31

> <r_mmod_Potential_Energy-OPLS-2005>
110.414459228516

> <r_mmod_Stretch_Energy-OPLS-2005>
85.6268844604492

> <r_mmod_Bend_Energy-OPLS-2005>
237.402679443359

> <r_mmod_Torsional_Energy-OPLS-2005>
304.67578125

> <r_mmod_Improper_Torsional_Energy-OPLS-2005>
30.5324783325195

> <r_mmod_Van_der_Waal_Energy-OPLS-2005>
161.098556518555

> <r_mmod_Electrostatic_Energy-OPLS-2005>
-390.859069824219

> <r_mmod_Solvation_Energy-OPLS-2005>
-443.783843994141

> <b_mmod_Minimization_Converged-OPLS-2005>
0

> <r_mmod_RMS_Derivative-OPLS-2005>
8.13468742370605

$$$$
31
                    3D
 Structure written by MMmdl.
173181  0  0  1  0            999 V2000
  -30.7152  -14.4358   20.6387 C   0  0  0  0  0  0
  -30.4346  -12.3153   19.3948 C   0  0  0  0  0  0
  -29.4910  -12.5351   18.1949 C   0  0  0  0  0  0
  -28.0128  -12.3955   18.6062 C   0  0  0  0  0  0
  -27.6716  -13.2097   19.8795 C   0  0  2  0  0  0
  -28.7143  -12.9459   20.9908 C   0  0  0  0  0  0
  -25.2637  -13.8189   20.5718 C   0  0  0  0  0  0
  -24.1877  -13.0451   20.9175 C   0  0  0  0  0  0
  -24.6418  -11.6920   20.8703 C   0  0  0  0  0  0
  -23.9054  -10.4322   21.0377 C   0  0  0  0  0  0
  -24.3612   -9.4248   21.9160 C   0  0  0  0  0  0
  -23.6319   -8.2258   22.0705 C   0  0  0  0  0  0
  -22.4274   -8.0301   21.3539 C   0  0  0  0  0  0
  -21.9871   -9.0295   20.4667 C   0  0  0  0  0  0
  -22.7211  -10.2163   20.3026 C   0  0  0  0  0  0
  -21.6859   -6.0737   22.5280 C   0  0  0  0  0  0
  -21.4020   -6.5631   23.8203 C   0  0  0  0  0  0
  -21.3635   -5.6763   24.9157 C   0  0  0  0  0  0
  -21.6033   -4.3039   24.7204 C   0  0  0  0  0  0
  -21.8843   -3.8146   23.4321 C   0  0  0  0  0  0
  -21.9205   -4.6973   22.3388 C   0  0  0  0  0  0
  -22.7904  -13.5260   21.1831 C   0  0  0  0  0  0
  -22.1681   -4.2169   21.0964 F   0  0  0  0  0  0
  -21.5606   -3.4506   25.7708 F   0  0  0  0  0  0
  -30.0610  -13.2525   20.4658 N   0  0  0  0  0  0
  -26.3082  -12.9363   20.3375 N   0  0  0  0  0  0
  -25.9348  -11.6513   20.5700 N   0  0  0  0  0  0
  -22.0566  -12.8288   22.0441 N   0  0  0  0  0  0
  -25.4337  -15.1900   20.4192 N   0  0  0  0  0  0
  -31.7081  -14.7721   19.9905 O   0  0  0  0  0  0
  -21.6631   -6.8896   21.4240 O   0  0  0  0  0  0
  -22.3604  -14.5536   20.6628 O   0  0  0  0  0  0
  -24.6188  -31.8672   23.2082 C   0  0  0  0  0  0
  -25.9079  -32.4808   23.8381 C   0  0  1  0  0  0
  -27.2234  -27.3968   20.0852 C   0  0  0  0  0  0
  -25.5934  -33.8606   24.2328 N   0  0  0  0  0  0
  -23.4043  -30.4908   21.5510 C   0  0  2  0  0  0
  -24.8451  -28.9599   20.1116 C   0  0  0  0  0  0
  -22.7418  -29.4671   22.5004 C   0  0  0  0  0  0
  -18.0251  -28.1409   22.8504 C   0  0  0  0  0  0
  -24.1457  -36.7273   23.2635 C   0  0  0  0  0  0
  -25.9395  -30.8195   21.3655 C   0  0  0  0  0  0
  -26.0103  -29.4510   20.7130 C   0  0  0  0  0  0
  -27.1979  -28.6750   20.7016 C   0  0  0  0  0  0
  -26.0359  -26.9487   19.4531 C   0  0  0  0  0  0
  -24.8559  -27.7094   19.4800 C   0  0  0  0  0  0
  -23.6073  -29.8265   20.1661 C   0  0  0  0  0  0
  -25.4092  -36.3098   24.0339 C   0  0  1  0  0  0
  -20.5845  -28.3679   23.1329 C   0  0  2  0  0  0
  -20.6732  -26.9415   22.5429 C   0  0  0  0  0  0
  -19.5711  -26.6423   21.5220 C   0  0  0  0  0  0
  -18.1892  -26.7958   22.1640 C   0  0  0  0  0  0
  -19.1501  -28.8860   23.2912 C   0  0  0  0  0  0
  -18.9447  -30.1460   23.8929 C   0  0  0  0  0  0
  -17.6458  -30.6611   24.0585 C   0  0  0  0  0  0
  -25.9050  -34.9468   23.5134 C   0  0  0  0  0  0
  -16.5343  -29.9120   23.6340 C   0  0  0  0  0  0
  -16.7246  -28.6533   23.0372 C   0  0  0  0  0  0
  -26.4500  -31.6580   25.0703 C   0  0  0  0  0  0
  -25.3773  -31.3701   26.1448 C   0  0  0  0  0  0
  -27.0295  -30.2999   24.6112 C   0  0  0  0  0  0
  -27.6075  -32.4287   25.7486 C   0  0  0  0  0  0
  -27.5561  -37.1790   24.8491 C   0  0  0  0  0  0
  -21.4145  -29.3036   22.3733 N   0  0  0  0  0  0
  -26.4268  -37.3794   23.9441 N   0  0  0  0  0  0
  -24.6730  -31.0745   22.0988 N   0  0  0  0  0  0
  -23.4178  -28.8219   23.3055 O   0  0  0  0  0  0
  -28.3853  -26.6347   20.1402 O   0  0  0  0  0  0
  -26.5612  -34.8933   22.4691 O   0  0  0  0  0  0
  -23.5382  -32.1452   23.7464 O   0  0  0  0  0  0
  -29.4427  -18.2119   18.5363 C   0  0  0  0  0  0
  -29.6741  -17.3473   20.4050 C   0  0  0  0  0  0
  -30.3946  -17.4870   23.6608 C   0  0  0  0  0  0
  -28.5221  -15.8527   23.8732 C   0  0  0  0  0  0
  -28.0631  -18.1000   22.9068 C   0  0  0  0  0  0
  -30.6859  -24.8279   20.6011 C   0  0  0  0  0  0
  -28.6251  -23.8647   21.6926 C   0  0  0  0  0  0
  -29.8032  -21.6103   20.0836 C   0  0  0  0  0  0
  -29.4153  -22.9739   19.4335 C   0  0  0  0  0  0
  -30.2403  -20.5599   19.0242 C   0  0  0  0  0  0
  -28.3893  -25.2849   19.6099 C   0  0  0  0  0  0
  -29.4362  -16.3764   21.5571 C   0  0  2  0  0  0
  -29.1125  -16.9656   22.9729 C   0  0  0  0  0  0
  -29.2860  -24.2399   20.3474 C   0  0  0  0  0  0
  -29.2375  -17.0468   19.1423 N   0  0  0  0  0  0
  -30.2069  -18.5725   20.5405 N   0  0  0  0  0  0
  -29.9429  -19.1573   19.3382 N   0  0  0  0  0  0
  -30.2682  -15.1689   21.6599 N   0  0  0  0  0  0
  -31.4710  -12.4512   19.0787 H   0  0  0  0  0  0
  -30.3645  -11.2889   19.7590 H   0  0  0  0  0  0
  -29.7230  -11.8265   17.3984 H   0  0  0  0  0  0
  -29.6597  -13.5274   17.7749 H   0  0  0  0  0  0
  -27.8057  -11.3383   18.7733 H   0  0  0  0  0  0
  -27.3673  -12.7090   17.7851 H   0  0  0  0  0  0
  -27.7276  -14.2632   19.6047 H   0  0  0  0  0  0
  -28.6817  -11.8998   21.2958 H   0  0  0  0  0  0
  -28.4542  -13.5074   21.8872 H   0  0  0  0  0  0
  -25.2753   -9.5752   22.4732 H   0  0  0  0  0  0
  -24.0082   -7.4644   22.7392 H   0  0  0  0  0  0
  -21.0711   -8.8840   19.9096 H   0  0  0  0  0  0
  -22.3664  -10.9684   19.6113 H   0  0  0  0  0  0
  -21.2050   -7.6150   23.9712 H   0  0  0  0  0  0
  -21.1399   -6.0486   25.9041 H   0  0  0  0  0  0
  -22.0647   -2.7610   23.2813 H   0  0  0  0  0  0
  -22.4220  -12.0033   22.4949 H   0  0  0  0  0  0
  -21.1174  -13.1311   22.2616 H   0  0  0  0  0  0
  -24.6731  -15.8482   20.5453 H   0  0  0  0  0  0
  -26.2784  -15.6272   20.0744 H   0  0  0  0  0  0
  -26.7144  -32.5515   23.1130 H   0  0  0  0  0  0
  -25.0076  -33.9776   25.0463 H   0  0  0  0  0  0
  -22.6944  -31.3093   21.4129 H   0  0  0  0  0  0
  -23.3731  -35.9595   23.3325 H   0  0  0  0  0  0
  -24.3536  -36.8857   22.2049 H   0  0  0  0  0  0
  -23.7185  -37.6478   23.6606 H   0  0  0  0  0  0
  -26.0579  -31.5797   20.5907 H   0  0  0  0  0  0
  -26.8270  -30.8731   21.9845 H   0  0  0  0  0  0
  -28.0931  -29.0476   21.1781 H   0  0  0  0  0  0
  -25.9665  -26.0151   18.9193 H   0  0  0  0  0  0
  -23.9630  -27.3299   19.0009 H   0  0  0  0  0  0
  -23.7148  -30.5963   19.4023 H   0  0  0  0  0  0
  -22.7300  -29.2463   19.8753 H   0  0  0  0  0  0
  -25.1251  -36.1960   25.0825 H   0  0  0  0  0  0
  -20.9949  -28.3240   24.1453 H   0  0  0  0  0  0
  -20.5633  -26.2301   23.3618 H   0  0  0  0  0  0
  -21.6606  -26.7469   22.1231 H   0  0  0  0  0  0
  -19.6866  -25.6347   21.1218 H   0  0  0  0  0  0
  -19.6632  -27.3253   20.6761 H   0  0  0  0  0  0
  -17.4166  -26.6706   21.4041 H   0  0  0  0  0  0
  -18.0284  -26.0099   22.9042 H   0  0  0  0  0  0
  -19.7922  -30.7258   24.2328 H   0  0  0  0  0  0
  -17.5018  -31.6298   24.5185 H   0  0  0  0  0  0
  -15.5342  -30.3061   23.7644 H   0  0  0  0  0  0
  -15.8636  -28.0867   22.7110 H   0  0  0  0  0  0
  -24.5969  -30.6994   25.7837 H   0  0  0  0  0  0
  -24.8920  -32.2847   26.4865 H   0  0  0  0  0  0
  -25.8158  -30.8938   27.0224 H   0  0  0  0  0  0
  -26.2819  -29.6782   24.1166 H   0  0  0  0  0  0
  -27.4014  -29.7231   25.4604 H   0  0  0  0  0  0
  -27.8694  -30.4274   23.9271 H   0  0  0  0  0  0
  -27.2681  -33.3583   26.2072 H   0  0  0  0  0  0
  -28.3892  -32.6863   25.0319 H   0  0  0  0  0  0
  -28.0705  -31.8384   26.5405 H   0  0  0  0  0  0
  -28.2630  -38.0047   24.7533 H   0  0  0  0  0  0
  -28.1001  -36.2591   24.6300 H   0  0  0  0  0  0
  -27.2292  -37.1440   25.8901 H   0  0  0  0  0  0
  -20.9313  -29.8767   21.6963 H   0  0  0  0  0  0
  -26.0150  -38.2856   24.1483 H   0  0  0  0  0  0
  -29.1827  -18.3871   17.5009 H   0  0  0  0  0  0
  -30.1976  -17.8107   24.6833 H   0  0  0  0  0  0
  -30.8147  -18.3456   23.1379 H   0  0  0  0  0  0
  -31.1729  -16.7230   23.7100 H   0  0  0  0  0  0
  -28.2378  -16.2502   24.8481 H   0  0  0  0  0  0
  -29.2302  -15.0449   24.0664 H   0  0  0  0  0  0
  -27.6256  -15.4146   23.4290 H   0  0  0  0  0  0
  -27.7622  -18.4187   23.9058 H   0  0  0  0  0  0
  -27.1636  -17.7766   22.3797 H   0  0  0  0  0  0
  -28.4336  -18.9921   22.4032 H   0  0  0  0  0  0
  -31.3791  -24.0722   20.9717 H   0  0  0  0  0  0
  -30.6477  -25.6238   21.3441 H   0  0  0  0  0  0
  -31.1108  -25.2474   19.6894 H   0  0  0  0  0  0
  -29.2764  -23.2402   22.3038 H   0  0  0  0  0  0
  -27.7006  -23.3090   21.5348 H   0  0  0  0  0  0
  -28.3732  -24.7498   22.2773 H   0  0  0  0  0  0
  -28.9482  -21.2361   20.6499 H   0  0  0  0  0  0
  -30.6082  -21.7366   20.8077 H   0  0  0  0  0  0
  -30.1283  -23.1985   18.6399 H   0  0  0  0  0  0
  -28.4708  -22.8193   18.9073 H   0  0  0  0  0  0
  -31.3046  -20.6537   18.8056 H   0  0  0  0  0  0
  -29.7282  -20.7902   18.0881 H   0  0  0  0  0  0
  -27.4035  -24.8263   19.6220 H   0  0  0  0  0  0
  -28.6830  -25.3565   18.5627 H   0  0  0  0  0  0
  -28.4749  -15.9405   21.2751 H   0  0  0  0  0  0
  -29.8862  -14.5757   22.3775 H   0  0  0  0  0  0
  1 25  1  0  0  0
  1 30  2  0  0  0
  1 88  1  0  0  0
  2  3  1  0  0  0
  2 25  1  0  0  0
  2 89  1  0  0  0
  2 90  1  0  0  0
  3  4  1  0  0  0
  3 91  1  0  0  0
  3 92  1  0  0  0
  4  5  1  0  0  0
  4 93  1  0  0  0
  4 94  1  0  0  0
  5  6  1  0  0  0
  5 26  1  0  0  0
  5 95  1  0  0  0
  6 25  1  0  0  0
  6 96  1  0  0  0
  6 97  1  0  0  0
  7  8  2  0  0  0
  7 26  1  0  0  0
  7 29  1  0  0  0
  8  9  1  0  0  0
  8 22  1  0  0  0
  9 10  1  0  0  0
  9 27  2  0  0  0
 10 11  2  0  0  0
 10 15  1  0  0  0
 11 12  1  0  0  0
 11 98  1  0  0  0
 12 13  2  0  0  0
 12 99  1  0  0  0
 13 14  1  0  0  0
 13 31  1  0  0  0
 14 15  2  0  0  0
 14100  1  0  0  0
 15101  1  0  0  0
 16 17  2  0  0  0
 16 21  1  0  0  0
 16 31  1  0  0  0
 17 18  1  0  0  0
 17102  1  0  0  0
 18 19  2  0  0  0
 18103  1  0  0  0
 19 20  1  0  0  0
 19 24  1  0  0  0
 20 21  2  0  0  0
 20104  1  0  0  0
 21 23  1  0  0  0
 22 28  1  0  0  0
 22 32  2  0  0  0
 26 27  1  0  0  0
 28105  1  0  0  0
 28106  1  0  0  0
 29107  1  0  0  0
 29108  1  0  0  0
 33 34  1  0  0  0
 33 66  1  0  0  0
 33 70  2  0  0  0
 34 36  1  0  0  0
 34 59  1  0  0  0
 34109  1  0  0  0
 35 44  2  0  0  0
 35 45  1  0  0  0
 35 68  1  0  0  0
 36 56  1  0  0  0
 36110  1  0  0  0
 37 39  1  0  0  0
 37 47  1  0  0  0
 37 66  1  0  0  0
 37111  1  0  0  0
 38 43  2  0  0  0
 38 46  1  0  0  0
 38 47  1  0  0  0
 39 64  1  0  0  0
 39 67  2  0  0  0
 40 52  1  0  0  0
 40 53  2  0  0  0
 40 58  1  0  0  0
 41112  1  0  0  0
 41113  1  0  0  0
 41114  1  0  0  0
 41 48  1  0  0  0
 42 43  1  0  0  0
 42 66  1  0  0  0
 42115  1  0  0  0
 42116  1  0  0  0
 43 44  1  0  0  0
 44117  1  0  0  0
 45 46  2  0  0  0
 45118  1  0  0  0
 46119  1  0  0  0
 47120  1  0  0  0
 47121  1  0  0  0
 48 56  1  0  0  0
 48 65  1  0  0  0
 48122  1  0  0  0
 49 50  1  0  0  0
 49 53  1  0  0  0
 49 64  1  0  0  0
 49123  1  0  0  0
 50 51  1  0  0  0
 50124  1  0  0  0
 50125  1  0  0  0
 51 52  1  0  0  0
 51126  1  0  0  0
 51127  1  0  0  0
 52128  1  0  0  0
 52129  1  0  0  0
 53 54  1  0  0  0
 54 55  2  0  0  0
 54130  1  0  0  0
 55 57  1  0  0  0
 55131  1  0  0  0
 56 69  2  0  0  0
 57 58  2  0  0  0
 57132  1  0  0  0
 58133  1  0  0  0
 59 60  1  0  0  0
 59 61  1  0  0  0
 59 62  1  0  0  0
 60134  1  0  0  0
 60135  1  0  0  0
 60136  1  0  0  0
 61137  1  0  0  0
 61138  1  0  0  0
 61139  1  0  0  0
 62140  1  0  0  0
 62141  1  0  0  0
 62142  1  0  0  0
 63 65  1  0  0  0
 63143  1  0  0  0
 63144  1  0  0  0
 63145  1  0  0  0
 64146  1  0  0  0
 65147  1  0  0  0
 68 81  1  0  0  0
 71 85  2  0  0  0
 71 87  1  0  0  0
 71148  1  0  0  0
 72 82  1  0  0  0
 72 85  1  0  0  0
 72 86  2  0  0  0
 73149  1  0  0  0
 73150  1  0  0  0
 73151  1  0  0  0
 73 83  1  0  0  0
 74 83  1  0  0  0
 74152  1  0  0  0
 74153  1  0  0  0
 74154  1  0  0  0
 75 83  1  0  0  0
 75155  1  0  0  0
 75156  1  0  0  0
 75157  1  0  0  0
 76158  1  0  0  0
 76159  1  0  0  0
 76160  1  0  0  0
 76 84  1  0  0  0
 77 84  1  0  0  0
 77161  1  0  0  0
 77162  1  0  0  0
 77163  1  0  0  0
 78 79  1  0  0  0
 78 80  1  0  0  0
 78164  1  0  0  0
 78165  1  0  0  0
 79 84  1  0  0  0
 79166  1  0  0  0
 79167  1  0  0  0
 80 87  1  0  0  0
 80168  1  0  0  0
 80169  1  0  0  0
 81 84  1  0  0  0
 81170  1  0  0  0
 81171  1  0  0  0
 82 83  1  0  0  0
 82 88  1  0  0  0
 82172  1  0  0  0
 86 87  1  0  0  0
 88173  1  0  0  0
M  ISO  4   1 100  68 101  81 101  88 100
M  END
> <chiral flag>
0

> <version>
0

> <s_m_source_file>
/data/baiqing/PycharmProjects/Reinvent-master-3.2/result/LINK_invent/BTK/process_docking_weight1_custom_sum_contain_oxygen_bond_distance_aromatic_linkinvent_7_9_3/rearranged_h_0067.sdf

> <i_m_source_file_index>
32

> <r_mmod_Potential_Energy-OPLS-2005>
-41.4435119628906

> <r_mmod_Stretch_Energy-OPLS-2005>
47.146411895752

> <r_mmod_Bend_Energy-OPLS-2005>
151.274475097656

> <r_mmod_Torsional_Energy-OPLS-2005>
286.021850585938

> <r_mmod_Improper_Torsional_Energy-OPLS-2005>
7.7812352180481

> <r_mmod_Van_der_Waal_Energy-OPLS-2005>
128.707946777344

> <r_mmod_Electrostatic_Energy-OPLS-2005>
-461.270263671875

> <r_mmod_Solvation_Energy-OPLS-2005>
-217.103530883789

> <b_mmod_Minimization_Converged-OPLS-2005>
0

> <r_mmod_RMS_Derivative-OPLS-2005>
3.88651919364929

$$$$
32
                    3D
 Structure written by MMmdl.
163171  0  0  1  0            999 V2000
  -30.6974  -14.4672   20.5879 C   0  0  0  0  0  0
  -30.4237  -12.3087   19.4134 C   0  0  0  0  0  0
  -29.4918  -12.5146   18.2018 C   0  0  0  0  0  0
  -28.0126  -12.3736   18.6149 C   0  0  0  0  0  0
  -27.6628  -13.2051   19.8777 C   0  0  2  0  0  0
  -28.7076  -12.9710   20.9919 C   0  0  0  0  0  0
  -25.2599  -13.8161   20.5693 C   0  0  0  0  0  0
  -24.1843  -13.0440   20.9183 C   0  0  0  0  0  0
  -24.6392  -11.6905   20.8747 C   0  0  0  0  0  0
  -23.9059  -10.4294   21.0411 C   0  0  0  0  0  0
  -24.3613   -9.4207   21.9183 C   0  0  0  0  0  0
  -23.6290   -8.2242   22.0751 C   0  0  0  0  0  0
  -22.4272   -8.0280   21.3544 C   0  0  0  0  0  0
  -21.9906   -9.0255   20.4647 C   0  0  0  0  0  0
  -22.7232  -10.2138   20.3057 C   0  0  0  0  0  0
  -21.6853   -6.0734   22.5279 C   0  0  0  0  0  0
  -21.4015   -6.5638   23.8215 C   0  0  0  0  0  0
  -21.3664   -5.6792   24.9177 C   0  0  0  0  0  0
  -21.6047   -4.3054   24.7226 C   0  0  0  0  0  0
  -21.8818   -3.8145   23.4348 C   0  0  0  0  0  0
  -21.9192   -4.6963   22.3403 C   0  0  0  0  0  0
  -22.7866  -13.5239   21.1845 C   0  0  0  0  0  0
  -22.1656   -4.2147   21.0982 F   0  0  0  0  0  0
  -21.5633   -3.4541   25.7740 F   0  0  0  0  0  0
  -30.0330  -13.2876   20.4397 N   0  0  0  0  0  0
  -26.3036  -12.9323   20.3392 N   0  0  0  0  0  0
  -25.9323  -11.6488   20.5786 N   0  0  0  0  0  0
  -22.0502  -12.8235   22.0404 N   0  0  0  0  0  0
  -25.4344  -15.1878   20.4104 N   0  0  0  0  0  0
  -31.8222  -14.6230   20.1088 O   0  0  0  0  0  0
  -21.6638   -6.8875   21.4238 O   0  0  0  0  0  0
  -22.3551  -14.5547   20.6698 O   0  0  0  0  0  0
  -24.6141  -31.8685   23.2109 C   0  0  0  0  0  0
  -25.9039  -32.4823   23.8403 C   0  0  1  0  0  0
  -27.2346  -27.4357   20.1030 C   0  0  0  0  0  0
  -25.5905  -33.8621   24.2340 N   0  0  0  0  0  0
  -23.4030  -30.4904   21.5502 C   0  0  2  0  0  0
  -24.8517  -28.9513   20.1214 C   0  0  0  0  0  0
  -22.7408  -29.4658   22.4992 C   0  0  0  0  0  0
  -18.0273  -28.1387   22.8491 C   0  0  0  0  0  0
  -24.1488  -36.7318   23.2637 C   0  0  0  0  0  0
  -25.9309  -30.8310   21.3668 C   0  0  0  0  0  0
  -26.0091  -29.4617   20.7241 C   0  0  0  0  0  0
  -27.2049  -28.7071   20.7216 C   0  0  0  0  0  0
  -26.0673  -26.9399   19.4918 C   0  0  0  0  0  0
  -24.8735  -27.6868   19.5063 C   0  0  0  0  0  0
  -23.6142  -29.8198   20.1660 C   0  0  0  0  0  0
  -25.4105  -36.3114   24.0341 C   0  0  1  0  0  0
  -20.5863  -28.3671   23.1321 C   0  0  2  0  0  0
  -20.6766  -26.9406   22.5423 C   0  0  0  0  0  0
  -19.5747  -26.6390   21.5218 C   0  0  0  0  0  0
  -18.1921  -26.7933   22.1623 C   0  0  0  0  0  0
  -19.1520  -28.8841   23.2904 C   0  0  0  0  0  0
  -18.9449  -30.1448   23.8913 C   0  0  0  0  0  0
  -17.6456  -30.6589   24.0568 C   0  0  0  0  0  0
  -25.9035  -34.9474   23.5135 C   0  0  0  0  0  0
  -16.5344  -29.9091   23.6326 C   0  0  0  0  0  0
  -16.7261  -28.6516   23.0343 C   0  0  0  0  0  0
  -26.4474  -31.6591   25.0721 C   0  0  0  0  0  0
  -25.3748  -31.3687   26.1477 C   0  0  0  0  0  0
  -27.0300  -30.3031   24.6089 C   0  0  0  0  0  0
  -27.6062  -32.4301   25.7480 C   0  0  0  0  0  0
  -27.5581  -37.1809   24.8465 C   0  0  0  0  0  0
  -21.4139  -29.3037   22.3724 N   0  0  0  0  0  0
  -26.4293  -37.3795   23.9411 N   0  0  0  0  0  0
  -24.6671  -31.0781   22.1014 N   0  0  0  0  0  0
  -23.4172  -28.8198   23.3038 O   0  0  0  0  0  0
  -28.3823  -26.6839   20.0180 O   0  0  0  0  0  0
  -26.5596  -34.8918   22.4694 O   0  0  0  0  0  0
  -23.5332  -32.1444   23.7501 O   0  0  0  0  0  0
  -28.0111  -21.2819   20.3919 C   0  0  0  0  0  0
  -29.0665  -22.1840   20.6465 C   0  0  0  0  0  0
  -29.2927  -19.5994   21.2735 C   0  0  0  0  0  0
  -29.6742  -18.0814   23.2674 C   0  0  0  0  0  0
  -31.8269  -17.4996   21.0804 C   0  0  0  0  0  0
  -29.0030  -23.6660   20.2643 C   0  0  0  0  0  0
  -30.0188  -15.6642   21.3137 C   0  0  0  0  0  0
  -28.4443  -24.5974   21.3679 C   0  0  0  0  0  0
  -28.8454  -26.0882   21.2307 C   0  0  0  0  0  0
  -29.4282  -18.1310   21.7408 C   0  0  2  0  0  0
  -30.3267  -17.1561   20.8660 C   0  0  1  0  0  0
  -29.9661  -17.3498   19.3550 C   0  0  0  0  0  0
  -28.1287  -19.9723   20.7238 N   0  0  0  0  0  0
  -30.2081  -21.7354   21.2252 N   0  0  0  0  0  0
  -30.3207  -20.4321   21.5335 N   0  0  0  0  0  0
  -30.6360  -16.5284   18.5516 F   0  0  0  0  0  0
  -28.6667  -17.1153   19.1708 F   0  0  0  0  0  0
  -30.2408  -18.5786   18.9215 F   0  0  0  0  0  0
  -31.4667  -12.4074   19.1079 H   0  0  0  0  0  0
  -30.3273  -11.2943   19.8045 H   0  0  0  0  0  0
  -29.7300  -11.7976   17.4154 H   0  0  0  0  0  0
  -29.6599  -13.5052   17.7755 H   0  0  0  0  0  0
  -27.8184  -11.3168   18.8021 H   0  0  0  0  0  0
  -27.3623  -12.6586   17.7874 H   0  0  0  0  0  0
  -27.7106  -14.2546   19.5873 H   0  0  0  0  0  0
  -28.6859  -11.9276   21.3105 H   0  0  0  0  0  0
  -28.4752  -13.5427   21.8904 H   0  0  0  0  0  0
  -25.2760   -9.5682   22.4756 H   0  0  0  0  0  0
  -24.0004   -7.4631   22.7467 H   0  0  0  0  0  0
  -21.0838   -8.8774   19.8952 H   0  0  0  0  0  0
  -22.3690  -10.9678   19.6169 H   0  0  0  0  0  0
  -21.2004   -7.6144   23.9717 H   0  0  0  0  0  0
  -21.1490   -6.0522   25.9082 H   0  0  0  0  0  0
  -22.0595   -2.7607   23.2851 H   0  0  0  0  0  0
  -22.4109  -11.9898   22.4801 H   0  0  0  0  0  0
  -21.1127  -13.1269   22.2616 H   0  0  0  0  0  0
  -24.6688  -15.8439   20.5179 H   0  0  0  0  0  0
  -26.2842  -15.6248   20.0770 H   0  0  0  0  0  0
  -26.7107  -32.5541   23.1168 H   0  0  0  0  0  0
  -25.0068  -33.9787   25.0493 H   0  0  0  0  0  0
  -22.6931  -31.3073   21.4082 H   0  0  0  0  0  0
  -23.3748  -35.9654   23.3310 H   0  0  0  0  0  0
  -24.3581  -36.8919   22.2049 H   0  0  0  0  0  0
  -23.7242  -37.6528   23.6640 H   0  0  0  0  0  0
  -26.0422  -31.5912   20.5926 H   0  0  0  0  0  0
  -26.8199  -30.8901   21.9826 H   0  0  0  0  0  0
  -28.1023  -29.1011   21.1782 H   0  0  0  0  0  0
  -26.0860  -25.9747   19.0060 H   0  0  0  0  0  0
  -23.9846  -27.2891   19.0364 H   0  0  0  0  0  0
  -23.7265  -30.5939   19.4059 H   0  0  0  0  0  0
  -22.7385  -29.2402   19.8681 H   0  0  0  0  0  0
  -25.1274  -36.1986   25.0835 H   0  0  0  0  0  0
  -20.9949  -28.3241   24.1446 H   0  0  0  0  0  0
  -20.5679  -26.2277   23.3611 H   0  0  0  0  0  0
  -21.6636  -26.7459   22.1210 H   0  0  0  0  0  0
  -19.6917  -25.6307   21.1237 H   0  0  0  0  0  0
  -19.6695  -27.3210   20.6759 H   0  0  0  0  0  0
  -17.4196  -26.6686   21.4020 H   0  0  0  0  0  0
  -18.0319  -26.0073   22.9018 H   0  0  0  0  0  0
  -19.7925  -30.7258   24.2291 H   0  0  0  0  0  0
  -17.5011  -31.6269   24.5172 H   0  0  0  0  0  0
  -15.5346  -30.3002   23.7648 H   0  0  0  0  0  0
  -15.8664  -28.0843   22.7045 H   0  0  0  0  0  0
  -24.5939  -30.7009   25.7822 H   0  0  0  0  0  0
  -24.8918  -32.2831   26.4929 H   0  0  0  0  0  0
  -25.8117  -30.8867   27.0232 H   0  0  0  0  0  0
  -26.2838  -29.6797   24.1151 H   0  0  0  0  0  0
  -27.4079  -29.7258   25.4538 H   0  0  0  0  0  0
  -27.8669  -30.4352   23.9228 H   0  0  0  0  0  0
  -27.2701  -33.3596   26.2083 H   0  0  0  0  0  0
  -28.3859  -32.6862   25.0295 H   0  0  0  0  0  0
  -28.0745  -31.8405   26.5372 H   0  0  0  0  0  0
  -28.2602  -38.0105   24.7509 H   0  0  0  0  0  0
  -28.1073  -36.2636   24.6290 H   0  0  0  0  0  0
  -27.2298  -37.1456   25.8868 H   0  0  0  0  0  0
  -20.9307  -29.8757   21.6940 H   0  0  0  0  0  0
  -26.0189  -38.2874   24.1415 H   0  0  0  0  0  0
  -27.0890  -21.6038   19.9301 H   0  0  0  0  0  0
  -28.9315  -18.6854   23.7896 H   0  0  0  0  0  0
  -30.6544  -18.4809   23.5273 H   0  0  0  0  0  0
  -29.5991  -17.0783   23.6809 H   0  0  0  0  0  0
  -32.1511  -17.2845   22.0982 H   0  0  0  0  0  0
  -32.0317  -18.5506   20.8865 H   0  0  0  0  0  0
  -32.4817  -16.9532   20.4044 H   0  0  0  0  0  0
  -28.4107  -23.7787   19.3554 H   0  0  0  0  0  0
  -30.0119  -23.9830   19.9973 H   0  0  0  0  0  0
  -28.9400  -15.5455   21.2463 H   0  0  0  0  0  0
  -30.2727  -15.5232   22.3621 H   0  0  0  0  0  0
  -28.8272  -24.2571   22.3306 H   0  0  0  0  0  0
  -27.3598  -24.4981   21.4273 H   0  0  0  0  0  0
  -29.9328  -26.1714   21.2450 H   0  0  0  0  0  0
  -28.4937  -26.6421   22.1030 H   0  0  0  0  0  0
  -28.4155  -17.7389   21.6327 H   0  0  0  0  0  0
  1 25  1  0  0  0
  1 30  2  0  0  0
  1 77  1  0  0  0
  2  3  1  0  0  0
  2 25  1  0  0  0
  2 89  1  0  0  0
  2 90  1  0  0  0
  3  4  1  0  0  0
  3 91  1  0  0  0
  3 92  1  0  0  0
  4  5  1  0  0  0
  4 93  1  0  0  0
  4 94  1  0  0  0
  5  6  1  0  0  0
  5 26  1  0  0  0
  5 95  1  0  0  0
  6 25  1  0  0  0
  6 96  1  0  0  0
  6 97  1  0  0  0
  7  8  2  0  0  0
  7 26  1  0  0  0
  7 29  1  0  0  0
  8  9  1  0  0  0
  8 22  1  0  0  0
  9 10  1  0  0  0
  9 27  2  0  0  0
 10 11  2  0  0  0
 10 15  1  0  0  0
 11 12  1  0  0  0
 11 98  1  0  0  0
 12 13  2  0  0  0
 12 99  1  0  0  0
 13 14  1  0  0  0
 13 31  1  0  0  0
 14 15  2  0  0  0
 14100  1  0  0  0
 15101  1  0  0  0
 16 17  2  0  0  0
 16 21  1  0  0  0
 16 31  1  0  0  0
 17 18  1  0  0  0
 17102  1  0  0  0
 18 19  2  0  0  0
 18103  1  0  0  0
 19 20  1  0  0  0
 19 24  1  0  0  0
 20 21  2  0  0  0
 20104  1  0  0  0
 21 23  1  0  0  0
 22 28  1  0  0  0
 22 32  2  0  0  0
 26 27  1  0  0  0
 28105  1  0  0  0
 28106  1  0  0  0
 29107  1  0  0  0
 29108  1  0  0  0
 33 34  1  0  0  0
 33 66  1  0  0  0
 33 70  2  0  0  0
 34 36  1  0  0  0
 34 59  1  0  0  0
 34109  1  0  0  0
 35 44  2  0  0  0
 35 45  1  0  0  0
 35 68  1  0  0  0
 36 56  1  0  0  0
 36110  1  0  0  0
 37 39  1  0  0  0
 37 47  1  0  0  0
 37 66  1  0  0  0
 37111  1  0  0  0
 38 43  2  0  0  0
 38 46  1  0  0  0
 38 47  1  0  0  0
 39 64  1  0  0  0
 39 67  2  0  0  0
 40 52  1  0  0  0
 40 53  2  0  0  0
 40 58  1  0  0  0
 41112  1  0  0  0
 41113  1  0  0  0
 41114  1  0  0  0
 41 48  1  0  0  0
 42 43  1  0  0  0
 42 66  1  0  0  0
 42115  1  0  0  0
 42116  1  0  0  0
 43 44  1  0  0  0
 44117  1  0  0  0
 45 46  2  0  0  0
 45118  1  0  0  0
 46119  1  0  0  0
 47120  1  0  0  0
 47121  1  0  0  0
 48 56  1  0  0  0
 48 65  1  0  0  0
 48122  1  0  0  0
 49 50  1  0  0  0
 49 53  1  0  0  0
 49 64  1  0  0  0
 49123  1  0  0  0
 50 51  1  0  0  0
 50124  1  0  0  0
 50125  1  0  0  0
 51 52  1  0  0  0
 51126  1  0  0  0
 51127  1  0  0  0
 52128  1  0  0  0
 52129  1  0  0  0
 53 54  1  0  0  0
 54 55  2  0  0  0
 54130  1  0  0  0
 55 57  1  0  0  0
 55131  1  0  0  0
 56 69  2  0  0  0
 57 58  2  0  0  0
 57132  1  0  0  0
 58133  1  0  0  0
 59 60  1  0  0  0
 59 61  1  0  0  0
 59 62  1  0  0  0
 60134  1  0  0  0
 60135  1  0  0  0
 60136  1  0  0  0
 61137  1  0  0  0
 61138  1  0  0  0
 61139  1  0  0  0
 62140  1  0  0  0
 62141  1  0  0  0
 62142  1  0  0  0
 63 65  1  0  0  0
 63143  1  0  0  0
 63144  1  0  0  0
 63145  1  0  0  0
 64146  1  0  0  0
 65147  1  0  0  0
 68 79  1  0  0  0
 71 72  2  0  0  0
 71 83  1  0  0  0
 71148  1  0  0  0
 72 76  1  0  0  0
 72 84  1  0  0  0
 73 80  1  0  0  0
 73 83  2  0  0  0
 73 85  1  0  0  0
 74149  1  0  0  0
 74150  1  0  0  0
 74151  1  0  0  0
 74 80  1  0  0  0
 75152  1  0  0  0
 75153  1  0  0  0
 75154  1  0  0  0
 75 81  1  0  0  0
 76 78  1  0  0  0
 76155  1  0  0  0
 76156  1  0  0  0
 77 81  1  0  0  0
 77157  1  0  0  0
 77158  1  0  0  0
 78 79  1  0  0  0
 78159  1  0  0  0
 78160  1  0  0  0
 79161  1  0  0  0
 79162  1  0  0  0
 80 81  1  0  0  0
 80163  1  0  0  0
 81 82  1  0  0  0
 82 86  1  0  0  0
 82 87  1  0  0  0
 82 88  1  0  0  0
 84 85  2  0  0  0
M  ISO  4   1 100  68 101  77 100  79 101
M  END
> <chiral flag>
0

> <version>
0

> <s_m_source_file>
/data/baiqing/PycharmProjects/Reinvent-master-3.2/result/LINK_invent/BTK/process_docking_weight1_custom_sum_contain_oxygen_bond_distance_aromatic_linkinvent_7_9_3/rearranged_h_0067.sdf

> <i_m_source_file_index>
33

> <r_mmod_Potential_Energy-OPLS-2005>
-134.894226074219

> <r_mmod_Stretch_Energy-OPLS-2005>
49.2440605163574

> <r_mmod_Bend_Energy-OPLS-2005>
121.21492767334

> <r_mmod_Torsional_Energy-OPLS-2005>
171.986557006836

> <r_mmod_Improper_Torsional_Energy-OPLS-2005>
2.40797019004822

> <r_mmod_Van_der_Waal_Energy-OPLS-2005>
166.671630859375

> <r_mmod_Electrostatic_Energy-OPLS-2005>
-450.272827148438

> <r_mmod_Solvation_Energy-OPLS-2005>
-207.378387451172

> <b_mmod_Minimization_Converged-OPLS-2005>
0

> <r_mmod_RMS_Derivative-OPLS-2005>
0.988563299179077

$$$$
33
                    3D
 Structure written by MMmdl.
166174  0  0  1  0            999 V2000
  -30.7799  -14.4501   20.6117 C   0  0  0  0  0  0
  -30.4023  -12.3110   19.4367 C   0  0  0  0  0  0
  -29.4921  -12.5221   18.2120 C   0  0  0  0  0  0
  -28.0128  -12.3799   18.6155 C   0  0  0  0  0  0
  -27.6578  -13.2180   19.8714 C   0  0  2  0  0  0
  -28.6966  -13.0218   20.9975 C   0  0  0  0  0  0
  -25.2562  -13.8180   20.5675 C   0  0  0  0  0  0
  -24.1828  -13.0438   20.9161 C   0  0  0  0  0  0
  -24.6396  -11.6909   20.8701 C   0  0  0  0  0  0
  -23.9053  -10.4288   21.0371 C   0  0  0  0  0  0
  -24.3612   -9.4213   21.9152 C   0  0  0  0  0  0
  -23.6293   -8.2249   22.0740 C   0  0  0  0  0  0
  -22.4273   -8.0277   21.3548 C   0  0  0  0  0  0
  -21.9902   -9.0236   20.4637 C   0  0  0  0  0  0
  -22.7220  -10.2120   20.3030 C   0  0  0  0  0  0
  -21.6860   -6.0717   22.5272 C   0  0  0  0  0  0
  -21.4021   -6.5618   23.8205 C   0  0  0  0  0  0
  -21.3665   -5.6769   24.9168 C   0  0  0  0  0  0
  -21.6048   -4.3033   24.7218 C   0  0  0  0  0  0
  -21.8824   -3.8126   23.4337 C   0  0  0  0  0  0
  -21.9194   -4.6943   22.3390 C   0  0  0  0  0  0
  -22.7849  -13.5230   21.1824 C   0  0  0  0  0  0
  -22.1669   -4.2123   21.0968 F   0  0  0  0  0  0
  -21.5632   -3.4526   25.7735 F   0  0  0  0  0  0
  -30.0315  -13.3163   20.4509 N   0  0  0  0  0  0
  -26.3005  -12.9373   20.3342 N   0  0  0  0  0  0
  -25.9331  -11.6516   20.5731 N   0  0  0  0  0  0
  -22.0512  -12.8229   22.0403 N   0  0  0  0  0  0
  -25.4258  -15.1901   20.4079 N   0  0  0  0  0  0
  -31.8860  -14.5601   20.0712 O   0  0  0  0  0  0
  -21.6656   -6.8862   21.4238 O   0  0  0  0  0  0
  -22.3511  -14.5515   20.6648 O   0  0  0  0  0  0
  -24.6204  -31.8686   23.2127 C   0  0  0  0  0  0
  -25.9083  -32.4825   23.8417 C   0  0  1  0  0  0
  -27.2156  -27.4076   20.0855 C   0  0  0  0  0  0
  -25.5933  -33.8622   24.2340 N   0  0  0  0  0  0
  -23.4066  -30.4997   21.5539 C   0  0  2  0  0  0
  -24.8459  -28.9750   20.1126 C   0  0  0  0  0  0
  -22.7445  -29.4676   22.4965 C   0  0  0  0  0  0
  -18.0282  -28.1380   22.8490 C   0  0  0  0  0  0
  -24.1483  -36.7312   23.2636 C   0  0  0  0  0  0
  -25.9428  -30.8258   21.3723 C   0  0  0  0  0  0
  -26.0135  -29.4620   20.7127 C   0  0  0  0  0  0
  -27.2018  -28.6868   20.6987 C   0  0  0  0  0  0
  -26.0190  -26.9598   19.4668 C   0  0  0  0  0  0
  -24.8453  -27.7229   19.4873 C   0  0  0  0  0  0
  -23.6142  -29.8467   20.1646 C   0  0  0  0  0  0
  -25.4105  -36.3110   24.0341 C   0  0  1  0  0  0
  -20.5879  -28.3675   23.1298 C   0  0  2  0  0  0
  -20.6767  -26.9407   22.5406 C   0  0  0  0  0  0
  -19.5734  -26.6384   21.5212 C   0  0  0  0  0  0
  -18.1919  -26.7923   22.1629 C   0  0  0  0  0  0
  -19.1536  -28.8844   23.2891 C   0  0  0  0  0  0
  -18.9462  -30.1450   23.8897 C   0  0  0  0  0  0
  -17.6461  -30.6581   24.0574 C   0  0  0  0  0  0
  -25.9046  -34.9482   23.5137 C   0  0  0  0  0  0
  -16.5355  -29.9085   23.6323 C   0  0  0  0  0  0
  -16.7273  -28.6509   23.0340 C   0  0  0  0  0  0
  -26.4503  -31.6602   25.0747 C   0  0  0  0  0  0
  -25.3775  -31.3712   26.1502 C   0  0  0  0  0  0
  -27.0333  -30.3038   24.6134 C   0  0  0  0  0  0
  -27.6057  -32.4335   25.7511 C   0  0  0  0  0  0
  -27.5581  -37.1813   24.8468 C   0  0  0  0  0  0
  -21.4166  -29.3048   22.3715 N   0  0  0  0  0  0
  -26.4283  -37.3800   23.9429 N   0  0  0  0  0  0
  -24.6746  -31.0792   22.1030 N   0  0  0  0  0  0
  -23.4220  -28.8199   23.2996 O   0  0  0  0  0  0
  -28.3588  -26.6139   20.1156 O   0  0  0  0  0  0
  -26.5590  -34.8929   22.4686 O   0  0  0  0  0  0
  -23.5392  -32.1434   23.7523 O   0  0  0  0  0  0
  -31.2637  -19.3911   19.1530 C   0  0  0  0  0  0
  -30.1194  -19.3524   19.9919 C   0  0  0  0  0  0
  -30.8647  -21.6065   18.6348 C   0  0  0  0  0  0
  -29.7426  -21.6142   19.5113 C   0  0  0  0  0  0
  -32.4885  -23.5286   18.2241 C   0  0  0  0  0  0
  -28.3108  -17.5772   19.9261 C   0  0  0  0  0  0
  -29.8897  -15.5725   22.5974 C   0  0  0  0  0  0
  -31.2504  -22.7670   17.7262 C   0  0  0  0  0  0
  -28.7565  -22.7874   19.5889 C   0  0  0  0  0  0
  -29.2580  -24.1907   20.0570 C   0  0  0  0  0  0
  -30.6487  -16.8871   20.6555 C   0  0  0  0  0  0
  -28.1416  -25.2225   19.7896 C   0  0  0  0  0  0
  -29.5979  -18.0396   20.6306 C   0  0  1  0  0  0
  -31.6390  -20.5056   18.4894 N   0  0  0  0  0  0
  -29.3866  -20.4863   20.1950 N   0  0  0  0  0  0
  -30.2010  -15.5563   21.1613 N   0  0  0  0  0  0
  -31.4506  -12.3643   19.1398 H   0  0  0  0  0  0
  -30.2699  -11.3054   19.8405 H   0  0  0  0  0  0
  -29.7380  -11.8063   17.4271 H   0  0  0  0  0  0
  -29.6684  -13.5126   17.7889 H   0  0  0  0  0  0
  -27.8194  -11.3243   18.8077 H   0  0  0  0  0  0
  -27.3658  -12.6584   17.7817 H   0  0  0  0  0  0
  -27.6983  -14.2648   19.5706 H   0  0  0  0  0  0
  -28.6727  -11.9966   21.3707 H   0  0  0  0  0  0
  -28.4310  -13.6427   21.8482 H   0  0  0  0  0  0
  -25.2769   -9.5696   22.4711 H   0  0  0  0  0  0
  -24.0004   -7.4643   22.7471 H   0  0  0  0  0  0
  -21.0825   -8.8728   19.8954 H   0  0  0  0  0  0
  -22.3661  -10.9635   19.6118 H   0  0  0  0  0  0
  -21.2029   -7.6129   23.9701 H   0  0  0  0  0  0
  -21.1488   -6.0505   25.9069 H   0  0  0  0  0  0
  -22.0607   -2.7589   23.2842 H   0  0  0  0  0  0
  -22.4152  -11.9890   22.4761 H   0  0  0  0  0  0
  -21.1125  -13.1238   22.2622 H   0  0  0  0  0  0
  -24.6618  -15.8478   20.5201 H   0  0  0  0  0  0
  -26.2822  -15.6253   20.0911 H   0  0  0  0  0  0
  -26.7158  -32.5523   23.1182 H   0  0  0  0  0  0
  -25.0143  -33.9783   25.0528 H   0  0  0  0  0  0
  -22.6958  -31.3184   21.4211 H   0  0  0  0  0  0
  -23.3748  -35.9642   23.3295 H   0  0  0  0  0  0
  -24.3585  -36.8927   22.2051 H   0  0  0  0  0  0
  -23.7227  -37.6515   23.6649 H   0  0  0  0  0  0
  -26.0670  -31.5932   20.6076 H   0  0  0  0  0  0
  -26.8278  -30.8693   21.9957 H   0  0  0  0  0  0
  -28.0990  -29.0564   21.1752 H   0  0  0  0  0  0
  -25.9414  -26.0118   18.9567 H   0  0  0  0  0  0
  -23.9501  -27.3437   19.0137 H   0  0  0  0  0  0
  -23.7348  -30.6269   19.4119 H   0  0  0  0  0  0
  -22.7353  -29.2766   19.8577 H   0  0  0  0  0  0
  -25.1279  -36.1970   25.0832 H   0  0  0  0  0  0
  -20.9982  -28.3238   24.1414 H   0  0  0  0  0  0
  -20.5662  -26.2296   23.3608 H   0  0  0  0  0  0
  -21.6637  -26.7437   22.1203 H   0  0  0  0  0  0
  -19.6893  -25.6301   21.1225 H   0  0  0  0  0  0
  -19.6653  -27.3208   20.6753 H   0  0  0  0  0  0
  -17.4191  -26.6684   21.4027 H   0  0  0  0  0  0
  -18.0309  -26.0059   22.9019 H   0  0  0  0  0  0
  -19.7943  -30.7267   24.2255 H   0  0  0  0  0  0
  -17.5023  -31.6250   24.5191 H   0  0  0  0  0  0
  -15.5356  -30.2995   23.7635 H   0  0  0  0  0  0
  -15.8676  -28.0838   22.7035 H   0  0  0  0  0  0
  -24.5939  -30.7060   25.7864 H   0  0  0  0  0  0
  -24.8987  -32.2872   26.4971 H   0  0  0  0  0  0
  -25.8147  -30.8881   27.0251 H   0  0  0  0  0  0
  -26.2875  -29.6795   24.1197 H   0  0  0  0  0  0
  -27.4109  -29.7282   25.4598 H   0  0  0  0  0  0
  -27.8720  -30.4354   23.9290 H   0  0  0  0  0  0
  -27.2647  -33.3626   26.2102 H   0  0  0  0  0  0
  -28.3859  -32.6916   25.0335 H   0  0  0  0  0  0
  -28.0738  -31.8461   26.5428 H   0  0  0  0  0  0
  -28.2597  -38.0113   24.7537 H   0  0  0  0  0  0
  -28.1074  -36.2650   24.6255 H   0  0  0  0  0  0
  -27.2315  -37.1422   25.8873 H   0  0  0  0  0  0
  -20.9332  -29.8831   21.6982 H   0  0  0  0  0  0
  -26.0170  -38.2878   24.1429 H   0  0  0  0  0  0
  -31.8799  -18.5265   18.9610 H   0  0  0  0  0  0
  -32.7570  -24.3272   17.5319 H   0  0  0  0  0  0
  -33.3487  -22.8641   18.3124 H   0  0  0  0  0  0
  -32.3210  -23.9780   19.2021 H   0  0  0  0  0  0
  -27.5455  -18.3538   19.9461 H   0  0  0  0  0  0
  -27.8885  -16.7001   20.4124 H   0  0  0  0  0  0
  -28.4988  -17.3232   18.8828 H   0  0  0  0  0  0
  -30.3999  -16.3857   23.1146 H   0  0  0  0  0  0
  -30.1818  -14.6486   23.1018 H   0  0  0  0  0  0
  -28.8198  -15.7159   22.7495 H   0  0  0  0  0  0
  -30.4118  -23.4461   17.5779 H   0  0  0  0  0  0
  -31.4591  -22.3665   16.7333 H   0  0  0  0  0  0
  -27.9271  -22.4967   20.2354 H   0  0  0  0  0  0
  -28.3155  -22.8698   18.5947 H   0  0  0  0  0  0
  -30.1451  -24.5064   19.5170 H   0  0  0  0  0  0
  -29.5254  -24.1700   21.1130 H   0  0  0  0  0  0
  -31.5367  -17.2031   21.2062 H   0  0  0  0  0  0
  -30.9665  -16.7497   19.6210 H   0  0  0  0  0  0
  -27.2691  -24.8638   20.3391 H   0  0  0  0  0  0
  -27.9120  -25.1683   18.7242 H   0  0  0  0  0  0
  -29.3472  -18.2765   21.6662 H   0  0  0  0  0  0
  1 25  1  0  0  0
  1 30  2  0  0  0
  1 86  1  0  0  0
  2  3  1  0  0  0
  2 25  1  0  0  0
  2 87  1  0  0  0
  2 88  1  0  0  0
  3  4  1  0  0  0
  3 89  1  0  0  0
  3 90  1  0  0  0
  4  5  1  0  0  0
  4 91  1  0  0  0
  4 92  1  0  0  0
  5  6  1  0  0  0
  5 26  1  0  0  0
  5 93  1  0  0  0
  6 25  1  0  0  0
  6 94  1  0  0  0
  6 95  1  0  0  0
  7  8  2  0  0  0
  7 26  1  0  0  0
  7 29  1  0  0  0
  8  9  1  0  0  0
  8 22  1  0  0  0
  9 10  1  0  0  0
  9 27  2  0  0  0
 10 11  2  0  0  0
 10 15  1  0  0  0
 11 12  1  0  0  0
 11 96  1  0  0  0
 12 13  2  0  0  0
 12 97  1  0  0  0
 13 14  1  0  0  0
 13 31  1  0  0  0
 14 15  2  0  0  0
 14 98  1  0  0  0
 15 99  1  0  0  0
 16 17  2  0  0  0
 16 21  1  0  0  0
 16 31  1  0  0  0
 17 18  1  0  0  0
 17100  1  0  0  0
 18 19  2  0  0  0
 18101  1  0  0  0
 19 20  1  0  0  0
 19 24  1  0  0  0
 20 21  2  0  0  0
 20102  1  0  0  0
 21 23  1  0  0  0
 22 28  1  0  0  0
 22 32  2  0  0  0
 26 27  1  0  0  0
 28103  1  0  0  0
 28104  1  0  0  0
 29105  1  0  0  0
 29106  1  0  0  0
 33 34  1  0  0  0
 33 66  1  0  0  0
 33 70  2  0  0  0
 34 36  1  0  0  0
 34 59  1  0  0  0
 34107  1  0  0  0
 35 44  2  0  0  0
 35 45  1  0  0  0
 35 68  1  0  0  0
 36 56  1  0  0  0
 36108  1  0  0  0
 37 39  1  0  0  0
 37 47  1  0  0  0
 37 66  1  0  0  0
 37109  1  0  0  0
 38 43  2  0  0  0
 38 46  1  0  0  0
 38 47  1  0  0  0
 39 64  1  0  0  0
 39 67  2  0  0  0
 40 52  1  0  0  0
 40 53  2  0  0  0
 40 58  1  0  0  0
 41110  1  0  0  0
 41111  1  0  0  0
 41112  1  0  0  0
 41 48  1  0  0  0
 42 43  1  0  0  0
 42 66  1  0  0  0
 42113  1  0  0  0
 42114  1  0  0  0
 43 44  1  0  0  0
 44115  1  0  0  0
 45 46  2  0  0  0
 45116  1  0  0  0
 46117  1  0  0  0
 47118  1  0  0  0
 47119  1  0  0  0
 48 56  1  0  0  0
 48 65  1  0  0  0
 48120  1  0  0  0
 49 50  1  0  0  0
 49 53  1  0  0  0
 49 64  1  0  0  0
 49121  1  0  0  0
 50 51  1  0  0  0
 50122  1  0  0  0
 50123  1  0  0  0
 51 52  1  0  0  0
 51124  1  0  0  0
 51125  1  0  0  0
 52126  1  0  0  0
 52127  1  0  0  0
 53 54  1  0  0  0
 54 55  2  0  0  0
 54128  1  0  0  0
 55 57  1  0  0  0
 55129  1  0  0  0
 56 69  2  0  0  0
 57 58  2  0  0  0
 57130  1  0  0  0
 58131  1  0  0  0
 59 60  1  0  0  0
 59 61  1  0  0  0
 59 62  1  0  0  0
 60132  1  0  0  0
 60133  1  0  0  0
 60134  1  0  0  0
 61135  1  0  0  0
 61136  1  0  0  0
 61137  1  0  0  0
 62138  1  0  0  0
 62139  1  0  0  0
 62140  1  0  0  0
 63 65  1  0  0  0
 63141  1  0  0  0
 63142  1  0  0  0
 63143  1  0  0  0
 64144  1  0  0  0
 65145  1  0  0  0
 68 82  1  0  0  0
 71 72  2  0  0  0
 71 84  1  0  0  0
 71146  1  0  0  0
 72 83  1  0  0  0
 72 85  1  0  0  0
 73 74  1  0  0  0
 73 78  1  0  0  0
 73 84  2  0  0  0
 74 79  1  0  0  0
 74 85  2  0  0  0
 75 78  1  0  0  0
 75147  1  0  0  0
 75148  1  0  0  0
 75149  1  0  0  0
 76150  1  0  0  0
 76151  1  0  0  0
 76152  1  0  0  0
 76 83  1  0  0  0
 77 86  1  0  0  0
 77153  1  0  0  0
 77154  1  0  0  0
 77155  1  0  0  0
 78156  1  0  0  0
 78157  1  0  0  0
 79 80  1  0  0  0
 79158  1  0  0  0
 79159  1  0  0  0
 80 82  1  0  0  0
 80160  1  0  0  0
 80161  1  0  0  0
 81 83  1  0  0  0
 81 86  1  0  0  0
 81162  1  0  0  0
 81163  1  0  0  0
 82164  1  0  0  0
 82165  1  0  0  0
 83166  1  0  0  0
M  ISO  4   1 100  68 101  82 101  86 100
M  END
> <chiral flag>
0

> <version>
0

> <s_m_source_file>
/data/baiqing/PycharmProjects/Reinvent-master-3.2/result/LINK_invent/BTK/process_docking_weight1_custom_sum_contain_oxygen_bond_distance_aromatic_linkinvent_7_9_3/rearranged_h_0067.sdf

> <i_m_source_file_index>
34

> <r_mmod_Potential_Energy-OPLS-2005>
160.003799438477

> <r_mmod_Stretch_Energy-OPLS-2005>
50.4605178833008

> <r_mmod_Bend_Energy-OPLS-2005>
126.351066589355

> <r_mmod_Torsional_Energy-OPLS-2005>
250.115173339844

> <r_mmod_Improper_Torsional_Energy-OPLS-2005>
9.51424694061279

> <r_mmod_Van_der_Waal_Energy-OPLS-2005>
179.209060668945

> <r_mmod_Electrostatic_Energy-OPLS-2005>
-269.421203613281

> <r_mmod_Solvation_Energy-OPLS-2005>
-204.263549804688

> <b_mmod_Minimization_Converged-OPLS-2005>
0

> <r_mmod_RMS_Derivative-OPLS-2005>
1.92936015129089

$$$$
34
                    3D
 Structure written by MMmdl.
194202  0  0  1  0            999 V2000
  -30.7146  -14.6062   20.6182 C   0  0  0  0  0  0
  -30.4276  -12.4087   19.4537 C   0  0  0  0  0  0
  -29.5094  -12.5461   18.2189 C   0  0  0  0  0  0
  -28.0280  -12.3852   18.6173 C   0  0  0  0  0  0
  -27.6546  -13.2309   19.8623 C   0  0  2  0  0  0
  -28.6939  -13.0130   20.9767 C   0  0  0  0  0  0
  -25.2563  -13.8226   20.5666 C   0  0  0  0  0  0
  -24.1836  -13.0455   20.9151 C   0  0  0  0  0  0
  -24.6423  -11.6937   20.8693 C   0  0  0  0  0  0
  -23.9087  -10.4305   21.0376 C   0  0  0  0  0  0
  -24.3623   -9.4223   21.9162 C   0  0  0  0  0  0
  -23.6301   -8.2251   22.0733 C   0  0  0  0  0  0
  -22.4279   -8.0284   21.3534 C   0  0  0  0  0  0
  -21.9916   -9.0265   20.4636 C   0  0  0  0  0  0
  -22.7256  -10.2139   20.3033 C   0  0  0  0  0  0
  -21.6872   -6.0716   22.5268 C   0  0  0  0  0  0
  -21.4031   -6.5620   23.8202 C   0  0  0  0  0  0
  -21.3653   -5.6771   24.9166 C   0  0  0  0  0  0
  -21.6054   -4.3036   24.7223 C   0  0  0  0  0  0
  -21.8834   -3.8124   23.4347 C   0  0  0  0  0  0
  -21.9198   -4.6938   22.3398 C   0  0  0  0  0  0
  -22.7860  -13.5230   21.1832 C   0  0  0  0  0  0
  -22.1669   -4.2118   21.0980 F   0  0  0  0  0  0
  -21.5621   -3.4527   25.7742 F   0  0  0  0  0  0
  -30.0115  -13.4224   20.4630 N   0  0  0  0  0  0
  -26.2999  -12.9427   20.3278 N   0  0  0  0  0  0
  -25.9350  -11.6562   20.5687 N   0  0  0  0  0  0
  -22.0512  -12.8197   22.0391 N   0  0  0  0  0  0
  -25.4255  -15.1941   20.4146 N   0  0  0  0  0  0
  -31.8085  -14.6660   20.0395 O   0  0  0  0  0  0
  -21.6653   -6.8868   21.4233 O   0  0  0  0  0  0
  -22.3510  -14.5510   20.6670 O   0  0  0  0  0  0
  -24.6222  -31.8615   23.2026 C   0  0  0  0  0  0
  -25.9083  -32.4788   23.8351 C   0  0  1  0  0  0
  -27.2343  -27.3594   20.1154 C   0  0  0  0  0  0
  -25.5910  -33.8590   24.2282 N   0  0  0  0  0  0
  -23.4142  -30.4820   21.5455 C   0  0  2  0  0  0
  -24.8608  -28.9332   20.1174 C   0  0  0  0  0  0
  -22.7452  -29.4626   22.4972 C   0  0  0  0  0  0
  -18.0277  -28.1382   22.8491 C   0  0  0  0  0  0
  -24.1489  -36.7299   23.2639 C   0  0  0  0  0  0
  -25.9494  -30.8044   21.3655 C   0  0  0  0  0  0
  -26.0252  -29.4322   20.7141 C   0  0  0  0  0  0
  -27.2156  -28.6570   20.6994 C   0  0  0  0  0  0
  -26.0477  -26.8911   19.5124 C   0  0  0  0  0  0
  -24.8708  -27.6657   19.5095 C   0  0  0  0  0  0
  -23.6265  -29.8088   20.1630 C   0  0  0  0  0  0
  -25.4113  -36.3093   24.0332 C   0  0  1  0  0  0
  -20.5873  -28.3678   23.1302 C   0  0  2  0  0  0
  -20.6770  -26.9408   22.5415 C   0  0  0  0  0  0
  -19.5748  -26.6385   21.5216 C   0  0  0  0  0  0
  -18.1925  -26.7925   22.1625 C   0  0  0  0  0  0
  -19.1529  -28.8847   23.2890 C   0  0  0  0  0  0
  -18.9454  -30.1450   23.8907 C   0  0  0  0  0  0
  -17.6456  -30.6587   24.0566 C   0  0  0  0  0  0
  -25.9046  -34.9462   23.5107 C   0  0  0  0  0  0
  -16.5346  -29.9090   23.6328 C   0  0  0  0  0  0
  -16.7264  -28.6505   23.0351 C   0  0  0  0  0  0
  -26.4483  -31.6590   25.0710 C   0  0  0  0  0  0
  -25.3726  -31.3716   26.1442 C   0  0  0  0  0  0
  -27.0321  -30.3023   24.6128 C   0  0  0  0  0  0
  -27.6046  -32.4323   25.7474 C   0  0  0  0  0  0
  -27.5582  -37.1799   24.8461 C   0  0  0  0  0  0
  -21.4170  -29.3036   22.3707 N   0  0  0  0  0  0
  -26.4291  -37.3785   23.9413 N   0  0  0  0  0  0
  -24.6807  -31.0656   22.0957 N   0  0  0  0  0  0
  -23.4188  -28.8177   23.3052 O   0  0  0  0  0  0
  -28.3971  -26.5940   20.0997 O   0  0  0  0  0  0
  -26.5618  -34.8924   22.4678 O   0  0  0  0  0  0
  -23.5395  -32.1401   23.7379 O   0  0  0  0  0  0
  -29.8193  -17.0433   19.0732 C   0  0  0  0  0  0
  -29.2907  -18.2284   18.5147 C   0  0  0  0  0  0
  -29.7160  -17.0793   20.4347 C   0  0  0  0  0  0
  -28.7545  -19.0271   19.4951 C   0  0  0  0  0  0
  -26.6015  -21.3754   17.0555 C   0  0  0  0  0  0
  -27.7046  -18.6159   22.8102 C   0  0  0  0  0  0
  -25.2696  -20.8735   20.0016 C   0  0  0  0  0  0
  -25.7694  -18.5834   19.0316 C   0  0  0  0  0  0
  -31.6492  -16.5234   21.9455 C   0  0  0  0  0  0
  -30.1081  -22.6391   21.1366 C   0  0  0  0  0  0
  -30.4290  -22.0085   18.7962 C   0  0  0  0  0  0
  -28.3055  -24.3199   18.0268 C   0  0  0  0  0  0
  -30.4684  -24.9496   19.0511 C   0  0  0  0  0  0
  -27.6850  -20.4727   17.6739 C   0  0  0  0  0  0
  -28.1101  -21.7198   19.9139 C   0  0  0  0  0  0
  -28.9823  -18.9784   22.0380 C   0  0  0  0  0  0
  -28.3476  -25.1503   20.3756 C   0  0  0  0  0  0
  -26.3710  -19.8086   19.7601 C   0  0  0  0  0  0
  -30.2948  -15.9678   21.4048 C   0  0  2  0  0  0
  -27.7975  -20.2745   19.2396 C   0  0  2  0  0  0
  -29.3995  -22.6615   19.7576 C   0  0  0  0  0  0
  -29.1197  -24.2260   19.3349 C   0  0  0  0  0  0
  -29.4418  -15.6753   22.6875 C   0  0  0  0  0  0
  -29.1302  -18.3694   20.7118 N   0  0  0  0  0  0
  -29.8425  -14.5501   23.2852 F   0  0  0  0  0  0
  -29.5790  -16.6072   23.6291 F   0  0  0  0  0  0
  -28.1433  -15.5901   22.4050 F   0  0  0  0  0  0
  -31.4718  -12.4941   19.1488 H   0  0  0  0  0  0
  -30.3484  -11.4019   19.8661 H   0  0  0  0  0  0
  -29.7780  -11.7999   17.4700 H   0  0  0  0  0  0
  -29.6668  -13.5194   17.7494 H   0  0  0  0  0  0
  -27.8583  -11.3290   18.8291 H   0  0  0  0  0  0
  -27.3768  -12.6354   17.7795 H   0  0  0  0  0  0
  -27.6911  -14.2802   19.5658 H   0  0  0  0  0  0
  -28.7193  -11.9546   21.2386 H   0  0  0  0  0  0
  -28.3829  -13.4676   21.9008 H   0  0  0  0  0  0
  -25.2760   -9.5704   22.4741 H   0  0  0  0  0  0
  -24.0016   -7.4637   22.7438 H   0  0  0  0  0  0
  -21.0844   -8.8794   19.8946 H   0  0  0  0  0  0
  -22.3719  -10.9669   19.6130 H   0  0  0  0  0  0
  -21.2050   -7.6130   23.9708 H   0  0  0  0  0  0
  -21.1449   -6.0492   25.9063 H   0  0  0  0  0  0
  -22.0620   -2.7583   23.2869 H   0  0  0  0  0  0
  -22.4149  -11.9870   22.4785 H   0  0  0  0  0  0
  -21.1102  -13.1173   22.2532 H   0  0  0  0  0  0
  -24.6694  -15.8509   20.5656 H   0  0  0  0  0  0
  -26.3045  -15.6471   20.1970 H   0  0  0  0  0  0
  -26.7156  -32.5471   23.1108 H   0  0  0  0  0  0
  -25.0061  -33.9740   25.0427 H   0  0  0  0  0  0
  -22.7065  -31.3010   21.4005 H   0  0  0  0  0  0
  -23.3755  -35.9626   23.3293 H   0  0  0  0  0  0
  -24.3584  -36.8927   22.2055 H   0  0  0  0  0  0
  -23.7232  -37.6496   23.6663 H   0  0  0  0  0  0
  -26.0707  -31.5651   20.5934 H   0  0  0  0  0  0
  -26.8340  -30.8588   21.9884 H   0  0  0  0  0  0
  -28.1171  -29.0412   21.1555 H   0  0  0  0  0  0
  -26.0234  -25.9245   19.0334 H   0  0  0  0  0  0
  -23.9778  -27.2776   19.0394 H   0  0  0  0  0  0
  -23.7417  -30.5807   19.4014 H   0  0  0  0  0  0
  -22.7484  -29.2324   19.8662 H   0  0  0  0  0  0
  -25.1291  -36.1948   25.0824 H   0  0  0  0  0  0
  -20.9957  -28.3247   24.1426 H   0  0  0  0  0  0
  -20.5680  -26.2288   23.3609 H   0  0  0  0  0  0
  -21.6638  -26.7452   22.1203 H   0  0  0  0  0  0
  -19.6911  -25.6298   21.1242 H   0  0  0  0  0  0
  -19.6683  -27.3201   20.6752 H   0  0  0  0  0  0
  -17.4195  -26.6674   21.4025 H   0  0  0  0  0  0
  -18.0322  -26.0064   22.9019 H   0  0  0  0  0  0
  -19.7930  -30.7260   24.2283 H   0  0  0  0  0  0
  -17.5011  -31.6269   24.5166 H   0  0  0  0  0  0
  -15.5348  -30.2998   23.7642 H   0  0  0  0  0  0
  -15.8661  -28.0827   22.7064 H   0  0  0  0  0  0
  -24.5896  -30.7072   25.7768 H   0  0  0  0  0  0
  -24.8925  -32.2882   26.4882 H   0  0  0  0  0  0
  -25.8060  -30.8881   27.0206 H   0  0  0  0  0  0
  -26.2879  -29.6774   24.1172 H   0  0  0  0  0  0
  -27.4063  -29.7273   25.4608 H   0  0  0  0  0  0
  -27.8727  -30.4326   23.9307 H   0  0  0  0  0  0
  -27.2656  -33.3619   26.2056 H   0  0  0  0  0  0
  -28.3847  -32.6888   25.0294 H   0  0  0  0  0  0
  -28.0721  -31.8446   26.5383 H   0  0  0  0  0  0
  -28.2590  -38.0108   24.7533 H   0  0  0  0  0  0
  -28.1090  -36.2642   24.6258 H   0  0  0  0  0  0
  -27.2305  -37.1412   25.8865 H   0  0  0  0  0  0
  -20.9350  -29.8754   21.6910 H   0  0  0  0  0  0
  -26.0176  -38.2859   24.1423 H   0  0  0  0  0  0
  -30.2640  -16.2415   18.5002 H   0  0  0  0  0  0
  -29.2591  -18.4096   17.4507 H   0  0  0  0  0  0
  -26.8486  -21.6000   16.0168 H   0  0  0  0  0  0
  -26.4810  -22.3204   17.5668 H   0  0  0  0  0  0
  -25.6296  -20.8843   17.0383 H   0  0  0  0  0  0
  -27.1560  -17.7966   22.3492 H   0  0  0  0  0  0
  -27.0371  -19.4742   22.8775 H   0  0  0  0  0  0
  -27.9337  -18.3431   23.8403 H   0  0  0  0  0  0
  -24.3582  -20.4046   20.3734 H   0  0  0  0  0  0
  -24.9902  -21.4264   19.1095 H   0  0  0  0  0  0
  -25.5534  -21.5987   20.7637 H   0  0  0  0  0  0
  -24.9054  -18.1955   19.5716 H   0  0  0  0  0  0
  -26.4813  -17.7616   18.9530 H   0  0  0  0  0  0
  -25.4289  -18.8243   18.0259 H   0  0  0  0  0  0
  -31.5372  -17.3960   22.5829 H   0  0  0  0  0  0
  -32.3131  -16.8366   21.1384 H   0  0  0  0  0  0
  -32.1750  -15.7727   22.5373 H   0  0  0  0  0  0
  -30.4433  -21.6342   21.3877 H   0  0  0  0  0  0
  -29.4588  -22.9723   21.9463 H   0  0  0  0  0  0
  -31.0034  -23.2566   21.1654 H   0  0  0  0  0  0
  -30.5380  -20.9413   18.9813 H   0  0  0  0  0  0
  -31.4297  -22.4194   18.9285 H   0  0  0  0  0  0
  -30.1849  -22.1441   17.7458 H   0  0  0  0  0  0
  -28.3724  -25.3170   17.5894 H   0  0  0  0  0  0
  -27.2475  -24.1603   18.2156 H   0  0  0  0  0  0
  -28.6296  -23.6135   17.2649 H   0  0  0  0  0  0
  -30.3170  -25.9737   18.7104 H   0  0  0  0  0  0
  -31.0463  -24.4760   18.2593 H   0  0  0  0  0  0
  -31.1012  -25.0225   19.9339 H   0  0  0  0  0  0
  -28.6438  -20.7757   17.2682 H   0  0  0  0  0  0
  -27.4891  -19.5151   17.1958 H   0  0  0  0  0  0
  -27.9149  -21.6012   20.9774 H   0  0  0  0  0  0
  -27.2955  -22.3742   19.6270 H   0  0  0  0  0  0
  -29.8616  -18.7541   22.6333 H   0  0  0  0  0  0
  -29.0276  -20.0555   21.9365 H   0  0  0  0  0  0
  -28.8072  -25.0446   21.3573 H   0  0  0  0  0  0
  -27.3271  -24.7925   20.5165 H   0  0  0  0  0  0
  -26.5442  -19.4462   20.7608 H   0  0  0  0  0  0
  1 25  1  0  0  0
  1 30  2  0  0  0
  1 89  1  0  0  0
  2  3  1  0  0  0
  2 25  1  0  0  0
  2 98  1  0  0  0
  2 99  1  0  0  0
  3  4  1  0  0  0
  3100  1  0  0  0
  3101  1  0  0  0
  4  5  1  0  0  0
  4102  1  0  0  0
  4103  1  0  0  0
  5  6  1  0  0  0
  5 26  1  0  0  0
  5104  1  0  0  0
  6 25  1  0  0  0
  6105  1  0  0  0
  6106  1  0  0  0
  7  8  2  0  0  0
  7 26  1  0  0  0
  7 29  1  0  0  0
  8  9  1  0  0  0
  8 22  1  0  0  0
  9 10  1  0  0  0
  9 27  2  0  0  0
 10 11  2  0  0  0
 10 15  1  0  0  0
 11 12  1  0  0  0
 11107  1  0  0  0
 12 13  2  0  0  0
 12108  1  0  0  0
 13 14  1  0  0  0
 13 31  1  0  0  0
 14 15  2  0  0  0
 14109  1  0  0  0
 15110  1  0  0  0
 16 17  2  0  0  0
 16 21  1  0  0  0
 16 31  1  0  0  0
 17 18  1  0  0  0
 17111  1  0  0  0
 18 19  2  0  0  0
 18112  1  0  0  0
 19 20  1  0  0  0
 19 24  1  0  0  0
 20 21  2  0  0  0
 20113  1  0  0  0
 21 23  1  0  0  0
 22 28  1  0  0  0
 22 32  2  0  0  0
 26 27  1  0  0  0
 28114  1  0  0  0
 28115  1  0  0  0
 29116  1  0  0  0
 29117  1  0  0  0
 33 34  1  0  0  0
 33 66  1  0  0  0
 33 70  2  0  0  0
 34 36  1  0  0  0
 34 59  1  0  0  0
 34118  1  0  0  0
 35 44  2  0  0  0
 35 45  1  0  0  0
 35 68  1  0  0  0
 36 56  1  0  0  0
 36119  1  0  0  0
 37 39  1  0  0  0
 37 47  1  0  0  0
 37 66  1  0  0  0
 37120  1  0  0  0
 38 43  2  0  0  0
 38 46  1  0  0  0
 38 47  1  0  0  0
 39 64  1  0  0  0
 39 67  2  0  0  0
 40 52  1  0  0  0
 40 53  2  0  0  0
 40 58  1  0  0  0
 41121  1  0  0  0
 41122  1  0  0  0
 41123  1  0  0  0
 41 48  1  0  0  0
 42 43  1  0  0  0
 42 66  1  0  0  0
 42124  1  0  0  0
 42125  1  0  0  0
 43 44  1  0  0  0
 44126  1  0  0  0
 45 46  2  0  0  0
 45127  1  0  0  0
 46128  1  0  0  0
 47129  1  0  0  0
 47130  1  0  0  0
 48 56  1  0  0  0
 48 65  1  0  0  0
 48131  1  0  0  0
 49 50  1  0  0  0
 49 53  1  0  0  0
 49 64  1  0  0  0
 49132  1  0  0  0
 50 51  1  0  0  0
 50133  1  0  0  0
 50134  1  0  0  0
 51 52  1  0  0  0
 51135  1  0  0  0
 51136  1  0  0  0
 52137  1  0  0  0
 52138  1  0  0  0
 53 54  1  0  0  0
 54 55  2  0  0  0
 54139  1  0  0  0
 55 57  1  0  0  0
 55140  1  0  0  0
 56 69  2  0  0  0
 57 58  2  0  0  0
 57141  1  0  0  0
 58142  1  0  0  0
 59 60  1  0  0  0
 59 61  1  0  0  0
 59 62  1  0  0  0
 60143  1  0  0  0
 60144  1  0  0  0
 60145  1  0  0  0
 61146  1  0  0  0
 61147  1  0  0  0
 61148  1  0  0  0
 62149  1  0  0  0
 62150  1  0  0  0
 62151  1  0  0  0
 63 65  1  0  0  0
 63152  1  0  0  0
 63153  1  0  0  0
 63154  1  0  0  0
 64155  1  0  0  0
 65156  1  0  0  0
 68 87  1  0  0  0
 71 72  1  0  0  0
 71 73  2  0  0  0
 71157  1  0  0  0
 72 74  2  0  0  0
 72158  1  0  0  0
 73 89  1  0  0  0
 73 94  1  0  0  0
 74 90  1  0  0  0
 74 94  1  0  0  0
 75 84  1  0  0  0
 75159  1  0  0  0
 75160  1  0  0  0
 75161  1  0  0  0
 76 86  1  0  0  0
 76162  1  0  0  0
 76163  1  0  0  0
 76164  1  0  0  0
 77165  1  0  0  0
 77166  1  0  0  0
 77167  1  0  0  0
 77 88  1  0  0  0
 78 88  1  0  0  0
 78168  1  0  0  0
 78169  1  0  0  0
 78170  1  0  0  0
 79171  1  0  0  0
 79172  1  0  0  0
 79173  1  0  0  0
 79 89  1  0  0  0
 80174  1  0  0  0
 80175  1  0  0  0
 80176  1  0  0  0
 80 91  1  0  0  0
 81 91  1  0  0  0
 81177  1  0  0  0
 81178  1  0  0  0
 81179  1  0  0  0
 82180  1  0  0  0
 82181  1  0  0  0
 82182  1  0  0  0
 82 92  1  0  0  0
 83 92  1  0  0  0
 83183  1  0  0  0
 83184  1  0  0  0
 83185  1  0  0  0
 84186  1  0  0  0
 84187  1  0  0  0
 84 90  1  0  0  0
 85 90  1  0  0  0
 85 91  1  0  0  0
 85188  1  0  0  0
 85189  1  0  0  0
 86 94  1  0  0  0
 86190  1  0  0  0
 86191  1  0  0  0
 87 92  1  0  0  0
 87192  1  0  0  0
 87193  1  0  0  0
 88 90  1  0  0  0
 88194  1  0  0  0
 89 93  1  0  0  0
 91 92  1  0  0  0
 93 95  1  0  0  0
 93 96  1  0  0  0
 93 97  1  0  0  0
M  ISO  4   1 100  68 101  87 101  89 100
M  END
> <chiral flag>
0

> <version>
0

> <s_m_source_file>
/data/baiqing/PycharmProjects/Reinvent-master-3.2/result/LINK_invent/BTK/process_docking_weight1_custom_sum_contain_oxygen_bond_distance_aromatic_linkinvent_7_9_3/rearranged_h_0067.sdf

> <i_m_source_file_index>
35

> <r_mmod_Potential_Energy-OPLS-2005>
532.522216796875

> <r_mmod_Stretch_Energy-OPLS-2005>
145.928009033203

> <r_mmod_Bend_Energy-OPLS-2005>
278.460693359375

> <r_mmod_Torsional_Energy-OPLS-2005>
304.892333984375

> <r_mmod_Improper_Torsional_Energy-OPLS-2005>
2.84094572067261

> <r_mmod_Van_der_Waal_Energy-OPLS-2005>
180.886169433594

> <r_mmod_Electrostatic_Energy-OPLS-2005>
-269.286376953125

> <r_mmod_Solvation_Energy-OPLS-2005>
-140.958374023438

> <b_mmod_Minimization_Converged-OPLS-2005>
0

> <r_mmod_RMS_Derivative-OPLS-2005>
2.13810515403748

$$$$
35
                    3D
 Structure written by MMmdl.
178186  0  0  1  0            999 V2000
  -30.7379  -14.4686   20.5326 C   0  0  0  0  0  0
  -30.4061  -12.2949   19.4340 C   0  0  0  0  0  0
  -29.4933  -12.4866   18.2087 C   0  0  0  0  0  0
  -28.0150  -12.3557   18.6206 C   0  0  0  0  0  0
  -27.6562  -13.2162   19.8628 C   0  0  2  0  0  0
  -28.6970  -13.0478   20.9922 C   0  0  0  0  0  0
  -25.2564  -13.8189   20.5663 C   0  0  0  0  0  0
  -24.1824  -13.0450   20.9171 C   0  0  0  0  0  0
  -24.6397  -11.6927   20.8726 C   0  0  0  0  0  0
  -23.9077  -10.4306   21.0411 C   0  0  0  0  0  0
  -24.3631   -9.4223   21.9191 C   0  0  0  0  0  0
  -23.6302   -8.2260   22.0766 C   0  0  0  0  0  0
  -22.4277   -8.0303   21.3565 C   0  0  0  0  0  0
  -21.9917   -9.0273   20.4661 C   0  0  0  0  0  0
  -22.7251  -10.2147   20.3064 C   0  0  0  0  0  0
  -21.6848   -6.0749   22.5288 C   0  0  0  0  0  0
  -21.4013   -6.5649   23.8225 C   0  0  0  0  0  0
  -21.3656   -5.6795   24.9180 C   0  0  0  0  0  0
  -21.6040   -4.3060   24.7222 C   0  0  0  0  0  0
  -21.8816   -3.8159   23.4342 C   0  0  0  0  0  0
  -21.9192   -4.6978   22.3402 C   0  0  0  0  0  0
  -22.7849  -13.5254   21.1836 C   0  0  0  0  0  0
  -22.1666   -4.2170   21.0977 F   0  0  0  0  0  0
  -21.5628   -3.4540   25.7733 F   0  0  0  0  0  0
  -30.0268  -13.3154   20.4255 N   0  0  0  0  0  0
  -26.2995  -12.9379   20.3301 N   0  0  0  0  0  0
  -25.9319  -11.6533   20.5730 N   0  0  0  0  0  0
  -22.0475  -12.8253   22.0388 N   0  0  0  0  0  0
  -25.4272  -15.1908   20.4109 N   0  0  0  0  0  0
  -31.8938  -14.5616   20.1127 O   0  0  0  0  0  0
  -21.6645   -6.8899   21.4256 O   0  0  0  0  0  0
  -22.3541  -14.5561   20.6687 O   0  0  0  0  0  0
  -24.6139  -31.8669   23.2103 C   0  0  0  0  0  0
  -25.9042  -32.4811   23.8368 C   0  0  1  0  0  0
  -27.2271  -27.4339   20.0879 C   0  0  0  0  0  0
  -25.5889  -33.8609   24.2319 N   0  0  0  0  0  0
  -23.4001  -30.4918   21.5519 C   0  0  2  0  0  0
  -24.8442  -28.9611   20.1131 C   0  0  0  0  0  0
  -22.7404  -29.4643   22.4995 C   0  0  0  0  0  0
  -18.0272  -28.1348   22.8500 C   0  0  0  0  0  0
  -24.1502  -36.7305   23.2642 C   0  0  0  0  0  0
  -25.9292  -30.8356   21.3608 C   0  0  0  0  0  0
  -26.0066  -29.4720   20.7030 C   0  0  0  0  0  0
  -27.2023  -28.7173   20.6826 C   0  0  0  0  0  0
  -26.0402  -26.9356   19.5010 C   0  0  0  0  0  0
  -24.8557  -27.6927   19.5113 C   0  0  0  0  0  0
  -23.6067  -29.8264   20.1666 C   0  0  0  0  0  0
  -25.4123  -36.3109   24.0337 C   0  0  1  0  0  0
  -20.5855  -28.3633   23.1331 C   0  0  2  0  0  0
  -20.6744  -26.9369   22.5425 C   0  0  0  0  0  0
  -19.5728  -26.6353   21.5223 C   0  0  0  0  0  0
  -18.1907  -26.7888   22.1637 C   0  0  0  0  0  0
  -19.1516  -28.8809   23.2913 C   0  0  0  0  0  0
  -18.9451  -30.1423   23.8911 C   0  0  0  0  0  0
  -17.6451  -30.6561   24.0553 C   0  0  0  0  0  0
  -25.9051  -34.9469   23.5134 C   0  0  0  0  0  0
  -16.5345  -29.9057   23.6322 C   0  0  0  0  0  0
  -16.7259  -28.6474   23.0345 C   0  0  0  0  0  0
  -26.4465  -31.6577   25.0692 C   0  0  0  0  0  0
  -25.3726  -31.3691   26.1438 C   0  0  0  0  0  0
  -27.0297  -30.3020   24.6064 C   0  0  0  0  0  0
  -27.6032  -32.4289   25.7468 C   0  0  0  0  0  0
  -27.5596  -37.1809   24.8468 C   0  0  0  0  0  0
  -21.4131  -29.3014   22.3757 N   0  0  0  0  0  0
  -26.4318  -37.3786   23.9406 N   0  0  0  0  0  0
  -24.6659  -31.0770   22.1002 N   0  0  0  0  0  0
  -23.4186  -28.8182   23.3020 O   0  0  0  0  0  0
  -28.4039  -26.7116   20.0918 O   0  0  0  0  0  0
  -26.5631  -34.8914   22.4708 O   0  0  0  0  0  0
  -23.5335  -32.1417   23.7516 O   0  0  0  0  0  0
  -29.7189  -21.2641   21.8225 C   0  0  0  0  0  0
  -29.9713  -20.8331   20.5432 C   0  0  0  0  0  0
  -29.6367  -23.0826   20.5488 C   0  0  0  0  0  0
  -28.8004  -18.3173   21.8350 C   0  0  0  0  0  0
  -30.9095  -22.3140   17.4914 C   0  0  0  0  0  0
  -28.3661  -22.7454   17.7134 C   0  0  0  0  0  0
  -30.9638  -19.2212   18.7128 C   0  0  0  0  0  0
  -31.9723  -19.5294   20.9346 C   0  0  0  0  0  0
  -30.6724  -25.0286   19.2166 C   0  0  0  0  0  0
  -30.2770  -25.2632   21.6251 C   0  0  0  0  0  0
  -30.7157  -16.9132   20.9540 C   0  0  0  0  0  0
  -28.3087  -25.2745   20.0909 C   0  0  0  0  0  0
  -29.7925  -18.1477   20.6687 C   0  0  2  0  0  0
  -29.6029  -22.0050   18.2553 C   0  0  0  0  0  0
  -30.6054  -19.4497   20.2016 C   0  0  0  0  0  0
  -29.6979  -24.6175   20.3358 C   0  0  0  0  0  0
  -29.7223  -21.9749   19.7432 N   0  0  0  0  0  0
  -29.4915  -22.5991   21.7825 N   0  3  0  0  0  0
  -30.0846  -15.5724   20.9550 N   0  0  0  0  0  0
  -31.4537  -12.3559   19.1344 H   0  0  0  0  0  0
  -30.2805  -11.2969   19.8563 H   0  0  0  0  0  0
  -29.7354  -11.7524   17.4387 H   0  0  0  0  0  0
  -29.6725  -13.4665   17.7628 H   0  0  0  0  0  0
  -27.8251  -11.3030   18.8314 H   0  0  0  0  0  0
  -27.3681  -12.6166   17.7826 H   0  0  0  0  0  0
  -27.6907  -14.2566   19.5383 H   0  0  0  0  0  0
  -28.6630  -12.0354   21.3960 H   0  0  0  0  0  0
  -28.4674  -13.7108   21.8275 H   0  0  0  0  0  0
  -25.2782   -9.5685   22.4760 H   0  0  0  0  0  0
  -24.0011   -7.4641   22.7471 H   0  0  0  0  0  0
  -21.0860   -8.8802   19.8955 H   0  0  0  0  0  0
  -22.3736  -10.9690   19.6166 H   0  0  0  0  0  0
  -21.2015   -7.6159   23.9735 H   0  0  0  0  0  0
  -21.1473   -6.0525   25.9084 H   0  0  0  0  0  0
  -22.0595   -2.7625   23.2834 H   0  0  0  0  0  0
  -22.4076  -11.9926   22.4809 H   0  0  0  0  0  0
  -21.1093  -13.1295   22.2569 H   0  0  0  0  0  0
  -24.6580  -15.8417   20.5249 H   0  0  0  0  0  0
  -26.2787  -15.6365   20.0931 H   0  0  0  0  0  0
  -26.7103  -32.5513   23.1119 H   0  0  0  0  0  0
  -25.0005  -33.9765   25.0436 H   0  0  0  0  0  0
  -22.6889  -31.3076   21.4112 H   0  0  0  0  0  0
  -23.3768  -35.9635   23.3321 H   0  0  0  0  0  0
  -24.3591  -36.8913   22.2054 H   0  0  0  0  0  0
  -23.7257  -37.6514   23.6643 H   0  0  0  0  0  0
  -26.0433  -31.6083   20.5992 H   0  0  0  0  0  0
  -26.8167  -30.8843   21.9787 H   0  0  0  0  0  0
  -28.1015  -29.1095   21.1370 H   0  0  0  0  0  0
  -26.0032  -25.9658   19.0279 H   0  0  0  0  0  0
  -23.9586  -27.2935   19.0595 H   0  0  0  0  0  0
  -23.7097  -30.5986   19.4035 H   0  0  0  0  0  0
  -22.7304  -29.2451   19.8767 H   0  0  0  0  0  0
  -25.1303  -36.1984   25.0831 H   0  0  0  0  0  0
  -20.9953  -28.3176   24.1448 H   0  0  0  0  0  0
  -20.5637  -26.2230   23.3599 H   0  0  0  0  0  0
  -21.6615  -26.7398   22.1230 H   0  0  0  0  0  0
  -19.6888  -25.6272   21.1230 H   0  0  0  0  0  0
  -19.6659  -27.3176   20.6762 H   0  0  0  0  0  0
  -17.4181  -26.6659   21.4032 H   0  0  0  0  0  0
  -18.0302  -26.0016   22.9020 H   0  0  0  0  0  0
  -19.7936  -30.7238   24.2263 H   0  0  0  0  0  0
  -17.5014  -31.6245   24.5148 H   0  0  0  0  0  0
  -15.5350  -30.2968   23.7615 H   0  0  0  0  0  0
  -15.8662  -28.0799   22.7036 H   0  0  0  0  0  0
  -24.5873  -30.7061   25.7786 H   0  0  0  0  0  0
  -24.8930  -32.2860   26.4874 H   0  0  0  0  0  0
  -25.8070  -30.8861   27.0194 H   0  0  0  0  0  0
  -26.2831  -29.6772   24.1148 H   0  0  0  0  0  0
  -27.4106  -29.7273   25.4511 H   0  0  0  0  0  0
  -27.8641  -30.4352   23.9175 H   0  0  0  0  0  0
  -27.2644  -33.3575   26.2073 H   0  0  0  0  0  0
  -28.3847  -32.6868   25.0307 H   0  0  0  0  0  0
  -28.0686  -31.8384   26.5370 H   0  0  0  0  0  0
  -28.2611  -38.0108   24.7514 H   0  0  0  0  0  0
  -28.1100  -36.2634   24.6304 H   0  0  0  0  0  0
  -27.2301  -37.1469   25.8871 H   0  0  0  0  0  0
  -20.9281  -29.8787   21.7035 H   0  0  0  0  0  0
  -26.0215  -38.2866   24.1406 H   0  0  0  0  0  0
  -29.7809  -20.7416   22.7651 H   0  0  0  0  0  0
  -28.2440  -17.3960   22.0098 H   0  0  0  0  0  0
  -28.0579  -19.0881   21.6294 H   0  0  0  0  0  0
  -29.3099  -18.5546   22.7688 H   0  0  0  0  0  0
  -31.0521  -21.5988   16.6812 H   0  0  0  0  0  0
  -31.7852  -22.2579   18.1381 H   0  0  0  0  0  0
  -30.9110  -23.2900   17.0131 H   0  0  0  0  0  0
  -28.0505  -22.3088   16.7659 H   0  0  0  0  0  0
  -28.5505  -23.7936   17.4986 H   0  0  0  0  0  0
  -27.5182  -22.6647   18.3946 H   0  0  0  0  0  0
  -31.5991  -20.0049   18.3150 H   0  0  0  0  0  0
  -30.0910  -19.0872   18.0751 H   0  0  0  0  0  0
  -31.5468  -18.3123   18.5744 H   0  0  0  0  0  0
  -32.4992  -20.4513   20.6811 H   0  0  0  0  0  0
  -32.6563  -18.7238   20.6716 H   0  0  0  0  0  0
  -31.8580  -19.5111   22.0188 H   0  0  0  0  0  0
  -31.6209  -24.4968   19.2948 H   0  0  0  0  0  0
  -30.8983  -26.0939   19.2584 H   0  0  0  0  0  0
  -30.2555  -24.8726   18.2304 H   0  0  0  0  0  0
  -31.2457  -24.8333   21.8853 H   0  0  0  0  0  0
  -29.6138  -25.1440   22.4814 H   0  0  0  0  0  0
  -30.4328  -26.3362   21.5097 H   0  0  0  0  0  0
  -31.2230  -17.0411   21.9116 H   0  0  0  0  0  0
  -31.5052  -16.9101   20.2063 H   0  0  0  0  0  0
  -27.8889  -24.9431   19.1484 H   0  0  0  0  0  0
  -27.6144  -24.9650   20.8741 H   0  0  0  0  0  0
  -29.1544  -17.8759   19.8257 H   0  0  0  0  0  0
  -29.3277  -20.9903   18.0045 H   0  0  0  0  0  0
  -29.3592  -23.1766   22.6033 H   0  0  0  0  0  0
  -29.1251  -15.4822   21.2547 H   0  0  0  0  0  0
  1 25  1  0  0  0
  1 30  2  0  0  0
  1 89  1  0  0  0
  2  3  1  0  0  0
  2 25  1  0  0  0
  2 90  1  0  0  0
  2 91  1  0  0  0
  3  4  1  0  0  0
  3 92  1  0  0  0
  3 93  1  0  0  0
  4  5  1  0  0  0
  4 94  1  0  0  0
  4 95  1  0  0  0
  5  6  1  0  0  0
  5 26  1  0  0  0
  5 96  1  0  0  0
  6 25  1  0  0  0
  6 97  1  0  0  0
  6 98  1  0  0  0
  7  8  2  0  0  0
  7 26  1  0  0  0
  7 29  1  0  0  0
  8  9  1  0  0  0
  8 22  1  0  0  0
  9 10  1  0  0  0
  9 27  2  0  0  0
 10 11  2  0  0  0
 10 15  1  0  0  0
 11 12  1  0  0  0
 11 99  1  0  0  0
 12 13  2  0  0  0
 12100  1  0  0  0
 13 14  1  0  0  0
 13 31  1  0  0  0
 14 15  2  0  0  0
 14101  1  0  0  0
 15102  1  0  0  0
 16 17  2  0  0  0
 16 21  1  0  0  0
 16 31  1  0  0  0
 17 18  1  0  0  0
 17103  1  0  0  0
 18 19  2  0  0  0
 18104  1  0  0  0
 19 20  1  0  0  0
 19 24  1  0  0  0
 20 21  2  0  0  0
 20105  1  0  0  0
 21 23  1  0  0  0
 22 28  1  0  0  0
 22 32  2  0  0  0
 26 27  1  0  0  0
 28106  1  0  0  0
 28107  1  0  0  0
 29108  1  0  0  0
 29109  1  0  0  0
 33 34  1  0  0  0
 33 66  1  0  0  0
 33 70  2  0  0  0
 34 36  1  0  0  0
 34 59  1  0  0  0
 34110  1  0  0  0
 35 44  2  0  0  0
 35 45  1  0  0  0
 35 68  1  0  0  0
 36 56  1  0  0  0
 36111  1  0  0  0
 37 39  1  0  0  0
 37 47  1  0  0  0
 37 66  1  0  0  0
 37112  1  0  0  0
 38 43  2  0  0  0
 38 46  1  0  0  0
 38 47  1  0  0  0
 39 64  1  0  0  0
 39 67  2  0  0  0
 40 52  1  0  0  0
 40 53  2  0  0  0
 40 58  1  0  0  0
 41113  1  0  0  0
 41114  1  0  0  0
 41115  1  0  0  0
 41 48  1  0  0  0
 42 43  1  0  0  0
 42 66  1  0  0  0
 42116  1  0  0  0
 42117  1  0  0  0
 43 44  1  0  0  0
 44118  1  0  0  0
 45 46  2  0  0  0
 45119  1  0  0  0
 46120  1  0  0  0
 47121  1  0  0  0
 47122  1  0  0  0
 48 56  1  0  0  0
 48 65  1  0  0  0
 48123  1  0  0  0
 49 50  1  0  0  0
 49 53  1  0  0  0
 49 64  1  0  0  0
 49124  1  0  0  0
 50 51  1  0  0  0
 50125  1  0  0  0
 50126  1  0  0  0
 51 52  1  0  0  0
 51127  1  0  0  0
 51128  1  0  0  0
 52129  1  0  0  0
 52130  1  0  0  0
 53 54  1  0  0  0
 54 55  2  0  0  0
 54131  1  0  0  0
 55 57  1  0  0  0
 55132  1  0  0  0
 56 69  2  0  0  0
 57 58  2  0  0  0
 57133  1  0  0  0
 58134  1  0  0  0
 59 60  1  0  0  0
 59 61  1  0  0  0
 59 62  1  0  0  0
 60135  1  0  0  0
 60136  1  0  0  0
 60137  1  0  0  0
 61138  1  0  0  0
 61139  1  0  0  0
 61140  1  0  0  0
 62141  1  0  0  0
 62142  1  0  0  0
 62143  1  0  0  0
 63 65  1  0  0  0
 63144  1  0  0  0
 63145  1  0  0  0
 63146  1  0  0  0
 64147  1  0  0  0
 65148  1  0  0  0
 68 82  1  0  0  0
 71 72  2  0  0  0
 71 88  1  0  0  0
 71149  1  0  0  0
 72 85  1  0  0  0
 72 87  1  0  0  0
 73 86  1  0  0  0
 73 87  1  0  0  0
 73 88  2  0  0  0
 74150  1  0  0  0
 74151  1  0  0  0
 74152  1  0  0  0
 74 83  1  0  0  0
 75153  1  0  0  0
 75154  1  0  0  0
 75155  1  0  0  0
 75 84  1  0  0  0
 76 84  1  0  0  0
 76156  1  0  0  0
 76157  1  0  0  0
 76158  1  0  0  0
 77159  1  0  0  0
 77160  1  0  0  0
 77161  1  0  0  0
 77 85  1  0  0  0
 78 85  1  0  0  0
 78162  1  0  0  0
 78163  1  0  0  0
 78164  1  0  0  0
 79165  1  0  0  0
 79166  1  0  0  0
 79167  1  0  0  0
 79 86  1  0  0  0
 80 86  1  0  0  0
 80168  1  0  0  0
 80169  1  0  0  0
 80170  1  0  0  0
 81 83  1  0  0  0
 81 89  1  0  0  0
 81171  1  0  0  0
 81172  1  0  0  0
 82 86  1  0  0  0
 82173  1  0  0  0
 82174  1  0  0  0
 83 85  1  0  0  0
 83175  1  0  0  0
 84 87  1  0  0  0
 84176  1  0  0  0
 88177  1  0  0  0
 89178  1  0  0  0
M  CHG  1  88   1
M  ISO  4   1 100  68 101  82 101  89 100
M  END
> <chiral flag>
0

> <version>
0

> <s_m_source_file>
/data/baiqing/PycharmProjects/Reinvent-master-3.2/result/LINK_invent/BTK/process_docking_weight1_custom_sum_contain_oxygen_bond_distance_aromatic_linkinvent_7_9_3/rearranged_h_0067.sdf

> <i_m_source_file_index>
36

> <r_mmod_Potential_Energy-OPLS-2005>
92.4170150756836

> <r_mmod_Stretch_Energy-OPLS-2005>
64.3300323486328

> <r_mmod_Bend_Energy-OPLS-2005>
168.378723144531

> <r_mmod_Torsional_Energy-OPLS-2005>
319.467102050781

> <r_mmod_Improper_Torsional_Energy-OPLS-2005>
4.88665628433228

> <r_mmod_Van_der_Waal_Energy-OPLS-2005>
168.672729492188

> <r_mmod_Electrostatic_Energy-OPLS-2005>
-255.471343994141

> <r_mmod_Solvation_Energy-OPLS-2005>
-394.634643554688

> <b_mmod_Minimization_Converged-OPLS-2005>
0

> <r_mmod_RMS_Derivative-OPLS-2005>
2.07103800773621

$$$$
36
                    3D
 Structure written by MMmdl.
161169  0  0  1  0            999 V2000
  -30.7721  -14.4312   20.6900 C   0  0  0  0  0  0
  -30.4089  -12.3296   19.4173 C   0  0  0  0  0  0
  -29.4880  -12.5469   18.2004 C   0  0  0  0  0  0
  -28.0087  -12.3951   18.6014 C   0  0  0  0  0  0
  -27.6580  -13.2116   19.8713 C   0  0  2  0  0  0
  -28.6919  -12.9594   20.9863 C   0  0  0  0  0  0
  -25.2553  -13.8166   20.5637 C   0  0  0  0  0  0
  -24.1812  -13.0432   20.9145 C   0  0  0  0  0  0
  -24.6385  -11.6906   20.8705 C   0  0  0  0  0  0
  -23.9055  -10.4291   21.0383 C   0  0  0  0  0  0
  -24.3602   -9.4212   21.9171 C   0  0  0  0  0  0
  -23.6284   -8.2244   22.0755 C   0  0  0  0  0  0
  -22.4267   -8.0274   21.3540 C   0  0  0  0  0  0
  -21.9902   -9.0235   20.4638 C   0  0  0  0  0  0
  -22.7222  -10.2119   20.3038 C   0  0  0  0  0  0
  -21.6851   -6.0733   22.5278 C   0  0  0  0  0  0
  -21.4007   -6.5641   23.8208 C   0  0  0  0  0  0
  -21.3661   -5.6792   24.9178 C   0  0  0  0  0  0
  -21.6046   -4.3060   24.7224 C   0  0  0  0  0  0
  -21.8819   -3.8146   23.4350 C   0  0  0  0  0  0
  -21.9191   -4.6959   22.3401 C   0  0  0  0  0  0
  -22.7842  -13.5222   21.1826 C   0  0  0  0  0  0
  -22.1660   -4.2151   21.0980 F   0  0  0  0  0  0
  -21.5633   -3.4539   25.7738 F   0  0  0  0  0  0
  -30.0297  -13.2992   20.4669 N   0  0  0  0  0  0
  -26.2987  -12.9350   20.3308 N   0  0  0  0  0  0
  -25.9306  -11.6496   20.5695 N   0  0  0  0  0  0
  -22.0492  -12.8209   22.0387 N   0  0  0  0  0  0
  -25.4242  -15.1884   20.4042 N   0  0  0  0  0  0
  -31.8074  -14.6134   20.0329 O   0  0  0  0  0  0
  -21.6635   -6.8871   21.4241 O   0  0  0  0  0  0
  -22.3521  -14.5531   20.6691 O   0  0  0  0  0  0
  -24.6154  -31.8692   23.2099 C   0  0  0  0  0  0
  -25.9071  -32.4816   23.8380 C   0  0  1  0  0  0
  -27.2357  -27.4391   20.1016 C   0  0  0  0  0  0
  -25.5951  -33.8613   24.2328 N   0  0  0  0  0  0
  -23.4015  -30.4910   21.5520 C   0  0  2  0  0  0
  -24.8497  -28.9513   20.1188 C   0  0  0  0  0  0
  -22.7404  -29.4655   22.5001 C   0  0  0  0  0  0
  -18.0276  -28.1349   22.8488 C   0  0  0  0  0  0
  -24.1498  -36.7295   23.2631 C   0  0  0  0  0  0
  -25.9282  -30.8344   21.3629 C   0  0  0  0  0  0
  -26.0081  -29.4654   20.7184 C   0  0  0  0  0  0
  -27.2060  -28.7144   20.7114 C   0  0  0  0  0  0
  -26.0656  -26.9313   19.5045 C   0  0  0  0  0  0
  -24.8725  -27.6824   19.5111 C   0  0  0  0  0  0
  -23.6119  -29.8207   20.1664 C   0  0  0  0  0  0
  -25.4116  -36.3091   24.0322 C   0  0  1  0  0  0
  -20.5860  -28.3653   23.1314 C   0  0  2  0  0  0
  -20.6771  -26.9389   22.5423 C   0  0  0  0  0  0
  -19.5757  -26.6378   21.5195 C   0  0  0  0  0  0
  -18.1925  -26.7914   22.1588 C   0  0  0  0  0  0
  -19.1524  -28.8812   23.2905 C   0  0  0  0  0  0
  -18.9460  -30.1418   23.8912 C   0  0  0  0  0  0
  -17.6462  -30.6575   24.0549 C   0  0  0  0  0  0
  -25.9040  -34.9466   23.5109 C   0  0  0  0  0  0
  -16.5350  -29.9074   23.6305 C   0  0  0  0  0  0
  -16.7264  -28.6479   23.0338 C   0  0  0  0  0  0
  -26.4498  -31.6589   25.0705 C   0  0  0  0  0  0
  -25.3760  -31.3692   26.1446 C   0  0  0  0  0  0
  -27.0322  -30.3040   24.6053 C   0  0  0  0  0  0
  -27.6071  -32.4303   25.7478 C   0  0  0  0  0  0
  -27.5593  -37.1799   24.8448 C   0  0  0  0  0  0
  -21.4133  -29.3023   22.3728 N   0  0  0  0  0  0
  -26.4291  -37.3787   23.9407 N   0  0  0  0  0  0
  -24.6669  -31.0788   22.1011 N   0  0  0  0  0  0
  -23.4178  -28.8202   23.3046 O   0  0  0  0  0  0
  -28.4033  -26.7196   20.0143 O   0  0  0  0  0  0
  -26.5578  -34.8922   22.4658 O   0  0  0  0  0  0
  -23.5356  -32.1460   23.7509 O   0  0  0  0  0  0
  -30.2423  -18.8047   20.0613 C   0  0  0  0  0  0
  -29.1182  -19.4164   20.6374 C   0  0  0  0  0  0
  -28.3654  -18.5978   21.5043 C   0  0  0  0  0  0
  -29.8654  -16.8505   21.2271 C   0  0  0  0  0  0
  -27.0874  -19.0612   22.1778 C   0  0  0  0  0  0
  -31.7160  -15.8180   22.6133 C   0  0  0  0  0  0
  -28.7823  -20.8813   20.3004 C   0  0  0  0  0  0
  -28.7335  -21.8252   21.5280 C   0  0  0  0  0  0
  -29.2931  -23.2596   21.3463 C   0  0  0  0  0  0
  -28.4705  -24.2691   20.5028 C   0  0  0  0  0  0
  -28.6179  -25.7261   21.0206 C   0  0  0  0  0  0
  -30.4469  -15.5156   21.7862 C   0  0  2  0  0  0
  -30.6047  -17.5435   20.3575 N   0  0  0  0  0  0
  -28.7596  -17.3411   21.8003 N   0  0  0  0  0  0
  -29.6375  -15.0212   22.7262 F   0  0  0  0  0  0
  -31.4547  -12.4085   19.1146 H   0  0  0  0  0  0
  -30.3005  -11.3106   19.7932 H   0  0  0  0  0  0
  -29.7353  -11.8402   17.4072 H   0  0  0  0  0  0
  -29.6577  -13.5422   17.7862 H   0  0  0  0  0  0
  -27.8151  -11.3361   18.7746 H   0  0  0  0  0  0
  -27.3635  -12.6939   17.7747 H   0  0  0  0  0  0
  -27.7111  -14.2673   19.6026 H   0  0  0  0  0  0
  -28.6791  -11.9061   21.2700 H   0  0  0  0  0  0
  -28.3762  -13.4800   21.8816 H   0  0  0  0  0  0
  -25.2749   -9.5703   22.4743 H   0  0  0  0  0  0
  -23.9997   -7.4650   22.7485 H   0  0  0  0  0  0
  -21.0836   -8.8738   19.8944 H   0  0  0  0  0  0
  -22.3670  -10.9644   19.6141 H   0  0  0  0  0  0
  -21.1991   -7.6148   23.9715 H   0  0  0  0  0  0
  -21.1486   -6.0525   25.9081 H   0  0  0  0  0  0
  -22.0596   -2.7612   23.2844 H   0  0  0  0  0  0
  -22.4101  -11.9854   22.4752 H   0  0  0  0  0  0
  -21.1108  -13.1232   22.2588 H   0  0  0  0  0  0
  -24.6579  -15.8423   20.5110 H   0  0  0  0  0  0
  -26.2895  -15.6333   20.1245 H   0  0  0  0  0  0
  -26.7143  -32.5530   23.1142 H   0  0  0  0  0  0
  -25.0182  -33.9765   25.0530 H   0  0  0  0  0  0
  -22.6900  -31.3087   21.4127 H   0  0  0  0  0  0
  -23.3757  -35.9632   23.3257 H   0  0  0  0  0  0
  -24.3611  -36.8944   22.2056 H   0  0  0  0  0  0
  -23.7244  -37.6483   23.6676 H   0  0  0  0  0  0
  -26.0398  -31.5978   20.5907 H   0  0  0  0  0  0
  -26.8159  -30.8919   21.9812 H   0  0  0  0  0  0
  -28.1057  -29.1149   21.1612 H   0  0  0  0  0  0
  -26.0840  -25.9623   19.0245 H   0  0  0  0  0  0
  -23.9851  -27.2798   19.0418 H   0  0  0  0  0  0
  -23.7217  -30.5960   19.4065 H   0  0  0  0  0  0
  -22.7345  -29.2426   19.8703 H   0  0  0  0  0  0
  -25.1298  -36.1931   25.0810 H   0  0  0  0  0  0
  -20.9955  -28.3235   24.1426 H   0  0  0  0  0  0
  -20.5664  -26.2255   23.3623 H   0  0  0  0  0  0
  -21.6654  -26.7439   22.1230 H   0  0  0  0  0  0
  -19.6918  -25.6286   21.1230 H   0  0  0  0  0  0
  -19.6707  -27.3192   20.6726 H   0  0  0  0  0  0
  -17.4222  -26.6671   21.3966 H   0  0  0  0  0  0
  -18.0278  -26.0041   22.8954 H   0  0  0  0  0  0
  -19.7943  -30.7207   24.2315 H   0  0  0  0  0  0
  -17.5030  -31.6259   24.5153 H   0  0  0  0  0  0
  -15.5350  -30.2982   23.7640 H   0  0  0  0  0  0
  -15.8655  -28.0818   22.7039 H   0  0  0  0  0  0
  -24.6033  -30.6898   25.7816 H   0  0  0  0  0  0
  -24.8827  -32.2834   26.4768 H   0  0  0  0  0  0
  -25.8149  -30.9023   27.0276 H   0  0  0  0  0  0
  -26.2851  -29.6780   24.1160 H   0  0  0  0  0  0
  -27.4154  -29.7283   25.4484 H   0  0  0  0  0  0
  -27.8657  -30.4331   23.9141 H   0  0  0  0  0  0
  -27.2716  -33.3640   26.1995 H   0  0  0  0  0  0
  -28.3938  -32.6791   25.0341 H   0  0  0  0  0  0
  -28.0669  -31.8445   26.5444 H   0  0  0  0  0  0
  -28.2577  -38.0142   24.7571 H   0  0  0  0  0  0
  -28.1126  -36.2668   24.6181 H   0  0  0  0  0  0
  -27.2319  -37.1342   25.8856 H   0  0  0  0  0  0
  -20.9283  -29.8783   21.6994 H   0  0  0  0  0  0
  -26.0153  -38.2842   24.1461 H   0  0  0  0  0  0
  -30.8774  -19.3377   19.3697 H   0  0  0  0  0  0
  -27.2933  -19.3824   23.1990 H   0  0  0  0  0  0
  -26.3574  -18.2530   22.2176 H   0  0  0  0  0  0
  -26.6185  -19.8863   21.6437 H   0  0  0  0  0  0
  -31.4852  -16.4624   23.4605 H   0  0  0  0  0  0
  -32.4716  -16.3251   22.0135 H   0  0  0  0  0  0
  -32.1645  -14.9035   23.0026 H   0  0  0  0  0  0
  -27.8325  -20.9206   19.7639 H   0  0  0  0  0  0
  -29.5292  -21.2525   19.5950 H   0  0  0  0  0  0
  -29.3403  -21.3739   22.3158 H   0  0  0  0  0  0
  -27.7220  -21.8723   21.9345 H   0  0  0  0  0  0
  -30.3110  -23.2108   20.9570 H   0  0  0  0  0  0
  -29.3964  -23.6740   22.3502 H   0  0  0  0  0  0
  -27.4151  -23.9984   20.4938 H   0  0  0  0  0  0
  -28.8078  -24.2072   19.4669 H   0  0  0  0  0  0
  -29.6358  -25.8813   21.3778 H   0  0  0  0  0  0
  -27.9727  -25.8822   21.8878 H   0  0  0  0  0  0
  1 25  1  0  0  0
  1 30  2  0  0  0
  1 82  1  0  0  0
  2  3  1  0  0  0
  2 25  1  0  0  0
  2 86  1  0  0  0
  2 87  1  0  0  0
  3  4  1  0  0  0
  3 88  1  0  0  0
  3 89  1  0  0  0
  4  5  1  0  0  0
  4 90  1  0  0  0
  4 91  1  0  0  0
  5  6  1  0  0  0
  5 26  1  0  0  0
  5 92  1  0  0  0
  6 25  1  0  0  0
  6 93  1  0  0  0
  6 94  1  0  0  0
  7  8  2  0  0  0
  7 26  1  0  0  0
  7 29  1  0  0  0
  8  9  1  0  0  0
  8 22  1  0  0  0
  9 10  1  0  0  0
  9 27  2  0  0  0
 10 11  2  0  0  0
 10 15  1  0  0  0
 11 12  1  0  0  0
 11 95  1  0  0  0
 12 13  2  0  0  0
 12 96  1  0  0  0
 13 14  1  0  0  0
 13 31  1  0  0  0
 14 15  2  0  0  0
 14 97  1  0  0  0
 15 98  1  0  0  0
 16 17  2  0  0  0
 16 21  1  0  0  0
 16 31  1  0  0  0
 17 18  1  0  0  0
 17 99  1  0  0  0
 18 19  2  0  0  0
 18100  1  0  0  0
 19 20  1  0  0  0
 19 24  1  0  0  0
 20 21  2  0  0  0
 20101  1  0  0  0
 21 23  1  0  0  0
 22 28  1  0  0  0
 22 32  2  0  0  0
 26 27  1  0  0  0
 28102  1  0  0  0
 28103  1  0  0  0
 29104  1  0  0  0
 29105  1  0  0  0
 33 34  1  0  0  0
 33 66  1  0  0  0
 33 70  2  0  0  0
 34 36  1  0  0  0
 34 59  1  0  0  0
 34106  1  0  0  0
 35 44  2  0  0  0
 35 45  1  0  0  0
 35 68  1  0  0  0
 36 56  1  0  0  0
 36107  1  0  0  0
 37 39  1  0  0  0
 37 47  1  0  0  0
 37 66  1  0  0  0
 37108  1  0  0  0
 38 43  2  0  0  0
 38 46  1  0  0  0
 38 47  1  0  0  0
 39 64  1  0  0  0
 39 67  2  0  0  0
 40 52  1  0  0  0
 40 53  2  0  0  0
 40 58  1  0  0  0
 41109  1  0  0  0
 41110  1  0  0  0
 41111  1  0  0  0
 41 48  1  0  0  0
 42 43  1  0  0  0
 42 66  1  0  0  0
 42112  1  0  0  0
 42113  1  0  0  0
 43 44  1  0  0  0
 44114  1  0  0  0
 45 46  2  0  0  0
 45115  1  0  0  0
 46116  1  0  0  0
 47117  1  0  0  0
 47118  1  0  0  0
 48 56  1  0  0  0
 48 65  1  0  0  0
 48119  1  0  0  0
 49 50  1  0  0  0
 49 53  1  0  0  0
 49 64  1  0  0  0
 49120  1  0  0  0
 50 51  1  0  0  0
 50121  1  0  0  0
 50122  1  0  0  0
 51 52  1  0  0  0
 51123  1  0  0  0
 51124  1  0  0  0
 52125  1  0  0  0
 52126  1  0  0  0
 53 54  1  0  0  0
 54 55  2  0  0  0
 54127  1  0  0  0
 55 57  1  0  0  0
 55128  1  0  0  0
 56 69  2  0  0  0
 57 58  2  0  0  0
 57129  1  0  0  0
 58130  1  0  0  0
 59 60  1  0  0  0
 59 61  1  0  0  0
 59 62  1  0  0  0
 60131  1  0  0  0
 60132  1  0  0  0
 60133  1  0  0  0
 61134  1  0  0  0
 61135  1  0  0  0
 61136  1  0  0  0
 62137  1  0  0  0
 62138  1  0  0  0
 62139  1  0  0  0
 63 65  1  0  0  0
 63140  1  0  0  0
 63141  1  0  0  0
 63142  1  0  0  0
 64143  1  0  0  0
 65144  1  0  0  0
 68 81  1  0  0  0
 71 72  2  0  0  0
 71 83  1  0  0  0
 71145  1  0  0  0
 72 73  1  0  0  0
 72 77  1  0  0  0
 73 75  1  0  0  0
 73 84  2  0  0  0
 74 82  1  0  0  0
 74 83  2  0  0  0
 74 84  1  0  0  0
 75146  1  0  0  0
 75147  1  0  0  0
 75148  1  0  0  0
 76149  1  0  0  0
 76150  1  0  0  0
 76151  1  0  0  0
 76 82  1  0  0  0
 77 78  1  0  0  0
 77152  1  0  0  0
 77153  1  0  0  0
 78 79  1  0  0  0
 78154  1  0  0  0
 78155  1  0  0  0
 79 80  1  0  0  0
 79156  1  0  0  0
 79157  1  0  0  0
 80 81  1  0  0  0
 80158  1  0  0  0
 80159  1  0  0  0
 81160  1  0  0  0
 81161  1  0  0  0
 82 85  1  0  0  0
M  ISO  4   1 100  68 101  81 101  82 100
M  END
> <chiral flag>
0

> <version>
0

> <s_m_source_file>
/data/baiqing/PycharmProjects/Reinvent-master-3.2/result/LINK_invent/BTK/process_docking_weight1_custom_sum_contain_oxygen_bond_distance_aromatic_linkinvent_7_9_3/rearranged_h_0067.sdf

> <i_m_source_file_index>
37

> <r_mmod_Potential_Energy-OPLS-2005>
-185.525085449219

> <r_mmod_Stretch_Energy-OPLS-2005>
44.0080070495605

> <r_mmod_Bend_Energy-OPLS-2005>
122.376327514648

> <r_mmod_Torsional_Energy-OPLS-2005>
209.182327270508

> <r_mmod_Improper_Torsional_Energy-OPLS-2005>
3.05371928215027

> <r_mmod_Van_der_Waal_Energy-OPLS-2005>
158.473403930664

> <r_mmod_Electrostatic_Energy-OPLS-2005>
-538.247497558594

> <r_mmod_Solvation_Energy-OPLS-2005>
-193.897918701172

> <b_mmod_Minimization_Converged-OPLS-2005>
0

> <r_mmod_RMS_Derivative-OPLS-2005>
2.45319175720215

$$$$
37
                    3D
 Structure written by MMmdl.
190198  0  0  1  0            999 V2000
  -30.7160  -14.5015   20.5948 C   0  0  0  0  0  0
  -30.4087  -12.3368   19.4232 C   0  0  0  0  0  0
  -29.4817  -12.4928   18.2010 C   0  0  0  0  0  0
  -28.0042  -12.3522   18.6158 C   0  0  0  0  0  0
  -27.6457  -13.2112   19.8554 C   0  0  2  0  0  0
  -28.6878  -13.0461   20.9845 C   0  0  0  0  0  0
  -25.2536  -13.8153   20.5697 C   0  0  0  0  0  0
  -24.1806  -13.0399   20.9175 C   0  0  0  0  0  0
  -24.6374  -11.6881   20.8718 C   0  0  0  0  0  0
  -23.9053  -10.4259   21.0375 C   0  0  0  0  0  0
  -24.3608   -9.4209   21.9187 C   0  0  0  0  0  0
  -23.6266   -8.2261   22.0754 C   0  0  0  0  0  0
  -22.4246   -8.0292   21.3562 C   0  0  0  0  0  0
  -21.9902   -9.0255   20.4653 C   0  0  0  0  0  0
  -22.7214  -10.2134   20.3038 C   0  0  0  0  0  0
  -21.6834   -6.0754   22.5287 C   0  0  0  0  0  0
  -21.4005   -6.5665   23.8231 C   0  0  0  0  0  0
  -21.3646   -5.6799   24.9190 C   0  0  0  0  0  0
  -21.6047   -4.3057   24.7243 C   0  0  0  0  0  0
  -21.8797   -3.8171   23.4348 C   0  0  0  0  0  0
  -21.9172   -4.6990   22.3407 C   0  0  0  0  0  0
  -22.7826  -13.5189   21.1814 C   0  0  0  0  0  0
  -22.1604   -4.2178   21.0977 F   0  0  0  0  0  0
  -21.5650   -3.4529   25.7753 F   0  0  0  0  0  0
  -30.0115  -13.3468   20.4236 N   0  0  0  0  0  0
  -26.2940  -12.9317   20.3299 N   0  0  0  0  0  0
  -25.9288  -11.6479   20.5746 N   0  0  0  0  0  0
  -22.0497  -12.8214   22.0420 N   0  0  0  0  0  0
  -25.4226  -15.1847   20.4085 N   0  0  0  0  0  0
  -31.8319  -14.6680   20.1074 O   0  0  0  0  0  0
  -21.6618   -6.8887   21.4244 O   0  0  0  0  0  0
  -22.3522  -14.5481   20.6625 O   0  0  0  0  0  0
  -24.6210  -31.8643   23.2054 C   0  0  0  0  0  0
  -25.9081  -32.4788   23.8381 C   0  0  1  0  0  0
  -27.2024  -27.3702   20.1146 C   0  0  0  0  0  0
  -25.5904  -33.8595   24.2311 N   0  0  0  0  0  0
  -23.4070  -30.4942   21.5458 C   0  0  2  0  0  0
  -24.8411  -28.9552   20.1083 C   0  0  0  0  0  0
  -22.7418  -29.4662   22.4945 C   0  0  0  0  0  0
  -18.0256  -28.1390   22.8487 C   0  0  0  0  0  0
  -24.1474  -36.7319   23.2650 C   0  0  0  0  0  0
  -25.9428  -30.8140   21.3619 C   0  0  0  0  0  0
  -26.0085  -29.4458   20.7085 C   0  0  0  0  0  0
  -27.1891  -28.6632   20.7021 C   0  0  0  0  0  0
  -26.0124  -26.9072   19.5060 C   0  0  0  0  0  0
  -24.8450  -27.6914   19.4989 C   0  0  0  0  0  0
  -23.6119  -29.8342   20.1589 C   0  0  0  0  0  0
  -25.4093  -36.3098   24.0345 C   0  0  1  0  0  0
  -20.5845  -28.3686   23.1288 C   0  0  2  0  0  0
  -20.6744  -26.9412   22.5422 C   0  0  0  0  0  0
  -19.5724  -26.6387   21.5222 C   0  0  0  0  0  0
  -18.1896  -26.7927   22.1614 C   0  0  0  0  0  0
  -19.1513  -28.8844   23.2879 C   0  0  0  0  0  0
  -18.9450  -30.1431   23.8929 C   0  0  0  0  0  0
  -17.6465  -30.6591   24.0568 C   0  0  0  0  0  0
  -25.9040  -34.9474   23.5131 C   0  0  0  0  0  0
  -16.5347  -29.9121   23.6307 C   0  0  0  0  0  0
  -16.7245  -28.6516   23.0356 C   0  0  0  0  0  0
  -26.4484  -31.6566   25.0718 C   0  0  0  0  0  0
  -25.3741  -31.3706   26.1469 C   0  0  0  0  0  0
  -27.0321  -30.3001   24.6099 C   0  0  0  0  0  0
  -27.6026  -32.4301   25.7485 C   0  0  0  0  0  0
  -27.5559  -37.1806   24.8453 C   0  0  0  0  0  0
  -21.4132  -29.3066   22.3684 N   0  0  0  0  0  0
  -26.4274  -37.3784   23.9410 N   0  0  0  0  0  0
  -24.6752  -31.0724   22.0944 N   0  0  0  0  0  0
  -23.4164  -28.8192   23.2989 O   0  0  0  0  0  0
  -28.3668  -26.6153   20.1777 O   0  0  0  0  0  0
  -26.5605  -34.8917   22.4689 O   0  0  0  0  0  0
  -23.5374  -32.1433   23.7403 O   0  0  0  0  0  0
  -29.5116  -17.9796   16.8008 C   0  0  0  0  0  0
  -29.1764  -18.9288   15.8220 C   0  0  0  0  0  0
  -30.4886  -18.3395   17.7514 C   0  0  0  0  0  0
  -29.8498  -20.1680   15.8548 C   0  0  0  0  0  0
  -27.7333  -18.7427   19.4828 C   0  0  0  0  0  0
  -30.7787  -23.6303   20.9922 C   0  0  0  0  0  0
  -29.5220  -22.4002   19.2081 C   0  0  0  0  0  0
  -28.4047  -22.1277   22.9007 C   0  0  0  0  0  0
  -30.5987  -21.2494   22.4001 C   0  0  0  0  0  0
  -31.1344  -18.2186   21.3624 C   0  0  0  0  0  0
  -30.7200  -17.4896   18.9975 C   0  0  0  0  0  0
  -28.3602  -24.0641   20.7451 C   0  0  0  0  0  0
  -28.5843  -20.2278   21.3035 C   0  0  0  0  0  0
  -29.2805  -16.5938   20.8853 C   0  0  0  0  0  0
  -28.4381  -25.2454   19.6877 C   0  0  0  0  0  0
  -29.0429  -19.2039   20.1644 C   0  0  1  0  0  0
  -29.3599  -21.3477   15.0141 C   0  0  0  0  0  0
  -29.4450  -22.8899   20.6703 C   0  0  0  0  0  0
  -29.2690  -21.6274   21.7161 C   0  0  0  0  0  0
  -30.0102  -17.9075   20.3594 C   0  0  1  0  0  0
  -30.1198  -21.5377   13.6875 C   0  0  0  0  0  0
  -31.2150  -19.4809   17.6343 N   0  0  0  0  0  0
  -30.8926  -20.3854   16.6999 N   0  0  0  0  0  0
  -30.1644  -15.4839   21.3464 N   0  0  0  0  0  0
  -28.0672  -21.1657   14.7274 F   0  0  0  0  0  0
  -29.4451  -22.4681   15.7388 F   0  0  0  0  0  0
  -30.0364  -20.4288   12.9498 F   0  0  0  0  0  0
  -31.4113  -21.8037   13.8921 F   0  0  0  0  0  0
  -29.5837  -22.5485   12.9962 F   0  0  0  0  0  0
  -31.4512  -12.4288   19.1208 H   0  0  0  0  0  0
  -30.3160  -11.3332   19.8442 H   0  0  0  0  0  0
  -29.7266  -11.7480   17.4430 H   0  0  0  0  0  0
  -29.6479  -13.4649   17.7339 H   0  0  0  0  0  0
  -27.8130  -11.2993   18.8317 H   0  0  0  0  0  0
  -27.3516  -12.6026   17.7786 H   0  0  0  0  0  0
  -27.6670  -14.2494   19.5302 H   0  0  0  0  0  0
  -28.6773  -12.0277   21.3727 H   0  0  0  0  0  0
  -28.4436  -13.6870   21.8327 H   0  0  0  0  0  0
  -25.2757   -9.5715   22.4774 H   0  0  0  0  0  0
  -23.9971   -7.4653   22.7455 H   0  0  0  0  0  0
  -21.0855   -8.8767   19.8959 H   0  0  0  0  0  0
  -22.3650  -10.9680   19.6152 H   0  0  0  0  0  0
  -21.2007   -7.6168   23.9763 H   0  0  0  0  0  0
  -21.1476   -6.0527   25.9099 H   0  0  0  0  0  0
  -22.0610   -2.7641   23.2826 H   0  0  0  0  0  0
  -22.4056  -11.9794   22.4699 H   0  0  0  0  0  0
  -21.1166  -13.1326   22.2729 H   0  0  0  0  0  0
  -24.6575  -15.8364   20.5477 H   0  0  0  0  0  0
  -26.2707  -15.6334   20.0879 H   0  0  0  0  0  0
  -26.7148  -32.5431   23.1127 H   0  0  0  0  0  0
  -25.0032  -33.9769   25.0437 H   0  0  0  0  0  0
  -22.6959  -31.3116   21.4083 H   0  0  0  0  0  0
  -23.3724  -35.9652   23.3289 H   0  0  0  0  0  0
  -24.3606  -36.8973   22.2076 H   0  0  0  0  0  0
  -23.7240  -37.6524   23.6681 H   0  0  0  0  0  0
  -26.0698  -31.5721   20.5904 H   0  0  0  0  0  0
  -26.8307  -30.8608   21.9830 H   0  0  0  0  0  0
  -28.0863  -29.0379   21.1720 H   0  0  0  0  0  0
  -25.9361  -25.9359   19.0428 H   0  0  0  0  0  0
  -23.9468  -27.3146   19.0286 H   0  0  0  0  0  0
  -23.7267  -30.6142   19.4066 H   0  0  0  0  0  0
  -22.7280  -29.2716   19.8546 H   0  0  0  0  0  0
  -25.1260  -36.1974   25.0842 H   0  0  0  0  0  0
  -20.9944  -28.3286   24.1406 H   0  0  0  0  0  0
  -20.5663  -26.2310   23.3628 H   0  0  0  0  0  0
  -21.6605  -26.7465   22.1186 H   0  0  0  0  0  0
  -19.6913  -25.6315   21.1222 H   0  0  0  0  0  0
  -19.6651  -27.3210   20.6757 H   0  0  0  0  0  0
  -17.4159  -26.6660   21.4021 H   0  0  0  0  0  0
  -18.0284  -26.0091   22.9033 H   0  0  0  0  0  0
  -19.7944  -30.7201   24.2333 H   0  0  0  0  0  0
  -17.5045  -31.6279   24.5171 H   0  0  0  0  0  0
  -15.5354  -30.3058   23.7626 H   0  0  0  0  0  0
  -15.8619  -28.0857   22.7097 H   0  0  0  0  0  0
  -24.5909  -30.7027   25.7864 H   0  0  0  0  0  0
  -24.8921  -32.2864   26.4878 H   0  0  0  0  0  0
  -25.8116  -30.8940   27.0250 H   0  0  0  0  0  0
  -26.2879  -29.6744   24.1151 H   0  0  0  0  0  0
  -27.4116  -29.7240   25.4550 H   0  0  0  0  0  0
  -27.8684  -30.4331   23.9237 H   0  0  0  0  0  0
  -27.2632  -33.3635   26.1982 H   0  0  0  0  0  0
  -28.3874  -32.6817   25.0341 H   0  0  0  0  0  0
  -28.0623  -31.8476   26.5479 H   0  0  0  0  0  0
  -28.2556  -38.0118   24.7491 H   0  0  0  0  0  0
  -28.1073  -36.2649   24.6258 H   0  0  0  0  0  0
  -27.2285  -37.1429   25.8860 H   0  0  0  0  0  0
  -20.9285  -29.8848   21.6974 H   0  0  0  0  0  0
  -26.0152  -38.2858   24.1408 H   0  0  0  0  0  0
  -28.9683  -17.0467   16.8688 H   0  0  0  0  0  0
  -28.3780  -18.7375   15.1202 H   0  0  0  0  0  0
  -27.2839  -19.5662   18.9297 H   0  0  0  0  0  0
  -26.9984  -18.3989   20.2145 H   0  0  0  0  0  0
  -27.8673  -17.9164   18.7906 H   0  0  0  0  0  0
  -30.9854  -24.4735   20.3421 H   0  0  0  0  0  0
  -31.6612  -22.9996   20.8948 H   0  0  0  0  0  0
  -30.7496  -24.0388   22.0059 H   0  0  0  0  0  0
  -29.5426  -23.2071   18.4790 H   0  0  0  0  0  0
  -28.6626  -21.7859   18.9423 H   0  0  0  0  0  0
  -30.4417  -21.8401   19.0371 H   0  0  0  0  0  0
  -28.3685  -21.3976   23.7077 H   0  0  0  0  0  0
  -27.3684  -22.3145   22.6114 H   0  0  0  0  0  0
  -28.8097  -23.0409   23.3422 H   0  0  0  0  0  0
  -30.4842  -20.3946   23.0596 H   0  0  0  0  0  0
  -30.9641  -22.0413   23.0513 H   0  0  0  0  0  0
  -31.3797  -21.0195   21.6818 H   0  0  0  0  0  0
  -31.8300  -17.3884   21.4834 H   0  0  0  0  0  0
  -30.7430  -18.4255   22.3543 H   0  0  0  0  0  0
  -31.7429  -19.0497   21.0174 H   0  0  0  0  0  0
  -31.7983  -17.3813   19.1256 H   0  0  0  0  0  0
  -30.3922  -16.4967   18.6989 H   0  0  0  0  0  0
  -27.3637  -23.6282   20.6898 H   0  0  0  0  0  0
  -28.4154  -24.5422   21.7246 H   0  0  0  0  0  0
  -28.4600  -19.6241   22.2042 H   0  0  0  0  0  0
  -27.5646  -20.5262   21.0593 H   0  0  0  0  0  0
  -28.6101  -16.2031   20.1212 H   0  0  0  0  0  0
  -28.6433  -16.8536   21.7307 H   0  0  0  0  0  0
  -27.7582  -25.0383   18.8656 H   0  0  0  0  0  0
  -29.4009  -25.2381   19.1868 H   0  0  0  0  0  0
  -29.5544  -19.8611   19.4820 H   0  0  0  0  0  0
  -30.8954  -15.8941   21.9089 H   0  0  0  0  0  0
  1 25  1  0  0  0
  1 30  2  0  0  0
  1 94  1  0  0  0
  2  3  1  0  0  0
  2 25  1  0  0  0
  2100  1  0  0  0
  2101  1  0  0  0
  3  4  1  0  0  0
  3102  1  0  0  0
  3103  1  0  0  0
  4  5  1  0  0  0
  4104  1  0  0  0
  4105  1  0  0  0
  5  6  1  0  0  0
  5 26  1  0  0  0
  5106  1  0  0  0
  6 25  1  0  0  0
  6107  1  0  0  0
  6108  1  0  0  0
  7  8  2  0  0  0
  7 26  1  0  0  0
  7 29  1  0  0  0
  8  9  1  0  0  0
  8 22  1  0  0  0
  9 10  1  0  0  0
  9 27  2  0  0  0
 10 11  2  0  0  0
 10 15  1  0  0  0
 11 12  1  0  0  0
 11109  1  0  0  0
 12 13  2  0  0  0
 12110  1  0  0  0
 13 14  1  0  0  0
 13 31  1  0  0  0
 14 15  2  0  0  0
 14111  1  0  0  0
 15112  1  0  0  0
 16 17  2  0  0  0
 16 21  1  0  0  0
 16 31  1  0  0  0
 17 18  1  0  0  0
 17113  1  0  0  0
 18 19  2  0  0  0
 18114  1  0  0  0
 19 20  1  0  0  0
 19 24  1  0  0  0
 20 21  2  0  0  0
 20115  1  0  0  0
 21 23  1  0  0  0
 22 28  1  0  0  0
 22 32  2  0  0  0
 26 27  1  0  0  0
 28116  1  0  0  0
 28117  1  0  0  0
 29118  1  0  0  0
 29119  1  0  0  0
 33 34  1  0  0  0
 33 66  1  0  0  0
 33 70  2  0  0  0
 34 36  1  0  0  0
 34 59  1  0  0  0
 34120  1  0  0  0
 35 44  2  0  0  0
 35 45  1  0  0  0
 35 68  1  0  0  0
 36 56  1  0  0  0
 36121  1  0  0  0
 37 39  1  0  0  0
 37 47  1  0  0  0
 37 66  1  0  0  0
 37122  1  0  0  0
 38 43  2  0  0  0
 38 46  1  0  0  0
 38 47  1  0  0  0
 39 64  1  0  0  0
 39 67  2  0  0  0
 40 52  1  0  0  0
 40 53  2  0  0  0
 40 58  1  0  0  0
 41123  1  0  0  0
 41124  1  0  0  0
 41125  1  0  0  0
 41 48  1  0  0  0
 42 43  1  0  0  0
 42 66  1  0  0  0
 42126  1  0  0  0
 42127  1  0  0  0
 43 44  1  0  0  0
 44128  1  0  0  0
 45 46  2  0  0  0
 45129  1  0  0  0
 46130  1  0  0  0
 47131  1  0  0  0
 47132  1  0  0  0
 48 56  1  0  0  0
 48 65  1  0  0  0
 48133  1  0  0  0
 49 50  1  0  0  0
 49 53  1  0  0  0
 49 64  1  0  0  0
 49134  1  0  0  0
 50 51  1  0  0  0
 50135  1  0  0  0
 50136  1  0  0  0
 51 52  1  0  0  0
 51137  1  0  0  0
 51138  1  0  0  0
 52139  1  0  0  0
 52140  1  0  0  0
 53 54  1  0  0  0
 54 55  2  0  0  0
 54141  1  0  0  0
 55 57  1  0  0  0
 55142  1  0  0  0
 56 69  2  0  0  0
 57 58  2  0  0  0
 57143  1  0  0  0
 58144  1  0  0  0
 59 60  1  0  0  0
 59 61  1  0  0  0
 59 62  1  0  0  0
 60145  1  0  0  0
 60146  1  0  0  0
 60147  1  0  0  0
 61148  1  0  0  0
 61149  1  0  0  0
 61150  1  0  0  0
 62151  1  0  0  0
 62152  1  0  0  0
 62153  1  0  0  0
 63 65  1  0  0  0
 63154  1  0  0  0
 63155  1  0  0  0
 63156  1  0  0  0
 64157  1  0  0  0
 65158  1  0  0  0
 68 85  1  0  0  0
 71 72  2  0  0  0
 71 73  1  0  0  0
 71159  1  0  0  0
 72 74  1  0  0  0
 72160  1  0  0  0
 73 81  1  0  0  0
 73 92  2  0  0  0
 74 87  1  0  0  0
 74 93  2  0  0  0
 75161  1  0  0  0
 75162  1  0  0  0
 75163  1  0  0  0
 75 86  1  0  0  0
 76164  1  0  0  0
 76165  1  0  0  0
 76166  1  0  0  0
 76 88  1  0  0  0
 77 88  1  0  0  0
 77167  1  0  0  0
 77168  1  0  0  0
 77169  1  0  0  0
 78170  1  0  0  0
 78171  1  0  0  0
 78172  1  0  0  0
 78 89  1  0  0  0
 79 89  1  0  0  0
 79173  1  0  0  0
 79174  1  0  0  0
 79175  1  0  0  0
 80176  1  0  0  0
 80177  1  0  0  0
 80178  1  0  0  0
 80 90  1  0  0  0
 81 90  1  0  0  0
 81179  1  0  0  0
 81180  1  0  0  0
 82 85  1  0  0  0
 82 88  1  0  0  0
 82181  1  0  0  0
 82182  1  0  0  0
 83 86  1  0  0  0
 83 89  1  0  0  0
 83183  1  0  0  0
 83184  1  0  0  0
 84 90  1  0  0  0
 84 94  1  0  0  0
 84185  1  0  0  0
 84186  1  0  0  0
 85187  1  0  0  0
 85188  1  0  0  0
 86 90  1  0  0  0
 86189  1  0  0  0
 87 91  1  0  0  0
 87 95  1  0  0  0
 87 96  1  0  0  0
 88 89  1  0  0  0
 91 97  1  0  0  0
 91 98  1  0  0  0
 91 99  1  0  0  0
 92 93  1  0  0  0
 94190  1  0  0  0
M  ISO  4   1 100  68 101  85 101  94 100
M  END
> <chiral flag>
0

> <version>
0

> <s_m_source_file>
/data/baiqing/PycharmProjects/Reinvent-master-3.2/result/LINK_invent/BTK/process_docking_weight1_custom_sum_contain_oxygen_bond_distance_aromatic_linkinvent_7_9_3/rearranged_h_0067.sdf

> <i_m_source_file_index>
38

> <r_mmod_Potential_Energy-OPLS-2005>
357.611236572266

> <r_mmod_Stretch_Energy-OPLS-2005>
103.531143188477

> <r_mmod_Bend_Energy-OPLS-2005>
246.439788818359

> <r_mmod_Torsional_Energy-OPLS-2005>
316.309051513672

> <r_mmod_Improper_Torsional_Energy-OPLS-2005>
6.93410205841064

> <r_mmod_Van_der_Waal_Energy-OPLS-2005>
194.426742553711

> <r_mmod_Electrostatic_Energy-OPLS-2005>
-338.246185302734

> <r_mmod_Solvation_Energy-OPLS-2005>
-194.803436279297

> <b_mmod_Minimization_Converged-OPLS-2005>
0

> <r_mmod_RMS_Derivative-OPLS-2005>
5.6658411026001

$$$$
38
                    3D
 Structure written by MMmdl.
150158  0  0  1  0            999 V2000
  -30.6013  -14.7265   20.4372 C   0  0  0  0  0  0
  -30.4348  -12.4351   19.4534 C   0  0  0  0  0  0
  -29.5052  -12.4989   18.2191 C   0  0  0  0  0  0
  -28.0304  -12.3514   18.6390 C   0  0  0  0  0  0
  -27.6541  -13.2264   19.8596 C   0  0  2  0  0  0
  -28.7017  -13.1354   20.9856 C   0  0  0  0  0  0
  -25.2615  -13.8174   20.5786 C   0  0  0  0  0  0
  -24.1919  -13.0507   20.9148 C   0  0  0  0  0  0
  -24.6436  -11.6919   20.8754 C   0  0  0  0  0  0
  -23.9087  -10.4347   21.0452 C   0  0  0  0  0  0
  -24.3645   -9.4224   21.9206 C   0  0  0  0  0  0
  -23.6323   -8.2272   22.0803 C   0  0  0  0  0  0
  -22.4275   -8.0321   21.3586 C   0  0  0  0  0  0
  -21.9960   -9.0288   20.4661 C   0  0  0  0  0  0
  -22.7272  -10.2184   20.3056 C   0  0  0  0  0  0
  -21.6876   -6.0726   22.5277 C   0  0  0  0  0  0
  -21.4024   -6.5645   23.8188 C   0  0  0  0  0  0
  -21.3655   -5.6800   24.9176 C   0  0  0  0  0  0
  -21.6043   -4.3092   24.7242 C   0  0  0  0  0  0
  -21.8836   -3.8138   23.4352 C   0  0  0  0  0  0
  -21.9226   -4.6941   22.3410 C   0  0  0  0  0  0
  -22.7899  -13.5218   21.1852 C   0  0  0  0  0  0
  -22.1714   -4.2094   21.1008 F   0  0  0  0  0  0
  -21.5619   -3.4584   25.7761 F   0  0  0  0  0  0
  -30.0014  -13.4913   20.3979 N   0  0  0  0  0  0
  -26.3036  -12.9399   20.3329 N   0  0  0  0  0  0
  -25.9385  -11.6544   20.5798 N   0  0  0  0  0  0
  -22.0584  -12.8179   22.0340 N   0  0  0  0  0  0
  -25.4471  -15.1927   20.4319 N   0  0  0  0  0  0
  -31.7378  -14.8496   19.9608 O   0  0  0  0  0  0
  -21.6662   -6.8898   21.4257 O   0  0  0  0  0  0
  -22.3610  -14.5570   20.6699 O   0  0  0  0  0  0
  -24.6389  -31.8508   23.1888 C   0  0  0  0  0  0
  -25.9203  -32.4698   23.8274 C   0  0  1  0  0  0
  -27.2283  -27.2505   20.1060 C   0  0  0  0  0  0
  -25.5955  -33.8485   24.2181 N   0  0  0  0  0  0
  -23.4288  -30.4709   21.5373 C   0  0  2  0  0  0
  -24.8744  -28.9128   20.1030 C   0  0  0  0  0  0
  -22.7496  -29.4605   22.4942 C   0  0  0  0  0  0
  -18.0259  -28.1378   22.8448 C   0  0  0  0  0  0
  -24.1485  -36.7283   23.2639 C   0  0  0  0  0  0
  -25.9763  -30.7607   21.3644 C   0  0  0  0  0  0
  -26.0447  -29.3817   20.7083 C   0  0  0  0  0  0
  -27.2206  -28.5596   20.7025 C   0  0  0  0  0  0
  -26.0247  -26.8520   19.4782 C   0  0  0  0  0  0
  -24.8719  -27.6570   19.4742 C   0  0  0  0  0  0
  -23.6356  -29.7878   20.1576 C   0  0  0  0  0  0
  -25.4105  -36.3014   24.0301 C   0  0  1  0  0  0
  -20.5870  -28.3694   23.1217 C   0  0  2  0  0  0
  -20.6738  -26.9397   22.5379 C   0  0  0  0  0  0
  -19.5740  -26.6359   21.5161 C   0  0  0  0  0  0
  -18.1916  -26.7905   22.1589 C   0  0  0  0  0  0
  -19.1530  -28.8848   23.2802 C   0  0  0  0  0  0
  -18.9469  -30.1447   23.8809 C   0  0  0  0  0  0
  -17.6462  -30.6573   24.0515 C   0  0  0  0  0  0
  -25.9061  -34.9397   23.5054 C   0  0  0  0  0  0
  -16.5348  -29.9047   23.6333 C   0  0  0  0  0  0
  -16.7254  -28.6475   23.0336 C   0  0  0  0  0  0
  -26.4521  -31.6548   25.0704 C   0  0  0  0  0  0
  -25.3693  -31.3745   26.1386 C   0  0  0  0  0  0
  -27.0378  -30.2923   24.6273 C   0  0  0  0  0  0
  -27.6086  -32.4224   25.7508 C   0  0  0  0  0  0
  -27.5558  -37.1751   24.8424 C   0  0  0  0  0  0
  -21.4210  -29.3045   22.3649 N   0  0  0  0  0  0
  -26.4246  -37.3741   23.9406 N   0  0  0  0  0  0
  -24.6994  -31.0468   22.0856 N   0  0  0  0  0  0
  -23.4179  -28.8184   23.3075 O   0  0  0  0  0  0
  -28.3463  -26.3820   20.1766 O   0  0  0  0  0  0
  -26.5681  -34.8896   22.4630 O   0  0  0  0  0  0
  -23.5520  -32.1374   23.7171 O   0  0  0  0  0  0
  -29.2557  -18.5634   21.1229 C   0  0  0  0  0  0
  -29.4955  -17.3694   20.4525 C   0  0  0  0  0  0
  -29.9474  -16.0158   21.1265 C   0  0  0  0  0  0
  -28.9374  -22.2041   19.8218 C   0  0  0  0  0  0
  -28.6217  -23.6571   20.5003 C   0  0  0  0  0  0
  -28.2065  -20.8957   20.4598 C   0  0  0  0  0  0
  -28.3992  -24.9872   19.6056 C   0  0  0  0  0  0
  -29.1139  -17.6334   19.1253 N   0  0  0  0  0  0
  -28.6844  -18.8768   18.9938 N   0  0  0  0  0  0
  -28.7621  -19.5054   20.2058 N   0  0  0  0  0  0
  -31.4742  -12.5497   19.1439 H   0  0  0  0  0  0
  -30.3812  -11.4566   19.9280 H   0  0  0  0  0  0
  -29.7639  -11.7185   17.5018 H   0  0  0  0  0  0
  -29.6494  -13.4499   17.6973 H   0  0  0  0  0  0
  -27.8591  -11.3017   18.8758 H   0  0  0  0  0  0
  -27.3706  -12.5960   17.8053 H   0  0  0  0  0  0
  -27.6594  -14.2553   19.5041 H   0  0  0  0  0  0
  -28.7332  -12.1425   21.4327 H   0  0  0  0  0  0
  -28.4196  -13.7943   21.8023 H   0  0  0  0  0  0
  -25.2820   -9.5703   22.4776 H   0  0  0  0  0  0
  -24.0014   -7.4668   22.7542 H   0  0  0  0  0  0
  -21.0887   -8.8811   19.8925 H   0  0  0  0  0  0
  -22.3749  -10.9739   19.6163 H   0  0  0  0  0  0
  -21.1995   -7.6154   23.9664 H   0  0  0  0  0  0
  -21.1456   -6.0563   25.9064 H   0  0  0  0  0  0
  -22.0606   -2.7588   23.2892 H   0  0  0  0  0  0
  -22.4270  -11.9800   22.4609 H   0  0  0  0  0  0
  -21.1191  -13.1217   22.2640 H   0  0  0  0  0  0
  -24.7105  -15.8692   20.5931 H   0  0  0  0  0  0
  -26.3092  -15.6190   20.1284 H   0  0  0  0  0  0
  -26.7304  -32.5332   23.1047 H   0  0  0  0  0  0
  -24.9934  -33.9586   25.0212 H   0  0  0  0  0  0
  -22.7257  -31.2919   21.3835 H   0  0  0  0  0  0
  -23.3735  -35.9613   23.3203 H   0  0  0  0  0  0
  -24.3603  -36.9043   22.2077 H   0  0  0  0  0  0
  -23.7241  -37.6441   23.6764 H   0  0  0  0  0  0
  -26.1078  -31.5101   20.5831 H   0  0  0  0  0  0
  -26.8569  -30.8154   21.9922 H   0  0  0  0  0  0
  -28.1167  -28.9186   21.1876 H   0  0  0  0  0  0
  -25.9219  -25.8934   19.0006 H   0  0  0  0  0  0
  -23.9757  -27.2849   18.9955 H   0  0  0  0  0  0
  -23.7203  -30.5466   19.3807 H   0  0  0  0  0  0
  -22.7611  -29.1899   19.8907 H   0  0  0  0  0  0
  -25.1282  -36.1830   25.0788 H   0  0  0  0  0  0
  -20.9916  -28.3268   24.1351 H   0  0  0  0  0  0
  -20.5546  -26.2324   23.3597 H   0  0  0  0  0  0
  -21.6615  -26.7348   22.1240 H   0  0  0  0  0  0
  -19.6880  -25.6259   21.1208 H   0  0  0  0  0  0
  -19.6656  -27.3140   20.6670 H   0  0  0  0  0  0
  -17.4150  -26.6585   21.4006 H   0  0  0  0  0  0
  -18.0343  -26.0067   22.9031 H   0  0  0  0  0  0
  -19.7946  -30.7276   24.2130 H   0  0  0  0  0  0
  -17.5027  -31.6263   24.5128 H   0  0  0  0  0  0
  -15.5350  -30.2924   23.7713 H   0  0  0  0  0  0
  -15.8656  -28.0775   22.7079 H   0  0  0  0  0  0
  -24.5856  -30.7120   25.7705 H   0  0  0  0  0  0
  -24.8895  -32.2929   26.4741 H   0  0  0  0  0  0
  -25.7946  -30.8952   27.0211 H   0  0  0  0  0  0
  -26.3009  -29.6615   24.1262 H   0  0  0  0  0  0
  -27.3982  -29.7239   25.4889 H   0  0  0  0  0  0
  -27.8926  -30.4156   23.9595 H   0  0  0  0  0  0
  -27.2736  -33.3529   26.2080 H   0  0  0  0  0  0
  -28.3930  -32.6724   25.0357 H   0  0  0  0  0  0
  -28.0701  -31.8305   26.5427 H   0  0  0  0  0  0
  -28.2497  -38.0137   24.7558 H   0  0  0  0  0  0
  -28.1133  -36.2643   24.6116 H   0  0  0  0  0  0
  -27.2283  -37.1245   25.8834 H   0  0  0  0  0  0
  -20.9416  -29.8822   21.6886 H   0  0  0  0  0  0
  -26.0102  -38.2796   24.1444 H   0  0  0  0  0  0
  -29.3469  -18.7935   22.1793 H   0  0  0  0  0  0
  -29.1516  -15.7177   21.7946 H   0  0  0  0  0  0
  -30.7363  -16.3154   21.8091 H   0  0  0  0  0  0
  -30.0310  -22.0652   19.8741 H   0  0  0  0  0  0
  -28.7440  -22.2482   18.7373 H   0  0  0  0  0  0
  -29.4644  -23.8675   21.1663 H   0  0  0  0  0  0
  -27.7835  -23.5374   21.1872 H   0  0  0  0  0  0
  -27.1407  -20.8616   20.1921 H   0  0  0  0  0  0
  -28.1543  -21.0032   21.5491 H   0  0  0  0  0  0
  -27.5887  -24.7775   18.9150 H   0  0  0  0  0  0
  -29.2683  -25.0173   18.9529 H   0  0  0  0  0  0
  1 25  1  0  0  0
  1 30  2  0  0  0
  1 73  1  0  0  0
  2  3  1  0  0  0
  2 25  1  0  0  0
  2 81  1  0  0  0
  2 82  1  0  0  0
  3  4  1  0  0  0
  3 83  1  0  0  0
  3 84  1  0  0  0
  4  5  1  0  0  0
  4 85  1  0  0  0
  4 86  1  0  0  0
  5  6  1  0  0  0
  5 26  1  0  0  0
  5 87  1  0  0  0
  6 25  1  0  0  0
  6 88  1  0  0  0
  6 89  1  0  0  0
  7  8  2  0  0  0
  7 26  1  0  0  0
  7 29  1  0  0  0
  8  9  1  0  0  0
  8 22  1  0  0  0
  9 10  1  0  0  0
  9 27  2  0  0  0
 10 11  2  0  0  0
 10 15  1  0  0  0
 11 12  1  0  0  0
 11 90  1  0  0  0
 12 13  2  0  0  0
 12 91  1  0  0  0
 13 14  1  0  0  0
 13 31  1  0  0  0
 14 15  2  0  0  0
 14 92  1  0  0  0
 15 93  1  0  0  0
 16 17  2  0  0  0
 16 21  1  0  0  0
 16 31  1  0  0  0
 17 18  1  0  0  0
 17 94  1  0  0  0
 18 19  2  0  0  0
 18 95  1  0  0  0
 19 20  1  0  0  0
 19 24  1  0  0  0
 20 21  2  0  0  0
 20 96  1  0  0  0
 21 23  1  0  0  0
 22 28  1  0  0  0
 22 32  2  0  0  0
 26 27  1  0  0  0
 28 97  1  0  0  0
 28 98  1  0  0  0
 29 99  1  0  0  0
 29100  1  0  0  0
 33 34  1  0  0  0
 33 66  1  0  0  0
 33 70  2  0  0  0
 34 36  1  0  0  0
 34 59  1  0  0  0
 34101  1  0  0  0
 35 44  2  0  0  0
 35 45  1  0  0  0
 35 68  1  0  0  0
 36 56  1  0  0  0
 36102  1  0  0  0
 37 39  1  0  0  0
 37 47  1  0  0  0
 37 66  1  0  0  0
 37103  1  0  0  0
 38 43  2  0  0  0
 38 46  1  0  0  0
 38 47  1  0  0  0
 39 64  1  0  0  0
 39 67  2  0  0  0
 40 52  1  0  0  0
 40 53  2  0  0  0
 40 58  1  0  0  0
 41104  1  0  0  0
 41105  1  0  0  0
 41106  1  0  0  0
 41 48  1  0  0  0
 42 43  1  0  0  0
 42 66  1  0  0  0
 42107  1  0  0  0
 42108  1  0  0  0
 43 44  1  0  0  0
 44109  1  0  0  0
 45 46  2  0  0  0
 45110  1  0  0  0
 46111  1  0  0  0
 47112  1  0  0  0
 47113  1  0  0  0
 48 56  1  0  0  0
 48 65  1  0  0  0
 48114  1  0  0  0
 49 50  1  0  0  0
 49 53  1  0  0  0
 49 64  1  0  0  0
 49115  1  0  0  0
 50 51  1  0  0  0
 50116  1  0  0  0
 50117  1  0  0  0
 51 52  1  0  0  0
 51118  1  0  0  0
 51119  1  0  0  0
 52120  1  0  0  0
 52121  1  0  0  0
 53 54  1  0  0  0
 54 55  2  0  0  0
 54122  1  0  0  0
 55 57  1  0  0  0
 55123  1  0  0  0
 56 69  2  0  0  0
 57 58  2  0  0  0
 57124  1  0  0  0
 58125  1  0  0  0
 59 60  1  0  0  0
 59 61  1  0  0  0
 59 62  1  0  0  0
 60126  1  0  0  0
 60127  1  0  0  0
 60128  1  0  0  0
 61129  1  0  0  0
 61130  1  0  0  0
 61131  1  0  0  0
 62132  1  0  0  0
 62133  1  0  0  0
 62134  1  0  0  0
 63 65  1  0  0  0
 63135  1  0  0  0
 63136  1  0  0  0
 63137  1  0  0  0
 64138  1  0  0  0
 65139  1  0  0  0
 68 77  1  0  0  0
 71 72  2  0  0  0
 71 80  1  0  0  0
 71140  1  0  0  0
 72 73  1  0  0  0
 72 78  1  0  0  0
 73141  1  0  0  0
 73142  1  0  0  0
 74 75  1  0  0  0
 74 76  1  0  0  0
 74143  1  0  0  0
 74144  1  0  0  0
 75 77  1  0  0  0
 75145  1  0  0  0
 75146  1  0  0  0
 76 80  1  0  0  0
 76147  1  0  0  0
 76148  1  0  0  0
 77149  1  0  0  0
 77150  1  0  0  0
 78 79  2  0  0  0
 79 80  1  0  0  0
M  ISO  4   1 100  68 101  73 100  77 101
M  END
> <chiral flag>
0

> <version>
0

> <s_m_source_file>
/data/baiqing/PycharmProjects/Reinvent-master-3.2/result/LINK_invent/BTK/process_docking_weight1_custom_sum_contain_oxygen_bond_distance_aromatic_linkinvent_7_9_3/rearranged_h_0067.sdf

> <i_m_source_file_index>
39

> <r_mmod_Potential_Energy-OPLS-2005>
228.981887817383

> <r_mmod_Stretch_Energy-OPLS-2005>
120.742988586426

> <r_mmod_Bend_Energy-OPLS-2005>
210.876281738281

> <r_mmod_Torsional_Energy-OPLS-2005>
188.117935180664

> <r_mmod_Improper_Torsional_Energy-OPLS-2005>
3.09279894828796

> <r_mmod_Van_der_Waal_Energy-OPLS-2005>
116.448692321777

> <r_mmod_Electrostatic_Energy-OPLS-2005>
-275.214019775391

> <r_mmod_Solvation_Energy-OPLS-2005>
-217.356719970703

> <b_mmod_Minimization_Converged-OPLS-2005>
0

> <r_mmod_RMS_Derivative-OPLS-2005>
13.7530193328857

$$$$
39
                    3D
 Structure written by MMmdl.
161169  0  0  1  0            999 V2000
  -30.7398  -14.4689   20.5571 C   0  0  0  0  0  0
  -30.4246  -12.3014   19.4346 C   0  0  0  0  0  0
  -29.4998  -12.4913   18.2138 C   0  0  0  0  0  0
  -28.0230  -12.3535   18.6268 C   0  0  0  0  0  0
  -27.6659  -13.2112   19.8708 C   0  0  2  0  0  0
  -28.7092  -13.0287   20.9983 C   0  0  0  0  0  0
  -25.2622  -13.8171   20.5662 C   0  0  0  0  0  0
  -24.1859  -13.0447   20.9165 C   0  0  0  0  0  0
  -24.6396  -11.6914   20.8718 C   0  0  0  0  0  0
  -23.9039  -10.4294   21.0376 C   0  0  0  0  0  0
  -24.3607   -9.4225   21.9168 C   0  0  0  0  0  0
  -23.6301   -8.2249   22.0751 C   0  0  0  0  0  0
  -22.4278   -8.0280   21.3540 C   0  0  0  0  0  0
  -21.9885   -9.0238   20.4638 C   0  0  0  0  0  0
  -22.7193  -10.2130   20.3037 C   0  0  0  0  0  0
  -21.6855   -6.0727   22.5263 C   0  0  0  0  0  0
  -21.4010   -6.5629   23.8195 C   0  0  0  0  0  0
  -21.3669   -5.6786   24.9161 C   0  0  0  0  0  0
  -21.6052   -4.3046   24.7213 C   0  0  0  0  0  0
  -21.8831   -3.8136   23.4334 C   0  0  0  0  0  0
  -21.9197   -4.6954   22.3388 C   0  0  0  0  0  0
  -22.7882  -13.5266   21.1824 C   0  0  0  0  0  0
  -22.1676   -4.2136   21.0969 F   0  0  0  0  0  0
  -21.5627   -3.4532   25.7727 F   0  0  0  0  0  0
  -30.0464  -13.3037   20.4440 N   0  0  0  0  0  0
  -26.3062  -12.9341   20.3358 N   0  0  0  0  0  0
  -25.9341  -11.6499   20.5773 N   0  0  0  0  0  0
  -22.0517  -12.8262   22.0387 N   0  0  0  0  0  0
  -25.4372  -15.1870   20.4024 N   0  0  0  0  0  0
  -31.8607  -14.6329   20.0703 O   0  0  0  0  0  0
  -21.6659   -6.8870   21.4226 O   0  0  0  0  0  0
  -22.3559  -14.5558   20.6671 O   0  0  0  0  0  0
  -24.6153  -31.8682   23.2132 C   0  0  0  0  0  0
  -25.9054  -32.4817   23.8416 C   0  0  1  0  0  0
  -27.2304  -27.4315   20.0872 C   0  0  0  0  0  0
  -25.5914  -33.8615   24.2333 N   0  0  0  0  0  0
  -23.4021  -30.4979   21.5520 C   0  0  2  0  0  0
  -24.8465  -28.9721   20.1104 C   0  0  0  0  0  0
  -22.7420  -29.4671   22.4962 C   0  0  0  0  0  0
  -18.0290  -28.1374   22.8495 C   0  0  0  0  0  0
  -24.1490  -36.7322   23.2641 C   0  0  0  0  0  0
  -25.9347  -30.8335   21.3696 C   0  0  0  0  0  0
  -26.0089  -29.4714   20.7100 C   0  0  0  0  0  0
  -27.2029  -28.7093   20.6975 C   0  0  0  0  0  0
  -26.0422  -26.9634   19.4693 C   0  0  0  0  0  0
  -24.8587  -27.7173   19.4868 C   0  0  0  0  0  0
  -23.6094  -29.8386   20.1637 C   0  0  0  0  0  0
  -25.4107  -36.3107   24.0337 C   0  0  1  0  0  0
  -20.5879  -28.3661   23.1313 C   0  0  2  0  0  0
  -20.6776  -26.9402   22.5404 C   0  0  0  0  0  0
  -19.5752  -26.6383   21.5207 C   0  0  0  0  0  0
  -18.1930  -26.7921   22.1622 C   0  0  0  0  0  0
  -19.1536  -28.8839   23.2901 C   0  0  0  0  0  0
  -18.9463  -30.1446   23.8909 C   0  0  0  0  0  0
  -17.6461  -30.6578   24.0567 C   0  0  0  0  0  0
  -25.9038  -34.9472   23.5127 C   0  0  0  0  0  0
  -16.5354  -29.9080   23.6329 C   0  0  0  0  0  0
  -16.7275  -28.6498   23.0348 C   0  0  0  0  0  0
  -26.4469  -31.6609   25.0755 C   0  0  0  0  0  0
  -25.3753  -31.3729   26.1525 C   0  0  0  0  0  0
  -27.0300  -30.3048   24.6156 C   0  0  0  0  0  0
  -27.6053  -32.4329   25.7508 C   0  0  0  0  0  0
  -27.5579  -37.1811   24.8461 C   0  0  0  0  0  0
  -21.4151  -29.3034   22.3720 N   0  0  0  0  0  0
  -26.4289  -37.3791   23.9415 N   0  0  0  0  0  0
  -24.6687  -31.0804   22.1022 N   0  0  0  0  0  0
  -23.4196  -28.8201   23.2986 O   0  0  0  0  0  0
  -28.3915  -26.6716   20.1210 O   0  0  0  0  0  0
  -26.5587  -34.8920   22.4680 O   0  0  0  0  0  0
  -23.5351  -32.1424   23.7531 O   0  0  0  0  0  0
  -31.1510  -21.9899   21.0186 C   0  0  0  0  0  0
  -31.8974  -20.9382   21.5610 C   0  0  0  0  0  0
  -29.8304  -21.7422   20.6089 C   0  0  0  0  0  0
  -29.3054  -20.4245   20.7628 C   0  0  0  0  0  0
  -30.1127  -19.4200   21.4015 C   0  0  0  0  0  0
  -28.1929  -17.6361   21.6884 C   0  0  0  0  0  0
  -30.0775  -17.6784   23.2574 C   0  0  0  0  0  0
  -28.9957  -22.8636   19.9718 C   0  0  0  0  0  0
  -29.3705  -24.3365   20.2989 C   0  0  0  0  0  0
  -30.4612  -16.9230   20.8749 C   0  0  0  0  0  0
  -28.2356  -25.2726   19.8285 C   0  0  0  0  0  0
  -29.7046  -17.9452   21.7759 C   0  0  0  0  0  0
  -31.3948  -19.7020   21.7499 N   0  0  0  0  0  0
  -30.0693  -15.5099   21.0733 N   0  0  0  0  0  0
  -27.7314  -20.1187   20.1008 Cl  0  0  0  0  0  0
  -31.4726  -12.3807   19.1361 H   0  0  0  0  0  0
  -30.3148  -11.2983   19.8497 H   0  0  0  0  0  0
  -29.7392  -11.7561   17.4442 H   0  0  0  0  0  0
  -29.6711  -13.4703   17.7631 H   0  0  0  0  0  0
  -27.8393  -11.2987   18.8370 H   0  0  0  0  0  0
  -27.3714  -12.6133   17.7913 H   0  0  0  0  0  0
  -27.7023  -14.2548   19.5554 H   0  0  0  0  0  0
  -28.6760  -12.0098   21.3835 H   0  0  0  0  0  0
  -28.4713  -13.6691   21.8494 H   0  0  0  0  0  0
  -25.2759   -9.5718   22.4741 H   0  0  0  0  0  0
  -24.0017   -7.4637   22.7479 H   0  0  0  0  0  0
  -21.0813   -8.8732   19.8944 H   0  0  0  0  0  0
  -22.3636  -10.9666   19.6145 H   0  0  0  0  0  0
  -21.2007   -7.6137   23.9685 H   0  0  0  0  0  0
  -21.1484   -6.0523   25.9064 H   0  0  0  0  0  0
  -22.0607   -2.7597   23.2829 H   0  0  0  0  0  0
  -22.4156  -11.9953   22.4801 H   0  0  0  0  0  0
  -21.1119  -13.1271   22.2564 H   0  0  0  0  0  0
  -24.6722  -15.8461   20.4940 H   0  0  0  0  0  0
  -26.2921  -15.6127   20.0673 H   0  0  0  0  0  0
  -26.7125  -32.5518   23.1179 H   0  0  0  0  0  0
  -25.0089  -33.9772   25.0498 H   0  0  0  0  0  0
  -22.6903  -31.3148   21.4156 H   0  0  0  0  0  0
  -23.3733  -35.9672   23.3299 H   0  0  0  0  0  0
  -24.3595  -36.8936   22.2057 H   0  0  0  0  0  0
  -23.7245  -37.6531   23.6651 H   0  0  0  0  0  0
  -26.0571  -31.6064   20.6090 H   0  0  0  0  0  0
  -26.8191  -30.8757   21.9942 H   0  0  0  0  0  0
  -28.0968  -29.0920   21.1701 H   0  0  0  0  0  0
  -25.9931  -26.0103   18.9640 H   0  0  0  0  0  0
  -23.9674  -27.3299   19.0124 H   0  0  0  0  0  0
  -23.7155  -30.6161   19.4058 H   0  0  0  0  0  0
  -22.7321  -29.2603   19.8671 H   0  0  0  0  0  0
  -25.1271  -36.1971   25.0824 H   0  0  0  0  0  0
  -20.9977  -28.3216   24.1432 H   0  0  0  0  0  0
  -20.5690  -26.2261   23.3578 H   0  0  0  0  0  0
  -21.6644  -26.7441   22.1189 H   0  0  0  0  0  0
  -19.6910  -25.6298   21.1228 H   0  0  0  0  0  0
  -19.6697  -27.3204   20.6748 H   0  0  0  0  0  0
  -17.4198  -26.6690   21.4022 H   0  0  0  0  0  0
  -18.0338  -26.0052   22.9014 H   0  0  0  0  0  0
  -19.7941  -30.7267   24.2269 H   0  0  0  0  0  0
  -17.5019  -31.6265   24.5163 H   0  0  0  0  0  0
  -15.5356  -30.2983   23.7650 H   0  0  0  0  0  0
  -15.8677  -28.0821   22.7046 H   0  0  0  0  0  0
  -24.5890  -30.7099   25.7883 H   0  0  0  0  0  0
  -24.8990  -32.2899   26.5014 H   0  0  0  0  0  0
  -25.8128  -30.8871   27.0262 H   0  0  0  0  0  0
  -26.2858  -29.6811   24.1187 H   0  0  0  0  0  0
  -27.4029  -29.7275   25.4626 H   0  0  0  0  0  0
  -27.8710  -30.4340   23.9341 H   0  0  0  0  0  0
  -27.2665  -33.3603   26.2139 H   0  0  0  0  0  0
  -28.3840  -32.6934   25.0327 H   0  0  0  0  0  0
  -28.0759  -31.8431   26.5386 H   0  0  0  0  0  0
  -28.2588  -38.0115   24.7498 H   0  0  0  0  0  0
  -28.1075  -36.2639   24.6280 H   0  0  0  0  0  0
  -27.2304  -37.1461   25.8868 H   0  0  0  0  0  0
  -20.9300  -29.8755   21.6950 H   0  0  0  0  0  0
  -26.0173  -38.2871   24.1409 H   0  0  0  0  0  0
  -31.6087  -22.9625   20.9041 H   0  0  0  0  0  0
  -32.9235  -21.0970   21.8582 H   0  0  0  0  0  0
  -27.6044  -18.3887   22.2129 H   0  0  0  0  0  0
  -27.9422  -16.6807   22.1508 H   0  0  0  0  0  0
  -27.8520  -17.5739   20.6551 H   0  0  0  0  0  0
  -29.5777  -18.3861   23.9185 H   0  0  0  0  0  0
  -31.1495  -17.7706   23.4352 H   0  0  0  0  0  0
  -29.7979  -16.6755   23.5790 H   0  0  0  0  0  0
  -27.9590  -22.7196   20.2734 H   0  0  0  0  0  0
  -29.0188  -22.7239   18.8910 H   0  0  0  0  0  0
  -30.3133  -24.6092   19.8232 H   0  0  0  0  0  0
  -29.5081  -24.4531   21.3752 H   0  0  0  0  0  0
  -31.5371  -17.0354   21.0224 H   0  0  0  0  0  0
  -30.2738  -17.1694   19.8283 H   0  0  0  0  0  0
  -27.3281  -24.9081   20.3141 H   0  0  0  0  0  0
  -28.1020  -25.1561   18.7512 H   0  0  0  0  0  0
  -29.1565  -15.3273   21.4587 H   0  0  0  0  0  0
  1 25  1  0  0  0
  1 30  2  0  0  0
  1 84  1  0  0  0
  2  3  1  0  0  0
  2 25  1  0  0  0
  2 86  1  0  0  0
  2 87  1  0  0  0
  3  4  1  0  0  0
  3 88  1  0  0  0
  3 89  1  0  0  0
  4  5  1  0  0  0
  4 90  1  0  0  0
  4 91  1  0  0  0
  5  6  1  0  0  0
  5 26  1  0  0  0
  5 92  1  0  0  0
  6 25  1  0  0  0
  6 93  1  0  0  0
  6 94  1  0  0  0
  7  8  2  0  0  0
  7 26  1  0  0  0
  7 29  1  0  0  0
  8  9  1  0  0  0
  8 22  1  0  0  0
  9 10  1  0  0  0
  9 27  2  0  0  0
 10 11  2  0  0  0
 10 15  1  0  0  0
 11 12  1  0  0  0
 11 95  1  0  0  0
 12 13  2  0  0  0
 12 96  1  0  0  0
 13 14  1  0  0  0
 13 31  1  0  0  0
 14 15  2  0  0  0
 14 97  1  0  0  0
 15 98  1  0  0  0
 16 17  2  0  0  0
 16 21  1  0  0  0
 16 31  1  0  0  0
 17 18  1  0  0  0
 17 99  1  0  0  0
 18 19  2  0  0  0
 18100  1  0  0  0
 19 20  1  0  0  0
 19 24  1  0  0  0
 20 21  2  0  0  0
 20101  1  0  0  0
 21 23  1  0  0  0
 22 28  1  0  0  0
 22 32  2  0  0  0
 26 27  1  0  0  0
 28102  1  0  0  0
 28103  1  0  0  0
 29104  1  0  0  0
 29105  1  0  0  0
 33 34  1  0  0  0
 33 66  1  0  0  0
 33 70  2  0  0  0
 34 36  1  0  0  0
 34 59  1  0  0  0
 34106  1  0  0  0
 35 44  2  0  0  0
 35 45  1  0  0  0
 35 68  1  0  0  0
 36 56  1  0  0  0
 36107  1  0  0  0
 37 39  1  0  0  0
 37 47  1  0  0  0
 37 66  1  0  0  0
 37108  1  0  0  0
 38 43  2  0  0  0
 38 46  1  0  0  0
 38 47  1  0  0  0
 39 64  1  0  0  0
 39 67  2  0  0  0
 40 52  1  0  0  0
 40 53  2  0  0  0
 40 58  1  0  0  0
 41109  1  0  0  0
 41110  1  0  0  0
 41111  1  0  0  0
 41 48  1  0  0  0
 42 43  1  0  0  0
 42 66  1  0  0  0
 42112  1  0  0  0
 42113  1  0  0  0
 43 44  1  0  0  0
 44114  1  0  0  0
 45 46  2  0  0  0
 45115  1  0  0  0
 46116  1  0  0  0
 47117  1  0  0  0
 47118  1  0  0  0
 48 56  1  0  0  0
 48 65  1  0  0  0
 48119  1  0  0  0
 49 50  1  0  0  0
 49 53  1  0  0  0
 49 64  1  0  0  0
 49120  1  0  0  0
 50 51  1  0  0  0
 50121  1  0  0  0
 50122  1  0  0  0
 51 52  1  0  0  0
 51123  1  0  0  0
 51124  1  0  0  0
 52125  1  0  0  0
 52126  1  0  0  0
 53 54  1  0  0  0
 54 55  2  0  0  0
 54127  1  0  0  0
 55 57  1  0  0  0
 55128  1  0  0  0
 56 69  2  0  0  0
 57 58  2  0  0  0
 57129  1  0  0  0
 58130  1  0  0  0
 59 60  1  0  0  0
 59 61  1  0  0  0
 59 62  1  0  0  0
 60131  1  0  0  0
 60132  1  0  0  0
 60133  1  0  0  0
 61134  1  0  0  0
 61135  1  0  0  0
 61136  1  0  0  0
 62137  1  0  0  0
 62138  1  0  0  0
 62139  1  0  0  0
 63 65  1  0  0  0
 63140  1  0  0  0
 63141  1  0  0  0
 63142  1  0  0  0
 64143  1  0  0  0
 65144  1  0  0  0
 68 81  1  0  0  0
 71 72  2  0  0  0
 71 73  1  0  0  0
 71145  1  0  0  0
 72 83  1  0  0  0
 72146  1  0  0  0
 73 74  2  0  0  0
 73 78  1  0  0  0
 74 75  1  0  0  0
 74 85  1  0  0  0
 75 82  1  0  0  0
 75 83  2  0  0  0
 76147  1  0  0  0
 76148  1  0  0  0
 76149  1  0  0  0
 76 82  1  0  0  0
 77 82  1  0  0  0
 77150  1  0  0  0
 77151  1  0  0  0
 77152  1  0  0  0
 78 79  1  0  0  0
 78153  1  0  0  0
 78154  1  0  0  0
 79 81  1  0  0  0
 79155  1  0  0  0
 79156  1  0  0  0
 80 82  1  0  0  0
 80 84  1  0  0  0
 80157  1  0  0  0
 80158  1  0  0  0
 81159  1  0  0  0
 81160  1  0  0  0
 84161  1  0  0  0
M  ISO  4   1 100  68 101  81 101  84 100
M  END
> <chiral flag>
0

> <version>
0

> <s_m_source_file>
/data/baiqing/PycharmProjects/Reinvent-master-3.2/result/LINK_invent/BTK/process_docking_weight1_custom_sum_contain_oxygen_bond_distance_aromatic_linkinvent_7_9_3/rearranged_h_0067.sdf

> <i_m_source_file_index>
40

> <r_mmod_Potential_Energy-OPLS-2005>
-161.4814453125

> <r_mmod_Stretch_Energy-OPLS-2005>
48.2172813415527

> <r_mmod_Bend_Energy-OPLS-2005>
115.395210266113

> <r_mmod_Torsional_Energy-OPLS-2005>
198.473007202148

> <r_mmod_Improper_Torsional_Energy-OPLS-2005>
4.37499094009399

> <r_mmod_Van_der_Waal_Energy-OPLS-2005>
182.28987121582

> <r_mmod_Electrostatic_Energy-OPLS-2005>
-515.256774902344

> <r_mmod_Solvation_Energy-OPLS-2005>
-210.156585693359

> <b_mmod_Minimization_Converged-OPLS-2005>
0

> <r_mmod_RMS_Derivative-OPLS-2005>
2.39413285255432

$$$$
40
                    3D
 Structure written by MMmdl.
173181  0  0  1  0            999 V2000
  -30.7102  -14.6107   20.6210 C   0  0  0  0  0  0
  -30.4182  -12.4098   19.4582 C   0  0  0  0  0  0
  -29.5002  -12.5413   18.2236 C   0  0  0  0  0  0
  -28.0200  -12.3744   18.6166 C   0  0  0  0  0  0
  -27.6486  -13.2224   19.8585 C   0  0  2  0  0  0
  -28.6837  -13.0203   20.9796 C   0  0  0  0  0  0
  -25.2522  -13.8202   20.5635 C   0  0  0  0  0  0
  -24.1796  -13.0455   20.9144 C   0  0  0  0  0  0
  -24.6376  -11.6931   20.8695 C   0  0  0  0  0  0
  -23.9055  -10.4306   21.0382 C   0  0  0  0  0  0
  -24.3619   -9.4233   21.9161 C   0  0  0  0  0  0
  -23.6295   -8.2269   22.0751 C   0  0  0  0  0  0
  -22.4281   -8.0297   21.3548 C   0  0  0  0  0  0
  -21.9905   -9.0261   20.4648 C   0  0  0  0  0  0
  -22.7228  -10.2142   20.3041 C   0  0  0  0  0  0
  -21.6860   -6.0741   22.5277 C   0  0  0  0  0  0
  -21.4017   -6.5644   23.8211 C   0  0  0  0  0  0
  -21.3655   -5.6789   24.9169 C   0  0  0  0  0  0
  -21.6043   -4.3053   24.7218 C   0  0  0  0  0  0
  -21.8823   -3.8151   23.4335 C   0  0  0  0  0  0
  -21.9194   -4.6968   22.3392 C   0  0  0  0  0  0
  -22.7833  -13.5242   21.1842 C   0  0  0  0  0  0
  -22.1664   -4.2156   21.0974 F   0  0  0  0  0  0
  -21.5622   -3.4540   25.7727 F   0  0  0  0  0  0
  -30.0066  -13.4255   20.4690 N   0  0  0  0  0  0
  -26.2939  -12.9381   20.3235 N   0  0  0  0  0  0
  -25.9298  -11.6536   20.5693 N   0  0  0  0  0  0
  -22.0483  -12.8217   22.0411 N   0  0  0  0  0  0
  -25.4251  -15.1919   20.4102 N   0  0  0  0  0  0
  -31.7707  -14.6965   19.9893 O   0  0  0  0  0  0
  -21.6653   -6.8888   21.4244 O   0  0  0  0  0  0
  -22.3500  -14.5553   20.6711 O   0  0  0  0  0  0
  -24.6223  -31.8599   23.2033 C   0  0  0  0  0  0
  -25.9064  -32.4788   23.8358 C   0  0  1  0  0  0
  -27.2218  -27.3423   20.1182 C   0  0  0  0  0  0
  -25.5874  -33.8596   24.2272 N   0  0  0  0  0  0
  -23.4166  -30.4813   21.5462 C   0  0  2  0  0  0
  -24.8610  -28.9320   20.1144 C   0  0  0  0  0  0
  -22.7466  -29.4611   22.4967 C   0  0  0  0  0  0
  -18.0278  -28.1379   22.8468 C   0  0  0  0  0  0
  -24.1494  -36.7325   23.2643 C   0  0  0  0  0  0
  -25.9525  -30.7984   21.3672 C   0  0  0  0  0  0
  -26.0278  -29.4252   20.7137 C   0  0  0  0  0  0
  -27.2155  -28.6425   20.7008 C   0  0  0  0  0  0
  -26.0373  -26.8848   19.5087 C   0  0  0  0  0  0
  -24.8658  -27.6674   19.5028 C   0  0  0  0  0  0
  -23.6288  -29.8116   20.1634 C   0  0  0  0  0  0
  -25.4113  -36.3098   24.0333 C   0  0  1  0  0  0
  -20.5874  -28.3664   23.1294 C   0  0  2  0  0  0
  -20.6772  -26.9394   22.5421 C   0  0  0  0  0  0
  -19.5757  -26.6370   21.5219 C   0  0  0  0  0  0
  -18.1924  -26.7917   22.1611 C   0  0  0  0  0  0
  -19.1529  -28.8841   23.2864 C   0  0  0  0  0  0
  -18.9453  -30.1441   23.8889 C   0  0  0  0  0  0
  -17.6455  -30.6576   24.0556 C   0  0  0  0  0  0
  -25.9051  -34.9464   23.5114 C   0  0  0  0  0  0
  -16.5347  -29.9069   23.6342 C   0  0  0  0  0  0
  -16.7268  -28.6495   23.0348 C   0  0  0  0  0  0
  -26.4458  -31.6597   25.0732 C   0  0  0  0  0  0
  -25.3683  -31.3717   26.1456 C   0  0  0  0  0  0
  -27.0294  -30.3033   24.6149 C   0  0  0  0  0  0
  -27.6030  -32.4328   25.7487 C   0  0  0  0  0  0
  -27.5580  -37.1806   24.8457 C   0  0  0  0  0  0
  -21.4178  -29.3034   22.3708 N   0  0  0  0  0  0
  -26.4300  -37.3779   23.9406 N   0  0  0  0  0  0
  -24.6827  -31.0619   22.0973 N   0  0  0  0  0  0
  -23.4183  -28.8151   23.3051 O   0  0  0  0  0  0
  -28.3482  -26.5243   20.1127 O   0  0  0  0  0  0
  -26.5637  -34.8917   22.4693 O   0  0  0  0  0  0
  -23.5382  -32.1394   23.7365 O   0  0  0  0  0  0
  -30.1241  -19.0646   19.5324 C   0  0  0  0  0  0
  -29.0520  -19.7882   20.1064 C   0  0  0  0  0  0
  -28.3256  -19.0269   21.0511 C   0  0  0  0  0  0
  -29.7610  -17.1703   20.8491 C   0  0  0  0  0  0
  -27.3445  -20.1061   23.1286 C   0  0  0  0  0  0
  -33.2740  -17.8755   23.5440 C   0  0  0  0  0  0
  -28.6544  -21.2159   19.5711 C   0  0  0  0  0  0
  -27.0661  -19.5334   21.7331 C   0  0  0  0  0  0
  -31.8355  -17.5634   23.1145 C   0  0  0  0  0  0
  -28.6529  -22.4993   20.5055 C   0  0  0  0  0  0
  -28.4310  -23.9053   19.7871 C   0  0  0  0  0  0
  -31.7721  -16.3393   22.1660 C   0  0  0  0  0  0
  -29.4899  -15.5361   22.8308 C   0  0  0  0  0  0
  -28.2289  -25.1824   20.7059 C   0  0  0  0  0  0
  -30.3770  -15.8820   21.5765 C   0  0  2  0  0  0
  -30.4566  -17.7928   19.8888 N   0  0  0  0  0  0
  -28.7069  -17.7745   21.4198 N   0  0  0  0  0  0
  -29.9599  -14.4386   23.7193 N   0  3  0  0  0  0
  -31.4612  -12.4957   19.1503 H   0  0  0  0  0  0
  -30.3417  -11.4042   19.8768 H   0  0  0  0  0  0
  -29.7703  -11.7994   17.4709 H   0  0  0  0  0  0
  -29.6499  -13.5176   17.7592 H   0  0  0  0  0  0
  -27.8480  -11.3174   18.8262 H   0  0  0  0  0  0
  -27.3715  -12.6295   17.7773 H   0  0  0  0  0  0
  -27.6824  -14.2689   19.5540 H   0  0  0  0  0  0
  -28.7080  -11.9668   21.2651 H   0  0  0  0  0  0
  -28.3433  -13.5057   21.8772 H   0  0  0  0  0  0
  -25.2775   -9.5724   22.4720 H   0  0  0  0  0  0
  -24.0013   -7.4674   22.7476 H   0  0  0  0  0  0
  -21.0831   -8.8773   19.8961 H   0  0  0  0  0  0
  -22.3673  -10.9674   19.6144 H   0  0  0  0  0  0
  -21.2015   -7.6153   23.9710 H   0  0  0  0  0  0
  -21.1467   -6.0524   25.9069 H   0  0  0  0  0  0
  -22.0601   -2.7611   23.2833 H   0  0  0  0  0  0
  -22.4110  -11.9869   22.4756 H   0  0  0  0  0  0
  -21.1118  -13.1255   22.2658 H   0  0  0  0  0  0
  -24.6574  -15.8471   20.5167 H   0  0  0  0  0  0
  -26.2777  -15.6339   20.0909 H   0  0  0  0  0  0
  -26.7123  -32.5471   23.1099 H   0  0  0  0  0  0
  -24.9994  -33.9757   25.0392 H   0  0  0  0  0  0
  -22.7104  -31.3004   21.4017 H   0  0  0  0  0  0
  -23.3746  -35.9663   23.3309 H   0  0  0  0  0  0
  -24.3591  -36.8964   22.2056 H   0  0  0  0  0  0
  -23.7256  -37.6530   23.6679 H   0  0  0  0  0  0
  -26.0730  -31.5596   20.5936 H   0  0  0  0  0  0
  -26.8368  -30.8525   21.9911 H   0  0  0  0  0  0
  -28.1169  -29.0169   21.1641 H   0  0  0  0  0  0
  -26.0175  -25.9106   19.0403 H   0  0  0  0  0  0
  -23.9703  -27.2868   19.0292 H   0  0  0  0  0  0
  -23.7416  -30.5849   19.4039 H   0  0  0  0  0  0
  -22.7493  -29.2365   19.8659 H   0  0  0  0  0  0
  -25.1283  -36.1974   25.0823 H   0  0  0  0  0  0
  -20.9936  -28.3246   24.1419 H   0  0  0  0  0  0
  -20.5695  -26.2274   23.3609 H   0  0  0  0  0  0
  -21.6633  -26.7454   22.1195 H   0  0  0  0  0  0
  -19.6943  -25.6284   21.1240 H   0  0  0  0  0  0
  -19.6715  -27.3187   20.6750 H   0  0  0  0  0  0
  -17.4205  -26.6666   21.4002 H   0  0  0  0  0  0
  -18.0313  -26.0066   22.9011 H   0  0  0  0  0  0
  -19.7941  -30.7244   24.2259 H   0  0  0  0  0  0
  -17.5017  -31.6261   24.5144 H   0  0  0  0  0  0
  -15.5342  -30.2949   23.7682 H   0  0  0  0  0  0
  -15.8672  -28.0800   22.7060 H   0  0  0  0  0  0
  -24.5870  -30.7062   25.7776 H   0  0  0  0  0  0
  -24.8845  -32.2862   26.4893 H   0  0  0  0  0  0
  -25.7976  -30.8889   27.0243 H   0  0  0  0  0  0
  -26.2853  -29.6787   24.1192 H   0  0  0  0  0  0
  -27.4032  -29.7289   25.4636 H   0  0  0  0  0  0
  -27.8696  -30.4357   23.9329 H   0  0  0  0  0  0
  -27.2667  -33.3645   26.2046 H   0  0  0  0  0  0
  -28.3811  -32.6865   25.0279 H   0  0  0  0  0  0
  -28.0710  -31.8467   26.5401 H   0  0  0  0  0  0
  -28.2581  -38.0118   24.7508 H   0  0  0  0  0  0
  -28.1084  -36.2646   24.6264 H   0  0  0  0  0  0
  -27.2309  -37.1446   25.8862 H   0  0  0  0  0  0
  -20.9359  -29.8768   21.6925 H   0  0  0  0  0  0
  -26.0195  -38.2868   24.1373 H   0  0  0  0  0  0
  -30.7300  -19.5057   18.7546 H   0  0  0  0  0  0
  -26.4145  -20.4020   23.6143 H   0  0  0  0  0  0
  -27.9921  -20.9806   23.0757 H   0  0  0  0  0  0
  -27.8333  -19.3694   23.7656 H   0  0  0  0  0  0
  -33.3075  -18.7559   24.1862 H   0  0  0  0  0  0
  -33.9125  -18.0739   22.6821 H   0  0  0  0  0  0
  -33.7114  -17.0450   24.0989 H   0  0  0  0  0  0
  -27.6653  -21.1233   19.1193 H   0  0  0  0  0  0
  -29.3154  -21.4321   18.7308 H   0  0  0  0  0  0
  -26.3699  -18.6979   21.8253 H   0  0  0  0  0  0
  -26.5587  -20.2679   21.1091 H   0  0  0  0  0  0
  -31.4222  -18.4455   22.6238 H   0  0  0  0  0  0
  -31.2471  -17.4070   24.0171 H   0  0  0  0  0  0
  -29.5970  -22.5439   21.0508 H   0  0  0  0  0  0
  -27.8776  -22.3817   21.2605 H   0  0  0  0  0  0
  -27.5644  -23.8301   19.1297 H   0  0  0  0  0  0
  -29.2797  -24.0849   19.1270 H   0  0  0  0  0  0
  -32.2654  -15.4949   22.6497 H   0  0  0  0  0  0
  -32.4292  -16.5984   21.3348 H   0  0  0  0  0  0
  -28.4516  -15.3978   22.5387 H   0  0  0  0  0  0
  -29.4168  -16.4098   23.4763 H   0  0  0  0  0  0
  -28.9879  -25.1441   21.4883 H   0  0  0  0  0  0
  -27.2801  -25.0906   21.2393 H   0  0  0  0  0  0
  -30.0253  -13.5462   23.2640 H   0  0  0  0  0  0
  -29.3097  -14.3377   24.4812 H   0  0  0  0  0  0
  -30.8512  -14.6549   24.1302 H   0  0  0  0  0  0
  1 25  1  0  0  0
  1 30  2  0  0  0
  1 85  1  0  0  0
  2  3  1  0  0  0
  2 25  1  0  0  0
  2 89  1  0  0  0
  2 90  1  0  0  0
  3  4  1  0  0  0
  3 91  1  0  0  0
  3 92  1  0  0  0
  4  5  1  0  0  0
  4 93  1  0  0  0
  4 94  1  0  0  0
  5  6  1  0  0  0
  5 26  1  0  0  0
  5 95  1  0  0  0
  6 25  1  0  0  0
  6 96  1  0  0  0
  6 97  1  0  0  0
  7  8  2  0  0  0
  7 26  1  0  0  0
  7 29  1  0  0  0
  8  9  1  0  0  0
  8 22  1  0  0  0
  9 10  1  0  0  0
  9 27  2  0  0  0
 10 11  2  0  0  0
 10 15  1  0  0  0
 11 12  1  0  0  0
 11 98  1  0  0  0
 12 13  2  0  0  0
 12 99  1  0  0  0
 13 14  1  0  0  0
 13 31  1  0  0  0
 14 15  2  0  0  0
 14100  1  0  0  0
 15101  1  0  0  0
 16 17  2  0  0  0
 16 21  1  0  0  0
 16 31  1  0  0  0
 17 18  1  0  0  0
 17102  1  0  0  0
 18 19  2  0  0  0
 18103  1  0  0  0
 19 20  1  0  0  0
 19 24  1  0  0  0
 20 21  2  0  0  0
 20104  1  0  0  0
 21 23  1  0  0  0
 22 28  1  0  0  0
 22 32  2  0  0  0
 26 27  1  0  0  0
 28105  1  0  0  0
 28106  1  0  0  0
 29107  1  0  0  0
 29108  1  0  0  0
 33 34  1  0  0  0
 33 66  1  0  0  0
 33 70  2  0  0  0
 34 36  1  0  0  0
 34 59  1  0  0  0
 34109  1  0  0  0
 35 44  2  0  0  0
 35 45  1  0  0  0
 35 68  1  0  0  0
 36 56  1  0  0  0
 36110  1  0  0  0
 37 39  1  0  0  0
 37 47  1  0  0  0
 37 66  1  0  0  0
 37111  1  0  0  0
 38 43  2  0  0  0
 38 46  1  0  0  0
 38 47  1  0  0  0
 39 64  1  0  0  0
 39 67  2  0  0  0
 40 52  1  0  0  0
 40 53  2  0  0  0
 40 58  1  0  0  0
 41112  1  0  0  0
 41113  1  0  0  0
 41114  1  0  0  0
 41 48  1  0  0  0
 42 43  1  0  0  0
 42 66  1  0  0  0
 42115  1  0  0  0
 42116  1  0  0  0
 43 44  1  0  0  0
 44117  1  0  0  0
 45 46  2  0  0  0
 45118  1  0  0  0
 46119  1  0  0  0
 47120  1  0  0  0
 47121  1  0  0  0
 48 56  1  0  0  0
 48 65  1  0  0  0
 48122  1  0  0  0
 49 50  1  0  0  0
 49 53  1  0  0  0
 49 64  1  0  0  0
 49123  1  0  0  0
 50 51  1  0  0  0
 50124  1  0  0  0
 50125  1  0  0  0
 51 52  1  0  0  0
 51126  1  0  0  0
 51127  1  0  0  0
 52128  1  0  0  0
 52129  1  0  0  0
 53 54  1  0  0  0
 54 55  2  0  0  0
 54130  1  0  0  0
 55 57  1  0  0  0
 55131  1  0  0  0
 56 69  2  0  0  0
 57 58  2  0  0  0
 57132  1  0  0  0
 58133  1  0  0  0
 59 60  1  0  0  0
 59 61  1  0  0  0
 59 62  1  0  0  0
 60134  1  0  0  0
 60135  1  0  0  0
 60136  1  0  0  0
 61137  1  0  0  0
 61138  1  0  0  0
 61139  1  0  0  0
 62140  1  0  0  0
 62141  1  0  0  0
 62142  1  0  0  0
 63 65  1  0  0  0
 63143  1  0  0  0
 63144  1  0  0  0
 63145  1  0  0  0
 64146  1  0  0  0
 65147  1  0  0  0
 68 84  1  0  0  0
 71 72  2  0  0  0
 71 86  1  0  0  0
 71148  1  0  0  0
 72 73  1  0  0  0
 72 77  1  0  0  0
 73 78  1  0  0  0
 73 87  2  0  0  0
 74 85  1  0  0  0
 74 86  2  0  0  0
 74 87  1  0  0  0
 75 78  1  0  0  0
 75149  1  0  0  0
 75150  1  0  0  0
 75151  1  0  0  0
 76 79  1  0  0  0
 76152  1  0  0  0
 76153  1  0  0  0
 76154  1  0  0  0
 77 80  1  0  0  0
 77155  1  0  0  0
 77156  1  0  0  0
 78157  1  0  0  0
 78158  1  0  0  0
 79 82  1  0  0  0
 79159  1  0  0  0
 79160  1  0  0  0
 80 81  1  0  0  0
 80161  1  0  0  0
 80162  1  0  0  0
 81 84  1  0  0  0
 81163  1  0  0  0
 81164  1  0  0  0
 82165  1  0  0  0
 82166  1  0  0  0
 82 85  1  0  0  0
 83 85  1  0  0  0
 83 88  1  0  0  0
 83167  1  0  0  0
 83168  1  0  0  0
 84169  1  0  0  0
 84170  1  0  0  0
 88171  1  0  0  0
 88172  1  0  0  0
 88173  1  0  0  0
M  CHG  1  88   1
M  ISO  4   1 100  68 101  84 101  85 100
M  END
> <chiral flag>
0

> <version>
0

> <s_m_source_file>
/data/baiqing/PycharmProjects/Reinvent-master-3.2/result/LINK_invent/BTK/process_docking_weight1_custom_sum_contain_oxygen_bond_distance_aromatic_linkinvent_7_9_3/rearranged_h_0067.sdf

> <i_m_source_file_index>
41

> <r_mmod_Potential_Energy-OPLS-2005>
-327.263336181641

> <r_mmod_Stretch_Energy-OPLS-2005>
98.1725997924805

> <r_mmod_Bend_Energy-OPLS-2005>
188.440582275391

> <r_mmod_Torsional_Energy-OPLS-2005>
197.618576049805

> <r_mmod_Improper_Torsional_Energy-OPLS-2005>
4.84230804443359

> <r_mmod_Van_der_Waal_Energy-OPLS-2005>
160.379653930664

> <r_mmod_Electrostatic_Energy-OPLS-2005>
-525.310852050781

> <r_mmod_Solvation_Energy-OPLS-2005>
-486.677185058594

> <b_mmod_Minimization_Converged-OPLS-2005>
0

> <r_mmod_RMS_Derivative-OPLS-2005>
2.36128377914429

$$$$
42
                    3D
 Structure written by MMmdl.
166174  0  0  1  0            999 V2000
  -30.5670  -14.9173   20.4473 C   0  0  0  0  0  0
  -30.4248  -12.5805   19.4712 C   0  0  0  0  0  0
  -29.5025  -12.5521   18.2324 C   0  0  0  0  0  0
  -28.0299  -12.3492   18.6395 C   0  0  0  0  0  0
  -27.6254  -13.2415   19.8424 C   0  0  2  0  0  0
  -28.6780  -13.1890   20.9683 C   0  0  0  0  0  0
  -25.2394  -13.8181   20.5620 C   0  0  0  0  0  0
  -24.1761  -13.0407   20.9255 C   0  0  0  0  0  0
  -24.6398  -11.6896   20.8808 C   0  0  0  0  0  0
  -23.9111  -10.4260   21.0445 C   0  0  0  0  0  0
  -24.3660   -9.4177   21.9205 C   0  0  0  0  0  0
  -23.6335   -8.2216   22.0751 C   0  0  0  0  0  0
  -22.4311   -8.0275   21.3547 C   0  0  0  0  0  0
  -21.9970   -9.0254   20.4651 C   0  0  0  0  0  0
  -22.7307  -10.2124   20.3080 C   0  0  0  0  0  0
  -21.6860   -6.0754   22.5293 C   0  0  0  0  0  0
  -21.4011   -6.5651   23.8223 C   0  0  0  0  0  0
  -21.3666   -5.6800   24.9179 C   0  0  0  0  0  0
  -21.6045   -4.3059   24.7224 C   0  0  0  0  0  0
  -21.8828   -3.8167   23.4339 C   0  0  0  0  0  0
  -21.9195   -4.6989   22.3405 C   0  0  0  0  0  0
  -22.7785  -13.5190   21.1897 C   0  0  0  0  0  0
  -22.1655   -4.2178   21.0979 F   0  0  0  0  0  0
  -21.5632   -3.4533   25.7727 F   0  0  0  0  0  0
  -29.9377  -13.6661   20.3759 N   0  0  0  0  0  0
  -26.2843  -12.9418   20.3259 N   0  0  0  0  0  0
  -25.9326  -11.6561   20.5816 N   0  0  0  0  0  0
  -22.0423  -12.8191   22.0462 N   0  0  0  0  0  0
  -25.3913  -15.1878   20.3775 N   0  0  0  0  0  0
  -31.7620  -14.9067   20.1347 O   0  0  0  0  0  0
  -21.6656   -6.8893   21.4251 O   0  0  0  0  0  0
  -22.3472  -14.5488   20.6723 O   0  0  0  0  0  0
  -24.6429  -31.8430   23.1915 C   0  0  0  0  0  0
  -25.9200  -32.4727   23.8302 C   0  0  1  0  0  0
  -27.2057  -27.1504   20.1634 C   0  0  0  0  0  0
  -25.5977  -33.8540   24.2214 N   0  0  0  0  0  0
  -23.4418  -30.4670   21.5341 C   0  0  2  0  0  0
  -24.8860  -28.8846   20.1171 C   0  0  0  0  0  0
  -22.7569  -29.4543   22.4865 C   0  0  0  0  0  0
  -18.0306  -28.1376   22.8468 C   0  0  0  0  0  0
  -24.1480  -36.7257   23.2634 C   0  0  0  0  0  0
  -25.9945  -30.7238   21.3827 C   0  0  0  0  0  0
  -26.0600  -29.3304   20.7376 C   0  0  0  0  0  0
  -27.2225  -28.4786   20.7417 C   0  0  0  0  0  0
  -26.0190  -26.8026   19.4891 C   0  0  0  0  0  0
  -24.8754  -27.6350   19.4749 C   0  0  0  0  0  0
  -23.6652  -29.7915   20.1537 C   0  0  0  0  0  0
  -25.4117  -36.3052   24.0308 C   0  0  1  0  0  0
  -20.5921  -28.3672   23.1242 C   0  0  2  0  0  0
  -20.6782  -26.9379   22.5390 C   0  0  0  0  0  0
  -19.5747  -26.6347   21.5200 C   0  0  0  0  0  0
  -18.1931  -26.7919   22.1618 C   0  0  0  0  0  0
  -19.1573  -28.8840   23.2839 C   0  0  0  0  0  0
  -18.9482  -30.1457   23.8830 C   0  0  0  0  0  0
  -17.6464  -30.6552   24.0565 C   0  0  0  0  0  0
  -25.9080  -34.9430   23.5069 C   0  0  0  0  0  0
  -16.5362  -29.9038   23.6333 C   0  0  0  0  0  0
  -16.7296  -28.6472   23.0334 C   0  0  0  0  0  0
  -26.4518  -31.6603   25.0739 C   0  0  0  0  0  0
  -25.3727  -31.3800   26.1461 C   0  0  0  0  0  0
  -27.0362  -30.3012   24.6312 C   0  0  0  0  0  0
  -27.6081  -32.4349   25.7513 C   0  0  0  0  0  0
  -27.5569  -37.1786   24.8460 C   0  0  0  0  0  0
  -21.4261  -29.3041   22.3671 N   0  0  0  0  0  0
  -26.4265  -37.3782   23.9409 N   0  0  0  0  0  0
  -24.7124  -31.0347   22.0915 N   0  0  0  0  0  0
  -23.4247  -28.8088   23.2998 O   0  0  0  0  0  0
  -28.2991  -26.2267   20.1257 O   0  0  0  0  0  0
  -26.5633  -34.8916   22.4628 O   0  0  0  0  0  0
  -23.5538  -32.1290   23.7148 O   0  0  0  0  0  0
  -29.2690  -21.2389   21.0648 C   0  0  0  0  0  0
  -28.4739  -21.8053   20.0180 C   0  0  0  0  0  0
  -28.1938  -20.7545   19.0702 C   0  0  0  0  0  0
  -29.4577  -19.0260   20.1378 C   0  0  0  0  0  0
  -25.9932  -20.1369   17.9323 C   0  0  0  0  0  0
  -26.3402  -23.2051   20.2298 C   0  0  0  0  0  0
  -31.7332  -17.9299   20.4595 C   0  0  0  0  0  0
  -30.4303  -17.3623   18.4295 C   0  0  0  0  0  0
  -28.7540  -16.2938   21.5014 C   0  0  0  0  0  0
  -27.2975  -20.9546   17.8513 C   0  0  0  0  0  0
  -28.3300  -24.7607   20.6388 C   0  0  0  0  0  0
  -27.8403  -23.3418   19.9001 C   0  0  1  0  0  0
  -30.2934  -17.5915   19.9652 C   0  0  0  0  0  0
  -29.7321  -19.9249   21.1143 N   0  0  0  0  0  0
  -28.6753  -19.4626   19.1391 N   0  0  0  0  0  0
  -29.8634  -16.1723   20.5483 N   0  0  0  0  0  0
  -31.4537  -12.7346   19.1435 H   0  0  0  0  0  0
  -30.4263  -11.6118   19.9750 H   0  0  0  0  0  0
  -29.8156  -11.7662   17.5441 H   0  0  0  0  0  0
  -29.6013  -13.4940   17.6882 H   0  0  0  0  0  0
  -27.8947  -11.2974   18.8920 H   0  0  0  0  0  0
  -27.3732  -12.5395   17.7898 H   0  0  0  0  0  0
  -27.6056  -14.2614   19.4568 H   0  0  0  0  0  0
  -28.7804  -12.1656   21.3372 H   0  0  0  0  0  0
  -28.3734  -13.7597   21.8404 H   0  0  0  0  0  0
  -25.2788   -9.5649   22.4820 H   0  0  0  0  0  0
  -24.0044   -7.4602   22.7461 H   0  0  0  0  0  0
  -21.0904   -8.8786   19.8958 H   0  0  0  0  0  0
  -22.3763  -10.9681   19.6210 H   0  0  0  0  0  0
  -21.1992   -7.6149   23.9747 H   0  0  0  0  0  0
  -21.1492   -6.0508   25.9085 H   0  0  0  0  0  0
  -22.0610   -2.7629   23.2830 H   0  0  0  0  0  0
  -22.4013  -11.9829   22.4837 H   0  0  0  0  0  0
  -21.1031  -13.1222   22.2661 H   0  0  0  0  0  0
  -24.6055  -15.8237   20.4524 H   0  0  0  0  0  0
  -26.2169  -15.6211   19.9855 H   0  0  0  0  0  0
  -26.7284  -32.5302   23.1038 H   0  0  0  0  0  0
  -25.0224  -33.9700   25.0427 H   0  0  0  0  0  0
  -22.7404  -31.2894   21.3780 H   0  0  0  0  0  0
  -23.3776  -35.9574   23.3277 H   0  0  0  0  0  0
  -24.3553  -36.8899   22.2056 H   0  0  0  0  0  0
  -23.7210  -37.6433   23.6676 H   0  0  0  0  0  0
  -26.1433  -31.4672   20.6000 H   0  0  0  0  0  0
  -26.8729  -30.7813   22.0149 H   0  0  0  0  0  0
  -28.1245  -28.8241   21.2283 H   0  0  0  0  0  0
  -25.9729  -25.8707   18.9490 H   0  0  0  0  0  0
  -23.9894  -27.2982   18.9526 H   0  0  0  0  0  0
  -23.8050  -30.5574   19.3920 H   0  0  0  0  0  0
  -22.7807  -29.2294   19.8497 H   0  0  0  0  0  0
  -25.1319  -36.1864   25.0808 H   0  0  0  0  0  0
  -21.0006  -28.3220   24.1369 H   0  0  0  0  0  0
  -20.5606  -26.2306   23.3609 H   0  0  0  0  0  0
  -21.6648  -26.7329   22.1227 H   0  0  0  0  0  0
  -19.6869  -25.6238   21.1241 H   0  0  0  0  0  0
  -19.6685  -27.3146   20.6720 H   0  0  0  0  0  0
  -17.4216  -26.6671   21.4008 H   0  0  0  0  0  0
  -18.0303  -26.0062   22.9009 H   0  0  0  0  0  0
  -19.7964  -30.7322   24.2125 H   0  0  0  0  0  0
  -17.5024  -31.6227   24.5195 H   0  0  0  0  0  0
  -15.5366  -30.2935   23.7670 H   0  0  0  0  0  0
  -15.8711  -28.0796   22.7034 H   0  0  0  0  0  0
  -24.5926  -30.7104   25.7804 H   0  0  0  0  0  0
  -24.8896  -32.2980   26.4803 H   0  0  0  0  0  0
  -25.8045  -30.9033   27.0276 H   0  0  0  0  0  0
  -26.2945  -29.6780   24.1309 H   0  0  0  0  0  0
  -27.3958  -29.7281   25.4869 H   0  0  0  0  0  0
  -27.8879  -30.4264   23.9637 H   0  0  0  0  0  0
  -27.2726  -33.3690   26.2027 H   0  0  0  0  0  0
  -28.3951  -32.6837   25.0380 H   0  0  0  0  0  0
  -28.0714  -31.8509   26.5473 H   0  0  0  0  0  0
  -28.2594  -38.0086   24.7545 H   0  0  0  0  0  0
  -28.1058  -36.2617   24.6237 H   0  0  0  0  0  0
  -27.2297  -37.1393   25.8871 H   0  0  0  0  0  0
  -20.9424  -29.8839   21.6937 H   0  0  0  0  0  0
  -26.0114  -38.2839   24.1471 H   0  0  0  0  0  0
  -29.5414  -21.8549   21.9103 H   0  0  0  0  0  0
  -25.3547  -20.3348   17.0713 H   0  0  0  0  0  0
  -25.4222  -20.3761   18.8299 H   0  0  0  0  0  0
  -26.1929  -19.0641   17.9532 H   0  0  0  0  0  0
  -25.8059  -22.5588   19.5380 H   0  0  0  0  0  0
  -25.8167  -24.1582   20.2239 H   0  0  0  0  0  0
  -26.2064  -22.7879   21.2290 H   0  0  0  0  0  0
  -32.0734  -18.8858   20.0546 H   0  0  0  0  0  0
  -32.4911  -17.2093   20.1609 H   0  0  0  0  0  0
  -31.7718  -18.0183   21.5460 H   0  0  0  0  0  0
  -30.8159  -18.2423   17.9126 H   0  0  0  0  0  0
  -29.4606  -17.1372   17.9832 H   0  0  0  0  0  0
  -31.0958  -16.5391   18.1710 H   0  0  0  0  0  0
  -27.8335  -15.9095   21.0678 H   0  0  0  0  0  0
  -28.5454  -17.3174   21.8097 H   0  0  0  0  0  0
  -28.9570  -15.7521   22.4253 H   0  0  0  0  0  0
  -27.8588  -20.6679   16.9612 H   0  0  0  0  0  0
  -27.0494  -22.0007   17.6926 H   0  0  0  0  0  0
  -29.3884  -24.6055   20.8423 H   0  0  0  0  0  0
  -27.8875  -24.7853   21.6370 H   0  0  0  0  0  0
  -27.9456  -23.5931   18.8456 H   0  0  0  0  0  0
  1 25  1  0  0  0
  1 30  2  0  0  0
  1 86  1  0  0  0
  2  3  1  0  0  0
  2 25  1  0  0  0
  2 87  1  0  0  0
  2 88  1  0  0  0
  3  4  1  0  0  0
  3 89  1  0  0  0
  3 90  1  0  0  0
  4  5  1  0  0  0
  4 91  1  0  0  0
  4 92  1  0  0  0
  5  6  1  0  0  0
  5 26  1  0  0  0
  5 93  1  0  0  0
  6 25  1  0  0  0
  6 94  1  0  0  0
  6 95  1  0  0  0
  7  8  2  0  0  0
  7 26  1  0  0  0
  7 29  1  0  0  0
  8  9  1  0  0  0
  8 22  1  0  0  0
  9 10  1  0  0  0
  9 27  2  0  0  0
 10 11  2  0  0  0
 10 15  1  0  0  0
 11 12  1  0  0  0
 11 96  1  0  0  0
 12 13  2  0  0  0
 12 97  1  0  0  0
 13 14  1  0  0  0
 13 31  1  0  0  0
 14 15  2  0  0  0
 14 98  1  0  0  0
 15 99  1  0  0  0
 16 17  2  0  0  0
 16 21  1  0  0  0
 16 31  1  0  0  0
 17 18  1  0  0  0
 17100  1  0  0  0
 18 19  2  0  0  0
 18101  1  0  0  0
 19 20  1  0  0  0
 19 24  1  0  0  0
 20 21  2  0  0  0
 20102  1  0  0  0
 21 23  1  0  0  0
 22 28  1  0  0  0
 22 32  2  0  0  0
 26 27  1  0  0  0
 28103  1  0  0  0
 28104  1  0  0  0
 29105  1  0  0  0
 29106  1  0  0  0
 33 34  1  0  0  0
 33 66  1  0  0  0
 33 70  2  0  0  0
 34 36  1  0  0  0
 34 59  1  0  0  0
 34107  1  0  0  0
 35 44  2  0  0  0
 35 45  1  0  0  0
 35 68  1  0  0  0
 36 56  1  0  0  0
 36108  1  0  0  0
 37 39  1  0  0  0
 37 47  1  0  0  0
 37 66  1  0  0  0
 37109  1  0  0  0
 38 43  2  0  0  0
 38 46  1  0  0  0
 38 47  1  0  0  0
 39 64  1  0  0  0
 39 67  2  0  0  0
 40 52  1  0  0  0
 40 53  2  0  0  0
 40 58  1  0  0  0
 41110  1  0  0  0
 41111  1  0  0  0
 41112  1  0  0  0
 41 48  1  0  0  0
 42 43  1  0  0  0
 42 66  1  0  0  0
 42113  1  0  0  0
 42114  1  0  0  0
 43 44  1  0  0  0
 44115  1  0  0  0
 45 46  2  0  0  0
 45116  1  0  0  0
 46117  1  0  0  0
 47118  1  0  0  0
 47119  1  0  0  0
 48 56  1  0  0  0
 48 65  1  0  0  0
 48120  1  0  0  0
 49 50  1  0  0  0
 49 53  1  0  0  0
 49 64  1  0  0  0
 49121  1  0  0  0
 50 51  1  0  0  0
 50122  1  0  0  0
 50123  1  0  0  0
 51 52  1  0  0  0
 51124  1  0  0  0
 51125  1  0  0  0
 52126  1  0  0  0
 52127  1  0  0  0
 53 54  1  0  0  0
 54 55  2  0  0  0
 54128  1  0  0  0
 55 57  1  0  0  0
 55129  1  0  0  0
 56 69  2  0  0  0
 57 58  2  0  0  0
 57130  1  0  0  0
 58131  1  0  0  0
 59 60  1  0  0  0
 59 61  1  0  0  0
 59 62  1  0  0  0
 60132  1  0  0  0
 60133  1  0  0  0
 60134  1  0  0  0
 61135  1  0  0  0
 61136  1  0  0  0
 61137  1  0  0  0
 62138  1  0  0  0
 62139  1  0  0  0
 62140  1  0  0  0
 63 65  1  0  0  0
 63141  1  0  0  0
 63142  1  0  0  0
 63143  1  0  0  0
 64144  1  0  0  0
 65145  1  0  0  0
 68 81  1  0  0  0
 71 72  2  0  0  0
 71 84  1  0  0  0
 71146  1  0  0  0
 72 73  1  0  0  0
 72 82  1  0  0  0
 73 80  1  0  0  0
 73 85  2  0  0  0
 74 83  1  0  0  0
 74 84  2  0  0  0
 74 85  1  0  0  0
 75 80  1  0  0  0
 75147  1  0  0  0
 75148  1  0  0  0
 75149  1  0  0  0
 76150  1  0  0  0
 76151  1  0  0  0
 76152  1  0  0  0
 76 82  1  0  0  0
 77153  1  0  0  0
 77154  1  0  0  0
 77155  1  0  0  0
 77 83  1  0  0  0
 78 83  1  0  0  0
 78156  1  0  0  0
 78157  1  0  0  0
 78158  1  0  0  0
 79 86  1  0  0  0
 79159  1  0  0  0
 79160  1  0  0  0
 79161  1  0  0  0
 80162  1  0  0  0
 80163  1  0  0  0
 81 82  1  0  0  0
 81164  1  0  0  0
 81165  1  0  0  0
 82166  1  0  0  0
 83 86  1  0  0  0
M  ISO  4   1 100  68 101  81 101  86 100
M  END
> <chiral flag>
0

> <version>
0

> <s_m_source_file>
/data/baiqing/PycharmProjects/Reinvent-master-3.2/result/LINK_invent/BTK/process_docking_weight1_custom_sum_contain_oxygen_bond_distance_aromatic_linkinvent_7_9_3/rearranged_h_0067.sdf

> <i_m_source_file_index>
42

> <r_mmod_Potential_Energy-OPLS-2005>
190.553771972656

> <r_mmod_Stretch_Energy-OPLS-2005>
249.786514282227

> <r_mmod_Bend_Energy-OPLS-2005>
318.139373779297

> <r_mmod_Torsional_Energy-OPLS-2005>
283.326629638672

> <r_mmod_Improper_Torsional_Energy-OPLS-2005>
10.7910461425781

> <r_mmod_Van_der_Waal_Energy-OPLS-2005>
154.290817260742

> <r_mmod_Electrostatic_Energy-OPLS-2005>
-781.93017578125

> <r_mmod_Solvation_Energy-OPLS-2005>
-200.675018310547

> <b_mmod_Minimization_Converged-OPLS-2005>
0

> <r_mmod_RMS_Derivative-OPLS-2005>
4.6232328414917

$$$$
43
                    3D
 Structure written by MMmdl.
166174  0  0  1  0            999 V2000
  -30.7641  -14.4446   20.5996 C   0  0  0  0  0  0
  -30.4033  -12.3029   19.4306 C   0  0  0  0  0  0
  -29.4878  -12.5033   18.2072 C   0  0  0  0  0  0
  -28.0090  -12.3640   18.6161 C   0  0  0  0  0  0
  -27.6530  -13.2127   19.8655 C   0  0  2  0  0  0
  -28.6896  -13.0022   20.9865 C   0  0  0  0  0  0
  -25.2548  -13.8185   20.5687 C   0  0  0  0  0  0
  -24.1798  -13.0456   20.9167 C   0  0  0  0  0  0
  -24.6347  -11.6921   20.8721 C   0  0  0  0  0  0
  -23.9016  -10.4302   21.0402 C   0  0  0  0  0  0
  -24.3581   -9.4223   21.9183 C   0  0  0  0  0  0
  -23.6271   -8.2246   22.0755 C   0  0  0  0  0  0
  -22.4257   -8.0271   21.3543 C   0  0  0  0  0  0
  -21.9869   -9.0242   20.4655 C   0  0  0  0  0  0
  -22.7184  -10.2128   20.3062 C   0  0  0  0  0  0
  -21.6841   -6.0720   22.5283 C   0  0  0  0  0  0
  -21.4013   -6.5624   23.8211 C   0  0  0  0  0  0
  -21.3668   -5.6786   24.9176 C   0  0  0  0  0  0
  -21.6043   -4.3048   24.7232 C   0  0  0  0  0  0
  -21.8817   -3.8133   23.4350 C   0  0  0  0  0  0
  -21.9187   -4.6951   22.3407 C   0  0  0  0  0  0
  -22.7831  -13.5270   21.1838 C   0  0  0  0  0  0
  -22.1665   -4.2131   21.0987 F   0  0  0  0  0  0
  -21.5621   -3.4540   25.7746 F   0  0  0  0  0  0
  -30.0221  -13.3084   20.4407 N   0  0  0  0  0  0
  -26.2959  -12.9357   20.3307 N   0  0  0  0  0  0
  -25.9269  -11.6509   20.5723 N   0  0  0  0  0  0
  -22.0466  -12.8297   22.0413 N   0  0  0  0  0  0
  -25.4309  -15.1906   20.4148 N   0  0  0  0  0  0
  -31.8935  -14.5342   20.1024 O   0  0  0  0  0  0
  -21.6630   -6.8862   21.4239 O   0  0  0  0  0  0
  -22.3527  -14.5564   20.6668 O   0  0  0  0  0  0
  -24.6126  -31.8695   23.2124 C   0  0  0  0  0  0
  -25.9029  -32.4828   23.8403 C   0  0  1  0  0  0
  -27.2260  -27.4455   20.1050 C   0  0  0  0  0  0
  -25.5906  -33.8629   24.2340 N   0  0  0  0  0  0
  -23.3985  -30.4935   21.5522 C   0  0  2  0  0  0
  -24.8449  -28.9609   20.1171 C   0  0  0  0  0  0
  -22.7391  -29.4665   22.5007 C   0  0  0  0  0  0
  -18.0269  -28.1364   22.8491 C   0  0  0  0  0  0
  -24.1489  -36.7316   23.2630 C   0  0  0  0  0  0
  -25.9259  -30.8386   21.3637 C   0  0  0  0  0  0
  -26.0030  -29.4722   20.7171 C   0  0  0  0  0  0
  -27.1984  -28.7207   20.7103 C   0  0  0  0  0  0
  -26.0592  -26.9507   19.4865 C   0  0  0  0  0  0
  -24.8672  -27.6974   19.5008 C   0  0  0  0  0  0
  -23.6063  -29.8264   20.1658 C   0  0  0  0  0  0
  -25.4099  -36.3113   24.0339 C   0  0  1  0  0  0
  -20.5855  -28.3648   23.1331 C   0  0  2  0  0  0
  -20.6754  -26.9387   22.5427 C   0  0  0  0  0  0
  -19.5744  -26.6379   21.5211 C   0  0  0  0  0  0
  -18.1918  -26.7913   22.1618 C   0  0  0  0  0  0
  -19.1514  -28.8826   23.2909 C   0  0  0  0  0  0
  -18.9446  -30.1429   23.8917 C   0  0  0  0  0  0
  -17.6451  -30.6581   24.0560 C   0  0  0  0  0  0
  -25.9025  -34.9477   23.5131 C   0  0  0  0  0  0
  -16.5341  -29.9081   23.6323 C   0  0  0  0  0  0
  -16.7257  -28.6500   23.0348 C   0  0  0  0  0  0
  -26.4472  -31.6594   25.0719 C   0  0  0  0  0  0
  -25.3756  -31.3711   26.1485 C   0  0  0  0  0  0
  -27.0274  -30.3033   24.6072 C   0  0  0  0  0  0
  -27.6071  -32.4291   25.7464 C   0  0  0  0  0  0
  -27.5590  -37.1789   24.8449 C   0  0  0  0  0  0
  -21.4124  -29.3021   22.3738 N   0  0  0  0  0  0
  -26.4284  -37.3803   23.9427 N   0  0  0  0  0  0
  -24.6633  -31.0814   22.1015 N   0  0  0  0  0  0
  -23.4180  -28.8200   23.3027 O   0  0  0  0  0  0
  -28.3907  -26.7188   20.0728 O   0  0  0  0  0  0
  -26.5590  -34.8926   22.4692 O   0  0  0  0  0  0
  -23.5324  -32.1452   23.7531 O   0  0  0  0  0  0
  -27.9129  -19.2702   21.1161 C   0  0  0  0  0  0
  -28.3343  -20.4189   20.3859 C   0  0  0  0  0  0
  -29.8040  -18.1103   20.4265 C   0  0  0  0  0  0
  -30.2166  -19.2490   19.6758 C   0  0  0  0  0  0
  -26.9380  -19.4206   23.4443 C   0  0  0  0  0  0
  -29.7132  -15.6521   22.4583 C   0  0  0  0  0  0
  -26.6469  -19.1969   21.9556 C   0  0  0  0  0  0
  -27.5619  -21.7366   20.2748 C   0  0  0  0  0  0
  -30.6901  -16.8594   20.5185 C   0  0  0  0  0  0
  -28.2690  -22.9619   20.9064 C   0  0  0  0  0  0
  -27.8042  -24.2994   20.2827 C   0  0  0  0  0  0
  -28.4350  -25.5604   20.9173 C   0  0  0  0  0  0
  -31.5049  -19.2672   18.8401 C   0  0  0  0  0  0
  -28.6463  -18.1295   21.1299 N   0  0  0  0  0  0
  -29.4725  -20.3857   19.6548 N   0  0  0  0  0  0
  -30.1573  -15.5751   21.0579 N   0  0  0  0  0  0
  -32.5585  -18.9297   19.5848 F   0  0  0  0  0  0
  -31.4034  -18.4110   17.8220 F   0  0  0  0  0  0
  -31.7401  -20.4790   18.3298 F   0  0  0  0  0  0
  -31.4493  -12.3655   19.1284 H   0  0  0  0  0  0
  -30.2823  -11.2984   19.8378 H   0  0  0  0  0  0
  -29.7316  -11.7756   17.4326 H   0  0  0  0  0  0
  -29.6619  -13.4883   17.7687 H   0  0  0  0  0  0
  -27.8240  -11.3097   18.8250 H   0  0  0  0  0  0
  -27.3573  -12.6285   17.7833 H   0  0  0  0  0  0
  -27.6950  -14.2599   19.5629 H   0  0  0  0  0  0
  -28.6681  -11.9673   21.3318 H   0  0  0  0  0  0
  -28.4206  -13.5905   21.8574 H   0  0  0  0  0  0
  -25.2725   -9.5706   22.4751 H   0  0  0  0  0  0
  -23.9982   -7.4643   22.7472 H   0  0  0  0  0  0
  -21.0787   -8.8754   19.8978 H   0  0  0  0  0  0
  -22.3627  -10.9662   19.6171 H   0  0  0  0  0  0
  -21.2022   -7.6140   23.9708 H   0  0  0  0  0  0
  -21.1491   -6.0522   25.9074 H   0  0  0  0  0  0
  -22.0589   -2.7596   23.2856 H   0  0  0  0  0  0
  -22.4052  -11.9973   22.4857 H   0  0  0  0  0  0
  -21.1103  -13.1374   22.2621 H   0  0  0  0  0  0
  -24.6743  -15.8547   20.5369 H   0  0  0  0  0  0
  -26.3040  -15.6292   20.1502 H   0  0  0  0  0  0
  -26.7099  -32.5559   23.1161 H   0  0  0  0  0  0
  -25.0074  -33.9796   25.0499 H   0  0  0  0  0  0
  -22.6855  -31.3091   21.4150 H   0  0  0  0  0  0
  -23.3751  -35.9647   23.3269 H   0  0  0  0  0  0
  -24.3598  -36.8950   22.2051 H   0  0  0  0  0  0
  -23.7227  -37.6510   23.6652 H   0  0  0  0  0  0
  -26.0339  -31.6035   20.5932 H   0  0  0  0  0  0
  -26.8150  -30.8947   21.9796 H   0  0  0  0  0  0
  -28.0956  -29.1120   21.1703 H   0  0  0  0  0  0
  -26.0719  -25.9985   18.9771 H   0  0  0  0  0  0
  -23.9806  -27.3016   19.0247 H   0  0  0  0  0  0
  -23.7149  -30.6019   19.4067 H   0  0  0  0  0  0
  -22.7301  -29.2460   19.8708 H   0  0  0  0  0  0
  -25.1264  -36.1969   25.0831 H   0  0  0  0  0  0
  -20.9954  -28.3207   24.1448 H   0  0  0  0  0  0
  -20.5640  -26.2252   23.3603 H   0  0  0  0  0  0
  -21.6628  -26.7423   22.1229 H   0  0  0  0  0  0
  -19.6896  -25.6295   21.1227 H   0  0  0  0  0  0
  -19.6683  -27.3199   20.6748 H   0  0  0  0  0  0
  -17.4185  -26.6667   21.4014 H   0  0  0  0  0  0
  -18.0312  -26.0049   22.9016 H   0  0  0  0  0  0
  -19.7929  -30.7233   24.2295 H   0  0  0  0  0  0
  -17.5013  -31.6263   24.5151 H   0  0  0  0  0  0
  -15.5340  -30.2991   23.7631 H   0  0  0  0  0  0
  -15.8660  -28.0820   22.7052 H   0  0  0  0  0  0
  -24.5926  -30.7046   25.7841 H   0  0  0  0  0  0
  -24.8952  -32.2880   26.4926 H   0  0  0  0  0  0
  -25.8135  -30.8900   27.0243 H   0  0  0  0  0  0
  -26.2800  -29.6810   24.1138 H   0  0  0  0  0  0
  -27.4051  -29.7248   25.4510 H   0  0  0  0  0  0
  -27.8639  -30.4328   23.9197 H   0  0  0  0  0  0
  -27.2711  -33.3571   26.2100 H   0  0  0  0  0  0
  -28.3856  -32.6877   25.0274 H   0  0  0  0  0  0
  -28.0771  -31.8377   26.5334 H   0  0  0  0  0  0
  -28.2571  -38.0126   24.7569 H   0  0  0  0  0  0
  -28.1124  -36.2665   24.6168 H   0  0  0  0  0  0
  -27.2332  -37.1319   25.8856 H   0  0  0  0  0  0
  -20.9263  -29.8759   21.6989 H   0  0  0  0  0  0
  -26.0167  -38.2868   24.1485 H   0  0  0  0  0  0
  -26.0283  -19.3330   24.0362 H   0  0  0  0  0  0
  -27.3587  -20.4107   23.6167 H   0  0  0  0  0  0
  -27.6527  -18.6849   23.8167 H   0  0  0  0  0  0
  -29.9772  -14.7648   23.0368 H   0  0  0  0  0  0
  -28.6301  -15.7743   22.4995 H   0  0  0  0  0  0
  -30.1526  -16.5061   22.9759 H   0  0  0  0  0  0
  -26.2115  -18.2048   21.8223 H   0  0  0  0  0  0
  -25.8848  -19.8892   21.6044 H   0  0  0  0  0  0
  -26.5571  -21.6582   20.6819 H   0  0  0  0  0  0
  -27.4190  -21.9189   19.2090 H   0  0  0  0  0  0
  -31.5719  -17.1258   21.1024 H   0  0  0  0  0  0
  -31.0448  -16.6987   19.4991 H   0  0  0  0  0  0
  -29.3456  -22.8831   20.7522 H   0  0  0  0  0  0
  -28.1172  -22.9602   21.9867 H   0  0  0  0  0  0
  -26.7188  -24.3623   20.3509 H   0  0  0  0  0  0
  -28.0460  -24.2851   19.2192 H   0  0  0  0  0  0
  -29.4894  -25.3695   21.1186 H   0  0  0  0  0  0
  -27.9797  -25.7690   21.8869 H   0  0  0  0  0  0
  1 25  1  0  0  0
  1 30  2  0  0  0
  1 86  1  0  0  0
  2  3  1  0  0  0
  2 25  1  0  0  0
  2 90  1  0  0  0
  2 91  1  0  0  0
  3  4  1  0  0  0
  3 92  1  0  0  0
  3 93  1  0  0  0
  4  5  1  0  0  0
  4 94  1  0  0  0
  4 95  1  0  0  0
  5  6  1  0  0  0
  5 26  1  0  0  0
  5 96  1  0  0  0
  6 25  1  0  0  0
  6 97  1  0  0  0
  6 98  1  0  0  0
  7  8  2  0  0  0
  7 26  1  0  0  0
  7 29  1  0  0  0
  8  9  1  0  0  0
  8 22  1  0  0  0
  9 10  1  0  0  0
  9 27  2  0  0  0
 10 11  2  0  0  0
 10 15  1  0  0  0
 11 12  1  0  0  0
 11 99  1  0  0  0
 12 13  2  0  0  0
 12100  1  0  0  0
 13 14  1  0  0  0
 13 31  1  0  0  0
 14 15  2  0  0  0
 14101  1  0  0  0
 15102  1  0  0  0
 16 17  2  0  0  0
 16 21  1  0  0  0
 16 31  1  0  0  0
 17 18  1  0  0  0
 17103  1  0  0  0
 18 19  2  0  0  0
 18104  1  0  0  0
 19 20  1  0  0  0
 19 24  1  0  0  0
 20 21  2  0  0  0
 20105  1  0  0  0
 21 23  1  0  0  0
 22 28  1  0  0  0
 22 32  2  0  0  0
 26 27  1  0  0  0
 28106  1  0  0  0
 28107  1  0  0  0
 29108  1  0  0  0
 29109  1  0  0  0
 33 34  1  0  0  0
 33 66  1  0  0  0
 33 70  2  0  0  0
 34 36  1  0  0  0
 34 59  1  0  0  0
 34110  1  0  0  0
 35 44  2  0  0  0
 35 45  1  0  0  0
 35 68  1  0  0  0
 36 56  1  0  0  0
 36111  1  0  0  0
 37 39  1  0  0  0
 37 47  1  0  0  0
 37 66  1  0  0  0
 37112  1  0  0  0
 38 43  2  0  0  0
 38 46  1  0  0  0
 38 47  1  0  0  0
 39 64  1  0  0  0
 39 67  2  0  0  0
 40 52  1  0  0  0
 40 53  2  0  0  0
 40 58  1  0  0  0
 41113  1  0  0  0
 41114  1  0  0  0
 41115  1  0  0  0
 41 48  1  0  0  0
 42 43  1  0  0  0
 42 66  1  0  0  0
 42116  1  0  0  0
 42117  1  0  0  0
 43 44  1  0  0  0
 44118  1  0  0  0
 45 46  2  0  0  0
 45119  1  0  0  0
 46120  1  0  0  0
 47121  1  0  0  0
 47122  1  0  0  0
 48 56  1  0  0  0
 48 65  1  0  0  0
 48123  1  0  0  0
 49 50  1  0  0  0
 49 53  1  0  0  0
 49 64  1  0  0  0
 49124  1  0  0  0
 50 51  1  0  0  0
 50125  1  0  0  0
 50126  1  0  0  0
 51 52  1  0  0  0
 51127  1  0  0  0
 51128  1  0  0  0
 52129  1  0  0  0
 52130  1  0  0  0
 53 54  1  0  0  0
 54 55  2  0  0  0
 54131  1  0  0  0
 55 57  1  0  0  0
 55132  1  0  0  0
 56 69  2  0  0  0
 57 58  2  0  0  0
 57133  1  0  0  0
 58134  1  0  0  0
 59 60  1  0  0  0
 59 61  1  0  0  0
 59 62  1  0  0  0
 60135  1  0  0  0
 60136  1  0  0  0
 60137  1  0  0  0
 61138  1  0  0  0
 61139  1  0  0  0
 61140  1  0  0  0
 62141  1  0  0  0
 62142  1  0  0  0
 62143  1  0  0  0
 63 65  1  0  0  0
 63144  1  0  0  0
 63145  1  0  0  0
 63146  1  0  0  0
 64147  1  0  0  0
 65148  1  0  0  0
 68 82  1  0  0  0
 71 72  2  0  0  0
 71 77  1  0  0  0
 71 84  1  0  0  0
 72 78  1  0  0  0
 72 85  1  0  0  0
 73 74  1  0  0  0
 73 79  1  0  0  0
 73 84  2  0  0  0
 74 83  1  0  0  0
 74 85  2  0  0  0
 75 77  1  0  0  0
 75149  1  0  0  0
 75150  1  0  0  0
 75151  1  0  0  0
 76 86  1  0  0  0
 76152  1  0  0  0
 76153  1  0  0  0
 76154  1  0  0  0
 77155  1  0  0  0
 77156  1  0  0  0
 78 80  1  0  0  0
 78157  1  0  0  0
 78158  1  0  0  0
 79 86  1  0  0  0
 79159  1  0  0  0
 79160  1  0  0  0
 80 81  1  0  0  0
 80161  1  0  0  0
 80162  1  0  0  0
 81 82  1  0  0  0
 81163  1  0  0  0
 81164  1  0  0  0
 82165  1  0  0  0
 82166  1  0  0  0
 83 87  1  0  0  0
 83 88  1  0  0  0
 83 89  1  0  0  0
M  ISO  4   1 100  68 101  82 101  86 100
M  END
> <chiral flag>
0

> <version>
0

> <s_m_source_file>
/data/baiqing/PycharmProjects/Reinvent-master-3.2/result/LINK_invent/BTK/process_docking_weight1_custom_sum_contain_oxygen_bond_distance_aromatic_linkinvent_7_9_3/rearranged_h_0067.sdf

> <i_m_source_file_index>
43

> <r_mmod_Potential_Energy-OPLS-2005>
216.587753295898

> <r_mmod_Stretch_Energy-OPLS-2005>
43.7001647949219

> <r_mmod_Bend_Energy-OPLS-2005>
120.623260498047

> <r_mmod_Torsional_Energy-OPLS-2005>
262.583068847656

> <r_mmod_Improper_Torsional_Energy-OPLS-2005>
9.60944843292236

> <r_mmod_Van_der_Waal_Energy-OPLS-2005>
169.633728027344

> <r_mmod_Electrostatic_Energy-OPLS-2005>
-219.893676757812

> <r_mmod_Solvation_Energy-OPLS-2005>
-183.329330444336

> <b_mmod_Minimization_Converged-OPLS-2005>
0

> <r_mmod_RMS_Derivative-OPLS-2005>
2.24087834358215

$$$$
44
                    3D
 Structure written by MMmdl.
175183  0  0  1  0            999 V2000
  -31.2489  -14.4078   21.0766 C   0  0  0  0  0  0
  -31.0200  -12.7296   19.0657 C   0  0  0  0  0  0
  -29.6423  -12.4850   17.5855 C   0  0  0  0  0  0
  -27.7419  -12.8566   18.0303 C   0  0  0  0  0  0
  -27.3024  -13.4342   19.8846 C   0  0  2  0  0  0
  -28.7711  -13.5013   21.2806 C   0  0  0  0  0  0
  -25.0394  -13.8472   20.6419 C   0  0  0  0  0  0
  -24.0339  -13.0205   20.9765 C   0  0  0  0  0  0
  -24.5484  -11.6889   20.9103 C   0  0  0  0  0  0
  -23.8654  -10.4132   21.0525 C   0  0  0  0  0  0
  -24.3421   -9.4116   21.9238 C   0  0  0  0  0  0
  -23.6226   -8.2086   22.0724 C   0  0  0  0  0  0
  -22.4217   -8.0100   21.3490 C   0  0  0  0  0  0
  -21.9765   -9.0008   20.4576 C   0  0  0  0  0  0
  -22.6945  -10.1939   20.3066 C   0  0  0  0  0  0
  -21.6813   -6.0667   22.5293 C   0  0  0  0  0  0
  -21.3993   -6.5613   23.8218 C   0  0  0  0  0  0
  -21.3653   -5.6776   24.9188 C   0  0  0  0  0  0
  -21.6046   -4.3037   24.7251 C   0  0  0  0  0  0
  -21.8829   -3.8113   23.4384 C   0  0  0  0  0  0
  -21.9182   -4.6907   22.3429 C   0  0  0  0  0  0
  -22.6448  -13.4786   21.2252 C   0  0  0  0  0  0
  -22.1659   -4.2101   21.1005 F   0  0  0  0  0  0
  -21.5628   -3.4539   25.7774 F   0  0  0  0  0  0
  -30.5117  -13.3377   20.7333 N   0  0  0  0  0  0
  -26.0827  -13.0040   20.3857 N   0  0  0  0  0  0
  -25.8299  -11.6976   20.5952 N   0  0  0  0  0  0
  -21.9272  -12.7763   22.0869 N   0  0  0  0  0  0
  -25.1117  -15.2341   20.4909 N   0  0  0  0  0  0
  -32.0882  -14.8721   20.3056 O   0  0  0  0  0  0
  -21.6584   -6.8726   21.4216 O   0  0  0  0  0  0
  -22.2203  -14.5097   20.7043 O   0  0  0  0  0  0
  -24.6466  -31.8445   23.1904 C   0  0  0  0  0  0
  -25.9236  -32.4697   23.8281 C   0  0  1  0  0  0
  -27.1884  -27.1316   20.0849 C   0  0  0  0  0  0
  -25.5978  -33.8504   24.2196 N   0  0  0  0  0  0
  -23.4469  -30.4706   21.5399 C   0  0  2  0  0  0
  -24.8842  -28.9030   20.1087 C   0  0  0  0  0  0
  -22.7574  -29.4564   22.4873 C   0  0  0  0  0  0
  -18.0307  -28.1401   22.8481 C   0  0  0  0  0  0
  -24.1491  -36.7245   23.2641 C   0  0  0  0  0  0
  -26.0080  -30.7098   21.3921 C   0  0  0  0  0  0
  -26.0712  -29.3249   20.7210 C   0  0  0  0  0  0
  -27.2277  -28.4532   20.6961 C   0  0  0  0  0  0
  -25.9655  -26.8160   19.4548 C   0  0  0  0  0  0
  -24.8425  -27.6604   19.4692 C   0  0  0  0  0  0
  -23.6685  -29.8111   20.1565 C   0  0  0  0  0  0
  -25.4128  -36.3033   24.0314 C   0  0  1  0  0  0
  -20.5921  -28.3728   23.1233 C   0  0  2  0  0  0
  -20.6792  -26.9432   22.5397 C   0  0  0  0  0  0
  -19.5764  -26.6388   21.5210 C   0  0  0  0  0  0
  -18.1947  -26.7940   22.1625 C   0  0  0  0  0  0
  -19.1564  -28.8884   23.2848 C   0  0  0  0  0  0
  -18.9481  -30.1478   23.8877 C   0  0  0  0  0  0
  -17.6478  -30.6597   24.0562 C   0  0  0  0  0  0
  -25.9085  -34.9410   23.5062 C   0  0  0  0  0  0
  -16.5368  -29.9092   23.6336 C   0  0  0  0  0  0
  -16.7290  -28.6509   23.0359 C   0  0  0  0  0  0
  -26.4542  -31.6572   25.0733 C   0  0  0  0  0  0
  -25.3706  -31.3762   26.1411 C   0  0  0  0  0  0
  -27.0413  -30.2968   24.6330 C   0  0  0  0  0  0
  -27.6071  -32.4338   25.7515 C   0  0  0  0  0  0
  -27.5576  -37.1786   24.8470 C   0  0  0  0  0  0
  -21.4267  -29.3059   22.3612 N   0  0  0  0  0  0
  -26.4289  -37.3749   23.9410 N   0  0  0  0  0  0
  -24.7214  -31.0289   22.0952 N   0  0  0  0  0  0
  -23.4219  -28.8096   23.3009 O   0  0  0  0  0  0
  -28.2209  -26.1211   20.0855 O   0  0  0  0  0  0
  -26.5664  -34.8905   22.4637 O   0  0  0  0  0  0
  -23.5583  -32.1335   23.7119 O   0  0  0  0  0  0
  -30.2315  -16.1282   17.4895 C   0  0  0  0  0  0
  -28.8469  -15.8494   19.6682 C   0  0  0  0  0  0
  -29.2577  -14.4284   19.0508 C   0  0  0  0  0  0
  -29.0988  -17.2145   19.0718 C   0  0  0  0  0  0
  -28.9873  -11.8583   19.7024 C   0  0  0  0  0  0
  -32.6313  -14.7788   23.9836 C   0  0  0  0  0  0
  -30.1594  -14.7294   24.6171 C   0  0  0  0  0  0
  -28.1165  -16.1752   21.0021 C   0  0  0  0  0  0
  -28.4305  -18.7126   19.4077 C   0  0  0  0  0  0
  -29.0051  -16.7533   22.1499 C   0  0  0  0  0  0
  -29.1482  -20.2290   19.5000 C   0  0  0  0  0  0
  -28.2690  -21.6720   19.5769 C   0  0  0  0  0  0
  -28.8304  -23.2404   19.8580 C   0  0  0  0  0  0
  -30.5361  -16.4640   22.1701 C   0  0  0  0  0  0
  -27.8772  -24.6273   19.7813 C   0  0  0  0  0  0
  -31.2052  -14.4228   23.5285 C   0  0  0  0  0  0
  -29.9798  -14.9148   17.9539 N   0  0  0  0  0  0
  -29.8075  -17.2772   17.9540 N   0  0  0  0  0  0
  -30.8859  -15.0310   22.2199 N   0  0  0  0  0  0
  -31.8518  -13.2883   18.6371 H   0  0  0  0  0  0
  -31.5183  -11.7728   19.2384 H   0  0  0  0  0  0
  -29.7076  -11.4587   17.2140 H   0  0  0  0  0  0
  -29.9326  -12.9675   16.6499 H   0  0  0  0  0  0
  -27.1410  -11.9823   17.7729 H   0  0  0  0  0  0
  -27.3671  -13.6141   17.3378 H   0  0  0  0  0  0
  -27.0133  -14.4140   19.5527 H   0  0  0  0  0  0
  -28.5805  -12.6483   21.9379 H   0  0  0  0  0  0
  -28.6434  -14.1434   22.1361 H   0  0  0  0  0  0
  -25.2505   -9.5740   22.4868 H   0  0  0  0  0  0
  -23.9971   -7.4480   22.7433 H   0  0  0  0  0  0
  -21.0715   -8.8464   19.8864 H   0  0  0  0  0  0
  -22.3312  -10.9513   19.6259 H   0  0  0  0  0  0
  -21.1984   -7.6123   23.9719 H   0  0  0  0  0  0
  -21.1461   -6.0503   25.9084 H   0  0  0  0  0  0
  -22.0627   -2.7579   23.2889 H   0  0  0  0  0  0
  -22.3038  -11.9529   22.5317 H   0  0  0  0  0  0
  -20.9845  -13.0632   22.3093 H   0  0  0  0  0  0
  -24.2853  -15.8133   20.5852 H   0  0  0  0  0  0
  -25.9077  -15.7264   20.1070 H   0  0  0  0  0  0
  -26.7296  -32.5281   23.0995 H   0  0  0  0  0  0
  -25.0100  -33.9614   25.0328 H   0  0  0  0  0  0
  -22.7505  -31.2987   21.3918 H   0  0  0  0  0  0
  -23.3769  -35.9562   23.3293 H   0  0  0  0  0  0
  -24.3570  -36.8889   22.2057 H   0  0  0  0  0  0
  -23.7229  -37.6431   23.6685 H   0  0  0  0  0  0
  -26.1720  -31.4695   20.6268 H   0  0  0  0  0  0
  -26.8758  -30.7501   22.0389 H   0  0  0  0  0  0
  -28.1353  -28.7685   21.1910 H   0  0  0  0  0  0
  -25.8222  -25.8754   18.9481 H   0  0  0  0  0  0
  -23.9330  -27.3329   18.9849 H   0  0  0  0  0  0
  -23.8120  -30.5897   19.4061 H   0  0  0  0  0  0
  -22.7791  -29.2618   19.8418 H   0  0  0  0  0  0
  -25.1317  -36.1859   25.0806 H   0  0  0  0  0  0
  -21.0009  -28.3313   24.1359 H   0  0  0  0  0  0
  -20.5693  -26.2341   23.3616 H   0  0  0  0  0  0
  -21.6656  -26.7445   22.1191 H   0  0  0  0  0  0
  -19.6922  -25.6294   21.1257 H   0  0  0  0  0  0
  -19.6694  -27.3183   20.6729 H   0  0  0  0  0  0
  -17.4210  -26.6683   21.4032 H   0  0  0  0  0  0
  -18.0350  -26.0086   22.9030 H   0  0  0  0  0  0
  -19.7954  -30.7299   24.2240 H   0  0  0  0  0  0
  -17.5030  -31.6275   24.5169 H   0  0  0  0  0  0
  -15.5367  -30.2988   23.7675 H   0  0  0  0  0  0
  -15.8689  -28.0819   22.7092 H   0  0  0  0  0  0
  -24.5900  -30.7102   25.7714 H   0  0  0  0  0  0
  -24.8875  -32.2944   26.4767 H   0  0  0  0  0  0
  -25.7969  -30.8971   27.0235 H   0  0  0  0  0  0
  -26.3040  -29.6684   24.1320 H   0  0  0  0  0  0
  -27.4005  -29.7278   25.4914 H   0  0  0  0  0  0
  -27.8957  -30.4208   23.9671 H   0  0  0  0  0  0
  -27.2673  -33.3662   26.2033 H   0  0  0  0  0  0
  -28.3909  -32.6863   25.0361 H   0  0  0  0  0  0
  -28.0708  -31.8502   26.5476 H   0  0  0  0  0  0
  -28.2596  -38.0081   24.7519 H   0  0  0  0  0  0
  -28.1072  -36.2613   24.6302 H   0  0  0  0  0  0
  -27.2289  -37.1435   25.8871 H   0  0  0  0  0  0
  -20.9480  -29.8780   21.6793 H   0  0  0  0  0  0
  -26.0156  -38.2816   24.1416 H   0  0  0  0  0  0
  -30.8259  -16.1742   16.5900 H   0  0  0  0  0  0
  -28.0389  -11.3209   19.7466 H   0  0  0  0  0  0
  -29.4048  -11.3937   20.6091 H   0  0  0  0  0  0
  -29.4369  -10.9998   19.1829 H   0  0  0  0  0  0
  -32.8899  -14.2509   24.9033 H   0  0  0  0  0  0
  -32.7400  -15.8458   24.1792 H   0  0  0  0  0  0
  -33.3741  -14.5053   23.2330 H   0  0  0  0  0  0
  -30.3582  -14.1465   25.5162 H   0  0  0  0  0  0
  -29.1504  -14.4741   24.2985 H   0  0  0  0  0  0
  -30.1628  -15.7807   24.9064 H   0  0  0  0  0  0
  -27.4259  -15.4558   21.4061 H   0  0  0  0  0  0
  -27.3074  -16.8644   20.7918 H   0  0  0  0  0  0
  -27.8540  -18.6991   20.3236 H   0  0  0  0  0  0
  -27.6643  -18.8108   18.6380 H   0  0  0  0  0  0
  -28.9069  -17.8385   22.1343 H   0  0  0  0  0  0
  -28.5590  -16.4728   23.1037 H   0  0  0  0  0  0
  -29.8166  -20.3149   18.6433 H   0  0  0  0  0  0
  -29.8075  -20.2040   20.3687 H   0  0  0  0  0  0
  -27.4936  -21.5035   20.3250 H   0  0  0  0  0  0
  -27.7192  -21.7211   18.6366 H   0  0  0  0  0  0
  -29.6634  -23.4012   19.1737 H   0  0  0  0  0  0
  -29.2862  -23.2330   20.8478 H   0  0  0  0  0  0
  -30.9831  -16.9732   23.0237 H   0  0  0  0  0  0
  -30.9903  -16.9413   21.2996 H   0  0  0  0  0  0
  -27.0081  -24.4084   20.4041 H   0  0  0  0  0  0
  -27.5097  -24.6213   18.7549 H   0  0  0  0  0  0
  -31.1826  -13.3381   23.3968 H   0  0  0  0  0  0
  1 25  1  0  0  0
  1 30  2  0  0  0
  1 89  1  0  0  0
  2  3  1  0  0  0
  2 25  1  0  0  0
  2 90  1  0  0  0
  2 91  1  0  0  0
  3  4  1  0  0  0
  3 92  1  0  0  0
  3 93  1  0  0  0
  4  5  1  0  0  0
  4 94  1  0  0  0
  4 95  1  0  0  0
  5  6  1  0  0  0
  5 26  1  0  0  0
  5 96  1  0  0  0
  6 25  1  0  0  0
  6 97  1  0  0  0
  6 98  1  0  0  0
  7  8  2  0  0  0
  7 26  1  0  0  0
  7 29  1  0  0  0
  8  9  1  0  0  0
  8 22  1  0  0  0
  9 10  1  0  0  0
  9 27  2  0  0  0
 10 11  2  0  0  0
 10 15  1  0  0  0
 11 12  1  0  0  0
 11 99  1  0  0  0
 12 13  2  0  0  0
 12100  1  0  0  0
 13 14  1  0  0  0
 13 31  1  0  0  0
 14 15  2  0  0  0
 14101  1  0  0  0
 15102  1  0  0  0
 16 17  2  0  0  0
 16 21  1  0  0  0
 16 31  1  0  0  0
 17 18  1  0  0  0
 17103  1  0  0  0
 18 19  2  0  0  0
 18104  1  0  0  0
 19 20  1  0  0  0
 19 24  1  0  0  0
 20 21  2  0  0  0
 20105  1  0  0  0
 21 23  1  0  0  0
 22 28  1  0  0  0
 22 32  2  0  0  0
 26 27  1  0  0  0
 28106  1  0  0  0
 28107  1  0  0  0
 29108  1  0  0  0
 29109  1  0  0  0
 33 34  1  0  0  0
 33 66  1  0  0  0
 33 70  2  0  0  0
 34 36  1  0  0  0
 34 59  1  0  0  0
 34110  1  0  0  0
 35 44  2  0  0  0
 35 45  1  0  0  0
 35 68  1  0  0  0
 36 56  1  0  0  0
 36111  1  0  0  0
 37 39  1  0  0  0
 37 47  1  0  0  0
 37 66  1  0  0  0
 37112  1  0  0  0
 38 43  2  0  0  0
 38 46  1  0  0  0
 38 47  1  0  0  0
 39 64  1  0  0  0
 39 67  2  0  0  0
 40 52  1  0  0  0
 40 53  2  0  0  0
 40 58  1  0  0  0
 41113  1  0  0  0
 41114  1  0  0  0
 41115  1  0  0  0
 41 48  1  0  0  0
 42 43  1  0  0  0
 42 66  1  0  0  0
 42116  1  0  0  0
 42117  1  0  0  0
 43 44  1  0  0  0
 44118  1  0  0  0
 45 46  2  0  0  0
 45119  1  0  0  0
 46120  1  0  0  0
 47121  1  0  0  0
 47122  1  0  0  0
 48 56  1  0  0  0
 48 65  1  0  0  0
 48123  1  0  0  0
 49 50  1  0  0  0
 49 53  1  0  0  0
 49 64  1  0  0  0
 49124  1  0  0  0
 50 51  1  0  0  0
 50125  1  0  0  0
 50126  1  0  0  0
 51 52  1  0  0  0
 51127  1  0  0  0
 51128  1  0  0  0
 52129  1  0  0  0
 52130  1  0  0  0
 53 54  1  0  0  0
 54 55  2  0  0  0
 54131  1  0  0  0
 55 57  1  0  0  0
 55132  1  0  0  0
 56 69  2  0  0  0
 57 58  2  0  0  0
 57133  1  0  0  0
 58134  1  0  0  0
 59 60  1  0  0  0
 59 61  1  0  0  0
 59 62  1  0  0  0
 60135  1  0  0  0
 60136  1  0  0  0
 60137  1  0  0  0
 61138  1  0  0  0
 61139  1  0  0  0
 61140  1  0  0  0
 62141  1  0  0  0
 62142  1  0  0  0
 62143  1  0  0  0
 63 65  1  0  0  0
 63144  1  0  0  0
 63145  1  0  0  0
 63146  1  0  0  0
 64147  1  0  0  0
 65148  1  0  0  0
 68 85  1  0  0  0
 71 87  2  0  0  0
 71 88  1  0  0  0
 71149  1  0  0  0
 72 73  2  0  0  0
 72 74  1  0  0  0
 72 78  1  0  0  0
 73 75  1  0  0  0
 73 87  1  0  0  0
 74 79  1  0  0  0
 74 88  2  0  0  0
 75150  1  0  0  0
 75151  1  0  0  0
 75152  1  0  0  0
 76153  1  0  0  0
 76154  1  0  0  0
 76155  1  0  0  0
 76 86  1  0  0  0
 77 86  1  0  0  0
 77156  1  0  0  0
 77157  1  0  0  0
 77158  1  0  0  0
 78 80  1  0  0  0
 78159  1  0  0  0
 78160  1  0  0  0
 79 81  1  0  0  0
 79161  1  0  0  0
 79162  1  0  0  0
 80 84  1  0  0  0
 80163  1  0  0  0
 80164  1  0  0  0
 81 82  1  0  0  0
 81165  1  0  0  0
 81166  1  0  0  0
 82 83  1  0  0  0
 82167  1  0  0  0
 82168  1  0  0  0
 83 85  1  0  0  0
 83169  1  0  0  0
 83170  1  0  0  0
 84 89  1  0  0  0
 84171  1  0  0  0
 84172  1  0  0  0
 85173  1  0  0  0
 85174  1  0  0  0
 86 89  1  0  0  0
 86175  1  0  0  0
M  ISO  4   1 100  68 101  85 101  89 100
M  END
> <chiral flag>
0

> <version>
0

> <s_m_source_file>
/data/baiqing/PycharmProjects/Reinvent-master-3.2/result/LINK_invent/BTK/process_docking_weight1_custom_sum_contain_oxygen_bond_distance_aromatic_linkinvent_7_9_3/rearranged_h_0067.sdf

> <i_m_source_file_index>
44

> <r_mmod_Potential_Energy-OPLS-2005>
6143.72705078125

> <r_mmod_Stretch_Energy-OPLS-2005>
3599.11083984375

> <r_mmod_Bend_Energy-OPLS-2005>
605.772277832031

> <r_mmod_Torsional_Energy-OPLS-2005>
365.486267089844

> <r_mmod_Improper_Torsional_Energy-OPLS-2005>
9.09121704101562

> <r_mmod_Van_der_Waal_Energy-OPLS-2005>
1969.47204589844

> <r_mmod_Electrostatic_Energy-OPLS-2005>
-629.790466308594

> <r_mmod_Solvation_Energy-OPLS-2005>
-210.096069335938

> <b_mmod_Minimization_Converged-OPLS-2005>
0

> <r_mmod_RMS_Derivative-OPLS-2005>
2.18356132507324

$$$$
45
                    3D
 Structure written by MMmdl.
183191  0  0  1  0            999 V2000
  -30.6771  -14.4642   20.5167 C   0  0  0  0  0  0
  -30.4165  -12.2837   19.4296 C   0  0  0  0  0  0
  -29.4877  -12.4758   18.2114 C   0  0  0  0  0  0
  -28.0102  -12.3489   18.6237 C   0  0  0  0  0  0
  -27.6550  -13.1995   19.8713 C   0  0  2  0  0  0
  -28.6967  -12.9965   20.9952 C   0  0  0  0  0  0
  -25.2537  -13.8179   20.5671 C   0  0  0  0  0  0
  -24.1823  -13.0440   20.9216 C   0  0  0  0  0  0
  -24.6387  -11.6899   20.8817 C   0  0  0  0  0  0
  -23.9088  -10.4268   21.0462 C   0  0  0  0  0  0
  -24.3655   -9.4157   21.9217 C   0  0  0  0  0  0
  -23.6304   -8.2215   22.0779 C   0  0  0  0  0  0
  -22.4297   -8.0277   21.3566 C   0  0  0  0  0  0
  -21.9936   -9.0265   20.4664 C   0  0  0  0  0  0
  -22.7283  -10.2131   20.3075 C   0  0  0  0  0  0
  -21.6828   -6.0738   22.5292 C   0  0  0  0  0  0
  -21.3990   -6.5647   23.8222 C   0  0  0  0  0  0
  -21.3663   -5.6809   24.9195 C   0  0  0  0  0  0
  -21.6048   -4.3074   24.7244 C   0  0  0  0  0  0
  -21.8825   -3.8143   23.4367 C   0  0  0  0  0  0
  -21.9178   -4.6954   22.3410 C   0  0  0  0  0  0
  -22.7831  -13.5213   21.1882 C   0  0  0  0  0  0
  -22.1653   -4.2132   21.0995 F   0  0  0  0  0  0
  -21.5637   -3.4572   25.7754 F   0  0  0  0  0  0
  -30.0271  -13.2763   20.4363 N   0  0  0  0  0  0
  -26.2983  -12.9326   20.3374 N   0  0  0  0  0  0
  -25.9296  -11.6508   20.5839 N   0  0  0  0  0  0
  -22.0479  -12.8200   22.0439 N   0  0  0  0  0  0
  -25.4271  -15.1892   20.3936 N   0  0  0  0  0  0
  -31.8746  -14.5992   20.2647 O   0  0  0  0  0  0
  -21.6633   -6.8895   21.4264 O   0  0  0  0  0  0
  -22.3495  -14.5507   20.6685 O   0  0  0  0  0  0
  -24.6119  -31.8693   23.2103 C   0  0  0  0  0  0
  -25.9023  -32.4829   23.8388 C   0  0  1  0  0  0
  -27.2504  -27.4619   20.1107 C   0  0  0  0  0  0
  -25.5901  -33.8619   24.2358 N   0  0  0  0  0  0
  -23.3984  -30.4876   21.5498 C   0  0  2  0  0  0
  -24.8478  -28.9450   20.1273 C   0  0  0  0  0  0
  -22.7389  -29.4643   22.5014 C   0  0  0  0  0  0
  -18.0270  -28.1384   22.8486 C   0  0  0  0  0  0
  -24.1488  -36.7307   23.2639 C   0  0  0  0  0  0
  -25.9197  -30.8483   21.3512 C   0  0  0  0  0  0
  -26.0027  -29.4779   20.7127 C   0  0  0  0  0  0
  -27.2072  -28.7456   20.6934 C   0  0  0  0  0  0
  -26.0717  -26.9170   19.5580 C   0  0  0  0  0  0
  -24.8746  -27.6621   19.5495 C   0  0  0  0  0  0
  -23.6077  -29.8100   20.1677 C   0  0  0  0  0  0
  -25.4111  -36.3108   24.0344 C   0  0  1  0  0  0
  -20.5851  -28.3643   23.1346 C   0  0  2  0  0  0
  -20.6762  -26.9383   22.5435 C   0  0  0  0  0  0
  -19.5760  -26.6381   21.5212 C   0  0  0  0  0  0
  -18.1929  -26.7940   22.1596 C   0  0  0  0  0  0
  -19.1513  -28.8834   23.2916 C   0  0  0  0  0  0
  -18.9448  -30.1448   23.8907 C   0  0  0  0  0  0
  -17.6451  -30.6586   24.0569 C   0  0  0  0  0  0
  -25.9031  -34.9466   23.5143 C   0  0  0  0  0  0
  -16.5344  -29.9089   23.6326 C   0  0  0  0  0  0
  -16.7264  -28.6520   23.0330 C   0  0  0  0  0  0
  -26.4474  -31.6585   25.0693 C   0  0  0  0  0  0
  -25.3746  -31.3653   26.1436 C   0  0  0  0  0  0
  -27.0327  -30.3048   24.6030 C   0  0  0  0  0  0
  -27.6045  -32.4288   25.7463 C   0  0  0  0  0  0
  -27.5594  -37.1806   24.8471 C   0  0  0  0  0  0
  -21.4118  -29.3020   22.3756 N   0  0  0  0  0  0
  -26.4301  -37.3789   23.9419 N   0  0  0  0  0  0
  -24.6615  -31.0822   22.0975 N   0  0  0  0  0  0
  -23.4162  -28.8186   23.3049 O   0  0  0  0  0  0
  -28.4653  -26.8266   20.0210 O   0  0  0  0  0  0
  -26.5566  -34.8906   22.4691 O   0  0  0  0  0  0
  -23.5326  -32.1419   23.7521 O   0  0  0  0  0  0
  -27.8704  -20.0811   23.1016 C   0  0  0  0  0  0
  -27.5303  -21.4493   23.1199 C   0  0  0  0  0  0
  -28.9812  -19.7142   22.3355 C   0  0  0  0  0  0
  -29.3339  -21.8918   21.7749 C   0  0  0  0  0  0
  -28.6541  -24.9195   18.0646 C   0  0  0  0  0  0
  -31.1795  -16.3062   17.9431 C   0  0  0  0  0  0
  -30.6638  -18.6489   18.4408 C   0  0  0  0  0  0
  -28.7964  -16.9823   18.0335 C   0  0  0  0  0  0
  -29.3507  -17.5680   23.4068 C   0  0  0  0  0  0
  -30.2264  -22.9110   21.0937 C   0  0  0  0  0  0
  -29.7885  -23.3528   19.6739 C   0  0  0  0  0  0
  -29.0114  -17.7809   20.9391 C   0  0  0  0  0  0
  -28.6126  -25.5211   20.5677 C   0  0  0  0  0  0
  -28.6252  -24.3788   19.5115 C   0  0  1  0  0  0
  -30.1219  -16.9265   20.2563 C   0  0  2  0  0  0
  -26.3412  -21.9880   23.9267 C   0  0  0  0  0  0
  -30.1769  -17.2029   18.6991 C   0  0  0  0  0  0
  -25.1609  -22.5013   23.0573 C   0  0  0  0  0  0
  -28.2970  -22.3488   22.4624 N   0  0  0  0  0  0
  -29.6949  -20.6210   21.6621 N   0  0  0  0  0  0
  -29.8459  -15.5173   20.5827 N   0  0  0  0  0  0
  -29.4160  -18.3882   22.2044 N   0  0  0  0  0  0
  -25.8783  -21.0314   24.7387 F   0  0  0  0  0  0
  -26.7728  -22.9903   24.6971 F   0  0  0  0  0  0
  -24.6835  -21.5219   22.2849 F   0  0  0  0  0  0
  -25.5366  -23.5047   22.2582 F   0  0  0  0  0  0
  -24.1670  -22.9466   23.8329 F   0  0  0  0  0  0
  -31.4613  -12.3874   19.1318 H   0  0  0  0  0  0
  -30.3140  -11.2785   19.8391 H   0  0  0  0  0  0
  -29.7187  -11.7465   17.4352 H   0  0  0  0  0  0
  -29.6495  -13.4541   17.7632 H   0  0  0  0  0  0
  -27.8183  -11.2948   18.8294 H   0  0  0  0  0  0
  -27.3629  -12.6166   17.7891 H   0  0  0  0  0  0
  -27.6869  -14.2398   19.5575 H   0  0  0  0  0  0
  -28.6630  -11.9693   21.3667 H   0  0  0  0  0  0
  -28.4794  -13.6289   21.8581 H   0  0  0  0  0  0
  -25.2822   -9.5575   22.4768 H   0  0  0  0  0  0
  -23.9976   -7.4590   22.7514 H   0  0  0  0  0  0
  -21.0865   -8.8835   19.8964 H   0  0  0  0  0  0
  -22.3820  -10.9693   19.6154 H   0  0  0  0  0  0
  -21.1997   -7.6150   23.9722 H   0  0  0  0  0  0
  -21.1473   -6.0553   25.9116 H   0  0  0  0  0  0
  -22.0599   -2.7590   23.2897 H   0  0  0  0  0  0
  -22.4110  -11.9836   22.4777 H   0  0  0  0  0  0
  -21.1074  -13.1178   22.2636 H   0  0  0  0  0  0
  -24.6594  -15.8473   20.4740 H   0  0  0  0  0  0
  -26.2585  -15.6096   20.0049 H   0  0  0  0  0  0
  -26.7092  -32.5591   23.1155 H   0  0  0  0  0  0
  -25.0105  -33.9782   25.0545 H   0  0  0  0  0  0
  -22.6856  -31.3015   21.4058 H   0  0  0  0  0  0
  -23.3745  -35.9642   23.3290 H   0  0  0  0  0  0
  -24.3592  -36.8945   22.2057 H   0  0  0  0  0  0
  -23.7221  -37.6499   23.6665 H   0  0  0  0  0  0
  -26.0129  -31.6062   20.5723 H   0  0  0  0  0  0
  -26.8156  -30.9179   21.9566 H   0  0  0  0  0  0
  -28.1067  -29.1696   21.1162 H   0  0  0  0  0  0
  -26.0767  -25.9309   19.1178 H   0  0  0  0  0  0
  -23.9836  -27.2403   19.1050 H   0  0  0  0  0  0
  -23.7137  -30.5795   19.4025 H   0  0  0  0  0  0
  -22.7359  -29.2234   19.8747 H   0  0  0  0  0  0
  -25.1273  -36.1974   25.0833 H   0  0  0  0  0  0
  -20.9949  -28.3199   24.1462 H   0  0  0  0  0  0
  -20.5684  -26.2229   23.3599 H   0  0  0  0  0  0
  -21.6651  -26.7435   22.1247 H   0  0  0  0  0  0
  -19.6930  -25.6300   21.1225 H   0  0  0  0  0  0
  -19.6738  -27.3196   20.6752 H   0  0  0  0  0  0
  -17.4224  -26.6715   21.3971 H   0  0  0  0  0  0
  -18.0290  -26.0084   22.8990 H   0  0  0  0  0  0
  -19.7924  -30.7271   24.2280 H   0  0  0  0  0  0
  -17.5005  -31.6276   24.5177 H   0  0  0  0  0  0
  -15.5349  -30.2994   23.7661 H   0  0  0  0  0  0
  -15.8670  -28.0863   22.6989 H   0  0  0  0  0  0
  -24.5980  -30.6926   25.7772 H   0  0  0  0  0  0
  -24.8855  -32.2792   26.4813 H   0  0  0  0  0  0
  -25.8119  -30.8893   27.0221 H   0  0  0  0  0  0
  -26.2864  -29.6761   24.1158 H   0  0  0  0  0  0
  -27.4215  -29.7313   25.4453 H   0  0  0  0  0  0
  -27.8625  -30.4401   23.9088 H   0  0  0  0  0  0
  -27.2673  -33.3572   26.2065 H   0  0  0  0  0  0
  -28.3841  -32.6861   25.0290 H   0  0  0  0  0  0
  -28.0722  -31.8392   26.5363 H   0  0  0  0  0  0
  -28.2591  -38.0123   24.7544 H   0  0  0  0  0  0
  -28.1103  -36.2645   24.6256 H   0  0  0  0  0  0
  -27.2325  -37.1441   25.8880 H   0  0  0  0  0  0
  -20.9248  -29.8728   21.6987 H   0  0  0  0  0  0
  -26.0186  -38.2857   24.1435 H   0  0  0  0  0  0
  -27.2820  -19.3504   23.6379 H   0  0  0  0  0  0
  -28.6585  -24.1083   17.3370 H   0  0  0  0  0  0
  -29.5415  -25.5268   17.8868 H   0  0  0  0  0  0
  -27.7951  -25.5497   17.8354 H   0  0  0  0  0  0
  -31.3102  -16.6306   16.9119 H   0  0  0  0  0  0
  -30.8559  -15.2697   17.8853 H   0  0  0  0  0  0
  -32.1636  -16.3275   18.4114 H   0  0  0  0  0  0
  -30.7202  -18.8690   17.3741 H   0  0  0  0  0  0
  -31.6662  -18.7962   18.8482 H   0  0  0  0  0  0
  -30.0256  -19.4140   18.8819 H   0  0  0  0  0  0
  -28.8479  -17.1799   16.9611 H   0  0  0  0  0  0
  -28.0207  -17.6324   18.4339 H   0  0  0  0  0  0
  -28.4475  -15.9569   18.1499 H   0  0  0  0  0  0
  -29.4952  -18.1656   24.3074 H   0  0  0  0  0  0
  -30.1315  -16.8059   23.3911 H   0  0  0  0  0  0
  -28.3849  -17.0713   23.4775 H   0  0  0  0  0  0
  -31.2159  -22.4587   21.0044 H   0  0  0  0  0  0
  -30.3837  -23.7513   21.7666 H   0  0  0  0  0  0
  -29.5675  -22.4607   19.0814 H   0  0  0  0  0  0
  -30.6760  -23.7898   19.2142 H   0  0  0  0  0  0
  -28.1033  -17.1956   21.0929 H   0  0  0  0  0  0
  -28.6975  -18.5827   20.2713 H   0  0  0  0  0  0
  -29.5795  -25.5768   21.0619 H   0  0  0  0  0  0
  -27.8877  -25.3231   21.3590 H   0  0  0  0  0  0
  -27.6861  -23.8341   19.6316 H   0  0  0  0  0  0
  -31.0922  -17.1942   20.6823 H   0  0  0  0  0  0
  -28.8862  -15.2896   20.7836 H   0  0  0  0  0  0
  1 25  1  0  0  0
  1 30  2  0  0  0
  1 91  1  0  0  0
  2  3  1  0  0  0
  2 25  1  0  0  0
  2 98  1  0  0  0
  2 99  1  0  0  0
  3  4  1  0  0  0
  3100  1  0  0  0
  3101  1  0  0  0
  4  5  1  0  0  0
  4102  1  0  0  0
  4103  1  0  0  0
  5  6  1  0  0  0
  5 26  1  0  0  0
  5104  1  0  0  0
  6 25  1  0  0  0
  6105  1  0  0  0
  6106  1  0  0  0
  7  8  2  0  0  0
  7 26  1  0  0  0
  7 29  1  0  0  0
  8  9  1  0  0  0
  8 22  1  0  0  0
  9 10  1  0  0  0
  9 27  2  0  0  0
 10 11  2  0  0  0
 10 15  1  0  0  0
 11 12  1  0  0  0
 11107  1  0  0  0
 12 13  2  0  0  0
 12108  1  0  0  0
 13 14  1  0  0  0
 13 31  1  0  0  0
 14 15  2  0  0  0
 14109  1  0  0  0
 15110  1  0  0  0
 16 17  2  0  0  0
 16 21  1  0  0  0
 16 31  1  0  0  0
 17 18  1  0  0  0
 17111  1  0  0  0
 18 19  2  0  0  0
 18112  1  0  0  0
 19 20  1  0  0  0
 19 24  1  0  0  0
 20 21  2  0  0  0
 20113  1  0  0  0
 21 23  1  0  0  0
 22 28  1  0  0  0
 22 32  2  0  0  0
 26 27  1  0  0  0
 28114  1  0  0  0
 28115  1  0  0  0
 29116  1  0  0  0
 29117  1  0  0  0
 33 34  1  0  0  0
 33 66  1  0  0  0
 33 70  2  0  0  0
 34 36  1  0  0  0
 34 59  1  0  0  0
 34118  1  0  0  0
 35 44  2  0  0  0
 35 45  1  0  0  0
 35 68  1  0  0  0
 36 56  1  0  0  0
 36119  1  0  0  0
 37 39  1  0  0  0
 37 47  1  0  0  0
 37 66  1  0  0  0
 37120  1  0  0  0
 38 43  2  0  0  0
 38 46  1  0  0  0
 38 47  1  0  0  0
 39 64  1  0  0  0
 39 67  2  0  0  0
 40 52  1  0  0  0
 40 53  2  0  0  0
 40 58  1  0  0  0
 41121  1  0  0  0
 41122  1  0  0  0
 41123  1  0  0  0
 41 48  1  0  0  0
 42 43  1  0  0  0
 42 66  1  0  0  0
 42124  1  0  0  0
 42125  1  0  0  0
 43 44  1  0  0  0
 44126  1  0  0  0
 45 46  2  0  0  0
 45127  1  0  0  0
 46128  1  0  0  0
 47129  1  0  0  0
 47130  1  0  0  0
 48 56  1  0  0  0
 48 65  1  0  0  0
 48131  1  0  0  0
 49 50  1  0  0  0
 49 53  1  0  0  0
 49 64  1  0  0  0
 49132  1  0  0  0
 50 51  1  0  0  0
 50133  1  0  0  0
 50134  1  0  0  0
 51 52  1  0  0  0
 51135  1  0  0  0
 51136  1  0  0  0
 52137  1  0  0  0
 52138  1  0  0  0
 53 54  1  0  0  0
 54 55  2  0  0  0
 54139  1  0  0  0
 55 57  1  0  0  0
 55140  1  0  0  0
 56 69  2  0  0  0
 57 58  2  0  0  0
 57141  1  0  0  0
 58142  1  0  0  0
 59 60  1  0  0  0
 59 61  1  0  0  0
 59 62  1  0  0  0
 60143  1  0  0  0
 60144  1  0  0  0
 60145  1  0  0  0
 61146  1  0  0  0
 61147  1  0  0  0
 61148  1  0  0  0
 62149  1  0  0  0
 62150  1  0  0  0
 62151  1  0  0  0
 63 65  1  0  0  0
 63152  1  0  0  0
 63153  1  0  0  0
 63154  1  0  0  0
 64155  1  0  0  0
 65156  1  0  0  0
 68 83  1  0  0  0
 71 72  2  0  0  0
 71 73  1  0  0  0
 71157  1  0  0  0
 72 86  1  0  0  0
 72 89  1  0  0  0
 73 90  2  0  0  0
 73 92  1  0  0  0
 74 80  1  0  0  0
 74 89  2  0  0  0
 74 90  1  0  0  0
 75158  1  0  0  0
 75159  1  0  0  0
 75160  1  0  0  0
 75 84  1  0  0  0
 76161  1  0  0  0
 76162  1  0  0  0
 76163  1  0  0  0
 76 87  1  0  0  0
 77 87  1  0  0  0
 77164  1  0  0  0
 77165  1  0  0  0
 77166  1  0  0  0
 78 87  1  0  0  0
 78167  1  0  0  0
 78168  1  0  0  0
 78169  1  0  0  0
 79 92  1  0  0  0
 79170  1  0  0  0
 79171  1  0  0  0
 79172  1  0  0  0
 80 81  1  0  0  0
 80173  1  0  0  0
 80174  1  0  0  0
 81 84  1  0  0  0
 81175  1  0  0  0
 81176  1  0  0  0
 82 92  1  0  0  0
 82177  1  0  0  0
 82178  1  0  0  0
 82 85  1  0  0  0
 83 84  1  0  0  0
 83179  1  0  0  0
 83180  1  0  0  0
 84181  1  0  0  0
 85 87  1  0  0  0
 85 91  1  0  0  0
 85182  1  0  0  0
 86 88  1  0  0  0
 86 93  1  0  0  0
 86 94  1  0  0  0
 88 95  1  0  0  0
 88 96  1  0  0  0
 88 97  1  0  0  0
 91183  1  0  0  0
M  ISO  4   1 100  68 101  83 101  91 100
M  END
> <chiral flag>
0

> <version>
0

> <s_m_source_file>
/data/baiqing/PycharmProjects/Reinvent-master-3.2/result/LINK_invent/BTK/process_docking_weight1_custom_sum_contain_oxygen_bond_distance_aromatic_linkinvent_7_9_3/rearranged_h_0067.sdf

> <i_m_source_file_index>
45

> <r_mmod_Potential_Energy-OPLS-2005>
-423.076538085938

> <r_mmod_Stretch_Energy-OPLS-2005>
39.9369735717773

> <r_mmod_Bend_Energy-OPLS-2005>
128.112854003906

> <r_mmod_Torsional_Energy-OPLS-2005>
262.334808349609

> <r_mmod_Improper_Torsional_Energy-OPLS-2005>
11.8686780929565

> <r_mmod_Van_der_Waal_Energy-OPLS-2005>
162.230438232422

> <r_mmod_Electrostatic_Energy-OPLS-2005>
-833.330993652344

> <r_mmod_Solvation_Energy-OPLS-2005>
-213.263244628906

> <b_mmod_Minimization_Converged-OPLS-2005>
0

> <r_mmod_RMS_Derivative-OPLS-2005>
3.86441540718079

$$$$
46
                    3D
 Structure written by MMmdl.
172180  0  0  1  0            999 V2000
  -30.6693  -14.5478   20.5146 C   0  0  0  0  0  0
  -30.4234  -12.3386   19.4457 C   0  0  0  0  0  0
  -29.4997  -12.5022   18.2194 C   0  0  0  0  0  0
  -28.0219  -12.3526   18.6299 C   0  0  0  0  0  0
  -27.6551  -13.2128   19.8690 C   0  0  2  0  0  0
  -28.6968  -13.0447   20.9990 C   0  0  0  0  0  0
  -25.2569  -13.8168   20.5699 C   0  0  0  0  0  0
  -24.1823  -13.0441   20.9189 C   0  0  0  0  0  0
  -24.6385  -11.6908   20.8736 C   0  0  0  0  0  0
  -23.9058  -10.4291   21.0402 C   0  0  0  0  0  0
  -24.3612   -9.4208   21.9181 C   0  0  0  0  0  0
  -23.6293   -8.2242   22.0751 C   0  0  0  0  0  0
  -22.4276   -8.0276   21.3542 C   0  0  0  0  0  0
  -21.9908   -9.0248   20.4647 C   0  0  0  0  0  0
  -22.7233  -10.2128   20.3053 C   0  0  0  0  0  0
  -21.6852   -6.0736   22.5280 C   0  0  0  0  0  0
  -21.4011   -6.5640   23.8212 C   0  0  0  0  0  0
  -21.3658   -5.6791   24.9174 C   0  0  0  0  0  0
  -21.6047   -4.3056   24.7228 C   0  0  0  0  0  0
  -21.8818   -3.8146   23.4348 C   0  0  0  0  0  0
  -21.9198   -4.6964   22.3403 C   0  0  0  0  0  0
  -22.7847  -13.5241   21.1853 C   0  0  0  0  0  0
  -22.1664   -4.2147   21.0980 F   0  0  0  0  0  0
  -21.5632   -3.4541   25.7744 F   0  0  0  0  0  0
  -30.0217  -13.3493   20.4408 N   0  0  0  0  0  0
  -26.2992  -12.9344   20.3346 N   0  0  0  0  0  0
  -25.9312  -11.6500   20.5764 N   0  0  0  0  0  0
  -22.0490  -12.8227   22.0406 N   0  0  0  0  0  0
  -25.4304  -15.1887   20.4112 N   0  0  0  0  0  0
  -31.8210  -14.6957   20.0944 O   0  0  0  0  0  0
  -21.6643   -6.8876   21.4240 O   0  0  0  0  0  0
  -22.3538  -14.5557   20.6717 O   0  0  0  0  0  0
  -24.6197  -31.8635   23.2060 C   0  0  0  0  0  0
  -25.9074  -32.4794   23.8368 C   0  0  1  0  0  0
  -27.2346  -27.3817   20.0992 C   0  0  0  0  0  0
  -25.5911  -33.8594   24.2303 N   0  0  0  0  0  0
  -23.4092  -30.4869   21.5474 C   0  0  2  0  0  0
  -24.8545  -28.9444   20.1130 C   0  0  0  0  0  0
  -22.7424  -29.4649   22.4972 C   0  0  0  0  0  0
  -18.0276  -28.1382   22.8507 C   0  0  0  0  0  0
  -24.1484  -36.7298   23.2642 C   0  0  0  0  0  0
  -25.9421  -30.8138   21.3648 C   0  0  0  0  0  0
  -26.0169  -29.4438   20.7111 C   0  0  0  0  0  0
  -27.2052  -28.6697   20.7005 C   0  0  0  0  0  0
  -26.0437  -26.9038   19.5050 C   0  0  0  0  0  0
  -24.8655  -27.6764   19.5075 C   0  0  0  0  0  0
  -23.6194  -29.8176   20.1626 C   0  0  0  0  0  0
  -25.4111  -36.3094   24.0337 C   0  0  1  0  0  0
  -20.5867  -28.3681   23.1313 C   0  0  2  0  0  0
  -20.6768  -26.9411   22.5423 C   0  0  0  0  0  0
  -19.5744  -26.6395   21.5223 C   0  0  0  0  0  0
  -18.1922  -26.7936   22.1626 C   0  0  0  0  0  0
  -19.1524  -28.8850   23.2911 C   0  0  0  0  0  0
  -18.9445  -30.1452   23.8930 C   0  0  0  0  0  0
  -17.6443  -30.6588   24.0578 C   0  0  0  0  0  0
  -25.9045  -34.9459   23.5120 C   0  0  0  0  0  0
  -16.5338  -29.9093   23.6323 C   0  0  0  0  0  0
  -16.7262  -28.6502   23.0363 C   0  0  0  0  0  0
  -26.4480  -31.6586   25.0716 C   0  0  0  0  0  0
  -25.3735  -31.3715   26.1463 C   0  0  0  0  0  0
  -27.0284  -30.3010   24.6121 C   0  0  0  0  0  0
  -27.6072  -32.4287   25.7470 C   0  0  0  0  0  0
  -27.5572  -37.1814   24.8472 C   0  0  0  0  0  0
  -21.4147  -29.3043   22.3714 N   0  0  0  0  0  0
  -26.4297  -37.3780   23.9397 N   0  0  0  0  0  0
  -24.6757  -31.0701   22.0978 N   0  0  0  0  0  0
  -23.4177  -28.8195   23.3034 O   0  0  0  0  0  0
  -28.4106  -26.6395   20.1361 O   0  0  0  0  0  0
  -26.5607  -34.8914   22.4681 O   0  0  0  0  0  0
  -23.5379  -32.1407   23.7429 O   0  0  0  0  0  0
  -29.4723  -18.1304   20.9438 C   0  0  0  0  0  0
  -30.1898  -17.0115   20.5715 C   0  0  0  0  0  0
  -31.1829  -18.7953   19.6589 C   0  0  0  0  0  0
  -33.1943  -20.3255   19.8037 C   0  0  0  0  0  0
  -31.6364  -20.4733   17.7990 C   0  0  0  0  0  0
  -33.1426  -18.5414   18.0852 C   0  0  0  0  0  0
  -28.0213  -20.4050   18.7335 C   0  0  0  0  0  0
  -27.2996  -21.2679   20.9402 C   0  0  0  0  0  0
  -28.3514  -24.0477   20.2224 C   0  0  0  0  0  0
  -28.6536  -22.7678   19.3604 C   0  0  0  0  0  0
  -29.7550  -20.6887   20.6038 C   0  0  0  0  0  0
  -28.5576  -25.3828   19.4207 C   0  0  0  0  0  0
  -32.2524  -19.5427   18.8639 C   0  0  0  0  0  0
  -28.4580  -21.2917   19.9234 C   0  0  0  0  0  0
  -30.1114  -19.2339   20.3810 N   0  0  0  0  0  0
  -31.2227  -17.4605   19.8041 N   0  3  0  0  0  0
  -29.9271  -15.6232   20.8907 N   0  0  0  0  0  0
  -31.4686  -12.4383   19.1469 H   0  0  0  0  0  0
  -30.3298  -11.3364   19.8673 H   0  0  0  0  0  0
  -29.7520  -11.7653   17.4560 H   0  0  0  0  0  0
  -29.6571  -13.4804   17.7620 H   0  0  0  0  0  0
  -27.8464  -11.2984   18.8472 H   0  0  0  0  0  0
  -27.3697  -12.6019   17.7917 H   0  0  0  0  0  0
  -27.6832  -14.2525   19.5425 H   0  0  0  0  0  0
  -28.6837  -12.0238   21.3835 H   0  0  0  0  0  0
  -28.4567  -13.6850   21.8490 H   0  0  0  0  0  0
  -25.2753   -9.5696   22.4758 H   0  0  0  0  0  0
  -24.0010   -7.4637   22.7465 H   0  0  0  0  0  0
  -21.0844   -8.8761   19.8948 H   0  0  0  0  0  0
  -22.3689  -10.9666   19.6163 H   0  0  0  0  0  0
  -21.1992   -7.6146   23.9719 H   0  0  0  0  0  0
  -21.1481   -6.0520   25.9079 H   0  0  0  0  0  0
  -22.0600   -2.7608   23.2852 H   0  0  0  0  0  0
  -22.4100  -11.9879   22.4780 H   0  0  0  0  0  0
  -21.1107  -13.1242   22.2609 H   0  0  0  0  0  0
  -24.6633  -15.8445   20.5160 H   0  0  0  0  0  0
  -26.2790  -15.6250   20.0747 H   0  0  0  0  0  0
  -26.7148  -32.5481   23.1126 H   0  0  0  0  0  0
  -25.0061  -33.9741   25.0453 H   0  0  0  0  0  0
  -22.7011  -31.3057   21.4054 H   0  0  0  0  0  0
  -23.3750  -35.9623   23.3299 H   0  0  0  0  0  0
  -24.3583  -36.8921   22.2055 H   0  0  0  0  0  0
  -23.7225  -37.6497   23.6666 H   0  0  0  0  0  0
  -26.0601  -31.5785   20.5957 H   0  0  0  0  0  0
  -26.8283  -30.8672   21.9852 H   0  0  0  0  0  0
  -28.1023  -29.0538   21.1661 H   0  0  0  0  0  0
  -25.9928  -25.9253   19.0518 H   0  0  0  0  0  0
  -23.9686  -27.2819   19.0501 H   0  0  0  0  0  0
  -23.7308  -30.5921   19.4026 H   0  0  0  0  0  0
  -22.7420  -29.2402   19.8653 H   0  0  0  0  0  0
  -25.1296  -36.1954   25.0835 H   0  0  0  0  0  0
  -20.9965  -28.3251   24.1428 H   0  0  0  0  0  0
  -20.5677  -26.2288   23.3617 H   0  0  0  0  0  0
  -21.6637  -26.7459   22.1199 H   0  0  0  0  0  0
  -19.6900  -25.6310   21.1243 H   0  0  0  0  0  0
  -19.6681  -27.3222   20.6771 H   0  0  0  0  0  0
  -17.4191  -26.6704   21.4019 H   0  0  0  0  0  0
  -18.0305  -26.0067   22.9008 H   0  0  0  0  0  0
  -19.7919  -30.7264   24.2317 H   0  0  0  0  0  0
  -17.4995  -31.6274   24.5171 H   0  0  0  0  0  0
  -15.5342  -30.3005   23.7636 H   0  0  0  0  0  0
  -15.8658  -28.0829   22.7077 H   0  0  0  0  0  0
  -24.5876  -30.7112   25.7783 H   0  0  0  0  0  0
  -24.8981  -32.2884   26.4957 H   0  0  0  0  0  0
  -25.8069  -30.8820   27.0194 H   0  0  0  0  0  0
  -26.2810  -29.6778   24.1194 H   0  0  0  0  0  0
  -27.4041  -29.7253   25.4592 H   0  0  0  0  0  0
  -27.8667  -30.4297   23.9268 H   0  0  0  0  0  0
  -27.2736  -33.3623   26.2007 H   0  0  0  0  0  0
  -28.3906  -32.6768   25.0297 H   0  0  0  0  0  0
  -28.0699  -31.8414   26.5410 H   0  0  0  0  0  0
  -28.2627  -38.0074   24.7469 H   0  0  0  0  0  0
  -28.1027  -36.2605   24.6361 H   0  0  0  0  0  0
  -27.2279  -37.1536   25.8875 H   0  0  0  0  0  0
  -20.9311  -29.8756   21.6927 H   0  0  0  0  0  0
  -26.0181  -38.2860   24.1376 H   0  0  0  0  0  0
  -28.5932  -18.2344   21.5634 H   0  0  0  0  0  0
  -32.6990  -21.1101   20.3694 H   0  0  0  0  0  0
  -33.9945  -20.8087   19.2417 H   0  0  0  0  0  0
  -33.6673  -19.6607   20.5280 H   0  0  0  0  0  0
  -31.0506  -21.2832   18.2185 H   0  0  0  0  0  0
  -30.9913  -19.9194   17.1164 H   0  0  0  0  0  0
  -32.4118  -20.9427   17.1930 H   0  0  0  0  0  0
  -33.6800  -17.8631   18.7502 H   0  0  0  0  0  0
  -33.8999  -19.0608   17.4960 H   0  0  0  0  0  0
  -32.5595  -17.9380   17.3872 H   0  0  0  0  0  0
  -27.1194  -20.7909   18.2563 H   0  0  0  0  0  0
  -27.7871  -19.3849   19.0385 H   0  0  0  0  0  0
  -28.7891  -20.3530   17.9634 H   0  0  0  0  0  0
  -26.3790  -21.6625   20.5086 H   0  0  0  0  0  0
  -27.5266  -21.8630   21.8251 H   0  0  0  0  0  0
  -27.0871  -20.2548   21.2826 H   0  0  0  0  0  0
  -28.9902  -24.0499   21.1057 H   0  0  0  0  0  0
  -27.3237  -24.0187   20.5844 H   0  0  0  0  0  0
  -29.6615  -22.8667   18.9602 H   0  0  0  0  0  0
  -28.0157  -22.8743   18.4817 H   0  0  0  0  0  0
  -29.7007  -20.8250   21.6845 H   0  0  0  0  0  0
  -30.6073  -21.2938   20.3248 H   0  0  0  0  0  0
  -27.9735  -25.3735   18.5010 H   0  0  0  0  0  0
  -29.5895  -25.3838   19.0678 H   0  0  0  0  0  0
  -31.9406  -16.8667   19.4048 H   0  0  0  0  0  0
  -29.0312  -15.4126   21.3018 H   0  0  0  0  0  0
  1 25  1  0  0  0
  1 30  2  0  0  0
  1 87  1  0  0  0
  2  3  1  0  0  0
  2 25  1  0  0  0
  2 88  1  0  0  0
  2 89  1  0  0  0
  3  4  1  0  0  0
  3 90  1  0  0  0
  3 91  1  0  0  0
  4  5  1  0  0  0
  4 92  1  0  0  0
  4 93  1  0  0  0
  5  6  1  0  0  0
  5 26  1  0  0  0
  5 94  1  0  0  0
  6 25  1  0  0  0
  6 95  1  0  0  0
  6 96  1  0  0  0
  7  8  2  0  0  0
  7 26  1  0  0  0
  7 29  1  0  0  0
  8  9  1  0  0  0
  8 22  1  0  0  0
  9 10  1  0  0  0
  9 27  2  0  0  0
 10 11  2  0  0  0
 10 15  1  0  0  0
 11 12  1  0  0  0
 11 97  1  0  0  0
 12 13  2  0  0  0
 12 98  1  0  0  0
 13 14  1  0  0  0
 13 31  1  0  0  0
 14 15  2  0  0  0
 14 99  1  0  0  0
 15100  1  0  0  0
 16 17  2  0  0  0
 16 21  1  0  0  0
 16 31  1  0  0  0
 17 18  1  0  0  0
 17101  1  0  0  0
 18 19  2  0  0  0
 18102  1  0  0  0
 19 20  1  0  0  0
 19 24  1  0  0  0
 20 21  2  0  0  0
 20103  1  0  0  0
 21 23  1  0  0  0
 22 28  1  0  0  0
 22 32  2  0  0  0
 26 27  1  0  0  0
 28104  1  0  0  0
 28105  1  0  0  0
 29106  1  0  0  0
 29107  1  0  0  0
 33 34  1  0  0  0
 33 66  1  0  0  0
 33 70  2  0  0  0
 34 36  1  0  0  0
 34 59  1  0  0  0
 34108  1  0  0  0
 35 44  2  0  0  0
 35 45  1  0  0  0
 35 68  1  0  0  0
 36 56  1  0  0  0
 36109  1  0  0  0
 37 39  1  0  0  0
 37 47  1  0  0  0
 37 66  1  0  0  0
 37110  1  0  0  0
 38 43  2  0  0  0
 38 46  1  0  0  0
 38 47  1  0  0  0
 39 64  1  0  0  0
 39 67  2  0  0  0
 40 52  1  0  0  0
 40 53  2  0  0  0
 40 58  1  0  0  0
 41111  1  0  0  0
 41112  1  0  0  0
 41113  1  0  0  0
 41 48  1  0  0  0
 42 43  1  0  0  0
 42 66  1  0  0  0
 42114  1  0  0  0
 42115  1  0  0  0
 43 44  1  0  0  0
 44116  1  0  0  0
 45 46  2  0  0  0
 45117  1  0  0  0
 46118  1  0  0  0
 47119  1  0  0  0
 47120  1  0  0  0
 48 56  1  0  0  0
 48 65  1  0  0  0
 48121  1  0  0  0
 49 50  1  0  0  0
 49 53  1  0  0  0
 49 64  1  0  0  0
 49122  1  0  0  0
 50 51  1  0  0  0
 50123  1  0  0  0
 50124  1  0  0  0
 51 52  1  0  0  0
 51125  1  0  0  0
 51126  1  0  0  0
 52127  1  0  0  0
 52128  1  0  0  0
 53 54  1  0  0  0
 54 55  2  0  0  0
 54129  1  0  0  0
 55 57  1  0  0  0
 55130  1  0  0  0
 56 69  2  0  0  0
 57 58  2  0  0  0
 57131  1  0  0  0
 58132  1  0  0  0
 59 60  1  0  0  0
 59 61  1  0  0  0
 59 62  1  0  0  0
 60133  1  0  0  0
 60134  1  0  0  0
 60135  1  0  0  0
 61136  1  0  0  0
 61137  1  0  0  0
 61138  1  0  0  0
 62139  1  0  0  0
 62140  1  0  0  0
 62141  1  0  0  0
 63 65  1  0  0  0
 63142  1  0  0  0
 63143  1  0  0  0
 63144  1  0  0  0
 64145  1  0  0  0
 65146  1  0  0  0
 68 82  1  0  0  0
 71 72  2  0  0  0
 71 85  1  0  0  0
 71147  1  0  0  0
 72 86  1  0  0  0
 72 87  1  0  0  0
 73 83  1  0  0  0
 73 85  1  0  0  0
 73 86  2  0  0  0
 74148  1  0  0  0
 74149  1  0  0  0
 74150  1  0  0  0
 74 83  1  0  0  0
 75 83  1  0  0  0
 75151  1  0  0  0
 75152  1  0  0  0
 75153  1  0  0  0
 76 83  1  0  0  0
 76154  1  0  0  0
 76155  1  0  0  0
 76156  1  0  0  0
 77157  1  0  0  0
 77158  1  0  0  0
 77159  1  0  0  0
 77 84  1  0  0  0
 78 84  1  0  0  0
 78160  1  0  0  0
 78161  1  0  0  0
 78162  1  0  0  0
 79 80  1  0  0  0
 79 82  1  0  0  0
 79163  1  0  0  0
 79164  1  0  0  0
 80 84  1  0  0  0
 80165  1  0  0  0
 80166  1  0  0  0
 81 84  1  0  0  0
 81 85  1  0  0  0
 81167  1  0  0  0
 81168  1  0  0  0
 82169  1  0  0  0
 82170  1  0  0  0
 86171  1  0  0  0
 87172  1  0  0  0
M  CHG  1  86   1
M  ISO  4   1 100  68 101  82 101  87 100
M  END
> <chiral flag>
0

> <version>
0

> <s_m_source_file>
/data/baiqing/PycharmProjects/Reinvent-master-3.2/result/LINK_invent/BTK/process_docking_weight1_custom_sum_contain_oxygen_bond_distance_aromatic_linkinvent_7_9_3/rearranged_h_0067.sdf

> <i_m_source_file_index>
46

> <r_mmod_Potential_Energy-OPLS-2005>
-31.8711338043213

> <r_mmod_Stretch_Energy-OPLS-2005>
62.0370254516602

> <r_mmod_Bend_Energy-OPLS-2005>
156.258392333984

> <r_mmod_Torsional_Energy-OPLS-2005>
242.258758544922

> <r_mmod_Improper_Torsional_Energy-OPLS-2005>
4.96106338500977

> <r_mmod_Van_der_Waal_Energy-OPLS-2005>
136.972412109375

> <r_mmod_Electrostatic_Energy-OPLS-2005>
-275.019073486328

> <r_mmod_Solvation_Energy-OPLS-2005>
-383.353302001953

> <b_mmod_Minimization_Converged-OPLS-2005>
0

> <r_mmod_RMS_Derivative-OPLS-2005>
0.958006858825684

$$$$
47
                    3D
 Structure written by MMmdl.
170178  0  0  1  0            999 V2000
  -30.5417  -15.2438   20.3329 C   0  0  0  0  0  0
  -30.4057  -12.7845   19.5379 C   0  0  0  0  0  0
  -29.5210  -12.5637   18.2910 C   0  0  0  0  0  0
  -28.0735  -12.2962   18.7186 C   0  0  0  0  0  0
  -27.6012  -13.2882   19.8087 C   0  0  2  0  0  0
  -28.6296  -13.5131   20.9374 C   0  0  0  0  0  0
  -25.2408  -13.8303   20.5814 C   0  0  0  0  0  0
  -24.1766  -13.0474   20.9316 C   0  0  0  0  0  0
  -24.6414  -11.6976   20.8788 C   0  0  0  0  0  0
  -23.9117  -10.4320   21.0428 C   0  0  0  0  0  0
  -24.3647   -9.4227   21.9208 C   0  0  0  0  0  0
  -23.6314   -8.2264   22.0775 C   0  0  0  0  0  0
  -22.4301   -8.0305   21.3563 C   0  0  0  0  0  0
  -21.9951   -9.0282   20.4658 C   0  0  0  0  0  0
  -22.7290  -10.2157   20.3077 C   0  0  0  0  0  0
  -21.6862   -6.0749   22.5283 C   0  0  0  0  0  0
  -21.4019   -6.5657   23.8216 C   0  0  0  0  0  0
  -21.3651   -5.6811   24.9180 C   0  0  0  0  0  0
  -21.6041   -4.3075   24.7231 C   0  0  0  0  0  0
  -21.8820   -3.8166   23.4353 C   0  0  0  0  0  0
  -21.9199   -4.6978   22.3405 C   0  0  0  0  0  0
  -22.7788  -13.5234   21.1895 C   0  0  0  0  0  0
  -22.1669   -4.2163   21.0983 F   0  0  0  0  0  0
  -21.5608   -3.4560   25.7739 F   0  0  0  0  0  0
  -29.8741  -13.9814   20.3089 N   0  0  0  0  0  0
  -26.2785  -12.9581   20.3181 N   0  0  0  0  0  0
  -25.9338  -11.6680   20.5715 N   0  0  0  0  0  0
  -22.0407  -12.8203   22.0402 N   0  0  0  0  0  0
  -25.4076  -15.2030   20.4278 N   0  0  0  0  0  0
  -31.7540  -15.0205   20.1917 O   0  0  0  0  0  0
  -21.6667   -6.8897   21.4248 O   0  0  0  0  0  0
  -22.3502  -14.5538   20.6716 O   0  0  0  0  0  0
  -24.6583  -31.8236   23.1707 C   0  0  0  0  0  0
  -25.9285  -32.4574   23.8144 C   0  0  1  0  0  0
  -27.2079  -26.9557   20.1793 C   0  0  0  0  0  0
  -25.5970  -33.8393   24.2053 N   0  0  0  0  0  0
  -23.4699  -30.4345   21.5183 C   0  0  2  0  0  0
  -24.9199  -28.8261   20.1004 C   0  0  0  0  0  0
  -22.7640  -29.4423   22.4775 C   0  0  0  0  0  0
  -18.0310  -28.1422   22.8466 C   0  0  0  0  0  0
  -24.1494  -36.7229   23.2638 C   0  0  0  0  0  0
  -26.0325  -30.6383   21.3945 C   0  0  0  0  0  0
  -26.0978  -29.2305   20.7412 C   0  0  0  0  0  0
  -27.2329  -28.3120   20.7618 C   0  0  0  0  0  0
  -26.0119  -26.6943   19.4784 C   0  0  0  0  0  0
  -24.9013  -27.5797   19.4483 C   0  0  0  0  0  0
  -23.7060  -29.7517   20.1413 C   0  0  0  0  0  0
  -25.4127  -36.2943   24.0274 C   0  0  1  0  0  0
  -20.5933  -28.3752   23.1208 C   0  0  2  0  0  0
  -20.6789  -26.9437   22.5416 C   0  0  0  0  0  0
  -19.5767  -26.6383   21.5222 C   0  0  0  0  0  0
  -18.1942  -26.7957   22.1620 C   0  0  0  0  0  0
  -19.1570  -28.8911   23.2823 C   0  0  0  0  0  0
  -18.9484  -30.1504   23.8855 C   0  0  0  0  0  0
  -17.6478  -30.6610   24.0569 C   0  0  0  0  0  0
  -25.9090  -34.9327   23.4978 C   0  0  0  0  0  0
  -16.5372  -29.9105   23.6351 C   0  0  0  0  0  0
  -16.7296  -28.6534   23.0359 C   0  0  0  0  0  0
  -26.4553  -31.6527   25.0682 C   0  0  0  0  0  0
  -25.3705  -31.3787   26.1362 C   0  0  0  0  0  0
  -27.0435  -30.2883   24.6404 C   0  0  0  0  0  0
  -27.6005  -32.4371   25.7523 C   0  0  0  0  0  0
  -27.5561  -37.1763   24.8453 C   0  0  0  0  0  0
  -21.4309  -29.3043   22.3559 N   0  0  0  0  0  0
  -26.4267  -37.3683   23.9397 N   0  0  0  0  0  0
  -24.7409  -30.9931   22.0818 N   0  0  0  0  0  0
  -23.4208  -28.7974   23.2980 O   0  0  0  0  0  0
  -28.2256  -25.8914   20.3295 O   0  0  0  0  0  0
  -26.5714  -34.8875   22.4586 O   0  0  0  0  0  0
  -23.5670  -32.1196   23.6852 O   0  0  0  0  0  0
  -27.0642  -17.9952   21.9446 C   0  0  0  0  0  0
  -27.2923  -19.3145   21.6896 C   0  0  0  0  0  0
  -28.9314  -18.0402   20.7478 C   0  0  0  0  0  0
  -26.3740  -20.3128   22.3070 C   0  0  0  0  0  0
  -31.3665  -17.6124   21.0312 C   0  0  0  0  0  0
  -30.3799  -17.3308   18.7439 C   0  0  0  0  0  0
  -26.5649  -22.6533   20.5037 C   0  0  0  0  0  0
  -28.6077  -23.0102   22.0394 C   0  0  0  0  0  0
  -30.3167  -21.2052   20.3147 C   0  0  0  0  0  0
  -28.4853  -20.9164   18.6975 C   0  0  0  0  0  0
  -28.3355  -24.3258   19.8545 C   0  0  0  0  0  0
  -30.1778  -16.9995   20.2375 C   0  0  0  0  0  0
  -28.1143  -22.7112   20.6062 C   0  0  0  0  0  0
  -28.7881  -21.0392   20.2005 C   0  0  0  0  0  0
  -28.4233  -19.4627   20.8459 N   0  0  0  0  0  0
  -28.0543  -17.2848   21.3998 N   0  3  0  0  0  0
  -31.4366  -12.9051   19.2026 H   0  0  0  0  0  0
  -30.4199  -11.8910   20.1639 H   0  0  0  0  0  0
  -29.8966  -11.7300   17.6962 H   0  0  0  0  0  0
  -29.5612  -13.4448   17.6497 H   0  0  0  0  0  0
  -28.0380  -11.2795   19.1112 H   0  0  0  0  0  0
  -27.4052  -12.3215   17.8580 H   0  0  0  0  0  0
  -27.5028  -14.2406   19.2867 H   0  0  0  0  0  0
  -28.7886  -12.6052   21.5204 H   0  0  0  0  0  0
  -28.2693  -14.2691   21.6354 H   0  0  0  0  0  0
  -25.2762   -9.5709   22.4831 H   0  0  0  0  0  0
  -24.0014   -7.4662   22.7520 H   0  0  0  0  0  0
  -21.0880   -8.8807   19.8961 H   0  0  0  0  0  0
  -22.3737  -10.9711   19.6214 H   0  0  0  0  0  0
  -21.2016   -7.6172   23.9716 H   0  0  0  0  0  0
  -21.1463   -6.0547   25.9074 H   0  0  0  0  0  0
  -22.0600   -2.7633   23.2856 H   0  0  0  0  0  0
  -22.4015  -11.9868   22.4786 H   0  0  0  0  0  0
  -21.1006  -13.1224   22.2540 H   0  0  0  0  0  0
  -24.5747  -15.7820   20.4480 H   0  0  0  0  0  0
  -26.1077  -15.5671   19.7957 H   0  0  0  0  0  0
  -26.7350  -32.5098   23.0847 H   0  0  0  0  0  0
  -25.0038  -33.9468   25.0149 H   0  0  0  0  0  0
  -22.7814  -31.2648   21.3516 H   0  0  0  0  0  0
  -23.3733  -35.9580   23.3262 H   0  0  0  0  0  0
  -24.3553  -36.8955   22.2060 H   0  0  0  0  0  0
  -23.7287  -37.6413   23.6753 H   0  0  0  0  0  0
  -26.2062  -31.3781   20.6127 H   0  0  0  0  0  0
  -26.8955  -30.6941   22.0456 H   0  0  0  0  0  0
  -28.1208  -28.6100   21.3034 H   0  0  0  0  0  0
  -25.8985  -25.7363   18.9909 H   0  0  0  0  0  0
  -24.0065  -27.2690   18.9253 H   0  0  0  0  0  0
  -23.8593  -30.5233   19.3847 H   0  0  0  0  0  0
  -22.8152  -29.2069   19.8239 H   0  0  0  0  0  0
  -25.1321  -36.1707   25.0758 H   0  0  0  0  0  0
  -21.0017  -28.3367   24.1334 H   0  0  0  0  0  0
  -20.5709  -26.2351   23.3639 H   0  0  0  0  0  0
  -21.6641  -26.7440   22.1193 H   0  0  0  0  0  0
  -19.6929  -25.6284   21.1281 H   0  0  0  0  0  0
  -19.6730  -27.3171   20.6730 H   0  0  0  0  0  0
  -17.4217  -26.6719   21.4024 H   0  0  0  0  0  0
  -18.0328  -26.0120   22.9032 H   0  0  0  0  0  0
  -19.7963  -30.7325   24.2215 H   0  0  0  0  0  0
  -17.5035  -31.6281   24.5179 H   0  0  0  0  0  0
  -15.5377  -30.2992   23.7697 H   0  0  0  0  0  0
  -15.8694  -28.0842   22.7089 H   0  0  0  0  0  0
  -24.5878  -30.7146   25.7686 H   0  0  0  0  0  0
  -24.8916  -32.3008   26.4664 H   0  0  0  0  0  0
  -25.7949  -30.9039   27.0219 H   0  0  0  0  0  0
  -26.3077  -29.6572   24.1409 H   0  0  0  0  0  0
  -27.3962  -29.7224   25.5033 H   0  0  0  0  0  0
  -27.9024  -30.4039   23.9792 H   0  0  0  0  0  0
  -27.2493  -33.3687   26.1966 H   0  0  0  0  0  0
  -28.3890  -32.6928   25.0441 H   0  0  0  0  0  0
  -28.0588  -31.8622   26.5580 H   0  0  0  0  0  0
  -28.2509  -38.0116   24.7470 H   0  0  0  0  0  0
  -28.1124  -36.2623   24.6294 H   0  0  0  0  0  0
  -27.2281  -37.1415   25.8861 H   0  0  0  0  0  0
  -20.9548  -29.8780   21.6740 H   0  0  0  0  0  0
  -26.0104  -38.2736   24.1430 H   0  0  0  0  0  0
  -26.2819  -17.5168   22.5204 H   0  0  0  0  0  0
  -25.9730  -19.9103   23.2369 H   0  0  0  0  0  0
  -25.5066  -20.4918   21.6758 H   0  0  0  0  0  0
  -26.8646  -21.2223   22.5987 H   0  0  0  0  0  0
  -31.4126  -18.6942   20.9447 H   0  0  0  0  0  0
  -32.3482  -17.2581   20.7190 H   0  0  0  0  0  0
  -31.2658  -17.3906   22.0944 H   0  0  0  0  0  0
  -30.6147  -18.3831   18.5910 H   0  0  0  0  0  0
  -29.4775  -17.1108   18.1729 H   0  0  0  0  0  0
  -31.1946  -16.7622   18.2926 H   0  0  0  0  0  0
  -26.1474  -23.3676   19.7956 H   0  0  0  0  0  0
  -26.0586  -22.8785   21.4428 H   0  0  0  0  0  0
  -26.2180  -21.7017   20.1120 H   0  0  0  0  0  0
  -27.9740  -23.7361   22.5502 H   0  0  0  0  0  0
  -29.6060  -23.4464   22.0050 H   0  0  0  0  0  0
  -28.7038  -22.1233   22.6627 H   0  0  0  0  0  0
  -30.6345  -22.1831   19.9539 H   0  0  0  0  0  0
  -30.8588  -20.4727   19.7180 H   0  0  0  0  0  0
  -30.6553  -21.1135   21.3476 H   0  0  0  0  0  0
  -28.7885  -21.8214   18.1699 H   0  0  0  0  0  0
  -27.4234  -20.7684   18.5087 H   0  0  0  0  0  0
  -29.0110  -20.0788   18.2422 H   0  0  0  0  0  0
  -27.8483  -24.3039   18.8790 H   0  0  0  0  0  0
  -29.3870  -24.2965   19.5715 H   0  0  0  0  0  0
  -28.1358  -16.2855   21.5203 H   0  0  0  0  0  0
  1 25  1  0  0  0
  1 30  2  0  0  0
  1 82  1  0  0  0
  2  3  1  0  0  0
  2 25  1  0  0  0
  2 87  1  0  0  0
  2 88  1  0  0  0
  3  4  1  0  0  0
  3 89  1  0  0  0
  3 90  1  0  0  0
  4  5  1  0  0  0
  4 91  1  0  0  0
  4 92  1  0  0  0
  5  6  1  0  0  0
  5 26  1  0  0  0
  5 93  1  0  0  0
  6 25  1  0  0  0
  6 94  1  0  0  0
  6 95  1  0  0  0
  7  8  2  0  0  0
  7 26  1  0  0  0
  7 29  1  0  0  0
  8  9  1  0  0  0
  8 22  1  0  0  0
  9 10  1  0  0  0
  9 27  2  0  0  0
 10 11  2  0  0  0
 10 15  1  0  0  0
 11 12  1  0  0  0
 11 96  1  0  0  0
 12 13  2  0  0  0
 12 97  1  0  0  0
 13 14  1  0  0  0
 13 31  1  0  0  0
 14 15  2  0  0  0
 14 98  1  0  0  0
 15 99  1  0  0  0
 16 17  2  0  0  0
 16 21  1  0  0  0
 16 31  1  0  0  0
 17 18  1  0  0  0
 17100  1  0  0  0
 18 19  2  0  0  0
 18101  1  0  0  0
 19 20  1  0  0  0
 19 24  1  0  0  0
 20 21  2  0  0  0
 20102  1  0  0  0
 21 23  1  0  0  0
 22 28  1  0  0  0
 22 32  2  0  0  0
 26 27  1  0  0  0
 28103  1  0  0  0
 28104  1  0  0  0
 29105  1  0  0  0
 29106  1  0  0  0
 33 34  1  0  0  0
 33 66  1  0  0  0
 33 70  2  0  0  0
 34 36  1  0  0  0
 34 59  1  0  0  0
 34107  1  0  0  0
 35 44  2  0  0  0
 35 45  1  0  0  0
 35 68  1  0  0  0
 36 56  1  0  0  0
 36108  1  0  0  0
 37 39  1  0  0  0
 37 47  1  0  0  0
 37 66  1  0  0  0
 37109  1  0  0  0
 38 43  2  0  0  0
 38 46  1  0  0  0
 38 47  1  0  0  0
 39 64  1  0  0  0
 39 67  2  0  0  0
 40 52  1  0  0  0
 40 53  2  0  0  0
 40 58  1  0  0  0
 41110  1  0  0  0
 41111  1  0  0  0
 41112  1  0  0  0
 41 48  1  0  0  0
 42 43  1  0  0  0
 42 66  1  0  0  0
 42113  1  0  0  0
 42114  1  0  0  0
 43 44  1  0  0  0
 44115  1  0  0  0
 45 46  2  0  0  0
 45116  1  0  0  0
 46117  1  0  0  0
 47118  1  0  0  0
 47119  1  0  0  0
 48 56  1  0  0  0
 48 65  1  0  0  0
 48120  1  0  0  0
 49 50  1  0  0  0
 49 53  1  0  0  0
 49 64  1  0  0  0
 49121  1  0  0  0
 50 51  1  0  0  0
 50122  1  0  0  0
 50123  1  0  0  0
 51 52  1  0  0  0
 51124  1  0  0  0
 51125  1  0  0  0
 52126  1  0  0  0
 52127  1  0  0  0
 53 54  1  0  0  0
 54 55  2  0  0  0
 54128  1  0  0  0
 55 57  1  0  0  0
 55129  1  0  0  0
 56 69  2  0  0  0
 57 58  2  0  0  0
 57130  1  0  0  0
 58131  1  0  0  0
 59 60  1  0  0  0
 59 61  1  0  0  0
 59 62  1  0  0  0
 60132  1  0  0  0
 60133  1  0  0  0
 60134  1  0  0  0
 61135  1  0  0  0
 61136  1  0  0  0
 61137  1  0  0  0
 62138  1  0  0  0
 62139  1  0  0  0
 62140  1  0  0  0
 63 65  1  0  0  0
 63141  1  0  0  0
 63142  1  0  0  0
 63143  1  0  0  0
 64144  1  0  0  0
 65145  1  0  0  0
 68 81  1  0  0  0
 71 72  2  0  0  0
 71 86  1  0  0  0
 71146  1  0  0  0
 72 74  1  0  0  0
 72 85  1  0  0  0
 73 82  1  0  0  0
 73 85  1  0  0  0
 73 86  2  0  0  0
 74147  1  0  0  0
 74148  1  0  0  0
 74149  1  0  0  0
 75150  1  0  0  0
 75151  1  0  0  0
 75152  1  0  0  0
 75 82  1  0  0  0
 76 82  1  0  0  0
 76153  1  0  0  0
 76154  1  0  0  0
 76155  1  0  0  0
 77156  1  0  0  0
 77157  1  0  0  0
 77158  1  0  0  0
 77 83  1  0  0  0
 78 83  1  0  0  0
 78159  1  0  0  0
 78160  1  0  0  0
 78161  1  0  0  0
 79162  1  0  0  0
 79163  1  0  0  0
 79164  1  0  0  0
 79 84  1  0  0  0
 80 84  1  0  0  0
 80165  1  0  0  0
 80166  1  0  0  0
 80167  1  0  0  0
 81 83  1  0  0  0
 81168  1  0  0  0
 81169  1  0  0  0
 83 84  1  0  0  0
 84 85  1  0  0  0
 86170  1  0  0  0
M  CHG  1  86   1
M  ISO  4   1 100  68 101  81 101  82 100
M  END
> <chiral flag>
0

> <version>
0

> <s_m_source_file>
/data/baiqing/PycharmProjects/Reinvent-master-3.2/result/LINK_invent/BTK/process_docking_weight1_custom_sum_contain_oxygen_bond_distance_aromatic_linkinvent_7_9_3/rearranged_h_0067.sdf

> <i_m_source_file_index>
47

> <r_mmod_Potential_Energy-OPLS-2005>
1663.31237792969

> <r_mmod_Stretch_Energy-OPLS-2005>
702.259460449219

> <r_mmod_Bend_Energy-OPLS-2005>
663.255310058594

> <r_mmod_Torsional_Energy-OPLS-2005>
286.993133544922

> <r_mmod_Improper_Torsional_Energy-OPLS-2005>
9.54687404632568

> <r_mmod_Van_der_Waal_Energy-OPLS-2005>
128.601486206055

> <r_mmod_Electrostatic_Energy-OPLS-2005>
-159.917755126953

> <r_mmod_Solvation_Energy-OPLS-2005>
-387.49169921875

> <b_mmod_Minimization_Converged-OPLS-2005>
0

> <r_mmod_RMS_Derivative-OPLS-2005>
2.87934851646423

$$$$
48
                    3D
 Structure written by MMmdl.
163171  0  0  1  0            999 V2000
  -30.6460  -14.7434   20.5013 C   0  0  0  0  0  0
  -30.4348  -12.4721   19.4552 C   0  0  0  0  0  0
  -29.5094  -12.5264   18.2194 C   0  0  0  0  0  0
  -28.0299  -12.3656   18.6221 C   0  0  0  0  0  0
  -27.6466  -13.2352   19.8494 C   0  0  2  0  0  0
  -28.6953  -13.1191   20.9734 C   0  0  0  0  0  0
  -25.2556  -13.8189   20.5692 C   0  0  0  0  0  0
  -24.1852  -13.0430   20.9162 C   0  0  0  0  0  0
  -24.6430  -11.6900   20.8687 C   0  0  0  0  0  0
  -23.9092  -10.4285   21.0356 C   0  0  0  0  0  0
  -24.3624   -9.4214   21.9147 C   0  0  0  0  0  0
  -23.6307   -8.2246   22.0728 C   0  0  0  0  0  0
  -22.4287   -8.0266   21.3524 C   0  0  0  0  0  0
  -21.9916   -9.0234   20.4627 C   0  0  0  0  0  0
  -22.7245  -10.2117   20.3034 C   0  0  0  0  0  0
  -21.6875   -6.0721   22.5266 C   0  0  0  0  0  0
  -21.4019   -6.5632   23.8189 C   0  0  0  0  0  0
  -21.3664   -5.6788   24.9151 C   0  0  0  0  0  0
  -21.6048   -4.3050   24.7211 C   0  0  0  0  0  0
  -21.8825   -3.8135   23.4336 C   0  0  0  0  0  0
  -21.9198   -4.6947   22.3388 C   0  0  0  0  0  0
  -22.7868  -13.5191   21.1821 C   0  0  0  0  0  0
  -22.1680   -4.2134   21.0966 F   0  0  0  0  0  0
  -21.5622   -3.4543   25.7727 F   0  0  0  0  0  0
  -29.9929  -13.5236   20.4072 N   0  0  0  0  0  0
  -26.2987  -12.9412   20.3254 N   0  0  0  0  0  0
  -25.9367  -11.6540   20.5683 N   0  0  0  0  0  0
  -22.0530  -12.8202   22.0387 N   0  0  0  0  0  0
  -25.4209  -15.1927   20.4168 N   0  0  0  0  0  0
  -31.8009  -14.8280   20.0684 O   0  0  0  0  0  0
  -21.6656   -6.8861   21.4230 O   0  0  0  0  0  0
  -22.3530  -14.5471   20.6641 O   0  0  0  0  0  0
  -24.6325  -31.8560   23.2001 C   0  0  0  0  0  0
  -25.9141  -32.4760   23.8342 C   0  0  1  0  0  0
  -27.2237  -27.2572   20.1210 C   0  0  0  0  0  0
  -25.5933  -33.8569   24.2260 N   0  0  0  0  0  0
  -23.4289  -30.4789   21.5439 C   0  0  2  0  0  0
  -24.8745  -28.9234   20.1140 C   0  0  0  0  0  0
  -22.7511  -29.4610   22.4930 C   0  0  0  0  0  0
  -18.0293  -28.1390   22.8488 C   0  0  0  0  0  0
  -24.1483  -36.7285   23.2646 C   0  0  0  0  0  0
  -25.9752  -30.7641   21.3813 C   0  0  0  0  0  0
  -26.0475  -29.3856   20.7245 C   0  0  0  0  0  0
  -27.2229  -28.5649   20.7181 C   0  0  0  0  0  0
  -26.0202  -26.8640   19.4885 C   0  0  0  0  0  0
  -24.8659  -27.6705   19.4891 C   0  0  0  0  0  0
  -23.6468  -29.8130   20.1602 C   0  0  0  0  0  0
  -25.4111  -36.3083   24.0334 C   0  0  1  0  0  0
  -20.5899  -28.3695   23.1285 C   0  0  2  0  0  0
  -20.6784  -26.9414   22.5414 C   0  0  0  0  0  0
  -19.5754  -26.6379   21.5230 C   0  0  0  0  0  0
  -18.1934  -26.7927   22.1639 C   0  0  0  0  0  0
  -19.1547  -28.8863   23.2875 C   0  0  0  0  0  0
  -18.9467  -30.1468   23.8879 C   0  0  0  0  0  0
  -17.6466  -30.6587   24.0574 C   0  0  0  0  0  0
  -25.9057  -34.9449   23.5106 C   0  0  0  0  0  0
  -16.5360  -29.9088   23.6330 C   0  0  0  0  0  0
  -16.7282  -28.6515   23.0341 C   0  0  0  0  0  0
  -26.4496  -31.6591   25.0731 C   0  0  0  0  0  0
  -25.3702  -31.3754   26.1439 C   0  0  0  0  0  0
  -27.0359  -30.3018   24.6218 C   0  0  0  0  0  0
  -27.6043  -32.4333   25.7495 C   0  0  0  0  0  0
  -27.5576  -37.1804   24.8470 C   0  0  0  0  0  0
  -21.4218  -29.3053   22.3679 N   0  0  0  0  0  0
  -26.4284  -37.3782   23.9418 N   0  0  0  0  0  0
  -24.6977  -31.0523   22.0983 N   0  0  0  0  0  0
  -23.4208  -28.8149   23.3026 O   0  0  0  0  0  0
  -28.3342  -26.3751   20.1462 O   0  0  0  0  0  0
  -26.5627  -34.8924   22.4672 O   0  0  0  0  0  0
  -23.5467  -32.1375   23.7291 O   0  0  0  0  0  0
  -32.3599  -21.5747   18.5362 C   0  0  0  0  0  0
  -30.7966  -19.9342   20.0357 C   0  0  0  0  0  0
  -32.1733  -19.6750   19.7660 C   0  0  0  0  0  0
  -30.3837  -21.3090   19.7013 C   0  0  0  0  0  0
  -33.8893  -19.0823   21.5552 C   0  0  0  0  0  0
  -29.2768  -16.0786   22.0775 C   0  0  0  0  0  0
  -29.9923  -18.7376   20.6984 C   0  0  0  0  0  0
  -33.0027  -18.5615   20.4142 C   0  0  0  0  0  0
  -29.1379  -22.2058   20.1129 C   0  0  0  0  0  0
  -29.3328  -23.8386   20.0756 C   0  0  0  0  0  0
  -30.0832  -17.2496   20.0017 C   0  0  0  0  0  0
  -28.1096  -24.8835   20.2006 C   0  0  0  0  0  0
  -32.9186  -20.4731   18.9881 N   0  0  0  0  0  0
  -31.1783  -22.0355   18.8917 N   0  0  0  0  0  0
  -29.9385  -15.9234   20.7776 N   0  0  0  0  0  0
  -31.4721  -12.6024   19.1394 H   0  0  0  0  0  0
  -30.3946  -11.4861   19.9196 H   0  0  0  0  0  0
  -29.7858  -11.7499   17.5069 H   0  0  0  0  0  0
  -29.6484  -13.4741   17.6977 H   0  0  0  0  0  0
  -27.8592  -11.3123   18.8423 H   0  0  0  0  0  0
  -27.3847  -12.6064   17.7758 H   0  0  0  0  0  0
  -27.6511  -14.2698   19.5041 H   0  0  0  0  0  0
  -28.7428  -12.0929   21.3415 H   0  0  0  0  0  0
  -28.4020  -13.7106   21.8320 H   0  0  0  0  0  0
  -25.2762   -9.5715   22.4718 H   0  0  0  0  0  0
  -24.0022   -7.4653   22.7469 H   0  0  0  0  0  0
  -21.0825   -8.8730   19.8966 H   0  0  0  0  0  0
  -22.3651  -10.9637   19.6146 H   0  0  0  0  0  0
  -21.2018   -7.6141   23.9686 H   0  0  0  0  0  0
  -21.1494   -6.0518   25.9050 H   0  0  0  0  0  0
  -22.0606   -2.7601   23.2836 H   0  0  0  0  0  0
  -22.4198  -11.9932   22.4875 H   0  0  0  0  0  0
  -21.1109  -13.1170   22.2506 H   0  0  0  0  0  0
  -24.6506  -15.8410   20.5398 H   0  0  0  0  0  0
  -26.2768  -15.6472   20.1277 H   0  0  0  0  0  0
  -26.7212  -32.5387   23.1084 H   0  0  0  0  0  0
  -25.0078  -33.9717   25.0406 H   0  0  0  0  0  0
  -22.7244  -31.3010   21.3988 H   0  0  0  0  0  0
  -23.3754  -35.9611   23.3312 H   0  0  0  0  0  0
  -24.3570  -36.8896   22.2060 H   0  0  0  0  0  0
  -23.7220  -37.6486   23.6660 H   0  0  0  0  0  0
  -26.1118  -31.5214   20.6081 H   0  0  0  0  0  0
  -26.8566  -30.8177   22.0089 H   0  0  0  0  0  0
  -28.1194  -28.9134   21.2119 H   0  0  0  0  0  0
  -25.9265  -25.9179   18.9802 H   0  0  0  0  0  0
  -23.9665  -27.3124   19.0061 H   0  0  0  0  0  0
  -23.7768  -30.5889   19.4046 H   0  0  0  0  0  0
  -22.7632  -29.2493   19.8538 H   0  0  0  0  0  0
  -25.1292  -36.1945   25.0827 H   0  0  0  0  0  0
  -20.9991  -28.3274   24.1414 H   0  0  0  0  0  0
  -20.5714  -26.2308   23.3624 H   0  0  0  0  0  0
  -21.6648  -26.7454   22.1201 H   0  0  0  0  0  0
  -19.6925  -25.6296   21.1258 H   0  0  0  0  0  0
  -19.6697  -27.3192   20.6768 H   0  0  0  0  0  0
  -17.4218  -26.6689   21.4031 H   0  0  0  0  0  0
  -18.0320  -26.0065   22.9029 H   0  0  0  0  0  0
  -19.7944  -30.7294   24.2230 H   0  0  0  0  0  0
  -17.5022  -31.6264   24.5183 H   0  0  0  0  0  0
  -15.5362  -30.2990   23.7661 H   0  0  0  0  0  0
  -15.8682  -28.0844   22.7042 H   0  0  0  0  0  0
  -24.5868  -30.7124   25.7754 H   0  0  0  0  0  0
  -24.8899  -32.2932   26.4843 H   0  0  0  0  0  0
  -25.7983  -30.8929   27.0232 H   0  0  0  0  0  0
  -26.2971  -29.6756   24.1208 H   0  0  0  0  0  0
  -27.4034  -29.7288   25.4742 H   0  0  0  0  0  0
  -27.8835  -30.4320   23.9484 H   0  0  0  0  0  0
  -27.2663  -33.3647   26.2047 H   0  0  0  0  0  0
  -28.3852  -32.6872   25.0317 H   0  0  0  0  0  0
  -28.0708  -31.8474   26.5423 H   0  0  0  0  0  0
  -28.2605  -38.0089   24.7507 H   0  0  0  0  0  0
  -28.1057  -36.2625   24.6303 H   0  0  0  0  0  0
  -27.2298  -37.1453   25.8874 H   0  0  0  0  0  0
  -20.9418  -29.8768   21.6874 H   0  0  0  0  0  0
  -26.0172  -38.2867   24.1394 H   0  0  0  0  0  0
  -32.9577  -22.2010   17.8922 H   0  0  0  0  0  0
  -34.4557  -18.2676   22.0063 H   0  0  0  0  0  0
  -33.2868  -19.5399   22.3417 H   0  0  0  0  0  0
  -34.6012  -19.8262   21.2001 H   0  0  0  0  0  0
  -28.1936  -16.0911   21.9492 H   0  0  0  0  0  0
  -29.5627  -16.9889   22.5952 H   0  0  0  0  0  0
  -29.5417  -15.2836   22.7752 H   0  0  0  0  0  0
  -28.9467  -19.0328   20.7872 H   0  0  0  0  0  0
  -30.3722  -18.7101   21.7177 H   0  0  0  0  0  0
  -33.6223  -18.0957   19.6473 H   0  0  0  0  0  0
  -32.4102  -17.7652   20.8467 H   0  0  0  0  0  0
  -28.3157  -21.9322   19.4530 H   0  0  0  0  0  0
  -28.8301  -21.9096   21.1169 H   0  0  0  0  0  0
  -29.7864  -24.0929   19.1173 H   0  0  0  0  0  0
  -30.0831  -24.0970   20.8207 H   0  0  0  0  0  0
  -29.3099  -17.2182   19.2333 H   0  0  0  0  0  0
  -30.9866  -17.1738   19.3985 H   0  0  0  0  0  0
  -27.5844  -24.6744   21.1338 H   0  0  0  0  0  0
  -27.4289  -24.5907   19.4053 H   0  0  0  0  0  0
  1 25  1  0  0  0
  1 30  2  0  0  0
  1 85  1  0  0  0
  2  3  1  0  0  0
  2 25  1  0  0  0
  2 86  1  0  0  0
  2 87  1  0  0  0
  3  4  1  0  0  0
  3 88  1  0  0  0
  3 89  1  0  0  0
  4  5  1  0  0  0
  4 90  1  0  0  0
  4 91  1  0  0  0
  5  6  1  0  0  0
  5 26  1  0  0  0
  5 92  1  0  0  0
  6 25  1  0  0  0
  6 93  1  0  0  0
  6 94  1  0  0  0
  7  8  2  0  0  0
  7 26  1  0  0  0
  7 29  1  0  0  0
  8  9  1  0  0  0
  8 22  1  0  0  0
  9 10  1  0  0  0
  9 27  2  0  0  0
 10 11  2  0  0  0
 10 15  1  0  0  0
 11 12  1  0  0  0
 11 95  1  0  0  0
 12 13  2  0  0  0
 12 96  1  0  0  0
 13 14  1  0  0  0
 13 31  1  0  0  0
 14 15  2  0  0  0
 14 97  1  0  0  0
 15 98  1  0  0  0
 16 17  2  0  0  0
 16 21  1  0  0  0
 16 31  1  0  0  0
 17 18  1  0  0  0
 17 99  1  0  0  0
 18 19  2  0  0  0
 18100  1  0  0  0
 19 20  1  0  0  0
 19 24  1  0  0  0
 20 21  2  0  0  0
 20101  1  0  0  0
 21 23  1  0  0  0
 22 28  1  0  0  0
 22 32  2  0  0  0
 26 27  1  0  0  0
 28102  1  0  0  0
 28103  1  0  0  0
 29104  1  0  0  0
 29105  1  0  0  0
 33 34  1  0  0  0
 33 66  1  0  0  0
 33 70  2  0  0  0
 34 36  1  0  0  0
 34 59  1  0  0  0
 34106  1  0  0  0
 35 44  2  0  0  0
 35 45  1  0  0  0
 35 68  1  0  0  0
 36 56  1  0  0  0
 36107  1  0  0  0
 37 39  1  0  0  0
 37 47  1  0  0  0
 37 66  1  0  0  0
 37108  1  0  0  0
 38 43  2  0  0  0
 38 46  1  0  0  0
 38 47  1  0  0  0
 39 64  1  0  0  0
 39 67  2  0  0  0
 40 52  1  0  0  0
 40 53  2  0  0  0
 40 58  1  0  0  0
 41109  1  0  0  0
 41110  1  0  0  0
 41111  1  0  0  0
 41 48  1  0  0  0
 42 43  1  0  0  0
 42 66  1  0  0  0
 42112  1  0  0  0
 42113  1  0  0  0
 43 44  1  0  0  0
 44114  1  0  0  0
 45 46  2  0  0  0
 45115  1  0  0  0
 46116  1  0  0  0
 47117  1  0  0  0
 47118  1  0  0  0
 48 56  1  0  0  0
 48 65  1  0  0  0
 48119  1  0  0  0
 49 50  1  0  0  0
 49 53  1  0  0  0
 49 64  1  0  0  0
 49120  1  0  0  0
 50 51  1  0  0  0
 50121  1  0  0  0
 50122  1  0  0  0
 51 52  1  0  0  0
 51123  1  0  0  0
 51124  1  0  0  0
 52125  1  0  0  0
 52126  1  0  0  0
 53 54  1  0  0  0
 54 55  2  0  0  0
 54127  1  0  0  0
 55 57  1  0  0  0
 55128  1  0  0  0
 56 69  2  0  0  0
 57 58  2  0  0  0
 57129  1  0  0  0
 58130  1  0  0  0
 59 60  1  0  0  0
 59 61  1  0  0  0
 59 62  1  0  0  0
 60131  1  0  0  0
 60132  1  0  0  0
 60133  1  0  0  0
 61134  1  0  0  0
 61135  1  0  0  0
 61136  1  0  0  0
 62137  1  0  0  0
 62138  1  0  0  0
 62139  1  0  0  0
 63 65  1  0  0  0
 63140  1  0  0  0
 63141  1  0  0  0
 63142  1  0  0  0
 64143  1  0  0  0
 65144  1  0  0  0
 68 82  1  0  0  0
 71 83  2  0  0  0
 71 84  1  0  0  0
 71145  1  0  0  0
 72 73  2  0  0  0
 72 74  1  0  0  0
 72 77  1  0  0  0
 73 78  1  0  0  0
 73 83  1  0  0  0
 74 79  1  0  0  0
 74 84  2  0  0  0
 75 78  1  0  0  0
 75146  1  0  0  0
 75147  1  0  0  0
 75148  1  0  0  0
 76 85  1  0  0  0
 76149  1  0  0  0
 76150  1  0  0  0
 76151  1  0  0  0
 77 81  1  0  0  0
 77152  1  0  0  0
 77153  1  0  0  0
 78154  1  0  0  0
 78155  1  0  0  0
 79 80  1  0  0  0
 79156  1  0  0  0
 79157  1  0  0  0
 80 82  1  0  0  0
 80158  1  0  0  0
 80159  1  0  0  0
 81 85  1  0  0  0
 81160  1  0  0  0
 81161  1  0  0  0
 82162  1  0  0  0
 82163  1  0  0  0
M  ISO  4   1 100  68 101  82 101  85 100
M  END
> <chiral flag>
0

> <version>
0

> <s_m_source_file>
/data/baiqing/PycharmProjects/Reinvent-master-3.2/result/LINK_invent/BTK/process_docking_weight1_custom_sum_contain_oxygen_bond_distance_aromatic_linkinvent_7_9_3/rearranged_h_0067.sdf

> <i_m_source_file_index>
48

> <r_mmod_Potential_Energy-OPLS-2005>
-36.1970367431641

> <r_mmod_Stretch_Energy-OPLS-2005>
149.945846557617

> <r_mmod_Bend_Energy-OPLS-2005>
211.764846801758

> <r_mmod_Torsional_Energy-OPLS-2005>
303.825225830078

> <r_mmod_Improper_Torsional_Energy-OPLS-2005>
8.59510803222656

> <r_mmod_Van_der_Waal_Energy-OPLS-2005>
166.430587768555

> <r_mmod_Electrostatic_Energy-OPLS-2005>
-739.048278808594

> <r_mmod_Solvation_Energy-OPLS-2005>
-216.470520019531

> <b_mmod_Minimization_Converged-OPLS-2005>
0

> <r_mmod_RMS_Derivative-OPLS-2005>
2.8006329536438

$$$$
49
                    3D
 Structure written by MMmdl.
160168  0  0  1  0            999 V2000
  -30.7266  -14.5216   20.5108 C   0  0  0  0  0  0
  -30.4046  -12.3274   19.4472 C   0  0  0  0  0  0
  -29.4936  -12.4939   18.2151 C   0  0  0  0  0  0
  -28.0203  -12.3214   18.6256 C   0  0  0  0  0  0
  -27.6409  -13.2010   19.8454 C   0  0  2  0  0  0
  -28.6833  -13.1227   20.9829 C   0  0  0  0  0  0
  -25.2533  -13.8102   20.5677 C   0  0  0  0  0  0
  -24.1818  -13.0398   20.9215 C   0  0  0  0  0  0
  -24.6365  -11.6861   20.8770 C   0  0  0  0  0  0
  -23.9035  -10.4273   21.0443 C   0  0  0  0  0  0
  -24.3604   -9.4185   21.9198 C   0  0  0  0  0  0
  -23.6291   -8.2211   22.0744 C   0  0  0  0  0  0
  -22.4262   -8.0267   21.3544 C   0  0  0  0  0  0
  -21.9912   -9.0235   20.4637 C   0  0  0  0  0  0
  -22.7229  -10.2111   20.3060 C   0  0  0  0  0  0
  -21.6843   -6.0738   22.5294 C   0  0  0  0  0  0
  -21.4022   -6.5655   23.8225 C   0  0  0  0  0  0
  -21.3671   -5.6811   24.9199 C   0  0  0  0  0  0
  -21.6033   -4.3069   24.7257 C   0  0  0  0  0  0
  -21.8799   -3.8152   23.4378 C   0  0  0  0  0  0
  -21.9195   -4.6967   22.3433 C   0  0  0  0  0  0
  -22.7838  -13.5214   21.1896 C   0  0  0  0  0  0
  -22.1657   -4.2139   21.1008 F   0  0  0  0  0  0
  -21.5635   -3.4553   25.7774 F   0  0  0  0  0  0
  -30.0182  -13.3628   20.4204 N   0  0  0  0  0  0
  -26.2932  -12.9255   20.3241 N   0  0  0  0  0  0
  -25.9279  -11.6427   20.5739 N   0  0  0  0  0  0
  -22.0498  -12.8184   22.0440 N   0  0  0  0  0  0
  -25.4282  -15.1838   20.4120 N   0  0  0  0  0  0
  -31.9078  -14.6008   20.1724 O   0  0  0  0  0  0
  -21.6622   -6.8868   21.4242 O   0  0  0  0  0  0
  -22.3542  -14.5536   20.6770 O   0  0  0  0  0  0
  -24.6173  -31.8690   23.2164 C   0  0  0  0  0  0
  -25.9051  -32.4838   23.8456 C   0  0  1  0  0  0
  -27.2121  -27.4293   20.0811 C   0  0  0  0  0  0
  -25.5899  -33.8644   24.2384 N   0  0  0  0  0  0
  -23.4051  -30.4961   21.5613 C   0  0  2  0  0  0
  -24.8435  -28.9740   20.1179 C   0  0  0  0  0  0
  -22.7438  -29.4643   22.5031 C   0  0  0  0  0  0
  -18.0244  -28.1397   22.8488 C   0  0  0  0  0  0
  -24.1478  -36.7293   23.2636 C   0  0  0  0  0  0
  -25.9386  -30.8355   21.3728 C   0  0  0  0  0  0
  -26.0133  -29.4757   20.7050 C   0  0  0  0  0  0
  -27.2065  -28.7157   20.6732 C   0  0  0  0  0  0
  -26.0157  -26.9458   19.4993 C   0  0  0  0  0  0
  -24.8397  -27.7092   19.5142 C   0  0  0  0  0  0
  -23.6123  -29.8452   20.1716 C   0  0  0  0  0  0
  -25.4104  -36.3125   24.0336 C   0  0  1  0  0  0
  -20.5833  -28.3668   23.1320 C   0  0  2  0  0  0
  -20.6733  -26.9408   22.5423 C   0  0  0  0  0  0
  -19.5722  -26.6401   21.5204 C   0  0  0  0  0  0
  -18.1899  -26.7949   22.1614 C   0  0  0  0  0  0
  -19.1498  -28.8853   23.2900 C   0  0  0  0  0  0
  -18.9437  -30.1450   23.8932 C   0  0  0  0  0  0
  -17.6442  -30.6617   24.0569 C   0  0  0  0  0  0
  -25.9019  -34.9476   23.5157 C   0  0  0  0  0  0
  -16.5323  -29.9125   23.6327 C   0  0  0  0  0  0
  -16.7231  -28.6529   23.0366 C   0  0  0  0  0  0
  -26.4479  -31.6614   25.0775 C   0  0  0  0  0  0
  -25.3761  -31.3706   26.1539 C   0  0  0  0  0  0
  -27.0276  -30.3053   24.6124 C   0  0  0  0  0  0
  -27.6070  -32.4326   25.7525 C   0  0  0  0  0  0
  -27.5578  -37.1812   24.8479 C   0  0  0  0  0  0
  -21.4159  -29.3039   22.3768 N   0  0  0  0  0  0
  -26.4304  -37.3795   23.9405 N   0  0  0  0  0  0
  -24.6731  -31.0776   22.1083 N   0  0  0  0  0  0
  -23.4199  -28.8144   23.3057 O   0  0  0  0  0  0
  -28.3674  -26.6742   20.0866 O   0  0  0  0  0  0
  -26.5580  -34.8907   22.4716 O   0  0  0  0  0  0
  -23.5355  -32.1434   23.7516 O   0  0  0  0  0  0
  -29.0430  -16.4419   19.9439 C   0  0  0  0  0  0
  -30.5262  -16.8685   21.5286 C   0  0  0  0  0  0
  -30.0396  -15.8425   20.7634 C   0  0  0  0  0  0
  -30.7978  -22.1697   22.1788 C   0  0  0  0  0  0
  -31.6472  -22.2242   19.8265 C   0  0  0  0  0  0
  -29.9504  -20.4399   20.4473 C   0  0  0  0  0  0
  -30.0254  -19.3973   21.6047 C   0  0  0  0  0  0
  -28.1856  -25.2509   19.9673 C   0  0  0  0  0  0
  -30.4011  -21.9361   20.6993 C   0  0  0  0  0  0
  -29.4695  -24.4614   20.2780 C   0  0  0  0  0  0
  -29.2285  -22.9104   20.3017 C   0  0  0  0  0  0
  -28.8659  -17.7224   20.2421 N   0  0  0  0  0  0
  -29.8256  -18.0111   21.1597 N   0  0  0  0  0  0
  -29.9030  -24.9080   21.4540 F   0  0  0  0  0  0
  -30.3759  -24.7764   19.3518 F   0  0  0  0  0  0
  -28.2107  -22.6594   21.1302 F   0  0  0  0  0  0
  -28.8052  -22.5915   19.0746 F   0  0  0  0  0  0
  -30.2815  -11.3351   19.8823 H   0  0  0  0  0  0
  -31.4522  -12.3970   19.1478 H   0  0  0  0  0  0
  -29.7591  -11.7687   17.4472 H   0  0  0  0  0  0
  -29.6423  -13.4793   17.7687 H   0  0  0  0  0  0
  -27.8673  -11.2673   18.8628 H   0  0  0  0  0  0
  -27.3614  -12.5392   17.7843 H   0  0  0  0  0  0
  -27.6273  -14.2148   19.4675 H   0  0  0  0  0  0
  -28.6531  -12.1520   21.4800 H   0  0  0  0  0  0
  -28.4412  -13.8637   21.7467 H   0  0  0  0  0  0
  -25.2761   -9.5652   22.4750 H   0  0  0  0  0  0
  -24.0019   -7.4589   22.7435 H   0  0  0  0  0  0
  -21.0852   -8.8772   19.8916 H   0  0  0  0  0  0
  -22.3732  -10.9666   19.6156 H   0  0  0  0  0  0
  -21.1994   -7.6160   23.9746 H   0  0  0  0  0  0
  -21.1529   -6.0541   25.9107 H   0  0  0  0  0  0
  -22.0562   -2.7607   23.2899 H   0  0  0  0  0  0
  -22.4160  -11.9854   22.4809 H   0  0  0  0  0  0
  -21.1104  -13.1160   22.2658 H   0  0  0  0  0  0
  -24.6695  -15.8461   20.5342 H   0  0  0  0  0  0
  -26.2970  -15.6281   20.1480 H   0  0  0  0  0  0
  -26.7116  -32.5560   23.1219 H   0  0  0  0  0  0
  -25.0110  -33.9853   25.0568 H   0  0  0  0  0  0
  -22.6950  -31.3151   21.4331 H   0  0  0  0  0  0
  -23.3755  -35.9609   23.3330 H   0  0  0  0  0  0
  -24.3577  -36.8876   22.2046 H   0  0  0  0  0  0
  -23.7191  -37.6491   23.6629 H   0  0  0  0  0  0
  -26.0582  -31.6144   20.6188 H   0  0  0  0  0  0
  -26.8236  -30.8745   21.9958 H   0  0  0  0  0  0
  -28.1182  -29.1025   21.1087 H   0  0  0  0  0  0
  -25.9529  -25.9812   19.0201 H   0  0  0  0  0  0
  -23.9401  -27.3151   19.0623 H   0  0  0  0  0  0
  -23.7447  -30.6368   19.4346 H   0  0  0  0  0  0
  -22.7312  -29.2846   19.8548 H   0  0  0  0  0  0
  -25.1272  -36.2022   25.0825 H   0  0  0  0  0  0
  -20.9891  -28.3228   24.1447 H   0  0  0  0  0  0
  -20.5640  -26.2273   23.3598 H   0  0  0  0  0  0
  -21.6606  -26.7473   22.1210 H   0  0  0  0  0  0
  -19.6900  -25.6316   21.1229 H   0  0  0  0  0  0
  -19.6673  -27.3217   20.6737 H   0  0  0  0  0  0
  -17.4158  -26.6671   21.4029 H   0  0  0  0  0  0
  -18.0331  -26.0102   22.9027 H   0  0  0  0  0  0
  -19.7911  -30.7242   24.2355 H   0  0  0  0  0  0
  -17.4995  -31.6302   24.5162 H   0  0  0  0  0  0
  -15.5330  -30.3047   23.7630 H   0  0  0  0  0  0
  -15.8615  -28.0852   22.7097 H   0  0  0  0  0  0
  -24.5936  -30.7043   25.7901 H   0  0  0  0  0  0
  -24.8946  -32.2848   26.5041 H   0  0  0  0  0  0
  -25.8133  -30.8867   27.0285 H   0  0  0  0  0  0
  -26.2796  -29.6875   24.1142 H   0  0  0  0  0  0
  -27.4016  -29.7240   25.4566 H   0  0  0  0  0  0
  -27.8659  -30.4376   23.9270 H   0  0  0  0  0  0
  -27.2705  -33.3619   26.2150 H   0  0  0  0  0  0
  -28.3842  -32.6937   25.0321 H   0  0  0  0  0  0
  -28.0778  -31.8433   26.5413 H   0  0  0  0  0  0
  -28.2626  -38.0086   24.7508 H   0  0  0  0  0  0
  -28.1053  -36.2624   24.6338 H   0  0  0  0  0  0
  -27.2304  -37.1477   25.8889 H   0  0  0  0  0  0
  -20.9345  -29.8790   21.6996 H   0  0  0  0  0  0
  -26.0209  -38.2873   24.1440 H   0  0  0  0  0  0
  -28.5070  -16.0422   19.0991 H   0  0  0  0  0  0
  -31.3486  -16.8994   22.2312 H   0  0  0  0  0  0
  -31.6363  -21.5483   22.4919 H   0  0  0  0  0  0
  -29.9616  -21.9677   22.8453 H   0  0  0  0  0  0
  -31.1078  -23.1941   22.3707 H   0  0  0  0  0  0
  -31.3945  -22.2616   18.7658 H   0  0  0  0  0  0
  -32.4171  -21.4629   19.9459 H   0  0  0  0  0  0
  -32.1012  -23.1824   20.0840 H   0  0  0  0  0  0
  -28.9171  -20.4366   20.0996 H   0  0  0  0  0  0
  -30.5080  -20.0362   19.6023 H   0  0  0  0  0  0
  -29.2713  -19.6255   22.3589 H   0  0  0  0  0  0
  -30.9928  -19.4458   22.1025 H   0  0  0  0  0  0
  -27.4113  -24.9347   20.6702 H   0  0  0  0  0  0
  -27.8456  -24.9916   18.9634 H   0  0  0  0  0  0
  1 25  1  0  0  0
  1 30  2  0  0  0
  1 73  1  0  0  0
  2  3  1  0  0  0
  2 25  1  0  0  0
  2 88  1  0  0  0
  2 89  1  0  0  0
  3  4  1  0  0  0
  3 90  1  0  0  0
  3 91  1  0  0  0
  4  5  1  0  0  0
  4 92  1  0  0  0
  4 93  1  0  0  0
  5  6  1  0  0  0
  5 26  1  0  0  0
  5 94  1  0  0  0
  6 25  1  0  0  0
  6 95  1  0  0  0
  6 96  1  0  0  0
  7  8  2  0  0  0
  7 26  1  0  0  0
  7 29  1  0  0  0
  8  9  1  0  0  0
  8 22  1  0  0  0
  9 10  1  0  0  0
  9 27  2  0  0  0
 10 11  2  0  0  0
 10 15  1  0  0  0
 11 12  1  0  0  0
 11 97  1  0  0  0
 12 13  2  0  0  0
 12 98  1  0  0  0
 13 14  1  0  0  0
 13 31  1  0  0  0
 14 15  2  0  0  0
 14 99  1  0  0  0
 15100  1  0  0  0
 16 17  2  0  0  0
 16 21  1  0  0  0
 16 31  1  0  0  0
 17 18  1  0  0  0
 17101  1  0  0  0
 18 19  2  0  0  0
 18102  1  0  0  0
 19 20  1  0  0  0
 19 24  1  0  0  0
 20 21  2  0  0  0
 20103  1  0  0  0
 21 23  1  0  0  0
 22 28  1  0  0  0
 22 32  2  0  0  0
 26 27  1  0  0  0
 28104  1  0  0  0
 28105  1  0  0  0
 29106  1  0  0  0
 29107  1  0  0  0
 33 34  1  0  0  0
 33 66  1  0  0  0
 33 70  2  0  0  0
 34 36  1  0  0  0
 34 59  1  0  0  0
 34108  1  0  0  0
 35 44  2  0  0  0
 35 45  1  0  0  0
 35 68  1  0  0  0
 36 56  1  0  0  0
 36109  1  0  0  0
 37 39  1  0  0  0
 37 47  1  0  0  0
 37 66  1  0  0  0
 37110  1  0  0  0
 38 43  2  0  0  0
 38 46  1  0  0  0
 38 47  1  0  0  0
 39 64  1  0  0  0
 39 67  2  0  0  0
 40 52  1  0  0  0
 40 53  2  0  0  0
 40 58  1  0  0  0
 41111  1  0  0  0
 41112  1  0  0  0
 41113  1  0  0  0
 41 48  1  0  0  0
 42 43  1  0  0  0
 42 66  1  0  0  0
 42114  1  0  0  0
 42115  1  0  0  0
 43 44  1  0  0  0
 44116  1  0  0  0
 45 46  2  0  0  0
 45117  1  0  0  0
 46118  1  0  0  0
 47119  1  0  0  0
 47120  1  0  0  0
 48 56  1  0  0  0
 48 65  1  0  0  0
 48121  1  0  0  0
 49 50  1  0  0  0
 49 53  1  0  0  0
 49 64  1  0  0  0
 49122  1  0  0  0
 50 51  1  0  0  0
 50123  1  0  0  0
 50124  1  0  0  0
 51 52  1  0  0  0
 51125  1  0  0  0
 51126  1  0  0  0
 52127  1  0  0  0
 52128  1  0  0  0
 53 54  1  0  0  0
 54 55  2  0  0  0
 54129  1  0  0  0
 55 57  1  0  0  0
 55130  1  0  0  0
 56 69  2  0  0  0
 57 58  2  0  0  0
 57131  1  0  0  0
 58132  1  0  0  0
 59 60  1  0  0  0
 59 61  1  0  0  0
 59 62  1  0  0  0
 60133  1  0  0  0
 60134  1  0  0  0
 60135  1  0  0  0
 61136  1  0  0  0
 61137  1  0  0  0
 61138  1  0  0  0
 62139  1  0  0  0
 62140  1  0  0  0
 62141  1  0  0  0
 63 65  1  0  0  0
 63142  1  0  0  0
 63143  1  0  0  0
 63144  1  0  0  0
 64145  1  0  0  0
 65146  1  0  0  0
 68 78  1  0  0  0
 71 73  1  0  0  0
 71 82  2  0  0  0
 71147  1  0  0  0
 72 73  2  0  0  0
 72 83  1  0  0  0
 72148  1  0  0  0
 74149  1  0  0  0
 74150  1  0  0  0
 74151  1  0  0  0
 74 79  1  0  0  0
 75 79  1  0  0  0
 75152  1  0  0  0
 75153  1  0  0  0
 75154  1  0  0  0
 76 77  1  0  0  0
 76 79  1  0  0  0
 76155  1  0  0  0
 76156  1  0  0  0
 77 83  1  0  0  0
 77157  1  0  0  0
 77158  1  0  0  0
 78 80  1  0  0  0
 78159  1  0  0  0
 78160  1  0  0  0
 79 81  1  0  0  0
 80 81  1  0  0  0
 80 84  1  0  0  0
 80 85  1  0  0  0
 81 86  1  0  0  0
 81 87  1  0  0  0
 82 83  1  0  0  0
M  ISO  4   1 100  68 101  73 100  78 101
M  END
> <chiral flag>
0

> <version>
0

> <s_m_source_file>
/data/baiqing/PycharmProjects/Reinvent-master-3.2/result/LINK_invent/BTK/process_docking_weight1_custom_sum_contain_oxygen_bond_distance_aromatic_linkinvent_7_9_3/rearranged_h_0067.sdf

> <i_m_source_file_index>
49

> <r_mmod_Potential_Energy-OPLS-2005>
66.67626953125

> <r_mmod_Stretch_Energy-OPLS-2005>
41.906925201416

> <r_mmod_Bend_Energy-OPLS-2005>
116.61083984375

> <r_mmod_Torsional_Energy-OPLS-2005>
236.461563110352

> <r_mmod_Improper_Torsional_Energy-OPLS-2005>
9.09571647644043

> <r_mmod_Van_der_Waal_Energy-OPLS-2005>
148.609786987305

> <r_mmod_Electrostatic_Energy-OPLS-2005>
-321.082458496094

> <r_mmod_Solvation_Energy-OPLS-2005>
-190.683944702148

> <b_mmod_Minimization_Converged-OPLS-2005>
0

> <r_mmod_RMS_Derivative-OPLS-2005>
4.55066442489624

$$$$
50
                    3D
 Structure written by MMmdl.
160168  0  0  1  0            999 V2000
  -30.4796  -15.0180   20.3743 C   0  0  0  0  0  0
  -30.4887  -12.6199   19.5043 C   0  0  0  0  0  0
  -29.5560  -12.5051   18.2706 C   0  0  0  0  0  0
  -28.0744  -12.3050   18.6715 C   0  0  0  0  0  0
  -27.6423  -13.1991   19.8631 C   0  0  2  0  0  0
  -28.7095  -13.1877   20.9764 C   0  0  0  0  0  0
  -25.2531  -13.8001   20.5691 C   0  0  0  0  0  0
  -24.1805  -13.0326   20.9247 C   0  0  0  0  0  0
  -24.6386  -11.6804   20.8809 C   0  0  0  0  0  0
  -23.9056  -10.4223   21.0458 C   0  0  0  0  0  0
  -24.3606   -9.4149   21.9237 C   0  0  0  0  0  0
  -23.6274   -8.2196   22.0778 C   0  0  0  0  0  0
  -22.4275   -8.0255   21.3543 C   0  0  0  0  0  0
  -21.9906   -9.0235   20.4650 C   0  0  0  0  0  0
  -22.7240  -10.2108   20.3077 C   0  0  0  0  0  0
  -21.6832   -6.0719   22.5285 C   0  0  0  0  0  0
  -21.4013   -6.5632   23.8223 C   0  0  0  0  0  0
  -21.3680   -5.6787   24.9188 C   0  0  0  0  0  0
  -21.6041   -4.3038   24.7218 C   0  0  0  0  0  0
  -21.8793   -3.8140   23.4339 C   0  0  0  0  0  0
  -21.9186   -4.6959   22.3402 C   0  0  0  0  0  0
  -22.7842  -13.5200   21.1845 C   0  0  0  0  0  0
  -22.1652   -4.2163   21.0969 F   0  0  0  0  0  0
  -21.5663   -3.4505   25.7723 F   0  0  0  0  0  0
  -29.9701  -13.7016   20.3910 N   0  0  0  0  0  0
  -26.2978  -12.9137   20.3417 N   0  0  0  0  0  0
  -25.9321  -11.6327   20.5852 N   0  0  0  0  0  0
  -22.0446  -12.8273   22.0421 N   0  0  0  0  0  0
  -25.4108  -15.1705   20.3944 N   0  0  0  0  0  0
  -31.6924  -15.1047   20.1401 O   0  0  0  0  0  0
  -21.6633   -6.8858   21.4248 O   0  0  0  0  0  0
  -22.3572  -14.5514   20.6676 O   0  0  0  0  0  0
  -24.6410  -31.8480   23.1909 C   0  0  0  0  0  0
  -25.9184  -32.4731   23.8295 C   0  0  1  0  0  0
  -27.2252  -27.1652   20.1393 C   0  0  0  0  0  0
  -25.5940  -33.8538   24.2213 N   0  0  0  0  0  0
  -23.4435  -30.4672   21.5358 C   0  0  2  0  0  0
  -24.8938  -28.8987   20.1131 C   0  0  0  0  0  0
  -22.7563  -29.4555   22.4870 C   0  0  0  0  0  0
  -18.0306  -28.1388   22.8482 C   0  0  0  0  0  0
  -24.1477  -36.7253   23.2635 C   0  0  0  0  0  0
  -25.9980  -30.7318   21.3837 C   0  0  0  0  0  0
  -26.0714  -29.3446   20.7255 C   0  0  0  0  0  0
  -27.2377  -28.4939   20.7204 C   0  0  0  0  0  0
  -26.0174  -26.8141   19.4935 C   0  0  0  0  0  0
  -24.8775  -27.6456   19.4836 C   0  0  0  0  0  0
  -23.6699  -29.7987   20.1547 C   0  0  0  0  0  0
  -25.4109  -36.3052   24.0318 C   0  0  1  0  0  0
  -20.5917  -28.3709   23.1238 C   0  0  2  0  0  0
  -20.6784  -26.9414   22.5397 C   0  0  0  0  0  0
  -19.5750  -26.6368   21.5215 C   0  0  0  0  0  0
  -18.1939  -26.7923   22.1637 C   0  0  0  0  0  0
  -19.1567  -28.8865   23.2851 C   0  0  0  0  0  0
  -18.9481  -30.1464   23.8875 C   0  0  0  0  0  0
  -17.6482  -30.6592   24.0554 C   0  0  0  0  0  0
  -25.9064  -34.9427   23.5069 C   0  0  0  0  0  0
  -16.5368  -29.9086   23.6334 C   0  0  0  0  0  0
  -16.7291  -28.6500   23.0362 C   0  0  0  0  0  0
  -26.4508  -31.6594   25.0726 C   0  0  0  0  0  0
  -25.3695  -31.3776   26.1427 C   0  0  0  0  0  0
  -27.0358  -30.2995   24.6274 C   0  0  0  0  0  0
  -27.6053  -32.4338   25.7514 C   0  0  0  0  0  0
  -27.5573  -37.1774   24.8456 C   0  0  0  0  0  0
  -21.4255  -29.3042   22.3619 N   0  0  0  0  0  0
  -26.4263  -37.3773   23.9432 N   0  0  0  0  0  0
  -24.7143  -31.0362   22.0927 N   0  0  0  0  0  0
  -23.4216  -28.8109   23.3019 O   0  0  0  0  0  0
  -28.2936  -26.2034   20.1975 O   0  0  0  0  0  0
  -26.5653  -34.8921   22.4650 O   0  0  0  0  0  0
  -23.5530  -32.1346   23.7130 O   0  0  0  0  0  0
  -30.7651  -19.9869   20.4428 C   0  0  0  0  0  0
  -28.8678  -19.0712   20.2630 C   0  0  0  0  0  0
  -29.3867  -20.3814   20.2919 C   0  0  0  0  0  0
  -28.7343  -16.3362   19.0156 C   0  0  0  0  0  0
  -28.5922  -16.2829   21.6138 C   0  0  0  0  0  0
  -29.6953  -23.5655   21.7054 C   0  0  0  0  0  0
  -30.2215  -23.6242   19.2639 C   0  0  0  0  0  0
  -28.5696  -21.8234   20.1626 C   0  0  0  0  0  0
  -28.0223  -24.6829   20.0779 C   0  0  0  0  0  0
  -29.5031  -16.4167   20.3686 C   0  0  0  0  0  0
  -29.1044  -23.4114   20.2958 C   0  0  0  0  0  0
  -31.0107  -18.6389   20.4922 N   0  0  0  0  0  0
  -29.8186  -17.9878   20.3739 N   0  0  0  0  0  0
  -31.5094  -12.8266   19.1789 H   0  0  0  0  0  0
  -30.5473  -11.6697   20.0373 H   0  0  0  0  0  0
  -29.8822  -11.6661   17.6527 H   0  0  0  0  0  0
  -29.6646  -13.3960   17.6523 H   0  0  0  0  0  0
  -27.9523  -11.2564   18.9470 H   0  0  0  0  0  0
  -27.4242  -12.4736   17.8122 H   0  0  0  0  0  0
  -27.5764  -14.1977   19.4721 H   0  0  0  0  0  0
  -28.8394  -12.1680   21.3401 H   0  0  0  0  0  0
  -28.4054  -13.7325   21.8645 H   0  0  0  0  0  0
  -25.2728   -9.5628   22.4852 H   0  0  0  0  0  0
  -23.9969   -7.4557   22.7493 H   0  0  0  0  0  0
  -21.0855   -8.8745   19.8930 H   0  0  0  0  0  0
  -22.3712  -10.9663   19.6201 H   0  0  0  0  0  0
  -21.2000   -7.6135   23.9725 H   0  0  0  0  0  0
  -21.1560   -6.0533   25.9109 H   0  0  0  0  0  0
  -22.0563   -2.7606   23.2831 H   0  0  0  0  0  0
  -22.4008  -11.9966   22.4901 H   0  0  0  0  0  0
  -21.1075  -13.1364   22.2538 H   0  0  0  0  0  0
  -24.6544  -15.8297   20.5326 H   0  0  0  0  0  0
  -26.2559  -15.6012   20.0458 H   0  0  0  0  0  0
  -26.7251  -32.5349   23.1034 H   0  0  0  0  0  0
  -25.0072  -33.9665   25.0348 H   0  0  0  0  0  0
  -22.7441  -31.2919   21.3825 H   0  0  0  0  0  0
  -23.3772  -35.9545   23.3246 H   0  0  0  0  0  0
  -24.3571  -36.8943   22.2060 H   0  0  0  0  0  0
  -23.7184  -37.6413   23.6705 H   0  0  0  0  0  0
  -26.1443  -31.4881   20.6118 H   0  0  0  0  0  0
  -26.8702  -30.7871   22.0224 H   0  0  0  0  0  0
  -28.1371  -28.8323   21.2148 H   0  0  0  0  0  0
  -25.9163  -25.8610   18.9994 H   0  0  0  0  0  0
  -23.9771  -27.3012   18.9946 H   0  0  0  0  0  0
  -23.8088  -30.5743   19.4011 H   0  0  0  0  0  0
  -22.7857  -29.2419   19.8415 H   0  0  0  0  0  0
  -25.1288  -36.1871   25.0805 H   0  0  0  0  0  0
  -21.0010  -28.3289   24.1359 H   0  0  0  0  0  0
  -20.5683  -26.2325   23.3620 H   0  0  0  0  0  0
  -21.6651  -26.7421   22.1192 H   0  0  0  0  0  0
  -19.6906  -25.6267   21.1274 H   0  0  0  0  0  0
  -19.6680  -27.3156   20.6727 H   0  0  0  0  0  0
  -17.4200  -26.6659   21.4050 H   0  0  0  0  0  0
  -18.0344  -26.0073   22.9047 H   0  0  0  0  0  0
  -19.7955  -30.7283   24.2237 H   0  0  0  0  0  0
  -17.5035  -31.6276   24.5151 H   0  0  0  0  0  0
  -15.5369  -30.2985   23.7663 H   0  0  0  0  0  0
  -15.8692  -28.0809   22.7100 H   0  0  0  0  0  0
  -24.5864  -30.7146   25.7736 H   0  0  0  0  0  0
  -24.8897  -32.2962   26.4819 H   0  0  0  0  0  0
  -25.7971  -30.8959   27.0234 H   0  0  0  0  0  0
  -26.2967  -29.6749   24.1252 H   0  0  0  0  0  0
  -27.3961  -29.7266   25.4832 H   0  0  0  0  0  0
  -27.8881  -30.4252   23.9590 H   0  0  0  0  0  0
  -27.2666  -33.3656   26.2060 H   0  0  0  0  0  0
  -28.3893  -32.6877   25.0364 H   0  0  0  0  0  0
  -28.0695  -31.8484   26.5468 H   0  0  0  0  0  0
  -28.2541  -38.0121   24.7582 H   0  0  0  0  0  0
  -28.1118  -36.2659   24.6176 H   0  0  0  0  0  0
  -27.2304  -37.1291   25.8858 H   0  0  0  0  0  0
  -20.9463  -29.8760   21.6806 H   0  0  0  0  0  0
  -26.0125  -38.2820   24.1512 H   0  0  0  0  0  0
  -31.6148  -20.6516   20.5167 H   0  0  0  0  0  0
  -27.8257  -18.8044   20.1634 H   0  0  0  0  0  0
  -27.6602  -16.4803   19.1297 H   0  0  0  0  0  0
  -28.9048  -15.4156   18.4637 H   0  0  0  0  0  0
  -29.0674  -17.0972   18.3079 H   0  0  0  0  0  0
  -28.2232  -17.2294   22.0069 H   0  0  0  0  0  0
  -29.1291  -15.8251   22.4453 H   0  0  0  0  0  0
  -27.7044  -15.6951   21.4134 H   0  0  0  0  0  0
  -30.4704  -22.8220   21.9004 H   0  0  0  0  0  0
  -28.9212  -23.4460   22.4634 H   0  0  0  0  0  0
  -30.1360  -24.5533   21.8466 H   0  0  0  0  0  0
  -31.0267  -22.8998   19.3802 H   0  0  0  0  0  0
  -30.6565  -24.6207   19.3521 H   0  0  0  0  0  0
  -29.8371  -23.5331   18.2471 H   0  0  0  0  0  0
  -27.7471  -21.7675   20.8772 H   0  0  0  0  0  0
  -28.0458  -21.8004   19.2052 H   0  0  0  0  0  0
  -27.1858  -24.4863   20.7509 H   0  0  0  0  0  0
  -27.6180  -24.5366   19.0760 H   0  0  0  0  0  0
  1 25  1  0  0  0
  1 30  2  0  0  0
  1 80  1  0  0  0
  2  3  1  0  0  0
  2 25  1  0  0  0
  2 84  1  0  0  0
  2 85  1  0  0  0
  3  4  1  0  0  0
  3 86  1  0  0  0
  3 87  1  0  0  0
  4  5  1  0  0  0
  4 88  1  0  0  0
  4 89  1  0  0  0
  5  6  1  0  0  0
  5 26  1  0  0  0
  5 90  1  0  0  0
  6 25  1  0  0  0
  6 91  1  0  0  0
  6 92  1  0  0  0
  7  8  2  0  0  0
  7 26  1  0  0  0
  7 29  1  0  0  0
  8  9  1  0  0  0
  8 22  1  0  0  0
  9 10  1  0  0  0
  9 27  2  0  0  0
 10 11  2  0  0  0
 10 15  1  0  0  0
 11 12  1  0  0  0
 11 93  1  0  0  0
 12 13  2  0  0  0
 12 94  1  0  0  0
 13 14  1  0  0  0
 13 31  1  0  0  0
 14 15  2  0  0  0
 14 95  1  0  0  0
 15 96  1  0  0  0
 16 17  2  0  0  0
 16 21  1  0  0  0
 16 31  1  0  0  0
 17 18  1  0  0  0
 17 97  1  0  0  0
 18 19  2  0  0  0
 18 98  1  0  0  0
 19 20  1  0  0  0
 19 24  1  0  0  0
 20 21  2  0  0  0
 20 99  1  0  0  0
 21 23  1  0  0  0
 22 28  1  0  0  0
 22 32  2  0  0  0
 26 27  1  0  0  0
 28100  1  0  0  0
 28101  1  0  0  0
 29102  1  0  0  0
 29103  1  0  0  0
 33 34  1  0  0  0
 33 66  1  0  0  0
 33 70  2  0  0  0
 34 36  1  0  0  0
 34 59  1  0  0  0
 34104  1  0  0  0
 35 44  2  0  0  0
 35 45  1  0  0  0
 35 68  1  0  0  0
 36 56  1  0  0  0
 36105  1  0  0  0
 37 39  1  0  0  0
 37 47  1  0  0  0
 37 66  1  0  0  0
 37106  1  0  0  0
 38 43  2  0  0  0
 38 46  1  0  0  0
 38 47  1  0  0  0
 39 64  1  0  0  0
 39 67  2  0  0  0
 40 52  1  0  0  0
 40 53  2  0  0  0
 40 58  1  0  0  0
 41107  1  0  0  0
 41108  1  0  0  0
 41109  1  0  0  0
 41 48  1  0  0  0
 42 43  1  0  0  0
 42 66  1  0  0  0
 42110  1  0  0  0
 42111  1  0  0  0
 43 44  1  0  0  0
 44112  1  0  0  0
 45 46  2  0  0  0
 45113  1  0  0  0
 46114  1  0  0  0
 47115  1  0  0  0
 47116  1  0  0  0
 48 56  1  0  0  0
 48 65  1  0  0  0
 48117  1  0  0  0
 49 50  1  0  0  0
 49 53  1  0  0  0
 49 64  1  0  0  0
 49118  1  0  0  0
 50 51  1  0  0  0
 50119  1  0  0  0
 50120  1  0  0  0
 51 52  1  0  0  0
 51121  1  0  0  0
 51122  1  0  0  0
 52123  1  0  0  0
 52124  1  0  0  0
 53 54  1  0  0  0
 54 55  2  0  0  0
 54125  1  0  0  0
 55 57  1  0  0  0
 55126  1  0  0  0
 56 69  2  0  0  0
 57 58  2  0  0  0
 57127  1  0  0  0
 58128  1  0  0  0
 59 60  1  0  0  0
 59 61  1  0  0  0
 59 62  1  0  0  0
 60129  1  0  0  0
 60130  1  0  0  0
 60131  1  0  0  0
 61132  1  0  0  0
 61133  1  0  0  0
 61134  1  0  0  0
 62135  1  0  0  0
 62136  1  0  0  0
 62137  1  0  0  0
 63 65  1  0  0  0
 63138  1  0  0  0
 63139  1  0  0  0
 63140  1  0  0  0
 64141  1  0  0  0
 65142  1  0  0  0
 68 79  1  0  0  0
 71 73  1  0  0  0
 71 82  2  0  0  0
 71143  1  0  0  0
 72 73  2  0  0  0
 72 83  1  0  0  0
 72144  1  0  0  0
 73 78  1  0  0  0
 74145  1  0  0  0
 74146  1  0  0  0
 74147  1  0  0  0
 74 80  1  0  0  0
 75 80  1  0  0  0
 75148  1  0  0  0
 75149  1  0  0  0
 75150  1  0  0  0
 76151  1  0  0  0
 76152  1  0  0  0
 76153  1  0  0  0
 76 81  1  0  0  0
 77 81  1  0  0  0
 77154  1  0  0  0
 77155  1  0  0  0
 77156  1  0  0  0
 78 81  1  0  0  0
 78157  1  0  0  0
 78158  1  0  0  0
 79 81  1  0  0  0
 79159  1  0  0  0
 79160  1  0  0  0
 80 83  1  0  0  0
 82 83  1  0  0  0
M  ISO  4   1 100  68 101  79 101  80 100
M  END
> <chiral flag>
0

> <version>
0

> <s_m_source_file>
/data/baiqing/PycharmProjects/Reinvent-master-3.2/result/LINK_invent/BTK/process_docking_weight1_custom_sum_contain_oxygen_bond_distance_aromatic_linkinvent_7_9_3/rearranged_h_0067.sdf

> <i_m_source_file_index>
50

> <r_mmod_Potential_Energy-OPLS-2005>
713.287292480469

> <r_mmod_Stretch_Energy-OPLS-2005>
273.316864013672

> <r_mmod_Bend_Energy-OPLS-2005>
329.666748046875

> <r_mmod_Torsional_Energy-OPLS-2005>
251.466003417969

> <r_mmod_Improper_Torsional_Energy-OPLS-2005>
5.75845432281494

> <r_mmod_Van_der_Waal_Energy-OPLS-2005>
130.803207397461

> <r_mmod_Electrostatic_Energy-OPLS-2005>
-264.169982910156

> <r_mmod_Solvation_Energy-OPLS-2005>
-214.547897338867

> <b_mmod_Minimization_Converged-OPLS-2005>
0

> <r_mmod_RMS_Derivative-OPLS-2005>
3.05522346496582

$$$$
51
                    3D
 Structure written by MMmdl.
151159  0  0  1  0            999 V2000
  -30.4902  -15.0455   20.3951 C   0  0  0  0  0  0
  -30.4386  -12.6427   19.5315 C   0  0  0  0  0  0
  -29.5321  -12.5512   18.2793 C   0  0  0  0  0  0
  -28.0651  -12.3232   18.6880 C   0  0  0  0  0  0
  -27.6278  -13.2586   19.8448 C   0  0  2  0  0  0
  -28.6629  -13.3179   20.9901 C   0  0  0  0  0  0
  -25.2437  -13.8227   20.5728 C   0  0  0  0  0  0
  -24.1768  -13.0435   20.9234 C   0  0  0  0  0  0
  -24.6396  -11.6926   20.8744 C   0  0  0  0  0  0
  -23.9079  -10.4287   21.0391 C   0  0  0  0  0  0
  -24.3627   -9.4207   21.9175 C   0  0  0  0  0  0
  -23.6299   -8.2245   22.0750 C   0  0  0  0  0  0
  -22.4279   -8.0281   21.3547 C   0  0  0  0  0  0
  -21.9917   -9.0250   20.4645 C   0  0  0  0  0  0
  -22.7246  -10.2127   20.3046 C   0  0  0  0  0  0
  -21.6859   -6.0731   22.5277 C   0  0  0  0  0  0
  -21.4019   -6.5638   23.8207 C   0  0  0  0  0  0
  -21.3663   -5.6793   24.9170 C   0  0  0  0  0  0
  -21.6044   -4.3054   24.7226 C   0  0  0  0  0  0
  -21.8820   -3.8145   23.4347 C   0  0  0  0  0  0
  -21.9193   -4.6959   22.3400 C   0  0  0  0  0  0
  -22.7786  -13.5193   21.1890 C   0  0  0  0  0  0
  -22.1663   -4.2143   21.0977 F   0  0  0  0  0  0
  -21.5626   -3.4539   25.7739 F   0  0  0  0  0  0
  -29.9353  -13.7552   20.4007 N   0  0  0  0  0  0
  -26.2871  -12.9479   20.3262 N   0  0  0  0  0  0
  -25.9335  -11.6597   20.5739 N   0  0  0  0  0  0
  -22.0454  -12.8168   22.0450 N   0  0  0  0  0  0
  -25.4101  -15.1958   20.4158 N   0  0  0  0  0  0
  -31.6699  -15.1214   20.0323 O   0  0  0  0  0  0
  -21.6648   -6.8875   21.4240 O   0  0  0  0  0  0
  -22.3459  -14.5491   20.6728 O   0  0  0  0  0  0
  -24.6483  -31.8370   23.1813 C   0  0  0  0  0  0
  -25.9225  -32.4657   23.8226 C   0  0  1  0  0  0
  -27.2278  -27.0683   20.1594 C   0  0  0  0  0  0
  -25.5954  -33.8470   24.2143 N   0  0  0  0  0  0
  -23.4568  -30.4507   21.5271 C   0  0  2  0  0  0
  -24.9113  -28.8652   20.1026 C   0  0  0  0  0  0
  -22.7597  -29.4493   22.4826 C   0  0  0  0  0  0
  -18.0305  -28.1395   22.8471 C   0  0  0  0  0  0
  -24.1492  -36.7236   23.2642 C   0  0  0  0  0  0
  -26.0158  -30.6876   21.3912 C   0  0  0  0  0  0
  -26.0865  -29.2929   20.7313 C   0  0  0  0  0  0
  -27.2375  -28.4096   20.7452 C   0  0  0  0  0  0
  -26.0267  -26.7593   19.4816 C   0  0  0  0  0  0
  -24.8992  -27.6158   19.4603 C   0  0  0  0  0  0
  -23.6883  -29.7736   20.1477 C   0  0  0  0  0  0
  -25.4131  -36.3013   24.0306 C   0  0  1  0  0  0
  -20.5921  -28.3724   23.1227 C   0  0  2  0  0  0
  -20.6789  -26.9418   22.5411 C   0  0  0  0  0  0
  -19.5766  -26.6371   21.5217 C   0  0  0  0  0  0
  -18.1944  -26.7931   22.1621 C   0  0  0  0  0  0
  -19.1564  -28.8877   23.2838 C   0  0  0  0  0  0
  -18.9480  -30.1474   23.8865 C   0  0  0  0  0  0
  -17.6476  -30.6590   24.0555 C   0  0  0  0  0  0
  -25.9086  -34.9389   23.5040 C   0  0  0  0  0  0
  -16.5366  -29.9082   23.6336 C   0  0  0  0  0  0
  -16.7289  -28.6501   23.0354 C   0  0  0  0  0  0
  -26.4531  -31.6553   25.0698 C   0  0  0  0  0  0
  -25.3698  -31.3771   26.1380 C   0  0  0  0  0  0
  -27.0402  -30.2935   24.6335 C   0  0  0  0  0  0
  -27.6044  -32.4337   25.7493 C   0  0  0  0  0  0
  -27.5578  -37.1772   24.8461 C   0  0  0  0  0  0
  -21.4279  -29.3036   22.3586 N   0  0  0  0  0  0
  -26.4285  -37.3737   23.9409 N   0  0  0  0  0  0
  -24.7268  -31.0152   22.0882 N   0  0  0  0  0  0
  -23.4212  -28.8049   23.3005 O   0  0  0  0  0  0
  -28.2589  -26.0479   20.3408 O   0  0  0  0  0  0
  -26.5686  -34.8902   22.4630 O   0  0  0  0  0  0
  -23.5587  -32.1277   23.6992 O   0  0  0  0  0  0
  -28.6654  -23.5063   17.8571 C   0  0  0  0  0  0
  -28.8481  -22.2643   18.5021 C   0  0  0  0  0  0
  -28.7423  -22.2088   19.9057 C   0  0  0  0  0  0
  -28.2951  -24.6985   19.7971 C   0  0  0  0  0  0
  -28.6495  -20.6920   20.6368 C   0  0  0  0  0  0
  -29.6673  -19.2836   20.7099 C   0  0  0  0  0  0
  -29.5826  -17.7186   19.9847 C   0  0  0  0  0  0
  -29.0984  -21.0138   17.6658 C   0  0  0  0  0  0
  -28.3886  -24.6765   18.4772 N   0  0  0  0  0  0
  -28.4861  -23.4926   20.5230 N   0  0  0  0  0  0
  -29.6929  -16.2290   20.6082 N   0  0  0  0  0  0
  -29.1735  -21.2954   16.3655 F   0  0  0  0  0  0
  -30.2499  -20.4526   18.0285 F   0  0  0  0  0  0
  -28.1093  -20.1380   17.8375 F   0  0  0  0  0  0
  -31.4747  -12.8002   19.2289 H   0  0  0  0  0  0
  -30.4348  -11.6977   20.0786 H   0  0  0  0  0  0
  -29.8673  -11.7476   17.6225 H   0  0  0  0  0  0
  -29.6123  -13.4745   17.7033 H   0  0  0  0  0  0
  -27.9683  -11.2824   18.9993 H   0  0  0  0  0  0
  -27.4063  -12.4475   17.8279 H   0  0  0  0  0  0
  -27.5806  -14.2559   19.4064 H   0  0  0  0  0  0
  -28.7651  -12.3496   21.4824 H   0  0  0  0  0  0
  -28.3429  -14.0223   21.7599 H   0  0  0  0  0  0
  -25.2771   -9.5683   22.4754 H   0  0  0  0  0  0
  -24.0013   -7.4630   22.7462 H   0  0  0  0  0  0
  -21.0854   -8.8752   19.8948 H   0  0  0  0  0  0
  -22.3692  -10.9660   19.6154 H   0  0  0  0  0  0
  -21.2020   -7.6147   23.9706 H   0  0  0  0  0  0
  -21.1486   -6.0527   25.9070 H   0  0  0  0  0  0
  -22.0601   -2.7608   23.2847 H   0  0  0  0  0  0
  -22.4094  -11.9837   22.4826 H   0  0  0  0  0  0
  -21.1061  -13.1156   22.2655 H   0  0  0  0  0  0
  -24.6411  -15.8478   20.5282 H   0  0  0  0  0  0
  -26.2509  -15.6348   20.0643 H   0  0  0  0  0  0
  -26.7285  -32.5238   23.0942 H   0  0  0  0  0  0
  -25.0062  -33.9574   25.0264 H   0  0  0  0  0  0
  -22.7627  -31.2784   21.3670 H   0  0  0  0  0  0
  -23.3771  -35.9551   23.3285 H   0  0  0  0  0  0
  -24.3569  -36.8898   22.2060 H   0  0  0  0  0  0
  -23.7227  -37.6414   23.6703 H   0  0  0  0  0  0
  -26.1811  -31.4396   20.6186 H   0  0  0  0  0  0
  -26.8814  -30.7387   22.0399 H   0  0  0  0  0  0
  -28.1230  -28.7260   21.2782 H   0  0  0  0  0  0
  -25.9208  -25.7955   19.0052 H   0  0  0  0  0  0
  -24.0014  -27.2834   18.9578 H   0  0  0  0  0  0
  -23.8279  -30.5473   19.3920 H   0  0  0  0  0  0
  -22.8027  -29.2177   19.8350 H   0  0  0  0  0  0
  -25.1323  -36.1830   25.0797 H   0  0  0  0  0  0
  -21.0008  -28.3320   24.1349 H   0  0  0  0  0  0
  -20.5676  -26.2338   23.3636 H   0  0  0  0  0  0
  -21.6655  -26.7412   22.1214 H   0  0  0  0  0  0
  -19.6932  -25.6274   21.1268 H   0  0  0  0  0  0
  -19.6713  -27.3166   20.6735 H   0  0  0  0  0  0
  -17.4217  -26.6670   21.4022 H   0  0  0  0  0  0
  -18.0345  -26.0078   22.9023 H   0  0  0  0  0  0
  -19.7954  -30.7297   24.2223 H   0  0  0  0  0  0
  -17.5027  -31.6269   24.5157 H   0  0  0  0  0  0
  -15.5367  -30.2976   23.7674 H   0  0  0  0  0  0
  -15.8687  -28.0811   22.7090 H   0  0  0  0  0  0
  -24.5871  -30.7135   25.7686 H   0  0  0  0  0  0
  -24.8902  -32.2970   26.4735 H   0  0  0  0  0  0
  -25.7953  -30.8970   27.0200 H   0  0  0  0  0  0
  -26.3032  -29.6642   24.1333 H   0  0  0  0  0  0
  -27.3971  -29.7254   25.4936 H   0  0  0  0  0  0
  -27.8962  -30.4142   23.9694 H   0  0  0  0  0  0
  -27.2617  -33.3655   26.2004 H   0  0  0  0  0  0
  -28.3892  -32.6868   25.0355 H   0  0  0  0  0  0
  -28.0675  -31.8512   26.5469 H   0  0  0  0  0  0
  -28.2571  -38.0090   24.7529 H   0  0  0  0  0  0
  -28.1097  -36.2619   24.6265 H   0  0  0  0  0  0
  -27.2295  -37.1387   25.8861 H   0  0  0  0  0  0
  -20.9509  -29.8739   21.6745 H   0  0  0  0  0  0
  -26.0146  -38.2798   24.1433 H   0  0  0  0  0  0
  -28.7258  -23.5809   16.7818 H   0  0  0  0  0  0
  -27.6554  -20.3235   20.3836 H   0  0  0  0  0  0
  -28.5402  -20.9768   21.6837 H   0  0  0  0  0  0
  -29.6219  -19.0283   21.7689 H   0  0  0  0  0  0
  -30.6929  -19.6359   20.6012 H   0  0  0  0  0  0
  -30.2962  -17.7306   19.1596 H   0  0  0  0  0  0
  -28.6174  -17.7008   19.4784 H   0  0  0  0  0  0
  -28.8181  -15.9652   21.0399 H   0  0  0  0  0  0
  1 25  1  0  0  0
  1 30  2  0  0  0
  1 81  1  0  0  0
  2  3  1  0  0  0
  2 25  1  0  0  0
  2 85  1  0  0  0
  2 86  1  0  0  0
  3  4  1  0  0  0
  3 87  1  0  0  0
  3 88  1  0  0  0
  4  5  1  0  0  0
  4 89  1  0  0  0
  4 90  1  0  0  0
  5  6  1  0  0  0
  5 26  1  0  0  0
  5 91  1  0  0  0
  6 25  1  0  0  0
  6 92  1  0  0  0
  6 93  1  0  0  0
  7  8  2  0  0  0
  7 26  1  0  0  0
  7 29  1  0  0  0
  8  9  1  0  0  0
  8 22  1  0  0  0
  9 10  1  0  0  0
  9 27  2  0  0  0
 10 11  2  0  0  0
 10 15  1  0  0  0
 11 12  1  0  0  0
 11 94  1  0  0  0
 12 13  2  0  0  0
 12 95  1  0  0  0
 13 14  1  0  0  0
 13 31  1  0  0  0
 14 15  2  0  0  0
 14 96  1  0  0  0
 15 97  1  0  0  0
 16 17  2  0  0  0
 16 21  1  0  0  0
 16 31  1  0  0  0
 17 18  1  0  0  0
 17 98  1  0  0  0
 18 19  2  0  0  0
 18 99  1  0  0  0
 19 20  1  0  0  0
 19 24  1  0  0  0
 20 21  2  0  0  0
 20100  1  0  0  0
 21 23  1  0  0  0
 22 28  1  0  0  0
 22 32  2  0  0  0
 26 27  1  0  0  0
 28101  1  0  0  0
 28102  1  0  0  0
 29103  1  0  0  0
 29104  1  0  0  0
 33 34  1  0  0  0
 33 66  1  0  0  0
 33 70  2  0  0  0
 34 36  1  0  0  0
 34 59  1  0  0  0
 34105  1  0  0  0
 35 44  2  0  0  0
 35 45  1  0  0  0
 35 68  1  0  0  0
 36 56  1  0  0  0
 36106  1  0  0  0
 37 39  1  0  0  0
 37 47  1  0  0  0
 37 66  1  0  0  0
 37107  1  0  0  0
 38 43  2  0  0  0
 38 46  1  0  0  0
 38 47  1  0  0  0
 39 64  1  0  0  0
 39 67  2  0  0  0
 40 52  1  0  0  0
 40 53  2  0  0  0
 40 58  1  0  0  0
 41108  1  0  0  0
 41109  1  0  0  0
 41110  1  0  0  0
 41 48  1  0  0  0
 42 43  1  0  0  0
 42 66  1  0  0  0
 42111  1  0  0  0
 42112  1  0  0  0
 43 44  1  0  0  0
 44113  1  0  0  0
 45 46  2  0  0  0
 45114  1  0  0  0
 46115  1  0  0  0
 47116  1  0  0  0
 47117  1  0  0  0
 48 56  1  0  0  0
 48 65  1  0  0  0
 48118  1  0  0  0
 49 50  1  0  0  0
 49 53  1  0  0  0
 49 64  1  0  0  0
 49119  1  0  0  0
 50 51  1  0  0  0
 50120  1  0  0  0
 50121  1  0  0  0
 51 52  1  0  0  0
 51122  1  0  0  0
 51123  1  0  0  0
 52124  1  0  0  0
 52125  1  0  0  0
 53 54  1  0  0  0
 54 55  2  0  0  0
 54126  1  0  0  0
 55 57  1  0  0  0
 55127  1  0  0  0
 56 69  2  0  0  0
 57 58  2  0  0  0
 57128  1  0  0  0
 58129  1  0  0  0
 59 60  1  0  0  0
 59 61  1  0  0  0
 59 62  1  0  0  0
 60130  1  0  0  0
 60131  1  0  0  0
 60132  1  0  0  0
 61133  1  0  0  0
 61134  1  0  0  0
 61135  1  0  0  0
 62136  1  0  0  0
 62137  1  0  0  0
 62138  1  0  0  0
 63 65  1  0  0  0
 63139  1  0  0  0
 63140  1  0  0  0
 63141  1  0  0  0
 64142  1  0  0  0
 65143  1  0  0  0
 68 74  1  0  0  0
 71 72  2  0  0  0
 71 79  1  0  0  0
 71144  1  0  0  0
 72 73  1  0  0  0
 72 78  1  0  0  0
 73 75  1  0  0  0
 73 80  2  0  0  0
 74 79  2  0  0  0
 74 80  1  0  0  0
 75 76  1  0  0  0
 75145  1  0  0  0
 75146  1  0  0  0
 76 77  1  0  0  0
 76147  1  0  0  0
 76148  1  0  0  0
 77 81  1  0  0  0
 77149  1  0  0  0
 77150  1  0  0  0
 78 82  1  0  0  0
 78 83  1  0  0  0
 78 84  1  0  0  0
 81151  1  0  0  0
M  ISO  4   1 100  68 101  74 101  81 100
M  END
> <chiral flag>
0

> <version>
0

> <s_m_source_file>
/data/baiqing/PycharmProjects/Reinvent-master-3.2/result/LINK_invent/BTK/process_docking_weight1_custom_sum_contain_oxygen_bond_distance_aromatic_linkinvent_7_9_3/rearranged_h_0067.sdf

> <i_m_source_file_index>
51

> <r_mmod_Potential_Energy-OPLS-2005>
410.649780273438

> <r_mmod_Stretch_Energy-OPLS-2005>
348.101867675781

> <r_mmod_Bend_Energy-OPLS-2005>
366.736755371094

> <r_mmod_Torsional_Energy-OPLS-2005>
254.992477416992

> <r_mmod_Improper_Torsional_Energy-OPLS-2005>
9.03616428375244

> <r_mmod_Van_der_Waal_Energy-OPLS-2005>
136.110580444336

> <r_mmod_Electrostatic_Energy-OPLS-2005>
-745.354248046875

> <r_mmod_Solvation_Energy-OPLS-2005>
-228.277359008789

> <b_mmod_Minimization_Converged-OPLS-2005>
0

> <r_mmod_RMS_Derivative-OPLS-2005>
1.12948369979858

$$$$
52
                    3D
 Structure written by MMmdl.
177185  0  0  1  0            999 V2000
  -30.7482  -14.4842   20.6437 C   0  0  0  0  0  0
  -30.4223  -12.3436   19.4349 C   0  0  0  0  0  0
  -29.5008  -12.5113   18.2104 C   0  0  0  0  0  0
  -28.0196  -12.3720   18.6112 C   0  0  0  0  0  0
  -27.6562  -13.2134   19.8623 C   0  0  2  0  0  0
  -28.6911  -12.9996   20.9819 C   0  0  0  0  0  0
  -25.2564  -13.8178   20.5665 C   0  0  0  0  0  0
  -24.1832  -13.0445   20.9185 C   0  0  0  0  0  0
  -24.6391  -11.6910   20.8713 C   0  0  0  0  0  0
  -23.9076  -10.4280   21.0380 C   0  0  0  0  0  0
  -24.3626   -9.4205   21.9172 C   0  0  0  0  0  0
  -23.6315   -8.2232   22.0758 C   0  0  0  0  0  0
  -22.4285   -8.0269   21.3562 C   0  0  0  0  0  0
  -21.9903   -9.0241   20.4660 C   0  0  0  0  0  0
  -22.7242  -10.2112   20.3058 C   0  0  0  0  0  0
  -21.6852   -6.0732   22.5295 C   0  0  0  0  0  0
  -21.3992   -6.5626   23.8232 C   0  0  0  0  0  0
  -21.3662   -5.6777   24.9190 C   0  0  0  0  0  0
  -21.6044   -4.3047   24.7248 C   0  0  0  0  0  0
  -21.8800   -3.8145   23.4374 C   0  0  0  0  0  0
  -21.9187   -4.6958   22.3428 C   0  0  0  0  0  0
  -22.7853  -13.5245   21.1863 C   0  0  0  0  0  0
  -22.1663   -4.2135   21.1010 F   0  0  0  0  0  0
  -21.5643   -3.4530   25.7770 F   0  0  0  0  0  0
  -30.0249  -13.3350   20.4567 N   0  0  0  0  0  0
  -26.3000  -12.9360   20.3292 N   0  0  0  0  0  0
  -25.9313  -11.6519   20.5715 N   0  0  0  0  0  0
  -22.0460  -12.8256   22.0409 N   0  0  0  0  0  0
  -25.4206  -15.1914   20.4041 N   0  0  0  0  0  0
  -31.8296  -14.6365   20.0620 O   0  0  0  0  0  0
  -21.6655   -6.8875   21.4266 O   0  0  0  0  0  0
  -22.3536  -14.5550   20.6725 O   0  0  0  0  0  0
  -24.6181  -31.8654   23.2083 C   0  0  0  0  0  0
  -25.9061  -32.4811   23.8385 C   0  0  1  0  0  0
  -27.2253  -27.3992   20.1044 C   0  0  0  0  0  0
  -25.5914  -33.8601   24.2316 N   0  0  0  0  0  0
  -23.4058  -30.4904   21.5498 C   0  0  2  0  0  0
  -24.8483  -28.9491   20.1176 C   0  0  0  0  0  0
  -22.7416  -29.4660   22.4988 C   0  0  0  0  0  0
  -18.0278  -28.1385   22.8497 C   0  0  0  0  0  0
  -24.1481  -36.7303   23.2640 C   0  0  0  0  0  0
  -25.9379  -30.8194   21.3658 C   0  0  0  0  0  0
  -26.0121  -29.4506   20.7150 C   0  0  0  0  0  0
  -27.2031  -28.6851   20.7004 C   0  0  0  0  0  0
  -26.0419  -26.9218   19.4955 C   0  0  0  0  0  0
  -24.8602  -27.6848   19.5053 C   0  0  0  0  0  0
  -23.6141  -29.8221   20.1653 C   0  0  0  0  0  0
  -25.4107  -36.3101   24.0340 C   0  0  1  0  0  0
  -20.5865  -28.3676   23.1311 C   0  0  2  0  0  0
  -20.6770  -26.9410   22.5418 C   0  0  0  0  0  0
  -19.5748  -26.6388   21.5214 C   0  0  0  0  0  0
  -18.1923  -26.7932   22.1626 C   0  0  0  0  0  0
  -19.1522  -28.8841   23.2902 C   0  0  0  0  0  0
  -18.9454  -30.1453   23.8920 C   0  0  0  0  0  0
  -17.6453  -30.6586   24.0569 C   0  0  0  0  0  0
  -25.9041  -34.9472   23.5118 C   0  0  0  0  0  0
  -16.5345  -29.9094   23.6330 C   0  0  0  0  0  0
  -16.7264  -28.6504   23.0356 C   0  0  0  0  0  0
  -26.4480  -31.6603   25.0724 C   0  0  0  0  0  0
  -25.3747  -31.3718   26.1478 C   0  0  0  0  0  0
  -27.0310  -30.3044   24.6120 C   0  0  0  0  0  0
  -27.6051  -32.4333   25.7487 C   0  0  0  0  0  0
  -27.5579  -37.1803   24.8467 C   0  0  0  0  0  0
  -21.4135  -29.3040   22.3713 N   0  0  0  0  0  0
  -26.4289  -37.3794   23.9413 N   0  0  0  0  0  0
  -24.6731  -31.0737   22.0996 N   0  0  0  0  0  0
  -23.4170  -28.8210   23.3038 O   0  0  0  0  0  0
  -28.3961  -26.6623   20.0883 O   0  0  0  0  0  0
  -26.5600  -34.8925   22.4683 O   0  0  0  0  0  0
  -23.5366  -32.1421   23.7459 O   0  0  0  0  0  0
  -29.7113  -21.8238   19.7041 C   0  0  0  0  0  0
  -30.0133  -21.3997   21.7947 C   0  0  0  0  0  0
  -29.6680  -23.0231   20.4029 C   0  0  0  0  0  0
  -31.0475  -24.3373   16.1838 C   0  0  0  0  0  0
  -30.4920  -19.1831   18.7566 C   0  0  0  0  0  0
  -30.8360  -25.2293   20.5413 C   0  0  0  0  0  0
  -29.2023  -18.4829   22.4442 C   0  0  0  0  0  0
  -28.3761  -17.7211   20.2404 C   0  0  0  0  0  0
  -29.8926  -15.3137   22.7721 C   0  0  0  0  0  0
  -31.0898  -24.2615   17.7162 C   0  0  0  0  0  0
  -29.7210  -24.5763   18.3609 C   0  0  0  0  0  0
  -30.6700  -16.9256   21.0637 C   0  0  0  0  0  0
  -28.3244  -25.2326   20.3425 C   0  0  0  0  0  0
  -30.3803  -19.3697   20.2916 C   0  0  2  0  0  0
  -29.6328  -24.4879   19.9167 C   0  0  1  0  0  0
  -29.6493  -18.1354   21.0073 C   0  0  0  0  0  0
  -29.8012  -22.7139   21.7575 N   0  0  0  0  0  0
  -29.9878  -20.7773   20.6045 N   0  0  0  0  0  0
  -30.1972  -15.5271   21.3479 N   0  0  0  0  0  0
  -31.4659  -12.4403   19.1276 H   0  0  0  0  0  0
  -30.3382  -11.3368   19.8448 H   0  0  0  0  0  0
  -29.7560  -11.7714   17.4508 H   0  0  0  0  0  0
  -29.6719  -13.4862   17.7520 H   0  0  0  0  0  0
  -27.8299  -11.3158   18.8081 H   0  0  0  0  0  0
  -27.3764  -12.6483   17.7749 H   0  0  0  0  0  0
  -27.6983  -14.2617   19.5667 H   0  0  0  0  0  0
  -28.6846  -11.9598   21.3110 H   0  0  0  0  0  0
  -28.3905  -13.5714   21.8506 H   0  0  0  0  0  0
  -25.2744   -9.5711   22.4785 H   0  0  0  0  0  0
  -24.0003   -7.4627   22.7495 H   0  0  0  0  0  0
  -21.0816   -8.8770   19.8987 H   0  0  0  0  0  0
  -22.3698  -10.9660   19.6177 H   0  0  0  0  0  0
  -21.1998   -7.6137   23.9737 H   0  0  0  0  0  0
  -21.1508   -6.0514   25.9091 H   0  0  0  0  0  0
  -22.0596   -2.7612   23.2898 H   0  0  0  0  0  0
  -22.4031  -11.9936   22.4856 H   0  0  0  0  0  0
  -21.1084  -13.1320   22.2576 H   0  0  0  0  0  0
  -24.6462  -15.8384   20.4994 H   0  0  0  0  0  0
  -26.2704  -15.6381   20.0853 H   0  0  0  0  0  0
  -26.7135  -32.5496   23.1147 H   0  0  0  0  0  0
  -25.0094  -33.9771   25.0479 H   0  0  0  0  0  0
  -22.6974  -31.3095   21.4105 H   0  0  0  0  0  0
  -23.3742  -35.9634   23.3308 H   0  0  0  0  0  0
  -24.3577  -36.8907   22.2053 H   0  0  0  0  0  0
  -23.7227  -37.6508   23.6645 H   0  0  0  0  0  0
  -26.0555  -31.5807   20.5937 H   0  0  0  0  0  0
  -26.8257  -30.8717   21.9858 H   0  0  0  0  0  0
  -28.1045  -29.0678   21.1596 H   0  0  0  0  0  0
  -26.0140  -25.9693   18.9889 H   0  0  0  0  0  0
  -23.9694  -27.2953   19.0325 H   0  0  0  0  0  0
  -23.7252  -30.5954   19.4041 H   0  0  0  0  0  0
  -22.7352  -29.2462   19.8704 H   0  0  0  0  0  0
  -25.1278  -36.1969   25.0832 H   0  0  0  0  0  0
  -20.9971  -28.3245   24.1425 H   0  0  0  0  0  0
  -20.5670  -26.2284   23.3607 H   0  0  0  0  0  0
  -21.6641  -26.7448   22.1210 H   0  0  0  0  0  0
  -19.6904  -25.6297   21.1248 H   0  0  0  0  0  0
  -19.6690  -27.3194   20.6740 H   0  0  0  0  0  0
  -17.4195  -26.6685   21.4025 H   0  0  0  0  0  0
  -18.0323  -26.0072   22.9020 H   0  0  0  0  0  0
  -19.7926  -30.7260   24.2296 H   0  0  0  0  0  0
  -17.5010  -31.6273   24.5169 H   0  0  0  0  0  0
  -15.5346  -30.3005   23.7639 H   0  0  0  0  0  0
  -15.8666  -28.0831   22.7070 H   0  0  0  0  0  0
  -24.5920  -30.7064   25.7818 H   0  0  0  0  0  0
  -24.8944  -32.2874   26.4936 H   0  0  0  0  0  0
  -25.8110  -30.8885   27.0231 H   0  0  0  0  0  0
  -26.2854  -29.6813   24.1174 H   0  0  0  0  0  0
  -27.4066  -29.7283   25.4586 H   0  0  0  0  0  0
  -27.8696  -30.4352   23.9279 H   0  0  0  0  0  0
  -27.2666  -33.3628   26.2084 H   0  0  0  0  0  0
  -28.3852  -32.6913   25.0309 H   0  0  0  0  0  0
  -28.0737  -31.8454   26.5393 H   0  0  0  0  0  0
  -28.2600  -38.0100   24.7522 H   0  0  0  0  0  0
  -28.1073  -36.2631   24.6277 H   0  0  0  0  0  0
  -27.2305  -37.1441   25.8874 H   0  0  0  0  0  0
  -20.9298  -29.8763   21.6939 H   0  0  0  0  0  0
  -26.0175  -38.2866   24.1428 H   0  0  0  0  0  0
  -29.6636  -21.6593   18.6375 H   0  0  0  0  0  0
  -30.2602  -20.9001   22.7183 H   0  0  0  0  0  0
  -32.0443  -24.2040   15.7620 H   0  0  0  0  0  0
  -30.6756  -25.3044   15.8430 H   0  0  0  0  0  0
  -30.4033  -23.5642   15.7650 H   0  0  0  0  0  0
  -30.8615  -18.2032   18.4665 H   0  0  0  0  0  0
  -31.1885  -19.9032   18.3250 H   0  0  0  0  0  0
  -29.5258  -19.3153   18.2678 H   0  0  0  0  0  0
  -31.7709  -24.6964   20.3676 H   0  0  0  0  0  0
  -30.7236  -25.3231   21.6214 H   0  0  0  0  0  0
  -30.9436  -26.2351   20.1367 H   0  0  0  0  0  0
  -28.6634  -17.6679   22.9191 H   0  0  0  0  0  0
  -28.5052  -19.3206   22.4559 H   0  0  0  0  0  0
  -30.0508  -18.7208   23.0868 H   0  0  0  0  0  0
  -27.8086  -16.9672   20.7872 H   0  0  0  0  0  0
  -28.6086  -17.2886   19.2666 H   0  0  0  0  0  0
  -27.7174  -18.5757   20.0786 H   0  0  0  0  0  0
  -28.8307  -15.4699   22.9591 H   0  0  0  0  0  0
  -30.4419  -15.9978   23.4186 H   0  0  0  0  0  0
  -30.1425  -14.3052   23.1087 H   0  0  0  0  0  0
  -31.8344  -24.9796   18.0604 H   0  0  0  0  0  0
  -31.4469  -23.2780   18.0206 H   0  0  0  0  0  0
  -28.9509  -23.9422   17.9191 H   0  0  0  0  0  0
  -29.4647  -25.5915   18.0547 H   0  0  0  0  0  0
  -31.4755  -17.1629   21.7579 H   0  0  0  0  0  0
  -31.1702  -16.9177   20.0987 H   0  0  0  0  0  0
  -28.1565  -25.1004   21.4121 H   0  0  0  0  0  0
  -27.4856  -24.7478   19.8465 H   0  0  0  0  0  0
  -31.4077  -19.3304   20.6563 H   0  0  0  0  0  0
  1 25  1  0  0  0
  1 30  2  0  0  0
  1 89  1  0  0  0
  2  3  1  0  0  0
  2 25  1  0  0  0
  2 90  1  0  0  0
  2 91  1  0  0  0
  3  4  1  0  0  0
  3 92  1  0  0  0
  3 93  1  0  0  0
  4  5  1  0  0  0
  4 94  1  0  0  0
  4 95  1  0  0  0
  5  6  1  0  0  0
  5 26  1  0  0  0
  5 96  1  0  0  0
  6 25  1  0  0  0
  6 97  1  0  0  0
  6 98  1  0  0  0
  7  8  2  0  0  0
  7 26  1  0  0  0
  7 29  1  0  0  0
  8  9  1  0  0  0
  8 22  1  0  0  0
  9 10  1  0  0  0
  9 27  2  0  0  0
 10 11  2  0  0  0
 10 15  1  0  0  0
 11 12  1  0  0  0
 11 99  1  0  0  0
 12 13  2  0  0  0
 12100  1  0  0  0
 13 14  1  0  0  0
 13 31  1  0  0  0
 14 15  2  0  0  0
 14101  1  0  0  0
 15102  1  0  0  0
 16 17  2  0  0  0
 16 21  1  0  0  0
 16 31  1  0  0  0
 17 18  1  0  0  0
 17103  1  0  0  0
 18 19  2  0  0  0
 18104  1  0  0  0
 19 20  1  0  0  0
 19 24  1  0  0  0
 20 21  2  0  0  0
 20105  1  0  0  0
 21 23  1  0  0  0
 22 28  1  0  0  0
 22 32  2  0  0  0
 26 27  1  0  0  0
 28106  1  0  0  0
 28107  1  0  0  0
 29108  1  0  0  0
 29109  1  0  0  0
 33 34  1  0  0  0
 33 66  1  0  0  0
 33 70  2  0  0  0
 34 36  1  0  0  0
 34 59  1  0  0  0
 34110  1  0  0  0
 35 44  2  0  0  0
 35 45  1  0  0  0
 35 68  1  0  0  0
 36 56  1  0  0  0
 36111  1  0  0  0
 37 39  1  0  0  0
 37 47  1  0  0  0
 37 66  1  0  0  0
 37112  1  0  0  0
 38 43  2  0  0  0
 38 46  1  0  0  0
 38 47  1  0  0  0
 39 64  1  0  0  0
 39 67  2  0  0  0
 40 52  1  0  0  0
 40 53  2  0  0  0
 40 58  1  0  0  0
 41113  1  0  0  0
 41114  1  0  0  0
 41115  1  0  0  0
 41 48  1  0  0  0
 42 43  1  0  0  0
 42 66  1  0  0  0
 42116  1  0  0  0
 42117  1  0  0  0
 43 44  1  0  0  0
 44118  1  0  0  0
 45 46  2  0  0  0
 45119  1  0  0  0
 46120  1  0  0  0
 47121  1  0  0  0
 47122  1  0  0  0
 48 56  1  0  0  0
 48 65  1  0  0  0
 48123  1  0  0  0
 49 50  1  0  0  0
 49 53  1  0  0  0
 49 64  1  0  0  0
 49124  1  0  0  0
 50 51  1  0  0  0
 50125  1  0  0  0
 50126  1  0  0  0
 51 52  1  0  0  0
 51127  1  0  0  0
 51128  1  0  0  0
 52129  1  0  0  0
 52130  1  0  0  0
 53 54  1  0  0  0
 54 55  2  0  0  0
 54131  1  0  0  0
 55 57  1  0  0  0
 55132  1  0  0  0
 56 69  2  0  0  0
 57 58  2  0  0  0
 57133  1  0  0  0
 58134  1  0  0  0
 59 60  1  0  0  0
 59 61  1  0  0  0
 59 62  1  0  0  0
 60135  1  0  0  0
 60136  1  0  0  0
 60137  1  0  0  0
 61138  1  0  0  0
 61139  1  0  0  0
 61140  1  0  0  0
 62141  1  0  0  0
 62142  1  0  0  0
 62143  1  0  0  0
 63 65  1  0  0  0
 63144  1  0  0  0
 63145  1  0  0  0
 63146  1  0  0  0
 64147  1  0  0  0
 65148  1  0  0  0
 68 83  1  0  0  0
 71 73  2  0  0  0
 71 88  1  0  0  0
 71149  1  0  0  0
 72 87  2  0  0  0
 72 88  1  0  0  0
 72150  1  0  0  0
 73 85  1  0  0  0
 73 87  1  0  0  0
 74 80  1  0  0  0
 74151  1  0  0  0
 74152  1  0  0  0
 74153  1  0  0  0
 75154  1  0  0  0
 75155  1  0  0  0
 75156  1  0  0  0
 75 84  1  0  0  0
 76157  1  0  0  0
 76158  1  0  0  0
 76159  1  0  0  0
 76 85  1  0  0  0
 77160  1  0  0  0
 77161  1  0  0  0
 77162  1  0  0  0
 77 86  1  0  0  0
 78 86  1  0  0  0
 78163  1  0  0  0
 78164  1  0  0  0
 78165  1  0  0  0
 79 89  1  0  0  0
 79166  1  0  0  0
 79167  1  0  0  0
 79168  1  0  0  0
 80 81  1  0  0  0
 80169  1  0  0  0
 80170  1  0  0  0
 81 85  1  0  0  0
 81171  1  0  0  0
 81172  1  0  0  0
 82 86  1  0  0  0
 82 89  1  0  0  0
 82173  1  0  0  0
 82174  1  0  0  0
 83 85  1  0  0  0
 83175  1  0  0  0
 83176  1  0  0  0
 84 86  1  0  0  0
 84 88  1  0  0  0
 84177  1  0  0  0
M  ISO  4   1 100  68 101  83 101  89 100
M  END
> <chiral flag>
0

> <version>
0

> <s_m_source_file>
/data/baiqing/PycharmProjects/Reinvent-master-3.2/result/LINK_invent/BTK/process_docking_weight1_custom_sum_contain_oxygen_bond_distance_aromatic_linkinvent_7_9_3/rearranged_h_0067.sdf

> <i_m_source_file_index>
52

> <r_mmod_Potential_Energy-OPLS-2005>
208.366775512695

> <r_mmod_Stretch_Energy-OPLS-2005>
65.0136489868164

> <r_mmod_Bend_Energy-OPLS-2005>
156.234710693359

> <r_mmod_Torsional_Energy-OPLS-2005>
317.43896484375

> <r_mmod_Improper_Torsional_Energy-OPLS-2005>
8.19332885742188

> <r_mmod_Van_der_Waal_Energy-OPLS-2005>
156.449035644531

> <r_mmod_Electrostatic_Energy-OPLS-2005>
-322.040008544922

> <r_mmod_Solvation_Energy-OPLS-2005>
-188.207977294922

> <b_mmod_Minimization_Converged-OPLS-2005>
0

> <r_mmod_RMS_Derivative-OPLS-2005>
3.10072302818298

$$$$
53
                    3D
 Structure written by MMmdl.
178186  0  0  1  0            999 V2000
  -30.8202  -14.5950   20.3917 C   0  0  0  0  0  0
  -30.3670  -12.3734   19.4553 C   0  0  0  0  0  0
  -29.4723  -12.4527   18.2097 C   0  0  0  0  0  0
  -28.0070  -12.2988   18.6428 C   0  0  0  0  0  0
  -27.6182  -13.2380   19.8162 C   0  0  2  0  0  0
  -28.6762  -13.2813   20.9366 C   0  0  0  0  0  0
  -25.2503  -13.8188   20.5920 C   0  0  0  0  0  0
  -24.1752  -13.0409   20.9239 C   0  0  0  0  0  0
  -24.6348  -11.6906   20.8720 C   0  0  0  0  0  0
  -23.9028  -10.4287   21.0381 C   0  0  0  0  0  0
  -24.3592   -9.4207   21.9164 C   0  0  0  0  0  0
  -23.6269   -8.2238   22.0750 C   0  0  0  0  0  0
  -22.4251   -8.0276   21.3536 C   0  0  0  0  0  0
  -21.9876   -9.0250   20.4638 C   0  0  0  0  0  0
  -22.7201  -10.2129   20.3037 C   0  0  0  0  0  0
  -21.6863   -6.0729   22.5294 C   0  0  0  0  0  0
  -21.4019   -6.5634   23.8225 C   0  0  0  0  0  0
  -21.3658   -5.6795   24.9186 C   0  0  0  0  0  0
  -21.6022   -4.3054   24.7244 C   0  0  0  0  0  0
  -21.8821   -3.8141   23.4367 C   0  0  0  0  0  0
  -21.9190   -4.6953   22.3412 C   0  0  0  0  0  0
  -22.7785  -13.5228   21.1873 C   0  0  0  0  0  0
  -22.1665   -4.2136   21.0997 F   0  0  0  0  0  0
  -21.5605   -3.4538   25.7749 F   0  0  0  0  0  0
  -29.9853  -13.5110   20.3212 N   0  0  0  0  0  0
  -26.2852  -12.9417   20.3249 N   0  0  0  0  0  0
  -25.9272  -11.6544   20.5706 N   0  0  0  0  0  0
  -22.0413  -12.8230   22.0426 N   0  0  0  0  0  0
  -25.4253  -15.1910   20.4793 N   0  0  0  0  0  0
  -32.0157  -14.3478   20.3394 O   0  0  0  0  0  0
  -21.6622   -6.8873   21.4257 O   0  0  0  0  0  0
  -22.3480  -14.5512   20.6695 O   0  0  0  0  0  0
  -24.6180  -31.8657   23.2054 C   0  0  0  0  0  0
  -25.9053  -32.4810   23.8374 C   0  0  1  0  0  0
  -27.2199  -27.3965   20.1230 C   0  0  0  0  0  0
  -25.5902  -33.8602   24.2299 N   0  0  0  0  0  0
  -23.4083  -30.4850   21.5465 C   0  0  2  0  0  0
  -24.8540  -28.9484   20.1125 C   0  0  0  0  0  0
  -22.7446  -29.4640   22.4977 C   0  0  0  0  0  0
  -18.0292  -28.1372   22.8479 C   0  0  0  0  0  0
  -24.1480  -36.7290   23.2630 C   0  0  0  0  0  0
  -25.9390  -30.8251   21.3596 C   0  0  0  0  0  0
  -26.0162  -29.4549   20.7092 C   0  0  0  0  0  0
  -27.2071  -28.6873   20.7068 C   0  0  0  0  0  0
  -26.0470  -26.9131   19.5120 C   0  0  0  0  0  0
  -24.8663  -27.6793   19.5058 C   0  0  0  0  0  0
  -23.6179  -29.8169   20.1627 C   0  0  0  0  0  0
  -25.4112  -36.3111   24.0331 C   0  0  1  0  0  0
  -20.5877  -28.3684   23.1321 C   0  0  2  0  0  0
  -20.6787  -26.9403   22.5440 C   0  0  0  0  0  0
  -19.5782  -26.6383   21.5231 C   0  0  0  0  0  0
  -18.1953  -26.7913   22.1610 C   0  0  0  0  0  0
  -19.1537  -28.8840   23.2880 C   0  0  0  0  0  0
  -18.9447  -30.1443   23.8881 C   0  0  0  0  0  0
  -17.6437  -30.6571   24.0547 C   0  0  0  0  0  0
  -25.9046  -34.9474   23.5113 C   0  0  0  0  0  0
  -16.5339  -29.9048   23.6315 C   0  0  0  0  0  0
  -16.7274  -28.6473   23.0333 C   0  0  0  0  0  0
  -26.4482  -31.6594   25.0706 C   0  0  0  0  0  0
  -25.3749  -31.3684   26.1453 C   0  0  0  0  0  0
  -27.0303  -30.3034   24.6072 C   0  0  0  0  0  0
  -27.6072  -32.4312   25.7467 C   0  0  0  0  0  0
  -27.5578  -37.1805   24.8474 C   0  0  0  0  0  0
  -21.4166  -29.3047   22.3732 N   0  0  0  0  0  0
  -26.4301  -37.3797   23.9407 N   0  0  0  0  0  0
  -24.6737  -31.0744   22.0948 N   0  0  0  0  0  0
  -23.4221  -28.8200   23.3038 O   0  0  0  0  0  0
  -28.3443  -26.5959   20.1539 O   0  0  0  0  0  0
  -26.5607  -34.8936   22.4675 O   0  0  0  0  0  0
  -23.5369  -32.1422   23.7429 O   0  0  0  0  0  0
  -28.2446  -16.8525   19.3397 C   0  0  0  0  0  0
  -27.5297  -18.0266   19.4399 C   0  0  0  0  0  0
  -28.1304  -18.7014   20.5656 C   0  0  0  0  0  0
  -27.1069  -19.4303   17.4109 C   0  0  0  0  0  0
  -25.3006  -19.2121   19.1931 C   0  0  0  0  0  0
  -25.8330  -17.3332   17.6707 C   0  0  0  0  0  0
  -31.2955  -16.1010   17.7379 C   0  0  0  0  0  0
  -31.1201  -18.3317   18.7775 C   0  0  0  0  0  0
  -32.9830  -16.9037   19.4364 C   0  0  0  0  0  0
  -27.8852  -20.0905   21.2084 C   0  0  0  0  0  0
  -28.1878  -21.3713   20.3485 C   0  0  0  0  0  0
  -28.1347  -22.7548   21.0926 C   0  0  0  0  0  0
  -28.2726  -24.0353   20.1929 C   0  0  0  0  0  0
  -28.2165  -25.3962   20.9619 C   0  0  0  0  0  0
  -30.5667  -16.1708   20.2520 C   0  0  1  0  0  0
  -26.4560  -18.5057   18.4581 C   0  0  0  0  0  0
  -31.4680  -16.8470   19.0875 C   0  0  0  0  0  0
  -29.0947  -17.9391   21.0882 N   0  0  0  0  0  0
  -29.2389  -16.8354   20.2940 N   0  0  0  0  0  0
  -31.4150  -12.3773   19.1489 H   0  0  0  0  0  0
  -30.2191  -11.4306   19.9818 H   0  0  0  0  0  0
  -29.7396  -11.6657   17.5032 H   0  0  0  0  0  0
  -29.6172  -13.4019   17.6895 H   0  0  0  0  0  0
  -27.8746  -11.2615   18.9502 H   0  0  0  0  0  0
  -27.3353  -12.4473   17.7964 H   0  0  0  0  0  0
  -27.5717  -14.2284   19.3792 H   0  0  0  0  0  0
  -28.6827  -12.3499   21.5025 H   0  0  0  0  0  0
  -28.4497  -14.0810   21.6435 H   0  0  0  0  0  0
  -25.2742   -9.5694   22.4730 H   0  0  0  0  0  0
  -23.9977   -7.4648   22.7479 H   0  0  0  0  0  0
  -21.0796   -8.8774   19.8958 H   0  0  0  0  0  0
  -22.3660  -10.9662   19.6145 H   0  0  0  0  0  0
  -21.2033   -7.6153   23.9738 H   0  0  0  0  0  0
  -21.1459   -6.0514   25.9085 H   0  0  0  0  0  0
  -22.0593   -2.7605   23.2880 H   0  0  0  0  0  0
  -22.4040  -11.9887   22.4805 H   0  0  0  0  0  0
  -21.1041  -13.1267   22.2621 H   0  0  0  0  0  0
  -24.6758  -15.8429   20.6802 H   0  0  0  0  0  0
  -26.3070  -15.6532   20.3043 H   0  0  0  0  0  0
  -26.7103  -32.5527   23.1128 H   0  0  0  0  0  0
  -25.0062  -33.9760   25.0447 H   0  0  0  0  0  0
  -22.6973  -31.3019   21.4069 H   0  0  0  0  0  0
  -23.3755  -35.9608   23.3319 H   0  0  0  0  0  0
  -24.3570  -36.8887   22.2047 H   0  0  0  0  0  0
  -23.7233  -37.6497   23.6623 H   0  0  0  0  0  0
  -26.0492  -31.5848   20.5852 H   0  0  0  0  0  0
  -26.8285  -30.8838   21.9745 H   0  0  0  0  0  0
  -28.1017  -29.0642   21.1813 H   0  0  0  0  0  0
  -26.0456  -25.9335   19.0541 H   0  0  0  0  0  0
  -23.9749  -27.2817   19.0414 H   0  0  0  0  0  0
  -23.7235  -30.5885   19.4002 H   0  0  0  0  0  0
  -22.7432  -29.2347   19.8681 H   0  0  0  0  0  0
  -25.1281  -36.1976   25.0825 H   0  0  0  0  0  0
  -20.9976  -28.3265   24.1442 H   0  0  0  0  0  0
  -20.5711  -26.2281   23.3629 H   0  0  0  0  0  0
  -21.6655  -26.7453   22.1226 H   0  0  0  0  0  0
  -19.6956  -25.6320   21.1197 H   0  0  0  0  0  0
  -19.6699  -27.3223   20.6793 H   0  0  0  0  0  0
  -17.4240  -26.6681   21.3980 H   0  0  0  0  0  0
  -18.0310  -26.0045   22.8992 H   0  0  0  0  0  0
  -19.7930  -30.7271   24.2240 H   0  0  0  0  0  0
  -17.4981  -31.6254   24.5117 H   0  0  0  0  0  0
  -15.5337  -30.2938   23.7612 H   0  0  0  0  0  0
  -15.8682  -28.0781   22.7040 H   0  0  0  0  0  0
  -24.5958  -30.6980   25.7789 H   0  0  0  0  0  0
  -24.8890  -32.2824   26.4883 H   0  0  0  0  0  0
  -25.8134  -30.8892   27.0218 H   0  0  0  0  0  0
  -26.2827  -29.6802   24.1143 H   0  0  0  0  0  0
  -27.4092  -29.7268   25.4525 H   0  0  0  0  0  0
  -27.8655  -30.4360   23.9184 H   0  0  0  0  0  0
  -27.2700  -33.3627   26.2032 H   0  0  0  0  0  0
  -28.3883  -32.6852   25.0276 H   0  0  0  0  0  0
  -28.0719  -31.8435   26.5395 H   0  0  0  0  0  0
  -28.2610  -38.0087   24.7511 H   0  0  0  0  0  0
  -28.1056  -36.2627   24.6305 H   0  0  0  0  0  0
  -27.2288  -37.1461   25.8874 H   0  0  0  0  0  0
  -20.9337  -29.8773   21.6942 H   0  0  0  0  0  0
  -26.0188  -38.2869   24.1410 H   0  0  0  0  0  0
  -28.2256  -16.1123   18.5560 H   0  0  0  0  0  0
  -27.6874  -20.2354   17.8467 H   0  0  0  0  0  0
  -26.3585  -19.8867   16.7623 H   0  0  0  0  0  0
  -27.7971  -18.8767   16.7729 H   0  0  0  0  0  0
  -25.6100  -20.1168   19.7064 H   0  0  0  0  0  0
  -24.8381  -18.5529   19.9292 H   0  0  0  0  0  0
  -24.5141  -19.5037   18.4957 H   0  0  0  0  0  0
  -26.5730  -16.7663   17.1039 H   0  0  0  0  0  0
  -25.1043  -17.6971   16.9454 H   0  0  0  0  0  0
  -25.3014  -16.6373   18.3153 H   0  0  0  0  0  0
  -31.8900  -16.5628   16.9464 H   0  0  0  0  0  0
  -30.2584  -16.1119   17.3976 H   0  0  0  0  0  0
  -31.6145  -15.0598   17.7849 H   0  0  0  0  0  0
  -31.7972  -18.7592   18.0378 H   0  0  0  0  0  0
  -31.1869  -18.9618   19.6647 H   0  0  0  0  0  0
  -30.1254  -18.4552   18.3519 H   0  0  0  0  0  0
  -33.5365  -17.5326   18.7374 H   0  0  0  0  0  0
  -33.4833  -15.9389   19.3840 H   0  0  0  0  0  0
  -33.1489  -17.3125   20.4329 H   0  0  0  0  0  0
  -28.4930  -20.1684   22.1112 H   0  0  0  0  0  0
  -26.8623  -20.1402   21.5781 H   0  0  0  0  0  0
  -27.4597  -21.4284   19.5465 H   0  0  0  0  0  0
  -29.1650  -21.2585   19.8771 H   0  0  0  0  0  0
  -28.9131  -22.7773   21.8562 H   0  0  0  0  0  0
  -27.1912  -22.8258   21.6345 H   0  0  0  0  0  0
  -27.4883  -24.0287   19.4371 H   0  0  0  0  0  0
  -29.2155  -23.9900   19.6485 H   0  0  0  0  0  0
  -29.0369  -25.4233   21.6785 H   0  0  0  0  0  0
  -27.3111  -25.4325   21.5723 H   0  0  0  0  0  0
  -31.0321  -16.5123   21.1769 H   0  0  0  0  0  0
  1 25  1  0  0  0
  1 30  2  0  0  0
  1 85  1  0  0  0
  2  3  1  0  0  0
  2 25  1  0  0  0
  2 90  1  0  0  0
  2 91  1  0  0  0
  3  4  1  0  0  0
  3 92  1  0  0  0
  3 93  1  0  0  0
  4  5  1  0  0  0
  4 94  1  0  0  0
  4 95  1  0  0  0
  5  6  1  0  0  0
  5 26  1  0  0  0
  5 96  1  0  0  0
  6 25  1  0  0  0
  6 97  1  0  0  0
  6 98  1  0  0  0
  7  8  2  0  0  0
  7 26  1  0  0  0
  7 29  1  0  0  0
  8  9  1  0  0  0
  8 22  1  0  0  0
  9 10  1  0  0  0
  9 27  2  0  0  0
 10 11  2  0  0  0
 10 15  1  0  0  0
 11 12  1  0  0  0
 11 99  1  0  0  0
 12 13  2  0  0  0
 12100  1  0  0  0
 13 14  1  0  0  0
 13 31  1  0  0  0
 14 15  2  0  0  0
 14101  1  0  0  0
 15102  1  0  0  0
 16 17  2  0  0  0
 16 21  1  0  0  0
 16 31  1  0  0  0
 17 18  1  0  0  0
 17103  1  0  0  0
 18 19  2  0  0  0
 18104  1  0  0  0
 19 20  1  0  0  0
 19 24  1  0  0  0
 20 21  2  0  0  0
 20105  1  0  0  0
 21 23  1  0  0  0
 22 28  1  0  0  0
 22 32  2  0  0  0
 26 27  1  0  0  0
 28106  1  0  0  0
 28107  1  0  0  0
 29108  1  0  0  0
 29109  1  0  0  0
 33 34  1  0  0  0
 33 66  1  0  0  0
 33 70  2  0  0  0
 34 36  1  0  0  0
 34 59  1  0  0  0
 34110  1  0  0  0
 35 44  2  0  0  0
 35 45  1  0  0  0
 35 68  1  0  0  0
 36 56  1  0  0  0
 36111  1  0  0  0
 37 39  1  0  0  0
 37 47  1  0  0  0
 37 66  1  0  0  0
 37112  1  0  0  0
 38 43  2  0  0  0
 38 46  1  0  0  0
 38 47  1  0  0  0
 39 64  1  0  0  0
 39 67  2  0  0  0
 40 52  1  0  0  0
 40 53  2  0  0  0
 40 58  1  0  0  0
 41113  1  0  0  0
 41114  1  0  0  0
 41115  1  0  0  0
 41 48  1  0  0  0
 42 43  1  0  0  0
 42 66  1  0  0  0
 42116  1  0  0  0
 42117  1  0  0  0
 43 44  1  0  0  0
 44118  1  0  0  0
 45 46  2  0  0  0
 45119  1  0  0  0
 46120  1  0  0  0
 47121  1  0  0  0
 47122  1  0  0  0
 48 56  1  0  0  0
 48 65  1  0  0  0
 48123  1  0  0  0
 49 50  1  0  0  0
 49 53  1  0  0  0
 49 64  1  0  0  0
 49124  1  0  0  0
 50 51  1  0  0  0
 50125  1  0  0  0
 50126  1  0  0  0
 51 52  1  0  0  0
 51127  1  0  0  0
 51128  1  0  0  0
 52129  1  0  0  0
 52130  1  0  0  0
 53 54  1  0  0  0
 54 55  2  0  0  0
 54131  1  0  0  0
 55 57  1  0  0  0
 55132  1  0  0  0
 56 69  2  0  0  0
 57 58  2  0  0  0
 57133  1  0  0  0
 58134  1  0  0  0
 59 60  1  0  0  0
 59 61  1  0  0  0
 59 62  1  0  0  0
 60135  1  0  0  0
 60136  1  0  0  0
 60137  1  0  0  0
 61138  1  0  0  0
 61139  1  0  0  0
 61140  1  0  0  0
 62141  1  0  0  0
 62142  1  0  0  0
 62143  1  0  0  0
 63 65  1  0  0  0
 63144  1  0  0  0
 63145  1  0  0  0
 63146  1  0  0  0
 64147  1  0  0  0
 65148  1  0  0  0
 68 84  1  0  0  0
 71 72  2  0  0  0
 71 89  1  0  0  0
 71149  1  0  0  0
 72 73  1  0  0  0
 72 86  1  0  0  0
 73 80  1  0  0  0
 73 88  2  0  0  0
 74150  1  0  0  0
 74151  1  0  0  0
 74152  1  0  0  0
 74 86  1  0  0  0
 75 86  1  0  0  0
 75153  1  0  0  0
 75154  1  0  0  0
 75155  1  0  0  0
 76 86  1  0  0  0
 76156  1  0  0  0
 76157  1  0  0  0
 76158  1  0  0  0
 77159  1  0  0  0
 77160  1  0  0  0
 77161  1  0  0  0
 77 87  1  0  0  0
 78 87  1  0  0  0
 78162  1  0  0  0
 78163  1  0  0  0
 78164  1  0  0  0
 79 87  1  0  0  0
 79165  1  0  0  0
 79166  1  0  0  0
 79167  1  0  0  0
 80 81  1  0  0  0
 80168  1  0  0  0
 80169  1  0  0  0
 81 82  1  0  0  0
 81170  1  0  0  0
 81171  1  0  0  0
 82 83  1  0  0  0
 82172  1  0  0  0
 82173  1  0  0  0
 83 84  1  0  0  0
 83174  1  0  0  0
 83175  1  0  0  0
 84176  1  0  0  0
 84177  1  0  0  0
 85 87  1  0  0  0
 85 89  1  0  0  0
 85178  1  0  0  0
 88 89  1  0  0  0
M  ISO  4   1 100  68 101  84 101  85 100
M  END
> <chiral flag>
0

> <version>
0

> <s_m_source_file>
/data/baiqing/PycharmProjects/Reinvent-master-3.2/result/LINK_invent/BTK/process_docking_weight1_custom_sum_contain_oxygen_bond_distance_aromatic_linkinvent_7_9_3/rearranged_h_0067.sdf

> <i_m_source_file_index>
53

> <r_mmod_Potential_Energy-OPLS-2005>
328.168365478516

> <r_mmod_Stretch_Energy-OPLS-2005>
71.0176620483398

> <r_mmod_Bend_Energy-OPLS-2005>
198.085266113281

> <r_mmod_Torsional_Energy-OPLS-2005>
247.038360595703

> <r_mmod_Improper_Torsional_Energy-OPLS-2005>
11.1218538284302

> <r_mmod_Van_der_Waal_Energy-OPLS-2005>
124.684104919434

> <r_mmod_Electrostatic_Energy-OPLS-2005>
-232.5498046875

> <r_mmod_Solvation_Energy-OPLS-2005>
-169.929718017578

> <b_mmod_Minimization_Converged-OPLS-2005>
0

> <r_mmod_RMS_Derivative-OPLS-2005>
3.28885769844055

$$$$
54
                    3D
 Structure written by MMmdl.
186194  0  0  1  0            999 V2000
  -30.7047  -14.5127   20.3496 C   0  0  0  0  0  0
  -30.4061  -12.2830   19.4338 C   0  0  0  0  0  0
  -29.4843  -12.4216   18.2037 C   0  0  0  0  0  0
  -28.0053  -12.3207   18.6216 C   0  0  0  0  0  0
  -27.6450  -13.2158   19.8392 C   0  0  2  0  0  0
  -28.6991  -13.1132   20.9621 C   0  0  0  0  0  0
  -25.2537  -13.8135   20.5827 C   0  0  0  0  0  0
  -24.1797  -13.0395   20.9223 C   0  0  0  0  0  0
  -24.6378  -11.6877   20.8741 C   0  0  0  0  0  0
  -23.9058  -10.4261   21.0398 C   0  0  0  0  0  0
  -24.3604   -9.4182   21.9179 C   0  0  0  0  0  0
  -23.6278   -8.2223   22.0754 C   0  0  0  0  0  0
  -22.4261   -8.0266   21.3547 C   0  0  0  0  0  0
  -21.9897   -9.0237   20.4645 C   0  0  0  0  0  0
  -22.7229  -10.2111   20.3047 C   0  0  0  0  0  0
  -21.6845   -6.0728   22.5284 C   0  0  0  0  0  0
  -21.4011   -6.5633   23.8220 C   0  0  0  0  0  0
  -21.3662   -5.6783   24.9179 C   0  0  0  0  0  0
  -21.6037   -4.3046   24.7227 C   0  0  0  0  0  0
  -21.8820   -3.8142   23.4350 C   0  0  0  0  0  0
  -21.9189   -4.6957   22.3406 C   0  0  0  0  0  0
  -22.7825  -13.5206   21.1867 C   0  0  0  0  0  0
  -22.1655   -4.2144   21.0983 F   0  0  0  0  0  0
  -21.5634   -3.4532   25.7741 F   0  0  0  0  0  0
  -30.0300  -13.3345   20.3862 N   0  0  0  0  0  0
  -26.2964  -12.9354   20.3296 N   0  0  0  0  0  0
  -25.9304  -11.6503   20.5746 N   0  0  0  0  0  0
  -22.0447  -12.8215   22.0408 N   0  0  0  0  0  0
  -25.4182  -15.1863   20.4530 N   0  0  0  0  0  0
  -31.9347  -14.5617   20.3629 O   0  0  0  0  0  0
  -21.6625   -6.8867   21.4243 O   0  0  0  0  0  0
  -22.3531  -14.5521   20.6708 O   0  0  0  0  0  0
  -24.6135  -31.8679   23.2111 C   0  0  0  0  0  0
  -25.9033  -32.4818   23.8400 C   0  0  1  0  0  0
  -27.2303  -27.4310   20.1138 C   0  0  0  0  0  0
  -25.5891  -33.8616   24.2339 N   0  0  0  0  0  0
  -23.4013  -30.4913   21.5513 C   0  0  2  0  0  0
  -24.8481  -28.9513   20.1210 C   0  0  0  0  0  0
  -22.7397  -29.4664   22.5004 C   0  0  0  0  0  0
  -18.0263  -28.1387   22.8492 C   0  0  0  0  0  0
  -24.1480  -36.7308   23.2643 C   0  0  0  0  0  0
  -25.9284  -30.8330   21.3650 C   0  0  0  0  0  0
  -26.0055  -29.4637   20.7218 C   0  0  0  0  0  0
  -27.2000  -28.7103   20.7161 C   0  0  0  0  0  0
  -26.0620  -26.9324   19.5030 C   0  0  0  0  0  0
  -24.8702  -27.6842   19.5097 C   0  0  0  0  0  0
  -23.6109  -29.8202   20.1668 C   0  0  0  0  0  0
  -25.4102  -36.3110   24.0343 C   0  0  1  0  0  0
  -20.5849  -28.3677   23.1317 C   0  0  2  0  0  0
  -20.6768  -26.9418   22.5421 C   0  0  0  0  0  0
  -19.5754  -26.6394   21.5215 C   0  0  0  0  0  0
  -18.1920  -26.7936   22.1616 C   0  0  0  0  0  0
  -19.1510  -28.8847   23.2898 C   0  0  0  0  0  0
  -18.9448  -30.1451   23.8915 C   0  0  0  0  0  0
  -17.6452  -30.6600   24.0569 C   0  0  0  0  0  0
  -25.9029  -34.9471   23.5140 C   0  0  0  0  0  0
  -16.5340  -29.9105   23.6330 C   0  0  0  0  0  0
  -16.7250  -28.6512   23.0358 C   0  0  0  0  0  0
  -26.4480  -31.6590   25.0715 C   0  0  0  0  0  0
  -25.3765  -31.3656   26.1471 C   0  0  0  0  0  0
  -27.0325  -30.3043   24.6075 C   0  0  0  0  0  0
  -27.6063  -32.4309   25.7466 C   0  0  0  0  0  0
  -27.5578  -37.1803   24.8469 C   0  0  0  0  0  0
  -21.4127  -29.3030   22.3720 N   0  0  0  0  0  0
  -26.4291  -37.3797   23.9414 N   0  0  0  0  0  0
  -24.6660  -31.0786   22.1012 N   0  0  0  0  0  0
  -23.4165  -28.8207   23.3053 O   0  0  0  0  0  0
  -28.4016  -26.7152   20.0287 O   0  0  0  0  0  0
  -26.5590  -34.8921   22.4700 O   0  0  0  0  0  0
  -23.5331  -32.1426   23.7509 O   0  0  0  0  0  0
  -29.2240  -16.6684   19.9041 C   0  0  0  0  0  0
  -30.0549  -15.6244   19.5574 C   0  0  0  0  0  0
  -27.0901  -21.7208   20.0591 C   0  0  0  0  0  0
  -25.6959  -18.6986   18.3911 C   0  0  0  0  0  0
  -26.8825  -18.5707   16.1488 C   0  0  0  0  0  0
  -26.7493  -16.6598   17.6111 C   0  0  0  0  0  0
  -29.7681  -22.4081   17.2646 C   0  0  0  0  0  0
  -27.4583  -21.7816   17.1602 C   0  0  0  0  0  0
  -30.5002  -19.8530   18.8653 C   0  0  0  0  0  0
  -29.7758  -19.6867   16.4982 C   0  0  0  0  0  0
  -29.0228  -23.6706   22.2272 C   0  0  0  0  0  0
  -28.4709  -22.1212   19.4908 C   0  0  1  0  0  0
  -28.3074  -18.6591   18.4190 C   0  0  2  0  0  0
  -26.9611  -18.2026   17.6462 C   0  0  0  0  0  0
  -28.7207  -21.5056   18.0180 C   0  0  0  0  0  0
  -29.2343  -19.9366   17.9483 C   0  0  0  0  0  0
  -28.3787  -24.4065   21.0287 C   0  0  2  0  0  0
  -28.7135  -23.6888   19.6696 C   0  0  0  0  0  0
  -28.8059  -25.9270   21.0731 C   0  0  0  0  0  0
  -30.4278  -15.8156   18.2279 N   0  0  0  0  0  0
  -29.8361  -16.8495   17.7470 N   0  0  0  0  0  0
  -29.1170  -17.4352   18.7341 N   0  0  0  0  0  0
  -27.0567  -24.3619   21.2226 F   0  0  0  0  0  0
  -30.0146  -23.9200   19.4863 F   0  0  0  0  0  0
  -28.0240  -24.3580   18.7460 F   0  0  0  0  0  0
  -30.1611  -25.9768   21.1050 F   0  0  0  0  0  0
  -28.4262  -26.4717   22.2596 F   0  0  0  0  0  0
  -31.4537  -12.3520   19.1326 H   0  0  0  0  0  0
  -30.2846  -11.3022   19.8966 H   0  0  0  0  0  0
  -29.7154  -11.6418   17.4772 H   0  0  0  0  0  0
  -29.6605  -13.3643   17.6889 H   0  0  0  0  0  0
  -27.8116  -11.2748   18.8616 H   0  0  0  0  0  0
  -27.3581  -12.5592   17.7765 H   0  0  0  0  0  0
  -27.6485  -14.2403   19.4737 H   0  0  0  0  0  0
  -28.6658  -12.1317   21.4372 H   0  0  0  0  0  0
  -28.4962  -13.8467   21.7438 H   0  0  0  0  0  0
  -25.2744   -9.5663   22.4755 H   0  0  0  0  0  0
  -23.9982   -7.4617   22.7480 H   0  0  0  0  0  0
  -21.0828   -8.8753   19.8953 H   0  0  0  0  0  0
  -22.3686  -10.9650   19.6160 H   0  0  0  0  0  0
  -21.2000   -7.6141   23.9722 H   0  0  0  0  0  0
  -21.1489   -6.0514   25.9082 H   0  0  0  0  0  0
  -22.0597   -2.7605   23.2855 H   0  0  0  0  0  0
  -22.4044  -11.9878   22.4806 H   0  0  0  0  0  0
  -21.1064  -13.1254   22.2598 H   0  0  0  0  0  0
  -24.6409  -15.8296   20.5470 H   0  0  0  0  0  0
  -26.2739  -15.6347   20.1566 H   0  0  0  0  0  0
  -26.7097  -32.5545   23.1162 H   0  0  0  0  0  0
  -25.0056  -33.9776   25.0492 H   0  0  0  0  0  0
  -22.6907  -31.3088   21.4124 H   0  0  0  0  0  0
  -23.3744  -35.9643   23.3312 H   0  0  0  0  0  0
  -24.3571  -36.8918   22.2057 H   0  0  0  0  0  0
  -23.7227  -37.6509   23.6658 H   0  0  0  0  0  0
  -26.0365  -31.5953   20.5920 H   0  0  0  0  0  0
  -26.8180  -30.8917   21.9810 H   0  0  0  0  0  0
  -28.0977  -29.1075   21.1686 H   0  0  0  0  0  0
  -26.0750  -25.9679   19.0161 H   0  0  0  0  0  0
  -23.9821  -27.2876   19.0371 H   0  0  0  0  0  0
  -23.7212  -30.5947   19.4068 H   0  0  0  0  0  0
  -22.7345  -29.2411   19.8702 H   0  0  0  0  0  0
  -25.1278  -36.1979   25.0839 H   0  0  0  0  0  0
  -20.9932  -28.3260   24.1444 H   0  0  0  0  0  0
  -20.5696  -26.2287   23.3606 H   0  0  0  0  0  0
  -21.6643  -26.7485   22.1211 H   0  0  0  0  0  0
  -19.6935  -25.6307   21.1240 H   0  0  0  0  0  0
  -19.6710  -27.3214   20.6751 H   0  0  0  0  0  0
  -17.4203  -26.6679   21.4007 H   0  0  0  0  0  0
  -18.0321  -26.0079   22.9011 H   0  0  0  0  0  0
  -19.7929  -30.7249   24.2314 H   0  0  0  0  0  0
  -17.5016  -31.6289   24.5162 H   0  0  0  0  0  0
  -15.5346  -30.3023   23.7655 H   0  0  0  0  0  0
  -15.8636  -28.0837   22.7089 H   0  0  0  0  0  0
  -24.5951  -30.6994   25.7792 H   0  0  0  0  0  0
  -24.8942  -32.2792   26.4962 H   0  0  0  0  0  0
  -25.8142  -30.8794   27.0200 H   0  0  0  0  0  0
  -26.2865  -29.6765   24.1188 H   0  0  0  0  0  0
  -27.4173  -29.7303   25.4514 H   0  0  0  0  0  0
  -27.8660  -30.4369   23.9173 H   0  0  0  0  0  0
  -27.2703  -33.3613   26.2057 H   0  0  0  0  0  0
  -28.3861  -32.6858   25.0275 H   0  0  0  0  0  0
  -28.0752  -31.8424   26.5365 H   0  0  0  0  0  0
  -28.2598  -38.0097   24.7525 H   0  0  0  0  0  0
  -28.1068  -36.2627   24.6293 H   0  0  0  0  0  0
  -27.2289  -37.1453   25.8869 H   0  0  0  0  0  0
  -20.9302  -29.8711   21.6896 H   0  0  0  0  0  0
  -26.0177  -38.2871   24.1434 H   0  0  0  0  0  0
  -28.7438  -16.9272   20.8376 H   0  0  0  0  0  0
  -26.9009  -20.6604   19.9706 H   0  0  0  0  0  0
  -26.2791  -22.2533   19.5631 H   0  0  0  0  0  0
  -27.0026  -21.9307   21.1222 H   0  0  0  0  0  0
  -24.7834  -18.3566   17.9017 H   0  0  0  0  0  0
  -25.5975  -19.7721   18.4649 H   0  0  0  0  0  0
  -25.6671  -18.3139   19.4114 H   0  0  0  0  0  0
  -25.9671  -18.1866   15.6971 H   0  0  0  0  0  0
  -27.7080  -18.1365   15.5852 H   0  0  0  0  0  0
  -26.8677  -19.6309   15.9543 H   0  0  0  0  0  0
  -25.7646  -16.3862   17.2303 H   0  0  0  0  0  0
  -26.8265  -16.2204   18.5984 H   0  0  0  0  0  0
  -27.4636  -16.1459   16.9686 H   0  0  0  0  0  0
  -29.4596  -23.4476   17.1969 H   0  0  0  0  0  0
  -29.8954  -22.1557   16.2140 H   0  0  0  0  0  0
  -30.7606  -22.4162   17.7078 H   0  0  0  0  0  0
  -27.1364  -22.8179   17.2302 H   0  0  0  0  0  0
  -26.6008  -21.2000   17.4550 H   0  0  0  0  0  0
  -27.6222  -21.6192   16.0968 H   0  0  0  0  0  0
  -31.1493  -19.0158   18.6096 H   0  0  0  0  0  0
  -30.2287  -19.7232   19.9132 H   0  0  0  0  0  0
  -31.1488  -20.7218   18.8259 H   0  0  0  0  0  0
  -29.9304  -18.6543   16.2200 H   0  0  0  0  0  0
  -30.7501  -20.1501   16.3418 H   0  0  0  0  0  0
  -29.1148  -20.0757   15.7284 H   0  0  0  0  0  0
  -30.1104  -23.6935   22.1631 H   0  0  0  0  0  0
  -28.7300  -22.6259   22.2899 H   0  0  0  0  0  0
  -28.7416  -24.1358   23.1722 H   0  0  0  0  0  0
  -29.1978  -21.6665   20.1588 H   0  0  0  0  0  0
  -27.9712  -18.9473   19.4107 H   0  0  0  0  0  0
  1 25  1  0  0  0
  1 30  2  0  0  0
  1 72  1  0  0  0
  2  3  1  0  0  0
  2 25  1  0  0  0
  2 98  1  0  0  0
  2 99  1  0  0  0
  3  4  1  0  0  0
  3100  1  0  0  0
  3101  1  0  0  0
  4  5  1  0  0  0
  4102  1  0  0  0
  4103  1  0  0  0
  5  6  1  0  0  0
  5 26  1  0  0  0
  5104  1  0  0  0
  6 25  1  0  0  0
  6105  1  0  0  0
  6106  1  0  0  0
  7  8  2  0  0  0
  7 26  1  0  0  0
  7 29  1  0  0  0
  8  9  1  0  0  0
  8 22  1  0  0  0
  9 10  1  0  0  0
  9 27  2  0  0  0
 10 11  2  0  0  0
 10 15  1  0  0  0
 11 12  1  0  0  0
 11107  1  0  0  0
 12 13  2  0  0  0
 12108  1  0  0  0
 13 14  1  0  0  0
 13 31  1  0  0  0
 14 15  2  0  0  0
 14109  1  0  0  0
 15110  1  0  0  0
 16 17  2  0  0  0
 16 21  1  0  0  0
 16 31  1  0  0  0
 17 18  1  0  0  0
 17111  1  0  0  0
 18 19  2  0  0  0
 18112  1  0  0  0
 19 20  1  0  0  0
 19 24  1  0  0  0
 20 21  2  0  0  0
 20113  1  0  0  0
 21 23  1  0  0  0
 22 28  1  0  0  0
 22 32  2  0  0  0
 26 27  1  0  0  0
 28114  1  0  0  0
 28115  1  0  0  0
 29116  1  0  0  0
 29117  1  0  0  0
 33 34  1  0  0  0
 33 66  1  0  0  0
 33 70  2  0  0  0
 34 36  1  0  0  0
 34 59  1  0  0  0
 34118  1  0  0  0
 35 44  2  0  0  0
 35 45  1  0  0  0
 35 68  1  0  0  0
 36 56  1  0  0  0
 36119  1  0  0  0
 37 39  1  0  0  0
 37 47  1  0  0  0
 37 66  1  0  0  0
 37120  1  0  0  0
 38 43  2  0  0  0
 38 46  1  0  0  0
 38 47  1  0  0  0
 39 64  1  0  0  0
 39 67  2  0  0  0
 40 52  1  0  0  0
 40 53  2  0  0  0
 40 58  1  0  0  0
 41121  1  0  0  0
 41122  1  0  0  0
 41123  1  0  0  0
 41 48  1  0  0  0
 42 43  1  0  0  0
 42 66  1  0  0  0
 42124  1  0  0  0
 42125  1  0  0  0
 43 44  1  0  0  0
 44126  1  0  0  0
 45 46  2  0  0  0
 45127  1  0  0  0
 46128  1  0  0  0
 47129  1  0  0  0
 47130  1  0  0  0
 48 56  1  0  0  0
 48 65  1  0  0  0
 48131  1  0  0  0
 49 50  1  0  0  0
 49 53  1  0  0  0
 49 64  1  0  0  0
 49132  1  0  0  0
 50 51  1  0  0  0
 50133  1  0  0  0
 50134  1  0  0  0
 51 52  1  0  0  0
 51135  1  0  0  0
 51136  1  0  0  0
 52137  1  0  0  0
 52138  1  0  0  0
 53 54  1  0  0  0
 54 55  2  0  0  0
 54139  1  0  0  0
 55 57  1  0  0  0
 55140  1  0  0  0
 56 69  2  0  0  0
 57 58  2  0  0  0
 57141  1  0  0  0
 58142  1  0  0  0
 59 60  1  0  0  0
 59 61  1  0  0  0
 59 62  1  0  0  0
 60143  1  0  0  0
 60144  1  0  0  0
 60145  1  0  0  0
 61146  1  0  0  0
 61147  1  0  0  0
 61148  1  0  0  0
 62149  1  0  0  0
 62150  1  0  0  0
 62151  1  0  0  0
 63 65  1  0  0  0
 63152  1  0  0  0
 63153  1  0  0  0
 63154  1  0  0  0
 64155  1  0  0  0
 65156  1  0  0  0
 68 89  1  0  0  0
 71 72  2  0  0  0
 71 92  1  0  0  0
 71157  1  0  0  0
 72 90  1  0  0  0
 73158  1  0  0  0
 73159  1  0  0  0
 73160  1  0  0  0
 73 82  1  0  0  0
 74161  1  0  0  0
 74162  1  0  0  0
 74163  1  0  0  0
 74 84  1  0  0  0
 75 84  1  0  0  0
 75164  1  0  0  0
 75165  1  0  0  0
 75166  1  0  0  0
 76 84  1  0  0  0
 76167  1  0  0  0
 76168  1  0  0  0
 76169  1  0  0  0
 77170  1  0  0  0
 77171  1  0  0  0
 77172  1  0  0  0
 77 85  1  0  0  0
 78 85  1  0  0  0
 78173  1  0  0  0
 78174  1  0  0  0
 78175  1  0  0  0
 79176  1  0  0  0
 79177  1  0  0  0
 79178  1  0  0  0
 79 86  1  0  0  0
 80 86  1  0  0  0
 80179  1  0  0  0
 80180  1  0  0  0
 80181  1  0  0  0
 81182  1  0  0  0
 81183  1  0  0  0
 81184  1  0  0  0
 81 87  1  0  0  0
 82 85  1  0  0  0
 82 88  1  0  0  0
 82185  1  0  0  0
 83 84  1  0  0  0
 83 86  1  0  0  0
 83 92  1  0  0  0
 83186  1  0  0  0
 85 86  1  0  0  0
 87 88  1  0  0  0
 87 89  1  0  0  0
 87 93  1  0  0  0
 88 94  1  0  0  0
 88 95  1  0  0  0
 89 96  1  0  0  0
 89 97  1  0  0  0
 90 91  2  0  0  0
 91 92  1  0  0  0
M  ISO  4   1 100  68 101  72 100  89 101
M  END
> <chiral flag>
0

> <version>
0

> <s_m_source_file>
/data/baiqing/PycharmProjects/Reinvent-master-3.2/result/LINK_invent/BTK/process_docking_weight1_custom_sum_contain_oxygen_bond_distance_aromatic_linkinvent_7_9_3/rearranged_h_0067.sdf

> <i_m_source_file_index>
54

> <r_mmod_Potential_Energy-OPLS-2005>
559.278503417969

> <r_mmod_Stretch_Energy-OPLS-2005>
105.755996704102

> <r_mmod_Bend_Energy-OPLS-2005>
211.742309570312

> <r_mmod_Torsional_Energy-OPLS-2005>
337.791320800781

> <r_mmod_Improper_Torsional_Energy-OPLS-2005>
25.66015625

> <r_mmod_Van_der_Waal_Energy-OPLS-2005>
194.937423706055

> <r_mmod_Electrostatic_Energy-OPLS-2005>
-174.567916870117

> <r_mmod_Solvation_Energy-OPLS-2005>
-182.006896972656

> <b_mmod_Minimization_Converged-OPLS-2005>
0

> <r_mmod_RMS_Derivative-OPLS-2005>
1.36328852176666

$$$$
55
                    3D
 Structure written by MMmdl.
163171  0  0  1  0            999 V2000
  -30.6891  -14.4903   20.5263 C   0  0  0  0  0  0
  -30.4220  -12.3013   19.4346 C   0  0  0  0  0  0
  -29.4980  -12.4919   18.2133 C   0  0  0  0  0  0
  -28.0180  -12.3565   18.6231 C   0  0  0  0  0  0
  -27.6607  -13.2067   19.8724 C   0  0  2  0  0  0
  -28.7032  -13.0082   20.9985 C   0  0  0  0  0  0
  -25.2589  -13.8159   20.5673 C   0  0  0  0  0  0
  -24.1840  -13.0439   20.9173 C   0  0  0  0  0  0
  -24.6393  -11.6904   20.8731 C   0  0  0  0  0  0
  -23.9056  -10.4291   21.0398 C   0  0  0  0  0  0
  -24.3611   -9.4207   21.9178 C   0  0  0  0  0  0
  -23.6287   -8.2240   22.0754 C   0  0  0  0  0  0
  -22.4270   -8.0277   21.3543 C   0  0  0  0  0  0
  -21.9900   -9.0248   20.4646 C   0  0  0  0  0  0
  -22.7226  -10.2128   20.3051 C   0  0  0  0  0  0
  -21.6852   -6.0729   22.5276 C   0  0  0  0  0  0
  -21.4014   -6.5635   23.8209 C   0  0  0  0  0  0
  -21.3660   -5.6792   24.9171 C   0  0  0  0  0  0
  -21.6042   -4.3053   24.7227 C   0  0  0  0  0  0
  -21.8820   -3.8140   23.4349 C   0  0  0  0  0  0
  -21.9194   -4.6954   22.3404 C   0  0  0  0  0  0
  -22.7864  -13.5237   21.1836 C   0  0  0  0  0  0
  -22.1662   -4.2139   21.0983 F   0  0  0  0  0  0
  -21.5631   -3.4542   25.7741 F   0  0  0  0  0  0
  -30.0347  -13.3005   20.4430 N   0  0  0  0  0  0
  -26.3021  -12.9328   20.3351 N   0  0  0  0  0  0
  -25.9320  -11.6490   20.5766 N   0  0  0  0  0  0
  -22.0507  -12.8230   22.0393 N   0  0  0  0  0  0
  -25.4319  -15.1875   20.4071 N   0  0  0  0  0  0
  -31.8338  -14.6554   20.0978 O   0  0  0  0  0  0
  -21.6641   -6.8870   21.4238 O   0  0  0  0  0  0
  -22.3550  -14.5542   20.6686 O   0  0  0  0  0  0
  -24.6147  -31.8679   23.2088 C   0  0  0  0  0  0
  -25.9041  -32.4824   23.8386 C   0  0  1  0  0  0
  -27.2313  -27.4322   20.1007 C   0  0  0  0  0  0
  -25.5904  -33.8619   24.2326 N   0  0  0  0  0  0
  -23.4034  -30.4903   21.5499 C   0  0  2  0  0  0
  -24.8519  -28.9583   20.1114 C   0  0  0  0  0  0
  -22.7421  -29.4649   22.4989 C   0  0  0  0  0  0
  -18.0275  -28.1376   22.8486 C   0  0  0  0  0  0
  -24.1495  -36.7307   23.2638 C   0  0  0  0  0  0
  -25.9331  -30.8332   21.3634 C   0  0  0  0  0  0
  -26.0123  -29.4686   20.7081 C   0  0  0  0  0  0
  -27.2089  -28.7139   20.6975 C   0  0  0  0  0  0
  -26.0589  -26.9405   19.4893 C   0  0  0  0  0  0
  -24.8704  -27.6943   19.4966 C   0  0  0  0  0  0
  -23.6119  -29.8226   20.1641 C   0  0  0  0  0  0
  -25.4114  -36.3109   24.0340 C   0  0  1  0  0  0
  -20.5865  -28.3660   23.1323 C   0  0  2  0  0  0
  -20.6771  -26.9395   22.5421 C   0  0  0  0  0  0
  -19.5753  -26.6378   21.5219 C   0  0  0  0  0  0
  -18.1926  -26.7920   22.1618 C   0  0  0  0  0  0
  -19.1523  -28.8834   23.2902 C   0  0  0  0  0  0
  -18.9455  -30.1443   23.8906 C   0  0  0  0  0  0
  -17.6459  -30.6582   24.0563 C   0  0  0  0  0  0
  -25.9038  -34.9476   23.5128 C   0  0  0  0  0  0
  -16.5348  -29.9083   23.6331 C   0  0  0  0  0  0
  -16.7262  -28.6503   23.0340 C   0  0  0  0  0  0
  -26.4467  -31.6600   25.0715 C   0  0  0  0  0  0
  -25.3727  -31.3716   26.1463 C   0  0  0  0  0  0
  -27.0290  -30.3042   24.6078 C   0  0  0  0  0  0
  -27.6047  -32.4319   25.7471 C   0  0  0  0  0  0
  -27.5587  -37.1810   24.8468 C   0  0  0  0  0  0
  -21.4147  -29.3029   22.3734 N   0  0  0  0  0  0
  -26.4302  -37.3791   23.9407 N   0  0  0  0  0  0
  -24.6685  -31.0779   22.0991 N   0  0  0  0  0  0
  -23.4197  -28.8194   23.3028 O   0  0  0  0  0  0
  -28.3662  -26.6496   20.1223 O   0  0  0  0  0  0
  -26.5593  -34.8922   22.4687 O   0  0  0  0  0  0
  -23.5341  -32.1426   23.7484 O   0  0  0  0  0  0
  -30.3904  -21.4198   19.9679 C   0  0  0  0  0  0
  -29.3570  -21.6770   20.8316 C   0  0  0  0  0  0
  -29.8883  -19.4783   20.9704 C   0  0  0  0  0  0
  -28.5103  -17.7550   22.1941 C   0  0  0  0  0  0
  -30.9671  -17.9218   22.6136 C   0  0  0  0  0  0
  -31.8198  -19.4430   19.3735 C   0  0  0  0  0  0
  -28.6204  -22.9421   21.2087 C   0  0  0  0  0  0
  -28.9281  -24.2020   20.3526 C   0  0  0  0  0  0
  -30.1407  -16.9426   20.4408 C   0  0  0  0  0  0
  -28.2278  -25.4604   20.9251 C   0  0  0  0  0  0
  -29.8807  -18.0386   21.5270 C   0  0  0  0  0  0
  -30.7160  -20.0875   20.0901 N   0  0  0  0  0  0
  -29.0879  -20.4616   21.4207 N   0  3  0  0  0  0
  -29.9218  -15.5425   20.8735 N   0  0  0  0  0  0
  -31.4680  -12.3904   19.1357 H   0  0  0  0  0  0
  -30.3149  -11.2957   19.8439 H   0  0  0  0  0  0
  -29.7396  -11.7600   17.4414 H   0  0  0  0  0  0
  -29.6690  -13.4733   17.7686 H   0  0  0  0  0  0
  -27.8277  -11.3021   18.8270 H   0  0  0  0  0  0
  -27.3700  -12.6233   17.7872 H   0  0  0  0  0  0
  -27.6979  -14.2506   19.5597 H   0  0  0  0  0  0
  -28.6768  -11.9800   21.3631 H   0  0  0  0  0  0
  -28.4723  -13.6339   21.8621 H   0  0  0  0  0  0
  -25.2758   -9.5684   22.4747 H   0  0  0  0  0  0
  -23.9996   -7.4638   22.7478 H   0  0  0  0  0  0
  -21.0830   -8.8766   19.8955 H   0  0  0  0  0  0
  -22.3685  -10.9665   19.6157 H   0  0  0  0  0  0
  -21.2006   -7.6146   23.9707 H   0  0  0  0  0  0
  -21.1480   -6.0525   25.9074 H   0  0  0  0  0  0
  -22.0597   -2.7603   23.2856 H   0  0  0  0  0  0
  -22.4123  -11.9891   22.4783 H   0  0  0  0  0  0
  -21.1117  -13.1250   22.2592 H   0  0  0  0  0  0
  -24.6641  -15.8419   20.5125 H   0  0  0  0  0  0
  -26.2798  -15.6233   20.0681 H   0  0  0  0  0  0
  -26.7113  -32.5539   23.1145 H   0  0  0  0  0  0
  -25.0088  -33.9789   25.0495 H   0  0  0  0  0  0
  -22.6915  -31.3066   21.4107 H   0  0  0  0  0  0
  -23.3762  -35.9640   23.3313 H   0  0  0  0  0  0
  -24.3584  -36.8898   22.2050 H   0  0  0  0  0  0
  -23.7242  -37.6514   23.6637 H   0  0  0  0  0  0
  -26.0467  -31.6009   20.5965 H   0  0  0  0  0  0
  -26.8204  -30.8836   21.9831 H   0  0  0  0  0  0
  -28.1037  -29.0989   21.1660 H   0  0  0  0  0  0
  -26.0632  -25.9669   19.0182 H   0  0  0  0  0  0
  -23.9791  -27.2965   19.0312 H   0  0  0  0  0  0
  -23.7151  -30.5980   19.4040 H   0  0  0  0  0  0
  -22.7368  -29.2399   19.8708 H   0  0  0  0  0  0
  -25.1290  -36.1976   25.0834 H   0  0  0  0  0  0
  -20.9959  -28.3218   24.1444 H   0  0  0  0  0  0
  -20.5687  -26.2260   23.3602 H   0  0  0  0  0  0
  -21.6639  -26.7441   22.1210 H   0  0  0  0  0  0
  -19.6921  -25.6298   21.1230 H   0  0  0  0  0  0
  -19.6704  -27.3207   20.6768 H   0  0  0  0  0  0
  -17.4204  -26.6682   21.4009 H   0  0  0  0  0  0
  -18.0309  -26.0054   22.9003 H   0  0  0  0  0  0
  -19.7934  -30.7257   24.2274 H   0  0  0  0  0  0
  -17.5013  -31.6261   24.5162 H   0  0  0  0  0  0
  -15.5351  -30.2985   23.7653 H   0  0  0  0  0  0
  -15.8660  -28.0833   22.7041 H   0  0  0  0  0  0
  -24.5924  -30.7025   25.7810 H   0  0  0  0  0  0
  -24.8891  -32.2877   26.4869 H   0  0  0  0  0  0
  -25.8079  -30.8929   27.0242 H   0  0  0  0  0  0
  -26.2832  -29.6815   24.1122 H   0  0  0  0  0  0
  -27.4059  -29.7258   25.4521 H   0  0  0  0  0  0
  -27.8662  -30.4365   23.9218 H   0  0  0  0  0  0
  -27.2673  -33.3618   26.2055 H   0  0  0  0  0  0
  -28.3842  -32.6875   25.0284 H   0  0  0  0  0  0
  -28.0723  -31.8436   26.5375 H   0  0  0  0  0  0
  -28.2614  -38.0099   24.7505 H   0  0  0  0  0  0
  -28.1071  -36.2628   24.6305 H   0  0  0  0  0  0
  -27.2299  -37.1466   25.8869 H   0  0  0  0  0  0
  -20.9305  -29.8743   21.6950 H   0  0  0  0  0  0
  -26.0195  -38.2873   24.1401 H   0  0  0  0  0  0
  -30.9312  -22.0870   19.3088 H   0  0  0  0  0  0
  -28.2961  -18.4567   23.0002 H   0  0  0  0  0  0
  -28.4666  -16.7653   22.6478 H   0  0  0  0  0  0
  -27.6945  -17.8190   21.4731 H   0  0  0  0  0  0
  -30.8032  -18.6378   23.4194 H   0  0  0  0  0  0
  -31.9625  -18.1092   22.2109 H   0  0  0  0  0  0
  -30.9835  -16.9273   23.0597 H   0  0  0  0  0  0
  -32.4318  -20.2038   18.8891 H   0  0  0  0  0  0
  -31.4197  -18.7795   18.6072 H   0  0  0  0  0  0
  -32.4491  -18.8946   20.0724 H   0  0  0  0  0  0
  -28.8537  -23.1589   22.2519 H   0  0  0  0  0  0
  -27.5493  -22.7392   21.1736 H   0  0  0  0  0  0
  -28.6000  -24.0330   19.3267 H   0  0  0  0  0  0
  -30.0032  -24.3792   20.3145 H   0  0  0  0  0  0
  -31.1531  -17.0343   20.0548 H   0  0  0  0  0  0
  -29.4802  -17.1203   19.5906 H   0  0  0  0  0  0
  -28.6421  -25.6826   21.9096 H   0  0  0  0  0  0
  -27.1796  -25.2120   21.1032 H   0  0  0  0  0  0
  -28.3774  -20.3130   22.1278 H   0  0  0  0  0  0
  -29.0029  -15.3171   21.2225 H   0  0  0  0  0  0
  1 25  1  0  0  0
  1 30  2  0  0  0
  1 84  1  0  0  0
  2  3  1  0  0  0
  2 25  1  0  0  0
  2 85  1  0  0  0
  2 86  1  0  0  0
  3  4  1  0  0  0
  3 87  1  0  0  0
  3 88  1  0  0  0
  4  5  1  0  0  0
  4 89  1  0  0  0
  4 90  1  0  0  0
  5  6  1  0  0  0
  5 26  1  0  0  0
  5 91  1  0  0  0
  6 25  1  0  0  0
  6 92  1  0  0  0
  6 93  1  0  0  0
  7  8  2  0  0  0
  7 26  1  0  0  0
  7 29  1  0  0  0
  8  9  1  0  0  0
  8 22  1  0  0  0
  9 10  1  0  0  0
  9 27  2  0  0  0
 10 11  2  0  0  0
 10 15  1  0  0  0
 11 12  1  0  0  0
 11 94  1  0  0  0
 12 13  2  0  0  0
 12 95  1  0  0  0
 13 14  1  0  0  0
 13 31  1  0  0  0
 14 15  2  0  0  0
 14 96  1  0  0  0
 15 97  1  0  0  0
 16 17  2  0  0  0
 16 21  1  0  0  0
 16 31  1  0  0  0
 17 18  1  0  0  0
 17 98  1  0  0  0
 18 19  2  0  0  0
 18 99  1  0  0  0
 19 20  1  0  0  0
 19 24  1  0  0  0
 20 21  2  0  0  0
 20100  1  0  0  0
 21 23  1  0  0  0
 22 28  1  0  0  0
 22 32  2  0  0  0
 26 27  1  0  0  0
 28101  1  0  0  0
 28102  1  0  0  0
 29103  1  0  0  0
 29104  1  0  0  0
 33 34  1  0  0  0
 33 66  1  0  0  0
 33 70  2  0  0  0
 34 36  1  0  0  0
 34 59  1  0  0  0
 34105  1  0  0  0
 35 44  2  0  0  0
 35 45  1  0  0  0
 35 68  1  0  0  0
 36 56  1  0  0  0
 36106  1  0  0  0
 37 39  1  0  0  0
 37 47  1  0  0  0
 37 66  1  0  0  0
 37107  1  0  0  0
 38 43  2  0  0  0
 38 46  1  0  0  0
 38 47  1  0  0  0
 39 64  1  0  0  0
 39 67  2  0  0  0
 40 52  1  0  0  0
 40 53  2  0  0  0
 40 58  1  0  0  0
 41108  1  0  0  0
 41109  1  0  0  0
 41110  1  0  0  0
 41 48  1  0  0  0
 42 43  1  0  0  0
 42 66  1  0  0  0
 42111  1  0  0  0
 42112  1  0  0  0
 43 44  1  0  0  0
 44113  1  0  0  0
 45 46  2  0  0  0
 45114  1  0  0  0
 46115  1  0  0  0
 47116  1  0  0  0
 47117  1  0  0  0
 48 56  1  0  0  0
 48 65  1  0  0  0
 48118  1  0  0  0
 49 50  1  0  0  0
 49 53  1  0  0  0
 49 64  1  0  0  0
 49119  1  0  0  0
 50 51  1  0  0  0
 50120  1  0  0  0
 50121  1  0  0  0
 51 52  1  0  0  0
 51122  1  0  0  0
 51123  1  0  0  0
 52124  1  0  0  0
 52125  1  0  0  0
 53 54  1  0  0  0
 54 55  2  0  0  0
 54126  1  0  0  0
 55 57  1  0  0  0
 55127  1  0  0  0
 56 69  2  0  0  0
 57 58  2  0  0  0
 57128  1  0  0  0
 58129  1  0  0  0
 59 60  1  0  0  0
 59 61  1  0  0  0
 59 62  1  0  0  0
 60130  1  0  0  0
 60131  1  0  0  0
 60132  1  0  0  0
 61133  1  0  0  0
 61134  1  0  0  0
 61135  1  0  0  0
 62136  1  0  0  0
 62137  1  0  0  0
 62138  1  0  0  0
 63 65  1  0  0  0
 63139  1  0  0  0
 63140  1  0  0  0
 63141  1  0  0  0
 64142  1  0  0  0
 65143  1  0  0  0
 68 80  1  0  0  0
 71 72  2  0  0  0
 71 82  1  0  0  0
 71144  1  0  0  0
 72 77  1  0  0  0
 72 83  1  0  0  0
 73 81  1  0  0  0
 73 82  1  0  0  0
 73 83  2  0  0  0
 74145  1  0  0  0
 74146  1  0  0  0
 74147  1  0  0  0
 74 81  1  0  0  0
 75 81  1  0  0  0
 75148  1  0  0  0
 75149  1  0  0  0
 75150  1  0  0  0
 76 82  1  0  0  0
 76151  1  0  0  0
 76152  1  0  0  0
 76153  1  0  0  0
 77 78  1  0  0  0
 77154  1  0  0  0
 77155  1  0  0  0
 78 80  1  0  0  0
 78156  1  0  0  0
 78157  1  0  0  0
 79 81  1  0  0  0
 79 84  1  0  0  0
 79158  1  0  0  0
 79159  1  0  0  0
 80160  1  0  0  0
 80161  1  0  0  0
 83162  1  0  0  0
 84163  1  0  0  0
M  CHG  1  83   1
M  ISO  4   1 100  68 101  80 101  84 100
M  END
> <chiral flag>
0

> <version>
0

> <s_m_source_file>
/data/baiqing/PycharmProjects/Reinvent-master-3.2/result/LINK_invent/BTK/process_docking_weight1_custom_sum_contain_oxygen_bond_distance_aromatic_linkinvent_7_9_3/rearranged_h_0067.sdf

> <i_m_source_file_index>
55

> <r_mmod_Potential_Energy-OPLS-2005>
-117.748977661133

> <r_mmod_Stretch_Energy-OPLS-2005>
41.5855407714844

> <r_mmod_Bend_Energy-OPLS-2005>
101.801856994629

> <r_mmod_Torsional_Energy-OPLS-2005>
256.098083496094

> <r_mmod_Improper_Torsional_Energy-OPLS-2005>
7.12163305282593

> <r_mmod_Van_der_Waal_Energy-OPLS-2005>
132.167327880859

> <r_mmod_Electrostatic_Energy-OPLS-2005>
-258.627136230469

> <r_mmod_Solvation_Energy-OPLS-2005>
-413.839172363281

> <b_mmod_Minimization_Converged-OPLS-2005>
0

> <r_mmod_RMS_Derivative-OPLS-2005>
0.99261212348938

$$$$
56
                    3D
 Structure written by MMmdl.
159167  0  0  1  0            999 V2000
  -30.7038  -14.6460   20.6655 C   0  0  0  0  0  0
  -30.4318  -12.4432   19.4709 C   0  0  0  0  0  0
  -29.5132  -12.5572   18.2314 C   0  0  0  0  0  0
  -28.0319  -12.3748   18.6137 C   0  0  0  0  0  0
  -27.6529  -13.2145   19.8566 C   0  0  2  0  0  0
  -28.6837  -12.9912   20.9751 C   0  0  0  0  0  0
  -25.2554  -13.8159   20.5617 C   0  0  0  0  0  0
  -24.1843  -13.0431   20.9178 C   0  0  0  0  0  0
  -24.6403  -11.6900   20.8711 C   0  0  0  0  0  0
  -23.9066  -10.4293   21.0401 C   0  0  0  0  0  0
  -24.3627   -9.4216   21.9182 C   0  0  0  0  0  0
  -23.6296   -8.2253   22.0754 C   0  0  0  0  0  0
  -22.4273   -8.0285   21.3547 C   0  0  0  0  0  0
  -21.9903   -9.0259   20.4654 C   0  0  0  0  0  0
  -22.7233  -10.2137   20.3063 C   0  0  0  0  0  0
  -21.6857   -6.0734   22.5281 C   0  0  0  0  0  0
  -21.4009   -6.5638   23.8214 C   0  0  0  0  0  0
  -21.3663   -5.6794   24.9178 C   0  0  0  0  0  0
  -21.6042   -4.3057   24.7231 C   0  0  0  0  0  0
  -21.8814   -3.8143   23.4355 C   0  0  0  0  0  0
  -21.9199   -4.6960   22.3410 C   0  0  0  0  0  0
  -22.7871  -13.5227   21.1869 C   0  0  0  0  0  0
  -22.1672   -4.2146   21.0989 F   0  0  0  0  0  0
  -21.5623   -3.4542   25.7745 F   0  0  0  0  0  0
  -30.0066  -13.4480   20.4936 N   0  0  0  0  0  0
  -26.2966  -12.9335   20.3192 N   0  0  0  0  0  0
  -25.9314  -11.6495   20.5654 N   0  0  0  0  0  0
  -22.0522  -12.8224   22.0441 N   0  0  0  0  0  0
  -25.4254  -15.1878   20.4014 N   0  0  0  0  0  0
  -31.7207  -14.7568   19.9712 O   0  0  0  0  0  0
  -21.6641   -6.8880   21.4244 O   0  0  0  0  0  0
  -22.3549  -14.5526   20.6714 O   0  0  0  0  0  0
  -24.6268  -31.8600   23.2033 C   0  0  0  0  0  0
  -25.9117  -32.4777   23.8357 C   0  0  1  0  0  0
  -27.2176  -27.3097   20.1120 C   0  0  0  0  0  0
  -25.5935  -33.8578   24.2285 N   0  0  0  0  0  0
  -23.4203  -30.4851   21.5464 C   0  0  2  0  0  0
  -24.8654  -28.9416   20.1118 C   0  0  0  0  0  0
  -22.7475  -29.4626   22.4934 C   0  0  0  0  0  0
  -18.0289  -28.1385   22.8484 C   0  0  0  0  0  0
  -24.1489  -36.7292   23.2637 C   0  0  0  0  0  0
  -25.9633  -30.7858   21.3781 C   0  0  0  0  0  0
  -26.0360  -29.4128   20.7201 C   0  0  0  0  0  0
  -27.2158  -28.6085   20.7117 C   0  0  0  0  0  0
  -26.0282  -26.9054   19.4641 C   0  0  0  0  0  0
  -24.8642  -27.6933   19.4747 C   0  0  0  0  0  0
  -23.6353  -29.8236   20.1607 C   0  0  0  0  0  0
  -25.4114  -36.3081   24.0328 C   0  0  1  0  0  0
  -20.5890  -28.3691   23.1280 C   0  0  2  0  0  0
  -20.6777  -26.9415   22.5407 C   0  0  0  0  0  0
  -19.5751  -26.6385   21.5212 C   0  0  0  0  0  0
  -18.1933  -26.7927   22.1626 C   0  0  0  0  0  0
  -19.1541  -28.8856   23.2878 C   0  0  0  0  0  0
  -18.9461  -30.1458   23.8897 C   0  0  0  0  0  0
  -17.6461  -30.6586   24.0568 C   0  0  0  0  0  0
  -25.9054  -34.9449   23.5105 C   0  0  0  0  0  0
  -16.5353  -29.9086   23.6330 C   0  0  0  0  0  0
  -16.7277  -28.6505   23.0347 C   0  0  0  0  0  0
  -26.4503  -31.6583   25.0725 C   0  0  0  0  0  0
  -25.3739  -31.3725   26.1455 C   0  0  0  0  0  0
  -27.0343  -30.3002   24.6184 C   0  0  0  0  0  0
  -27.6059  -32.4317   25.7500 C   0  0  0  0  0  0
  -27.5579  -37.1802   24.8465 C   0  0  0  0  0  0
  -21.4189  -29.3046   22.3673 N   0  0  0  0  0  0
  -26.4292  -37.3774   23.9408 N   0  0  0  0  0  0
  -24.6889  -31.0602   22.0993 N   0  0  0  0  0  0
  -23.4199  -28.8162   23.3010 O   0  0  0  0  0  0
  -28.3276  -26.4474   20.1347 O   0  0  0  0  0  0
  -26.5615  -34.8916   22.4668 O   0  0  0  0  0  0
  -23.5429  -32.1413   23.7352 O   0  0  0  0  0  0
  -28.9543  -18.1328   21.1706 C   0  0  0  0  0  0
  -31.0220  -19.2399   19.8905 C   0  0  0  0  0  0
  -30.1224  -17.3236   20.9490 C   0  0  0  0  0  0
  -29.9081  -20.0555   20.2340 C   0  0  0  0  0  0
  -29.1946  -23.9180   20.0795 C   0  0  0  0  0  0
  -28.0789  -25.0042   20.4062 C   0  0  0  0  0  0
  -28.8683  -22.3765   20.3714 C   0  0  0  0  0  0
  -30.4227  -15.9066   21.6711 C   0  0  1  0  0  0
  -29.3418  -15.5811   22.7845 C   0  0  0  0  0  0
  -31.7725  -16.1301   22.4687 C   0  0  0  0  0  0
  -29.2244  -16.4452   24.0793 C   0  0  0  0  0  0
  -31.1235  -17.9146   20.2264 N   0  0  0  0  0  0
  -28.8483  -19.4660   20.8467 N   0  0  0  0  0  0
  -29.9183  -21.4420   19.9600 O   0  0  0  0  0  0
  -28.1323  -15.5636   22.2183 F   0  0  0  0  0  0
  -29.5872  -14.3759   23.3067 F   0  0  0  0  0  0
  -31.7201  -17.2289   23.2228 F   0  0  0  0  0  0
  -32.0491  -15.0910   23.2603 F   0  0  0  0  0  0
  -32.8587  -16.2962   21.7091 F   0  0  0  0  0  0
  -29.1765  -17.7555   23.8636 F   0  0  0  0  0  0
  -28.0968  -16.1028   24.7051 F   0  0  0  0  0  0
  -30.2123  -16.2013   24.9405 F   0  0  0  0  0  0
  -31.4731  -12.5483   19.1637 H   0  0  0  0  0  0
  -30.3814  -11.4336   19.8828 H   0  0  0  0  0  0
  -29.7988  -11.8189   17.4810 H   0  0  0  0  0  0
  -29.6520  -13.5345   17.7677 H   0  0  0  0  0  0
  -27.8653  -11.3162   18.8175 H   0  0  0  0  0  0
  -27.3877  -12.6268   17.7708 H   0  0  0  0  0  0
  -27.6925  -14.2635   19.5632 H   0  0  0  0  0  0
  -28.7294  -11.9267   21.2123 H   0  0  0  0  0  0
  -28.2939  -13.3957   21.8897 H   0  0  0  0  0  0
  -25.2784   -9.5683   22.4739 H   0  0  0  0  0  0
  -24.0013   -7.4644   22.7466 H   0  0  0  0  0  0
  -21.0832   -8.8776   19.8964 H   0  0  0  0  0  0
  -22.3696  -10.9670   19.6163 H   0  0  0  0  0  0
  -21.1992   -7.6146   23.9721 H   0  0  0  0  0  0
  -21.1488   -6.0522   25.9082 H   0  0  0  0  0  0
  -22.0588   -2.7604   23.2857 H   0  0  0  0  0  0
  -22.4140  -11.9898   22.4854 H   0  0  0  0  0  0
  -21.1141  -13.1257   22.2639 H   0  0  0  0  0  0
  -24.6515  -15.8356   20.4975 H   0  0  0  0  0  0
  -26.2618  -15.6253   20.0403 H   0  0  0  0  0  0
  -26.7178  -32.5445   23.1096 H   0  0  0  0  0  0
  -25.0095  -33.9722   25.0438 H   0  0  0  0  0  0
  -22.7148  -31.3063   21.4046 H   0  0  0  0  0  0
  -23.3747  -35.9629   23.3304 H   0  0  0  0  0  0
  -24.3584  -36.8908   22.2050 H   0  0  0  0  0  0
  -23.7243  -37.6497   23.6654 H   0  0  0  0  0  0
  -26.0975  -31.5485   20.6098 H   0  0  0  0  0  0
  -26.8427  -30.8333   22.0086 H   0  0  0  0  0  0
  -28.1136  -28.9649   21.1971 H   0  0  0  0  0  0
  -25.9713  -25.9720   18.9262 H   0  0  0  0  0  0
  -23.9725  -27.3342   18.9792 H   0  0  0  0  0  0
  -23.7572  -30.6020   19.4065 H   0  0  0  0  0  0
  -22.7543  -29.2560   19.8558 H   0  0  0  0  0  0
  -25.1288  -36.1937   25.0818 H   0  0  0  0  0  0
  -20.9987  -28.3268   24.1399 H   0  0  0  0  0  0
  -20.5682  -26.2302   23.3607 H   0  0  0  0  0  0
  -21.6644  -26.7443   22.1200 H   0  0  0  0  0  0
  -19.6914  -25.6298   21.1238 H   0  0  0  0  0  0
  -19.6687  -27.3199   20.6744 H   0  0  0  0  0  0
  -17.4201  -26.6673   21.4032 H   0  0  0  0  0  0
  -18.0339  -26.0070   22.9024 H   0  0  0  0  0  0
  -19.7937  -30.7274   24.2264 H   0  0  0  0  0  0
  -17.5016  -31.6267   24.5168 H   0  0  0  0  0  0
  -15.5355  -30.2988   23.7651 H   0  0  0  0  0  0
  -15.8677  -28.0828   22.7055 H   0  0  0  0  0  0
  -24.5914  -30.7070   25.7793 H   0  0  0  0  0  0
  -24.8933  -32.2894   26.4876 H   0  0  0  0  0  0
  -25.8073  -30.8911   27.0231 H   0  0  0  0  0  0
  -26.2921  -29.6754   24.1203 H   0  0  0  0  0  0
  -27.4029  -29.7253   25.4690 H   0  0  0  0  0  0
  -27.8796  -30.4277   23.9417 H   0  0  0  0  0  0
  -27.2664  -33.3606   26.2091 H   0  0  0  0  0  0
  -28.3869  -32.6895   25.0335 H   0  0  0  0  0  0
  -28.0730  -31.8436   26.5409 H   0  0  0  0  0  0
  -28.2596  -38.0100   24.7509 H   0  0  0  0  0  0
  -28.1074  -36.2630   24.6293 H   0  0  0  0  0  0
  -27.2301  -37.1457   25.8869 H   0  0  0  0  0  0
  -20.9365  -29.8782   21.6895 H   0  0  0  0  0  0
  -26.0173  -38.2848   24.1409 H   0  0  0  0  0  0
  -28.0947  -17.7657   21.7057 H   0  0  0  0  0  0
  -31.8698  -19.6703   19.3775 H   0  0  0  0  0  0
  -30.1008  -24.1845   20.6228 H   0  0  0  0  0  0
  -29.4485  -24.0117   19.0235 H   0  0  0  0  0  0
  -27.8394  -24.9285   21.4679 H   0  0  0  0  0  0
  -27.1887  -24.6476   19.8961 H   0  0  0  0  0  0
  -27.9474  -22.0996   19.8566 H   0  0  0  0  0  0
  -28.6782  -22.2455   21.4371 H   0  0  0  0  0  0
  1 25  1  0  0  0
  1 30  2  0  0  0
  1 78  1  0  0  0
  2  3  1  0  0  0
  2 25  1  0  0  0
  2 93  1  0  0  0
  2 94  1  0  0  0
  3  4  1  0  0  0
  3 95  1  0  0  0
  3 96  1  0  0  0
  4  5  1  0  0  0
  4 97  1  0  0  0
  4 98  1  0  0  0
  5  6  1  0  0  0
  5 26  1  0  0  0
  5 99  1  0  0  0
  6 25  1  0  0  0
  6100  1  0  0  0
  6101  1  0  0  0
  7  8  2  0  0  0
  7 26  1  0  0  0
  7 29  1  0  0  0
  8  9  1  0  0  0
  8 22  1  0  0  0
  9 10  1  0  0  0
  9 27  2  0  0  0
 10 11  2  0  0  0
 10 15  1  0  0  0
 11 12  1  0  0  0
 11102  1  0  0  0
 12 13  2  0  0  0
 12103  1  0  0  0
 13 14  1  0  0  0
 13 31  1  0  0  0
 14 15  2  0  0  0
 14104  1  0  0  0
 15105  1  0  0  0
 16 17  2  0  0  0
 16 21  1  0  0  0
 16 31  1  0  0  0
 17 18  1  0  0  0
 17106  1  0  0  0
 18 19  2  0  0  0
 18107  1  0  0  0
 19 20  1  0  0  0
 19 24  1  0  0  0
 20 21  2  0  0  0
 20108  1  0  0  0
 21 23  1  0  0  0
 22 28  1  0  0  0
 22 32  2  0  0  0
 26 27  1  0  0  0
 28109  1  0  0  0
 28110  1  0  0  0
 29111  1  0  0  0
 29112  1  0  0  0
 33 34  1  0  0  0
 33 66  1  0  0  0
 33 70  2  0  0  0
 34 36  1  0  0  0
 34 59  1  0  0  0
 34113  1  0  0  0
 35 44  2  0  0  0
 35 45  1  0  0  0
 35 68  1  0  0  0
 36 56  1  0  0  0
 36114  1  0  0  0
 37 39  1  0  0  0
 37 47  1  0  0  0
 37 66  1  0  0  0
 37115  1  0  0  0
 38 43  2  0  0  0
 38 46  1  0  0  0
 38 47  1  0  0  0
 39 64  1  0  0  0
 39 67  2  0  0  0
 40 52  1  0  0  0
 40 53  2  0  0  0
 40 58  1  0  0  0
 41116  1  0  0  0
 41117  1  0  0  0
 41118  1  0  0  0
 41 48  1  0  0  0
 42 43  1  0  0  0
 42 66  1  0  0  0
 42119  1  0  0  0
 42120  1  0  0  0
 43 44  1  0  0  0
 44121  1  0  0  0
 45 46  2  0  0  0
 45122  1  0  0  0
 46123  1  0  0  0
 47124  1  0  0  0
 47125  1  0  0  0
 48 56  1  0  0  0
 48 65  1  0  0  0
 48126  1  0  0  0
 49 50  1  0  0  0
 49 53  1  0  0  0
 49 64  1  0  0  0
 49127  1  0  0  0
 50 51  1  0  0  0
 50128  1  0  0  0
 50129  1  0  0  0
 51 52  1  0  0  0
 51130  1  0  0  0
 51131  1  0  0  0
 52132  1  0  0  0
 52133  1  0  0  0
 53 54  1  0  0  0
 54 55  2  0  0  0
 54134  1  0  0  0
 55 57  1  0  0  0
 55135  1  0  0  0
 56 69  2  0  0  0
 57 58  2  0  0  0
 57136  1  0  0  0
 58137  1  0  0  0
 59 60  1  0  0  0
 59 61  1  0  0  0
 59 62  1  0  0  0
 60138  1  0  0  0
 60139  1  0  0  0
 60140  1  0  0  0
 61141  1  0  0  0
 61142  1  0  0  0
 61143  1  0  0  0
 62144  1  0  0  0
 62145  1  0  0  0
 62146  1  0  0  0
 63 65  1  0  0  0
 63147  1  0  0  0
 63148  1  0  0  0
 63149  1  0  0  0
 64150  1  0  0  0
 65151  1  0  0  0
 68 76  1  0  0  0
 71 73  2  0  0  0
 71 83  1  0  0  0
 71152  1  0  0  0
 72 74  1  0  0  0
 72 82  2  0  0  0
 72153  1  0  0  0
 73 78  1  0  0  0
 73 82  1  0  0  0
 74 83  2  0  0  0
 74 84  1  0  0  0
 75 76  1  0  0  0
 75 77  1  0  0  0
 75154  1  0  0  0
 75155  1  0  0  0
 76156  1  0  0  0
 76157  1  0  0  0
 77 84  1  0  0  0
 77158  1  0  0  0
 77159  1  0  0  0
 78 79  1  0  0  0
 78 80  1  0  0  0
 79 81  1  0  0  0
 79 85  1  0  0  0
 79 86  1  0  0  0
 80 87  1  0  0  0
 80 88  1  0  0  0
 80 89  1  0  0  0
 81 90  1  0  0  0
 81 91  1  0  0  0
 81 92  1  0  0  0
M  ISO  4   1 100  68 101  76 101  78 100
M  END
> <chiral flag>
0

> <version>
0

> <s_m_source_file>
/data/baiqing/PycharmProjects/Reinvent-master-3.2/result/LINK_invent/BTK/process_docking_weight1_custom_sum_contain_oxygen_bond_distance_aromatic_linkinvent_7_9_3/rearranged_h_0067.sdf

> <i_m_source_file_index>
56

> <r_mmod_Potential_Energy-OPLS-2005>
313.218902587891

> <r_mmod_Stretch_Energy-OPLS-2005>
125.642112731934

> <r_mmod_Bend_Energy-OPLS-2005>
214.761260986328

> <r_mmod_Torsional_Energy-OPLS-2005>
141.160690307617

> <r_mmod_Improper_Torsional_Energy-OPLS-2005>
2.97967219352722

> <r_mmod_Van_der_Waal_Energy-OPLS-2005>
199.285690307617

> <r_mmod_Electrostatic_Energy-OPLS-2005>
-245.336944580078

> <r_mmod_Solvation_Energy-OPLS-2005>
-174.057678222656

> <b_mmod_Minimization_Converged-OPLS-2005>
0

> <r_mmod_RMS_Derivative-OPLS-2005>
0.86599999666214

$$$$
58
                    3D
 Structure written by MMmdl.
183191  0  0  1  0            999 V2000
  -30.7379  -14.5187   20.5400 C   0  0  0  0  0  0
  -30.4220  -12.3183   19.4426 C   0  0  0  0  0  0
  -29.5019  -12.5227   18.2190 C   0  0  0  0  0  0
  -28.0184  -12.3981   18.6167 C   0  0  0  0  0  0
  -27.6709  -13.2235   19.8851 C   0  0  2  0  0  0
  -28.7224  -13.0356   21.0090 C   0  0  0  0  0  0
  -25.2640  -13.8191   20.5683 C   0  0  0  0  0  0
  -24.1874  -13.0494   20.9130 C   0  0  0  0  0  0
  -24.6413  -11.6928   20.8724 C   0  0  0  0  0  0
  -23.9060  -10.4312   21.0391 C   0  0  0  0  0  0
  -24.3625   -9.4236   21.9170 C   0  0  0  0  0  0
  -23.6325   -8.2261   22.0740 C   0  0  0  0  0  0
  -22.4285   -8.0291   21.3556 C   0  0  0  0  0  0
  -21.9905   -9.0259   20.4654 C   0  0  0  0  0  0
  -22.7239  -10.2137   20.3025 C   0  0  0  0  0  0
  -21.6857   -6.0744   22.5315 C   0  0  0  0  0  0
  -21.4032   -6.5659   23.8254 C   0  0  0  0  0  0
  -21.3638   -5.6817   24.9222 C   0  0  0  0  0  0
  -21.6035   -4.3079   24.7269 C   0  0  0  0  0  0
  -21.8822   -3.8164   23.4396 C   0  0  0  0  0  0
  -21.9200   -4.6975   22.3448 C   0  0  0  0  0  0
  -22.7889  -13.5268   21.1833 C   0  0  0  0  0  0
  -22.1669   -4.2146   21.1043 F   0  0  0  0  0  0
  -21.5607   -3.4537   25.7758 F   0  0  0  0  0  0
  -30.0629  -13.3310   20.4570 N   0  0  0  0  0  0
  -26.3111  -12.9397   20.3451 N   0  0  0  0  0  0
  -25.9375  -11.6528   20.5827 N   0  0  0  0  0  0
  -22.0550  -12.8199   22.0365 N   0  0  0  0  0  0
  -25.4367  -15.1910   20.4055 N   0  0  0  0  0  0
  -31.8057  -14.7047   19.9584 O   0  0  0  0  0  0
  -21.6681   -6.8859   21.4251 O   0  0  0  0  0  0
  -22.3581  -14.5615   20.6724 O   0  0  0  0  0  0
  -24.6153  -31.8671   23.2085 C   0  0  0  0  0  0
  -25.9054  -32.4810   23.8377 C   0  0  1  0  0  0
  -27.2225  -27.4285   20.0870 C   0  0  0  0  0  0
  -25.5930  -33.8608   24.2335 N   0  0  0  0  0  0
  -23.4025  -30.4912   21.5506 C   0  0  2  0  0  0
  -24.8447  -28.9596   20.1105 C   0  0  0  0  0  0
  -22.7419  -29.4656   22.5004 C   0  0  0  0  0  0
  -18.0274  -28.1385   22.8472 C   0  0  0  0  0  0
  -24.1486  -36.7313   23.2613 C   0  0  0  0  0  0
  -25.9300  -30.8315   21.3577 C   0  0  0  0  0  0
  -26.0055  -29.4635   20.7105 C   0  0  0  0  0  0
  -27.1997  -28.7041   20.6979 C   0  0  0  0  0  0
  -26.0476  -26.9550   19.4569 C   0  0  0  0  0  0
  -24.8590  -27.7035   19.4817 C   0  0  0  0  0  0
  -23.6075  -29.8253   20.1643 C   0  0  0  0  0  0
  -25.4090  -36.3111   24.0347 C   0  0  1  0  0  0
  -20.5851  -28.3670   23.1323 C   0  0  2  0  0  0
  -20.6757  -26.9422   22.5409 C   0  0  0  0  0  0
  -19.5770  -26.6406   21.5181 C   0  0  0  0  0  0
  -18.1943  -26.7936   22.1569 C   0  0  0  0  0  0
  -19.1517  -28.8842   23.2894 C   0  0  0  0  0  0
  -18.9433  -30.1437   23.8928 C   0  0  0  0  0  0
  -17.6441  -30.6584   24.0562 C   0  0  0  0  0  0
  -25.9046  -34.9479   23.5142 C   0  0  0  0  0  0
  -16.5334  -29.9091   23.6320 C   0  0  0  0  0  0
  -16.7262  -28.6502   23.0343 C   0  0  0  0  0  0
  -26.4462  -31.6557   25.0687 C   0  0  0  0  0  0
  -25.3753  -31.3716   26.1481 C   0  0  0  0  0  0
  -27.0170  -30.2970   24.5994 C   0  0  0  0  0  0
  -27.6115  -32.4189   25.7414 C   0  0  0  0  0  0
  -27.5613  -37.1769   24.8422 C   0  0  0  0  0  0
  -21.4133  -29.3034   22.3734 N   0  0  0  0  0  0
  -26.4256  -37.3815   23.9473 N   0  0  0  0  0  0
  -24.6690  -31.0761   22.0986 N   0  0  0  0  0  0
  -23.4190  -28.8202   23.3043 O   0  0  0  0  0  0
  -28.3690  -26.6591   20.1016 O   0  0  0  0  0  0
  -26.5576  -34.8937   22.4683 O   0  0  0  0  0  0
  -23.5351  -32.1427   23.7467 O   0  0  0  0  0  0
  -29.9702  -20.8579   22.7484 C   0  0  0  0  0  0
  -31.0175  -21.7298   20.9982 C   0  0  0  0  0  0
  -30.7861  -19.4864   21.1745 C   0  0  0  0  0  0
  -27.8022  -21.9035   23.6491 C   0  0  0  0  0  0
  -29.7918  -21.5820   25.2093 C   0  0  0  0  0  0
  -32.8532  -23.4523   20.8148 C   0  0  0  0  0  0
  -31.7222  -22.7207   18.7387 C   0  0  0  0  0  0
  -32.4519  -17.6171   21.5557 C   0  0  0  0  0  0
  -31.5581  -17.9756   19.2509 C   0  0  0  0  0  0
  -28.8881  -24.4865   18.3308 C   0  0  0  0  0  0
  -28.2832  -22.8751   20.0928 C   0  0  0  0  0  0
  -30.4880  -24.2293   20.3692 C   0  0  0  0  0  0
  -29.9848  -16.9915   20.9532 C   0  0  0  0  0  0
  -28.1845  -25.3146   20.5939 C   0  0  0  0  0  0
  -29.0574  -21.0644   23.9640 C   0  0  0  0  0  0
  -31.4860  -23.0063   20.2368 C   0  0  0  0  0  0
  -31.1931  -18.0163   20.7604 C   0  0  0  0  0  0
  -29.0010  -24.2154   19.8446 C   0  0  0  0  0  0
  -30.4639  -21.9455   22.1840 N   0  0  0  0  0  0
  -30.1248  -19.6089   22.3239 N   0  0  0  0  0  0
  -31.2788  -20.5210   20.4769 N   0  0  0  0  0  0
  -30.1182  -15.5183   21.2041 N   0  0  0  0  0  0
  -31.4711  -12.3663   19.1510 H   0  0  0  0  0  0
  -30.2823  -11.3156   19.8515 H   0  0  0  0  0  0
  -29.7386  -11.7992   17.4355 H   0  0  0  0  0  0
  -29.6798  -13.5107   17.7899 H   0  0  0  0  0  0
  -27.7925  -11.3447   18.7836 H   0  0  0  0  0  0
  -27.3790  -12.7134   17.7902 H   0  0  0  0  0  0
  -27.7051  -14.2707   19.5891 H   0  0  0  0  0  0
  -28.7045  -12.0129   21.3913 H   0  0  0  0  0  0
  -28.4774  -13.6691   21.8642 H   0  0  0  0  0  0
  -25.2764   -9.5724   22.4758 H   0  0  0  0  0  0
  -24.0060   -7.4640   22.7431 H   0  0  0  0  0  0
  -21.0816   -8.8741   19.8968 H   0  0  0  0  0  0
  -22.3685  -10.9646   19.6106 H   0  0  0  0  0  0
  -21.2038   -7.6176   23.9762 H   0  0  0  0  0  0
  -21.1437   -6.0552   25.9125 H   0  0  0  0  0  0
  -22.0597   -2.7614   23.2929 H   0  0  0  0  0  0
  -22.4195  -11.9809   22.4628 H   0  0  0  0  0  0
  -21.1194  -13.1203   22.2657 H   0  0  0  0  0  0
  -24.6699  -15.8489   20.4894 H   0  0  0  0  0  0
  -26.3004  -15.6255   20.1093 H   0  0  0  0  0  0
  -26.7114  -32.5517   23.1134 H   0  0  0  0  0  0
  -25.0161  -33.9749   25.0537 H   0  0  0  0  0  0
  -22.6942  -31.3097   21.4138 H   0  0  0  0  0  0
  -23.3778  -35.9605   23.3145 H   0  0  0  0  0  0
  -24.3662  -36.9018   22.2061 H   0  0  0  0  0  0
  -23.7154  -37.6458   23.6675 H   0  0  0  0  0  0
  -26.0256  -31.5850   20.5757 H   0  0  0  0  0  0
  -26.8275  -30.8957   21.9613 H   0  0  0  0  0  0
  -28.0966  -29.0814   21.1682 H   0  0  0  0  0  0
  -26.0419  -26.0071   18.9371 H   0  0  0  0  0  0
  -23.9688  -27.3189   19.0023 H   0  0  0  0  0  0
  -23.7134  -30.5994   19.4042 H   0  0  0  0  0  0
  -22.7322  -29.2440   19.8689 H   0  0  0  0  0  0
  -25.1230  -36.1948   25.0823 H   0  0  0  0  0  0
  -20.9930  -28.3204   24.1447 H   0  0  0  0  0  0
  -20.5607  -26.2288   23.3581 H   0  0  0  0  0  0
  -21.6643  -26.7456   22.1235 H   0  0  0  0  0  0
  -19.6939  -25.6316   21.1221 H   0  0  0  0  0  0
  -19.6740  -27.3209   20.6715 H   0  0  0  0  0  0
  -17.4222  -26.6667   21.3971 H   0  0  0  0  0  0
  -18.0371  -26.0071   22.8958 H   0  0  0  0  0  0
  -19.7910  -30.7218   24.2343 H   0  0  0  0  0  0
  -17.5005  -31.6280   24.5141 H   0  0  0  0  0  0
  -15.5342  -30.3002   23.7642 H   0  0  0  0  0  0
  -15.8650  -28.0837   22.7066 H   0  0  0  0  0  0
  -24.5961  -30.6976   25.7906 H   0  0  0  0  0  0
  -24.8899  -32.2876   26.4858 H   0  0  0  0  0  0
  -25.8145  -30.9005   27.0282 H   0  0  0  0  0  0
  -26.2636  -29.6859   24.1005 H   0  0  0  0  0  0
  -27.3862  -29.7085   25.4399 H   0  0  0  0  0  0
  -27.8546  -30.4248   23.9131 H   0  0  0  0  0  0
  -27.2859  -33.3548   26.1958 H   0  0  0  0  0  0
  -28.3955  -32.6591   25.0224 H   0  0  0  0  0  0
  -28.0722  -31.8273   26.5334 H   0  0  0  0  0  0
  -28.2490  -38.0206   24.7681 H   0  0  0  0  0  0
  -28.1237  -36.2758   24.5932 H   0  0  0  0  0  0
  -27.2415  -37.1028   25.8828 H   0  0  0  0  0  0
  -20.9302  -29.8785   21.6976 H   0  0  0  0  0  0
  -26.0131  -38.2855   24.1599 H   0  0  0  0  0  0
  -27.2611  -21.4942   22.7965 H   0  0  0  0  0  0
  -28.0558  -22.9415   23.4326 H   0  0  0  0  0  0
  -27.1118  -21.9112   24.4938 H   0  0  0  0  0  0
  -30.5957  -20.9056   25.4951 H   0  0  0  0  0  0
  -29.1045  -21.6582   26.0539 H   0  0  0  0  0  0
  -30.2170  -22.5700   25.0441 H   0  0  0  0  0  0
  -33.5844  -22.6467   20.7682 H   0  0  0  0  0  0
  -32.7798  -23.7568   21.8584 H   0  0  0  0  0  0
  -33.2696  -24.2966   20.2629 H   0  0  0  0  0  0
  -32.5682  -22.0463   18.6014 H   0  0  0  0  0  0
  -31.9471  -23.6346   18.1874 H   0  0  0  0  0  0
  -30.8583  -22.2459   18.2787 H   0  0  0  0  0  0
  -33.2102  -18.4017   21.4992 H   0  0  0  0  0  0
  -32.9110  -16.7154   21.1544 H   0  0  0  0  0  0
  -32.2298  -17.4461   22.6068 H   0  0  0  0  0  0
  -32.4288  -18.5900   19.0230 H   0  0  0  0  0  0
  -30.7333  -18.3302   18.6305 H   0  0  0  0  0  0
  -31.7948  -16.9682   18.9209 H   0  0  0  0  0  0
  -29.2415  -23.6563   17.7234 H   0  0  0  0  0  0
  -29.4336  -25.3828   18.0357 H   0  0  0  0  0  0
  -27.8439  -24.6427   18.0569 H   0  0  0  0  0  0
  -28.7817  -22.0320   19.6156 H   0  0  0  0  0  0
  -27.2639  -22.8873   19.7051 H   0  0  0  0  0  0
  -28.2041  -22.6772   21.1549 H   0  0  0  0  0  0
  -30.9622  -25.1096   19.9321 H   0  0  0  0  0  0
  -30.4553  -24.4630   21.4335 H   0  0  0  0  0  0
  -29.2907  -17.1320   20.1211 H   0  0  0  0  0  0
  -29.4118  -17.2965   21.8298 H   0  0  0  0  0  0
  -28.4346  -25.3244   21.6552 H   0  0  0  0  0  0
  -27.1365  -25.0184   20.5903 H   0  0  0  0  0  0
  -28.6805  -20.0748   24.2270 H   0  0  0  0  0  0
  -29.3846  -15.1647   21.7991 H   0  0  0  0  0  0
  1 25  1  0  0  0
  1 30  2  0  0  0
  1 92  1  0  0  0
  2  3  1  0  0  0
  2 25  1  0  0  0
  2 93  1  0  0  0
  2 94  1  0  0  0
  3  4  1  0  0  0
  3 95  1  0  0  0
  3 96  1  0  0  0
  4  5  1  0  0  0
  4 97  1  0  0  0
  4 98  1  0  0  0
  5  6  1  0  0  0
  5 26  1  0  0  0
  5 99  1  0  0  0
  6 25  1  0  0  0
  6100  1  0  0  0
  6101  1  0  0  0
  7  8  2  0  0  0
  7 26  1  0  0  0
  7 29  1  0  0  0
  8  9  1  0  0  0
  8 22  1  0  0  0
  9 10  1  0  0  0
  9 27  2  0  0  0
 10 11  2  0  0  0
 10 15  1  0  0  0
 11 12  1  0  0  0
 11102  1  0  0  0
 12 13  2  0  0  0
 12103  1  0  0  0
 13 14  1  0  0  0
 13 31  1  0  0  0
 14 15  2  0  0  0
 14104  1  0  0  0
 15105  1  0  0  0
 16 17  2  0  0  0
 16 21  1  0  0  0
 16 31  1  0  0  0
 17 18  1  0  0  0
 17106  1  0  0  0
 18 19  2  0  0  0
 18107  1  0  0  0
 19 20  1  0  0  0
 19 24  1  0  0  0
 20 21  2  0  0  0
 20108  1  0  0  0
 21 23  1  0  0  0
 22 28  1  0  0  0
 22 32  2  0  0  0
 26 27  1  0  0  0
 28109  1  0  0  0
 28110  1  0  0  0
 29111  1  0  0  0
 29112  1  0  0  0
 33 34  1  0  0  0
 33 66  1  0  0  0
 33 70  2  0  0  0
 34 36  1  0  0  0
 34 59  1  0  0  0
 34113  1  0  0  0
 35 44  2  0  0  0
 35 45  1  0  0  0
 35 68  1  0  0  0
 36 56  1  0  0  0
 36114  1  0  0  0
 37 39  1  0  0  0
 37 47  1  0  0  0
 37 66  1  0  0  0
 37115  1  0  0  0
 38 43  2  0  0  0
 38 46  1  0  0  0
 38 47  1  0  0  0
 39 64  1  0  0  0
 39 67  2  0  0  0
 40 52  1  0  0  0
 40 53  2  0  0  0
 40 58  1  0  0  0
 41116  1  0  0  0
 41117  1  0  0  0
 41118  1  0  0  0
 41 48  1  0  0  0
 42 43  1  0  0  0
 42 66  1  0  0  0
 42119  1  0  0  0
 42120  1  0  0  0
 43 44  1  0  0  0
 44121  1  0  0  0
 45 46  2  0  0  0
 45122  1  0  0  0
 46123  1  0  0  0
 47124  1  0  0  0
 47125  1  0  0  0
 48 56  1  0  0  0
 48 65  1  0  0  0
 48126  1  0  0  0
 49 50  1  0  0  0
 49 53  1  0  0  0
 49 64  1  0  0  0
 49127  1  0  0  0
 50 51  1  0  0  0
 50128  1  0  0  0
 50129  1  0  0  0
 51 52  1  0  0  0
 51130  1  0  0  0
 51131  1  0  0  0
 52132  1  0  0  0
 52133  1  0  0  0
 53 54  1  0  0  0
 54 55  2  0  0  0
 54134  1  0  0  0
 55 57  1  0  0  0
 55135  1  0  0  0
 56 69  2  0  0  0
 57 58  2  0  0  0
 57136  1  0  0  0
 58137  1  0  0  0
 59 60  1  0  0  0
 59 61  1  0  0  0
 59 62  1  0  0  0
 60138  1  0  0  0
 60139  1  0  0  0
 60140  1  0  0  0
 61141  1  0  0  0
 61142  1  0  0  0
 61143  1  0  0  0
 62144  1  0  0  0
 62145  1  0  0  0
 62146  1  0  0  0
 63 65  1  0  0  0
 63147  1  0  0  0
 63148  1  0  0  0
 63149  1  0  0  0
 64150  1  0  0  0
 65151  1  0  0  0
 68 84  1  0  0  0
 71 85  1  0  0  0
 71 89  2  0  0  0
 71 90  1  0  0  0
 72 86  1  0  0  0
 72 89  1  0  0  0
 72 91  2  0  0  0
 73 87  1  0  0  0
 73 90  2  0  0  0
 73 91  1  0  0  0
 74152  1  0  0  0
 74153  1  0  0  0
 74154  1  0  0  0
 74 85  1  0  0  0
 75 85  1  0  0  0
 75155  1  0  0  0
 75156  1  0  0  0
 75157  1  0  0  0
 76158  1  0  0  0
 76159  1  0  0  0
 76160  1  0  0  0
 76 86  1  0  0  0
 77 86  1  0  0  0
 77161  1  0  0  0
 77162  1  0  0  0
 77163  1  0  0  0
 78164  1  0  0  0
 78165  1  0  0  0
 78166  1  0  0  0
 78 87  1  0  0  0
 79 87  1  0  0  0
 79167  1  0  0  0
 79168  1  0  0  0
 79169  1  0  0  0
 80170  1  0  0  0
 80171  1  0  0  0
 80172  1  0  0  0
 80 88  1  0  0  0
 81 88  1  0  0  0
 81173  1  0  0  0
 81174  1  0  0  0
 81175  1  0  0  0
 82 86  1  0  0  0
 82 88  1  0  0  0
 82176  1  0  0  0
 82177  1  0  0  0
 83 87  1  0  0  0
 83 92  1  0  0  0
 83178  1  0  0  0
 83179  1  0  0  0
 84 88  1  0  0  0
 84180  1  0  0  0
 84181  1  0  0  0
 85182  1  0  0  0
 92183  1  0  0  0
M  ISO  4   1 100  68 101  84 101  92 100
M  END
> <chiral flag>
0

> <version>
0

> <s_m_source_file>
/data/baiqing/PycharmProjects/Reinvent-master-3.2/result/LINK_invent/BTK/process_docking_weight1_custom_sum_contain_oxygen_bond_distance_aromatic_linkinvent_7_9_3/rearranged_h_0067.sdf

> <i_m_source_file_index>
57

> <r_mmod_Potential_Energy-OPLS-2005>
-663.338500976562

> <r_mmod_Stretch_Energy-OPLS-2005>
64.6942443847656

> <r_mmod_Bend_Energy-OPLS-2005>
170.359878540039

> <r_mmod_Torsional_Energy-OPLS-2005>
232.985656738281

> <r_mmod_Improper_Torsional_Energy-OPLS-2005>
5.46436643600464

> <r_mmod_Van_der_Waal_Energy-OPLS-2005>
185.098541259766

> <r_mmod_Electrostatic_Energy-OPLS-2005>
-1134.78442382812

> <r_mmod_Solvation_Energy-OPLS-2005>
-205.417053222656

> <b_mmod_Minimization_Converged-OPLS-2005>
0

> <r_mmod_RMS_Derivative-OPLS-2005>
6.0888295173645

$$$$
59
                    3D
 Structure written by MMmdl.
160168  0  0  1  0            999 V2000
  -30.6901  -14.4621   20.5545 C   0  0  0  0  0  0
  -30.4316  -12.3021   19.3955 C   0  0  0  0  0  0
  -29.4935  -12.5088   18.1872 C   0  0  0  0  0  0
  -28.0134  -12.3721   18.6067 C   0  0  0  0  0  0
  -27.6654  -13.2027   19.8713 C   0  0  2  0  0  0
  -28.7141  -12.9617   20.9817 C   0  0  0  0  0  0
  -25.2619  -13.8143   20.5690 C   0  0  0  0  0  0
  -24.1869  -13.0426   20.9178 C   0  0  0  0  0  0
  -24.6428  -11.6891   20.8739 C   0  0  0  0  0  0
  -23.9083  -10.4283   21.0417 C   0  0  0  0  0  0
  -24.3629   -9.4202   21.9197 C   0  0  0  0  0  0
  -23.6299   -8.2235   22.0763 C   0  0  0  0  0  0
  -22.4280   -8.0290   21.3545 C   0  0  0  0  0  0
  -21.9921   -9.0269   20.4651 C   0  0  0  0  0  0
  -22.7257  -10.2144   20.3061 C   0  0  0  0  0  0
  -21.6850   -6.0747   22.5291 C   0  0  0  0  0  0
  -21.4010   -6.5636   23.8226 C   0  0  0  0  0  0
  -21.3652   -5.6791   24.9189 C   0  0  0  0  0  0
  -21.6036   -4.3053   24.7229 C   0  0  0  0  0  0
  -21.8822   -3.8148   23.4350 C   0  0  0  0  0  0
  -21.9189   -4.6978   22.3412 C   0  0  0  0  0  0
  -22.7882  -13.5230   21.1846 C   0  0  0  0  0  0
  -22.1656   -4.2156   21.0985 F   0  0  0  0  0  0
  -21.5635   -3.4540   25.7747 F   0  0  0  0  0  0
  -30.0421  -13.2750   20.4238 N   0  0  0  0  0  0
  -26.3062  -12.9309   20.3365 N   0  0  0  0  0  0
  -25.9344  -11.6470   20.5746 N   0  0  0  0  0  0
  -22.0506  -12.8230   22.0395 N   0  0  0  0  0  0
  -25.4301  -15.1868   20.4127 N   0  0  0  0  0  0
  -31.8295  -14.6699   20.1309 O   0  0  0  0  0  0
  -21.6628   -6.8896   21.4253 O   0  0  0  0  0  0
  -22.3569  -14.5545   20.6705 O   0  0  0  0  0  0
  -24.6129  -31.8695   23.2089 C   0  0  0  0  0  0
  -25.9019  -32.4831   23.8399 C   0  0  1  0  0  0
  -27.2398  -27.4521   20.0936 C   0  0  0  0  0  0
  -25.5875  -33.8642   24.2317 N   0  0  0  0  0  0
  -23.4041  -30.4886   21.5504 C   0  0  2  0  0  0
  -24.8529  -28.9548   20.1140 C   0  0  0  0  0  0
  -22.7411  -29.4665   22.5009 C   0  0  0  0  0  0
  -18.0272  -28.1380   22.8497 C   0  0  0  0  0  0
  -24.1494  -36.7328   23.2629 C   0  0  0  0  0  0
  -25.9299  -30.8371   21.3604 C   0  0  0  0  0  0
  -26.0106  -29.4714   20.7119 C   0  0  0  0  0  0
  -27.2105  -28.7254   20.7005 C   0  0  0  0  0  0
  -26.0729  -26.9433   19.4887 C   0  0  0  0  0  0
  -24.8780  -27.6880   19.4989 C   0  0  0  0  0  0
  -23.6119  -29.8177   20.1657 C   0  0  0  0  0  0
  -25.4107  -36.3114   24.0318 C   0  0  1  0  0  0
  -20.5864  -28.3666   23.1328 C   0  0  2  0  0  0
  -20.6780  -26.9403   22.5436 C   0  0  0  0  0  0
  -19.5753  -26.6393   21.5226 C   0  0  0  0  0  0
  -18.1922  -26.7930   22.1616 C   0  0  0  0  0  0
  -19.1523  -28.8839   23.2909 C   0  0  0  0  0  0
  -18.9445  -30.1442   23.8922 C   0  0  0  0  0  0
  -17.6450  -30.6587   24.0569 C   0  0  0  0  0  0
  -25.9047  -34.9484   23.5120 C   0  0  0  0  0  0
  -16.5341  -29.9089   23.6342 C   0  0  0  0  0  0
  -16.7264  -28.6515   23.0352 C   0  0  0  0  0  0
  -26.4434  -31.6602   25.0744 C   0  0  0  0  0  0
  -25.3708  -31.3669   26.1506 C   0  0  0  0  0  0
  -27.0237  -30.3059   24.6062 C   0  0  0  0  0  0
  -27.6058  -32.4301   25.7455 C   0  0  0  0  0  0
  -27.5590  -37.1770   24.8432 C   0  0  0  0  0  0
  -21.4142  -29.3030   22.3734 N   0  0  0  0  0  0
  -26.4286  -37.3809   23.9422 N   0  0  0  0  0  0
  -24.6673  -31.0789   22.0986 N   0  0  0  0  0  0
  -23.4173  -28.8228   23.3076 O   0  0  0  0  0  0
  -28.3847  -26.6946   20.0981 O   0  0  0  0  0  0
  -26.5629  -34.8911   22.4696 O   0  0  0  0  0  0
  -23.5319  -32.1453   23.7463 O   0  0  0  0  0  0
  -30.5057  -21.1440   21.3702 C   0  0  0  0  0  0
  -29.3172  -21.8372   21.0722 C   0  0  0  0  0  0
  -28.3594  -21.1214   20.3282 C   0  0  0  0  0  0
  -29.7035  -19.2586   20.3490 C   0  0  0  0  0  0
  -27.0366  -21.7180   19.8854 C   0  0  0  0  0  0
  -30.8111  -17.6207   18.7556 C   0  0  0  0  0  0
  -29.0603  -23.2441   21.6223 C   0  0  0  0  0  0
  -29.1100  -24.3904   20.5832 C   0  0  0  0  0  0
  -30.2459  -16.8821   21.1831 C   0  0  0  0  0  0
  -28.3620  -25.6461   21.0723 C   0  0  0  0  0  0
  -29.8748  -17.7778   19.9670 C   0  0  1  0  0  0
  -30.6965  -19.8624   20.9961 N   0  0  0  0  0  0
  -28.5688  -19.8405   19.9748 N   0  0  0  0  0  0
  -29.9233  -15.4534   21.0312 N   0  0  0  0  0  0
  -31.4747  -12.4122   19.0906 H   0  0  0  0  0  0
  -30.3389  -11.2872   19.7839 H   0  0  0  0  0  0
  -29.7261  -11.7843   17.4050 H   0  0  0  0  0  0
  -29.6639  -13.4926   17.7477 H   0  0  0  0  0  0
  -27.8246  -11.3150   18.7964 H   0  0  0  0  0  0
  -27.3642  -12.6558   17.7772 H   0  0  0  0  0  0
  -27.7131  -14.2533   19.5845 H   0  0  0  0  0  0
  -28.6919  -11.9185   21.3007 H   0  0  0  0  0  0
  -28.4865  -13.5433   21.8766 H   0  0  0  0  0  0
  -25.2785   -9.5660   22.4769 H   0  0  0  0  0  0
  -24.0000   -7.4619   22.7478 H   0  0  0  0  0  0
  -21.0849   -8.8803   19.8951 H   0  0  0  0  0  0
  -22.3742  -10.9691   19.6160 H   0  0  0  0  0  0
  -21.1997   -7.6148   23.9739 H   0  0  0  0  0  0
  -21.1465   -6.0515   25.9092 H   0  0  0  0  0  0
  -22.0601   -2.7610   23.2854 H   0  0  0  0  0  0
  -22.4086  -11.9883   22.4791 H   0  0  0  0  0  0
  -21.1120  -13.1269   22.2577 H   0  0  0  0  0  0
  -24.6620  -15.8382   20.5293 H   0  0  0  0  0  0
  -26.2800  -15.6346   20.0912 H   0  0  0  0  0  0
  -26.7105  -32.5544   23.1182 H   0  0  0  0  0  0
  -25.0040  -33.9819   25.0468 H   0  0  0  0  0  0
  -22.6939  -31.3061   21.4072 H   0  0  0  0  0  0
  -23.3748  -35.9664   23.3285 H   0  0  0  0  0  0
  -24.3638  -36.8992   22.2064 H   0  0  0  0  0  0
  -23.7235  -37.6510   23.6680 H   0  0  0  0  0  0
  -26.0426  -31.5956   20.5850 H   0  0  0  0  0  0
  -26.8182  -30.8947   21.9786 H   0  0  0  0  0  0
  -28.1064  -29.1122   21.1658 H   0  0  0  0  0  0
  -26.0905  -25.9701   19.0168 H   0  0  0  0  0  0
  -23.9869  -27.2851   19.0353 H   0  0  0  0  0  0
  -23.7097  -30.5924   19.4038 H   0  0  0  0  0  0
  -22.7387  -29.2321   19.8755 H   0  0  0  0  0  0
  -25.1260  -36.1986   25.0810 H   0  0  0  0  0  0
  -20.9954  -28.3240   24.1437 H   0  0  0  0  0  0
  -20.5724  -26.2260   23.3614 H   0  0  0  0  0  0
  -21.6644  -26.7483   22.1180 H   0  0  0  0  0  0
  -19.6938  -25.6314   21.1234 H   0  0  0  0  0  0
  -19.6709  -27.3215   20.6769 H   0  0  0  0  0  0
  -17.4206  -26.6705   21.3996 H   0  0  0  0  0  0
  -18.0310  -26.0036   22.8990 H   0  0  0  0  0  0
  -19.7917  -30.7261   24.2299 H   0  0  0  0  0  0
  -17.4997  -31.6265   24.5160 H   0  0  0  0  0  0
  -15.5341  -30.2994   23.7647 H   0  0  0  0  0  0
  -15.8666  -28.0839   22.7055 H   0  0  0  0  0  0
  -24.5892  -30.6995   25.7829 H   0  0  0  0  0  0
  -24.8857  -32.2794   26.4990 H   0  0  0  0  0  0
  -25.8070  -30.8814   27.0254 H   0  0  0  0  0  0
  -26.2748  -29.6868   24.1110 H   0  0  0  0  0  0
  -27.4030  -29.7237   25.4466 H   0  0  0  0  0  0
  -27.8561  -30.4400   23.9159 H   0  0  0  0  0  0
  -27.2733  -33.3610   26.2045 H   0  0  0  0  0  0
  -28.3802  -32.6859   25.0216 H   0  0  0  0  0  0
  -28.0769  -31.8418   26.5335 H   0  0  0  0  0  0
  -28.2496  -38.0165   24.7652 H   0  0  0  0  0  0
  -28.1183  -36.2722   24.6032 H   0  0  0  0  0  0
  -27.2366  -37.1191   25.8836 H   0  0  0  0  0  0
  -20.9327  -29.8736   21.6921 H   0  0  0  0  0  0
  -26.0165  -38.2863   24.1507 H   0  0  0  0  0  0
  -31.2974  -21.6042   21.9431 H   0  0  0  0  0  0
  -26.6137  -22.3828   20.6374 H   0  0  0  0  0  0
  -26.3002  -20.9387   19.6882 H   0  0  0  0  0  0
  -27.1744  -22.2843   18.9646 H   0  0  0  0  0  0
  -30.4607  -18.2269   17.9203 H   0  0  0  0  0  0
  -30.8548  -16.5873   18.4161 H   0  0  0  0  0  0
  -31.8245  -17.9453   18.9939 H   0  0  0  0  0  0
  -29.7678  -23.4566   22.4262 H   0  0  0  0  0  0
  -28.0859  -23.2300   22.1133 H   0  0  0  0  0  0
  -28.6526  -24.0725   19.6471 H   0  0  0  0  0  0
  -30.1467  -24.6333   20.3475 H   0  0  0  0  0  0
  -29.6656  -17.2236   22.0403 H   0  0  0  0  0  0
  -31.2923  -17.0262   21.4559 H   0  0  0  0  0  0
  -28.8073  -26.0193   21.9949 H   0  0  0  0  0  0
  -27.3384  -25.3599   21.3260 H   0  0  0  0  0  0
  -28.8919  -17.4439   19.6294 H   0  0  0  0  0  0
  -28.9950  -15.1743   21.3115 H   0  0  0  0  0  0
  1 25  1  0  0  0
  1 30  2  0  0  0
  1 84  1  0  0  0
  2  3  1  0  0  0
  2 25  1  0  0  0
  2 85  1  0  0  0
  2 86  1  0  0  0
  3  4  1  0  0  0
  3 87  1  0  0  0
  3 88  1  0  0  0
  4  5  1  0  0  0
  4 89  1  0  0  0
  4 90  1  0  0  0
  5  6  1  0  0  0
  5 26  1  0  0  0
  5 91  1  0  0  0
  6 25  1  0  0  0
  6 92  1  0  0  0
  6 93  1  0  0  0
  7  8  2  0  0  0
  7 26  1  0  0  0
  7 29  1  0  0  0
  8  9  1  0  0  0
  8 22  1  0  0  0
  9 10  1  0  0  0
  9 27  2  0  0  0
 10 11  2  0  0  0
 10 15  1  0  0  0
 11 12  1  0  0  0
 11 94  1  0  0  0
 12 13  2  0  0  0
 12 95  1  0  0  0
 13 14  1  0  0  0
 13 31  1  0  0  0
 14 15  2  0  0  0
 14 96  1  0  0  0
 15 97  1  0  0  0
 16 17  2  0  0  0
 16 21  1  0  0  0
 16 31  1  0  0  0
 17 18  1  0  0  0
 17 98  1  0  0  0
 18 19  2  0  0  0
 18 99  1  0  0  0
 19 20  1  0  0  0
 19 24  1  0  0  0
 20 21  2  0  0  0
 20100  1  0  0  0
 21 23  1  0  0  0
 22 28  1  0  0  0
 22 32  2  0  0  0
 26 27  1  0  0  0
 28101  1  0  0  0
 28102  1  0  0  0
 29103  1  0  0  0
 29104  1  0  0  0
 33 34  1  0  0  0
 33 66  1  0  0  0
 33 70  2  0  0  0
 34 36  1  0  0  0
 34 59  1  0  0  0
 34105  1  0  0  0
 35 44  2  0  0  0
 35 45  1  0  0  0
 35 68  1  0  0  0
 36 56  1  0  0  0
 36106  1  0  0  0
 37 39  1  0  0  0
 37 47  1  0  0  0
 37 66  1  0  0  0
 37107  1  0  0  0
 38 43  2  0  0  0
 38 46  1  0  0  0
 38 47  1  0  0  0
 39 64  1  0  0  0
 39 67  2  0  0  0
 40 52  1  0  0  0
 40 53  2  0  0  0
 40 58  1  0  0  0
 41108  1  0  0  0
 41109  1  0  0  0
 41110  1  0  0  0
 41 48  1  0  0  0
 42 43  1  0  0  0
 42 66  1  0  0  0
 42111  1  0  0  0
 42112  1  0  0  0
 43 44  1  0  0  0
 44113  1  0  0  0
 45 46  2  0  0  0
 45114  1  0  0  0
 46115  1  0  0  0
 47116  1  0  0  0
 47117  1  0  0  0
 48 56  1  0  0  0
 48 65  1  0  0  0
 48118  1  0  0  0
 49 50  1  0  0  0
 49 53  1  0  0  0
 49 64  1  0  0  0
 49119  1  0  0  0
 50 51  1  0  0  0
 50120  1  0  0  0
 50121  1  0  0  0
 51 52  1  0  0  0
 51122  1  0  0  0
 51123  1  0  0  0
 52124  1  0  0  0
 52125  1  0  0  0
 53 54  1  0  0  0
 54 55  2  0  0  0
 54126  1  0  0  0
 55 57  1  0  0  0
 55127  1  0  0  0
 56 69  2  0  0  0
 57 58  2  0  0  0
 57128  1  0  0  0
 58129  1  0  0  0
 59 60  1  0  0  0
 59 61  1  0  0  0
 59 62  1  0  0  0
 60130  1  0  0  0
 60131  1  0  0  0
 60132  1  0  0  0
 61133  1  0  0  0
 61134  1  0  0  0
 61135  1  0  0  0
 62136  1  0  0  0
 62137  1  0  0  0
 62138  1  0  0  0
 63 65  1  0  0  0
 63139  1  0  0  0
 63140  1  0  0  0
 63141  1  0  0  0
 64142  1  0  0  0
 65143  1  0  0  0
 68 80  1  0  0  0
 71 72  2  0  0  0
 71 82  1  0  0  0
 71144  1  0  0  0
 72 73  1  0  0  0
 72 77  1  0  0  0
 73 75  1  0  0  0
 73 83  2  0  0  0
 74 81  1  0  0  0
 74 82  2  0  0  0
 74 83  1  0  0  0
 75145  1  0  0  0
 75146  1  0  0  0
 75147  1  0  0  0
 76148  1  0  0  0
 76149  1  0  0  0
 76150  1  0  0  0
 76 81  1  0  0  0
 77 78  1  0  0  0
 77151  1  0  0  0
 77152  1  0  0  0
 78 80  1  0  0  0
 78153  1  0  0  0
 78154  1  0  0  0
 79 81  1  0  0  0
 79 84  1  0  0  0
 79155  1  0  0  0
 79156  1  0  0  0
 80157  1  0  0  0
 80158  1  0  0  0
 81159  1  0  0  0
 84160  1  0  0  0
M  ISO  4   1 100  68 101  80 101  84 100
M  END
> <chiral flag>
0

> <version>
0

> <s_m_source_file>
/data/baiqing/PycharmProjects/Reinvent-master-3.2/result/LINK_invent/BTK/process_docking_weight1_custom_sum_contain_oxygen_bond_distance_aromatic_linkinvent_7_9_3/rearranged_h_0067.sdf

> <i_m_source_file_index>
58

> <r_mmod_Potential_Energy-OPLS-2005>
-448.247314453125

> <r_mmod_Stretch_Energy-OPLS-2005>
34.5061187744141

> <r_mmod_Bend_Energy-OPLS-2005>
96.5720825195312

> <r_mmod_Torsional_Energy-OPLS-2005>
214.744903564453

> <r_mmod_Improper_Torsional_Energy-OPLS-2005>
3.92962694168091

> <r_mmod_Van_der_Waal_Energy-OPLS-2005>
153.303771972656

> <r_mmod_Electrostatic_Energy-OPLS-2005>
-736.455322265625

> <r_mmod_Solvation_Energy-OPLS-2005>
-226.972808837891

> <b_mmod_Minimization_Converged-OPLS-2005>
0

> <r_mmod_RMS_Derivative-OPLS-2005>
3.34181880950928

$$$$
60
                    3D
 Structure written by MMmdl.
181189  0  0  1  0            999 V2000
  -30.7557  -14.5714   20.3563 C   0  0  0  0  0  0
  -30.4101  -12.3244   19.4359 C   0  0  0  0  0  0
  -29.4707  -12.3228   18.2133 C   0  0  0  0  0  0
  -27.9925  -12.2808   18.6458 C   0  0  0  0  0  0
  -27.6330  -13.2132   19.8380 C   0  0  2  0  0  0
  -28.7055  -13.1848   20.9473 C   0  0  0  0  0  0
  -25.2518  -13.8180   20.5749 C   0  0  0  0  0  0
  -24.1782  -13.0446   20.9239 C   0  0  0  0  0  0
  -24.6350  -11.6920   20.8819 C   0  0  0  0  0  0
  -23.9026  -10.4303   21.0442 C   0  0  0  0  0  0
  -24.3582   -9.4209   21.9204 C   0  0  0  0  0  0
  -23.6274   -8.2237   22.0757 C   0  0  0  0  0  0
  -22.4257   -8.0279   21.3538 C   0  0  0  0  0  0
  -21.9885   -9.0258   20.4641 C   0  0  0  0  0  0
  -22.7209  -10.2147   20.3073 C   0  0  0  0  0  0
  -21.6852   -6.0729   22.5270 C   0  0  0  0  0  0
  -21.4020   -6.5636   23.8200 C   0  0  0  0  0  0
  -21.3653   -5.6788   24.9166 C   0  0  0  0  0  0
  -21.6037   -4.3051   24.7217 C   0  0  0  0  0  0
  -21.8831   -3.8144   23.4343 C   0  0  0  0  0  0
  -21.9201   -4.6960   22.3395 C   0  0  0  0  0  0
  -22.7812  -13.5252   21.1862 C   0  0  0  0  0  0
  -22.1671   -4.2137   21.0975 F   0  0  0  0  0  0
  -21.5611   -3.4541   25.7740 F   0  0  0  0  0  0
  -30.0008  -13.4359   20.3050 N   0  0  0  0  0  0
  -26.2932  -12.9344   20.3418 N   0  0  0  0  0  0
  -25.9289  -11.6512   20.5938 N   0  0  0  0  0  0
  -22.0439  -12.8252   22.0407 N   0  0  0  0  0  0
  -25.4223  -15.1894   20.4132 N   0  0  0  0  0  0
  -31.9730  -14.4848   20.4247 O   0  0  0  0  0  0
  -21.6627   -6.8876   21.4231 O   0  0  0  0  0  0
  -22.3519  -14.5562   20.6712 O   0  0  0  0  0  0
  -24.6161  -31.8660   23.2113 C   0  0  0  0  0  0
  -25.9051  -32.4819   23.8401 C   0  0  1  0  0  0
  -27.2212  -27.4195   20.1144 C   0  0  0  0  0  0
  -25.5897  -33.8619   24.2321 N   0  0  0  0  0  0
  -23.4033  -30.4905   21.5515 C   0  0  2  0  0  0
  -24.8477  -28.9512   20.1207 C   0  0  0  0  0  0
  -22.7412  -29.4651   22.5005 C   0  0  0  0  0  0
  -18.0260  -28.1378   22.8490 C   0  0  0  0  0  0
  -24.1473  -36.7312   23.2636 C   0  0  0  0  0  0
  -25.9314  -30.8295   21.3635 C   0  0  0  0  0  0
  -26.0073  -29.4597   20.7201 C   0  0  0  0  0  0
  -27.2008  -28.7009   20.7127 C   0  0  0  0  0  0
  -26.0510  -26.9309   19.4998 C   0  0  0  0  0  0
  -24.8641  -27.6873   19.5057 C   0  0  0  0  0  0
  -23.6113  -29.8207   20.1671 C   0  0  0  0  0  0
  -25.4099  -36.3113   24.0335 C   0  0  1  0  0  0
  -20.5850  -28.3669   23.1319 C   0  0  2  0  0  0
  -20.6757  -26.9402   22.5423 C   0  0  0  0  0  0
  -19.5739  -26.6382   21.5212 C   0  0  0  0  0  0
  -18.1908  -26.7919   22.1616 C   0  0  0  0  0  0
  -19.1505  -28.8840   23.2901 C   0  0  0  0  0  0
  -18.9442  -30.1443   23.8915 C   0  0  0  0  0  0
  -17.6448  -30.6596   24.0562 C   0  0  0  0  0  0
  -25.9038  -34.9480   23.5128 C   0  0  0  0  0  0
  -16.5345  -29.9093   23.6334 C   0  0  0  0  0  0
  -16.7245  -28.6506   23.0360 C   0  0  0  0  0  0
  -26.4468  -31.6616   25.0744 C   0  0  0  0  0  0
  -25.3728  -31.3724   26.1492 C   0  0  0  0  0  0
  -27.0299  -30.3067   24.6116 C   0  0  0  0  0  0
  -27.6042  -32.4344   25.7500 C   0  0  0  0  0  0
  -27.5571  -37.1799   24.8459 C   0  0  0  0  0  0
  -21.4140  -29.3036   22.3737 N   0  0  0  0  0  0
  -26.4279  -37.3810   23.9415 N   0  0  0  0  0  0
  -24.6688  -31.0772   22.1004 N   0  0  0  0  0  0
  -23.4181  -28.8184   23.3048 O   0  0  0  0  0  0
  -28.3822  -26.6834   20.0539 O   0  0  0  0  0  0
  -26.5603  -34.8925   22.4694 O   0  0  0  0  0  0
  -23.5361  -32.1408   23.7525 O   0  0  0  0  0  0
  -28.5659  -18.4645   19.4402 C   0  0  0  0  0  0
  -27.6897  -19.5595   19.5961 C   0  0  0  0  0  0
  -29.5253  -18.1840   20.4381 C   0  0  0  0  0  0
  -27.8920  -20.3893   20.7344 C   0  0  0  0  0  0
  -23.5150  -17.5075   17.5611 C   0  0  0  0  0  0
  -26.1057  -21.6798   22.0280 C   0  0  0  0  0  0
  -33.2432  -17.0930   19.8053 C   0  0  0  0  0  0
  -32.4035  -18.7612   21.3952 C   0  0  0  0  0  0
  -29.9268  -15.6205   18.3878 C   0  0  0  0  0  0
  -26.5986  -19.7487   18.5410 C   0  0  0  0  0  0
  -24.4660  -18.7110   17.5330 C   0  0  0  0  0  0
  -25.6399  -18.5423   18.5079 C   0  0  0  0  0  0
  -27.6450  -24.2954   20.5374 C   0  0  0  0  0  0
  -28.1544  -22.9559   21.1455 C   0  0  0  0  0  0
  -28.4878  -25.5405   20.9219 C   0  0  0  0  0  0
  -27.1873  -21.7517   20.9378 C   0  0  1  0  0  0
  -30.6594  -17.1442   20.1735 C   0  0  1  0  0  0
  -32.0953  -17.3624   20.8172 C   0  0  0  0  0  0
  -29.4985  -18.8890   21.6003 N   0  0  0  0  0  0
  -28.7406  -19.9942   21.7238 N   0  0  0  0  0  0
  -30.2159  -15.7277   19.8403 N   0  0  0  0  0  0
  -31.4463  -12.4096   19.1035 H   0  0  0  0  0  0
  -30.3419  -11.3813   19.9808 H   0  0  0  0  0  0
  -29.6813  -11.4417   17.6062 H   0  0  0  0  0  0
  -29.6504  -13.1582   17.5466 H   0  0  0  0  0  0
  -27.7933  -11.2465   18.9255 H   0  0  0  0  0  0
  -27.3426  -12.4879   17.7949 H   0  0  0  0  0  0
  -27.5970  -14.2253   19.4482 H   0  0  0  0  0  0
  -28.7143  -12.2245   21.4655 H   0  0  0  0  0  0
  -28.4961  -13.9501   21.6973 H   0  0  0  0  0  0
  -25.2722   -9.5678   22.4777 H   0  0  0  0  0  0
  -23.9980   -7.4623   22.7469 H   0  0  0  0  0  0
  -21.0820   -8.8780   19.8945 H   0  0  0  0  0  0
  -22.3667  -10.9693   19.6182 H   0  0  0  0  0  0
  -21.2026   -7.6140   23.9705 H   0  0  0  0  0  0
  -21.1447   -6.0514   25.9060 H   0  0  0  0  0  0
  -22.0615   -2.7608   23.2847 H   0  0  0  0  0  0
  -22.4053  -11.9933   22.4825 H   0  0  0  0  0  0
  -21.1049  -13.1284   22.2564 H   0  0  0  0  0  0
  -24.6529  -15.8434   20.5069 H   0  0  0  0  0  0
  -26.2876  -15.6303   20.1299 H   0  0  0  0  0  0
  -26.7121  -32.5527   23.1165 H   0  0  0  0  0  0
  -25.0072  -33.9793   25.0477 H   0  0  0  0  0  0
  -22.6932  -31.3083   21.4137 H   0  0  0  0  0  0
  -23.3740  -35.9636   23.3303 H   0  0  0  0  0  0
  -24.3559  -36.8940   22.2049 H   0  0  0  0  0  0
  -23.7227  -37.6512   23.6663 H   0  0  0  0  0  0
  -26.0389  -31.5863   20.5854 H   0  0  0  0  0  0
  -26.8220  -30.8912   21.9769 H   0  0  0  0  0  0
  -28.1022  -29.0918   21.1640 H   0  0  0  0  0  0
  -26.0549  -25.9708   19.0053 H   0  0  0  0  0  0
  -23.9742  -27.2975   19.0318 H   0  0  0  0  0  0
  -23.7209  -30.5921   19.4045 H   0  0  0  0  0  0
  -22.7346  -29.2401   19.8745 H   0  0  0  0  0  0
  -25.1272  -36.1959   25.0828 H   0  0  0  0  0  0
  -20.9932  -28.3227   24.1444 H   0  0  0  0  0  0
  -20.5661  -26.2271   23.3609 H   0  0  0  0  0  0
  -21.6629  -26.7444   22.1215 H   0  0  0  0  0  0
  -19.6908  -25.6285   21.1250 H   0  0  0  0  0  0
  -19.6694  -27.3194   20.6738 H   0  0  0  0  0  0
  -17.4186  -26.6672   21.4010 H   0  0  0  0  0  0
  -18.0313  -26.0045   22.8998 H   0  0  0  0  0  0
  -19.7920  -30.7249   24.2299 H   0  0  0  0  0  0
  -17.5008  -31.6277   24.5155 H   0  0  0  0  0  0
  -15.5348  -30.3007   23.7665 H   0  0  0  0  0  0
  -15.8633  -28.0840   22.7087 H   0  0  0  0  0  0
  -24.5892  -30.7083   25.7831 H   0  0  0  0  0  0
  -24.8925  -32.2879   26.4956 H   0  0  0  0  0  0
  -25.8069  -30.8881   27.0246 H   0  0  0  0  0  0
  -26.2842  -29.6839   24.1167 H   0  0  0  0  0  0
  -27.4075  -29.7307   25.4573 H   0  0  0  0  0  0
  -27.8667  -30.4410   23.9260 H   0  0  0  0  0  0
  -27.2665  -33.3650   26.2078 H   0  0  0  0  0  0
  -28.3837  -32.6905   25.0313 H   0  0  0  0  0  0
  -28.0712  -31.8468   26.5412 H   0  0  0  0  0  0
  -28.2580  -38.0107   24.7538 H   0  0  0  0  0  0
  -28.1076  -36.2643   24.6237 H   0  0  0  0  0  0
  -27.2297  -37.1404   25.8865 H   0  0  0  0  0  0
  -20.9317  -29.8758   21.6945 H   0  0  0  0  0  0
  -26.0154  -38.2875   24.1461 H   0  0  0  0  0  0
  -28.5039  -17.8826   18.5374 H   0  0  0  0  0  0
  -22.6902  -17.6413   16.8605 H   0  0  0  0  0  0
  -23.0828  -17.3606   18.5522 H   0  0  0  0  0  0
  -24.0336  -16.5873   17.2887 H   0  0  0  0  0  0
  -25.3550  -20.9282   21.7823 H   0  0  0  0  0  0
  -25.5913  -22.6350   22.1382 H   0  0  0  0  0  0
  -26.5357  -21.4213   22.9963 H   0  0  0  0  0  0
  -34.2071  -17.0300   20.3127 H   0  0  0  0  0  0
  -33.3155  -17.8959   19.0715 H   0  0  0  0  0  0
  -33.1289  -16.1776   19.2297 H   0  0  0  0  0  0
  -33.4675  -18.8888   21.5983 H   0  0  0  0  0  0
  -31.8996  -18.9364   22.3447 H   0  0  0  0  0  0
  -32.1169  -19.5489   20.6974 H   0  0  0  0  0  0
  -29.9214  -16.5454   17.8169 H   0  0  0  0  0  0
  -28.9585  -15.1713   18.1944 H   0  0  0  0  0  0
  -30.6920  -15.0239   17.8879 H   0  0  0  0  0  0
  -27.0743  -19.8747   17.5683 H   0  0  0  0  0  0
  -26.0002  -20.6412   18.6927 H   0  0  0  0  0  0
  -23.9081  -19.6151   17.7786 H   0  0  0  0  0  0
  -24.8443  -18.8467   16.5196 H   0  0  0  0  0  0
  -25.2409  -18.3811   19.5108 H   0  0  0  0  0  0
  -26.1874  -17.6347   18.2477 H   0  0  0  0  0  0
  -26.6125  -24.4641   20.8449 H   0  0  0  0  0  0
  -27.6289  -24.1914   19.4517 H   0  0  0  0  0  0
  -28.3693  -23.0718   22.2084 H   0  0  0  0  0  0
  -29.1129  -22.7294   20.6772 H   0  0  0  0  0  0
  -29.5404  -25.2570   20.9087 H   0  0  0  0  0  0
  -28.2736  -25.8337   21.9502 H   0  0  0  0  0  0
  -26.6720  -21.9999   20.0183 H   0  0  0  0  0  0
  -30.9363  -17.5756   19.2138 H   0  0  0  0  0  0
  -32.1949  -16.6769   21.6595 H   0  0  0  0  0  0
  1 25  1  0  0  0
  1 30  2  0  0  0
  1 91  1  0  0  0
  2  3  1  0  0  0
  2 25  1  0  0  0
  2 92  1  0  0  0
  2 93  1  0  0  0
  3  4  1  0  0  0
  3 94  1  0  0  0
  3 95  1  0  0  0
  4  5  1  0  0  0
  4 96  1  0  0  0
  4 97  1  0  0  0
  5  6  1  0  0  0
  5 26  1  0  0  0
  5 98  1  0  0  0
  6 25  1  0  0  0
  6 99  1  0  0  0
  6100  1  0  0  0
  7  8  2  0  0  0
  7 26  1  0  0  0
  7 29  1  0  0  0
  8  9  1  0  0  0
  8 22  1  0  0  0
  9 10  1  0  0  0
  9 27  2  0  0  0
 10 11  2  0  0  0
 10 15  1  0  0  0
 11 12  1  0  0  0
 11101  1  0  0  0
 12 13  2  0  0  0
 12102  1  0  0  0
 13 14  1  0  0  0
 13 31  1  0  0  0
 14 15  2  0  0  0
 14103  1  0  0  0
 15104  1  0  0  0
 16 17  2  0  0  0
 16 21  1  0  0  0
 16 31  1  0  0  0
 17 18  1  0  0  0
 17105  1  0  0  0
 18 19  2  0  0  0
 18106  1  0  0  0
 19 20  1  0  0  0
 19 24  1  0  0  0
 20 21  2  0  0  0
 20107  1  0  0  0
 21 23  1  0  0  0
 22 28  1  0  0  0
 22 32  2  0  0  0
 26 27  1  0  0  0
 28108  1  0  0  0
 28109  1  0  0  0
 29110  1  0  0  0
 29111  1  0  0  0
 33 34  1  0  0  0
 33 66  1  0  0  0
 33 70  2  0  0  0
 34 36  1  0  0  0
 34 59  1  0  0  0
 34112  1  0  0  0
 35 44  2  0  0  0
 35 45  1  0  0  0
 35 68  1  0  0  0
 36 56  1  0  0  0
 36113  1  0  0  0
 37 39  1  0  0  0
 37 47  1  0  0  0
 37 66  1  0  0  0
 37114  1  0  0  0
 38 43  2  0  0  0
 38 46  1  0  0  0
 38 47  1  0  0  0
 39 64  1  0  0  0
 39 67  2  0  0  0
 40 52  1  0  0  0
 40 53  2  0  0  0
 40 58  1  0  0  0
 41115  1  0  0  0
 41116  1  0  0  0
 41117  1  0  0  0
 41 48  1  0  0  0
 42 43  1  0  0  0
 42 66  1  0  0  0
 42118  1  0  0  0
 42119  1  0  0  0
 43 44  1  0  0  0
 44120  1  0  0  0
 45 46  2  0  0  0
 45121  1  0  0  0
 46122  1  0  0  0
 47123  1  0  0  0
 47124  1  0  0  0
 48 56  1  0  0  0
 48 65  1  0  0  0
 48125  1  0  0  0
 49 50  1  0  0  0
 49 53  1  0  0  0
 49 64  1  0  0  0
 49126  1  0  0  0
 50 51  1  0  0  0
 50127  1  0  0  0
 50128  1  0  0  0
 51 52  1  0  0  0
 51129  1  0  0  0
 51130  1  0  0  0
 52131  1  0  0  0
 52132  1  0  0  0
 53 54  1  0  0  0
 54 55  2  0  0  0
 54133  1  0  0  0
 55 57  1  0  0  0
 55134  1  0  0  0
 56 69  2  0  0  0
 57 58  2  0  0  0
 57135  1  0  0  0
 58136  1  0  0  0
 59 60  1  0  0  0
 59 61  1  0  0  0
 59 62  1  0  0  0
 60137  1  0  0  0
 60138  1  0  0  0
 60139  1  0  0  0
 61140  1  0  0  0
 61141  1  0  0  0
 61142  1  0  0  0
 62143  1  0  0  0
 62144  1  0  0  0
 62145  1  0  0  0
 63 65  1  0  0  0
 63146  1  0  0  0
 63147  1  0  0  0
 63148  1  0  0  0
 64149  1  0  0  0
 65150  1  0  0  0
 68 85  1  0  0  0
 71 72  2  0  0  0
 71 73  1  0  0  0
 71151  1  0  0  0
 72 74  1  0  0  0
 72 80  1  0  0  0
 73 87  1  0  0  0
 73 89  2  0  0  0
 74 86  1  0  0  0
 74 90  2  0  0  0
 75 81  1  0  0  0
 75152  1  0  0  0
 75153  1  0  0  0
 75154  1  0  0  0
 76155  1  0  0  0
 76156  1  0  0  0
 76157  1  0  0  0
 76 86  1  0  0  0
 77158  1  0  0  0
 77159  1  0  0  0
 77160  1  0  0  0
 77 88  1  0  0  0
 78 88  1  0  0  0
 78161  1  0  0  0
 78162  1  0  0  0
 78163  1  0  0  0
 79 91  1  0  0  0
 79164  1  0  0  0
 79165  1  0  0  0
 79166  1  0  0  0
 80 82  1  0  0  0
 80167  1  0  0  0
 80168  1  0  0  0
 81 82  1  0  0  0
 81169  1  0  0  0
 81170  1  0  0  0
 82171  1  0  0  0
 82172  1  0  0  0
 83 84  1  0  0  0
 83 85  1  0  0  0
 83173  1  0  0  0
 83174  1  0  0  0
 84 86  1  0  0  0
 84175  1  0  0  0
 84176  1  0  0  0
 85177  1  0  0  0
 85178  1  0  0  0
 86179  1  0  0  0
 87 88  1  0  0  0
 87 91  1  0  0  0
 87180  1  0  0  0
 88181  1  0  0  0
 89 90  1  0  0  0
M  ISO  4   1 100  68 101  85 101  91 100
M  END
> <chiral flag>
0

> <version>
0

> <s_m_source_file>
/data/baiqing/PycharmProjects/Reinvent-master-3.2/result/LINK_invent/BTK/process_docking_weight1_custom_sum_contain_oxygen_bond_distance_aromatic_linkinvent_7_9_3/rearranged_h_0067.sdf

> <i_m_source_file_index>
59

> <r_mmod_Potential_Energy-OPLS-2005>
369.960968017578

> <r_mmod_Stretch_Energy-OPLS-2005>
61.7468528747559

> <r_mmod_Bend_Energy-OPLS-2005>
178.329208374023

> <r_mmod_Torsional_Energy-OPLS-2005>
337.740753173828

> <r_mmod_Improper_Torsional_Energy-OPLS-2005>
19.2921409606934

> <r_mmod_Van_der_Waal_Energy-OPLS-2005>
174.758117675781

> <r_mmod_Electrostatic_Energy-OPLS-2005>
-271.734344482422

> <r_mmod_Solvation_Energy-OPLS-2005>
-193.574554443359

> <b_mmod_Minimization_Converged-OPLS-2005>
0

> <r_mmod_RMS_Derivative-OPLS-2005>
2.10118579864502

$$$$
61
                    3D
 Structure written by MMmdl.
162170  0  0  1  0            999 V2000
  -30.6082  -14.7672   20.5691 C   0  0  0  0  0  0
  -30.4168  -12.4834   19.4780 C   0  0  0  0  0  0
  -29.5082  -12.5696   18.2277 C   0  0  0  0  0  0
  -28.0170  -12.4262   18.5998 C   0  0  0  0  0  0
  -27.6405  -13.2450   19.8623 C   0  0  2  0  0  0
  -28.6767  -13.0530   20.9800 C   0  0  0  0  0  0
  -25.2461  -13.8202   20.5616 C   0  0  0  0  0  0
  -24.1772  -13.0399   20.9124 C   0  0  0  0  0  0
  -24.6400  -11.6909   20.8714 C   0  0  0  0  0  0
  -23.9060  -10.4274   21.0414 C   0  0  0  0  0  0
  -24.3600   -9.4197   21.9186 C   0  0  0  0  0  0
  -23.6269   -8.2244   22.0783 C   0  0  0  0  0  0
  -22.4258   -8.0262   21.3576 C   0  0  0  0  0  0
  -21.9911   -9.0244   20.4683 C   0  0  0  0  0  0
  -22.7246  -10.2121   20.3075 C   0  0  0  0  0  0
  -21.6845   -6.0709   22.5251 C   0  0  0  0  0  0
  -21.4016   -6.5632   23.8176 C   0  0  0  0  0  0
  -21.3676   -5.6798   24.9153 C   0  0  0  0  0  0
  -21.6041   -4.3052   24.7219 C   0  0  0  0  0  0
  -21.8811   -3.8137   23.4342 C   0  0  0  0  0  0
  -21.9182   -4.6938   22.3398 C   0  0  0  0  0  0
  -22.7836  -13.5198   21.1830 C   0  0  0  0  0  0
  -22.1669   -4.2125   21.0969 F   0  0  0  0  0  0
  -21.5653   -3.4557   25.7754 F   0  0  0  0  0  0
  -29.9734  -13.5246   20.4588 N   0  0  0  0  0  0
  -26.2895  -12.9433   20.3263 N   0  0  0  0  0  0
  -25.9326  -11.6553   20.5686 N   0  0  0  0  0  0
  -22.0535  -12.8131   22.0399 N   0  0  0  0  0  0
  -25.4139  -15.1919   20.4003 N   0  0  0  0  0  0
  -31.7272  -14.8180   20.0353 O   0  0  0  0  0  0
  -21.6630   -6.8862   21.4225 O   0  0  0  0  0  0
  -22.3500  -14.5507   20.6692 O   0  0  0  0  0  0
  -24.6272  -31.8570   23.1981 C   0  0  0  0  0  0
  -25.9089  -32.4766   23.8353 C   0  0  1  0  0  0
  -27.2253  -27.2592   20.1500 C   0  0  0  0  0  0
  -25.5907  -33.8571   24.2272 N   0  0  0  0  0  0
  -23.4282  -30.4772   21.5436 C   0  0  2  0  0  0
  -24.8775  -28.9132   20.1216 C   0  0  0  0  0  0
  -22.7484  -29.4636   22.4953 C   0  0  0  0  0  0
  -18.0278  -28.1396   22.8479 C   0  0  0  0  0  0
  -24.1495  -36.7283   23.2652 C   0  0  0  0  0  0
  -25.9718  -30.7727   21.3764 C   0  0  0  0  0  0
  -26.0489  -29.3916   20.7224 C   0  0  0  0  0  0
  -27.2325  -28.5830   20.7090 C   0  0  0  0  0  0
  -26.0280  -26.8343   19.5401 C   0  0  0  0  0  0
  -24.8717  -27.6424   19.5214 C   0  0  0  0  0  0
  -23.6460  -29.8012   20.1647 C   0  0  0  0  0  0
  -25.4110  -36.3078   24.0346 C   0  0  1  0  0  0
  -20.5871  -28.3713   23.1255 C   0  0  2  0  0  0
  -20.6784  -26.9442   22.5397 C   0  0  0  0  0  0
  -19.5791  -26.6396   21.5198 C   0  0  0  0  0  0
  -18.1939  -26.7935   22.1593 C   0  0  0  0  0  0
  -19.1531  -28.8863   23.2848 C   0  0  0  0  0  0
  -18.9457  -30.1460   23.8887 C   0  0  0  0  0  0
  -17.6461  -30.6597   24.0568 C   0  0  0  0  0  0
  -25.9049  -34.9449   23.5114 C   0  0  0  0  0  0
  -16.5347  -29.9096   23.6345 C   0  0  0  0  0  0
  -16.7253  -28.6511   23.0381 C   0  0  0  0  0  0
  -26.4471  -31.6580   25.0742 C   0  0  0  0  0  0
  -25.3682  -31.3668   26.1458 C   0  0  0  0  0  0
  -27.0343  -30.2994   24.6233 C   0  0  0  0  0  0
  -27.6048  -32.4318   25.7483 C   0  0  0  0  0  0
  -27.5592  -37.1785   24.8453 C   0  0  0  0  0  0
  -21.4185  -29.3045   22.3628 N   0  0  0  0  0  0
  -26.4288  -37.3768   23.9413 N   0  0  0  0  0  0
  -24.6951  -31.0547   22.0940 N   0  0  0  0  0  0
  -23.4156  -28.8199   23.3104 O   0  0  0  0  0  0
  -28.3464  -26.4055   20.1019 O   0  0  0  0  0  0
  -26.5659  -34.8920   22.4709 O   0  0  0  0  0  0
  -23.5413  -32.1429   23.7247 O   0  0  0  0  0  0
  -28.1496  -19.4461   19.2481 C   0  0  0  0  0  0
  -27.9829  -18.0914   18.9208 C   0  0  0  0  0  0
  -28.9661  -19.7668   20.3335 C   0  0  0  0  0  0
  -29.4904  -17.4057   20.5339 C   0  0  0  0  0  0
  -26.9752  -17.6658   17.8742 C   0  0  0  0  0  0
  -31.4538  -16.7061   21.9664 C   0  0  0  0  0  0
  -28.0000  -23.6200   20.1343 C   0  0  0  0  0  0
  -29.1617  -15.7952   22.5224 C   0  0  0  0  0  0
  -28.3769  -25.0627   20.7870 C   0  0  0  0  0  0
  -29.0215  -22.3452   19.9860 C   0  0  0  0  0  0
  -30.1268  -16.1595   21.3524 C   0  0  1  0  0  0
  -28.6509  -17.1000   19.5485 N   0  0  0  0  0  0
  -29.5855  -18.7086   20.9947 N   0  0  0  0  0  0
  -28.9602  -16.8044   23.5881 N   0  3  0  0  0  0
  -29.0551  -21.1044   20.8464 O   0  0  0  0  0  0
  -31.4603  -12.5839   19.1834 H   0  0  0  0  0  0
  -30.3560  -11.4835   19.9113 H   0  0  0  0  0  0
  -29.7886  -11.8046   17.5049 H   0  0  0  0  0  0
  -29.6674  -13.5267   17.7253 H   0  0  0  0  0  0
  -27.7998  -11.3683   18.7496 H   0  0  0  0  0  0
  -27.3976  -12.7495   17.7636 H   0  0  0  0  0  0
  -27.6652  -14.2976   19.5704 H   0  0  0  0  0  0
  -28.7343  -11.9890   21.2211 H   0  0  0  0  0  0
  -28.3599  -13.4901   21.9159 H   0  0  0  0  0  0
  -25.2747   -9.5677   22.4737 H   0  0  0  0  0  0
  -23.9983   -7.4644   22.7502 H   0  0  0  0  0  0
  -21.0871   -8.8764   19.8963 H   0  0  0  0  0  0
  -22.3717  -10.9647   19.6190 H   0  0  0  0  0  0
  -21.2017   -7.6134   23.9672 H   0  0  0  0  0  0
  -21.1524   -6.0537   25.9049 H   0  0  0  0  0  0
  -22.0578   -2.7584   23.2838 H   0  0  0  0  0  0
  -22.4217  -11.9752   22.4618 H   0  0  0  0  0  0
  -21.1203  -13.1192   22.2805 H   0  0  0  0  0  0
  -24.6206  -15.8189   20.4317 H   0  0  0  0  0  0
  -26.2396  -15.6199   19.9998 H   0  0  0  0  0  0
  -26.7174  -32.5445   23.1121 H   0  0  0  0  0  0
  -24.9952  -33.9689   25.0348 H   0  0  0  0  0  0
  -22.7212  -31.2970   21.3940 H   0  0  0  0  0  0
  -23.3770  -35.9606   23.3264 H   0  0  0  0  0  0
  -24.3550  -36.8965   22.2078 H   0  0  0  0  0  0
  -23.7243  -37.6470   23.6693 H   0  0  0  0  0  0
  -26.1038  -31.5336   20.6079 H   0  0  0  0  0  0
  -26.8471  -30.8332   22.0109 H   0  0  0  0  0  0
  -28.1424  -28.9591   21.1564 H   0  0  0  0  0  0
  -25.9932  -25.8596   19.0753 H   0  0  0  0  0  0
  -23.9712  -27.2658   19.0516 H   0  0  0  0  0  0
  -23.7618  -30.5748   19.4043 H   0  0  0  0  0  0
  -22.7642  -29.2288   19.8707 H   0  0  0  0  0  0
  -25.1283  -36.1966   25.0841 H   0  0  0  0  0  0
  -20.9937  -28.3352   24.1377 H   0  0  0  0  0  0
  -20.5718  -26.2340   23.3606 H   0  0  0  0  0  0
  -21.6671  -26.7529   22.1202 H   0  0  0  0  0  0
  -19.6978  -25.6294   21.1255 H   0  0  0  0  0  0
  -19.6721  -27.3187   20.6700 H   0  0  0  0  0  0
  -17.4222  -26.6654   21.3989 H   0  0  0  0  0  0
  -18.0363  -26.0081   22.8994 H   0  0  0  0  0  0
  -19.7948  -30.7264   24.2277 H   0  0  0  0  0  0
  -17.5037  -31.6300   24.5155 H   0  0  0  0  0  0
  -15.5352  -30.3011   23.7692 H   0  0  0  0  0  0
  -15.8653  -28.0817   22.7133 H   0  0  0  0  0  0
  -24.5904  -30.6982   25.7730 H   0  0  0  0  0  0
  -24.8796  -32.2794   26.4891 H   0  0  0  0  0  0
  -25.8020  -30.8837   27.0234 H   0  0  0  0  0  0
  -26.2956  -29.6679   24.1298 H   0  0  0  0  0  0
  -27.4041  -29.7308   25.4776 H   0  0  0  0  0  0
  -27.8804  -30.4204   23.9473 H   0  0  0  0  0  0
  -27.2721  -33.3659   26.2010 H   0  0  0  0  0  0
  -28.3894  -32.6803   25.0325 H   0  0  0  0  0  0
  -28.0699  -31.8486   26.5447 H   0  0  0  0  0  0
  -28.2578  -38.0120   24.7596 H   0  0  0  0  0  0
  -28.1158  -36.2661   24.6202 H   0  0  0  0  0  0
  -27.2313  -37.1365   25.8857 H   0  0  0  0  0  0
  -20.9392  -29.8668   21.6727 H   0  0  0  0  0  0
  -26.0193  -38.2848   24.1422 H   0  0  0  0  0  0
  -27.5940  -20.2073   18.7193 H   0  0  0  0  0  0
  -25.9683  -17.9692   18.1646 H   0  0  0  0  0  0
  -26.9727  -16.5840   17.7331 H   0  0  0  0  0  0
  -27.2066  -18.1440   16.9242 H   0  0  0  0  0  0
  -31.2971  -17.5664   22.6143 H   0  0  0  0  0  0
  -32.1373  -17.0390   21.1802 H   0  0  0  0  0  0
  -31.9702  -15.9530   22.5624 H   0  0  0  0  0  0
  -27.6437  -23.8482   19.1296 H   0  0  0  0  0  0
  -27.1020  -23.2517   20.6310 H   0  0  0  0  0  0
  -29.5187  -14.8962   23.0262 H   0  0  0  0  0  0
  -28.1785  -15.5933   22.0963 H   0  0  0  0  0  0
  -29.3973  -24.9718   21.1563 H   0  0  0  0  0  0
  -27.7834  -25.1713   21.6961 H   0  0  0  0  0  0
  -30.0308  -22.7584   20.0234 H   0  0  0  0  0  0
  -28.9338  -22.0160   18.9501 H   0  0  0  0  0  0
  -29.7457  -16.8403   24.2148 H   0  0  0  0  0  0
  -28.1630  -16.5445   24.1460 H   0  0  0  0  0  0
  -28.7968  -17.7218   23.2094 H   0  0  0  0  0  0
  1 25  1  0  0  0
  1 30  2  0  0  0
  1 81  1  0  0  0
  2  3  1  0  0  0
  2 25  1  0  0  0
  2 86  1  0  0  0
  2 87  1  0  0  0
  3  4  1  0  0  0
  3 88  1  0  0  0
  3 89  1  0  0  0
  4  5  1  0  0  0
  4 90  1  0  0  0
  4 91  1  0  0  0
  5  6  1  0  0  0
  5 26  1  0  0  0
  5 92  1  0  0  0
  6 25  1  0  0  0
  6 93  1  0  0  0
  6 94  1  0  0  0
  7  8  2  0  0  0
  7 26  1  0  0  0
  7 29  1  0  0  0
  8  9  1  0  0  0
  8 22  1  0  0  0
  9 10  1  0  0  0
  9 27  2  0  0  0
 10 11  2  0  0  0
 10 15  1  0  0  0
 11 12  1  0  0  0
 11 95  1  0  0  0
 12 13  2  0  0  0
 12 96  1  0  0  0
 13 14  1  0  0  0
 13 31  1  0  0  0
 14 15  2  0  0  0
 14 97  1  0  0  0
 15 98  1  0  0  0
 16 17  2  0  0  0
 16 21  1  0  0  0
 16 31  1  0  0  0
 17 18  1  0  0  0
 17 99  1  0  0  0
 18 19  2  0  0  0
 18100  1  0  0  0
 19 20  1  0  0  0
 19 24  1  0  0  0
 20 21  2  0  0  0
 20101  1  0  0  0
 21 23  1  0  0  0
 22 28  1  0  0  0
 22 32  2  0  0  0
 26 27  1  0  0  0
 28102  1  0  0  0
 28103  1  0  0  0
 29104  1  0  0  0
 29105  1  0  0  0
 33 34  1  0  0  0
 33 66  1  0  0  0
 33 70  2  0  0  0
 34 36  1  0  0  0
 34 59  1  0  0  0
 34106  1  0  0  0
 35 44  2  0  0  0
 35 45  1  0  0  0
 35 68  1  0  0  0
 36 56  1  0  0  0
 36107  1  0  0  0
 37 39  1  0  0  0
 37 47  1  0  0  0
 37 66  1  0  0  0
 37108  1  0  0  0
 38 43  2  0  0  0
 38 46  1  0  0  0
 38 47  1  0  0  0
 39 64  1  0  0  0
 39 67  2  0  0  0
 40 52  1  0  0  0
 40 53  2  0  0  0
 40 58  1  0  0  0
 41109  1  0  0  0
 41110  1  0  0  0
 41111  1  0  0  0
 41 48  1  0  0  0
 42 43  1  0  0  0
 42 66  1  0  0  0
 42112  1  0  0  0
 42113  1  0  0  0
 43 44  1  0  0  0
 44114  1  0  0  0
 45 46  2  0  0  0
 45115  1  0  0  0
 46116  1  0  0  0
 47117  1  0  0  0
 47118  1  0  0  0
 48 56  1  0  0  0
 48 65  1  0  0  0
 48119  1  0  0  0
 49 50  1  0  0  0
 49 53  1  0  0  0
 49 64  1  0  0  0
 49120  1  0  0  0
 50 51  1  0  0  0
 50121  1  0  0  0
 50122  1  0  0  0
 51 52  1  0  0  0
 51123  1  0  0  0
 51124  1  0  0  0
 52125  1  0  0  0
 52126  1  0  0  0
 53 54  1  0  0  0
 54 55  2  0  0  0
 54127  1  0  0  0
 55 57  1  0  0  0
 55128  1  0  0  0
 56 69  2  0  0  0
 57 58  2  0  0  0
 57129  1  0  0  0
 58130  1  0  0  0
 59 60  1  0  0  0
 59 61  1  0  0  0
 59 62  1  0  0  0
 60131  1  0  0  0
 60132  1  0  0  0
 60133  1  0  0  0
 61134  1  0  0  0
 61135  1  0  0  0
 61136  1  0  0  0
 62137  1  0  0  0
 62138  1  0  0  0
 62139  1  0  0  0
 63 65  1  0  0  0
 63140  1  0  0  0
 63141  1  0  0  0
 63142  1  0  0  0
 64143  1  0  0  0
 65144  1  0  0  0
 68 79  1  0  0  0
 71 72  2  0  0  0
 71 73  1  0  0  0
 71145  1  0  0  0
 72 75  1  0  0  0
 72 82  1  0  0  0
 73 83  2  0  0  0
 73 85  1  0  0  0
 74 81  1  0  0  0
 74 82  2  0  0  0
 74 83  1  0  0  0
 75146  1  0  0  0
 75147  1  0  0  0
 75148  1  0  0  0
 76149  1  0  0  0
 76150  1  0  0  0
 76151  1  0  0  0
 76 81  1  0  0  0
 77 79  1  0  0  0
 77 80  1  0  0  0
 77152  1  0  0  0
 77153  1  0  0  0
 78 81  1  0  0  0
 78 84  1  0  0  0
 78154  1  0  0  0
 78155  1  0  0  0
 79156  1  0  0  0
 79157  1  0  0  0
 80 85  1  0  0  0
 80158  1  0  0  0
 80159  1  0  0  0
 84160  1  0  0  0
 84161  1  0  0  0
 84162  1  0  0  0
M  CHG  1  84   1
M  ISO  4   1 100  68 101  79 101  81 100
M  END
> <chiral flag>
0

> <version>
0

> <s_m_source_file>
/data/baiqing/PycharmProjects/Reinvent-master-3.2/result/LINK_invent/BTK/process_docking_weight1_custom_sum_contain_oxygen_bond_distance_aromatic_linkinvent_7_9_3/rearranged_h_0067.sdf

> <i_m_source_file_index>
60

> <r_mmod_Potential_Energy-OPLS-2005>
-239.887985229492

> <r_mmod_Stretch_Energy-OPLS-2005>
171.673721313477

> <r_mmod_Bend_Energy-OPLS-2005>
263.47509765625

> <r_mmod_Torsional_Energy-OPLS-2005>
242.716415405273

> <r_mmod_Improper_Torsional_Energy-OPLS-2005>
5.18090200424194

> <r_mmod_Van_der_Waal_Energy-OPLS-2005>
150.231628417969

> <r_mmod_Electrostatic_Energy-OPLS-2005>
-678.435974121094

> <r_mmod_Solvation_Energy-OPLS-2005>
-470.510375976562

> <b_mmod_Minimization_Converged-OPLS-2005>
0

> <r_mmod_RMS_Derivative-OPLS-2005>
5.76231050491333

$$$$
62
                    3D
 Structure written by MMmdl.
172180  0  0  1  0            999 V2000
  -30.7238  -14.5665   20.4516 C   0  0  0  0  0  0
  -30.4360  -12.3416   19.4351 C   0  0  0  0  0  0
  -29.4971  -12.4463   18.2171 C   0  0  0  0  0  0
  -28.0196  -12.3396   18.6504 C   0  0  0  0  0  0
  -27.6640  -13.2157   19.8851 C   0  0  2  0  0  0
  -28.7309  -13.0916   20.9929 C   0  0  0  0  0  0
  -25.2537  -13.8134   20.5578 C   0  0  0  0  0  0
  -24.1827  -13.0384   20.9208 C   0  0  0  0  0  0
  -24.6453  -11.6892   20.8859 C   0  0  0  0  0  0
  -23.9090  -10.4256   21.0452 C   0  0  0  0  0  0
  -24.3632   -9.4168   21.9218 C   0  0  0  0  0  0
  -23.6304   -8.2215   22.0775 C   0  0  0  0  0  0
  -22.4279   -8.0279   21.3554 C   0  0  0  0  0  0
  -21.9927   -9.0264   20.4667 C   0  0  0  0  0  0
  -22.7296  -10.2122   20.3067 C   0  0  0  0  0  0
  -21.6859   -6.0745   22.5270 C   0  0  0  0  0  0
  -21.4037   -6.5657   23.8197 C   0  0  0  0  0  0
  -21.3650   -5.6805   24.9156 C   0  0  0  0  0  0
  -21.6039   -4.3067   24.7198 C   0  0  0  0  0  0
  -21.8834   -3.8164   23.4326 C   0  0  0  0  0  0
  -21.9205   -4.6980   22.3381 C   0  0  0  0  0  0
  -22.7831  -13.5212   21.1768 C   0  0  0  0  0  0
  -22.1719   -4.2182   21.0958 F   0  0  0  0  0  0
  -21.5556   -3.4527   25.7694 F   0  0  0  0  0  0
  -30.0316  -13.3933   20.3820 N   0  0  0  0  0  0
  -26.3091  -12.9356   20.3553 N   0  0  0  0  0  0
  -25.9407  -11.6520   20.6041 N   0  0  0  0  0  0
  -22.0437  -12.8306   22.0393 N   0  0  0  0  0  0
  -25.3873  -15.1804   20.3592 N   0  0  0  0  0  0
  -31.9452  -14.5981   20.2951 O   0  0  0  0  0  0
  -21.6659   -6.8878   21.4226 O   0  0  0  0  0  0
  -22.3531  -14.5480   20.6548 O   0  0  0  0  0  0
  -24.6160  -31.8673   23.2023 C   0  0  0  0  0  0
  -25.9054  -32.4808   23.8334 C   0  0  1  0  0  0
  -27.2505  -27.4386   20.0777 C   0  0  0  0  0  0
  -25.5910  -33.8604   24.2285 N   0  0  0  0  0  0
  -23.4034  -30.4883   21.5446 C   0  0  2  0  0  0
  -24.8514  -28.9502   20.1153 C   0  0  0  0  0  0
  -22.7416  -29.4682   22.4979 C   0  0  0  0  0  0
  -18.0282  -28.1396   22.8484 C   0  0  0  0  0  0
  -24.1509  -36.7313   23.2632 C   0  0  0  0  0  0
  -25.9340  -30.8332   21.3543 C   0  0  0  0  0  0
  -26.0137  -29.4697   20.6970 C   0  0  0  0  0  0
  -27.2183  -28.7286   20.6603 C   0  0  0  0  0  0
  -26.0651  -26.9357   19.4940 C   0  0  0  0  0  0
  -24.8742  -27.6845   19.5068 C   0  0  0  0  0  0
  -23.6090  -29.8079   20.1647 C   0  0  0  0  0  0
  -25.4127  -36.3102   24.0330 C   0  0  1  0  0  0
  -20.5873  -28.3697   23.1312 C   0  0  2  0  0  0
  -20.6792  -26.9436   22.5418 C   0  0  0  0  0  0
  -19.5763  -26.6408   21.5223 C   0  0  0  0  0  0
  -18.1934  -26.7945   22.1623 C   0  0  0  0  0  0
  -19.1529  -28.8857   23.2898 C   0  0  0  0  0  0
  -18.9458  -30.1461   23.8908 C   0  0  0  0  0  0
  -17.6459  -30.6593   24.0576 C   0  0  0  0  0  0
  -25.9050  -34.9465   23.5106 C   0  0  0  0  0  0
  -16.5350  -29.9095   23.6329 C   0  0  0  0  0  0
  -16.7272  -28.6520   23.0332 C   0  0  0  0  0  0
  -26.4469  -31.6576   25.0659 C   0  0  0  0  0  0
  -25.3705  -31.3707   26.1381 C   0  0  0  0  0  0
  -27.0301  -30.3007   24.6067 C   0  0  0  0  0  0
  -27.6055  -32.4280   25.7423 C   0  0  0  0  0  0
  -27.5598  -37.1811   24.8463 C   0  0  0  0  0  0
  -21.4143  -29.3040   22.3702 N   0  0  0  0  0  0
  -26.4319  -37.3781   23.9394 N   0  0  0  0  0  0
  -24.6697  -31.0794   22.0908 N   0  0  0  0  0  0
  -23.4186  -28.8231   23.3038 O   0  0  0  0  0  0
  -28.4343  -26.7219   20.0675 O   0  0  0  0  0  0
  -26.5618  -34.8936   22.4674 O   0  0  0  0  0  0
  -23.5363  -32.1411   23.7442 O   0  0  0  0  0  0
  -30.9491  -20.0418   19.8724 C   0  0  0  0  0  0
  -30.7527  -20.8843   20.9744 C   0  0  0  0  0  0
  -30.3060  -20.2416   22.1463 C   0  0  0  0  0  0
  -30.2608  -18.1902   21.0652 C   0  0  0  0  0  0
  -28.3950  -21.1726   23.5448 C   0  0  0  0  0  0
  -28.4295  -15.8176   17.0102 C   0  0  0  0  0  0
  -28.2052  -16.7830   21.4162 C   0  0  0  0  0  0
  -30.9631  -22.4007   20.8351 C   0  0  0  0  0  0
  -29.9206  -20.9891   23.4149 C   0  0  0  0  0  0
  -29.1904  -16.7859   17.9271 C   0  0  0  0  0  0
  -29.6462  -23.1183   20.4860 C   0  0  0  0  0  0
  -29.7478  -24.6376   20.2359 C   0  0  0  0  0  0
  -30.3460  -16.1226   18.7119 C   0  0  0  0  0  0
  -28.3483  -25.2925   20.1711 C   0  0  0  0  0  0
  -29.7205  -16.7253   21.1459 C   0  0  2  0  0  0
  -30.6651  -18.7295   19.9196 N   0  0  0  0  0  0
  -30.1070  -18.9043   22.1811 N   0  0  0  0  0  0
  -30.0233  -15.6810   20.0930 N   0  0  0  0  0  0
  -31.4771  -12.4406   19.1205 H   0  0  0  0  0  0
  -30.3554  -11.3646   19.9064 H   0  0  0  0  0  0
  -29.7264  -11.6625   17.4942 H   0  0  0  0  0  0
  -29.6661  -13.3829   17.6878 H   0  0  0  0  0  0
  -27.8420  -11.2923   18.8948 H   0  0  0  0  0  0
  -27.3624  -12.5788   17.8167 H   0  0  0  0  0  0
  -27.6740  -14.2554   19.5650 H   0  0  0  0  0  0
  -28.7370  -12.0852   21.4171 H   0  0  0  0  0  0
  -28.5366  -13.7683   21.8242 H   0  0  0  0  0  0
  -25.2732   -9.5670   22.4863 H   0  0  0  0  0  0
  -23.9992   -7.4590   22.7507 H   0  0  0  0  0  0
  -21.0832   -8.8789   19.8995 H   0  0  0  0  0  0
  -22.3730  -10.9663   19.6191 H   0  0  0  0  0  0
  -21.2108   -7.6168   23.9706 H   0  0  0  0  0  0
  -21.1445   -6.0534   25.9042 H   0  0  0  0  0  0
  -22.0642   -2.7626   23.2793 H   0  0  0  0  0  0
  -22.4102  -12.0114   22.4994 H   0  0  0  0  0  0
  -21.1035  -13.1313   22.2435 H   0  0  0  0  0  0
  -24.5557  -15.7650   20.3480 H   0  0  0  0  0  0
  -26.1956  -15.6341   19.9571 H   0  0  0  0  0  0
  -26.7114  -32.5523   23.1099 H   0  0  0  0  0  0
  -25.0066  -33.9731   25.0434 H   0  0  0  0  0  0
  -22.6908  -31.3022   21.3995 H   0  0  0  0  0  0
  -23.3764  -35.9655   23.3304 H   0  0  0  0  0  0
  -24.3610  -36.8914   22.2044 H   0  0  0  0  0  0
  -23.7267  -37.6530   23.6636 H   0  0  0  0  0  0
  -26.0555  -31.6023   20.5892 H   0  0  0  0  0  0
  -26.8178  -30.8806   21.9778 H   0  0  0  0  0  0
  -28.1241  -29.1462   21.0802 H   0  0  0  0  0  0
  -26.0434  -25.9767   19.0007 H   0  0  0  0  0  0
  -23.9832  -27.2819   19.0460 H   0  0  0  0  0  0
  -23.6989  -30.5711   19.3924 H   0  0  0  0  0  0
  -22.7391  -29.2106   19.8868 H   0  0  0  0  0  0
  -25.1312  -36.1971   25.0826 H   0  0  0  0  0  0
  -20.9975  -28.3286   24.1429 H   0  0  0  0  0  0
  -20.5758  -26.2296   23.3605 H   0  0  0  0  0  0
  -21.6657  -26.7520   22.1167 H   0  0  0  0  0  0
  -19.6948  -25.6327   21.1221 H   0  0  0  0  0  0
  -19.6707  -27.3243   20.6768 H   0  0  0  0  0  0
  -17.4225  -26.6699   21.4005 H   0  0  0  0  0  0
  -18.0332  -26.0078   22.9007 H   0  0  0  0  0  0
  -19.7933  -30.7282   24.2274 H   0  0  0  0  0  0
  -17.5013  -31.6270   24.5194 H   0  0  0  0  0  0
  -15.5351  -30.3009   23.7651 H   0  0  0  0  0  0
  -15.8670  -28.0863   22.7020 H   0  0  0  0  0  0
  -24.5886  -30.7062   25.7686 H   0  0  0  0  0  0
  -24.8883  -32.2877   26.4787 H   0  0  0  0  0  0
  -25.8010  -30.8876   27.0160 H   0  0  0  0  0  0
  -26.2848  -29.6745   24.1151 H   0  0  0  0  0  0
  -27.4086  -29.7275   25.4544 H   0  0  0  0  0  0
  -27.8678  -30.4302   23.9205 H   0  0  0  0  0  0
  -27.2700  -33.3588   26.2017 H   0  0  0  0  0  0
  -28.3863  -32.6823   25.0235 H   0  0  0  0  0  0
  -28.0727  -31.8374   26.5318 H   0  0  0  0  0  0
  -28.2626  -38.0100   24.7517 H   0  0  0  0  0  0
  -28.1091  -36.2639   24.6300 H   0  0  0  0  0  0
  -27.2313  -37.1467   25.8863 H   0  0  0  0  0  0
  -20.9329  -29.8691   21.6845 H   0  0  0  0  0  0
  -26.0221  -38.2879   24.1343 H   0  0  0  0  0  0
  -31.2820  -20.4397   18.9235 H   0  0  0  0  0  0
  -28.1429  -21.8132   24.3873 H   0  0  0  0  0  0
  -27.8900  -20.2186   23.6960 H   0  0  0  0  0  0
  -27.9664  -21.6180   22.6500 H   0  0  0  0  0  0
  -27.6975  -16.3512   16.4031 H   0  0  0  0  0  0
  -27.8836  -15.0673   17.5746 H   0  0  0  0  0  0
  -29.1065  -15.2989   16.3317 H   0  0  0  0  0  0
  -28.0082  -17.2532   22.3794 H   0  0  0  0  0  0
  -27.7542  -15.7957   21.4627 H   0  0  0  0  0  0
  -27.6807  -17.3778   20.6698 H   0  0  0  0  0  0
  -31.7053  -22.5875   20.0565 H   0  0  0  0  0  0
  -31.3930  -22.8243   21.7439 H   0  0  0  0  0  0
  -30.4049  -21.9589   23.4665 H   0  0  0  0  0  0
  -30.2972  -20.4292   24.2728 H   0  0  0  0  0  0
  -28.4990  -17.3090   18.5835 H   0  0  0  0  0  0
  -29.6223  -17.5661   17.2995 H   0  0  0  0  0  0
  -28.9622  -22.9694   21.3143 H   0  0  0  0  0  0
  -29.1846  -22.6385   19.6221 H   0  0  0  0  0  0
  -30.2950  -24.8248   19.3097 H   0  0  0  0  0  0
  -30.3306  -25.1022   21.0317 H   0  0  0  0  0  0
  -31.2368  -16.7452   18.7239 H   0  0  0  0  0  0
  -30.7012  -15.2878   18.1047 H   0  0  0  0  0  0
  -27.7880  -25.0429   21.0773 H   0  0  0  0  0  0
  -27.8164  -24.8522   19.3291 H   0  0  0  0  0  0
  -30.1540  -16.3484   22.0762 H   0  0  0  0  0  0
  1 25  1  0  0  0
  1 30  2  0  0  0
  1 88  1  0  0  0
  2  3  1  0  0  0
  2 25  1  0  0  0
  2 89  1  0  0  0
  2 90  1  0  0  0
  3  4  1  0  0  0
  3 91  1  0  0  0
  3 92  1  0  0  0
  4  5  1  0  0  0
  4 93  1  0  0  0
  4 94  1  0  0  0
  5  6  1  0  0  0
  5 26  1  0  0  0
  5 95  1  0  0  0
  6 25  1  0  0  0
  6 96  1  0  0  0
  6 97  1  0  0  0
  7  8  2  0  0  0
  7 26  1  0  0  0
  7 29  1  0  0  0
  8  9  1  0  0  0
  8 22  1  0  0  0
  9 10  1  0  0  0
  9 27  2  0  0  0
 10 11  2  0  0  0
 10 15  1  0  0  0
 11 12  1  0  0  0
 11 98  1  0  0  0
 12 13  2  0  0  0
 12 99  1  0  0  0
 13 14  1  0  0  0
 13 31  1  0  0  0
 14 15  2  0  0  0
 14100  1  0  0  0
 15101  1  0  0  0
 16 17  2  0  0  0
 16 21  1  0  0  0
 16 31  1  0  0  0
 17 18  1  0  0  0
 17102  1  0  0  0
 18 19  2  0  0  0
 18103  1  0  0  0
 19 20  1  0  0  0
 19 24  1  0  0  0
 20 21  2  0  0  0
 20104  1  0  0  0
 21 23  1  0  0  0
 22 28  1  0  0  0
 22 32  2  0  0  0
 26 27  1  0  0  0
 28105  1  0  0  0
 28106  1  0  0  0
 29107  1  0  0  0
 29108  1  0  0  0
 33 34  1  0  0  0
 33 66  1  0  0  0
 33 70  2  0  0  0
 34 36  1  0  0  0
 34 59  1  0  0  0
 34109  1  0  0  0
 35 44  2  0  0  0
 35 45  1  0  0  0
 35 68  1  0  0  0
 36 56  1  0  0  0
 36110  1  0  0  0
 37 39  1  0  0  0
 37 47  1  0  0  0
 37 66  1  0  0  0
 37111  1  0  0  0
 38 43  2  0  0  0
 38 46  1  0  0  0
 38 47  1  0  0  0
 39 64  1  0  0  0
 39 67  2  0  0  0
 40 52  1  0  0  0
 40 53  2  0  0  0
 40 58  1  0  0  0
 41112  1  0  0  0
 41113  1  0  0  0
 41114  1  0  0  0
 41 48  1  0  0  0
 42 43  1  0  0  0
 42 66  1  0  0  0
 42115  1  0  0  0
 42116  1  0  0  0
 43 44  1  0  0  0
 44117  1  0  0  0
 45 46  2  0  0  0
 45118  1  0  0  0
 46119  1  0  0  0
 47120  1  0  0  0
 47121  1  0  0  0
 48 56  1  0  0  0
 48 65  1  0  0  0
 48122  1  0  0  0
 49 50  1  0  0  0
 49 53  1  0  0  0
 49 64  1  0  0  0
 49123  1  0  0  0
 50 51  1  0  0  0
 50124  1  0  0  0
 50125  1  0  0  0
 51 52  1  0  0  0
 51126  1  0  0  0
 51127  1  0  0  0
 52128  1  0  0  0
 52129  1  0  0  0
 53 54  1  0  0  0
 54 55  2  0  0  0
 54130  1  0  0  0
 55 57  1  0  0  0
 55131  1  0  0  0
 56 69  2  0  0  0
 57 58  2  0  0  0
 57132  1  0  0  0
 58133  1  0  0  0
 59 60  1  0  0  0
 59 61  1  0  0  0
 59 62  1  0  0  0
 60134  1  0  0  0
 60135  1  0  0  0
 60136  1  0  0  0
 61137  1  0  0  0
 61138  1  0  0  0
 61139  1  0  0  0
 62140  1  0  0  0
 62141  1  0  0  0
 62142  1  0  0  0
 63 65  1  0  0  0
 63143  1  0  0  0
 63144  1  0  0  0
 63145  1  0  0  0
 64146  1  0  0  0
 65147  1  0  0  0
 68 84  1  0  0  0
 71 72  2  0  0  0
 71 86  1  0  0  0
 71148  1  0  0  0
 72 73  1  0  0  0
 72 78  1  0  0  0
 73 79  1  0  0  0
 73 87  2  0  0  0
 74 85  1  0  0  0
 74 86  2  0  0  0
 74 87  1  0  0  0
 75 79  1  0  0  0
 75149  1  0  0  0
 75150  1  0  0  0
 75151  1  0  0  0
 76 80  1  0  0  0
 76152  1  0  0  0
 76153  1  0  0  0
 76154  1  0  0  0
 77155  1  0  0  0
 77156  1  0  0  0
 77157  1  0  0  0
 77 85  1  0  0  0
 78 81  1  0  0  0
 78158  1  0  0  0
 78159  1  0  0  0
 79160  1  0  0  0
 79161  1  0  0  0
 80 83  1  0  0  0
 80162  1  0  0  0
 80163  1  0  0  0
 81 82  1  0  0  0
 81164  1  0  0  0
 81165  1  0  0  0
 82 84  1  0  0  0
 82166  1  0  0  0
 82167  1  0  0  0
 83 88  1  0  0  0
 83168  1  0  0  0
 83169  1  0  0  0
 84170  1  0  0  0
 84171  1  0  0  0
 85 88  1  0  0  0
 85172  1  0  0  0
M  ISO  4   1 100  68 101  84 101  88 100
M  END
> <chiral flag>
0

> <version>
0

> <s_m_source_file>
/data/baiqing/PycharmProjects/Reinvent-master-3.2/result/LINK_invent/BTK/process_docking_weight1_custom_sum_contain_oxygen_bond_distance_aromatic_linkinvent_7_9_3/rearranged_h_0067.sdf

> <i_m_source_file_index>
61

> <r_mmod_Potential_Energy-OPLS-2005>
-283.674957275391

> <r_mmod_Stretch_Energy-OPLS-2005>
48.2976760864258

> <r_mmod_Bend_Energy-OPLS-2005>
135.341659545898

> <r_mmod_Torsional_Energy-OPLS-2005>
307.988830566406

> <r_mmod_Improper_Torsional_Energy-OPLS-2005>
25.1474189758301

> <r_mmod_Van_der_Waal_Energy-OPLS-2005>
164.394149780273

> <r_mmod_Electrostatic_Energy-OPLS-2005>
-801.02587890625

> <r_mmod_Solvation_Energy-OPLS-2005>
-198.660873413086

> <b_mmod_Minimization_Converged-OPLS-2005>
0

> <r_mmod_RMS_Derivative-OPLS-2005>
6.65681028366089

$$$$
63
                    3D
 Structure written by MMmdl.
168176  0  0  1  0            999 V2000
  -30.6513  -14.4968   20.5327 C   0  0  0  0  0  0
  -30.4381  -12.3048   19.4327 C   0  0  0  0  0  0
  -29.5026  -12.4931   18.2173 C   0  0  0  0  0  0
  -28.0221  -12.3563   18.6282 C   0  0  0  0  0  0
  -27.6675  -13.1947   19.8839 C   0  0  2  0  0  0
  -28.7106  -12.9639   21.0049 C   0  0  0  0  0  0
  -25.2632  -13.8129   20.5680 C   0  0  0  0  0  0
  -24.1861  -13.0443   20.9172 C   0  0  0  0  0  0
  -24.6386  -11.6895   20.8754 C   0  0  0  0  0  0
  -23.9035  -10.4301   21.0418 C   0  0  0  0  0  0
  -24.3585   -9.4214   21.9196 C   0  0  0  0  0  0
  -23.6270   -8.2245   22.0759 C   0  0  0  0  0  0
  -22.4258   -8.0277   21.3541 C   0  0  0  0  0  0
  -21.9886   -9.0257   20.4649 C   0  0  0  0  0  0
  -22.7210  -10.2143   20.3067 C   0  0  0  0  0  0
  -21.6848   -6.0727   22.5272 C   0  0  0  0  0  0
  -21.4007   -6.5633   23.8203 C   0  0  0  0  0  0
  -21.3655   -5.6792   24.9169 C   0  0  0  0  0  0
  -21.6049   -4.3052   24.7223 C   0  0  0  0  0  0
  -21.8821   -3.8140   23.4345 C   0  0  0  0  0  0
  -21.9195   -4.6958   22.3401 C   0  0  0  0  0  0
  -22.7885  -13.5274   21.1810 C   0  0  0  0  0  0
  -22.1664   -4.2138   21.0981 F   0  0  0  0  0  0
  -21.5634   -3.4540   25.7740 F   0  0  0  0  0  0
  -30.0436  -13.2812   20.4608 N   0  0  0  0  0  0
  -26.3061  -12.9265   20.3423 N   0  0  0  0  0  0
  -25.9310  -11.6447   20.5803 N   0  0  0  0  0  0
  -22.0494  -12.8305   22.0368 N   0  0  0  0  0  0
  -25.4461  -15.1825   20.4039 N   0  0  0  0  0  0
  -31.7638  -14.7251   20.0506 O   0  0  0  0  0  0
  -21.6634   -6.8867   21.4228 O   0  0  0  0  0  0
  -22.3593  -14.5587   20.6650 O   0  0  0  0  0  0
  -24.6209  -31.8653   23.2067 C   0  0  0  0  0  0
  -25.9078  -32.4820   23.8381 C   0  0  1  0  0  0
  -27.2366  -27.4080   20.1067 C   0  0  0  0  0  0
  -25.5930  -33.8618   24.2292 N   0  0  0  0  0  0
  -23.4091  -30.4905   21.5466 C   0  0  2  0  0  0
  -24.8546  -28.9476   20.1181 C   0  0  0  0  0  0
  -22.7445  -29.4665   22.4965 C   0  0  0  0  0  0
  -18.0288  -28.1376   22.8496 C   0  0  0  0  0  0
  -24.1480  -36.7330   23.2641 C   0  0  0  0  0  0
  -25.9395  -30.8279   21.3561 C   0  0  0  0  0  0
  -26.0179  -29.4567   20.7094 C   0  0  0  0  0  0
  -27.2144  -28.6994   20.6901 C   0  0  0  0  0  0
  -26.0546  -26.9180   19.5099 C   0  0  0  0  0  0
  -24.8693  -27.6789   19.5119 C   0  0  0  0  0  0
  -23.6197  -29.8212   20.1618 C   0  0  0  0  0  0
  -25.4103  -36.3102   24.0317 C   0  0  1  0  0  0
  -20.5886  -28.3674   23.1300 C   0  0  2  0  0  0
  -20.6767  -26.9404   22.5409 C   0  0  0  0  0  0
  -19.5738  -26.6371   21.5217 C   0  0  0  0  0  0
  -18.1920  -26.7919   22.1626 C   0  0  0  0  0  0
  -19.1546  -28.8835   23.2898 C   0  0  0  0  0  0
  -18.9463  -30.1442   23.8911 C   0  0  0  0  0  0
  -17.6467  -30.6584   24.0568 C   0  0  0  0  0  0
  -25.9026  -34.9476   23.5098 C   0  0  0  0  0  0
  -16.5358  -29.9087   23.6327 C   0  0  0  0  0  0
  -16.7281  -28.6511   23.0348 C   0  0  0  0  0  0
  -26.4485  -31.6629   25.0739 C   0  0  0  0  0  0
  -25.3745  -31.3781   26.1501 C   0  0  0  0  0  0
  -27.0306  -30.3067   24.6119 C   0  0  0  0  0  0
  -27.6040  -32.4381   25.7506 C   0  0  0  0  0  0
  -27.5571  -37.1827   24.8464 C   0  0  0  0  0  0
  -21.4168  -29.3056   22.3714 N   0  0  0  0  0  0
  -26.4286  -37.3786   23.9395 N   0  0  0  0  0  0
  -24.6752  -31.0754   22.0962 N   0  0  0  0  0  0
  -23.4210  -28.8200   23.3016 O   0  0  0  0  0  0
  -28.4021  -26.6629   20.0912 O   0  0  0  0  0  0
  -26.5591  -34.8939   22.4653 O   0  0  0  0  0  0
  -23.5393  -32.1401   23.7448 O   0  0  0  0  0  0
  -29.2709  -22.4676   21.5880 C   0  0  0  0  0  0
  -28.9174  -21.6054   19.6218 C   0  0  0  0  0  0
  -29.0600  -22.8356   20.2242 C   0  0  0  0  0  0
  -27.2819  -18.8985   20.9168 C   0  0  0  0  0  0
  -28.2394  -24.2172   18.2781 C   0  0  0  0  0  0
  -30.4699  -24.6855   19.3187 C   0  0  0  0  0  0
  -31.2167  -18.5751   20.7215 C   0  0  0  0  0  0
  -29.6131  -17.8808   22.5054 C   0  0  0  0  0  0
  -29.5895  -16.7423   20.2056 C   0  0  0  0  0  0
  -28.3331  -25.2914   20.5542 C   0  0  0  0  0  0
  -28.7237  -19.1589   20.4222 C   0  0  2  0  0  0
  -29.0200  -24.2499   19.6081 C   0  0  0  0  0  0
  -29.7719  -18.0988   20.9798 C   0  0  0  0  0  0
  -29.2227  -21.1566   21.7992 N   0  0  0  0  0  0
  -29.0153  -20.6031   20.5803 N   0  0  0  0  0  0
  -29.8398  -15.4883   20.9445 N   0  0  0  0  0  0
  -31.4806  -12.4191   19.1297 H   0  0  0  0  0  0
  -30.3561  -11.2924   19.8308 H   0  0  0  0  0  0
  -29.7410  -11.7610   17.4447 H   0  0  0  0  0  0
  -29.6702  -13.4740   17.7699 H   0  0  0  0  0  0
  -27.8314  -11.3007   18.8271 H   0  0  0  0  0  0
  -27.3721  -12.6297   17.7970 H   0  0  0  0  0  0
  -27.7141  -14.2416   19.5855 H   0  0  0  0  0  0
  -28.6895  -11.9233   21.3320 H   0  0  0  0  0  0
  -28.4751  -13.5495   21.8944 H   0  0  0  0  0  0
  -25.2721   -9.5697   22.4782 H   0  0  0  0  0  0
  -23.9982   -7.4636   22.7477 H   0  0  0  0  0  0
  -21.0819   -8.8772   19.8952 H   0  0  0  0  0  0
  -22.3660  -10.9684   19.6184 H   0  0  0  0  0  0
  -21.1990   -7.6139   23.9700 H   0  0  0  0  0  0
  -21.1476   -6.0523   25.9071 H   0  0  0  0  0  0
  -22.0604   -2.7600   23.2855 H   0  0  0  0  0  0
  -22.4067  -11.9971   22.4798 H   0  0  0  0  0  0
  -21.1112  -13.1365   22.2526 H   0  0  0  0  0  0
  -24.6898  -15.8522   20.4935 H   0  0  0  0  0  0
  -26.3086  -15.5974   20.0788 H   0  0  0  0  0  0
  -26.7183  -32.5516   23.1177 H   0  0  0  0  0  0
  -25.0155  -33.9757   25.0496 H   0  0  0  0  0  0
  -22.7015  -31.3101   21.4059 H   0  0  0  0  0  0
  -23.3708  -35.9696   23.3314 H   0  0  0  0  0  0
  -24.3598  -36.8942   22.2065 H   0  0  0  0  0  0
  -23.7271  -37.6557   23.6659 H   0  0  0  0  0  0
  -26.0458  -31.5878   20.5796 H   0  0  0  0  0  0
  -26.8315  -30.8923   21.9681 H   0  0  0  0  0  0
  -28.1171  -29.0960   21.1341 H   0  0  0  0  0  0
  -26.0461  -25.9484   19.0341 H   0  0  0  0  0  0
  -23.9769  -27.2836   19.0465 H   0  0  0  0  0  0
  -23.7404  -30.5963   19.4051 H   0  0  0  0  0  0
  -22.7385  -29.2520   19.8568 H   0  0  0  0  0  0
  -25.1281  -36.1956   25.0811 H   0  0  0  0  0  0
  -21.0004  -28.3246   24.1417 H   0  0  0  0  0  0
  -20.5671  -26.2300   23.3613 H   0  0  0  0  0  0
  -21.6630  -26.7430   22.1203 H   0  0  0  0  0  0
  -19.6879  -25.6282   21.1254 H   0  0  0  0  0  0
  -19.6649  -27.3178   20.6748 H   0  0  0  0  0  0
  -17.4191  -26.6714   21.4023 H   0  0  0  0  0  0
  -18.0288  -26.0039   22.9003 H   0  0  0  0  0  0
  -19.7946  -30.7255   24.2279 H   0  0  0  0  0  0
  -17.5028  -31.6260   24.5172 H   0  0  0  0  0  0
  -15.5362  -30.2997   23.7613 H   0  0  0  0  0  0
  -15.8689  -28.0831   22.7028 H   0  0  0  0  0  0
  -24.5853  -30.7190   25.7880 H   0  0  0  0  0  0
  -24.9015  -32.2970   26.4990 H   0  0  0  0  0  0
  -25.8089  -30.8942   27.0250 H   0  0  0  0  0  0
  -26.2848  -29.6862   24.1140 H   0  0  0  0  0  0
  -27.4056  -29.7291   25.4576 H   0  0  0  0  0  0
  -27.8689  -30.4406   23.9265 H   0  0  0  0  0  0
  -27.2623  -33.3667   26.2093 H   0  0  0  0  0  0
  -28.3838  -32.6978   25.0337 H   0  0  0  0  0  0
  -28.0718  -31.8521   26.5432 H   0  0  0  0  0  0
  -28.2590  -38.0119   24.7476 H   0  0  0  0  0  0
  -28.1049  -36.2646   24.6299 H   0  0  0  0  0  0
  -27.2299  -37.1509   25.8872 H   0  0  0  0  0  0
  -20.9331  -29.8878   21.7020 H   0  0  0  0  0  0
  -26.0158  -38.2854   24.1392 H   0  0  0  0  0  0
  -29.4397  -23.1161   22.4374 H   0  0  0  0  0  0
  -28.7204  -21.3594   18.5877 H   0  0  0  0  0  0
  -26.9648  -17.8674   20.7710 H   0  0  0  0  0  0
  -26.5705  -19.5310   20.3865 H   0  0  0  0  0  0
  -27.1774  -19.1225   21.9790 H   0  0  0  0  0  0
  -28.6987  -23.5465   17.5524 H   0  0  0  0  0  0
  -28.1949  -25.2032   17.8164 H   0  0  0  0  0  0
  -27.2112  -23.8871   18.4354 H   0  0  0  0  0  0
  -30.9546  -24.0105   18.6122 H   0  0  0  0  0  0
  -31.0773  -24.7002   20.2227 H   0  0  0  0  0  0
  -30.5083  -25.6868   18.8889 H   0  0  0  0  0  0
  -31.9438  -17.8325   21.0518 H   0  0  0  0  0  0
  -31.4412  -19.5031   21.2468 H   0  0  0  0  0  0
  -31.3891  -18.7484   19.6590 H   0  0  0  0  0  0
  -30.3631  -17.1924   22.8968 H   0  0  0  0  0  0
  -28.6391  -17.4629   22.7593 H   0  0  0  0  0  0
  -29.7281  -18.8128   23.0569 H   0  0  0  0  0  0
  -30.1553  -16.7587   19.2718 H   0  0  0  0  0  0
  -28.5560  -16.6476   19.8726 H   0  0  0  0  0  0
  -27.3086  -24.9769   20.7588 H   0  0  0  0  0  0
  -28.8343  -25.2802   21.5226 H   0  0  0  0  0  0
  -28.6993  -19.0033   19.3420 H   0  0  0  0  0  0
  -29.0422  -15.1594   21.4667 H   0  0  0  0  0  0
  1 25  1  0  0  0
  1 30  2  0  0  0
  1 86  1  0  0  0
  2  3  1  0  0  0
  2 25  1  0  0  0
  2 87  1  0  0  0
  2 88  1  0  0  0
  3  4  1  0  0  0
  3 89  1  0  0  0
  3 90  1  0  0  0
  4  5  1  0  0  0
  4 91  1  0  0  0
  4 92  1  0  0  0
  5  6  1  0  0  0
  5 26  1  0  0  0
  5 93  1  0  0  0
  6 25  1  0  0  0
  6 94  1  0  0  0
  6 95  1  0  0  0
  7  8  2  0  0  0
  7 26  1  0  0  0
  7 29  1  0  0  0
  8  9  1  0  0  0
  8 22  1  0  0  0
  9 10  1  0  0  0
  9 27  2  0  0  0
 10 11  2  0  0  0
 10 15  1  0  0  0
 11 12  1  0  0  0
 11 96  1  0  0  0
 12 13  2  0  0  0
 12 97  1  0  0  0
 13 14  1  0  0  0
 13 31  1  0  0  0
 14 15  2  0  0  0
 14 98  1  0  0  0
 15 99  1  0  0  0
 16 17  2  0  0  0
 16 21  1  0  0  0
 16 31  1  0  0  0
 17 18  1  0  0  0
 17100  1  0  0  0
 18 19  2  0  0  0
 18101  1  0  0  0
 19 20  1  0  0  0
 19 24  1  0  0  0
 20 21  2  0  0  0
 20102  1  0  0  0
 21 23  1  0  0  0
 22 28  1  0  0  0
 22 32  2  0  0  0
 26 27  1  0  0  0
 28103  1  0  0  0
 28104  1  0  0  0
 29105  1  0  0  0
 29106  1  0  0  0
 33 34  1  0  0  0
 33 66  1  0  0  0
 33 70  2  0  0  0
 34 36  1  0  0  0
 34 59  1  0  0  0
 34107  1  0  0  0
 35 44  2  0  0  0
 35 45  1  0  0  0
 35 68  1  0  0  0
 36 56  1  0  0  0
 36108  1  0  0  0
 37 39  1  0  0  0
 37 47  1  0  0  0
 37 66  1  0  0  0
 37109  1  0  0  0
 38 43  2  0  0  0
 38 46  1  0  0  0
 38 47  1  0  0  0
 39 64  1  0  0  0
 39 67  2  0  0  0
 40 52  1  0  0  0
 40 53  2  0  0  0
 40 58  1  0  0  0
 41110  1  0  0  0
 41111  1  0  0  0
 41112  1  0  0  0
 41 48  1  0  0  0
 42 43  1  0  0  0
 42 66  1  0  0  0
 42113  1  0  0  0
 42114  1  0  0  0
 43 44  1  0  0  0
 44115  1  0  0  0
 45 46  2  0  0  0
 45116  1  0  0  0
 46117  1  0  0  0
 47118  1  0  0  0
 47119  1  0  0  0
 48 56  1  0  0  0
 48 65  1  0  0  0
 48120  1  0  0  0
 49 50  1  0  0  0
 49 53  1  0  0  0
 49 64  1  0  0  0
 49121  1  0  0  0
 50 51  1  0  0  0
 50122  1  0  0  0
 50123  1  0  0  0
 51 52  1  0  0  0
 51124  1  0  0  0
 51125  1  0  0  0
 52126  1  0  0  0
 52127  1  0  0  0
 53 54  1  0  0  0
 54 55  2  0  0  0
 54128  1  0  0  0
 55 57  1  0  0  0
 55129  1  0  0  0
 56 69  2  0  0  0
 57 58  2  0  0  0
 57130  1  0  0  0
 58131  1  0  0  0
 59 60  1  0  0  0
 59 61  1  0  0  0
 59 62  1  0  0  0
 60132  1  0  0  0
 60133  1  0  0  0
 60134  1  0  0  0
 61135  1  0  0  0
 61136  1  0  0  0
 61137  1  0  0  0
 62138  1  0  0  0
 62139  1  0  0  0
 62140  1  0  0  0
 63 65  1  0  0  0
 63141  1  0  0  0
 63142  1  0  0  0
 63143  1  0  0  0
 64144  1  0  0  0
 65145  1  0  0  0
 68 80  1  0  0  0
 71 73  1  0  0  0
 71 84  2  0  0  0
 71146  1  0  0  0
 72 73  2  0  0  0
 72 85  1  0  0  0
 72147  1  0  0  0
 73 82  1  0  0  0
 74148  1  0  0  0
 74149  1  0  0  0
 74150  1  0  0  0
 74 81  1  0  0  0
 75151  1  0  0  0
 75152  1  0  0  0
 75153  1  0  0  0
 75 82  1  0  0  0
 76 82  1  0  0  0
 76154  1  0  0  0
 76155  1  0  0  0
 76156  1  0  0  0
 77157  1  0  0  0
 77158  1  0  0  0
 77159  1  0  0  0
 77 83  1  0  0  0
 78 83  1  0  0  0
 78160  1  0  0  0
 78161  1  0  0  0
 78162  1  0  0  0
 79 83  1  0  0  0
 79 86  1  0  0  0
 79163  1  0  0  0
 79164  1  0  0  0
 80 82  1  0  0  0
 80165  1  0  0  0
 80166  1  0  0  0
 81 83  1  0  0  0
 81 85  1  0  0  0
 81167  1  0  0  0
 84 85  1  0  0  0
 86168  1  0  0  0
M  ISO  4   1 100  68 101  80 101  86 100
M  END
> <chiral flag>
0

> <version>
0

> <s_m_source_file>
/data/baiqing/PycharmProjects/Reinvent-master-3.2/result/LINK_invent/BTK/process_docking_weight1_custom_sum_contain_oxygen_bond_distance_aromatic_linkinvent_7_9_3/rearranged_h_0067.sdf

> <i_m_source_file_index>
62

> <r_mmod_Potential_Energy-OPLS-2005>
-14.7327566146851

> <r_mmod_Stretch_Energy-OPLS-2005>
48.713249206543

> <r_mmod_Bend_Energy-OPLS-2005>
118.144340515137

> <r_mmod_Torsional_Energy-OPLS-2005>
286.868316650391

> <r_mmod_Improper_Torsional_Energy-OPLS-2005>
9.48896503448486

> <r_mmod_Van_der_Waal_Energy-OPLS-2005>
127.884284973145

> <r_mmod_Electrostatic_Energy-OPLS-2005>
-414.105743408203

> <r_mmod_Solvation_Energy-OPLS-2005>
-208.165664672852

> <b_mmod_Minimization_Converged-OPLS-2005>
0

> <r_mmod_RMS_Derivative-OPLS-2005>
2.61177897453308

$$$$
65
                    3D
 Structure written by MMmdl.
196204  0  0  1  0            999 V2000
  -31.0132  -14.1438   20.8358 C   0  0  0  0  0  0
  -30.4271  -12.2894   19.3451 C   0  0  0  0  0  0
  -29.4655  -12.6003   18.1912 C   0  0  0  0  0  0
  -28.0089  -12.4263   18.6328 C   0  0  0  0  0  0
  -27.7057  -13.2094   19.9320 C   0  0  2  0  0  0
  -28.7750  -12.9205   21.0253 C   0  0  0  0  0  0
  -25.2800  -13.8163   20.5846 C   0  0  0  0  0  0
  -24.1993  -13.0443   20.9228 C   0  0  0  0  0  0
  -24.6521  -11.6905   20.8799 C   0  0  0  0  0  0
  -23.9122  -10.4307   21.0397 C   0  0  0  0  0  0
  -24.3633   -9.4209   21.9188 C   0  0  0  0  0  0
  -23.6298   -8.2254   22.0738 C   0  0  0  0  0  0
  -22.4295   -8.0306   21.3531 C   0  0  0  0  0  0
  -21.9950   -9.0294   20.4635 C   0  0  0  0  0  0
  -22.7278  -10.2183   20.3042 C   0  0  0  0  0  0
  -21.6881   -6.0765   22.5270 C   0  0  0  0  0  0
  -21.4023   -6.5650   23.8202 C   0  0  0  0  0  0
  -21.3658   -5.6799   24.9165 C   0  0  0  0  0  0
  -21.6044   -4.3058   24.7215 C   0  0  0  0  0  0
  -21.8811   -3.8153   23.4328 C   0  0  0  0  0  0
  -21.9199   -4.6988   22.3395 C   0  0  0  0  0  0
  -22.7989  -13.5264   21.1807 C   0  0  0  0  0  0
  -22.1678   -4.2171   21.0970 F   0  0  0  0  0  0
  -21.5620   -3.4538   25.7716 F   0  0  0  0  0  0
  -30.1357  -13.1525   20.4968 N   0  0  0  0  0  0
  -26.3350  -12.9368   20.3811 N   0  0  0  0  0  0
  -25.9506  -11.6517   20.5992 N   0  0  0  0  0  0
  -22.0590  -12.8303   22.0353 N   0  0  0  0  0  0
  -25.4492  -15.1859   20.4178 N   0  0  0  0  0  0
  -31.6525  -14.7646   19.9884 O   0  0  0  0  0  0
  -21.6644   -6.8915   21.4236 O   0  0  0  0  0  0
  -22.3706  -14.5596   20.6647 O   0  0  0  0  0  0
  -24.6167  -31.8614   23.2130 C   0  0  0  0  0  0
  -25.9020  -32.4782   23.8424 C   0  0  1  0  0  0
  -27.2485  -27.4401   20.1079 C   0  0  0  0  0  0
  -25.5877  -33.8593   24.2324 N   0  0  0  0  0  0
  -23.4085  -30.4827   21.5543 C   0  0  2  0  0  0
  -24.8546  -28.9471   20.1225 C   0  0  0  0  0  0
  -22.7437  -29.4597   22.5029 C   0  0  0  0  0  0
  -18.0198  -28.1380   22.8372 C   0  0  0  0  0  0
  -24.1489  -36.7282   23.2656 C   0  0  0  0  0  0
  -25.9328  -30.8242   21.3720 C   0  0  0  0  0  0
  -26.0085  -29.4599   20.7226 C   0  0  0  0  0  0
  -27.2094  -28.7152   20.7081 C   0  0  0  0  0  0
  -26.0773  -26.9296   19.5065 C   0  0  0  0  0  0
  -24.8877  -27.6793   19.5089 C   0  0  0  0  0  0
  -23.6188  -29.8153   20.1710 C   0  0  0  0  0  0
  -25.4089  -36.3098   24.0341 C   0  0  1  0  0  0
  -20.5802  -28.3603   23.1351 C   0  0  2  0  0  0
  -20.6715  -26.9314   22.5491 C   0  0  0  0  0  0
  -19.5731  -26.6312   21.5229 C   0  0  0  0  0  0
  -18.1848  -26.7886   22.1560 C   0  0  0  0  0  0
  -19.1455  -28.8796   23.2806 C   0  0  0  0  0  0
  -18.9471  -30.1395   23.8817 C   0  0  0  0  0  0
  -17.6497  -30.6569   24.0534 C   0  0  0  0  0  0
  -25.9062  -34.9444   23.5167 C   0  0  0  0  0  0
  -16.5355  -29.9078   23.6411 C   0  0  0  0  0  0
  -16.7176  -28.6543   23.0294 C   0  0  0  0  0  0
  -26.4452  -31.6633   25.0826 C   0  0  0  0  0  0
  -25.3691  -31.3774   26.1590 C   0  0  0  0  0  0
  -27.0328  -30.3103   24.6194 C   0  0  0  0  0  0
  -27.6048  -32.4370   25.7525 C   0  0  0  0  0  0
  -27.5513  -37.1776   24.8432 C   0  0  0  0  0  0
  -21.4138  -29.2989   22.3731 N   0  0  0  0  0  0
  -26.4234  -37.3820   23.9401 N   0  0  0  0  0  0
  -24.6682  -31.0681   22.1052 N   0  0  0  0  0  0
  -23.4183  -28.8188   23.3101 O   0  0  0  0  0  0
  -28.4465  -26.7674   20.0964 O   0  0  0  0  0  0
  -26.5650  -34.8874   22.4742 O   0  0  0  0  0  0
  -23.5368  -32.1450   23.7537 O   0  0  0  0  0  0
  -32.8314  -16.7953   23.2784 C   0  0  0  0  0  0
  -33.6639  -17.9327   23.3049 C   0  0  0  0  0  0
  -31.4452  -16.9951   23.4345 C   0  0  0  0  0  0
  -31.8110  -19.2572   23.6394 C   0  0  0  0  0  0
  -32.7417  -11.7681   22.4875 C   0  0  0  0  0  0
  -33.9964  -13.5393   21.2130 C   0  0  0  0  0  0
  -35.6438  -18.4283   21.7973 C   0  0  0  0  0  0
  -35.7845  -16.4589   23.2780 C   0  0  0  0  0  0
  -35.8776  -18.6902   24.3086 C   0  0  0  0  0  0
  -29.2159  -16.1877   22.5675 C   0  0  0  0  0  0
  -29.7977  -15.8984   24.9534 C   0  0  0  0  0  0
  -30.0669  -23.4302   24.1729 C   0  0  0  0  0  0
  -31.9513  -23.4151   22.4936 C   0  0  0  0  0  0
  -31.2464  -20.6403   23.9587 C   0  0  0  0  0  0
  -30.5537  -21.3507   22.7618 C   0  0  0  0  0  0
  -30.9257  -14.3909   23.3339 C   0  0  0  0  0  0
  -28.4425  -25.3431   20.2472 C   0  0  0  0  0  0
  -32.9082  -13.2886   22.2825 C   0  0  0  0  0  0
  -29.5295  -23.4423   21.6740 C   0  0  1  0  0  0
  -35.2082  -17.8841   23.1721 C   0  0  0  0  0  0
  -30.3877  -15.8637   23.5243 C   0  0  0  0  0  0
  -30.5181  -22.9190   22.7839 C   0  0  0  0  0  0
  -29.4191  -24.9756   21.3896 C   0  0  0  0  0  0
  -33.1218  -19.1591   23.4551 N   0  0  0  0  0  0
  -30.9606  -18.2426   23.6252 N   0  0  0  0  0  0
  -31.5761  -13.9586   22.0680 N   0  0  0  0  0  0
  -29.8312  -22.8393   20.5187 F   0  0  0  0  0  0
  -30.6044  -25.4770   21.0445 F   0  0  0  0  0  0
  -28.9699  -25.6194   22.4687 F   0  0  0  0  0  0
  -31.4570  -12.3981   19.0015 H   0  0  0  0  0  0
  -30.3326  -11.2468   19.6522 H   0  0  0  0  0  0
  -29.6728  -11.9516   17.3417 H   0  0  0  0  0  0
  -29.6235  -13.6239   17.8433 H   0  0  0  0  0  0
  -27.8199  -11.3641   18.7875 H   0  0  0  0  0  0
  -27.3289  -12.7452   17.8419 H   0  0  0  0  0  0
  -27.7748  -14.2736   19.6977 H   0  0  0  0  0  0
  -28.7149  -11.8782   21.3415 H   0  0  0  0  0  0
  -28.5735  -13.5033   21.9164 H   0  0  0  0  0  0
  -25.2763   -9.5709   22.4793 H   0  0  0  0  0  0
  -24.0009   -7.4648   22.7465 H   0  0  0  0  0  0
  -21.0885   -8.8834   19.8938 H   0  0  0  0  0  0
  -22.3728  -10.9740   19.6169 H   0  0  0  0  0  0
  -21.2014   -7.6158   23.9728 H   0  0  0  0  0  0
  -21.1487   -6.0519   25.9083 H   0  0  0  0  0  0
  -22.0585   -2.7612   23.2812 H   0  0  0  0  0  0
  -22.4195  -11.9954   22.4743 H   0  0  0  0  0  0
  -21.1206  -13.1336   22.2467 H   0  0  0  0  0  0
  -24.6811  -15.8388   20.5198 H   0  0  0  0  0  0
  -26.3099  -15.6266   20.1173 H   0  0  0  0  0  0
  -26.7062  -32.5434   23.1160 H   0  0  0  0  0  0
  -24.9916  -33.9679   25.0372 H   0  0  0  0  0  0
  -22.7046  -31.3051   21.4154 H   0  0  0  0  0  0
  -23.3742  -35.9641   23.3369 H   0  0  0  0  0  0
  -24.3624  -36.8922   22.2096 H   0  0  0  0  0  0
  -23.7221  -37.6465   23.6698 H   0  0  0  0  0  0
  -26.0581  -31.5802   20.5936 H   0  0  0  0  0  0
  -26.8180  -30.8805   21.9924 H   0  0  0  0  0  0
  -28.1076  -29.1120   21.1629 H   0  0  0  0  0  0
  -26.0884  -25.9697   19.0142 H   0  0  0  0  0  0
  -24.0033  -27.2815   19.0248 H   0  0  0  0  0  0
  -23.7336  -30.5968   19.4183 H   0  0  0  0  0  0
  -22.7467  -29.2387   19.8694 H   0  0  0  0  0  0
  -25.1273  -36.1991   25.0841 H   0  0  0  0  0  0
  -20.9744  -28.3149   24.1532 H   0  0  0  0  0  0
  -20.5737  -26.2106   23.3594 H   0  0  0  0  0  0
  -21.6536  -26.7390   22.1197 H   0  0  0  0  0  0
  -19.6994  -25.6274   21.1147 H   0  0  0  0  0  0
  -19.6794  -27.3185   20.6808 H   0  0  0  0  0  0
  -17.4156  -26.6556   21.3938 H   0  0  0  0  0  0
  -18.0265  -26.0072   22.9020 H   0  0  0  0  0  0
  -19.8028  -30.7127   24.2149 H   0  0  0  0  0  0
  -17.5167  -31.6257   24.5129 H   0  0  0  0  0  0
  -15.5406  -30.3037   23.7780 H   0  0  0  0  0  0
  -15.8512  -28.0916   22.7058 H   0  0  0  0  0  0
  -24.5799  -30.7188   25.7929 H   0  0  0  0  0  0
  -24.8887  -32.2975   26.5017 H   0  0  0  0  0  0
  -25.7985  -30.8956   27.0359 H   0  0  0  0  0  0
  -26.2923  -29.6857   24.1212 H   0  0  0  0  0  0
  -27.4157  -29.7389   25.4616 H   0  0  0  0  0  0
  -27.8708  -30.4499   23.9339 H   0  0  0  0  0  0
  -27.2699  -33.3715   26.2002 H   0  0  0  0  0  0
  -28.3806  -32.6852   25.0288 H   0  0  0  0  0  0
  -28.0734  -31.8569   26.5492 H   0  0  0  0  0  0
  -28.2511  -38.0084   24.7532 H   0  0  0  0  0  0
  -28.1034  -36.2631   24.6222 H   0  0  0  0  0  0
  -27.2241  -37.1380   25.8835 H   0  0  0  0  0  0
  -20.9335  -29.8807   21.7000 H   0  0  0  0  0  0
  -26.0145  -38.2864   24.1583 H   0  0  0  0  0  0
  -33.2527  -15.8122   23.1661 H   0  0  0  0  0  0
  -33.6873  -11.3269   22.8141 H   0  0  0  0  0  0
  -32.4553  -11.2510   21.5727 H   0  0  0  0  0  0
  -32.0029  -11.5292   23.2532 H   0  0  0  0  0  0
  -34.9405  -13.0882   21.5290 H   0  0  0  0  0  0
  -34.1858  -14.6034   21.0638 H   0  0  0  0  0  0
  -33.7488  -13.1047   20.2432 H   0  0  0  0  0  0
  -35.2810  -17.7827   20.9981 H   0  0  0  0  0  0
  -36.7321  -18.4614   21.7158 H   0  0  0  0  0  0
  -35.2725  -19.4312   21.5990 H   0  0  0  0  0  0
  -35.4254  -15.8184   22.4778 H   0  0  0  0  0  0
  -35.5385  -15.9925   24.2300 H   0  0  0  0  0  0
  -36.8729  -16.4774   23.1946 H   0  0  0  0  0  0
  -35.6221  -19.7469   24.2715 H   0  0  0  0  0  0
  -36.9664  -18.6225   24.2579 H   0  0  0  0  0  0
  -35.5738  -18.3166   25.2858 H   0  0  0  0  0  0
  -28.7964  -17.1696   22.7904 H   0  0  0  0  0  0
  -28.3832  -15.4970   22.6802 H   0  0  0  0  0  0
  -29.5080  -16.2174   21.5215 H   0  0  0  0  0  0
  -29.2478  -16.8217   25.1331 H   0  0  0  0  0  0
  -30.5756  -15.8355   25.7166 H   0  0  0  0  0  0
  -29.0952  -15.0843   25.1267 H   0  0  0  0  0  0
  -30.6760  -23.0320   24.9852 H   0  0  0  0  0  0
  -29.0327  -23.1586   24.3820 H   0  0  0  0  0  0
  -30.1476  -24.5163   24.2466 H   0  0  0  0  0  0
  -32.7028  -22.9480   23.1264 H   0  0  0  0  0  0
  -32.0597  -24.4836   22.6624 H   0  0  0  0  0  0
  -32.2111  -23.2048   21.4566 H   0  0  0  0  0  0
  -32.0761  -21.2356   24.3404 H   0  0  0  0  0  0
  -30.5467  -20.5555   24.7934 H   0  0  0  0  0  0
  -29.5539  -20.9290   22.6469 H   0  0  0  0  0  0
  -31.0964  -21.0516   21.8632 H   0  0  0  0  0  0
  -30.1156  -13.6869   23.5239 H   0  0  0  0  0  0
  -31.5998  -14.2040   24.1705 H   0  0  0  0  0  0
  -27.4580  -24.9303   20.4664 H   0  0  0  0  0  0
  -28.7628  -24.9179   19.2951 H   0  0  0  0  0  0
  -33.3581  -13.6561   23.2057 H   0  0  0  0  0  0
  -28.5289  -23.0776   21.9104 H   0  0  0  0  0  0
  1 25  1  0  0  0
  1 30  2  0  0  0
  1 96  1  0  0  0
  2  3  1  0  0  0
  2 25  1  0  0  0
  2100  1  0  0  0
  2101  1  0  0  0
  3  4  1  0  0  0
  3102  1  0  0  0
  3103  1  0  0  0
  4  5  1  0  0  0
  4104  1  0  0  0
  4105  1  0  0  0
  5  6  1  0  0  0
  5 26  1  0  0  0
  5106  1  0  0  0
  6 25  1  0  0  0
  6107  1  0  0  0
  6108  1  0  0  0
  7  8  2  0  0  0
  7 26  1  0  0  0
  7 29  1  0  0  0
  8  9  1  0  0  0
  8 22  1  0  0  0
  9 10  1  0  0  0
  9 27  2  0  0  0
 10 11  2  0  0  0
 10 15  1  0  0  0
 11 12  1  0  0  0
 11109  1  0  0  0
 12 13  2  0  0  0
 12110  1  0  0  0
 13 14  1  0  0  0
 13 31  1  0  0  0
 14 15  2  0  0  0
 14111  1  0  0  0
 15112  1  0  0  0
 16 17  2  0  0  0
 16 21  1  0  0  0
 16 31  1  0  0  0
 17 18  1  0  0  0
 17113  1  0  0  0
 18 19  2  0  0  0
 18114  1  0  0  0
 19 20  1  0  0  0
 19 24  1  0  0  0
 20 21  2  0  0  0
 20115  1  0  0  0
 21 23  1  0  0  0
 22 28  1  0  0  0
 22 32  2  0  0  0
 26 27  1  0  0  0
 28116  1  0  0  0
 28117  1  0  0  0
 29118  1  0  0  0
 29119  1  0  0  0
 33 34  1  0  0  0
 33 66  1  0  0  0
 33 70  2  0  0  0
 34 36  1  0  0  0
 34 59  1  0  0  0
 34120  1  0  0  0
 35 44  2  0  0  0
 35 45  1  0  0  0
 35 68  1  0  0  0
 36 56  1  0  0  0
 36121  1  0  0  0
 37 39  1  0  0  0
 37 47  1  0  0  0
 37 66  1  0  0  0
 37122  1  0  0  0
 38 43  2  0  0  0
 38 46  1  0  0  0
 38 47  1  0  0  0
 39 64  1  0  0  0
 39 67  2  0  0  0
 40 52  1  0  0  0
 40 53  2  0  0  0
 40 58  1  0  0  0
 41123  1  0  0  0
 41124  1  0  0  0
 41125  1  0  0  0
 41 48  1  0  0  0
 42 43  1  0  0  0
 42 66  1  0  0  0
 42126  1  0  0  0
 42127  1  0  0  0
 43 44  1  0  0  0
 44128  1  0  0  0
 45 46  2  0  0  0
 45129  1  0  0  0
 46130  1  0  0  0
 47131  1  0  0  0
 47132  1  0  0  0
 48 56  1  0  0  0
 48 65  1  0  0  0
 48133  1  0  0  0
 49 50  1  0  0  0
 49 53  1  0  0  0
 49 64  1  0  0  0
 49134  1  0  0  0
 50 51  1  0  0  0
 50135  1  0  0  0
 50136  1  0  0  0
 51 52  1  0  0  0
 51137  1  0  0  0
 51138  1  0  0  0
 52139  1  0  0  0
 52140  1  0  0  0
 53 54  1  0  0  0
 54 55  2  0  0  0
 54141  1  0  0  0
 55 57  1  0  0  0
 55142  1  0  0  0
 56 69  2  0  0  0
 57 58  2  0  0  0
 57143  1  0  0  0
 58144  1  0  0  0
 59 60  1  0  0  0
 59 61  1  0  0  0
 59 62  1  0  0  0
 60145  1  0  0  0
 60146  1  0  0  0
 60147  1  0  0  0
 61148  1  0  0  0
 61149  1  0  0  0
 61150  1  0  0  0
 62151  1  0  0  0
 62152  1  0  0  0
 62153  1  0  0  0
 63 65  1  0  0  0
 63154  1  0  0  0
 63155  1  0  0  0
 63156  1  0  0  0
 64157  1  0  0  0
 65158  1  0  0  0
 68 87  1  0  0  0
 71 72  2  0  0  0
 71 73  1  0  0  0
 71159  1  0  0  0
 72 90  1  0  0  0
 72 94  1  0  0  0
 73 91  1  0  0  0
 73 95  2  0  0  0
 74 84  1  0  0  0
 74 94  2  0  0  0
 74 95  1  0  0  0
 75160  1  0  0  0
 75161  1  0  0  0
 75162  1  0  0  0
 75 88  1  0  0  0
 76 88  1  0  0  0
 76163  1  0  0  0
 76164  1  0  0  0
 76165  1  0  0  0
 77166  1  0  0  0
 77167  1  0  0  0
 77168  1  0  0  0
 77 90  1  0  0  0
 78 90  1  0  0  0
 78169  1  0  0  0
 78170  1  0  0  0
 78171  1  0  0  0
 79 90  1  0  0  0
 79172  1  0  0  0
 79173  1  0  0  0
 79174  1  0  0  0
 80175  1  0  0  0
 80176  1  0  0  0
 80177  1  0  0  0
 80 91  1  0  0  0
 81 91  1  0  0  0
 81178  1  0  0  0
 81179  1  0  0  0
 81180  1  0  0  0
 82181  1  0  0  0
 82182  1  0  0  0
 82183  1  0  0  0
 82 92  1  0  0  0
 83 92  1  0  0  0
 83184  1  0  0  0
 83185  1  0  0  0
 83186  1  0  0  0
 84 85  1  0  0  0
 84187  1  0  0  0
 84188  1  0  0  0
 85 92  1  0  0  0
 85189  1  0  0  0
 85190  1  0  0  0
 86 91  1  0  0  0
 86 96  1  0  0  0
 86191  1  0  0  0
 86192  1  0  0  0
 87 93  1  0  0  0
 87193  1  0  0  0
 87194  1  0  0  0
 88 96  1  0  0  0
 88195  1  0  0  0
 89 92  1  0  0  0
 89 93  1  0  0  0
 89 97  1  0  0  0
 89196  1  0  0  0
 93 98  1  0  0  0
 93 99  1  0  0  0
M  ISO  4   1 100  68 101  87 101  96 100
M  END
> <chiral flag>
0

> <version>
0

> <s_m_source_file>
/data/baiqing/PycharmProjects/Reinvent-master-3.2/result/LINK_invent/BTK/process_docking_weight1_custom_sum_contain_oxygen_bond_distance_aromatic_linkinvent_7_9_3/rearranged_h_0067.sdf

> <i_m_source_file_index>
63

> <r_mmod_Potential_Energy-OPLS-2005>
-204.924438476562

> <r_mmod_Stretch_Energy-OPLS-2005>
58.1721229553223

> <r_mmod_Bend_Energy-OPLS-2005>
157.591033935547

> <r_mmod_Torsional_Energy-OPLS-2005>
312.451110839844

> <r_mmod_Improper_Torsional_Energy-OPLS-2005>
21.46999168396

> <r_mmod_Van_der_Waal_Energy-OPLS-2005>
169.866394042969

> <r_mmod_Electrostatic_Energy-OPLS-2005>
-774.266662597656

> <r_mmod_Solvation_Energy-OPLS-2005>
-179.358001708984

> <b_mmod_Minimization_Converged-OPLS-2005>
0

> <r_mmod_RMS_Derivative-OPLS-2005>
9.14805889129639

$$$$
66
                    3D
 Structure written by MMmdl.
166174  0  0  1  0            999 V2000
  -30.6099  -14.6962   20.5318 C   0  0  0  0  0  0
  -30.4356  -12.4314   19.4716 C   0  0  0  0  0  0
  -29.5109  -12.5250   18.2314 C   0  0  0  0  0  0
  -28.0329  -12.3425   18.6208 C   0  0  0  0  0  0
  -27.6487  -13.2062   19.8542 C   0  0  2  0  0  0
  -28.6807  -13.0108   20.9772 C   0  0  0  0  0  0
  -25.2592  -13.8177   20.5676 C   0  0  0  0  0  0
  -24.1832  -13.0463   20.9176 C   0  0  0  0  0  0
  -24.6361  -11.6930   20.8743 C   0  0  0  0  0  0
  -23.9030  -10.4305   21.0374 C   0  0  0  0  0  0
  -24.3610   -9.4254   21.9157 C   0  0  0  0  0  0
  -23.6297   -8.2285   22.0760 C   0  0  0  0  0  0
  -22.4267   -8.0299   21.3576 C   0  0  0  0  0  0
  -21.9888   -9.0257   20.4675 C   0  0  0  0  0  0
  -22.7196  -10.2157   20.3050 C   0  0  0  0  0  0
  -21.6890   -6.0705   22.5249 C   0  0  0  0  0  0
  -21.4019   -6.5589   23.8188 C   0  0  0  0  0  0
  -21.3666   -5.6746   24.9140 C   0  0  0  0  0  0
  -21.6059   -4.3007   24.7193 C   0  0  0  0  0  0
  -21.8832   -3.8114   23.4312 C   0  0  0  0  0  0
  -21.9226   -4.6937   22.3372 C   0  0  0  0  0  0
  -22.7886  -13.5354   21.1779 C   0  0  0  0  0  0
  -22.1701   -4.2129   21.0955 F   0  0  0  0  0  0
  -21.5650   -3.4499   25.7704 F   0  0  0  0  0  0
  -29.9838  -13.4548   20.4564 N   0  0  0  0  0  0
  -26.2939  -12.9297   20.3203 N   0  0  0  0  0  0
  -25.9256  -11.6472   20.5661 N   0  0  0  0  0  0
  -22.0463  -12.8402   22.0358 N   0  0  0  0  0  0
  -25.4366  -15.1847   20.4040 N   0  0  0  0  0  0
  -31.7453  -14.7752   20.0516 O   0  0  0  0  0  0
  -21.6680   -6.8862   21.4234 O   0  0  0  0  0  0
  -22.3581  -14.5589   20.6503 O   0  0  0  0  0  0
  -24.6265  -31.8553   23.1943 C   0  0  0  0  0  0
  -25.9110  -32.4739   23.8288 C   0  0  1  0  0  0
  -27.2488  -27.2987   20.1234 C   0  0  0  0  0  0
  -25.5946  -33.8548   24.2205 N   0  0  0  0  0  0
  -23.4246  -30.4701   21.5358 C   0  0  2  0  0  0
  -24.8783  -28.9099   20.1229 C   0  0  0  0  0  0
  -22.7470  -29.4581   22.4915 C   0  0  0  0  0  0
  -18.0279  -28.1366   22.8483 C   0  0  0  0  0  0
  -24.1513  -36.7277   23.2635 C   0  0  0  0  0  0
  -25.9635  -30.7824   21.3664 C   0  0  0  0  0  0
  -26.0460  -29.4011   20.7169 C   0  0  0  0  0  0
  -27.2325  -28.6056   20.7078 C   0  0  0  0  0  0
  -26.0612  -26.8586   19.5077 C   0  0  0  0  0  0
  -24.8878  -27.6442   19.5078 C   0  0  0  0  0  0
  -23.6406  -29.7842   20.1611 C   0  0  0  0  0  0
  -25.4129  -36.3044   24.0303 C   0  0  1  0  0  0
  -20.5881  -28.3663   23.1322 C   0  0  2  0  0  0
  -20.6749  -26.9387   22.5440 C   0  0  0  0  0  0
  -19.5727  -26.6361   21.5245 C   0  0  0  0  0  0
  -18.1900  -26.7919   22.1624 C   0  0  0  0  0  0
  -19.1536  -28.8821   23.2890 C   0  0  0  0  0  0
  -18.9443  -30.1437   23.8900 C   0  0  0  0  0  0
  -17.6439  -30.6572   24.0540 C   0  0  0  0  0  0
  -25.9063  -34.9421   23.5037 C   0  0  0  0  0  0
  -16.5324  -29.9053   23.6353 C   0  0  0  0  0  0
  -16.7263  -28.6472   23.0357 C   0  0  0  0  0  0
  -26.4498  -31.6563   25.0665 C   0  0  0  0  0  0
  -25.3741  -31.3726   26.1393 C   0  0  0  0  0  0
  -27.0283  -30.2949   24.6142 C   0  0  0  0  0  0
  -27.6018  -32.4341   25.7447 C   0  0  0  0  0  0
  -27.5569  -37.1782   24.8448 C   0  0  0  0  0  0
  -21.4164  -29.3051   22.3709 N   0  0  0  0  0  0
  -26.4276  -37.3764   23.9396 N   0  0  0  0  0  0
  -24.6904  -31.0517   22.0899 N   0  0  0  0  0  0
  -23.4210  -28.8150   23.2997 O   0  0  0  0  0  0
  -28.3770  -26.4532   20.0880 O   0  0  0  0  0  0
  -26.5645  -34.8899   22.4620 O   0  0  0  0  0  0
  -23.5433  -32.1328   23.7290 O   0  0  0  0  0  0
  -29.1243  -19.7205   20.8660 C   0  0  0  0  0  0
  -30.3796  -19.4042   19.1621 C   0  0  0  0  0  0
  -29.4981  -21.0016   20.3822 C   0  0  0  0  0  0
  -27.7886  -23.2504   18.9489 C   0  0  0  0  0  0
  -30.6863  -22.9038   21.5090 C   0  0  0  0  0  0
  -28.3065  -22.3737   22.1267 C   0  0  0  0  0  0
  -28.9229  -15.8985   22.1801 C   0  0  0  0  0  0
  -31.1777  -16.7947   21.8777 C   0  0  0  0  0  0
  -29.4965  -17.1607   19.9842 C   0  0  0  0  0  0
  -28.2887  -25.0947   20.6983 C   0  0  0  0  0  0
  -28.8148  -23.7236   19.9911 C   0  0  1  0  0  0
  -29.3052  -22.4833   20.9525 C   0  0  0  0  0  0
  -30.0191  -16.1068   21.1055 C   0  0  0  0  0  0
  -30.3399  -20.7370   19.2988 N   0  0  0  0  0  0
  -29.6837  -18.6820   20.0578 N   0  0  0  0  0  0
  -31.4784  -12.5611   19.1688 H   0  0  0  0  0  0
  -30.4053  -11.4272   19.8972 H   0  0  0  0  0  0
  -29.7947  -11.7807   17.4838 H   0  0  0  0  0  0
  -29.6418  -13.5010   17.7615 H   0  0  0  0  0  0
  -27.8852  -11.2849   18.8460 H   0  0  0  0  0  0
  -27.3800  -12.5658   17.7763 H   0  0  0  0  0  0
  -27.6790  -14.2495   19.5407 H   0  0  0  0  0  0
  -28.7189  -11.9517   21.2378 H   0  0  0  0  0  0
  -28.3471  -13.4678   21.8959 H   0  0  0  0  0  0
  -25.2761   -9.5777   22.4715 H   0  0  0  0  0  0
  -24.0070   -7.4674   22.7424 H   0  0  0  0  0  0
  -21.0859   -8.8724   19.8943 H   0  0  0  0  0  0
  -22.3617  -10.9686   19.6169 H   0  0  0  0  0  0
  -21.1967   -7.6095   23.9666 H   0  0  0  0  0  0
  -21.1508   -6.0478   25.9054 H   0  0  0  0  0  0
  -22.0613   -2.7579   23.2786 H   0  0  0  0  0  0
  -22.4091  -12.0187   22.4958 H   0  0  0  0  0  0
  -21.1007  -13.1414   22.2284 H   0  0  0  0  0  0
  -24.6818  -15.8493   20.5320 H   0  0  0  0  0  0
  -26.2913  -15.6208   20.0813 H   0  0  0  0  0  0
  -26.7145  -32.5380   23.1014 H   0  0  0  0  0  0
  -25.0098  -33.9693   25.0349 H   0  0  0  0  0  0
  -22.7189  -31.2854   21.3832 H   0  0  0  0  0  0
  -23.3759  -35.9617   23.3282 H   0  0  0  0  0  0
  -24.3628  -36.8936   22.2061 H   0  0  0  0  0  0
  -23.7275  -37.6463   23.6692 H   0  0  0  0  0  0
  -26.0937  -31.5445   20.5961 H   0  0  0  0  0  0
  -26.8443  -30.8371   21.9947 H   0  0  0  0  0  0
  -28.1297  -28.9913   21.1767 H   0  0  0  0  0  0
  -26.0405  -25.8926   19.0289 H   0  0  0  0  0  0
  -23.9907  -27.2614   19.0413 H   0  0  0  0  0  0
  -23.7411  -30.5482   19.3887 H   0  0  0  0  0  0
  -22.7656  -29.1948   19.8726 H   0  0  0  0  0  0
  -25.1328  -36.1843   25.0783 H   0  0  0  0  0  0
  -20.9954  -28.3200   24.1435 H   0  0  0  0  0  0
  -20.5661  -26.2245   23.3617 H   0  0  0  0  0  0
  -21.6605  -26.7377   22.1226 H   0  0  0  0  0  0
  -19.6882  -25.6281   21.1251 H   0  0  0  0  0  0
  -19.6691  -27.3162   20.6782 H   0  0  0  0  0  0
  -17.4194  -26.6713   21.4000 H   0  0  0  0  0  0
  -18.0237  -26.0041   22.8992 H   0  0  0  0  0  0
  -19.7909  -30.7259   24.2246 H   0  0  0  0  0  0
  -17.4979  -31.6254   24.5124 H   0  0  0  0  0  0
  -15.5323  -30.2928   23.7678 H   0  0  0  0  0  0
  -15.8664  -28.0775   22.7089 H   0  0  0  0  0  0
  -24.5967  -30.7003   25.7754 H   0  0  0  0  0  0
  -24.8887  -32.2902   26.4713 H   0  0  0  0  0  0
  -25.8098  -30.9009   27.0203 H   0  0  0  0  0  0
  -26.2808  -29.6739   24.1191 H   0  0  0  0  0  0
  -27.3939  -29.7181   25.4644 H   0  0  0  0  0  0
  -27.8716  -30.4158   23.9338 H   0  0  0  0  0  0
  -27.2573  -33.3664   26.1921 H   0  0  0  0  0  0
  -28.3872  -32.6875   25.0319 H   0  0  0  0  0  0
  -28.0616  -31.8546   26.5456 H   0  0  0  0  0  0
  -28.2552  -38.0111   24.7509 H   0  0  0  0  0  0
  -28.1097  -36.2640   24.6244 H   0  0  0  0  0  0
  -27.2300  -37.1378   25.8854 H   0  0  0  0  0  0
  -20.9307  -29.8811   21.6961 H   0  0  0  0  0  0
  -26.0132  -38.2800   24.1465 H   0  0  0  0  0  0
  -28.5152  -19.4699   21.7238 H   0  0  0  0  0  0
  -30.9205  -18.9315   18.3536 H   0  0  0  0  0  0
  -28.0862  -22.3028   18.5036 H   0  0  0  0  0  0
  -27.6885  -23.9733   18.1379 H   0  0  0  0  0  0
  -26.7994  -23.1290   19.3905 H   0  0  0  0  0  0
  -31.1184  -22.1349   22.1445 H   0  0  0  0  0  0
  -30.6515  -23.8310   22.0788 H   0  0  0  0  0  0
  -31.3945  -23.0615   20.6927 H   0  0  0  0  0  0
  -28.6416  -21.6497   22.8660 H   0  0  0  0  0  0
  -27.3245  -22.0598   21.7698 H   0  0  0  0  0  0
  -28.1736  -23.3070   22.6735 H   0  0  0  0  0  0
  -28.7981  -16.7719   22.8258 H   0  0  0  0  0  0
  -29.2000  -15.0885   22.8576 H   0  0  0  0  0  0
  -27.9432  -15.6906   21.7453 H   0  0  0  0  0  0
  -30.8323  -17.6831   22.4094 H   0  0  0  0  0  0
  -31.9850  -17.1165   21.2155 H   0  0  0  0  0  0
  -31.6015  -16.1283   22.6298 H   0  0  0  0  0  0
  -29.9216  -16.8509   19.0239 H   0  0  0  0  0  0
  -28.4331  -16.9897   19.8222 H   0  0  0  0  0  0
  -28.8550  -25.2136   21.6228 H   0  0  0  0  0  0
  -27.2658  -24.9237   21.0361 H   0  0  0  0  0  0
  -29.6870  -24.0023   19.3981 H   0  0  0  0  0  0
  1 25  1  0  0  0
  1 30  2  0  0  0
  1 83  1  0  0  0
  2  3  1  0  0  0
  2 25  1  0  0  0
  2 86  1  0  0  0
  2 87  1  0  0  0
  3  4  1  0  0  0
  3 88  1  0  0  0
  3 89  1  0  0  0
  4  5  1  0  0  0
  4 90  1  0  0  0
  4 91  1  0  0  0
  5  6  1  0  0  0
  5 26  1  0  0  0
  5 92  1  0  0  0
  6 25  1  0  0  0
  6 93  1  0  0  0
  6 94  1  0  0  0
  7  8  2  0  0  0
  7 26  1  0  0  0
  7 29  1  0  0  0
  8  9  1  0  0  0
  8 22  1  0  0  0
  9 10  1  0  0  0
  9 27  2  0  0  0
 10 11  2  0  0  0
 10 15  1  0  0  0
 11 12  1  0  0  0
 11 95  1  0  0  0
 12 13  2  0  0  0
 12 96  1  0  0  0
 13 14  1  0  0  0
 13 31  1  0  0  0
 14 15  2  0  0  0
 14 97  1  0  0  0
 15 98  1  0  0  0
 16 17  2  0  0  0
 16 21  1  0  0  0
 16 31  1  0  0  0
 17 18  1  0  0  0
 17 99  1  0  0  0
 18 19  2  0  0  0
 18100  1  0  0  0
 19 20  1  0  0  0
 19 24  1  0  0  0
 20 21  2  0  0  0
 20101  1  0  0  0
 21 23  1  0  0  0
 22 28  1  0  0  0
 22 32  2  0  0  0
 26 27  1  0  0  0
 28102  1  0  0  0
 28103  1  0  0  0
 29104  1  0  0  0
 29105  1  0  0  0
 33 34  1  0  0  0
 33 66  1  0  0  0
 33 70  2  0  0  0
 34 36  1  0  0  0
 34 59  1  0  0  0
 34106  1  0  0  0
 35 44  2  0  0  0
 35 45  1  0  0  0
 35 68  1  0  0  0
 36 56  1  0  0  0
 36107  1  0  0  0
 37 39  1  0  0  0
 37 47  1  0  0  0
 37 66  1  0  0  0
 37108  1  0  0  0
 38 43  2  0  0  0
 38 46  1  0  0  0
 38 47  1  0  0  0
 39 64  1  0  0  0
 39 67  2  0  0  0
 40 52  1  0  0  0
 40 53  2  0  0  0
 40 58  1  0  0  0
 41109  1  0  0  0
 41110  1  0  0  0
 41111  1  0  0  0
 41 48  1  0  0  0
 42 43  1  0  0  0
 42 66  1  0  0  0
 42112  1  0  0  0
 42113  1  0  0  0
 43 44  1  0  0  0
 44114  1  0  0  0
 45 46  2  0  0  0
 45115  1  0  0  0
 46116  1  0  0  0
 47117  1  0  0  0
 47118  1  0  0  0
 48 56  1  0  0  0
 48 65  1  0  0  0
 48119  1  0  0  0
 49 50  1  0  0  0
 49 53  1  0  0  0
 49 64  1  0  0  0
 49120  1  0  0  0
 50 51  1  0  0  0
 50121  1  0  0  0
 50122  1  0  0  0
 51 52  1  0  0  0
 51123  1  0  0  0
 51124  1  0  0  0
 52125  1  0  0  0
 52126  1  0  0  0
 53 54  1  0  0  0
 54 55  2  0  0  0
 54127  1  0  0  0
 55 57  1  0  0  0
 55128  1  0  0  0
 56 69  2  0  0  0
 57 58  2  0  0  0
 57129  1  0  0  0
 58130  1  0  0  0
 59 60  1  0  0  0
 59 61  1  0  0  0
 59 62  1  0  0  0
 60131  1  0  0  0
 60132  1  0  0  0
 60133  1  0  0  0
 61134  1  0  0  0
 61135  1  0  0  0
 61136  1  0  0  0
 62137  1  0  0  0
 62138  1  0  0  0
 62139  1  0  0  0
 63 65  1  0  0  0
 63140  1  0  0  0
 63141  1  0  0  0
 63142  1  0  0  0
 64143  1  0  0  0
 65144  1  0  0  0
 68 80  1  0  0  0
 71 73  2  0  0  0
 71 85  1  0  0  0
 71145  1  0  0  0
 72 84  2  0  0  0
 72 85  1  0  0  0
 72146  1  0  0  0
 73 82  1  0  0  0
 73 84  1  0  0  0
 74147  1  0  0  0
 74148  1  0  0  0
 74149  1  0  0  0
 74 81  1  0  0  0
 75150  1  0  0  0
 75151  1  0  0  0
 75152  1  0  0  0
 75 82  1  0  0  0
 76 82  1  0  0  0
 76153  1  0  0  0
 76154  1  0  0  0
 76155  1  0  0  0
 77156  1  0  0  0
 77157  1  0  0  0
 77158  1  0  0  0
 77 83  1  0  0  0
 78 83  1  0  0  0
 78159  1  0  0  0
 78160  1  0  0  0
 78161  1  0  0  0
 79 83  1  0  0  0
 79 85  1  0  0  0
 79162  1  0  0  0
 79163  1  0  0  0
 80 81  1  0  0  0
 80164  1  0  0  0
 80165  1  0  0  0
 81 82  1  0  0  0
 81166  1  0  0  0
M  ISO  4   1 100  68 101  80 101  83 100
M  END
> <chiral flag>
0

> <version>
0

> <s_m_source_file>
/data/baiqing/PycharmProjects/Reinvent-master-3.2/result/LINK_invent/BTK/process_docking_weight1_custom_sum_contain_oxygen_bond_distance_aromatic_linkinvent_7_9_3/rearranged_h_0067.sdf

> <i_m_source_file_index>
64

> <r_mmod_Potential_Energy-OPLS-2005>
230.413192749023

> <r_mmod_Stretch_Energy-OPLS-2005>
143.568969726562

> <r_mmod_Bend_Energy-OPLS-2005>
222.059371948242

> <r_mmod_Torsional_Energy-OPLS-2005>
225.299057006836

> <r_mmod_Improper_Torsional_Energy-OPLS-2005>
3.778639793396

> <r_mmod_Van_der_Waal_Energy-OPLS-2005>
125.143096923828

> <r_mmod_Electrostatic_Energy-OPLS-2005>
-347.815399169922

> <r_mmod_Solvation_Energy-OPLS-2005>
-196.895782470703

> <b_mmod_Minimization_Converged-OPLS-2005>
0

> <r_mmod_RMS_Derivative-OPLS-2005>
8.107741355896

$$$$
67
                    3D
 Structure written by MMmdl.
169177  0  0  1  0            999 V2000
  -30.7102  -14.4509   20.6021 C   0  0  0  0  0  0
  -30.4302  -12.2970   19.4387 C   0  0  0  0  0  0
  -29.5110  -12.5122   18.2189 C   0  0  0  0  0  0
  -28.0295  -12.3718   18.6230 C   0  0  0  0  0  0
  -27.6701  -13.2059   19.8821 C   0  0  2  0  0  0
  -28.7056  -12.9751   21.0076 C   0  0  0  0  0  0
  -25.2612  -13.8163   20.5665 C   0  0  0  0  0  0
  -24.1844  -13.0435   20.9116 C   0  0  0  0  0  0
  -24.6395  -11.6892   20.8679 C   0  0  0  0  0  0
  -23.9066  -10.4269   21.0363 C   0  0  0  0  0  0
  -24.3608   -9.4189   21.9145 C   0  0  0  0  0  0
  -23.6264   -8.2244   22.0758 C   0  0  0  0  0  0
  -22.4242   -8.0281   21.3564 C   0  0  0  0  0  0
  -21.9876   -9.0249   20.4661 C   0  0  0  0  0  0
  -22.7230  -10.2112   20.3033 C   0  0  0  0  0  0
  -21.6857   -6.0709   22.5274 C   0  0  0  0  0  0
  -21.4020   -6.5617   23.8207 C   0  0  0  0  0  0
  -21.3654   -5.6783   24.9173 C   0  0  0  0  0  0
  -21.6039   -4.3046   24.7222 C   0  0  0  0  0  0
  -21.8820   -3.8126   23.4354 C   0  0  0  0  0  0
  -21.9180   -4.6935   22.3406 C   0  0  0  0  0  0
  -22.7867  -13.5250   21.1768 C   0  0  0  0  0  0
  -22.1655   -4.2127   21.0986 F   0  0  0  0  0  0
  -21.5618   -3.4531   25.7735 F   0  0  0  0  0  0
  -30.0452  -13.2736   20.4697 N   0  0  0  0  0  0
  -26.3061  -12.9330   20.3365 N   0  0  0  0  0  0
  -25.9332  -11.6486   20.5735 N   0  0  0  0  0  0
  -22.0520  -12.8274   22.0358 N   0  0  0  0  0  0
  -25.4329  -15.1885   20.4147 N   0  0  0  0  0  0
  -31.8046  -14.6703   20.0748 O   0  0  0  0  0  0
  -21.6639   -6.8855   21.4245 O   0  0  0  0  0  0
  -22.3533  -14.5534   20.6601 O   0  0  0  0  0  0
  -24.6150  -31.8678   23.2113 C   0  0  0  0  0  0
  -25.9050  -32.4818   23.8407 C   0  0  1  0  0  0
  -27.2258  -27.4308   20.0897 C   0  0  0  0  0  0
  -25.5893  -33.8621   24.2329 N   0  0  0  0  0  0
  -23.4008  -30.4944   21.5503 C   0  0  2  0  0  0
  -24.8428  -28.9569   20.1210 C   0  0  0  0  0  0
  -22.7398  -29.4674   22.4980 C   0  0  0  0  0  0
  -18.0263  -28.1369   22.8510 C   0  0  0  0  0  0
  -24.1474  -36.7321   23.2637 C   0  0  0  0  0  0
  -25.9312  -30.8285   21.3690 C   0  0  0  0  0  0
  -26.0048  -29.4634   20.7164 C   0  0  0  0  0  0
  -27.1985  -28.7052   20.7022 C   0  0  0  0  0  0
  -26.0472  -26.9518   19.4717 C   0  0  0  0  0  0
  -24.8566  -27.6980   19.5003 C   0  0  0  0  0  0
  -23.6095  -29.8272   20.1654 C   0  0  0  0  0  0
  -25.4094  -36.3116   24.0334 C   0  0  1  0  0  0
  -20.5854  -28.3666   23.1287 C   0  0  2  0  0  0
  -20.6739  -26.9400   22.5390 C   0  0  0  0  0  0
  -19.5724  -26.6378   21.5188 C   0  0  0  0  0  0
  -18.1905  -26.7912   22.1610 C   0  0  0  0  0  0
  -19.1521  -28.8825   23.2908 C   0  0  0  0  0  0
  -18.9458  -30.1429   23.8931 C   0  0  0  0  0  0
  -17.6463  -30.6586   24.0563 C   0  0  0  0  0  0
  -25.9032  -34.9480   23.5133 C   0  0  0  0  0  0
  -16.5356  -29.9103   23.6319 C   0  0  0  0  0  0
  -16.7254  -28.6495   23.0368 C   0  0  0  0  0  0
  -26.4487  -31.6618   25.0752 C   0  0  0  0  0  0
  -25.3750  -31.3754   26.1506 C   0  0  0  0  0  0
  -27.0341  -30.3052   24.6191 C   0  0  0  0  0  0
  -27.6074  -32.4337   25.7484 C   0  0  0  0  0  0
  -27.5582  -37.1811   24.8465 C   0  0  0  0  0  0
  -21.4129  -29.3053   22.3713 N   0  0  0  0  0  0
  -26.4288  -37.3794   23.9408 N   0  0  0  0  0  0
  -24.6660  -31.0774   22.1010 N   0  0  0  0  0  0
  -23.4166  -28.8187   23.3001 O   0  0  0  0  0  0
  -28.4088  -26.7187   20.0744 O   0  0  0  0  0  0
  -26.5597  -34.8934   22.4706 O   0  0  0  0  0  0
  -23.5349  -32.1433   23.7514 O   0  0  0  0  0  0
  -29.0135  -21.6792   21.1346 C   0  0  0  0  0  0
  -30.1155  -22.5197   20.8899 C   0  0  0  0  0  0
  -31.1708  -21.9279   20.1710 C   0  0  0  0  0  0
  -29.9687  -19.9696   19.9268 C   0  0  0  0  0  0
  -32.4792  -22.6422   19.8890 C   0  0  0  0  0  0
  -28.7870  -20.1684   17.0764 C   0  0  0  0  0  0
  -31.0398  -18.3173   18.2824 C   0  0  0  0  0  0
  -30.2047  -23.9564   21.4264 C   0  0  0  0  0  0
  -28.6300  -18.9485   18.0045 C   0  0  0  0  0  0
  -28.8944  -24.7775   21.4877 C   0  0  0  0  0  0
  -30.2558  -16.8797   21.0155 C   0  0  0  0  0  0
  -28.3578  -25.2812   20.1292 C   0  0  0  0  0  0
  -29.3395  -17.4042   19.8781 C   0  0  2  0  0  0
  -29.7452  -18.6912   19.0668 C   0  0  2  0  0  0
  -28.9449  -20.4250   20.6486 N   0  0  0  0  0  0
  -31.0759  -20.6752   19.6928 N   0  0  0  0  0  0
  -30.0283  -15.4364   21.2125 N   0  0  0  0  0  0
  -28.1068  -17.4961   20.3845 F   0  0  0  0  0  0
  -31.4794  -12.3832   19.1525 H   0  0  0  0  0  0
  -30.3208  -11.2839   19.8262 H   0  0  0  0  0  0
  -29.7552  -11.7949   17.4352 H   0  0  0  0  0  0
  -29.6878  -13.5011   17.7903 H   0  0  0  0  0  0
  -27.8409  -11.3166   18.8169 H   0  0  0  0  0  0
  -27.3854  -12.6483   17.7885 H   0  0  0  0  0  0
  -27.7211  -14.2566   19.5911 H   0  0  0  0  0  0
  -28.6727  -11.9374   21.3417 H   0  0  0  0  0  0
  -28.4628  -13.5672   21.8923 H   0  0  0  0  0  0
  -25.2764   -9.5655   22.4708 H   0  0  0  0  0  0
  -23.9961   -7.4640   22.7497 H   0  0  0  0  0  0
  -21.0791   -8.8759   19.8988 H   0  0  0  0  0  0
  -22.3676  -10.9629   19.6120 H   0  0  0  0  0  0
  -21.2045   -7.6134   23.9702 H   0  0  0  0  0  0
  -21.1472   -6.0520   25.9074 H   0  0  0  0  0  0
  -22.0600   -2.7591   23.2864 H   0  0  0  0  0  0
  -22.4141  -11.9941   22.4767 H   0  0  0  0  0  0
  -21.1149  -13.1307   22.2579 H   0  0  0  0  0  0
  -24.6665  -15.8418   20.5341 H   0  0  0  0  0  0
  -26.3011  -15.6409   20.1553 H   0  0  0  0  0  0
  -26.7102  -32.5510   23.1139 H   0  0  0  0  0  0
  -25.0036  -33.9789   25.0471 H   0  0  0  0  0  0
  -22.6928  -31.3127   21.4098 H   0  0  0  0  0  0
  -23.3735  -35.9657   23.3317 H   0  0  0  0  0  0
  -24.3572  -36.8944   22.2054 H   0  0  0  0  0  0
  -23.7248  -37.6535   23.6653 H   0  0  0  0  0  0
  -26.0528  -31.5925   20.6015 H   0  0  0  0  0  0
  -26.8114  -30.8761   21.9981 H   0  0  0  0  0  0
  -28.0953  -29.0908   21.1672 H   0  0  0  0  0  0
  -26.0276  -26.0169   18.9330 H   0  0  0  0  0  0
  -23.9657  -27.3060   19.0271 H   0  0  0  0  0  0
  -23.7312  -30.5985   19.4049 H   0  0  0  0  0  0
  -22.7299  -29.2544   19.8656 H   0  0  0  0  0  0
  -25.1275  -36.1976   25.0822 H   0  0  0  0  0  0
  -20.9971  -28.3233   24.1393 H   0  0  0  0  0  0
  -20.5576  -26.2310   23.3588 H   0  0  0  0  0  0
  -21.6618  -26.7394   22.1232 H   0  0  0  0  0  0
  -19.6888  -25.6288   21.1218 H   0  0  0  0  0  0
  -19.6645  -27.3181   20.6702 H   0  0  0  0  0  0
  -17.4158  -26.6675   21.4016 H   0  0  0  0  0  0
  -18.0334  -26.0037   22.8982 H   0  0  0  0  0  0
  -19.7950  -30.7230   24.2329 H   0  0  0  0  0  0
  -17.5027  -31.6266   24.5173 H   0  0  0  0  0  0
  -15.5359  -30.3011   23.7615 H   0  0  0  0  0  0
  -15.8654  -28.0801   22.7099 H   0  0  0  0  0  0
  -24.5859  -30.7179   25.7839 H   0  0  0  0  0  0
  -24.9002  -32.2928   26.4991 H   0  0  0  0  0  0
  -25.8071  -30.8870   27.0247 H   0  0  0  0  0  0
  -26.2925  -29.6765   24.1245 H   0  0  0  0  0  0
  -27.4106  -29.7354   25.4701 H   0  0  0  0  0  0
  -27.8754  -30.4363   23.9380 H   0  0  0  0  0  0
  -27.2710  -33.3609   26.2111 H   0  0  0  0  0  0
  -28.3827  -32.6934   25.0273 H   0  0  0  0  0  0
  -28.0806  -31.8448   26.5351 H   0  0  0  0  0  0
  -28.2597  -38.0104   24.7510 H   0  0  0  0  0  0
  -28.1074  -36.2646   24.6269 H   0  0  0  0  0  0
  -27.2317  -37.1464   25.8872 H   0  0  0  0  0  0
  -20.9278  -29.8851   21.7010 H   0  0  0  0  0  0
  -26.0187  -38.2875   24.1403 H   0  0  0  0  0  0
  -28.1645  -22.0091   21.7147 H   0  0  0  0  0  0
  -32.8618  -23.1242   20.7879 H   0  0  0  0  0  0
  -32.3438  -23.4008   19.1189 H   0  0  0  0  0  0
  -33.2440  -21.9456   19.5462 H   0  0  0  0  0  0
  -27.9002  -20.2862   16.4528 H   0  0  0  0  0  0
  -29.6364  -20.0687   16.4035 H   0  0  0  0  0  0
  -28.9091  -21.0954   17.6395 H   0  0  0  0  0  0
  -31.3465  -19.1074   17.5974 H   0  0  0  0  0  0
  -30.9121  -17.4133   17.6871 H   0  0  0  0  0  0
  -31.8884  -18.1434   18.9433 H   0  0  0  0  0  0
  -30.9218  -24.5305   20.8411 H   0  0  0  0  0  0
  -30.6245  -23.8961   22.4311 H   0  0  0  0  0  0
  -28.5042  -18.0598   17.3856 H   0  0  0  0  0  0
  -27.6818  -19.0709   18.5305 H   0  0  0  0  0  0
  -29.0909  -25.6490   22.1128 H   0  0  0  0  0  0
  -28.1174  -24.2364   22.0273 H   0  0  0  0  0  0
  -30.0399  -17.4081   21.9459 H   0  0  0  0  0  0
  -31.3076  -17.0700   20.8055 H   0  0  0  0  0  0
  -27.3680  -24.8467   20.0004 H   0  0  0  0  0  0
  -28.9515  -24.8880   19.3042 H   0  0  0  0  0  0
  -29.2388  -16.6093   19.1398 H   0  0  0  0  0  0
  -29.1562  -15.1712   21.6484 H   0  0  0  0  0  0
  1 25  1  0  0  0
  1 30  2  0  0  0
  1 87  1  0  0  0
  2  3  1  0  0  0
  2 25  1  0  0  0
  2 89  1  0  0  0
  2 90  1  0  0  0
  3  4  1  0  0  0
  3 91  1  0  0  0
  3 92  1  0  0  0
  4  5  1  0  0  0
  4 93  1  0  0  0
  4 94  1  0  0  0
  5  6  1  0  0  0
  5 26  1  0  0  0
  5 95  1  0  0  0
  6 25  1  0  0  0
  6 96  1  0  0  0
  6 97  1  0  0  0
  7  8  2  0  0  0
  7 26  1  0  0  0
  7 29  1  0  0  0
  8  9  1  0  0  0
  8 22  1  0  0  0
  9 10  1  0  0  0
  9 27  2  0  0  0
 10 11  2  0  0  0
 10 15  1  0  0  0
 11 12  1  0  0  0
 11 98  1  0  0  0
 12 13  2  0  0  0
 12 99  1  0  0  0
 13 14  1  0  0  0
 13 31  1  0  0  0
 14 15  2  0  0  0
 14100  1  0  0  0
 15101  1  0  0  0
 16 17  2  0  0  0
 16 21  1  0  0  0
 16 31  1  0  0  0
 17 18  1  0  0  0
 17102  1  0  0  0
 18 19  2  0  0  0
 18103  1  0  0  0
 19 20  1  0  0  0
 19 24  1  0  0  0
 20 21  2  0  0  0
 20104  1  0  0  0
 21 23  1  0  0  0
 22 28  1  0  0  0
 22 32  2  0  0  0
 26 27  1  0  0  0
 28105  1  0  0  0
 28106  1  0  0  0
 29107  1  0  0  0
 29108  1  0  0  0
 33 34  1  0  0  0
 33 66  1  0  0  0
 33 70  2  0  0  0
 34 36  1  0  0  0
 34 59  1  0  0  0
 34109  1  0  0  0
 35 44  2  0  0  0
 35 45  1  0  0  0
 35 68  1  0  0  0
 36 56  1  0  0  0
 36110  1  0  0  0
 37 39  1  0  0  0
 37 47  1  0  0  0
 37 66  1  0  0  0
 37111  1  0  0  0
 38 43  2  0  0  0
 38 46  1  0  0  0
 38 47  1  0  0  0
 39 64  1  0  0  0
 39 67  2  0  0  0
 40 52  1  0  0  0
 40 53  2  0  0  0
 40 58  1  0  0  0
 41112  1  0  0  0
 41113  1  0  0  0
 41114  1  0  0  0
 41 48  1  0  0  0
 42 43  1  0  0  0
 42 66  1  0  0  0
 42115  1  0  0  0
 42116  1  0  0  0
 43 44  1  0  0  0
 44117  1  0  0  0
 45 46  2  0  0  0
 45118  1  0  0  0
 46119  1  0  0  0
 47120  1  0  0  0
 47121  1  0  0  0
 48 56  1  0  0  0
 48 65  1  0  0  0
 48122  1  0  0  0
 49 50  1  0  0  0
 49 53  1  0  0  0
 49 64  1  0  0  0
 49123  1  0  0  0
 50 51  1  0  0  0
 50124  1  0  0  0
 50125  1  0  0  0
 51 52  1  0  0  0
 51126  1  0  0  0
 51127  1  0  0  0
 52128  1  0  0  0
 52129  1  0  0  0
 53 54  1  0  0  0
 54 55  2  0  0  0
 54130  1  0  0  0
 55 57  1  0  0  0
 55131  1  0  0  0
 56 69  2  0  0  0
 57 58  2  0  0  0
 57132  1  0  0  0
 58133  1  0  0  0
 59 60  1  0  0  0
 59 61  1  0  0  0
 59 62  1  0  0  0
 60134  1  0  0  0
 60135  1  0  0  0
 60136  1  0  0  0
 61137  1  0  0  0
 61138  1  0  0  0
 61139  1  0  0  0
 62140  1  0  0  0
 62141  1  0  0  0
 62142  1  0  0  0
 63 65  1  0  0  0
 63143  1  0  0  0
 63144  1  0  0  0
 63145  1  0  0  0
 64146  1  0  0  0
 65147  1  0  0  0
 68 82  1  0  0  0
 71 72  2  0  0  0
 71 85  1  0  0  0
 71148  1  0  0  0
 72 73  1  0  0  0
 72 78  1  0  0  0
 73 75  1  0  0  0
 73 86  2  0  0  0
 74 84  1  0  0  0
 74 85  2  0  0  0
 74 86  1  0  0  0
 75149  1  0  0  0
 75150  1  0  0  0
 75151  1  0  0  0
 76 79  1  0  0  0
 76152  1  0  0  0
 76153  1  0  0  0
 76154  1  0  0  0
 77155  1  0  0  0
 77156  1  0  0  0
 77157  1  0  0  0
 77 84  1  0  0  0
 78 80  1  0  0  0
 78158  1  0  0  0
 78159  1  0  0  0
 79 84  1  0  0  0
 79160  1  0  0  0
 79161  1  0  0  0
 80 82  1  0  0  0
 80162  1  0  0  0
 80163  1  0  0  0
 81 83  1  0  0  0
 81 87  1  0  0  0
 81164  1  0  0  0
 81165  1  0  0  0
 82166  1  0  0  0
 82167  1  0  0  0
 83 84  1  0  0  0
 83 88  1  0  0  0
 83168  1  0  0  0
 87169  1  0  0  0
M  ISO  4   1 100  68 101  82 101  87 100
M  END
> <chiral flag>
0

> <version>
0

> <s_m_source_file>
/data/baiqing/PycharmProjects/Reinvent-master-3.2/result/LINK_invent/BTK/process_docking_weight1_custom_sum_contain_oxygen_bond_distance_aromatic_linkinvent_7_9_3/rearranged_h_0067.sdf

> <i_m_source_file_index>
65

> <r_mmod_Potential_Energy-OPLS-2005>
-367.732116699219

> <r_mmod_Stretch_Energy-OPLS-2005>
42.6407852172852

> <r_mmod_Bend_Energy-OPLS-2005>
123.347099304199

> <r_mmod_Torsional_Energy-OPLS-2005>
230.891677856445

> <r_mmod_Improper_Torsional_Energy-OPLS-2005>
6.11525344848633

> <r_mmod_Van_der_Waal_Energy-OPLS-2005>
168.977081298828

> <r_mmod_Electrostatic_Energy-OPLS-2005>
-735.333679199219

> <r_mmod_Solvation_Energy-OPLS-2005>
-215.361846923828

> <b_mmod_Minimization_Converged-OPLS-2005>
0

> <r_mmod_RMS_Derivative-OPLS-2005>
3.59463119506836

$$$$
68
                    3D
 Structure written by MMmdl.
185193  0  0  1  0            999 V2000
  -30.6128  -14.7278   20.6270 C   0  0  0  0  0  0
  -30.4513  -12.4854   19.4632 C   0  0  0  0  0  0
  -29.5050  -12.5573   18.2427 C   0  0  0  0  0  0
  -28.0218  -12.3721   18.6299 C   0  0  0  0  0  0
  -27.6537  -13.1893   19.8932 C   0  0  2  0  0  0
  -28.7121  -13.0059   21.0143 C   0  0  0  0  0  0
  -25.2558  -13.8030   20.5623 C   0  0  0  0  0  0
  -24.1781  -13.0248   20.9207 C   0  0  0  0  0  0
  -24.6401  -11.6798   20.8831 C   0  0  0  0  0  0
  -23.9051  -10.4183   21.0583 C   0  0  0  0  0  0
  -24.3606   -9.4043   21.9284 C   0  0  0  0  0  0
  -23.6194   -8.2100   22.0749 C   0  0  0  0  0  0
  -22.4171   -8.0186   21.3521 C   0  0  0  0  0  0
  -21.9925   -9.0222   20.4672 C   0  0  0  0  0  0
  -22.7303  -10.2076   20.3159 C   0  0  0  0  0  0
  -21.6734   -6.0715   22.5327 C   0  0  0  0  0  0
  -21.4000   -6.5664   23.8275 C   0  0  0  0  0  0
  -21.3696   -5.6824   24.9246 C   0  0  0  0  0  0
  -21.5996   -4.3076   24.7272 C   0  0  0  0  0  0
  -21.8758   -3.8131   23.4394 C   0  0  0  0  0  0
  -21.9131   -4.6930   22.3444 C   0  0  0  0  0  0
  -22.7876  -13.5197   21.1885 C   0  0  0  0  0  0
  -22.1518   -4.2114   21.1003 F   0  0  0  0  0  0
  -21.5643   -3.4569   25.7802 F   0  0  0  0  0  0
  -29.9958  -13.4809   20.4743 N   0  0  0  0  0  0
  -26.2977  -12.9154   20.3513 N   0  0  0  0  0  0
  -25.9352  -11.6316   20.5960 N   0  0  0  0  0  0
  -22.0412  -12.8223   22.0476 N   0  0  0  0  0  0
  -25.4279  -15.1629   20.3854 N   0  0  0  0  0  0
  -31.7423  -14.8446   20.1379 O   0  0  0  0  0  0
  -21.6433   -6.8838   21.4268 O   0  0  0  0  0  0
  -22.3601  -14.5522   20.6859 O   0  0  0  0  0  0
  -24.6193  -31.8541   23.1734 C   0  0  0  0  0  0
  -25.9022  -32.4717   23.8149 C   0  0  1  0  0  0
  -27.3014  -27.2757   20.1951 C   0  0  0  0  0  0
  -25.5632  -33.8548   24.1982 N   0  0  0  0  0  0
  -23.4265  -30.4692   21.4989 C   0  0  2  0  0  0
  -24.9065  -28.8988   20.0632 C   0  0  0  0  0  0
  -22.7501  -29.4711   22.4654 C   0  0  0  0  0  0
  -18.0496  -28.1278   22.8369 C   0  0  0  0  0  0
  -24.1384  -36.7450   23.2634 C   0  0  0  0  0  0
  -25.9572  -30.7540   21.3668 C   0  0  0  0  0  0
  -26.0384  -29.3720   20.7273 C   0  0  0  0  0  0
  -27.2098  -28.5727   20.7931 C   0  0  0  0  0  0
  -26.1714  -26.8565   19.4531 C   0  0  0  0  0  0
  -24.9848  -27.6557   19.3876 C   0  0  0  0  0  0
  -23.6540  -29.7655   20.1203 C   0  0  0  0  0  0
  -25.3971  -36.3099   24.0272 C   0  0  1  0  0  0
  -20.6048  -28.3914   23.1383 C   0  0  2  0  0  0
  -20.6946  -26.9621   22.5637 C   0  0  0  0  0  0
  -19.6368  -26.7274   21.4823 C   0  0  0  0  0  0
  -18.2469  -26.8007   22.1214 C   0  0  0  0  0  0
  -19.1620  -28.8936   23.2830 C   0  0  0  0  0  0
  -18.9338  -30.1638   23.8532 C   0  0  0  0  0  0
  -17.6251  -30.6653   24.0095 C   0  0  0  0  0  0
  -25.9009  -34.9400   23.5005 C   0  0  0  0  0  0
  -16.5295  -29.8854   23.5924 C   0  0  0  0  0  0
  -16.7394  -28.6241   23.0124 C   0  0  0  0  0  0
  -26.4335  -31.6611   25.0581 C   0  0  0  0  0  0
  -25.3488  -31.3893   26.1257 C   0  0  0  0  0  0
  -27.0098  -30.2909   24.6369 C   0  0  0  0  0  0
  -27.5883  -32.4460   25.7252 C   0  0  0  0  0  0
  -27.5501  -37.1836   24.8368 C   0  0  0  0  0  0
  -21.4260  -29.3023   22.3416 N   0  0  0  0  0  0
  -26.4141  -37.3766   23.9438 N   0  0  0  0  0  0
  -24.6834  -31.0493   22.0711 N   0  0  0  0  0  0
  -23.4249  -28.8397   23.2896 O   0  0  0  0  0  0
  -28.4712  -26.5415   20.5092 O   0  0  0  0  0  0
  -26.5807  -34.8966   22.4740 O   0  0  0  0  0  0
  -23.5367  -32.1392   23.7070 O   0  0  0  0  0  0
  -32.6310  -18.6561   20.9827 C   0  0  0  0  0  0
  -31.6758  -19.5626   21.3357 C   0  0  0  0  0  0
  -30.6924  -17.5121   21.1455 C   0  0  0  0  0  0
  -32.0253  -20.9938   21.7141 C   0  0  0  0  0  0
  -26.5339  -18.5916   20.8279 C   0  0  0  0  0  0
  -28.4597  -16.1300   21.3065 C   0  0  0  0  0  0
  -30.2324  -15.7704   22.8924 C   0  0  0  0  0  0
  -27.0087  -22.4707   21.1280 C   0  0  0  0  0  0
  -27.6266  -21.7835   18.7521 C   0  0  0  0  0  0
  -28.4513  -19.6653   22.7193 C   0  0  0  0  0  0
  -29.9421  -24.8437   21.4648 C   0  0  0  0  0  0
  -30.1422  -25.7612   19.1436 C   0  0  0  0  0  0
  -27.9655  -18.9749   20.3079 C   0  0  0  0  0  0
  -29.2205  -21.2885   20.7111 C   0  0  0  0  0  0
  -28.5261  -23.8753   19.5741 C   0  0  0  0  0  0
  -29.9865  -16.0526   21.4005 C   0  0  0  0  0  0
  -28.1452  -22.3600   20.1025 C   0  0  0  0  0  0
  -29.0230  -19.7095   21.2421 C   0  0  1  0  0  0
  -29.1335  -25.2259   20.2025 C   0  0  0  0  0  0
  -30.4107  -18.9119   21.2162 N   0  0  0  0  0  0
  -32.0030  -17.4616   20.8603 N   0  3  0  0  0  0
  -31.4783  -12.6505   19.1212 H   0  0  0  0  0  0
  -30.4151  -11.4711   19.8708 H   0  0  0  0  0  0
  -29.7937  -11.8287   17.4874 H   0  0  0  0  0  0
  -29.6170  -13.5353   17.7798 H   0  0  0  0  0  0
  -27.8530  -11.3147   18.8209 H   0  0  0  0  0  0
  -27.3728  -12.6423   17.7899 H   0  0  0  0  0  0
  -27.6679  -14.2261   19.5821 H   0  0  0  0  0  0
  -28.7634  -11.9533   21.3023 H   0  0  0  0  0  0
  -28.4650  -13.4812   21.9556 H   0  0  0  0  0  0
  -25.2776   -9.5297   22.4886 H   0  0  0  0  0  0
  -23.9766   -7.4462   22.7494 H   0  0  0  0  0  0
  -21.0834   -8.8871   19.9010 H   0  0  0  0  0  0
  -22.3881  -10.9611   19.6256 H   0  0  0  0  0  0
  -21.1975   -7.6181   23.9795 H   0  0  0  0  0  0
  -21.1632   -6.0555   25.9167 H   0  0  0  0  0  0
  -22.0509   -2.7579   23.2914 H   0  0  0  0  0  0
  -22.3884  -11.9831   22.4805 H   0  0  0  0  0  0
  -21.1179  -13.1581   22.2937 H   0  0  0  0  0  0
  -24.7238  -15.8698   20.5559 H   0  0  0  0  0  0
  -26.3078  -15.5541   20.0729 H   0  0  0  0  0  0
  -26.7070  -32.5464   23.0884 H   0  0  0  0  0  0
  -24.9023  -33.9574   24.9566 H   0  0  0  0  0  0
  -22.7356  -31.2956   21.3302 H   0  0  0  0  0  0
  -23.3490  -35.9961   23.3227 H   0  0  0  0  0  0
  -24.3378  -36.9232   22.2064 H   0  0  0  0  0  0
  -23.7324  -37.6707   23.6746 H   0  0  0  0  0  0
  -26.1223  -31.5060   20.5936 H   0  0  0  0  0  0
  -26.8256  -30.8087   21.9995 H   0  0  0  0  0  0
  -28.0492  -28.9452   21.3691 H   0  0  0  0  0  0
  -26.1887  -25.9116   18.9354 H   0  0  0  0  0  0
  -24.1477  -27.2957   18.8085 H   0  0  0  0  0  0
  -23.7290  -30.5192   19.3360 H   0  0  0  0  0  0
  -22.7881  -29.1624   19.8462 H   0  0  0  0  0  0
  -25.1145  -36.1879   25.0746 H   0  0  0  0  0  0
  -21.0154  -28.3831   24.1533 H   0  0  0  0  0  0
  -20.5081  -26.2633   23.3850 H   0  0  0  0  0  0
  -21.6993  -26.7314   22.1998 H   0  0  0  0  0  0
  -19.7384  -27.5107   20.7317 H   0  0  0  0  0  0
  -19.8046  -25.7878   20.9524 H   0  0  0  0  0  0
  -17.4861  -26.6759   21.3498 H   0  0  0  0  0  0
  -18.1295  -25.9870   22.8373 H   0  0  0  0  0  0
  -19.7703  -30.7798   24.1556 H   0  0  0  0  0  0
  -17.4635  -31.6486   24.4258 H   0  0  0  0  0  0
  -15.5234  -30.2644   23.6878 H   0  0  0  0  0  0
  -15.8921  -28.0458   22.6664 H   0  0  0  0  0  0
  -24.5625  -30.7303   25.7561 H   0  0  0  0  0  0
  -24.8699  -32.3108   26.4569 H   0  0  0  0  0  0
  -25.7701  -30.9089   27.0079 H   0  0  0  0  0  0
  -26.2705  -29.6691   24.1343 H   0  0  0  0  0  0
  -27.3366  -29.7297   25.5141 H   0  0  0  0  0  0
  -27.8785  -30.3855   23.9881 H   0  0  0  0  0  0
  -27.2355  -33.3707   26.1811 H   0  0  0  0  0  0
  -28.3519  -32.7157   24.9957 H   0  0  0  0  0  0
  -28.0697  -31.8668   26.5131 H   0  0  0  0  0  0
  -28.2449  -38.0168   24.7306 H   0  0  0  0  0  0
  -28.1013  -36.2695   24.6135 H   0  0  0  0  0  0
  -27.2288  -37.1496   25.8782 H   0  0  0  0  0  0
  -20.9426  -29.8477   21.6375 H   0  0  0  0  0  0
  -25.9992  -38.2878   24.1388 H   0  0  0  0  0  0
  -33.7077  -18.7728   20.8334 H   0  0  0  0  0  0
  -33.0138  -21.0777   22.1788 H   0  0  0  0  0  0
  -31.3611  -21.4202   22.4653 H   0  0  0  0  0  0
  -32.1194  -21.6449   20.8460 H   0  0  0  0  0  0
  -25.9931  -18.0183   20.0762 H   0  0  0  0  0  0
  -25.9271  -19.4634   21.0981 H   0  0  0  0  0  0
  -26.4992  -17.9277   21.6844 H   0  0  0  0  0  0
  -27.8417  -15.3250   21.6705 H   0  0  0  0  0  0
  -28.2082  -16.9266   21.9852 H   0  0  0  0  0  0
  -28.0824  -16.3188   20.3136 H   0  0  0  0  0  0
  -29.7927  -14.8290   23.2333 H   0  0  0  0  0  0
  -31.2948  -15.7340   23.1041 H   0  0  0  0  0  0
  -29.8113  -16.5588   23.5166 H   0  0  0  0  0  0
  -26.3412  -21.6166   21.0663 H   0  0  0  0  0  0
  -26.4066  -23.3658   20.9903 H   0  0  0  0  0  0
  -27.4176  -22.4906   22.1384 H   0  0  0  0  0  0
  -26.5922  -21.4532   18.8195 H   0  0  0  0  0  0
  -28.2314  -20.9701   18.3517 H   0  0  0  0  0  0
  -27.6838  -22.4693   17.8993 H   0  0  0  0  0  0
  -27.4548  -20.1081   22.8037 H   0  0  0  0  0  0
  -29.0346  -20.2007   23.4695 H   0  0  0  0  0  0
  -28.3336  -18.6467   23.1060 H   0  0  0  0  0  0
  -30.8401  -24.2857   21.1817 H   0  0  0  0  0  0
  -29.3760  -24.2032   22.1434 H   0  0  0  0  0  0
  -30.2849  -25.7137   22.0243 H   0  0  0  0  0  0
  -30.9716  -25.0649   18.9771 H   0  0  0  0  0  0
  -30.5810  -26.7211   19.4117 H   0  0  0  0  0  0
  -29.6573  -25.9003   18.1792 H   0  0  0  0  0  0
  -27.7499  -19.4536   19.3798 H   0  0  0  0  0  0
  -28.4676  -18.1518   19.8426 H   0  0  0  0  0  0
  -29.5822  -21.8796   21.5495 H   0  0  0  0  0  0
  -30.0314  -21.2281   19.9918 H   0  0  0  0  0  0
  -27.6661  -24.2620   19.0335 H   0  0  0  0  0  0
  -29.2620  -23.6266   18.8036 H   0  0  0  0  0  0
  -32.4543  -16.5932   20.5885 H   0  0  0  0  0  0
  1 25  1  0  0  0
  1 30  2  0  0  0
  1 86  1  0  0  0
  2  3  1  0  0  0
  2 25  1  0  0  0
  2 92  1  0  0  0
  2 93  1  0  0  0
  3  4  1  0  0  0
  3 94  1  0  0  0
  3 95  1  0  0  0
  4  5  1  0  0  0
  4 96  1  0  0  0
  4 97  1  0  0  0
  5  6  1  0  0  0
  5 26  1  0  0  0
  5 98  1  0  0  0
  6 25  1  0  0  0
  6 99  1  0  0  0
  6100  1  0  0  0
  7  8  2  0  0  0
  7 26  1  0  0  0
  7 29  1  0  0  0
  8  9  1  0  0  0
  8 22  1  0  0  0
  9 10  1  0  0  0
  9 27  2  0  0  0
 10 11  2  0  0  0
 10 15  1  0  0  0
 11 12  1  0  0  0
 11101  1  0  0  0
 12 13  2  0  0  0
 12102  1  0  0  0
 13 14  1  0  0  0
 13 31  1  0  0  0
 14 15  2  0  0  0
 14103  1  0  0  0
 15104  1  0  0  0
 16 17  2  0  0  0
 16 21  1  0  0  0
 16 31  1  0  0  0
 17 18  1  0  0  0
 17105  1  0  0  0
 18 19  2  0  0  0
 18106  1  0  0  0
 19 20  1  0  0  0
 19 24  1  0  0  0
 20 21  2  0  0  0
 20107  1  0  0  0
 21 23  1  0  0  0
 22 28  1  0  0  0
 22 32  2  0  0  0
 26 27  1  0  0  0
 28108  1  0  0  0
 28109  1  0  0  0
 29110  1  0  0  0
 29111  1  0  0  0
 33 34  1  0  0  0
 33 66  1  0  0  0
 33 70  2  0  0  0
 34 36  1  0  0  0
 34 59  1  0  0  0
 34112  1  0  0  0
 35 44  2  0  0  0
 35 45  1  0  0  0
 35 68  1  0  0  0
 36 56  1  0  0  0
 36113  1  0  0  0
 37 39  1  0  0  0
 37 47  1  0  0  0
 37 66  1  0  0  0
 37114  1  0  0  0
 38 43  2  0  0  0
 38 46  1  0  0  0
 38 47  1  0  0  0
 39 64  1  0  0  0
 39 67  2  0  0  0
 40 52  1  0  0  0
 40 53  2  0  0  0
 40 58  1  0  0  0
 41115  1  0  0  0
 41116  1  0  0  0
 41117  1  0  0  0
 41 48  1  0  0  0
 42 43  1  0  0  0
 42 66  1  0  0  0
 42118  1  0  0  0
 42119  1  0  0  0
 43 44  1  0  0  0
 44120  1  0  0  0
 45 46  2  0  0  0
 45121  1  0  0  0
 46122  1  0  0  0
 47123  1  0  0  0
 47124  1  0  0  0
 48 56  1  0  0  0
 48 65  1  0  0  0
 48125  1  0  0  0
 49 50  1  0  0  0
 49 53  1  0  0  0
 49 64  1  0  0  0
 49126  1  0  0  0
 50 51  1  0  0  0
 50127  1  0  0  0
 50128  1  0  0  0
 51 52  1  0  0  0
 51129  1  0  0  0
 51130  1  0  0  0
 52131  1  0  0  0
 52132  1  0  0  0
 53 54  1  0  0  0
 54 55  2  0  0  0
 54133  1  0  0  0
 55 57  1  0  0  0
 55134  1  0  0  0
 56 69  2  0  0  0
 57 58  2  0  0  0
 57135  1  0  0  0
 58136  1  0  0  0
 59 60  1  0  0  0
 59 61  1  0  0  0
 59 62  1  0  0  0
 60137  1  0  0  0
 60138  1  0  0  0
 60139  1  0  0  0
 61140  1  0  0  0
 61141  1  0  0  0
 61142  1  0  0  0
 62143  1  0  0  0
 62144  1  0  0  0
 62145  1  0  0  0
 63 65  1  0  0  0
 63146  1  0  0  0
 63147  1  0  0  0
 63148  1  0  0  0
 64149  1  0  0  0
 65150  1  0  0  0
 68 89  1  0  0  0
 71 72  2  0  0  0
 71 91  1  0  0  0
 71151  1  0  0  0
 72 74  1  0  0  0
 72 90  1  0  0  0
 73 86  1  0  0  0
 73 90  1  0  0  0
 73 91  2  0  0  0
 74152  1  0  0  0
 74153  1  0  0  0
 74154  1  0  0  0
 75 83  1  0  0  0
 75155  1  0  0  0
 75156  1  0  0  0
 75157  1  0  0  0
 76158  1  0  0  0
 76159  1  0  0  0
 76160  1  0  0  0
 76 86  1  0  0  0
 77 86  1  0  0  0
 77161  1  0  0  0
 77162  1  0  0  0
 77163  1  0  0  0
 78164  1  0  0  0
 78165  1  0  0  0
 78166  1  0  0  0
 78 87  1  0  0  0
 79 87  1  0  0  0
 79167  1  0  0  0
 79168  1  0  0  0
 79169  1  0  0  0
 80170  1  0  0  0
 80171  1  0  0  0
 80172  1  0  0  0
 80 88  1  0  0  0
 81173  1  0  0  0
 81174  1  0  0  0
 81175  1  0  0  0
 81 89  1  0  0  0
 82 89  1  0  0  0
 82176  1  0  0  0
 82177  1  0  0  0
 82178  1  0  0  0
 83 88  1  0  0  0
 83179  1  0  0  0
 83180  1  0  0  0
 84 87  1  0  0  0
 84 88  1  0  0  0
 84181  1  0  0  0
 84182  1  0  0  0
 85 87  1  0  0  0
 85 89  1  0  0  0
 85183  1  0  0  0
 85184  1  0  0  0
 88 90  1  0  0  0
 91185  1  0  0  0
M  CHG  1  91   1
M  ISO  4   1 100  68 101  86 100  89 101
M  END
> <chiral flag>
0

> <version>
0

> <s_m_source_file>
/data/baiqing/PycharmProjects/Reinvent-master-3.2/result/LINK_invent/BTK/process_docking_weight1_custom_sum_contain_oxygen_bond_distance_aromatic_linkinvent_7_9_3/rearranged_h_0067.sdf

> <i_m_source_file_index>
66

> <r_mmod_Potential_Energy-OPLS-2005>
830.9716796875

> <r_mmod_Stretch_Energy-OPLS-2005>
244.710327148438

> <r_mmod_Bend_Energy-OPLS-2005>
501.25146484375

> <r_mmod_Torsional_Energy-OPLS-2005>
334.540344238281

> <r_mmod_Improper_Torsional_Energy-OPLS-2005>
2.38679909706116

> <r_mmod_Van_der_Waal_Energy-OPLS-2005>
194.828018188477

> <r_mmod_Electrostatic_Energy-OPLS-2005>
-199.271667480469

> <r_mmod_Solvation_Energy-OPLS-2005>
-344.379486083984

> <b_mmod_Minimization_Converged-OPLS-2005>
0

> <r_mmod_RMS_Derivative-OPLS-2005>
19.948299407959

$$$$
69
                    3D
 Structure written by MMmdl.
160168  0  0  1  0            999 V2000
  -30.6705  -14.4822   20.5720 C   0  0  0  0  0  0
  -30.4336  -12.3232   19.3973 C   0  0  0  0  0  0
  -29.4934  -12.5202   18.1891 C   0  0  0  0  0  0
  -28.0156  -12.3721   18.6057 C   0  0  0  0  0  0
  -27.6648  -13.1971   19.8736 C   0  0  2  0  0  0
  -28.7083  -12.9576   20.9868 C   0  0  0  0  0  0
  -25.2647  -13.8154   20.5689 C   0  0  0  0  0  0
  -24.1882  -13.0462   20.9199 C   0  0  0  0  0  0
  -24.6406  -11.6919   20.8731 C   0  0  0  0  0  0
  -23.9059  -10.4322   21.0397 C   0  0  0  0  0  0
  -24.3622   -9.4243   21.9168 C   0  0  0  0  0  0
  -23.6320   -8.2271   22.0746 C   0  0  0  0  0  0
  -22.4289   -8.0313   21.3545 C   0  0  0  0  0  0
  -21.9912   -9.0277   20.4634 C   0  0  0  0  0  0
  -22.7237  -10.2156   20.3044 C   0  0  0  0  0  0
  -21.6866   -6.0764   22.5286 C   0  0  0  0  0  0
  -21.4022   -6.5663   23.8227 C   0  0  0  0  0  0
  -21.3650   -5.6800   24.9174 C   0  0  0  0  0  0
  -21.6041   -4.3065   24.7224 C   0  0  0  0  0  0
  -21.8825   -3.8176   23.4338 C   0  0  0  0  0  0
  -21.9208   -4.6996   22.3401 C   0  0  0  0  0  0
  -22.7897  -13.5273   21.1875 C   0  0  0  0  0  0
  -22.1678   -4.2193   21.0966 F   0  0  0  0  0  0
  -21.5619   -3.4537   25.7726 F   0  0  0  0  0  0
  -30.0359  -13.2853   20.4358 N   0  0  0  0  0  0
  -26.3053  -12.9291   20.3344 N   0  0  0  0  0  0
  -25.9324  -11.6466   20.5729 N   0  0  0  0  0  0
  -22.0519  -12.8247   22.0397 N   0  0  0  0  0  0
  -25.4437  -15.1864   20.4099 N   0  0  0  0  0  0
  -31.7934  -14.7078   20.1144 O   0  0  0  0  0  0
  -21.6666   -6.8899   21.4246 O   0  0  0  0  0  0
  -22.3579  -14.5577   20.6730 O   0  0  0  0  0  0
  -24.6141  -31.8684   23.2089 C   0  0  0  0  0  0
  -25.9023  -32.4830   23.8393 C   0  0  1  0  0  0
  -27.2385  -27.4339   20.0999 C   0  0  0  0  0  0
  -25.5876  -33.8623   24.2320 N   0  0  0  0  0  0
  -23.4042  -30.4889   21.5503 C   0  0  2  0  0  0
  -24.8545  -28.9544   20.1150 C   0  0  0  0  0  0
  -22.7419  -29.4641   22.4993 C   0  0  0  0  0  0
  -18.0269  -28.1371   22.8497 C   0  0  0  0  0  0
  -24.1482  -36.7316   23.2641 C   0  0  0  0  0  0
  -25.9331  -30.8320   21.3649 C   0  0  0  0  0  0
  -26.0145  -29.4665   20.7121 C   0  0  0  0  0  0
  -27.2122  -28.7129   20.7033 C   0  0  0  0  0  0
  -26.0668  -26.9378   19.4932 C   0  0  0  0  0  0
  -24.8759  -27.6888   19.5021 C   0  0  0  0  0  0
  -23.6146  -29.8195   20.1659 C   0  0  0  0  0  0
  -25.4107  -36.3115   24.0337 C   0  0  1  0  0  0
  -20.5860  -28.3649   23.1325 C   0  0  2  0  0  0
  -20.6760  -26.9385   22.5424 C   0  0  0  0  0  0
  -19.5737  -26.6378   21.5219 C   0  0  0  0  0  0
  -18.1913  -26.7922   22.1624 C   0  0  0  0  0  0
  -19.1521  -28.8828   23.2909 C   0  0  0  0  0  0
  -18.9449  -30.1438   23.8911 C   0  0  0  0  0  0
  -17.6455  -30.6582   24.0561 C   0  0  0  0  0  0
  -25.9034  -34.9480   23.5130 C   0  0  0  0  0  0
  -16.5343  -29.9082   23.6328 C   0  0  0  0  0  0
  -16.7263  -28.6497   23.0354 C   0  0  0  0  0  0
  -26.4454  -31.6610   25.0720 C   0  0  0  0  0  0
  -25.3720  -31.3724   26.1470 C   0  0  0  0  0  0
  -27.0288  -30.3054   24.6098 C   0  0  0  0  0  0
  -27.6033  -32.4332   25.7474 C   0  0  0  0  0  0
  -27.5580  -37.1813   24.8463 C   0  0  0  0  0  0
  -21.4145  -29.3015   22.3733 N   0  0  0  0  0  0
  -26.4295  -37.3799   23.9404 N   0  0  0  0  0  0
  -24.6686  -31.0770   22.1001 N   0  0  0  0  0  0
  -23.4184  -28.8180   23.3043 O   0  0  0  0  0  0
  -28.3681  -26.6448   20.1099 O   0  0  0  0  0  0
  -26.5609  -34.8934   22.4703 O   0  0  0  0  0  0
  -23.5332  -32.1422   23.7486 O   0  0  0  0  0  0
  -28.1724  -20.9387   20.5591 C   0  0  0  0  0  0
  -29.0339  -21.8934   19.9887 C   0  0  0  0  0  0
  -30.2479  -21.3805   19.4904 C   0  0  0  0  0  0
  -29.5997  -19.2215   20.0071 C   0  0  0  0  0  0
  -31.3199  -22.2716   18.8949 C   0  0  0  0  0  0
  -28.6246  -17.0956   19.0190 C   0  0  0  0  0  0
  -28.5951  -23.3680   19.8531 C   0  0  0  0  0  0
  -29.1861  -24.3644   20.8800 C   0  0  0  0  0  0
  -30.1282  -16.9160   21.1404 C   0  0  0  0  0  0
  -28.3297  -25.6384   21.1371 C   0  0  0  0  0  0
  -29.8035  -17.6866   19.8176 C   0  0  2  0  0  0
  -28.4624  -19.6224   20.5773 N   0  0  0  0  0  0
  -30.5111  -20.0569   19.4987 N   0  0  0  0  0  0
  -29.9065  -15.4518   21.1038 N   0  0  0  0  0  0
  -30.8591  -17.4862   19.0215 F   0  0  0  0  0  0
  -31.4742  -12.4534   19.0901 H   0  0  0  0  0  0
  -30.3594  -11.3034   19.7758 H   0  0  0  0  0  0
  -29.7302  -11.8026   17.4032 H   0  0  0  0  0  0
  -29.6540  -13.5084   17.7562 H   0  0  0  0  0  0
  -27.8267  -11.3137   18.7859 H   0  0  0  0  0  0
  -27.3637  -12.6609   17.7804 H   0  0  0  0  0  0
  -27.7087  -14.2468   19.5905 H   0  0  0  0  0  0
  -28.6921  -11.9128   21.3001 H   0  0  0  0  0  0
  -28.4667  -13.5280   21.8856 H   0  0  0  0  0  0
  -25.2766   -9.5755   22.4731 H   0  0  0  0  0  0
  -24.0071   -7.4655   22.7442 H   0  0  0  0  0  0
  -21.0864   -8.8772   19.8908 H   0  0  0  0  0  0
  -22.3696  -10.9696   19.6158 H   0  0  0  0  0  0
  -21.2010   -7.6170   23.9743 H   0  0  0  0  0  0
  -21.1453   -6.0522   25.9076 H   0  0  0  0  0  0
  -22.0608   -2.7652   23.2820 H   0  0  0  0  0  0
  -22.4134  -11.9907   22.4781 H   0  0  0  0  0  0
  -21.1107  -13.1232   22.2535 H   0  0  0  0  0  0
  -24.6871  -15.8511   20.5285 H   0  0  0  0  0  0
  -26.2961  -15.6124   20.0715 H   0  0  0  0  0  0
  -26.7093  -32.5550   23.1162 H   0  0  0  0  0  0
  -24.9995  -33.9786   25.0439 H   0  0  0  0  0  0
  -22.6921  -31.3042   21.4097 H   0  0  0  0  0  0
  -23.3747  -35.9648   23.3325 H   0  0  0  0  0  0
  -24.3567  -36.8915   22.2050 H   0  0  0  0  0  0
  -23.7235  -37.6525   23.6649 H   0  0  0  0  0  0
  -26.0451  -31.5981   20.5964 H   0  0  0  0  0  0
  -26.8201  -30.8877   21.9838 H   0  0  0  0  0  0
  -28.1072  -29.0995   21.1708 H   0  0  0  0  0  0
  -26.0769  -25.9632   19.0253 H   0  0  0  0  0  0
  -23.9845  -27.2869   19.0402 H   0  0  0  0  0  0
  -23.7208  -30.5937   19.4051 H   0  0  0  0  0  0
  -22.7405  -29.2363   19.8713 H   0  0  0  0  0  0
  -25.1292  -36.1986   25.0833 H   0  0  0  0  0  0
  -20.9949  -28.3214   24.1446 H   0  0  0  0  0  0
  -20.5657  -26.2259   23.3612 H   0  0  0  0  0  0
  -21.6633  -26.7427   22.1216 H   0  0  0  0  0  0
  -19.6898  -25.6291   21.1237 H   0  0  0  0  0  0
  -19.6684  -27.3203   20.6759 H   0  0  0  0  0  0
  -17.4192  -26.6682   21.4017 H   0  0  0  0  0  0
  -18.0301  -26.0053   22.9006 H   0  0  0  0  0  0
  -19.7926  -30.7249   24.2288 H   0  0  0  0  0  0
  -17.5009  -31.6266   24.5153 H   0  0  0  0  0  0
  -15.5343  -30.2991   23.7643 H   0  0  0  0  0  0
  -15.8660  -28.0819   22.7070 H   0  0  0  0  0  0
  -24.5852  -30.7128   25.7793 H   0  0  0  0  0  0
  -24.8956  -32.2892   26.4960 H   0  0  0  0  0  0
  -25.8050  -30.8835   27.0204 H   0  0  0  0  0  0
  -26.2836  -29.6820   24.1142 H   0  0  0  0  0  0
  -27.4054  -29.7284   25.4554 H   0  0  0  0  0  0
  -27.8672  -30.4379   23.9252 H   0  0  0  0  0  0
  -27.2646  -33.3608   26.2103 H   0  0  0  0  0  0
  -28.3806  -32.6942   25.0278 H   0  0  0  0  0  0
  -28.0749  -31.8434   26.5345 H   0  0  0  0  0  0
  -28.2618  -38.0092   24.7510 H   0  0  0  0  0  0
  -28.1061  -36.2632   24.6300 H   0  0  0  0  0  0
  -27.2300  -37.1476   25.8866 H   0  0  0  0  0  0
  -20.9311  -29.8733   21.6946 H   0  0  0  0  0  0
  -26.0194  -38.2882   24.1408 H   0  0  0  0  0  0
  -27.2133  -21.2292   20.9647 H   0  0  0  0  0  0
  -31.6915  -22.9684   19.6477 H   0  0  0  0  0  0
  -30.9286  -22.8442   18.0535 H   0  0  0  0  0  0
  -32.1678  -21.6851   18.5359 H   0  0  0  0  0  0
  -27.7048  -17.1268   19.6026 H   0  0  0  0  0  0
  -28.8104  -16.0646   18.7237 H   0  0  0  0  0  0
  -28.4583  -17.6702   18.1066 H   0  0  0  0  0  0
  -27.5077  -23.3960   19.9331 H   0  0  0  0  0  0
  -28.8106  -23.7220   18.8452 H   0  0  0  0  0  0
  -30.2085  -24.6361   20.6193 H   0  0  0  0  0  0
  -29.2507  -23.8477   21.8390 H   0  0  0  0  0  0
  -29.4774  -17.3011   21.9268 H   0  0  0  0  0  0
  -31.1445  -17.1460   21.4616 H   0  0  0  0  0  0
  -28.6884  -26.1145   22.0507 H   0  0  0  0  0  0
  -27.3063  -25.3267   21.3535 H   0  0  0  0  0  0
  -29.0123  -15.1399   21.4516 H   0  0  0  0  0  0
  1 25  1  0  0  0
  1 30  2  0  0  0
  1 84  1  0  0  0
  2  3  1  0  0  0
  2 25  1  0  0  0
  2 86  1  0  0  0
  2 87  1  0  0  0
  3  4  1  0  0  0
  3 88  1  0  0  0
  3 89  1  0  0  0
  4  5  1  0  0  0
  4 90  1  0  0  0
  4 91  1  0  0  0
  5  6  1  0  0  0
  5 26  1  0  0  0
  5 92  1  0  0  0
  6 25  1  0  0  0
  6 93  1  0  0  0
  6 94  1  0  0  0
  7  8  2  0  0  0
  7 26  1  0  0  0
  7 29  1  0  0  0
  8  9  1  0  0  0
  8 22  1  0  0  0
  9 10  1  0  0  0
  9 27  2  0  0  0
 10 11  2  0  0  0
 10 15  1  0  0  0
 11 12  1  0  0  0
 11 95  1  0  0  0
 12 13  2  0  0  0
 12 96  1  0  0  0
 13 14  1  0  0  0
 13 31  1  0  0  0
 14 15  2  0  0  0
 14 97  1  0  0  0
 15 98  1  0  0  0
 16 17  2  0  0  0
 16 21  1  0  0  0
 16 31  1  0  0  0
 17 18  1  0  0  0
 17 99  1  0  0  0
 18 19  2  0  0  0
 18100  1  0  0  0
 19 20  1  0  0  0
 19 24  1  0  0  0
 20 21  2  0  0  0
 20101  1  0  0  0
 21 23  1  0  0  0
 22 28  1  0  0  0
 22 32  2  0  0  0
 26 27  1  0  0  0
 28102  1  0  0  0
 28103  1  0  0  0
 29104  1  0  0  0
 29105  1  0  0  0
 33 34  1  0  0  0
 33 66  1  0  0  0
 33 70  2  0  0  0
 34 36  1  0  0  0
 34 59  1  0  0  0
 34106  1  0  0  0
 35 44  2  0  0  0
 35 45  1  0  0  0
 35 68  1  0  0  0
 36 56  1  0  0  0
 36107  1  0  0  0
 37 39  1  0  0  0
 37 47  1  0  0  0
 37 66  1  0  0  0
 37108  1  0  0  0
 38 43  2  0  0  0
 38 46  1  0  0  0
 38 47  1  0  0  0
 39 64  1  0  0  0
 39 67  2  0  0  0
 40 52  1  0  0  0
 40 53  2  0  0  0
 40 58  1  0  0  0
 41109  1  0  0  0
 41110  1  0  0  0
 41111  1  0  0  0
 41 48  1  0  0  0
 42 43  1  0  0  0
 42 66  1  0  0  0
 42112  1  0  0  0
 42113  1  0  0  0
 43 44  1  0  0  0
 44114  1  0  0  0
 45 46  2  0  0  0
 45115  1  0  0  0
 46116  1  0  0  0
 47117  1  0  0  0
 47118  1  0  0  0
 48 56  1  0  0  0
 48 65  1  0  0  0
 48119  1  0  0  0
 49 50  1  0  0  0
 49 53  1  0  0  0
 49 64  1  0  0  0
 49120  1  0  0  0
 50 51  1  0  0  0
 50121  1  0  0  0
 50122  1  0  0  0
 51 52  1  0  0  0
 51123  1  0  0  0
 51124  1  0  0  0
 52125  1  0  0  0
 52126  1  0  0  0
 53 54  1  0  0  0
 54 55  2  0  0  0
 54127  1  0  0  0
 55 57  1  0  0  0
 55128  1  0  0  0
 56 69  2  0  0  0
 57 58  2  0  0  0
 57129  1  0  0  0
 58130  1  0  0  0
 59 60  1  0  0  0
 59 61  1  0  0  0
 59 62  1  0  0  0
 60131  1  0  0  0
 60132  1  0  0  0
 60133  1  0  0  0
 61134  1  0  0  0
 61135  1  0  0  0
 61136  1  0  0  0
 62137  1  0  0  0
 62138  1  0  0  0
 62139  1  0  0  0
 63 65  1  0  0  0
 63140  1  0  0  0
 63141  1  0  0  0
 63142  1  0  0  0
 64143  1  0  0  0
 65144  1  0  0  0
 68 80  1  0  0  0
 71 72  2  0  0  0
 71 82  1  0  0  0
 71145  1  0  0  0
 72 73  1  0  0  0
 72 77  1  0  0  0
 73 75  1  0  0  0
 73 83  2  0  0  0
 74 81  1  0  0  0
 74 82  2  0  0  0
 74 83  1  0  0  0
 75146  1  0  0  0
 75147  1  0  0  0
 75148  1  0  0  0
 76149  1  0  0  0
 76150  1  0  0  0
 76151  1  0  0  0
 76 81  1  0  0  0
 77 78  1  0  0  0
 77152  1  0  0  0
 77153  1  0  0  0
 78 80  1  0  0  0
 78154  1  0  0  0
 78155  1  0  0  0
 79 81  1  0  0  0
 79 84  1  0  0  0
 79156  1  0  0  0
 79157  1  0  0  0
 80158  1  0  0  0
 80159  1  0  0  0
 81 85  1  0  0  0
 84160  1  0  0  0
M  ISO  4   1 100  68 101  80 101  84 100
M  END
> <chiral flag>
0

> <version>
0

> <s_m_source_file>
/data/baiqing/PycharmProjects/Reinvent-master-3.2/result/LINK_invent/BTK/process_docking_weight1_custom_sum_contain_oxygen_bond_distance_aromatic_linkinvent_7_9_3/rearranged_h_0067.sdf

> <i_m_source_file_index>
67

> <r_mmod_Potential_Energy-OPLS-2005>
-413.146179199219

> <r_mmod_Stretch_Energy-OPLS-2005>
41.3822441101074

> <r_mmod_Bend_Energy-OPLS-2005>
106.063613891602

> <r_mmod_Torsional_Energy-OPLS-2005>
223.667892456055

> <r_mmod_Improper_Torsional_Energy-OPLS-2005>
4.24508190155029

> <r_mmod_Van_der_Waal_Energy-OPLS-2005>
150.594192504883

> <r_mmod_Electrostatic_Energy-OPLS-2005>
-723.2666015625

> <r_mmod_Solvation_Energy-OPLS-2005>
-229.819732666016

> <b_mmod_Minimization_Converged-OPLS-2005>
0

> <r_mmod_RMS_Derivative-OPLS-2005>
2.40339231491089

$$$$
70
                    3D
 Structure written by MMmdl.
181189  0  0  1  0            999 V2000
  -30.7172  -14.4676   20.6206 C   0  0  0  0  0  0
  -30.4098  -12.3250   19.4214 C   0  0  0  0  0  0
  -29.4857  -12.5272   18.2004 C   0  0  0  0  0  0
  -28.0039  -12.3838   18.5999 C   0  0  0  0  0  0
  -27.6525  -13.2019   19.8691 C   0  0  2  0  0  0
  -28.6886  -12.9316   20.9784 C   0  0  0  0  0  0
  -25.2577  -13.8134   20.5705 C   0  0  0  0  0  0
  -24.1847  -13.0445   20.9177 C   0  0  0  0  0  0
  -24.6369  -11.6879   20.8731 C   0  0  0  0  0  0
  -23.9023  -10.4298   21.0403 C   0  0  0  0  0  0
  -24.3577   -9.4235   21.9192 C   0  0  0  0  0  0
  -23.6271   -8.2270   22.0785 C   0  0  0  0  0  0
  -22.4248   -8.0297   21.3584 C   0  0  0  0  0  0
  -21.9862   -9.0260   20.4676 C   0  0  0  0  0  0
  -22.7180  -10.2143   20.3071 C   0  0  0  0  0  0
  -21.6889   -6.0737   22.5290 C   0  0  0  0  0  0
  -21.4014   -6.5643   23.8213 C   0  0  0  0  0  0
  -21.3639   -5.6802   24.9181 C   0  0  0  0  0  0
  -21.6053   -4.3071   24.7237 C   0  0  0  0  0  0
  -21.8820   -3.8140   23.4359 C   0  0  0  0  0  0
  -21.9181   -4.6956   22.3408 C   0  0  0  0  0  0
  -22.7874  -13.5273   21.1793 C   0  0  0  0  0  0
  -22.1663   -4.2128   21.1002 F   0  0  0  0  0  0
  -21.5604   -3.4557   25.7754 F   0  0  0  0  0  0
  -30.0033  -13.3129   20.4441 N   0  0  0  0  0  0
  -26.2979  -12.9306   20.3289 N   0  0  0  0  0  0
  -25.9284  -11.6462   20.5711 N   0  0  0  0  0  0
  -22.0490  -12.8324   22.0359 N   0  0  0  0  0  0
  -25.4275  -15.1875   20.4148 N   0  0  0  0  0  0
  -31.8915  -14.5066   20.2327 O   0  0  0  0  0  0
  -21.6650   -6.8879   21.4258 O   0  0  0  0  0  0
  -22.3612  -14.5582   20.6564 O   0  0  0  0  0  0
  -24.6082  -31.8725   23.2109 C   0  0  0  0  0  0
  -25.9025  -32.4827   23.8396 C   0  0  1  0  0  0
  -27.2495  -27.4764   20.1092 C   0  0  0  0  0  0
  -25.5907  -33.8620   24.2332 N   0  0  0  0  0  0
  -23.3982  -30.4949   21.5463 C   0  0  2  0  0  0
  -24.8561  -28.9726   20.1091 C   0  0  0  0  0  0
  -22.7424  -29.4647   22.4935 C   0  0  0  0  0  0
  -18.0288  -28.1335   22.8437 C   0  0  0  0  0  0
  -24.1503  -36.7300   23.2634 C   0  0  0  0  0  0
  -25.9215  -30.8533   21.3638 C   0  0  0  0  0  0
  -26.0073  -29.4887   20.7187 C   0  0  0  0  0  0
  -27.2045  -28.7415   20.7324 C   0  0  0  0  0  0
  -26.0873  -26.9663   19.4978 C   0  0  0  0  0  0
  -24.8881  -27.7036   19.5022 C   0  0  0  0  0  0
  -23.6125  -29.8282   20.1587 C   0  0  0  0  0  0
  -25.4111  -36.3086   24.0343 C   0  0  1  0  0  0
  -20.5877  -28.3654   23.1295 C   0  0  2  0  0  0
  -20.6784  -26.9408   22.5445 C   0  0  0  0  0  0
  -19.5820  -26.6339   21.5196 C   0  0  0  0  0  0
  -18.1964  -26.7905   22.1560 C   0  0  0  0  0  0
  -19.1532  -28.8786   23.2871 C   0  0  0  0  0  0
  -18.9488  -30.1367   23.8941 C   0  0  0  0  0  0
  -17.6498  -30.6553   24.0506 C   0  0  0  0  0  0
  -25.9043  -34.9467   23.5130 C   0  0  0  0  0  0
  -16.5382  -29.9041   23.6296 C   0  0  0  0  0  0
  -16.7278  -28.6428   23.0366 C   0  0  0  0  0  0
  -26.4481  -31.6585   25.0698 C   0  0  0  0  0  0
  -25.3727  -31.3732   26.1430 C   0  0  0  0  0  0
  -27.0298  -30.3020   24.6058 C   0  0  0  0  0  0
  -27.6058  -32.4307   25.7455 C   0  0  0  0  0  0
  -27.5579  -37.1796   24.8448 C   0  0  0  0  0  0
  -21.4151  -29.3018   22.3700 N   0  0  0  0  0  0
  -26.4279  -37.3771   23.9421 N   0  0  0  0  0  0
  -24.6594  -31.0862   22.0993 N   0  0  0  0  0  0
  -23.4228  -28.8174   23.2952 O   0  0  0  0  0  0
  -28.4018  -26.7285   20.1075 O   0  0  0  0  0  0
  -26.5579  -34.8928   22.4678 O   0  0  0  0  0  0
  -23.5296  -32.1457   23.7529 O   0  0  0  0  0  0
  -27.7315  -18.0125   22.0758 C   0  0  0  0  0  0
  -28.7903  -17.2026   22.5508 C   0  0  0  0  0  0
  -29.4353  -18.9100   23.9797 C   0  0  0  0  0  0
  -28.4685  -19.7724   23.3828 C   0  0  0  0  0  0
  -30.3560  -19.3436   25.1115 C   0  0  0  0  0  0
  -29.6773  -17.7847   19.4751 C   0  0  0  0  0  0
  -31.6214  -17.6235   21.2092 C   0  0  0  0  0  0
  -29.5929  -24.1283   23.6466 C   0  0  0  0  0  0
  -27.1245  -24.0889   23.1393 C   0  0  0  0  0  0
  -27.8844  -23.9951   20.0796 C   0  0  0  0  0  0
  -30.2789  -24.2880   20.7335 C   0  0  0  0  0  0
  -28.3352  -21.2695   23.6865 C   0  0  0  0  0  0
  -29.0533  -15.8128   21.9584 C   0  0  0  0  0  0
  -28.6115  -22.1641   22.4359 C   0  0  0  0  0  0
  -28.6474  -26.0610   21.3521 C   0  0  0  0  0  0
  -30.6559  -16.8858   20.2563 C   0  0  0  0  0  0
  -28.5342  -23.7292   22.5892 C   0  0  0  0  0  0
  -28.8200  -24.5052   21.2125 C   0  0  0  0  0  0
  -27.5804  -19.2970   22.4744 N   0  0  0  0  0  0
  -29.5915  -17.6249   23.5619 N   0  0  0  0  0  0
  -30.0542  -15.6515   20.8594 N   0  0  0  0  0  0
  -31.4497  -12.4275   19.1084 H   0  0  0  0  0  0
  -30.3214  -11.3060   19.8075 H   0  0  0  0  0  0
  -29.7387  -11.8224   17.4088 H   0  0  0  0  0  0
  -29.6533  -13.5201   17.7828 H   0  0  0  0  0  0
  -27.8093  -11.3249   18.7741 H   0  0  0  0  0  0
  -27.3594  -12.6824   17.7699 H   0  0  0  0  0  0
  -27.7038  -14.2546   19.5864 H   0  0  0  0  0  0
  -28.6885  -11.8665   21.2161 H   0  0  0  0  0  0
  -28.4325  -13.3847   21.9288 H   0  0  0  0  0  0
  -25.2729   -9.5727   22.4753 H   0  0  0  0  0  0
  -24.0001   -7.4692   22.7521 H   0  0  0  0  0  0
  -21.0770   -8.8743   19.9024 H   0  0  0  0  0  0
  -22.3614  -10.9668   19.6168 H   0  0  0  0  0  0
  -21.2025   -7.6160   23.9720 H   0  0  0  0  0  0
  -21.1450   -6.0531   25.9088 H   0  0  0  0  0  0
  -22.0589   -2.7594   23.2866 H   0  0  0  0  0  0
  -22.4092  -11.9976   22.4757 H   0  0  0  0  0  0
  -21.1126  -13.1391   22.2564 H   0  0  0  0  0  0
  -24.6373  -15.8187   20.4918 H   0  0  0  0  0  0
  -26.2428  -15.6244   20.0049 H   0  0  0  0  0  0
  -26.7090  -32.5610   23.1176 H   0  0  0  0  0  0
  -25.0017  -33.9761   25.0444 H   0  0  0  0  0  0
  -22.6850  -31.3101   21.4089 H   0  0  0  0  0  0
  -23.3751  -35.9636   23.3271 H   0  0  0  0  0  0
  -24.3560  -36.8930   22.2039 H   0  0  0  0  0  0
  -23.7315  -37.6533   23.6658 H   0  0  0  0  0  0
  -26.0265  -31.6250   20.5991 H   0  0  0  0  0  0
  -26.8034  -30.9049   21.9876 H   0  0  0  0  0  0
  -28.0837  -29.1252   21.2305 H   0  0  0  0  0  0
  -26.1116  -25.9946   19.0293 H   0  0  0  0  0  0
  -24.0046  -27.2987   19.0323 H   0  0  0  0  0  0
  -23.7027  -30.6031   19.3944 H   0  0  0  0  0  0
  -22.7448  -29.2310   19.8737 H   0  0  0  0  0  0
  -25.1296  -36.1906   25.0829 H   0  0  0  0  0  0
  -21.0026  -28.3126   24.1394 H   0  0  0  0  0  0
  -20.5538  -26.2382   23.3677 H   0  0  0  0  0  0
  -21.6712  -26.7412   22.1410 H   0  0  0  0  0  0
  -19.7023  -25.6227   21.1294 H   0  0  0  0  0  0
  -19.6848  -27.3091   20.6703 H   0  0  0  0  0  0
  -17.4261  -26.6691   21.3926 H   0  0  0  0  0  0
  -18.0351  -26.0035   22.8913 H   0  0  0  0  0  0
  -19.7995  -30.7134   24.2340 H   0  0  0  0  0  0
  -17.5089  -31.6302   24.5007 H   0  0  0  0  0  0
  -15.5394  -30.2998   23.7532 H   0  0  0  0  0  0
  -15.8669  -28.0735   22.7119 H   0  0  0  0  0  0
  -24.5866  -30.7138   25.7753 H   0  0  0  0  0  0
  -24.8967  -32.2917   26.4873 H   0  0  0  0  0  0
  -25.8028  -30.8883   27.0189 H   0  0  0  0  0  0
  -26.2849  -29.6794   24.1091 H   0  0  0  0  0  0
  -27.4052  -29.7263   25.4525 H   0  0  0  0  0  0
  -27.8686  -30.4338   23.9211 H   0  0  0  0  0  0
  -27.2669  -33.3564   26.2119 H   0  0  0  0  0  0
  -28.3819  -32.6939   25.0257 H   0  0  0  0  0  0
  -28.0773  -31.8375   26.5298 H   0  0  0  0  0  0
  -28.2587  -38.0097   24.7478 H   0  0  0  0  0  0
  -28.1093  -36.2634   24.6278 H   0  0  0  0  0  0
  -27.2275  -37.1442   25.8840 H   0  0  0  0  0  0
  -20.9245  -29.8841   21.7064 H   0  0  0  0  0  0
  -26.0159  -38.2847   24.1413 H   0  0  0  0  0  0
  -27.0513  -17.6592   21.3142 H   0  0  0  0  0  0
  -31.2660  -19.8002   24.7216 H   0  0  0  0  0  0
  -30.6454  -18.4920   25.7314 H   0  0  0  0  0  0
  -29.8762  -20.0530   25.7857 H   0  0  0  0  0  0
  -30.2099  -18.3566   18.7133 H   0  0  0  0  0  0
  -29.1828  -18.5228   20.0975 H   0  0  0  0  0  0
  -28.9229  -17.1951   18.9552 H   0  0  0  0  0  0
  -32.5341  -17.9328   20.6947 H   0  0  0  0  0  0
  -31.9274  -16.9837   22.0395 H   0  0  0  0  0  0
  -31.1705  -18.5193   21.6333 H   0  0  0  0  0  0
  -29.2910  -23.8430   24.6543 H   0  0  0  0  0  0
  -29.7842  -25.1983   23.6711 H   0  0  0  0  0  0
  -30.5522  -23.6437   23.4472 H   0  0  0  0  0  0
  -26.8429  -23.4983   24.0063 H   0  0  0  0  0  0
  -26.3279  -23.9617   22.4065 H   0  0  0  0  0  0
  -27.0751  -25.1119   23.4997 H   0  0  0  0  0  0
  -28.0362  -24.5302   19.1416 H   0  0  0  0  0  0
  -26.8293  -24.1137   20.3257 H   0  0  0  0  0  0
  -28.0642  -22.9519   19.8296 H   0  0  0  0  0  0
  -30.4637  -24.7484   19.7619 H   0  0  0  0  0  0
  -30.5458  -23.2364   20.6363 H   0  0  0  0  0  0
  -30.9979  -24.7472   21.4128 H   0  0  0  0  0  0
  -28.9997  -21.5595   24.4968 H   0  0  0  0  0  0
  -27.3241  -21.4185   24.0626 H   0  0  0  0  0  0
  -28.0876  -15.4528   21.6068 H   0  0  0  0  0  0
  -29.3456  -15.1827   22.7965 H   0  0  0  0  0  0
  -27.8992  -21.8421   21.6803 H   0  0  0  0  0  0
  -29.5989  -21.8966   22.0663 H   0  0  0  0  0  0
  -29.5322  -26.5132   21.7982 H   0  0  0  0  0  0
  -27.8555  -26.3138   22.0472 H   0  0  0  0  0  0
  -31.2982  -16.5794   19.4278 H   0  0  0  0  0  0
  1 25  1  0  0  0
  1 30  2  0  0  0
  1 91  1  0  0  0
  2  3  1  0  0  0
  2 25  1  0  0  0
  2 92  1  0  0  0
  2 93  1  0  0  0
  3  4  1  0  0  0
  3 94  1  0  0  0
  3 95  1  0  0  0
  4  5  1  0  0  0
  4 96  1  0  0  0
  4 97  1  0  0  0
  5  6  1  0  0  0
  5 26  1  0  0  0
  5 98  1  0  0  0
  6 25  1  0  0  0
  6 99  1  0  0  0
  6100  1  0  0  0
  7  8  2  0  0  0
  7 26  1  0  0  0
  7 29  1  0  0  0
  8  9  1  0  0  0
  8 22  1  0  0  0
  9 10  1  0  0  0
  9 27  2  0  0  0
 10 11  2  0  0  0
 10 15  1  0  0  0
 11 12  1  0  0  0
 11101  1  0  0  0
 12 13  2  0  0  0
 12102  1  0  0  0
 13 14  1  0  0  0
 13 31  1  0  0  0
 14 15  2  0  0  0
 14103  1  0  0  0
 15104  1  0  0  0
 16 17  2  0  0  0
 16 21  1  0  0  0
 16 31  1  0  0  0
 17 18  1  0  0  0
 17105  1  0  0  0
 18 19  2  0  0  0
 18106  1  0  0  0
 19 20  1  0  0  0
 19 24  1  0  0  0
 20 21  2  0  0  0
 20107  1  0  0  0
 21 23  1  0  0  0
 22 28  1  0  0  0
 22 32  2  0  0  0
 26 27  1  0  0  0
 28108  1  0  0  0
 28109  1  0  0  0
 29110  1  0  0  0
 29111  1  0  0  0
 33 34  1  0  0  0
 33 66  1  0  0  0
 33 70  2  0  0  0
 34 36  1  0  0  0
 34 59  1  0  0  0
 34112  1  0  0  0
 35 44  2  0  0  0
 35 45  1  0  0  0
 35 68  1  0  0  0
 36 56  1  0  0  0
 36113  1  0  0  0
 37 39  1  0  0  0
 37 47  1  0  0  0
 37 66  1  0  0  0
 37114  1  0  0  0
 38 43  2  0  0  0
 38 46  1  0  0  0
 38 47  1  0  0  0
 39 64  1  0  0  0
 39 67  2  0  0  0
 40 52  1  0  0  0
 40 53  2  0  0  0
 40 58  1  0  0  0
 41115  1  0  0  0
 41116  1  0  0  0
 41117  1  0  0  0
 41 48  1  0  0  0
 42 43  1  0  0  0
 42 66  1  0  0  0
 42118  1  0  0  0
 42119  1  0  0  0
 43 44  1  0  0  0
 44120  1  0  0  0
 45 46  2  0  0  0
 45121  1  0  0  0
 46122  1  0  0  0
 47123  1  0  0  0
 47124  1  0  0  0
 48 56  1  0  0  0
 48 65  1  0  0  0
 48125  1  0  0  0
 49 50  1  0  0  0
 49 53  1  0  0  0
 49 64  1  0  0  0
 49126  1  0  0  0
 50 51  1  0  0  0
 50127  1  0  0  0
 50128  1  0  0  0
 51 52  1  0  0  0
 51129  1  0  0  0
 51130  1  0  0  0
 52131  1  0  0  0
 52132  1  0  0  0
 53 54  1  0  0  0
 54 55  2  0  0  0
 54133  1  0  0  0
 55 57  1  0  0  0
 55134  1  0  0  0
 56 69  2  0  0  0
 57 58  2  0  0  0
 57135  1  0  0  0
 58136  1  0  0  0
 59 60  1  0  0  0
 59 61  1  0  0  0
 59 62  1  0  0  0
 60137  1  0  0  0
 60138  1  0  0  0
 60139  1  0  0  0
 61140  1  0  0  0
 61141  1  0  0  0
 61142  1  0  0  0
 62143  1  0  0  0
 62144  1  0  0  0
 62145  1  0  0  0
 63 65  1  0  0  0
 63146  1  0  0  0
 63147  1  0  0  0
 63148  1  0  0  0
 64149  1  0  0  0
 65150  1  0  0  0
 68 85  1  0  0  0
 71 72  2  0  0  0
 71 89  1  0  0  0
 71151  1  0  0  0
 72 83  1  0  0  0
 72 90  1  0  0  0
 73 74  1  0  0  0
 73 75  1  0  0  0
 73 90  2  0  0  0
 74 82  1  0  0  0
 74 89  2  0  0  0
 75152  1  0  0  0
 75153  1  0  0  0
 75154  1  0  0  0
 76155  1  0  0  0
 76156  1  0  0  0
 76157  1  0  0  0
 76 86  1  0  0  0
 77 86  1  0  0  0
 77158  1  0  0  0
 77159  1  0  0  0
 77160  1  0  0  0
 78161  1  0  0  0
 78162  1  0  0  0
 78163  1  0  0  0
 78 87  1  0  0  0
 79 87  1  0  0  0
 79164  1  0  0  0
 79165  1  0  0  0
 79166  1  0  0  0
 80167  1  0  0  0
 80168  1  0  0  0
 80169  1  0  0  0
 80 88  1  0  0  0
 81 88  1  0  0  0
 81170  1  0  0  0
 81171  1  0  0  0
 81172  1  0  0  0
 82 84  1  0  0  0
 82173  1  0  0  0
 82174  1  0  0  0
 83 91  1  0  0  0
 83175  1  0  0  0
 83176  1  0  0  0
 84 87  1  0  0  0
 84177  1  0  0  0
 84178  1  0  0  0
 85 88  1  0  0  0
 85179  1  0  0  0
 85180  1  0  0  0
 86 91  1  0  0  0
 86181  1  0  0  0
 87 88  1  0  0  0
M  ISO  4   1 100  68 101  85 101  91 100
M  END
> <chiral flag>
0

> <version>
0

> <s_m_source_file>
/data/baiqing/PycharmProjects/Reinvent-master-3.2/result/LINK_invent/BTK/process_docking_weight1_custom_sum_contain_oxygen_bond_distance_aromatic_linkinvent_7_9_3/rearranged_h_0067.sdf

> <i_m_source_file_index>
68

> <r_mmod_Potential_Energy-OPLS-2005>
298.238006591797

> <r_mmod_Stretch_Energy-OPLS-2005>
62.1408233642578

> <r_mmod_Bend_Energy-OPLS-2005>
147.852951049805

> <r_mmod_Torsional_Energy-OPLS-2005>
343.352874755859

> <r_mmod_Improper_Torsional_Energy-OPLS-2005>
11.6967611312866

> <r_mmod_Van_der_Waal_Energy-OPLS-2005>
198.624389648438

> <r_mmod_Electrostatic_Energy-OPLS-2005>
-296.651977539062

> <r_mmod_Solvation_Energy-OPLS-2005>
-186.167541503906

> <b_mmod_Minimization_Converged-OPLS-2005>
0

> <r_mmod_RMS_Derivative-OPLS-2005>
6.26274251937866

$$$$
71
                    3D
 Structure written by MMmdl.
166175  0  0  1  0            999 V2000
  -30.7068  -14.5450   20.4446 C   0  0  0  0  0  0
  -30.3913  -12.3146   19.4909 C   0  0  0  0  0  0
  -29.5049  -12.4906   18.2380 C   0  0  0  0  0  0
  -28.0180  -12.3637   18.6227 C   0  0  0  0  0  0
  -27.6428  -13.2321   19.8557 C   0  0  2  0  0  0
  -28.6757  -13.0880   20.9949 C   0  0  0  0  0  0
  -25.2480  -13.8197   20.5641 C   0  0  0  0  0  0
  -24.1775  -13.0426   20.9186 C   0  0  0  0  0  0
  -24.6381  -11.6915   20.8714 C   0  0  0  0  0  0
  -23.9067  -10.4282   21.0387 C   0  0  0  0  0  0
  -24.3626   -9.4200   21.9173 C   0  0  0  0  0  0
  -23.6296   -8.2233   22.0744 C   0  0  0  0  0  0
  -22.4278   -8.0267   21.3547 C   0  0  0  0  0  0
  -21.9893   -9.0236   20.4645 C   0  0  0  0  0  0
  -22.7215  -10.2123   20.3048 C   0  0  0  0  0  0
  -21.6846   -6.0727   22.5282 C   0  0  0  0  0  0
  -21.4020   -6.5631   23.8215 C   0  0  0  0  0  0
  -21.3657   -5.6790   24.9180 C   0  0  0  0  0  0
  -21.6050   -4.3057   24.7231 C   0  0  0  0  0  0
  -21.8834   -3.8139   23.4352 C   0  0  0  0  0  0
  -21.9184   -4.6953   22.3407 C   0  0  0  0  0  0
  -22.7799  -13.5195   21.1859 C   0  0  0  0  0  0
  -22.1626   -4.2131   21.0981 F   0  0  0  0  0  0
  -21.5618   -3.4547   25.7754 F   0  0  0  0  0  0
  -30.0066  -13.3702   20.4550 N   0  0  0  0  0  0
  -26.2907  -12.9416   20.3229 N   0  0  0  0  0  0
  -25.9304  -11.6555   20.5698 N   0  0  0  0  0  0
  -22.0453  -12.8174   22.0420 N   0  0  0  0  0  0
  -25.4211  -15.1886   20.3992 N   0  0  0  0  0  0
  -31.9003  -14.5506   20.1184 O   0  0  0  0  0  0
  -21.6623   -6.8879   21.4259 O   0  0  0  0  0  0
  -22.3474  -14.5508   20.6729 O   0  0  0  0  0  0
  -24.6176  -31.8673   23.2056 C   0  0  0  0  0  0
  -25.9060  -32.4802   23.8372 C   0  0  1  0  0  0
  -27.2245  -27.3896   20.0978 C   0  0  0  0  0  0
  -25.5917  -33.8605   24.2299 N   0  0  0  0  0  0
  -23.4044  -30.4909   21.5484 C   0  0  2  0  0  0
  -24.8472  -28.9484   20.1154 C   0  0  0  0  0  0
  -22.7393  -29.4677   22.4985 C   0  0  0  0  0  0
  -18.0263  -28.1380   22.8489 C   0  0  0  0  0  0
  -24.1478  -36.7298   23.2642 C   0  0  0  0  0  0
  -25.9372  -30.8171   21.3641 C   0  0  0  0  0  0
  -26.0098  -29.4477   20.7126 C   0  0  0  0  0  0
  -27.1964  -28.6732   20.7050 C   0  0  0  0  0  0
  -26.0327  -26.9073   19.5105 C   0  0  0  0  0  0
  -24.8540  -27.6784   19.5151 C   0  0  0  0  0  0
  -23.6139  -29.8226   20.1637 C   0  0  0  0  0  0
  -25.4105  -36.3083   24.0324 C   0  0  1  0  0  0
  -20.5857  -28.3664   23.1317 C   0  0  2  0  0  0
  -20.6771  -26.9402   22.5420 C   0  0  0  0  0  0
  -19.5754  -26.6386   21.5215 C   0  0  0  0  0  0
  -18.1922  -26.7926   22.1620 C   0  0  0  0  0  0
  -19.1516  -28.8838   23.2900 C   0  0  0  0  0  0
  -18.9450  -30.1450   23.8899 C   0  0  0  0  0  0
  -17.6458  -30.6594   24.0564 C   0  0  0  0  0  0
  -25.9045  -34.9455   23.5102 C   0  0  0  0  0  0
  -16.5342  -29.9096   23.6336 C   0  0  0  0  0  0
  -16.7257  -28.6512   23.0353 C   0  0  0  0  0  0
  -26.4463  -31.6594   25.0722 C   0  0  0  0  0  0
  -25.3710  -31.3747   26.1463 C   0  0  0  0  0  0
  -27.0301  -30.3027   24.6143 C   0  0  0  0  0  0
  -27.6022  -32.4328   25.7506 C   0  0  0  0  0  0
  -27.5560  -37.1806   24.8466 C   0  0  0  0  0  0
  -21.4117  -29.3040   22.3706 N   0  0  0  0  0  0
  -26.4278  -37.3783   23.9404 N   0  0  0  0  0  0
  -24.6714  -31.0746   22.0967 N   0  0  0  0  0  0
  -23.4138  -28.8236   23.3058 O   0  0  0  0  0  0
  -28.3975  -26.6480   20.1264 O   0  0  0  0  0  0
  -26.5606  -34.8907   22.4662 O   0  0  0  0  0  0
  -23.5364  -32.1457   23.7427 O   0  0  0  0  0  0
  -30.0018  -18.0896   19.9981 C   0  0  0  0  0  0
  -29.3833  -23.0400   19.6768 C   0  0  0  0  0  0
  -27.3942  -22.5885   21.4219 C   0  0  0  0  0  0
  -30.7613  -16.9653   19.8792 C   0  0  0  0  0  0
  -28.9654  -16.4489   21.1043 C   0  0  0  0  0  0
  -28.8963  -17.8192   20.8532 C   0  0  0  0  0  0
  -28.4593  -24.0733   19.9886 C   0  0  0  0  0  0
  -28.3701  -21.5699   21.1807 C   0  0  0  0  0  0
  -26.8070  -18.1532   22.1672 C   0  0  0  0  0  0
  -27.0750  -19.2668   19.9888 C   0  0  0  0  0  0
  -27.7428  -20.4879   23.3727 C   0  0  0  0  0  0
  -29.9152  -20.0151   22.4633 C   0  0  0  0  0  0
  -28.5666  -25.4615   19.3027 C   0  0  0  0  0  0
  -27.8432  -18.8880   21.2733 C   0  0  0  0  0  0
  -28.4445  -20.2228   22.0044 C   0  0  0  0  0  0
  -27.4377  -23.8265   20.8477 N   0  0  0  0  0  0
  -29.3444  -21.8082   20.2594 N   0  0  0  0  0  0
  -30.1233  -15.9115   20.5217 N   0  0  0  0  0  0
  -31.4479  -12.3403   19.2182 H   0  0  0  0  0  0
  -30.2316  -11.3283   19.9282 H   0  0  0  0  0  0
  -29.7647  -11.7503   17.4802 H   0  0  0  0  0  0
  -29.6866  -13.4656   17.7842 H   0  0  0  0  0  0
  -27.8227  -11.3108   18.8303 H   0  0  0  0  0  0
  -27.3833  -12.6231   17.7744 H   0  0  0  0  0  0
  -27.6610  -14.2698   19.5215 H   0  0  0  0  0  0
  -28.6525  -12.0699   21.3889 H   0  0  0  0  0  0
  -28.4423  -13.7267   21.8427 H   0  0  0  0  0  0
  -25.2786   -9.5660   22.4725 H   0  0  0  0  0  0
  -23.9999   -7.4626   22.7459 H   0  0  0  0  0  0
  -21.0806   -8.8734   19.8986 H   0  0  0  0  0  0
  -22.3641  -10.9646   19.6150 H   0  0  0  0  0  0
  -21.2031   -7.6150   23.9705 H   0  0  0  0  0  0
  -21.1442   -6.0523   25.9073 H   0  0  0  0  0  0
  -22.0623   -2.7598   23.2852 H   0  0  0  0  0  0
  -22.4016  -11.9793   22.4776 H   0  0  0  0  0  0
  -21.1084  -13.1221   22.2624 H   0  0  0  0  0  0
  -24.6751  -15.8592   20.5415 H   0  0  0  0  0  0
  -26.2828  -15.6172   20.0856 H   0  0  0  0  0  0
  -26.7129  -32.5470   23.1127 H   0  0  0  0  0  0
  -25.0054  -33.9790   25.0434 H   0  0  0  0  0  0
  -22.6957  -31.3097   21.4067 H   0  0  0  0  0  0
  -23.3726  -35.9649   23.3333 H   0  0  0  0  0  0
  -24.3573  -36.8894   22.2054 H   0  0  0  0  0  0
  -23.7259  -37.6517   23.6654 H   0  0  0  0  0  0
  -26.0552  -31.5778   20.5911 H   0  0  0  0  0  0
  -26.8255  -30.8701   21.9842 H   0  0  0  0  0  0
  -28.0894  -29.0558   21.1776 H   0  0  0  0  0  0
  -25.9782  -25.9224   19.0722 H   0  0  0  0  0  0
  -23.9523  -27.2837   19.0695 H   0  0  0  0  0  0
  -23.7316  -30.5987   19.4063 H   0  0  0  0  0  0
  -22.7340  -29.2509   19.8648 H   0  0  0  0  0  0
  -25.1287  -36.1930   25.0823 H   0  0  0  0  0  0
  -20.9948  -28.3221   24.1441 H   0  0  0  0  0  0
  -20.5694  -26.2250   23.3589 H   0  0  0  0  0  0
  -21.6631  -26.7464   22.1191 H   0  0  0  0  0  0
  -19.6915  -25.6300   21.1231 H   0  0  0  0  0  0
  -19.6710  -27.3204   20.6749 H   0  0  0  0  0  0
  -17.4191  -26.6656   21.4023 H   0  0  0  0  0  0
  -18.0333  -26.0080   22.9032 H   0  0  0  0  0  0
  -19.7937  -30.7272   24.2245 H   0  0  0  0  0  0
  -17.5026  -31.6278   24.5164 H   0  0  0  0  0  0
  -15.5349  -30.3012   23.7686 H   0  0  0  0  0  0
  -15.8641  -28.0857   22.7067 H   0  0  0  0  0  0
  -24.5878  -30.7089   25.7819 H   0  0  0  0  0  0
  -24.8903  -32.2926   26.4860 H   0  0  0  0  0  0
  -25.8045  -30.8959   27.0253 H   0  0  0  0  0  0
  -26.2871  -29.6800   24.1149 H   0  0  0  0  0  0
  -27.4000  -29.7258   25.4632 H   0  0  0  0  0  0
  -27.8725  -30.4337   23.9347 H   0  0  0  0  0  0
  -27.2614  -33.3624   26.2086 H   0  0  0  0  0  0
  -28.3842  -32.6910   25.0347 H   0  0  0  0  0  0
  -28.0675  -31.8452   26.5436 H   0  0  0  0  0  0
  -28.2589  -38.0088   24.7486 H   0  0  0  0  0  0
  -28.1029  -36.2618   24.6308 H   0  0  0  0  0  0
  -27.2275  -37.1476   25.8869 H   0  0  0  0  0  0
  -20.9240  -29.8728   21.6927 H   0  0  0  0  0  0
  -26.0139  -38.2848   24.1419 H   0  0  0  0  0  0
  -30.2371  -19.0438   19.5471 H   0  0  0  0  0  0
  -30.1774  -23.2071   18.9639 H   0  0  0  0  0  0
  -26.5779  -22.4423   22.1111 H   0  0  0  0  0  0
  -31.6867  -16.8121   19.3388 H   0  0  0  0  0  0
  -28.2950  -15.8194   21.6674 H   0  0  0  0  0  0
  -26.3929  -17.2822   21.6668 H   0  0  0  0  0  0
  -25.9481  -18.7748   22.4152 H   0  0  0  0  0  0
  -27.2487  -17.7901   23.0960 H   0  0  0  0  0  0
  -26.6211  -18.3895   19.5269 H   0  0  0  0  0  0
  -27.7304  -19.7099   19.2401 H   0  0  0  0  0  0
  -26.2703  -19.9735   20.1938 H   0  0  0  0  0  0
  -28.1432  -21.3802   23.8578 H   0  0  0  0  0  0
  -27.8974  -19.6745   24.0810 H   0  0  0  0  0  0
  -26.6683  -20.6434   23.2876 H   0  0  0  0  0  0
  -30.2789  -20.8556   23.0561 H   0  0  0  0  0  0
  -30.6176  -19.9203   21.6390 H   0  0  0  0  0  0
  -30.0061  -19.1194   23.0782 H   0  0  0  0  0  0
  -27.9569  -25.4812   18.3999 H   0  0  0  0  0  0
  -29.5829  -25.5398   18.9153 H   0  0  0  0  0  0
  1 25  1  0  0  0
  1 30  2  0  0  0
  1 88  1  0  0  0
  2  3  1  0  0  0
  2 25  1  0  0  0
  2 89  1  0  0  0
  2 90  1  0  0  0
  3  4  1  0  0  0
  3 91  1  0  0  0
  3 92  1  0  0  0
  4  5  1  0  0  0
  4 93  1  0  0  0
  4 94  1  0  0  0
  5  6  1  0  0  0
  5 26  1  0  0  0
  5 95  1  0  0  0
  6 25  1  0  0  0
  6 96  1  0  0  0
  6 97  1  0  0  0
  7  8  2  0  0  0
  7 26  1  0  0  0
  7 29  1  0  0  0
  8  9  1  0  0  0
  8 22  1  0  0  0
  9 10  1  0  0  0
  9 27  2  0  0  0
 10 11  2  0  0  0
 10 15  1  0  0  0
 11 12  1  0  0  0
 11 98  1  0  0  0
 12 13  2  0  0  0
 12 99  1  0  0  0
 13 14  1  0  0  0
 13 31  1  0  0  0
 14 15  2  0  0  0
 14100  1  0  0  0
 15101  1  0  0  0
 16 17  2  0  0  0
 16 21  1  0  0  0
 16 31  1  0  0  0
 17 18  1  0  0  0
 17102  1  0  0  0
 18 19  2  0  0  0
 18103  1  0  0  0
 19 20  1  0  0  0
 19 24  1  0  0  0
 20 21  2  0  0  0
 20104  1  0  0  0
 21 23  1  0  0  0
 22 28  1  0  0  0
 22 32  2  0  0  0
 26 27  1  0  0  0
 28105  1  0  0  0
 28106  1  0  0  0
 29107  1  0  0  0
 29108  1  0  0  0
 33 34  1  0  0  0
 33 66  1  0  0  0
 33 70  2  0  0  0
 34 36  1  0  0  0
 34 59  1  0  0  0
 34109  1  0  0  0
 35 44  2  0  0  0
 35 45  1  0  0  0
 35 68  1  0  0  0
 36 56  1  0  0  0
 36110  1  0  0  0
 37 39  1  0  0  0
 37 47  1  0  0  0
 37 66  1  0  0  0
 37111  1  0  0  0
 38 43  2  0  0  0
 38 46  1  0  0  0
 38 47  1  0  0  0
 39 64  1  0  0  0
 39 67  2  0  0  0
 40 52  1  0  0  0
 40 53  2  0  0  0
 40 58  1  0  0  0
 41112  1  0  0  0
 41113  1  0  0  0
 41114  1  0  0  0
 41 48  1  0  0  0
 42 43  1  0  0  0
 42 66  1  0  0  0
 42115  1  0  0  0
 42116  1  0  0  0
 43 44  1  0  0  0
 44117  1  0  0  0
 45 46  2  0  0  0
 45118  1  0  0  0
 46119  1  0  0  0
 47120  1  0  0  0
 47121  1  0  0  0
 48 56  1  0  0  0
 48 65  1  0  0  0
 48122  1  0  0  0
 49 50  1  0  0  0
 49 53  1  0  0  0
 49 64  1  0  0  0
 49123  1  0  0  0
 50 51  1  0  0  0
 50124  1  0  0  0
 50125  1  0  0  0
 51 52  1  0  0  0
 51126  1  0  0  0
 51127  1  0  0  0
 52128  1  0  0  0
 52129  1  0  0  0
 53 54  1  0  0  0
 54 55  2  0  0  0
 54130  1  0  0  0
 55 57  1  0  0  0
 55131  1  0  0  0
 56 69  2  0  0  0
 57 58  2  0  0  0
 57132  1  0  0  0
 58133  1  0  0  0
 59 60  1  0  0  0
 59 61  1  0  0  0
 59 62  1  0  0  0
 60134  1  0  0  0
 60135  1  0  0  0
 60136  1  0  0  0
 61137  1  0  0  0
 61138  1  0  0  0
 61139  1  0  0  0
 62140  1  0  0  0
 62141  1  0  0  0
 62142  1  0  0  0
 63 65  1  0  0  0
 63143  1  0  0  0
 63144  1  0  0  0
 63145  1  0  0  0
 64146  1  0  0  0
 65147  1  0  0  0
 68 83  1  0  0  0
 71 74  2  0  0  0
 71 76  1  0  0  0
 71148  1  0  0  0
 72 77  2  0  0  0
 72 87  1  0  0  0
 72149  1  0  0  0
 73 78  1  0  0  0
 73 86  2  0  0  0
 73150  1  0  0  0
 74 88  1  0  0  0
 74151  1  0  0  0
 75 76  2  0  0  0
 75 88  1  0  0  0
 75152  1  0  0  0
 76 84  1  0  0  0
 77 83  1  0  0  0
 77 86  1  0  0  0
 78 85  1  0  0  0
 78 87  2  0  0  0
 79153  1  0  0  0
 79154  1  0  0  0
 79155  1  0  0  0
 79 84  1  0  0  0
 80 84  1  0  0  0
 80156  1  0  0  0
 80157  1  0  0  0
 80158  1  0  0  0
 81159  1  0  0  0
 81160  1  0  0  0
 81161  1  0  0  0
 81 85  1  0  0  0
 82 85  1  0  0  0
 82162  1  0  0  0
 82163  1  0  0  0
 82164  1  0  0  0
 83165  1  0  0  0
 83166  1  0  0  0
 84 85  1  0  0  0
M  ISO  4   1 100  68 101  83 101  88 100
M  END
> <chiral flag>
0

> <version>
0

> <s_m_source_file>
/data/baiqing/PycharmProjects/Reinvent-master-3.2/result/LINK_invent/BTK/process_docking_weight1_custom_sum_contain_oxygen_bond_distance_aromatic_linkinvent_7_9_3/rearranged_h_0067.sdf

> <i_m_source_file_index>
69

> <r_mmod_Potential_Energy-OPLS-2005>
280.858489990234

> <r_mmod_Stretch_Energy-OPLS-2005>
79.6664123535156

> <r_mmod_Bend_Energy-OPLS-2005>
171.885360717773

> <r_mmod_Torsional_Energy-OPLS-2005>
189.577865600586

> <r_mmod_Improper_Torsional_Energy-OPLS-2005>
7.0418553352356

> <r_mmod_Van_der_Waal_Energy-OPLS-2005>
180.863998413086

> <r_mmod_Electrostatic_Energy-OPLS-2005>
-179.483520507812

> <r_mmod_Solvation_Energy-OPLS-2005>
-199.509948730469

> <b_mmod_Minimization_Converged-OPLS-2005>
0

> <r_mmod_RMS_Derivative-OPLS-2005>
3.12183451652527

$$$$
72
                    3D
 Structure written by MMmdl.
181189  0  0  1  0            999 V2000
  -30.7771  -14.4076   20.7141 C   0  0  0  0  0  0
  -30.4116  -12.3253   19.4139 C   0  0  0  0  0  0
  -29.5039  -12.5381   18.1874 C   0  0  0  0  0  0
  -28.0250  -12.3625   18.5871 C   0  0  0  0  0  0
  -27.6485  -13.2110   19.8274 C   0  0  2  0  0  0
  -28.6716  -13.0278   20.9627 C   0  0  0  0  0  0
  -25.2409  -13.8108   20.5378 C   0  0  0  0  0  0
  -24.1761  -13.0407   20.9133 C   0  0  0  0  0  0
  -24.6348  -11.6877   20.8664 C   0  0  0  0  0  0
  -23.9012  -10.4275   21.0379 C   0  0  0  0  0  0
  -24.3567   -9.4218   21.9181 C   0  0  0  0  0  0
  -23.6243   -8.2250   22.0772 C   0  0  0  0  0  0
  -22.4237   -8.0279   21.3556 C   0  0  0  0  0  0
  -21.9849   -9.0241   20.4660 C   0  0  0  0  0  0
  -22.7166  -10.2120   20.3042 C   0  0  0  0  0  0
  -21.6855   -6.0685   22.5265 C   0  0  0  0  0  0
  -21.4031   -6.5592   23.8184 C   0  0  0  0  0  0
  -21.3672   -5.6766   24.9156 C   0  0  0  0  0  0
  -21.6029   -4.3015   24.7222 C   0  0  0  0  0  0
  -21.8825   -3.8110   23.4349 C   0  0  0  0  0  0
  -21.9193   -4.6925   22.3403 C   0  0  0  0  0  0
  -22.7787  -13.5240   21.1788 C   0  0  0  0  0  0
  -22.1667   -4.2099   21.0967 F   0  0  0  0  0  0
  -21.5626   -3.4506   25.7743 F   0  0  0  0  0  0
  -30.0311  -13.2932   20.4572 N   0  0  0  0  0  0
  -26.2900  -12.9327   20.2990 N   0  0  0  0  0  0
  -25.9255  -11.6493   20.5568 N   0  0  0  0  0  0
  -22.0371  -12.8332   22.0381 N   0  0  0  0  0  0
  -25.3894  -15.1762   20.3446 N   0  0  0  0  0  0
  -31.7837  -14.6871   20.0490 O   0  0  0  0  0  0
  -21.6645   -6.8845   21.4236 O   0  0  0  0  0  0
  -22.3486  -14.5525   20.6590 O   0  0  0  0  0  0
  -24.6114  -31.8700   23.2150 C   0  0  0  0  0  0
  -25.9025  -32.4845   23.8434 C   0  0  1  0  0  0
  -27.2318  -27.4529   20.0913 C   0  0  0  0  0  0
  -25.5895  -33.8638   24.2380 N   0  0  0  0  0  0
  -23.3996  -30.4962   21.5531 C   0  0  2  0  0  0
  -24.8466  -28.9739   20.1114 C   0  0  0  0  0  0
  -22.7403  -29.4663   22.4984 C   0  0  0  0  0  0
  -18.0262  -28.1365   22.8502 C   0  0  0  0  0  0
  -24.1484  -36.7322   23.2640 C   0  0  0  0  0  0
  -25.9274  -30.8453   21.3656 C   0  0  0  0  0  0
  -26.0053  -29.4824   20.7094 C   0  0  0  0  0  0
  -27.2005  -28.7283   20.6967 C   0  0  0  0  0  0
  -26.0555  -26.9647   19.4701 C   0  0  0  0  0  0
  -24.8664  -27.7158   19.4873 C   0  0  0  0  0  0
  -23.6064  -29.8355   20.1646 C   0  0  0  0  0  0
  -25.4102  -36.3132   24.0354 C   0  0  1  0  0  0
  -20.5859  -28.3654   23.1331 C   0  0  2  0  0  0
  -20.6749  -26.9387   22.5428 C   0  0  0  0  0  0
  -19.5727  -26.6378   21.5219 C   0  0  0  0  0  0
  -18.1907  -26.7915   22.1621 C   0  0  0  0  0  0
  -19.1509  -28.8815   23.2915 C   0  0  0  0  0  0
  -18.9442  -30.1426   23.8930 C   0  0  0  0  0  0
  -17.6445  -30.6582   24.0565 C   0  0  0  0  0  0
  -25.9012  -34.9491   23.5161 C   0  0  0  0  0  0
  -16.5341  -29.9081   23.6321 C   0  0  0  0  0  0
  -16.7263  -28.6497   23.0356 C   0  0  0  0  0  0
  -26.4476  -31.6604   25.0740 C   0  0  0  0  0  0
  -25.3754  -31.3702   26.1500 C   0  0  0  0  0  0
  -27.0291  -30.3052   24.6088 C   0  0  0  0  0  0
  -27.6073  -32.4309   25.7486 C   0  0  0  0  0  0
  -27.5591  -37.1811   24.8468 C   0  0  0  0  0  0
  -21.4119  -29.3049   22.3756 N   0  0  0  0  0  0
  -26.4297  -37.3815   23.9413 N   0  0  0  0  0  0
  -24.6650  -31.0824   22.1054 N   0  0  0  0  0  0
  -23.4184  -28.8185   23.2997 O   0  0  0  0  0  0
  -28.4039  -26.7243   20.1252 O   0  0  0  0  0  0
  -26.5563  -34.8933   22.4712 O   0  0  0  0  0  0
  -23.5312  -32.1440   23.7558 O   0  0  0  0  0  0
  -27.4049  -18.5888   20.1409 C   0  0  0  0  0  0
  -27.0634  -19.7108   19.3847 C   0  0  0  0  0  0
  -28.5993  -18.6433   20.8827 C   0  0  0  0  0  0
  -29.0090  -20.7528   20.0174 C   0  0  0  0  0  0
  -25.7347  -19.8230   18.6702 C   0  0  0  0  0  0
  -30.4938  -13.5131   23.5874 C   0  0  0  0  0  0
  -32.0881  -15.4440   23.5058 C   0  0  0  0  0  0
  -27.8024  -16.5956   22.1631 C   0  0  0  0  0  0
  -29.3527  -18.2244   23.2166 C   0  0  0  0  0  0
  -29.7735  -22.7080   18.6498 C   0  0  0  0  0  0
  -31.2897  -21.8510   20.3724 C   0  0  0  0  0  0
  -30.2169  -16.6932   21.3204 C   0  0  0  0  0  0
  -28.2816  -25.2931   20.0955 C   0  0  0  0  0  0
  -30.6697  -14.9794   23.1259 C   0  0  0  0  0  0
  -29.0060  -17.5232   21.8819 C   0  0  0  0  0  0
  -29.7845  -22.0977   20.0755 C   0  0  0  0  0  0
  -29.3264  -24.5993   21.0102 C   0  0  0  0  0  0
  -29.1576  -23.0503   21.1710 C   0  0  0  0  0  0
  -27.8691  -20.7771   19.3254 N   0  0  0  0  0  0
  -29.4012  -19.7288   20.7842 N   0  0  0  0  0  0
  -30.3353  -15.2458   21.6929 N   0  0  0  0  0  0
  -29.1358  -25.1361   22.2176 F   0  0  0  0  0  0
  -30.5599  -24.9065   20.6137 F   0  0  0  0  0  0
  -27.8440  -22.8343   21.2872 F   0  0  0  0  0  0
  -29.6994  -22.7173   22.3465 F   0  0  0  0  0  0
  -31.4632  -12.4055   19.1320 H   0  0  0  0  0  0
  -30.2846  -11.3131   19.8038 H   0  0  0  0  0  0
  -29.7650  -11.8311   17.3986 H   0  0  0  0  0  0
  -29.6669  -13.5312   17.7635 H   0  0  0  0  0  0
  -27.8693  -11.3045   18.8000 H   0  0  0  0  0  0
  -27.3745  -12.6046   17.7427 H   0  0  0  0  0  0
  -27.6831  -14.2544   19.5080 H   0  0  0  0  0  0
  -28.6293  -12.0192   21.3778 H   0  0  0  0  0  0
  -28.3665  -13.7029   21.7588 H   0  0  0  0  0  0
  -25.2709   -9.5724   22.4758 H   0  0  0  0  0  0
  -23.9936   -7.4669   22.7503 H   0  0  0  0  0  0
  -21.0764   -8.8705   19.9011 H   0  0  0  0  0  0
  -22.3564  -10.9629   19.6133 H   0  0  0  0  0  0
  -21.2055   -7.6108   23.9677 H   0  0  0  0  0  0
  -21.1472   -6.0485   25.9030 H   0  0  0  0  0  0
  -22.0607   -2.7578   23.2848 H   0  0  0  0  0  0
  -22.3915  -12.0063   22.4940 H   0  0  0  0  0  0
  -21.1007  -13.1467   22.2464 H   0  0  0  0  0  0
  -24.6074  -15.8197   20.4022 H   0  0  0  0  0  0
  -26.2025  -15.5785   19.8996 H   0  0  0  0  0  0
  -26.7104  -32.5583   23.1206 H   0  0  0  0  0  0
  -25.0088  -33.9824   25.0557 H   0  0  0  0  0  0
  -22.6886  -31.3134   21.4189 H   0  0  0  0  0  0
  -23.3753  -35.9646   23.3313 H   0  0  0  0  0  0
  -24.3595  -36.8911   22.2055 H   0  0  0  0  0  0
  -23.7224  -37.6531   23.6631 H   0  0  0  0  0  0
  -26.0342  -31.6158   20.6008 H   0  0  0  0  0  0
  -26.8184  -30.8996   21.9798 H   0  0  0  0  0  0
  -28.0959  -29.1154   21.1651 H   0  0  0  0  0  0
  -26.0398  -26.0100   18.9640 H   0  0  0  0  0  0
  -23.9778  -27.3272   19.0097 H   0  0  0  0  0  0
  -23.7119  -30.6134   19.4074 H   0  0  0  0  0  0
  -22.7329  -29.2507   19.8705 H   0  0  0  0  0  0
  -25.1267  -36.2022   25.0851 H   0  0  0  0  0  0
  -20.9962  -28.3211   24.1443 H   0  0  0  0  0  0
  -20.5647  -26.2253   23.3609 H   0  0  0  0  0  0
  -21.6622  -26.7429   22.1229 H   0  0  0  0  0  0
  -19.6889  -25.6296   21.1228 H   0  0  0  0  0  0
  -19.6671  -27.3200   20.6757 H   0  0  0  0  0  0
  -17.4191  -26.6705   21.4012 H   0  0  0  0  0  0
  -18.0281  -26.0044   22.8993 H   0  0  0  0  0  0
  -19.7911  -30.7227   24.2331 H   0  0  0  0  0  0
  -17.5002  -31.6266   24.5146 H   0  0  0  0  0  0
  -15.5342  -30.2998   23.7612 H   0  0  0  0  0  0
  -15.8658  -28.0820   22.7061 H   0  0  0  0  0  0
  -24.5947  -30.7020   25.7857 H   0  0  0  0  0  0
  -24.8909  -32.2841   26.4947 H   0  0  0  0  0  0
  -25.8120  -30.8896   27.0262 H   0  0  0  0  0  0
  -26.2814  -29.6824   24.1166 H   0  0  0  0  0  0
  -27.4098  -29.7292   25.4531 H   0  0  0  0  0  0
  -27.8638  -30.4392   23.9205 H   0  0  0  0  0  0
  -27.2731  -33.3612   26.2100 H   0  0  0  0  0  0
  -28.3858  -32.6861   25.0282 H   0  0  0  0  0  0
  -28.0771  -31.8399   26.5365 H   0  0  0  0  0  0
  -28.2617  -38.0102   24.7519 H   0  0  0  0  0  0
  -28.1068  -36.2633   24.6268 H   0  0  0  0  0  0
  -27.2312  -37.1450   25.8874 H   0  0  0  0  0  0
  -20.9249  -29.8812   21.7036 H   0  0  0  0  0  0
  -26.0195  -38.2896   24.1408 H   0  0  0  0  0  0
  -26.7281  -17.7495   20.1760 H   0  0  0  0  0  0
  -24.9305  -19.4415   19.3001 H   0  0  0  0  0  0
  -25.7390  -19.2627   17.7351 H   0  0  0  0  0  0
  -25.5014  -20.8651   18.4432 H   0  0  0  0  0  0
  -30.7696  -13.4091   24.6368 H   0  0  0  0  0  0
  -31.1227  -12.8192   23.0292 H   0  0  0  0  0  0
  -29.4622  -13.1760   23.5213 H   0  0  0  0  0  0
  -32.2769  -15.2608   24.5656 H   0  0  0  0  0  0
  -32.2339  -16.5116   23.3486 H   0  0  0  0  0  0
  -32.8525  -14.9116   22.9394 H   0  0  0  0  0  0
  -26.9059  -17.1659   22.4080 H   0  0  0  0  0  0
  -27.9615  -15.9166   22.9951 H   0  0  0  0  0  0
  -27.5917  -15.9871   21.2907 H   0  0  0  0  0  0
  -28.5161  -18.8347   23.5586 H   0  0  0  0  0  0
  -30.2117  -18.8872   23.1070 H   0  0  0  0  0  0
  -29.5922  -17.5445   24.0269 H   0  0  0  0  0  0
  -30.1729  -21.9928   17.9293 H   0  0  0  0  0  0
  -30.3779  -23.6092   18.5723 H   0  0  0  0  0  0
  -28.7637  -22.9490   18.3191 H   0  0  0  0  0  0
  -31.7464  -21.2166   19.6136 H   0  0  0  0  0  0
  -31.4406  -21.3561   21.3304 H   0  0  0  0  0  0
  -31.8559  -22.7802   20.4047 H   0  0  0  0  0  0
  -31.1506  -17.2186   21.5116 H   0  0  0  0  0  0
  -30.1121  -16.7364   20.2324 H   0  0  0  0  0  0
  -27.3029  -24.9867   20.4640 H   0  0  0  0  0  0
  -28.3479  -24.9697   19.0609 H   0  0  0  0  0  0
  -29.9722  -15.5360   23.7417 H   0  0  0  0  0  0
  1 25  1  0  0  0
  1 30  2  0  0  0
  1 91  1  0  0  0
  2  3  1  0  0  0
  2 25  1  0  0  0
  2 96  1  0  0  0
  2 97  1  0  0  0
  3  4  1  0  0  0
  3 98  1  0  0  0
  3 99  1  0  0  0
  4  5  1  0  0  0
  4100  1  0  0  0
  4101  1  0  0  0
  5  6  1  0  0  0
  5 26  1  0  0  0
  5102  1  0  0  0
  6 25  1  0  0  0
  6103  1  0  0  0
  6104  1  0  0  0
  7  8  2  0  0  0
  7 26  1  0  0  0
  7 29  1  0  0  0
  8  9  1  0  0  0
  8 22  1  0  0  0
  9 10  1  0  0  0
  9 27  2  0  0  0
 10 11  2  0  0  0
 10 15  1  0  0  0
 11 12  1  0  0  0
 11105  1  0  0  0
 12 13  2  0  0  0
 12106  1  0  0  0
 13 14  1  0  0  0
 13 31  1  0  0  0
 14 15  2  0  0  0
 14107  1  0  0  0
 15108  1  0  0  0
 16 17  2  0  0  0
 16 21  1  0  0  0
 16 31  1  0  0  0
 17 18  1  0  0  0
 17109  1  0  0  0
 18 19  2  0  0  0
 18110  1  0  0  0
 19 20  1  0  0  0
 19 24  1  0  0  0
 20 21  2  0  0  0
 20111  1  0  0  0
 21 23  1  0  0  0
 22 28  1  0  0  0
 22 32  2  0  0  0
 26 27  1  0  0  0
 28112  1  0  0  0
 28113  1  0  0  0
 29114  1  0  0  0
 29115  1  0  0  0
 33 34  1  0  0  0
 33 66  1  0  0  0
 33 70  2  0  0  0
 34 36  1  0  0  0
 34 59  1  0  0  0
 34116  1  0  0  0
 35 44  2  0  0  0
 35 45  1  0  0  0
 35 68  1  0  0  0
 36 56  1  0  0  0
 36117  1  0  0  0
 37 39  1  0  0  0
 37 47  1  0  0  0
 37 66  1  0  0  0
 37118  1  0  0  0
 38 43  2  0  0  0
 38 46  1  0  0  0
 38 47  1  0  0  0
 39 64  1  0  0  0
 39 67  2  0  0  0
 40 52  1  0  0  0
 40 53  2  0  0  0
 40 58  1  0  0  0
 41119  1  0  0  0
 41120  1  0  0  0
 41121  1  0  0  0
 41 48  1  0  0  0
 42 43  1  0  0  0
 42 66  1  0  0  0
 42122  1  0  0  0
 42123  1  0  0  0
 43 44  1  0  0  0
 44124  1  0  0  0
 45 46  2  0  0  0
 45125  1  0  0  0
 46126  1  0  0  0
 47127  1  0  0  0
 47128  1  0  0  0
 48 56  1  0  0  0
 48 65  1  0  0  0
 48129  1  0  0  0
 49 50  1  0  0  0
 49 53  1  0  0  0
 49 64  1  0  0  0
 49130  1  0  0  0
 50 51  1  0  0  0
 50131  1  0  0  0
 50132  1  0  0  0
 51 52  1  0  0  0
 51133  1  0  0  0
 51134  1  0  0  0
 52135  1  0  0  0
 52136  1  0  0  0
 53 54  1  0  0  0
 54 55  2  0  0  0
 54137  1  0  0  0
 55 57  1  0  0  0
 55138  1  0  0  0
 56 69  2  0  0  0
 57 58  2  0  0  0
 57139  1  0  0  0
 58140  1  0  0  0
 59 60  1  0  0  0
 59 61  1  0  0  0
 59 62  1  0  0  0
 60141  1  0  0  0
 60142  1  0  0  0
 60143  1  0  0  0
 61144  1  0  0  0
 61145  1  0  0  0
 61146  1  0  0  0
 62147  1  0  0  0
 62148  1  0  0  0
 62149  1  0  0  0
 63 65  1  0  0  0
 63150  1  0  0  0
 63151  1  0  0  0
 63152  1  0  0  0
 64153  1  0  0  0
 65154  1  0  0  0
 68 83  1  0  0  0
 71 72  2  0  0  0
 71 73  1  0  0  0
 71155  1  0  0  0
 72 75  1  0  0  0
 72 89  1  0  0  0
 73 85  1  0  0  0
 73 90  2  0  0  0
 74 86  1  0  0  0
 74 89  2  0  0  0
 74 90  1  0  0  0
 75156  1  0  0  0
 75157  1  0  0  0
 75158  1  0  0  0
 76159  1  0  0  0
 76160  1  0  0  0
 76161  1  0  0  0
 76 84  1  0  0  0
 77 84  1  0  0  0
 77162  1  0  0  0
 77163  1  0  0  0
 77164  1  0  0  0
 78165  1  0  0  0
 78166  1  0  0  0
 78167  1  0  0  0
 78 85  1  0  0  0
 79 85  1  0  0  0
 79168  1  0  0  0
 79169  1  0  0  0
 79170  1  0  0  0
 80171  1  0  0  0
 80172  1  0  0  0
 80173  1  0  0  0
 80 86  1  0  0  0
 81 86  1  0  0  0
 81174  1  0  0  0
 81175  1  0  0  0
 81176  1  0  0  0
 82 85  1  0  0  0
 82 91  1  0  0  0
 82177  1  0  0  0
 82178  1  0  0  0
 83 87  1  0  0  0
 83179  1  0  0  0
 83180  1  0  0  0
 84 91  1  0  0  0
 84181  1  0  0  0
 86 88  1  0  0  0
 87 88  1  0  0  0
 87 92  1  0  0  0
 87 93  1  0  0  0
 88 94  1  0  0  0
 88 95  1  0  0  0
M  ISO  4   1 100  68 101  83 101  91 100
M  END
> <chiral flag>
0

> <version>
0

> <s_m_source_file>
/data/baiqing/PycharmProjects/Reinvent-master-3.2/result/LINK_invent/BTK/process_docking_weight1_custom_sum_contain_oxygen_bond_distance_aromatic_linkinvent_7_9_3/rearranged_h_0067.sdf

> <i_m_source_file_index>
70

> <r_mmod_Potential_Energy-OPLS-2005>
-185.773147583008

> <r_mmod_Stretch_Energy-OPLS-2005>
55.9485359191895

> <r_mmod_Bend_Energy-OPLS-2005>
134.653076171875

> <r_mmod_Torsional_Energy-OPLS-2005>
300.713684082031

> <r_mmod_Improper_Torsional_Energy-OPLS-2005>
6.38637399673462

> <r_mmod_Van_der_Waal_Energy-OPLS-2005>
199.871337890625

> <r_mmod_Electrostatic_Energy-OPLS-2005>
-715.526916503906

> <r_mmod_Solvation_Energy-OPLS-2005>
-180.313171386719

> <b_mmod_Minimization_Converged-OPLS-2005>
0

> <r_mmod_RMS_Derivative-OPLS-2005>
4.7798957824707

$$$$
73
                    3D
 Structure written by MMmdl.
170178  0  0  1  0            999 V2000
  -30.6628  -14.5522   20.6052 C   0  0  0  0  0  0
  -30.4250  -12.3518   19.4512 C   0  0  0  0  0  0
  -29.5019  -12.5294   18.2258 C   0  0  0  0  0  0
  -28.0205  -12.3774   18.6270 C   0  0  0  0  0  0
  -27.6598  -13.2123   19.8872 C   0  0  2  0  0  0
  -28.7006  -12.9680   20.9965 C   0  0  0  0  0  0
  -25.2568  -13.8148   20.5745 C   0  0  0  0  0  0
  -24.1829  -13.0438   20.9197 C   0  0  0  0  0  0
  -24.6401  -11.6907   20.8761 C   0  0  0  0  0  0
  -23.9067  -10.4293   21.0404 C   0  0  0  0  0  0
  -24.3612   -9.4192   21.9168 C   0  0  0  0  0  0
  -23.6276   -8.2244   22.0753 C   0  0  0  0  0  0
  -22.4262   -8.0288   21.3559 C   0  0  0  0  0  0
  -21.9915   -9.0260   20.4639 C   0  0  0  0  0  0
  -22.7248  -10.2135   20.3042 C   0  0  0  0  0  0
  -21.6853   -6.0756   22.5302 C   0  0  0  0  0  0
  -21.4023   -6.5663   23.8239 C   0  0  0  0  0  0
  -21.3638   -5.6801   24.9193 C   0  0  0  0  0  0
  -21.6019   -4.3070   24.7219 C   0  0  0  0  0  0
  -21.8814   -3.8182   23.4336 C   0  0  0  0  0  0
  -21.9183   -4.6989   22.3402 C   0  0  0  0  0  0
  -22.7822  -13.5203   21.1826 C   0  0  0  0  0  0
  -22.1660   -4.2180   21.0975 F   0  0  0  0  0  0
  -21.5569   -3.4550   25.7727 F   0  0  0  0  0  0
  -30.0122  -13.3516   20.4609 N   0  0  0  0  0  0
  -26.3028  -12.9329   20.3480 N   0  0  0  0  0  0
  -25.9339  -11.6483   20.5862 N   0  0  0  0  0  0
  -22.0489  -12.8214   22.0388 N   0  0  0  0  0  0
  -25.4286  -15.1892   20.4137 N   0  0  0  0  0  0
  -31.7995  -14.6963   20.1377 O   0  0  0  0  0  0
  -21.6616   -6.8907   21.4284 O   0  0  0  0  0  0
  -22.3471  -14.5505   20.6654 O   0  0  0  0  0  0
  -24.6200  -31.8648   23.2046 C   0  0  0  0  0  0
  -25.9068  -32.4798   23.8380 C   0  0  1  0  0  0
  -27.2033  -27.3498   20.1402 C   0  0  0  0  0  0
  -25.5890  -33.8600   24.2307 N   0  0  0  0  0  0
  -23.4117  -30.4868   21.5478 C   0  0  2  0  0  0
  -24.8543  -28.9433   20.1184 C   0  0  0  0  0  0
  -22.7437  -29.4639   22.4954 C   0  0  0  0  0  0
  -18.0276  -28.1382   22.8485 C   0  0  0  0  0  0
  -24.1491  -36.7314   23.2643 C   0  0  0  0  0  0
  -25.9471  -30.8040   21.3714 C   0  0  0  0  0  0
  -26.0180  -29.4303   20.7275 C   0  0  0  0  0  0
  -27.1989  -28.6403   20.7384 C   0  0  0  0  0  0
  -26.0344  -26.9103   19.4895 C   0  0  0  0  0  0
  -24.8623  -27.6870   19.4919 C   0  0  0  0  0  0
  -23.6237  -29.8227   20.1624 C   0  0  0  0  0  0
  -25.4110  -36.3111   24.0340 C   0  0  1  0  0  0
  -20.5874  -28.3676   23.1301 C   0  0  2  0  0  0
  -20.6766  -26.9409   22.5412 C   0  0  0  0  0  0
  -19.5741  -26.6386   21.5216 C   0  0  0  0  0  0
  -18.1924  -26.7928   22.1624 C   0  0  0  0  0  0
  -19.1524  -28.8847   23.2889 C   0  0  0  0  0  0
  -18.9460  -30.1461   23.8897 C   0  0  0  0  0  0
  -17.6456  -30.6589   24.0568 C   0  0  0  0  0  0
  -25.9044  -34.9469   23.5116 C   0  0  0  0  0  0
  -16.5351  -29.9093   23.6338 C   0  0  0  0  0  0
  -16.7267  -28.6513   23.0352 C   0  0  0  0  0  0
  -26.4469  -31.6583   25.0726 C   0  0  0  0  0  0
  -25.3715  -31.3698   26.1454 C   0  0  0  0  0  0
  -27.0292  -30.3013   24.6121 C   0  0  0  0  0  0
  -27.6037  -32.4302   25.7487 C   0  0  0  0  0  0
  -27.5582  -37.1818   24.8464 C   0  0  0  0  0  0
  -21.4154  -29.3048   22.3697 N   0  0  0  0  0  0
  -26.4291  -37.3789   23.9399 N   0  0  0  0  0  0
  -24.6785  -31.0684   22.0986 N   0  0  0  0  0  0
  -23.4178  -28.8196   23.3034 O   0  0  0  0  0  0
  -28.3205  -26.5266   20.1144 O   0  0  0  0  0  0
  -26.5628  -34.8911   22.4692 O   0  0  0  0  0  0
  -23.5363  -32.1434   23.7398 O   0  0  0  0  0  0
  -28.6309  -20.1908   21.1850 C   0  0  0  0  0  0
  -29.3046  -18.2064   20.7171 C   0  0  0  0  0  0
  -29.9069  -16.7941   18.7258 C   0  0  0  0  0  0
  -30.5536  -19.9446   23.6450 C   0  0  0  0  0  0
  -31.7445  -20.8360   21.5516 C   0  0  0  0  0  0
  -31.9756  -18.4965   22.2672 C   0  0  0  0  0  0
  -29.4874  -15.7619   22.3932 C   0  0  0  0  0  0
  -28.4484  -21.6691   21.6242 C   0  0  0  0  0  0
  -28.1303  -22.7483   20.5082 C   0  0  0  0  0  0
  -27.5034  -24.1380   20.9516 C   0  0  0  0  0  0
  -28.3969  -25.4370   21.0874 C   0  0  0  0  0  0
  -30.1342  -16.9737   20.2513 C   0  0  2  0  0  0
  -30.9538  -19.6568   22.1712 C   0  0  0  0  0  0
  -27.5965  -19.5543   20.6263 N   0  0  0  0  0  0
  -28.0169  -18.2787   20.3559 N   0  0  0  0  0  0
  -29.7172  -19.3521   21.3833 N   0  0  0  0  0  0
  -29.9291  -15.6604   20.9847 N   0  0  0  0  0  0
  -31.4724  -12.4415   19.1632 H   0  0  0  0  0  0
  -30.3263  -11.3381   19.8501 H   0  0  0  0  0  0
  -29.7510  -11.8109   17.4426 H   0  0  0  0  0  0
  -29.6583  -13.5200   17.7962 H   0  0  0  0  0  0
  -27.8416  -11.3176   18.8189 H   0  0  0  0  0  0
  -27.3696  -12.6467   17.7958 H   0  0  0  0  0  0
  -27.7048  -14.2675   19.6130 H   0  0  0  0  0  0
  -28.7043  -11.9063   21.2495 H   0  0  0  0  0  0
  -28.4526  -13.4698   21.9265 H   0  0  0  0  0  0
  -25.2785   -9.5626   22.4706 H   0  0  0  0  0  0
  -23.9956   -7.4634   22.7473 H   0  0  0  0  0  0
  -21.0849   -8.8791   19.8934 H   0  0  0  0  0  0
  -22.3743  -10.9657   19.6107 H   0  0  0  0  0  0
  -21.2081   -7.6188   23.9752 H   0  0  0  0  0  0
  -21.1424   -6.0539   25.9078 H   0  0  0  0  0  0
  -22.0610   -2.7649   23.2841 H   0  0  0  0  0  0
  -22.4170  -11.9917   22.4809 H   0  0  0  0  0  0
  -21.1083  -13.1172   22.2633 H   0  0  0  0  0  0
  -24.6636  -15.8438   20.5254 H   0  0  0  0  0  0
  -26.2926  -15.6470   20.1502 H   0  0  0  0  0  0
  -26.7132  -32.5499   23.1135 H   0  0  0  0  0  0
  -25.0009  -33.9761   25.0426 H   0  0  0  0  0  0
  -22.7048  -31.3065   21.4048 H   0  0  0  0  0  0
  -23.3745  -35.9662   23.3327 H   0  0  0  0  0  0
  -24.3574  -36.8902   22.2052 H   0  0  0  0  0  0
  -23.7248  -37.6523   23.6639 H   0  0  0  0  0  0
  -26.0668  -31.5594   20.5944 H   0  0  0  0  0  0
  -26.8319  -30.8612   21.9927 H   0  0  0  0  0  0
  -28.0975  -29.0053   21.2176 H   0  0  0  0  0  0
  -26.0225  -25.9592   18.9768 H   0  0  0  0  0  0
  -23.9717  -27.3144   19.0007 H   0  0  0  0  0  0
  -23.7417  -30.5989   19.4036 H   0  0  0  0  0  0
  -22.7435  -29.2499   19.8648 H   0  0  0  0  0  0
  -25.1287  -36.1984   25.0837 H   0  0  0  0  0  0
  -20.9976  -28.3255   24.1416 H   0  0  0  0  0  0
  -20.5674  -26.2306   23.3605 H   0  0  0  0  0  0
  -21.6636  -26.7437   22.1208 H   0  0  0  0  0  0
  -19.6906  -25.6305   21.1243 H   0  0  0  0  0  0
  -19.6679  -27.3206   20.6750 H   0  0  0  0  0  0
  -17.4197  -26.6695   21.4024 H   0  0  0  0  0  0
  -18.0307  -26.0059   22.9008 H   0  0  0  0  0  0
  -19.7925  -30.7287   24.2258 H   0  0  0  0  0  0
  -17.5003  -31.6267   24.5178 H   0  0  0  0  0  0
  -15.5351  -30.2998   23.7637 H   0  0  0  0  0  0
  -15.8671  -28.0837   22.7047 H   0  0  0  0  0  0
  -24.5886  -30.7041   25.7784 H   0  0  0  0  0  0
  -24.8903  -32.2855   26.4910 H   0  0  0  0  0  0
  -25.8059  -30.8857   27.0212 H   0  0  0  0  0  0
  -26.2838  -29.6777   24.1146 H   0  0  0  0  0  0
  -27.4012  -29.7242   25.4601 H   0  0  0  0  0  0
  -27.8711  -30.4313   23.9307 H   0  0  0  0  0  0
  -27.2653  -33.3600   26.2074 H   0  0  0  0  0  0
  -28.3841  -32.6854   25.0307 H   0  0  0  0  0  0
  -28.0696  -31.8407   26.5389 H   0  0  0  0  0  0
  -28.2616  -38.0111   24.7509 H   0  0  0  0  0  0
  -28.1078  -36.2634   24.6304 H   0  0  0  0  0  0
  -27.2306  -37.1485   25.8877 H   0  0  0  0  0  0
  -20.9327  -29.8780   21.6919 H   0  0  0  0  0  0
  -26.0196  -38.2876   24.1388 H   0  0  0  0  0  0
  -30.0728  -17.7371   18.2031 H   0  0  0  0  0  0
  -28.8860  -16.4747   18.5101 H   0  0  0  0  0  0
  -30.5787  -16.0669   18.2704 H   0  0  0  0  0  0
  -31.4268  -20.1025   24.2812 H   0  0  0  0  0  0
  -30.0019  -19.1033   24.0718 H   0  0  0  0  0  0
  -29.9310  -20.8236   23.7825 H   0  0  0  0  0  0
  -32.5723  -21.1332   22.1978 H   0  0  0  0  0  0
  -31.1681  -21.7357   21.3593 H   0  0  0  0  0  0
  -32.1829  -20.5530   20.5939 H   0  0  0  0  0  0
  -32.7217  -18.6773   23.0419 H   0  0  0  0  0  0
  -32.5437  -18.3692   21.3468 H   0  0  0  0  0  0
  -31.5313  -17.5455   22.5326 H   0  0  0  0  0  0
  -29.6426  -16.7432   22.8359 H   0  0  0  0  0  0
  -30.0107  -15.0528   23.0421 H   0  0  0  0  0  0
  -28.4173  -15.5761   22.4863 H   0  0  0  0  0  0
  -29.2955  -22.0295   22.1939 H   0  0  0  0  0  0
  -27.6275  -21.6693   22.3429 H   0  0  0  0  0  0
  -27.3833  -22.2940   19.8535 H   0  0  0  0  0  0
  -28.9982  -22.9040   19.8676 H   0  0  0  0  0  0
  -27.0056  -23.9825   21.9114 H   0  0  0  0  0  0
  -26.6768  -24.3633   20.2819 H   0  0  0  0  0  0
  -29.4413  -25.1278   21.1364 H   0  0  0  0  0  0
  -28.2080  -25.8823   22.0647 H   0  0  0  0  0  0
  -31.1867  -17.2161   20.2931 H   0  0  0  0  0  0
  1 25  1  0  0  0
  1 30  2  0  0  0
  1 87  1  0  0  0
  2  3  1  0  0  0
  2 25  1  0  0  0
  2 88  1  0  0  0
  2 89  1  0  0  0
  3  4  1  0  0  0
  3 90  1  0  0  0
  3 91  1  0  0  0
  4  5  1  0  0  0
  4 92  1  0  0  0
  4 93  1  0  0  0
  5  6  1  0  0  0
  5 26  1  0  0  0
  5 94  1  0  0  0
  6 25  1  0  0  0
  6 95  1  0  0  0
  6 96  1  0  0  0
  7  8  2  0  0  0
  7 26  1  0  0  0
  7 29  1  0  0  0
  8  9  1  0  0  0
  8 22  1  0  0  0
  9 10  1  0  0  0
  9 27  2  0  0  0
 10 11  2  0  0  0
 10 15  1  0  0  0
 11 12  1  0  0  0
 11 97  1  0  0  0
 12 13  2  0  0  0
 12 98  1  0  0  0
 13 14  1  0  0  0
 13 31  1  0  0  0
 14 15  2  0  0  0
 14 99  1  0  0  0
 15100  1  0  0  0
 16 17  2  0  0  0
 16 21  1  0  0  0
 16 31  1  0  0  0
 17 18  1  0  0  0
 17101  1  0  0  0
 18 19  2  0  0  0
 18102  1  0  0  0
 19 20  1  0  0  0
 19 24  1  0  0  0
 20 21  2  0  0  0
 20103  1  0  0  0
 21 23  1  0  0  0
 22 28  1  0  0  0
 22 32  2  0  0  0
 26 27  1  0  0  0
 28104  1  0  0  0
 28105  1  0  0  0
 29106  1  0  0  0
 29107  1  0  0  0
 33 34  1  0  0  0
 33 66  1  0  0  0
 33 70  2  0  0  0
 34 36  1  0  0  0
 34 59  1  0  0  0
 34108  1  0  0  0
 35 44  2  0  0  0
 35 45  1  0  0  0
 35 68  1  0  0  0
 36 56  1  0  0  0
 36109  1  0  0  0
 37 39  1  0  0  0
 37 47  1  0  0  0
 37 66  1  0  0  0
 37110  1  0  0  0
 38 43  2  0  0  0
 38 46  1  0  0  0
 38 47  1  0  0  0
 39 64  1  0  0  0
 39 67  2  0  0  0
 40 52  1  0  0  0
 40 53  2  0  0  0
 40 58  1  0  0  0
 41111  1  0  0  0
 41112  1  0  0  0
 41113  1  0  0  0
 41 48  1  0  0  0
 42 43  1  0  0  0
 42 66  1  0  0  0
 42114  1  0  0  0
 42115  1  0  0  0
 43 44  1  0  0  0
 44116  1  0  0  0
 45 46  2  0  0  0
 45117  1  0  0  0
 46118  1  0  0  0
 47119  1  0  0  0
 47120  1  0  0  0
 48 56  1  0  0  0
 48 65  1  0  0  0
 48121  1  0  0  0
 49 50  1  0  0  0
 49 53  1  0  0  0
 49 64  1  0  0  0
 49122  1  0  0  0
 50 51  1  0  0  0
 50123  1  0  0  0
 50124  1  0  0  0
 51 52  1  0  0  0
 51125  1  0  0  0
 51126  1  0  0  0
 52127  1  0  0  0
 52128  1  0  0  0
 53 54  1  0  0  0
 54 55  2  0  0  0
 54129  1  0  0  0
 55 57  1  0  0  0
 55130  1  0  0  0
 56 69  2  0  0  0
 57 58  2  0  0  0
 57131  1  0  0  0
 58132  1  0  0  0
 59 60  1  0  0  0
 59 61  1  0  0  0
 59 62  1  0  0  0
 60133  1  0  0  0
 60134  1  0  0  0
 60135  1  0  0  0
 61136  1  0  0  0
 61137  1  0  0  0
 61138  1  0  0  0
 62139  1  0  0  0
 62140  1  0  0  0
 62141  1  0  0  0
 63 65  1  0  0  0
 63142  1  0  0  0
 63143  1  0  0  0
 63144  1  0  0  0
 64145  1  0  0  0
 65146  1  0  0  0
 68 81  1  0  0  0
 71 78  1  0  0  0
 71 84  2  0  0  0
 71 86  1  0  0  0
 72 82  1  0  0  0
 72 85  2  0  0  0
 72 86  1  0  0  0
 73147  1  0  0  0
 73148  1  0  0  0
 73149  1  0  0  0
 73 82  1  0  0  0
 74150  1  0  0  0
 74151  1  0  0  0
 74152  1  0  0  0
 74 83  1  0  0  0
 75 83  1  0  0  0
 75153  1  0  0  0
 75154  1  0  0  0
 75155  1  0  0  0
 76 83  1  0  0  0
 76156  1  0  0  0
 76157  1  0  0  0
 76158  1  0  0  0
 77 87  1  0  0  0
 77159  1  0  0  0
 77160  1  0  0  0
 77161  1  0  0  0
 78 79  1  0  0  0
 78162  1  0  0  0
 78163  1  0  0  0
 79 80  1  0  0  0
 79164  1  0  0  0
 79165  1  0  0  0
 80 81  1  0  0  0
 80166  1  0  0  0
 80167  1  0  0  0
 81168  1  0  0  0
 81169  1  0  0  0
 82 87  1  0  0  0
 82170  1  0  0  0
 83 86  1  0  0  0
 84 85  1  0  0  0
M  ISO  4   1 100  68 101  81 101  87 100
M  END
> <chiral flag>
0

> <version>
0

> <s_m_source_file>
/data/baiqing/PycharmProjects/Reinvent-master-3.2/result/LINK_invent/BTK/process_docking_weight1_custom_sum_contain_oxygen_bond_distance_aromatic_linkinvent_7_9_3/rearranged_h_0067.sdf

> <i_m_source_file_index>
71

> <r_mmod_Potential_Energy-OPLS-2005>
273.820556640625

> <r_mmod_Stretch_Energy-OPLS-2005>
86.5122833251953

> <r_mmod_Bend_Energy-OPLS-2005>
189.001541137695

> <r_mmod_Torsional_Energy-OPLS-2005>
344.447479248047

> <r_mmod_Improper_Torsional_Energy-OPLS-2005>
10.2935447692871

> <r_mmod_Van_der_Waal_Energy-OPLS-2005>
139.138626098633

> <r_mmod_Electrostatic_Energy-OPLS-2005>
-321.903289794922

> <r_mmod_Solvation_Energy-OPLS-2005>
-201.745635986328

> <b_mmod_Minimization_Converged-OPLS-2005>
0

> <r_mmod_RMS_Derivative-OPLS-2005>
5.06181621551514

$$$$
74
                    3D
 Structure written by MMmdl.
164173  0  0  1  0            999 V2000
  -30.6702  -14.5994   20.4544 C   0  0  0  0  0  0
  -30.4155  -12.3516   19.4767 C   0  0  0  0  0  0
  -29.5109  -12.4941   18.2329 C   0  0  0  0  0  0
  -28.0264  -12.3534   18.6247 C   0  0  0  0  0  0
  -27.6456  -13.2293   19.8496 C   0  0  2  0  0  0
  -28.6843  -13.1301   20.9848 C   0  0  0  0  0  0
  -25.2542  -13.8201   20.5640 C   0  0  0  0  0  0
  -24.1817  -13.0455   20.9127 C   0  0  0  0  0  0
  -24.6409  -11.6926   20.8691 C   0  0  0  0  0  0
  -23.9089  -10.4298   21.0389 C   0  0  0  0  0  0
  -24.3636   -9.4215   21.9180 C   0  0  0  0  0  0
  -23.6284   -8.2266   22.0762 C   0  0  0  0  0  0
  -22.4266   -8.0303   21.3547 C   0  0  0  0  0  0
  -21.9907   -9.0267   20.4637 C   0  0  0  0  0  0
  -22.7250  -10.2138   20.3045 C   0  0  0  0  0  0
  -21.6853   -6.0729   22.5256 C   0  0  0  0  0  0
  -21.4004   -6.5624   23.8191 C   0  0  0  0  0  0
  -21.3663   -5.6779   24.9164 C   0  0  0  0  0  0
  -21.6069   -4.3044   24.7213 C   0  0  0  0  0  0
  -21.8823   -3.8128   23.4329 C   0  0  0  0  0  0
  -21.9175   -4.6951   22.3383 C   0  0  0  0  0  0
  -22.7837  -13.5244   21.1806 C   0  0  0  0  0  0
  -22.1632   -4.2123   21.0968 F   0  0  0  0  0  0
  -21.5652   -3.4539   25.7741 F   0  0  0  0  0  0
  -30.0086  -13.4050   20.4256 N   0  0  0  0  0  0
  -26.2959  -12.9406   20.3248 N   0  0  0  0  0  0
  -25.9336  -11.6539   20.5690 N   0  0  0  0  0  0
  -22.0519  -12.8220   22.0379 N   0  0  0  0  0  0
  -25.4302  -15.1912   20.4062 N   0  0  0  0  0  0
  -31.8775  -14.6614   20.1999 O   0  0  0  0  0  0
  -21.6642   -6.8877   21.4225 O   0  0  0  0  0  0
  -22.3492  -14.5547   20.6670 O   0  0  0  0  0  0
  -24.6245  -31.8624   23.2044 C   0  0  0  0  0  0
  -25.9097  -32.4800   23.8380 C   0  0  1  0  0  0
  -27.2279  -27.3587   20.1256 C   0  0  0  0  0  0
  -25.5937  -33.8593   24.2297 N   0  0  0  0  0  0
  -23.4157  -30.4842   21.5440 C   0  0  2  0  0  0
  -24.8629  -28.9341   20.1176 C   0  0  0  0  0  0
  -22.7449  -29.4658   22.4958 C   0  0  0  0  0  0
  -18.0266  -28.1369   22.8502 C   0  0  0  0  0  0
  -24.1456  -36.7264   23.2651 C   0  0  0  0  0  0
  -25.9501  -30.8059   21.3656 C   0  0  0  0  0  0
  -26.0267  -29.4310   20.7193 C   0  0  0  0  0  0
  -27.2161  -28.6522   20.7168 C   0  0  0  0  0  0
  -26.0512  -26.8973   19.5071 C   0  0  0  0  0  0
  -24.8739  -27.6701   19.5023 C   0  0  0  0  0  0
  -23.6288  -29.8107   20.1615 C   0  0  0  0  0  0
  -25.4079  -36.3080   24.0351 C   0  0  1  0  0  0
  -20.5881  -28.3681   23.1268 C   0  0  2  0  0  0
  -20.6768  -26.9411   22.5387 C   0  0  0  0  0  0
  -19.5730  -26.6377   21.5201 C   0  0  0  0  0  0
  -18.1906  -26.7928   22.1606 C   0  0  0  0  0  0
  -19.1525  -28.8840   23.2893 C   0  0  0  0  0  0
  -18.9468  -30.1453   23.8896 C   0  0  0  0  0  0
  -17.6474  -30.6604   24.0561 C   0  0  0  0  0  0
  -25.9036  -34.9462   23.5113 C   0  0  0  0  0  0
  -16.5356  -29.9097   23.6345 C   0  0  0  0  0  0
  -16.7261  -28.6502   23.0382 C   0  0  0  0  0  0
  -26.4489  -31.6614   25.0744 C   0  0  0  0  0  0
  -25.3749  -31.3729   26.1503 C   0  0  0  0  0  0
  -27.0377  -30.3077   24.6160 C   0  0  0  0  0  0
  -27.6041  -32.4369   25.7502 C   0  0  0  0  0  0
  -27.5549  -37.1772   24.8478 C   0  0  0  0  0  0
  -21.4167  -29.3066   22.3692 N   0  0  0  0  0  0
  -26.4239  -37.3795   23.9464 N   0  0  0  0  0  0
  -24.6820  -31.0680   22.0952 N   0  0  0  0  0  0
  -23.4182  -28.8193   23.3023 O   0  0  0  0  0  0
  -28.3534  -26.5474   20.0890 O   0  0  0  0  0  0
  -26.5592  -34.8945   22.4667 O   0  0  0  0  0  0
  -23.5415  -32.1377   23.7388 O   0  0  0  0  0  0
  -29.5179  -23.2550   20.3975 C   0  0  0  0  0  0
  -29.4301  -21.8582   20.1374 C   0  0  0  0  0  0
  -29.8345  -16.5529   19.0850 C   0  0  0  0  0  0
  -28.3643  -24.0148   20.7319 C   0  0  0  0  0  0
  -29.9050  -15.9279   20.3518 C   0  0  0  0  0  0
  -28.1816  -21.1889   20.2089 C   0  0  0  0  0  0
  -27.1633  -23.2635   20.8190 C   0  0  0  0  0  0
  -28.9310  -17.8898   21.2431 C   0  0  0  0  0  0
  -28.8228  -18.5087   19.9484 C   0  0  0  0  0  0
  -25.8253  -23.8618   21.2198 C   0  0  0  0  0  0
  -28.4326  -18.5429   22.5210 C   0  0  0  0  0  0
  -28.0790  -20.0603   18.0327 C   0  0  0  0  0  0
  -28.4764  -25.5278   21.1256 C   0  0  0  0  0  0
  -27.9155  -19.7653   19.5570 C   0  0  2  0  0  0
  -26.4228  -19.2953   19.7457 C   0  0  0  0  0  0
  -29.3056  -17.7886   18.8883 N   0  0  0  0  0  0
  -29.4673  -16.6345   21.4381 N   0  0  0  0  0  0
  -27.0938  -21.9323   20.5470 N   0  0  0  0  0  0
  -25.5442  -20.0939   19.1267 F   0  0  0  0  0  0
  -26.2447  -18.0801   19.2213 F   0  0  0  0  0  0
  -26.0652  -19.2189   21.0296 F   0  0  0  0  0  0
  -31.4671  -12.4259   19.1929 H   0  0  0  0  0  0
  -30.3004  -11.3659   19.9297 H   0  0  0  0  0  0
  -29.7745  -11.7476   17.4830 H   0  0  0  0  0  0
  -29.6735  -13.4630   17.7634 H   0  0  0  0  0  0
  -27.8419  -11.3013   18.8416 H   0  0  0  0  0  0
  -27.3910  -12.6055   17.7738 H   0  0  0  0  0  0
  -27.6551  -14.2597   19.4960 H   0  0  0  0  0  0
  -28.6723  -12.1376   21.4391 H   0  0  0  0  0  0
  -28.4457  -13.8355   21.7830 H   0  0  0  0  0  0
  -25.2777   -9.5681   22.4759 H   0  0  0  0  0  0
  -23.9970   -7.4662   22.7502 H   0  0  0  0  0  0
  -21.0850   -8.8797   19.8923 H   0  0  0  0  0  0
  -22.3718  -10.9701   19.6140 H   0  0  0  0  0  0
  -21.1997   -7.6134   23.9687 H   0  0  0  0  0  0
  -21.1478   -6.0517   25.9072 H   0  0  0  0  0  0
  -22.0600   -2.7593   23.2842 H   0  0  0  0  0  0
  -22.4121  -11.9803   22.4640 H   0  0  0  0  0  0
  -21.1168  -13.1254   22.2707 H   0  0  0  0  0  0
  -24.6724  -15.8564   20.5092 H   0  0  0  0  0  0
  -26.2903  -15.6219   20.0931 H   0  0  0  0  0  0
  -26.7180  -32.5473   23.1151 H   0  0  0  0  0  0
  -25.0228  -33.9765   25.0549 H   0  0  0  0  0  0
  -22.7102  -31.3059   21.3970 H   0  0  0  0  0  0
  -23.3763  -35.9551   23.3265 H   0  0  0  0  0  0
  -24.3574  -36.8922   22.2080 H   0  0  0  0  0  0
  -23.7143  -37.6426   23.6689 H   0  0  0  0  0  0
  -26.0714  -31.5632   20.5890 H   0  0  0  0  0  0
  -26.8365  -30.8633   21.9855 H   0  0  0  0  0  0
  -28.1177  -29.0336   21.1752 H   0  0  0  0  0  0
  -26.0484  -25.9291   19.0278 H   0  0  0  0  0  0
  -23.9835  -27.2846   19.0246 H   0  0  0  0  0  0
  -23.7436  -30.5816   19.3982 H   0  0  0  0  0  0
  -22.7518  -29.2339   19.8633 H   0  0  0  0  0  0
  -25.1250  -36.1908   25.0842 H   0  0  0  0  0  0
  -20.9972  -28.3227   24.1383 H   0  0  0  0  0  0
  -20.5629  -26.2313   23.3588 H   0  0  0  0  0  0
  -21.6636  -26.7427   22.1185 H   0  0  0  0  0  0
  -19.6892  -25.6275   21.1255 H   0  0  0  0  0  0
  -19.6654  -27.3164   20.6706 H   0  0  0  0  0  0
  -17.4179  -26.6704   21.3994 H   0  0  0  0  0  0
  -18.0291  -26.0035   22.8953 H   0  0  0  0  0  0
  -19.7953  -30.7273   24.2229 H   0  0  0  0  0  0
  -17.5042  -31.6291   24.5141 H   0  0  0  0  0  0
  -15.5367  -30.3014   23.7683 H   0  0  0  0  0  0
  -15.8648  -28.0830   22.7118 H   0  0  0  0  0  0
  -24.5919  -30.7079   25.7854 H   0  0  0  0  0  0
  -24.8969  -32.2892   26.4977 H   0  0  0  0  0  0
  -25.8117  -30.8891   27.0258 H   0  0  0  0  0  0
  -26.2974  -29.6794   24.1207 H   0  0  0  0  0  0
  -27.4183  -29.7347   25.4632 H   0  0  0  0  0  0
  -27.8761  -30.4454   23.9328 H   0  0  0  0  0  0
  -27.2664  -33.3715   26.2001 H   0  0  0  0  0  0
  -28.3878  -32.6866   25.0331 H   0  0  0  0  0  0
  -28.0681  -31.8560   26.5487 H   0  0  0  0  0  0
  -28.2542  -38.0102   24.7608 H   0  0  0  0  0  0
  -28.1066  -36.2643   24.6163 H   0  0  0  0  0  0
  -27.2310  -37.1250   25.8895 H   0  0  0  0  0  0
  -20.9319  -29.8817   21.6943 H   0  0  0  0  0  0
  -26.0097  -38.2853   24.1533 H   0  0  0  0  0  0
  -30.4804  -23.7438   20.3327 H   0  0  0  0  0  0
  -30.3112  -21.3211   19.8120 H   0  0  0  0  0  0
  -30.2333  -16.0650   18.2070 H   0  0  0  0  0  0
  -25.9000  -24.8353   21.6951 H   0  0  0  0  0  0
  -25.3169  -23.2064   21.9269 H   0  0  0  0  0  0
  -25.1812  -23.9643   20.3472 H   0  0  0  0  0  0
  -28.2833  -19.6162   22.4177 H   0  0  0  0  0  0
  -29.1448  -18.3879   23.3344 H   0  0  0  0  0  0
  -27.4887  -18.0915   22.8275 H   0  0  0  0  0  0
  -29.1131  -20.2933   17.7764 H   0  0  0  0  0  0
  -27.4797  -20.9156   17.7223 H   0  0  0  0  0  0
  -27.7607  -19.2258   17.4068 H   0  0  0  0  0  0
  -29.4711  -25.6641   21.5501 H   0  0  0  0  0  0
  -27.8160  -25.7522   21.9618 H   0  0  0  0  0  0
  1 25  1  0  0  0
  1 30  2  0  0  0
  1 75  1  0  0  0
  2  3  1  0  0  0
  2 25  1  0  0  0
  2 92  1  0  0  0
  2 93  1  0  0  0
  3  4  1  0  0  0
  3 94  1  0  0  0
  3 95  1  0  0  0
  4  5  1  0  0  0
  4 96  1  0  0  0
  4 97  1  0  0  0
  5  6  1  0  0  0
  5 26  1  0  0  0
  5 98  1  0  0  0
  6 25  1  0  0  0
  6 99  1  0  0  0
  6100  1  0  0  0
  7  8  2  0  0  0
  7 26  1  0  0  0
  7 29  1  0  0  0
  8  9  1  0  0  0
  8 22  1  0  0  0
  9 10  1  0  0  0
  9 27  2  0  0  0
 10 11  2  0  0  0
 10 15  1  0  0  0
 11 12  1  0  0  0
 11101  1  0  0  0
 12 13  2  0  0  0
 12102  1  0  0  0
 13 14  1  0  0  0
 13 31  1  0  0  0
 14 15  2  0  0  0
 14103  1  0  0  0
 15104  1  0  0  0
 16 17  2  0  0  0
 16 21  1  0  0  0
 16 31  1  0  0  0
 17 18  1  0  0  0
 17105  1  0  0  0
 18 19  2  0  0  0
 18106  1  0  0  0
 19 20  1  0  0  0
 19 24  1  0  0  0
 20 21  2  0  0  0
 20107  1  0  0  0
 21 23  1  0  0  0
 22 28  1  0  0  0
 22 32  2  0  0  0
 26 27  1  0  0  0
 28108  1  0  0  0
 28109  1  0  0  0
 29110  1  0  0  0
 29111  1  0  0  0
 33 34  1  0  0  0
 33 66  1  0  0  0
 33 70  2  0  0  0
 34 36  1  0  0  0
 34 59  1  0  0  0
 34112  1  0  0  0
 35 44  2  0  0  0
 35 45  1  0  0  0
 35 68  1  0  0  0
 36 56  1  0  0  0
 36113  1  0  0  0
 37 39  1  0  0  0
 37 47  1  0  0  0
 37 66  1  0  0  0
 37114  1  0  0  0
 38 43  2  0  0  0
 38 46  1  0  0  0
 38 47  1  0  0  0
 39 64  1  0  0  0
 39 67  2  0  0  0
 40 52  1  0  0  0
 40 53  2  0  0  0
 40 58  1  0  0  0
 41115  1  0  0  0
 41116  1  0  0  0
 41117  1  0  0  0
 41 48  1  0  0  0
 42 43  1  0  0  0
 42 66  1  0  0  0
 42118  1  0  0  0
 42119  1  0  0  0
 43 44  1  0  0  0
 44120  1  0  0  0
 45 46  2  0  0  0
 45121  1  0  0  0
 46122  1  0  0  0
 47123  1  0  0  0
 47124  1  0  0  0
 48 56  1  0  0  0
 48 65  1  0  0  0
 48125  1  0  0  0
 49 50  1  0  0  0
 49 53  1  0  0  0
 49 64  1  0  0  0
 49126  1  0  0  0
 50 51  1  0  0  0
 50127  1  0  0  0
 50128  1  0  0  0
 51 52  1  0  0  0
 51129  1  0  0  0
 51130  1  0  0  0
 52131  1  0  0  0
 52132  1  0  0  0
 53 54  1  0  0  0
 54 55  2  0  0  0
 54133  1  0  0  0
 55 57  1  0  0  0
 55134  1  0  0  0
 56 69  2  0  0  0
 57 58  2  0  0  0
 57135  1  0  0  0
 58136  1  0  0  0
 59 60  1  0  0  0
 59 61  1  0  0  0
 59 62  1  0  0  0
 60137  1  0  0  0
 60138  1  0  0  0
 60139  1  0  0  0
 61140  1  0  0  0
 61141  1  0  0  0
 61142  1  0  0  0
 62143  1  0  0  0
 62144  1  0  0  0
 62145  1  0  0  0
 63 65  1  0  0  0
 63146  1  0  0  0
 63147  1  0  0  0
 63148  1  0  0  0
 64149  1  0  0  0
 65150  1  0  0  0
 68 83  1  0  0  0
 71 72  2  0  0  0
 71 74  1  0  0  0
 71151  1  0  0  0
 72 76  1  0  0  0
 72152  1  0  0  0
 73 75  2  0  0  0
 73 86  1  0  0  0
 73153  1  0  0  0
 74 77  2  0  0  0
 74 83  1  0  0  0
 75 87  1  0  0  0
 76 84  1  0  0  0
 76 88  2  0  0  0
 77 80  1  0  0  0
 77 88  1  0  0  0
 78 79  1  0  0  0
 78 81  1  0  0  0
 78 87  2  0  0  0
 79 84  1  0  0  0
 79 86  2  0  0  0
 80154  1  0  0  0
 80155  1  0  0  0
 80156  1  0  0  0
 81157  1  0  0  0
 81158  1  0  0  0
 81159  1  0  0  0
 82160  1  0  0  0
 82161  1  0  0  0
 82162  1  0  0  0
 82 84  1  0  0  0
 83163  1  0  0  0
 83164  1  0  0  0
 84 85  1  0  0  0
 85 89  1  0  0  0
 85 90  1  0  0  0
 85 91  1  0  0  0
M  ISO  4   1 100  68 101  75 100  83 101
M  END
> <chiral flag>
0

> <version>
0

> <s_m_source_file>
/data/baiqing/PycharmProjects/Reinvent-master-3.2/result/LINK_invent/BTK/process_docking_weight1_custom_sum_contain_oxygen_bond_distance_aromatic_linkinvent_7_9_3/rearranged_h_0067.sdf

> <i_m_source_file_index>
72

> <r_mmod_Potential_Energy-OPLS-2005>
372.494598388672

> <r_mmod_Stretch_Energy-OPLS-2005>
82.6997604370117

> <r_mmod_Bend_Energy-OPLS-2005>
157.99641418457

> <r_mmod_Torsional_Energy-OPLS-2005>
289.287567138672

> <r_mmod_Improper_Torsional_Energy-OPLS-2005>
17.1213836669922

> <r_mmod_Van_der_Waal_Energy-OPLS-2005>
161.05989074707

> <r_mmod_Electrostatic_Energy-OPLS-2005>
-185.801742553711

> <r_mmod_Solvation_Energy-OPLS-2005>
-189.996459960938

> <b_mmod_Minimization_Converged-OPLS-2005>
0

> <r_mmod_RMS_Derivative-OPLS-2005>
3.7224645614624

$$$$
75
                    3D
 Structure written by MMmdl.
166174  0  0  1  0            999 V2000
  -30.5609  -14.8035   20.4634 C   0  0  0  0  0  0
  -30.4665  -12.5085   19.4208 C   0  0  0  0  0  0
  -29.4735  -12.4885   18.2263 C   0  0  0  0  0  0
  -28.0145  -12.2555   18.6805 C   0  0  0  0  0  0
  -27.6261  -13.1519   19.8783 C   0  0  2  0  0  0
  -28.7216  -13.0401   20.9643 C   0  0  0  0  0  0
  -25.2414  -13.7986   20.5694 C   0  0  0  0  0  0
  -24.1628  -13.0371   20.9229 C   0  0  0  0  0  0
  -24.6184  -11.6863   20.8931 C   0  0  0  0  0  0
  -23.8890  -10.4301   21.0521 C   0  0  0  0  0  0
  -24.3524   -9.4233   21.9234 C   0  0  0  0  0  0
  -23.6227   -8.2272   22.0840 C   0  0  0  0  0  0
  -22.4215   -8.0331   21.3637 C   0  0  0  0  0  0
  -21.9827   -9.0278   20.4731 C   0  0  0  0  0  0
  -22.7109  -10.2143   20.3111 C   0  0  0  0  0  0
  -21.6833   -6.0802   22.5270 C   0  0  0  0  0  0
  -21.3997   -6.5723   23.8204 C   0  0  0  0  0  0
  -21.3584   -5.6847   24.9133 C   0  0  0  0  0  0
  -21.5989   -4.3121   24.7169 C   0  0  0  0  0  0
  -21.8835   -3.8236   23.4294 C   0  0  0  0  0  0
  -21.9214   -4.7055   22.3368 C   0  0  0  0  0  0
  -22.7698  -13.5332   21.1813 C   0  0  0  0  0  0
  -22.1691   -4.2270   21.0929 F   0  0  0  0  0  0
  -21.5566   -3.4587   25.7672 F   0  0  0  0  0  0
  -29.9929  -13.5292   20.3958 N   0  0  0  0  0  0
  -26.2842  -12.9016   20.3671 N   0  0  0  0  0  0
  -25.9134  -11.6295   20.6186 N   0  0  0  0  0  0
  -22.0298  -12.8382   22.0372 N   0  0  0  0  0  0
  -25.3913  -15.1649   20.3859 N   0  0  0  0  0  0
  -31.7581  -14.8784   20.1634 O   0  0  0  0  0  0
  -21.6617   -6.8920   21.4250 O   0  0  0  0  0  0
  -22.3477  -14.5712   20.6723 O   0  0  0  0  0  0
  -24.6222  -31.8623   23.2029 C   0  0  0  0  0  0
  -25.9077  -32.4805   23.8354 C   0  0  1  0  0  0
  -27.2345  -27.3378   20.1359 C   0  0  0  0  0  0
  -25.5905  -33.8593   24.2281 N   0  0  0  0  0  0
  -23.4154  -30.4843   21.5432 C   0  0  2  0  0  0
  -24.8677  -28.9351   20.1161 C   0  0  0  0  0  0
  -22.7424  -29.4657   22.4917 C   0  0  0  0  0  0
  -18.0278  -28.1381   22.8487 C   0  0  0  0  0  0
  -24.1484  -36.7287   23.2630 C   0  0  0  0  0  0
  -25.9550  -30.8002   21.3718 C   0  0  0  0  0  0
  -26.0345  -29.4272   20.7163 C   0  0  0  0  0  0
  -27.2235  -28.6432   20.7090 C   0  0  0  0  0  0
  -26.0513  -26.8850   19.5183 C   0  0  0  0  0  0
  -24.8781  -27.6683   19.5055 C   0  0  0  0  0  0
  -23.6324  -29.8127   20.1608 C   0  0  0  0  0  0
  -25.4116  -36.3087   24.0328 C   0  0  1  0  0  0
  -20.5871  -28.3696   23.1267 C   0  0  2  0  0  0
  -20.6768  -26.9413   22.5402 C   0  0  0  0  0  0
  -19.5754  -26.6383   21.5202 C   0  0  0  0  0  0
  -18.1934  -26.7926   22.1612 C   0  0  0  0  0  0
  -19.1522  -28.8857   23.2889 C   0  0  0  0  0  0
  -18.9457  -30.1459   23.8910 C   0  0  0  0  0  0
  -17.6456  -30.6592   24.0563 C   0  0  0  0  0  0
  -25.9060  -34.9464   23.5112 C   0  0  0  0  0  0
  -16.5351  -29.9092   23.6325 C   0  0  0  0  0  0
  -16.7268  -28.6501   23.0372 C   0  0  0  0  0  0
  -26.4476  -31.6601   25.0701 C   0  0  0  0  0  0
  -25.3724  -31.3719   26.1426 C   0  0  0  0  0  0
  -27.0323  -30.3028   24.6166 C   0  0  0  0  0  0
  -27.6045  -32.4333   25.7482 C   0  0  0  0  0  0
  -27.5610  -37.1767   24.8436 C   0  0  0  0  0  0
  -21.4148  -29.3051   22.3644 N   0  0  0  0  0  0
  -26.4281  -37.3804   23.9445 N   0  0  0  0  0  0
  -24.6824  -31.0642   22.0970 N   0  0  0  0  0  0
  -23.4148  -28.8187   23.2987 O   0  0  0  0  0  0
  -28.3619  -26.5100   20.1370 O   0  0  0  0  0  0
  -26.5626  -34.8932   22.4676 O   0  0  0  0  0  0
  -23.5382  -32.1397   23.7373 O   0  0  0  0  0  0
  -31.4022  -19.6541   20.4309 C   0  0  0  0  0  0
  -31.5816  -18.2978   20.6362 C   0  0  0  0  0  0
  -30.2818  -17.6985   20.5460 C   0  0  0  0  0  0
  -32.8958  -17.6177   20.8474 C   0  0  0  0  0  0
  -28.7461  -16.2277   19.3840 C   0  0  0  0  0  0
  -28.6037  -22.2979   22.0345 C   0  0  0  0  0  0
  -30.8229  -22.9226   21.0520 C   0  0  0  0  0  0
  -28.7518  -23.8806   19.9719 C   0  0  0  0  0  0
  -29.3454  -21.2160   19.8514 C   0  0  0  0  0  0
  -28.2610  -25.1785   20.7758 C   0  0  0  0  0  0
  -29.6880  -16.2013   20.6407 C   0  0  2  0  0  0
  -29.3616  -22.5762   20.7202 C   0  0  0  0  0  0
  -28.9671  -16.1735   22.0442 C   0  0  0  0  0  0
  -29.4044  -18.7407   20.3669 N   0  0  0  0  0  0
  -30.0573  -19.9439   20.2865 N   0  0  0  0  0  0
  -28.6899  -17.3678   22.5748 F   0  0  0  0  0  0
  -27.7970  -15.5502   21.9904 F   0  0  0  0  0  0
  -29.7377  -15.5616   22.9482 F   0  0  0  0  0  0
  -31.4630  -12.7275   19.0359 H   0  0  0  0  0  0
  -30.5623  -11.5294   19.8935 H   0  0  0  0  0  0
  -29.7479  -11.7089   17.5116 H   0  0  0  0  0  0
  -29.5366  -13.4317   17.6855 H   0  0  0  0  0  0
  -27.9207  -11.2101   18.9770 H   0  0  0  0  0  0
  -27.3174  -12.3991   17.8534 H   0  0  0  0  0  0
  -27.5523  -14.1430   19.4866 H   0  0  0  0  0  0
  -28.8355  -11.9888   21.2398 H   0  0  0  0  0  0
  -28.4681  -13.4857   21.9160 H   0  0  0  0  0  0
  -25.2733   -9.5755   22.4679 H   0  0  0  0  0  0
  -24.0035   -7.4696   22.7563 H   0  0  0  0  0  0
  -21.0783   -8.8748   19.9014 H   0  0  0  0  0  0
  -22.3641  -10.9664   19.6168 H   0  0  0  0  0  0
  -21.2012   -7.6247   23.9707 H   0  0  0  0  0  0
  -21.1340   -6.0592   25.9012 H   0  0  0  0  0  0
  -22.0667   -2.7736   23.2730 H   0  0  0  0  0  0
  -22.4005  -12.0189   22.4911 H   0  0  0  0  0  0
  -21.0841  -13.1319   22.2382 H   0  0  0  0  0  0
  -24.6233  -15.8041   20.5624 H   0  0  0  0  0  0
  -26.2819  -15.6342   20.2900 H   0  0  0  0  0  0
  -26.7125  -32.5480   23.1094 H   0  0  0  0  0  0
  -25.0049  -33.9753   25.0418 H   0  0  0  0  0  0
  -22.7097  -31.3044   21.3977 H   0  0  0  0  0  0
  -23.3806  -35.9549   23.3192 H   0  0  0  0  0  0
  -24.3597  -36.9021   22.2066 H   0  0  0  0  0  0
  -23.7142  -37.6415   23.6727 H   0  0  0  0  0  0
  -26.0849  -31.5674   20.6057 H   0  0  0  0  0  0
  -26.8338  -30.8481   22.0028 H   0  0  0  0  0  0
  -28.1224  -29.0273   21.1718 H   0  0  0  0  0  0
  -26.0352  -25.9125   19.0456 H   0  0  0  0  0  0
  -23.9841  -27.2838   19.0339 H   0  0  0  0  0  0
  -23.7432  -30.5874   19.4017 H   0  0  0  0  0  0
  -22.7535  -29.2381   19.8638 H   0  0  0  0  0  0
  -25.1283  -36.1940   25.0813 H   0  0  0  0  0  0
  -20.9999  -28.3309   24.1380 H   0  0  0  0  0  0
  -20.5665  -26.2318   23.3617 H   0  0  0  0  0  0
  -21.6647  -26.7444   22.1215 H   0  0  0  0  0  0
  -19.6921  -25.6297   21.1255 H   0  0  0  0  0  0
  -19.6704  -27.3174   20.6728 H   0  0  0  0  0  0
  -17.4202  -26.6687   21.4020 H   0  0  0  0  0  0
  -18.0334  -26.0071   22.9007 H   0  0  0  0  0  0
  -19.7941  -30.7266   24.2290 H   0  0  0  0  0  0
  -17.5022  -31.6276   24.5155 H   0  0  0  0  0  0
  -15.5359  -30.3006   23.7644 H   0  0  0  0  0  0
  -15.8671  -28.0818   22.7104 H   0  0  0  0  0  0
  -24.5903  -30.7076   25.7734 H   0  0  0  0  0  0
  -24.8901  -32.2868   26.4872 H   0  0  0  0  0  0
  -25.8038  -30.8868   27.0189 H   0  0  0  0  0  0
  -26.2888  -29.6781   24.1205 H   0  0  0  0  0  0
  -27.4021  -29.7290   25.4675 H   0  0  0  0  0  0
  -27.8757  -30.4300   23.9381 H   0  0  0  0  0  0
  -27.2671  -33.3648   26.2051 H   0  0  0  0  0  0
  -28.3869  -32.6885   25.0318 H   0  0  0  0  0  0
  -28.0704  -31.8463   26.5410 H   0  0  0  0  0  0
  -28.2510  -38.0182   24.7693 H   0  0  0  0  0  0
  -28.1232  -36.2738   24.6013 H   0  0  0  0  0  0
  -27.2357  -37.1099   25.8830 H   0  0  0  0  0  0
  -20.9301  -29.8753   21.6853 H   0  0  0  0  0  0
  -26.0163  -38.2850   24.1583 H   0  0  0  0  0  0
  -32.1454  -20.4348   20.3340 H   0  0  0  0  0  0
  -33.1718  -17.0493   19.9612 H   0  0  0  0  0  0
  -32.8635  -16.9368   21.6978 H   0  0  0  0  0  0
  -33.7027  -18.3254   21.0374 H   0  0  0  0  0  0
  -28.9240  -17.0583   18.7025 H   0  0  0  0  0  0
  -27.6966  -16.2991   19.6558 H   0  0  0  0  0  0
  -28.9067  -15.4020   18.6986 H   0  0  0  0  0  0
  -28.6733  -23.1243   22.7433 H   0  0  0  0  0  0
  -29.0132  -21.4209   22.5390 H   0  0  0  0  0  0
  -27.5441  -22.1035   21.8540 H   0  0  0  0  0  0
  -30.9019  -23.9006   21.5309 H   0  0  0  0  0  0
  -31.4203  -22.9611   20.1397 H   0  0  0  0  0  0
  -31.2822  -22.1860   21.7110 H   0  0  0  0  0  0
  -29.5092  -24.2281   19.2687 H   0  0  0  0  0  0
  -27.9166  -23.5740   19.3410 H   0  0  0  0  0  0
  -29.7296  -21.4597   18.8606 H   0  0  0  0  0  0
  -28.3032  -20.9492   19.6792 H   0  0  0  0  0  0
  -28.8368  -25.2647   21.6971 H   0  0  0  0  0  0
  -27.2379  -25.0071   21.1143 H   0  0  0  0  0  0
  1 25  1  0  0  0
  1 30  2  0  0  0
  1 81  1  0  0  0
  2  3  1  0  0  0
  2 25  1  0  0  0
  2 89  1  0  0  0
  2 90  1  0  0  0
  3  4  1  0  0  0
  3 91  1  0  0  0
  3 92  1  0  0  0
  4  5  1  0  0  0
  4 93  1  0  0  0
  4 94  1  0  0  0
  5  6  1  0  0  0
  5 26  1  0  0  0
  5 95  1  0  0  0
  6 25  1  0  0  0
  6 96  1  0  0  0
  6 97  1  0  0  0
  7  8  2  0  0  0
  7 26  1  0  0  0
  7 29  1  0  0  0
  8  9  1  0  0  0
  8 22  1  0  0  0
  9 10  1  0  0  0
  9 27  2  0  0  0
 10 11  2  0  0  0
 10 15  1  0  0  0
 11 12  1  0  0  0
 11 98  1  0  0  0
 12 13  2  0  0  0
 12 99  1  0  0  0
 13 14  1  0  0  0
 13 31  1  0  0  0
 14 15  2  0  0  0
 14100  1  0  0  0
 15101  1  0  0  0
 16 17  2  0  0  0
 16 21  1  0  0  0
 16 31  1  0  0  0
 17 18  1  0  0  0
 17102  1  0  0  0
 18 19  2  0  0  0
 18103  1  0  0  0
 19 20  1  0  0  0
 19 24  1  0  0  0
 20 21  2  0  0  0
 20104  1  0  0  0
 21 23  1  0  0  0
 22 28  1  0  0  0
 22 32  2  0  0  0
 26 27  1  0  0  0
 28105  1  0  0  0
 28106  1  0  0  0
 29107  1  0  0  0
 29108  1  0  0  0
 33 34  1  0  0  0
 33 66  1  0  0  0
 33 70  2  0  0  0
 34 36  1  0  0  0
 34 59  1  0  0  0
 34109  1  0  0  0
 35 44  2  0  0  0
 35 45  1  0  0  0
 35 68  1  0  0  0
 36 56  1  0  0  0
 36110  1  0  0  0
 37 39  1  0  0  0
 37 47  1  0  0  0
 37 66  1  0  0  0
 37111  1  0  0  0
 38 43  2  0  0  0
 38 46  1  0  0  0
 38 47  1  0  0  0
 39 64  1  0  0  0
 39 67  2  0  0  0
 40 52  1  0  0  0
 40 53  2  0  0  0
 40 58  1  0  0  0
 41112  1  0  0  0
 41113  1  0  0  0
 41114  1  0  0  0
 41 48  1  0  0  0
 42 43  1  0  0  0
 42 66  1  0  0  0
 42115  1  0  0  0
 42116  1  0  0  0
 43 44  1  0  0  0
 44117  1  0  0  0
 45 46  2  0  0  0
 45118  1  0  0  0
 46119  1  0  0  0
 47120  1  0  0  0
 47121  1  0  0  0
 48 56  1  0  0  0
 48 65  1  0  0  0
 48122  1  0  0  0
 49 50  1  0  0  0
 49 53  1  0  0  0
 49 64  1  0  0  0
 49123  1  0  0  0
 50 51  1  0  0  0
 50124  1  0  0  0
 50125  1  0  0  0
 51 52  1  0  0  0
 51126  1  0  0  0
 51127  1  0  0  0
 52128  1  0  0  0
 52129  1  0  0  0
 53 54  1  0  0  0
 54 55  2  0  0  0
 54130  1  0  0  0
 55 57  1  0  0  0
 55131  1  0  0  0
 56 69  2  0  0  0
 57 58  2  0  0  0
 57132  1  0  0  0
 58133  1  0  0  0
 59 60  1  0  0  0
 59 61  1  0  0  0
 59 62  1  0  0  0
 60134  1  0  0  0
 60135  1  0  0  0
 60136  1  0  0  0
 61137  1  0  0  0
 61138  1  0  0  0
 61139  1  0  0  0
 62140  1  0  0  0
 62141  1  0  0  0
 62142  1  0  0  0
 63 65  1  0  0  0
 63143  1  0  0  0
 63144  1  0  0  0
 63145  1  0  0  0
 64146  1  0  0  0
 65147  1  0  0  0
 68 80  1  0  0  0
 71 72  2  0  0  0
 71 85  1  0  0  0
 71148  1  0  0  0
 72 73  1  0  0  0
 72 74  1  0  0  0
 73 81  1  0  0  0
 73 84  2  0  0  0
 74149  1  0  0  0
 74150  1  0  0  0
 74151  1  0  0  0
 75152  1  0  0  0
 75153  1  0  0  0
 75154  1  0  0  0
 75 81  1  0  0  0
 76155  1  0  0  0
 76156  1  0  0  0
 76157  1  0  0  0
 76 82  1  0  0  0
 77 82  1  0  0  0
 77158  1  0  0  0
 77159  1  0  0  0
 77160  1  0  0  0
 78 80  1  0  0  0
 78 82  1  0  0  0
 78161  1  0  0  0
 78162  1  0  0  0
 79 82  1  0  0  0
 79 85  1  0  0  0
 79163  1  0  0  0
 79164  1  0  0  0
 80165  1  0  0  0
 80166  1  0  0  0
 81 83  1  0  0  0
 83 86  1  0  0  0
 83 87  1  0  0  0
 83 88  1  0  0  0
 84 85  1  0  0  0
M  ISO  4   1 100  68 101  80 101  81 100
M  END
> <chiral flag>
0

> <version>
0

> <s_m_source_file>
/data/baiqing/PycharmProjects/Reinvent-master-3.2/result/LINK_invent/BTK/process_docking_weight1_custom_sum_contain_oxygen_bond_distance_aromatic_linkinvent_7_9_3/rearranged_h_0067.sdf

> <i_m_source_file_index>
73

> <r_mmod_Potential_Energy-OPLS-2005>
515.309692382812

> <r_mmod_Stretch_Energy-OPLS-2005>
134.218017578125

> <r_mmod_Bend_Energy-OPLS-2005>
229.702117919922

> <r_mmod_Torsional_Energy-OPLS-2005>
250.472106933594

> <r_mmod_Improper_Torsional_Energy-OPLS-2005>
7.36859464645386

> <r_mmod_Van_der_Waal_Energy-OPLS-2005>
158.271011352539

> <r_mmod_Electrostatic_Energy-OPLS-2005>
-165.764862060547

> <r_mmod_Solvation_Energy-OPLS-2005>
-176.118957519531

> <b_mmod_Minimization_Converged-OPLS-2005>
0

> <r_mmod_RMS_Derivative-OPLS-2005>
6.57146120071411

$$$$
76
                    3D
 Structure written by MMmdl.
181189  0  0  1  0            999 V2000
  -30.7541  -14.4904   20.5450 C   0  0  0  0  0  0
  -30.4062  -12.2845   19.4681 C   0  0  0  0  0  0
  -29.5004  -12.3853   18.2226 C   0  0  0  0  0  0
  -28.0130  -12.2942   18.6153 C   0  0  0  0  0  0
  -27.6444  -13.1816   19.8305 C   0  0  2  0  0  0
  -28.6818  -13.0545   20.9657 C   0  0  0  0  0  0
  -25.2565  -13.8107   20.5624 C   0  0  0  0  0  0
  -24.1811  -13.0401   20.9160 C   0  0  0  0  0  0
  -24.6351  -11.6871   20.8724 C   0  0  0  0  0  0
  -23.9017  -10.4274   21.0421 C   0  0  0  0  0  0
  -24.3574   -9.4207   21.9208 C   0  0  0  0  0  0
  -23.6267   -8.2233   22.0750 C   0  0  0  0  0  0
  -22.4260   -8.0258   21.3524 C   0  0  0  0  0  0
  -21.9887   -9.0232   20.4634 C   0  0  0  0  0  0
  -22.7197  -10.2124   20.3072 C   0  0  0  0  0  0
  -21.6859   -6.0721   22.5263 C   0  0  0  0  0  0
  -21.4021   -6.5628   23.8188 C   0  0  0  0  0  0
  -21.3657   -5.6781   24.9147 C   0  0  0  0  0  0
  -21.6039   -4.3042   24.7200 C   0  0  0  0  0  0
  -21.8828   -3.8143   23.4322 C   0  0  0  0  0  0
  -21.9196   -4.6952   22.3376 C   0  0  0  0  0  0
  -22.7851  -13.5215   21.1854 C   0  0  0  0  0  0
  -22.1669   -4.2145   21.0953 F   0  0  0  0  0  0
  -21.5630   -3.4521   25.7711 F   0  0  0  0  0  0
  -30.0188  -13.3401   20.4276 N   0  0  0  0  0  0
  -26.2931  -12.9221   20.3167 N   0  0  0  0  0  0
  -25.9258  -11.6426   20.5730 N   0  0  0  0  0  0
  -22.0497  -12.8182   22.0400 N   0  0  0  0  0  0
  -25.4274  -15.1825   20.4078 N   0  0  0  0  0  0
  -31.8956  -14.5253   20.0795 O   0  0  0  0  0  0
  -21.6624   -6.8860   21.4226 O   0  0  0  0  0  0
  -22.3531  -14.5543   20.6763 O   0  0  0  0  0  0
  -24.6105  -31.8698   23.2122 C   0  0  0  0  0  0
  -25.9005  -32.4823   23.8421 C   0  0  1  0  0  0
  -27.2413  -27.4609   20.0910 C   0  0  0  0  0  0
  -25.5887  -33.8624   24.2354 N   0  0  0  0  0  0
  -23.3974  -30.4947   21.5505 C   0  0  2  0  0  0
  -24.8434  -28.9628   20.1166 C   0  0  0  0  0  0
  -22.7391  -29.4671   22.4990 C   0  0  0  0  0  0
  -18.0278  -28.1362   22.8504 C   0  0  0  0  0  0
  -24.1487  -36.7309   23.2644 C   0  0  0  0  0  0
  -25.9241  -30.8423   21.3628 C   0  0  0  0  0  0
  -25.9993  -29.4781   20.7130 C   0  0  0  0  0  0
  -27.1964  -28.7324   20.6993 C   0  0  0  0  0  0
  -26.0656  -26.9602   19.4805 C   0  0  0  0  0  0
  -24.8689  -27.7004   19.5002 C   0  0  0  0  0  0
  -23.6037  -29.8244   20.1660 C   0  0  0  0  0  0
  -25.4107  -36.3105   24.0344 C   0  0  1  0  0  0
  -20.5866  -28.3655   23.1316 C   0  0  2  0  0  0
  -20.6762  -26.9396   22.5409 C   0  0  0  0  0  0
  -19.5742  -26.6385   21.5205 C   0  0  0  0  0  0
  -18.1922  -26.7918   22.1619 C   0  0  0  0  0  0
  -19.1527  -28.8826   23.2912 C   0  0  0  0  0  0
  -18.9452  -30.1427   23.8930 C   0  0  0  0  0  0
  -17.6453  -30.6575   24.0563 C   0  0  0  0  0  0
  -25.9029  -34.9468   23.5141 C   0  0  0  0  0  0
  -16.5343  -29.9076   23.6316 C   0  0  0  0  0  0
  -16.7267  -28.6482   23.0361 C   0  0  0  0  0  0
  -26.4466  -31.6590   25.0725 C   0  0  0  0  0  0
  -25.3751  -31.3666   26.1483 C   0  0  0  0  0  0
  -27.0305  -30.3053   24.6052 C   0  0  0  0  0  0
  -27.6060  -32.4301   25.7470 C   0  0  0  0  0  0
  -27.5581  -37.1799   24.8464 C   0  0  0  0  0  0
  -21.4122  -29.3031   22.3726 N   0  0  0  0  0  0
  -26.4288  -37.3790   23.9418 N   0  0  0  0  0  0
  -24.6622  -31.0840   22.1000 N   0  0  0  0  0  0
  -23.4184  -28.8216   23.3016 O   0  0  0  0  0  0
  -28.4456  -26.7873   20.1108 O   0  0  0  0  0  0
  -26.5582  -34.8905   22.4695 O   0  0  0  0  0  0
  -23.5303  -32.1440   23.7531 O   0  0  0  0  0  0
  -29.0601  -19.0253   19.5173 C   0  0  0  0  0  0
  -27.6292  -19.6502   21.0214 C   0  0  0  0  0  0
  -28.7750  -17.9574   20.3424 C   0  0  0  0  0  0
  -28.1170  -16.5529   17.6807 C   0  0  0  0  0  0
  -31.3916  -16.8748   21.1680 C   0  0  0  0  0  0
  -29.6840  -15.7314   22.5343 C   0  0  0  0  0  0
  -29.6295  -23.0127   16.9304 C   0  0  0  0  0  0
  -27.2974  -23.5870   17.5730 C   0  0  0  0  0  0
  -30.7395  -24.9615   18.9484 C   0  0  0  0  0  0
  -29.0117  -26.0435   17.5373 C   0  0  0  0  0  0
  -29.3320  -16.2639   18.5875 C   0  0  0  0  0  0
  -28.8734  -22.4199   19.2429 C   0  0  0  0  0  0
  -27.9087  -21.2241   19.0815 C   0  0  0  0  0  0
  -28.4696  -25.3703   19.9168 C   0  0  0  0  0  0
  -29.0994  -16.4905   20.1177 C   0  0  1  0  0  0
  -30.1994  -15.8720   21.0758 C   0  0  0  0  0  0
  -28.7569  -23.5124   18.1140 C   0  0  0  0  0  0
  -29.2279  -24.9483   18.6182 C   0  0  0  0  0  0
  -27.9112  -18.3901   21.3504 N   0  0  0  0  0  0
  -28.2075  -20.0531   19.8822 N   0  0  0  0  0  0
  -31.4567  -12.3237   19.1746 H   0  0  0  0  0  0
  -30.2827  -11.3065   19.9349 H   0  0  0  0  0  0
  -29.7409  -11.5732   17.5345 H   0  0  0  0  0  0
  -29.7036  -13.2934   17.6638 H   0  0  0  0  0  0
  -27.8058  -11.2491   18.8475 H   0  0  0  0  0  0
  -27.3797  -12.5405   17.7620 H   0  0  0  0  0  0
  -27.6482  -14.1891   19.4372 H   0  0  0  0  0  0
  -28.6663  -12.0414   21.3711 H   0  0  0  0  0  0
  -28.3938  -13.6919   21.7936 H   0  0  0  0  0  0
  -25.2711   -9.5689   22.4788 H   0  0  0  0  0  0
  -23.9977   -7.4612   22.7459 H   0  0  0  0  0  0
  -21.0838   -8.8747   19.8912 H   0  0  0  0  0  0
  -22.3668  -10.9663   19.6176 H   0  0  0  0  0  0
  -21.2040   -7.6139   23.9692 H   0  0  0  0  0  0
  -21.1473   -6.0504   25.9042 H   0  0  0  0  0  0
  -22.0627   -2.7613   23.2809 H   0  0  0  0  0  0
  -22.4115  -11.9809   22.4728 H   0  0  0  0  0  0
  -21.1136  -13.1230   22.2664 H   0  0  0  0  0  0
  -24.6685  -15.8359   20.5650 H   0  0  0  0  0  0
  -26.2850  -15.6404   20.1293 H   0  0  0  0  0  0
  -26.7071  -32.5568   23.1193 H   0  0  0  0  0  0
  -25.0053  -33.9799   25.0506 H   0  0  0  0  0  0
  -22.6846  -31.3103   21.4107 H   0  0  0  0  0  0
  -23.3736  -35.9651   23.3299 H   0  0  0  0  0  0
  -24.3579  -36.8925   22.2054 H   0  0  0  0  0  0
  -23.7231  -37.6513   23.6657 H   0  0  0  0  0  0
  -26.0319  -31.6069   20.5931 H   0  0  0  0  0  0
  -26.8150  -30.8986   21.9762 H   0  0  0  0  0  0
  -28.0908  -29.1283   21.1593 H   0  0  0  0  0  0
  -26.0549  -26.0155   18.9612 H   0  0  0  0  0  0
  -23.9802  -27.3040   19.0278 H   0  0  0  0  0  0
  -23.7098  -30.5966   19.4039 H   0  0  0  0  0  0
  -22.7316  -29.2377   19.8712 H   0  0  0  0  0  0
  -25.1273  -36.1981   25.0834 H   0  0  0  0  0  0
  -20.9970  -28.3218   24.1430 H   0  0  0  0  0  0
  -20.5653  -26.2272   23.3594 H   0  0  0  0  0  0
  -21.6634  -26.7411   22.1216 H   0  0  0  0  0  0
  -19.6899  -25.6300   21.1226 H   0  0  0  0  0  0
  -19.6679  -27.3201   20.6739 H   0  0  0  0  0  0
  -17.4191  -26.6676   21.4013 H   0  0  0  0  0  0
  -18.0313  -26.0046   22.8999 H   0  0  0  0  0  0
  -19.7925  -30.7232   24.2326 H   0  0  0  0  0  0
  -17.5003  -31.6262   24.5150 H   0  0  0  0  0  0
  -15.5343  -30.2985   23.7613 H   0  0  0  0  0  0
  -15.8670  -28.0792   22.7077 H   0  0  0  0  0  0
  -24.5929  -30.7004   25.7826 H   0  0  0  0  0  0
  -24.8933  -32.2804   26.4970 H   0  0  0  0  0  0
  -25.8130  -30.8820   27.0216 H   0  0  0  0  0  0
  -26.2828  -29.6791   24.1167 H   0  0  0  0  0  0
  -27.4182  -29.7301   25.4471 H   0  0  0  0  0  0
  -27.8617  -30.4414   23.9126 H   0  0  0  0  0  0
  -27.2707  -33.3606   26.2064 H   0  0  0  0  0  0
  -28.3855  -32.6840   25.0273 H   0  0  0  0  0  0
  -28.0737  -31.8404   26.5362 H   0  0  0  0  0  0
  -28.2590  -38.0103   24.7506 H   0  0  0  0  0  0
  -28.1079  -36.2622   24.6296 H   0  0  0  0  0  0
  -27.2294  -37.1464   25.8867 H   0  0  0  0  0  0
  -20.9279  -29.8771   21.6967 H   0  0  0  0  0  0
  -26.0175  -38.2870   24.1415 H   0  0  0  0  0  0
  -29.6413  -19.0755   18.6063 H   0  0  0  0  0  0
  -26.9097  -20.2511   21.5622 H   0  0  0  0  0  0
  -28.3128  -16.2268   16.6582 H   0  0  0  0  0  0
  -27.8676  -17.6120   17.6348 H   0  0  0  0  0  0
  -27.2262  -16.0258   18.0205 H   0  0  0  0  0  0
  -31.7971  -17.1146   20.1839 H   0  0  0  0  0  0
  -32.2056  -16.4757   21.7768 H   0  0  0  0  0  0
  -31.1051  -17.8234   21.6229 H   0  0  0  0  0  0
  -29.9708  -16.5772   23.1595 H   0  0  0  0  0  0
  -30.0718  -14.8388   23.0261 H   0  0  0  0  0  0
  -28.5968  -15.6921   22.5829 H   0  0  0  0  0  0
  -29.3029  -22.0337   16.5810 H   0  0  0  0  0  0
  -30.6779  -22.8978   17.2047 H   0  0  0  0  0  0
  -29.5875  -23.6718   16.0641 H   0  0  0  0  0  0
  -26.9807  -22.6572   17.1035 H   0  0  0  0  0  0
  -27.1742  -24.3301   16.7876 H   0  0  0  0  0  0
  -26.5682  -23.8049   18.3521 H   0  0  0  0  0  0
  -31.0273  -25.9006   19.4224 H   0  0  0  0  0  0
  -31.3593  -24.8655   18.0568 H   0  0  0  0  0  0
  -31.0172  -24.1614   19.6338 H   0  0  0  0  0  0
  -29.4779  -26.9841   17.8317 H   0  0  0  0  0  0
  -27.9587  -26.2699   17.3792 H   0  0  0  0  0  0
  -29.4431  -25.7853   16.5721 H   0  0  0  0  0  0
  -30.1942  -16.8380   18.2465 H   0  0  0  0  0  0
  -29.5944  -15.2383   18.3825 H   0  0  0  0  0  0
  -29.8993  -22.0493   19.2835 H   0  0  0  0  0  0
  -28.6922  -22.8314   20.2329 H   0  0  0  0  0  0
  -27.9056  -20.8814   18.0468 H   0  0  0  0  0  0
  -26.8855  -21.5289   19.3054 H   0  0  0  0  0  0
  -28.9969  -24.9683   20.7836 H   0  0  0  0  0  0
  -27.4881  -24.9114   19.9994 H   0  0  0  0  0  0
  -28.1839  -15.9618   20.3622 H   0  0  0  0  0  0
  1 25  1  0  0  0
  1 30  2  0  0  0
  1 86  1  0  0  0
  2  3  1  0  0  0
  2 25  1  0  0  0
  2 91  1  0  0  0
  2 92  1  0  0  0
  3  4  1  0  0  0
  3 93  1  0  0  0
  3 94  1  0  0  0
  4  5  1  0  0  0
  4 95  1  0  0  0
  4 96  1  0  0  0
  5  6  1  0  0  0
  5 26  1  0  0  0
  5 97  1  0  0  0
  6 25  1  0  0  0
  6 98  1  0  0  0
  6 99  1  0  0  0
  7  8  2  0  0  0
  7 26  1  0  0  0
  7 29  1  0  0  0
  8  9  1  0  0  0
  8 22  1  0  0  0
  9 10  1  0  0  0
  9 27  2  0  0  0
 10 11  2  0  0  0
 10 15  1  0  0  0
 11 12  1  0  0  0
 11100  1  0  0  0
 12 13  2  0  0  0
 12101  1  0  0  0
 13 14  1  0  0  0
 13 31  1  0  0  0
 14 15  2  0  0  0
 14102  1  0  0  0
 15103  1  0  0  0
 16 17  2  0  0  0
 16 21  1  0  0  0
 16 31  1  0  0  0
 17 18  1  0  0  0
 17104  1  0  0  0
 18 19  2  0  0  0
 18105  1  0  0  0
 19 20  1  0  0  0
 19 24  1  0  0  0
 20 21  2  0  0  0
 20106  1  0  0  0
 21 23  1  0  0  0
 22 28  1  0  0  0
 22 32  2  0  0  0
 26 27  1  0  0  0
 28107  1  0  0  0
 28108  1  0  0  0
 29109  1  0  0  0
 29110  1  0  0  0
 33 34  1  0  0  0
 33 66  1  0  0  0
 33 70  2  0  0  0
 34 36  1  0  0  0
 34 59  1  0  0  0
 34111  1  0  0  0
 35 44  2  0  0  0
 35 45  1  0  0  0
 35 68  1  0  0  0
 36 56  1  0  0  0
 36112  1  0  0  0
 37 39  1  0  0  0
 37 47  1  0  0  0
 37 66  1  0  0  0
 37113  1  0  0  0
 38 43  2  0  0  0
 38 46  1  0  0  0
 38 47  1  0  0  0
 39 64  1  0  0  0
 39 67  2  0  0  0
 40 52  1  0  0  0
 40 53  2  0  0  0
 40 58  1  0  0  0
 41114  1  0  0  0
 41115  1  0  0  0
 41116  1  0  0  0
 41 48  1  0  0  0
 42 43  1  0  0  0
 42 66  1  0  0  0
 42117  1  0  0  0
 42118  1  0  0  0
 43 44  1  0  0  0
 44119  1  0  0  0
 45 46  2  0  0  0
 45120  1  0  0  0
 46121  1  0  0  0
 47122  1  0  0  0
 47123  1  0  0  0
 48 56  1  0  0  0
 48 65  1  0  0  0
 48124  1  0  0  0
 49 50  1  0  0  0
 49 53  1  0  0  0
 49 64  1  0  0  0
 49125  1  0  0  0
 50 51  1  0  0  0
 50126  1  0  0  0
 50127  1  0  0  0
 51 52  1  0  0  0
 51128  1  0  0  0
 51129  1  0  0  0
 52130  1  0  0  0
 52131  1  0  0  0
 53 54  1  0  0  0
 54 55  2  0  0  0
 54132  1  0  0  0
 55 57  1  0  0  0
 55133  1  0  0  0
 56 69  2  0  0  0
 57 58  2  0  0  0
 57134  1  0  0  0
 58135  1  0  0  0
 59 60  1  0  0  0
 59 61  1  0  0  0
 59 62  1  0  0  0
 60136  1  0  0  0
 60137  1  0  0  0
 60138  1  0  0  0
 61139  1  0  0  0
 61140  1  0  0  0
 61141  1  0  0  0
 62142  1  0  0  0
 62143  1  0  0  0
 62144  1  0  0  0
 63 65  1  0  0  0
 63145  1  0  0  0
 63146  1  0  0  0
 63147  1  0  0  0
 64148  1  0  0  0
 65149  1  0  0  0
 68 84  1  0  0  0
 71 73  2  0  0  0
 71 90  1  0  0  0
 71150  1  0  0  0
 72 89  2  0  0  0
 72 90  1  0  0  0
 72151  1  0  0  0
 73 85  1  0  0  0
 73 89  1  0  0  0
 74 81  1  0  0  0
 74152  1  0  0  0
 74153  1  0  0  0
 74154  1  0  0  0
 75155  1  0  0  0
 75156  1  0  0  0
 75157  1  0  0  0
 75 86  1  0  0  0
 76 86  1  0  0  0
 76158  1  0  0  0
 76159  1  0  0  0
 76160  1  0  0  0
 77161  1  0  0  0
 77162  1  0  0  0
 77163  1  0  0  0
 77 87  1  0  0  0
 78 87  1  0  0  0
 78164  1  0  0  0
 78165  1  0  0  0
 78166  1  0  0  0
 79167  1  0  0  0
 79168  1  0  0  0
 79169  1  0  0  0
 79 88  1  0  0  0
 80 88  1  0  0  0
 80170  1  0  0  0
 80171  1  0  0  0
 80172  1  0  0  0
 81173  1  0  0  0
 81174  1  0  0  0
 81 85  1  0  0  0
 82 83  1  0  0  0
 82 87  1  0  0  0
 82175  1  0  0  0
 82176  1  0  0  0
 83 90  1  0  0  0
 83177  1  0  0  0
 83178  1  0  0  0
 84 88  1  0  0  0
 84179  1  0  0  0
 84180  1  0  0  0
 85 86  1  0  0  0
 85181  1  0  0  0
 87 88  1  0  0  0
M  ISO  4   1 100  68 101  84 101  86 100
M  END
> <chiral flag>
0

> <version>
0

> <s_m_source_file>
/data/baiqing/PycharmProjects/Reinvent-master-3.2/result/LINK_invent/BTK/process_docking_weight1_custom_sum_contain_oxygen_bond_distance_aromatic_linkinvent_7_9_3/rearranged_h_0067.sdf

> <i_m_source_file_index>
74

> <r_mmod_Potential_Energy-OPLS-2005>
160.671203613281

> <r_mmod_Stretch_Energy-OPLS-2005>
54.726749420166

> <r_mmod_Bend_Energy-OPLS-2005>
154.22998046875

> <r_mmod_Torsional_Energy-OPLS-2005>
256.558959960938

> <r_mmod_Improper_Torsional_Energy-OPLS-2005>
5.65488767623901

> <r_mmod_Van_der_Waal_Energy-OPLS-2005>
172.224807739258

> <r_mmod_Electrostatic_Energy-OPLS-2005>
-330.305572509766

> <r_mmod_Solvation_Energy-OPLS-2005>
-174.582458496094

> <b_mmod_Minimization_Converged-OPLS-2005>
0

> <r_mmod_RMS_Derivative-OPLS-2005>
2.51737928390503

$$$$
77
                    3D
 Structure written by MMmdl.
162170  0  0  1  0            999 V2000
  -30.8019  -14.3296   20.7049 C   0  0  0  0  0  0
  -30.4179  -12.2835   19.3784 C   0  0  0  0  0  0
  -29.4808  -12.5364   18.1843 C   0  0  0  0  0  0
  -28.0079  -12.3881   18.6077 C   0  0  0  0  0  0
  -27.6750  -13.1967   19.8882 C   0  0  2  0  0  0
  -28.7192  -12.9124   20.9939 C   0  0  0  0  0  0
  -25.2645  -13.8131   20.5649 C   0  0  0  0  0  0
  -24.1882  -13.0437   20.9178 C   0  0  0  0  0  0
  -24.6418  -11.6891   20.8744 C   0  0  0  0  0  0
  -23.9066  -10.4285   21.0403 C   0  0  0  0  0  0
  -24.3612   -9.4194   21.9183 C   0  0  0  0  0  0
  -23.6287   -8.2236   22.0753 C   0  0  0  0  0  0
  -22.4270   -8.0271   21.3542 C   0  0  0  0  0  0
  -21.9903   -9.0249   20.4642 C   0  0  0  0  0  0
  -22.7238  -10.2128   20.3055 C   0  0  0  0  0  0
  -21.6849   -6.0723   22.5281 C   0  0  0  0  0  0
  -21.4013   -6.5635   23.8208 C   0  0  0  0  0  0
  -21.3660   -5.6789   24.9177 C   0  0  0  0  0  0
  -21.6047   -4.3051   24.7229 C   0  0  0  0  0  0
  -21.8819   -3.8141   23.4353 C   0  0  0  0  0  0
  -21.9193   -4.6955   22.3406 C   0  0  0  0  0  0
  -22.7902  -13.5229   21.1835 C   0  0  0  0  0  0
  -22.1659   -4.2136   21.0984 F   0  0  0  0  0  0
  -21.5635   -3.4540   25.7745 F   0  0  0  0  0  0
  -30.0613  -13.2137   20.4615 N   0  0  0  0  0  0
  -26.3098  -12.9294   20.3428 N   0  0  0  0  0  0
  -25.9350  -11.6455   20.5794 N   0  0  0  0  0  0
  -22.0525  -12.8231   22.0376 N   0  0  0  0  0  0
  -25.4358  -15.1835   20.3926 N   0  0  0  0  0  0
  -31.7833  -14.6418   20.0185 O   0  0  0  0  0  0
  -21.6637   -6.8870   21.4237 O   0  0  0  0  0  0
  -22.3590  -14.5546   20.6675 O   0  0  0  0  0  0
  -24.6185  -31.8644   23.2109 C   0  0  0  0  0  0
  -25.9073  -32.4807   23.8416 C   0  0  1  0  0  0
  -27.2358  -27.4300   20.1054 C   0  0  0  0  0  0
  -25.5932  -33.8612   24.2348 N   0  0  0  0  0  0
  -23.4055  -30.4893   21.5518 C   0  0  2  0  0  0
  -24.8460  -28.9483   20.1166 C   0  0  0  0  0  0
  -22.7409  -29.4663   22.4993 C   0  0  0  0  0  0
  -18.0265  -28.1405   22.8481 C   0  0  0  0  0  0
  -24.1481  -36.7314   23.2635 C   0  0  0  0  0  0
  -25.9344  -30.8231   21.3668 C   0  0  0  0  0  0
  -26.0046  -29.4613   20.7104 C   0  0  0  0  0  0
  -27.1989  -28.7120   20.6963 C   0  0  0  0  0  0
  -26.0585  -26.9257   19.5075 C   0  0  0  0  0  0
  -24.8681  -27.6803   19.5089 C   0  0  0  0  0  0
  -23.6113  -29.8186   20.1665 C   0  0  0  0  0  0
  -25.4102  -36.3110   24.0343 C   0  0  1  0  0  0
  -20.5855  -28.3720   23.1256 C   0  0  2  0  0  0
  -20.6779  -26.9457   22.5386 C   0  0  0  0  0  0
  -19.5756  -26.6412   21.5188 C   0  0  0  0  0  0
  -18.1929  -26.7951   22.1601 C   0  0  0  0  0  0
  -19.1523  -28.8874   23.2862 C   0  0  0  0  0  0
  -18.9478  -30.1476   23.8895 C   0  0  0  0  0  0
  -17.6488  -30.6618   24.0578 C   0  0  0  0  0  0
  -25.9045  -34.9464   23.5144 C   0  0  0  0  0  0
  -16.5362  -29.9137   23.6353 C   0  0  0  0  0  0
  -16.7251  -28.6541   23.0366 C   0  0  0  0  0  0
  -26.4463  -31.6619   25.0782 C   0  0  0  0  0  0
  -25.3742  -31.3724   26.1546 C   0  0  0  0  0  0
  -27.0272  -30.3040   24.6211 C   0  0  0  0  0  0
  -27.6031  -32.4338   25.7555 C   0  0  0  0  0  0
  -27.5582  -37.1803   24.8471 C   0  0  0  0  0  0
  -21.4143  -29.3066   22.3673 N   0  0  0  0  0  0
  -26.4295  -37.3798   23.9414 N   0  0  0  0  0  0
  -24.6709  -31.0740   22.1013 N   0  0  0  0  0  0
  -23.4159  -28.8196   23.3042 O   0  0  0  0  0  0
  -28.4395  -26.7569   20.0982 O   0  0  0  0  0  0
  -26.5589  -34.8906   22.4697 O   0  0  0  0  0  0
  -23.5373  -32.1424   23.7490 O   0  0  0  0  0  0
  -28.2888  -21.2522   24.7173 C   0  0  0  0  0  0
  -28.6579  -20.5199   22.4876 C   0  0  0  0  0  0
  -28.5651  -21.6037   23.3866 C   0  0  0  0  0  0
  -28.0991  -19.0611   24.1444 C   0  0  0  0  0  0
  -31.7463  -15.2653   22.7285 C   0  0  0  0  0  0
  -28.9914  -16.0325   23.4662 C   0  0  0  0  0  0
  -28.3565  -24.8153   21.6012 C   0  0  0  0  0  0
  -29.4862  -15.9072   22.0119 C   0  0  0  0  0  0
  -27.6438  -16.7574   23.6072 C   0  0  0  0  0  0
  -28.4584  -25.3259   20.1505 C   0  0  0  0  0  0
  -28.4980  -23.2876   21.6927 C   0  0  0  0  0  0
  -28.0423  -19.9831   25.0917 N   0  0  0  0  0  0
  -28.4252  -19.2542   22.8713 N   0  0  0  0  0  0
  -30.5837  -14.9343   21.8935 N   0  0  0  0  0  0
  -28.7089  -22.9325   23.0551 O   0  0  0  0  0  0
  -27.7292  -17.8270   24.5560 O   0  0  0  0  0  0
  -31.4606  -12.3789   19.0677 H   0  0  0  0  0  0
  -30.3156  -11.2543   19.7280 H   0  0  0  0  0  0
  -29.7079  -11.8446   17.3714 H   0  0  0  0  0  0
  -29.6533  -13.5392   17.7902 H   0  0  0  0  0  0
  -27.8136  -11.3283   18.7788 H   0  0  0  0  0  0
  -27.3497  -12.6896   17.7916 H   0  0  0  0  0  0
  -27.7388  -14.2528   19.6251 H   0  0  0  0  0  0
  -28.6828  -11.8590   21.2751 H   0  0  0  0  0  0
  -28.4797  -13.4487   21.9098 H   0  0  0  0  0  0
  -25.2755   -9.5671   22.4761 H   0  0  0  0  0  0
  -23.9991   -7.4621   22.7472 H   0  0  0  0  0  0
  -21.0835   -8.8768   19.8949 H   0  0  0  0  0  0
  -22.3689  -10.9668   19.6169 H   0  0  0  0  0  0
  -21.2003   -7.6141   23.9712 H   0  0  0  0  0  0
  -21.1484   -6.0520   25.9077 H   0  0  0  0  0  0
  -22.0601   -2.7603   23.2859 H   0  0  0  0  0  0
  -22.4109  -11.9877   22.4769 H   0  0  0  0  0  0
  -21.1140  -13.1257   22.2568 H   0  0  0  0  0  0
  -24.6548  -15.8271   20.4411 H   0  0  0  0  0  0
  -26.2673  -15.6014   19.9952 H   0  0  0  0  0  0
  -26.7161  -32.5495   23.1193 H   0  0  0  0  0  0
  -25.0154  -33.9765   25.0536 H   0  0  0  0  0  0
  -22.7019  -31.3120   21.4156 H   0  0  0  0  0  0
  -23.3741  -35.9655   23.3319 H   0  0  0  0  0  0
  -24.3550  -36.8924   22.2045 H   0  0  0  0  0  0
  -23.7225  -37.6528   23.6619 H   0  0  0  0  0  0
  -26.0642  -31.5888   20.6028 H   0  0  0  0  0  0
  -26.8177  -30.8635   21.9940 H   0  0  0  0  0  0
  -28.0943  -29.1098   21.1542 H   0  0  0  0  0  0
  -26.0424  -25.9660   19.0137 H   0  0  0  0  0  0
  -23.9814  -27.2837   19.0308 H   0  0  0  0  0  0
  -23.7197  -30.5951   19.4090 H   0  0  0  0  0  0
  -22.7356  -29.2382   19.8703 H   0  0  0  0  0  0
  -25.1272  -36.2007   25.0841 H   0  0  0  0  0  0
  -20.9941  -28.3323   24.1366 H   0  0  0  0  0  0
  -20.5730  -26.2343   23.3594 H   0  0  0  0  0  0
  -21.6659  -26.7546   22.1153 H   0  0  0  0  0  0
  -19.6957  -25.6321   21.1237 H   0  0  0  0  0  0
  -19.6695  -27.3218   20.6707 H   0  0  0  0  0  0
  -17.4203  -26.6672   21.4000 H   0  0  0  0  0  0
  -18.0361  -26.0107   22.9015 H   0  0  0  0  0  0
  -19.7968  -30.7266   24.2278 H   0  0  0  0  0  0
  -17.5062  -31.6305   24.5194 H   0  0  0  0  0  0
  -15.5373  -30.3053   23.7703 H   0  0  0  0  0  0
  -15.8629  -28.0877   22.7091 H   0  0  0  0  0  0
  -24.5920  -30.7058   25.7907 H   0  0  0  0  0  0
  -24.8925  -32.2872   26.5020 H   0  0  0  0  0  0
  -25.8128  -30.8904   27.0313 H   0  0  0  0  0  0
  -26.2800  -29.6791   24.1311 H   0  0  0  0  0  0
  -27.4047  -29.7301   25.4700 H   0  0  0  0  0  0
  -27.8658  -30.4324   23.9357 H   0  0  0  0  0  0
  -27.2664  -33.3657   26.2114 H   0  0  0  0  0  0
  -28.3855  -32.6882   25.0390 H   0  0  0  0  0  0
  -28.0683  -31.8488   26.5512 H   0  0  0  0  0  0
  -28.2607  -38.0090   24.7536 H   0  0  0  0  0  0
  -28.1070  -36.2635   24.6292 H   0  0  0  0  0  0
  -27.2293  -37.1469   25.8868 H   0  0  0  0  0  0
  -20.9347  -29.8732   21.6819 H   0  0  0  0  0  0
  -26.0200  -38.2890   24.1417 H   0  0  0  0  0  0
  -28.2161  -22.0133   25.4800 H   0  0  0  0  0  0
  -28.9023  -20.6503   21.4435 H   0  0  0  0  0  0
  -31.5108  -15.1427   23.7861 H   0  0  0  0  0  0
  -32.0666  -16.2957   22.5659 H   0  0  0  0  0  0
  -32.5964  -14.6114   22.5294 H   0  0  0  0  0  0
  -29.7429  -16.5667   24.0480 H   0  0  0  0  0  0
  -28.9066  -15.0415   23.9152 H   0  0  0  0  0  0
  -27.4107  -25.1255   22.0506 H   0  0  0  0  0  0
  -29.1432  -25.2776   22.1976 H   0  0  0  0  0  0
  -29.8086  -16.8773   21.6304 H   0  0  0  0  0  0
  -28.6512  -15.6172   21.3728 H   0  0  0  0  0  0
  -26.9148  -16.0403   23.9826 H   0  0  0  0  0  0
  -27.2427  -17.0790   22.6449 H   0  0  0  0  0  0
  -27.7151  -24.8430   19.5202 H   0  0  0  0  0  0
  -29.4198  -25.0182   19.7323 H   0  0  0  0  0  0
  -29.3357  -22.9414   21.0845 H   0  0  0  0  0  0
  -27.5915  -22.8140   21.3103 H   0  0  0  0  0  0
  1 25  1  0  0  0
  1 30  2  0  0  0
  1 84  1  0  0  0
  2  3  1  0  0  0
  2 25  1  0  0  0
  2 87  1  0  0  0
  2 88  1  0  0  0
  3  4  1  0  0  0
  3 89  1  0  0  0
  3 90  1  0  0  0
  4  5  1  0  0  0
  4 91  1  0  0  0
  4 92  1  0  0  0
  5  6  1  0  0  0
  5 26  1  0  0  0
  5 93  1  0  0  0
  6 25  1  0  0  0
  6 94  1  0  0  0
  6 95  1  0  0  0
  7  8  2  0  0  0
  7 26  1  0  0  0
  7 29  1  0  0  0
  8  9  1  0  0  0
  8 22  1  0  0  0
  9 10  1  0  0  0
  9 27  2  0  0  0
 10 11  2  0  0  0
 10 15  1  0  0  0
 11 12  1  0  0  0
 11 96  1  0  0  0
 12 13  2  0  0  0
 12 97  1  0  0  0
 13 14  1  0  0  0
 13 31  1  0  0  0
 14 15  2  0  0  0
 14 98  1  0  0  0
 15 99  1  0  0  0
 16 17  2  0  0  0
 16 21  1  0  0  0
 16 31  1  0  0  0
 17 18  1  0  0  0
 17100  1  0  0  0
 18 19  2  0  0  0
 18101  1  0  0  0
 19 20  1  0  0  0
 19 24  1  0  0  0
 20 21  2  0  0  0
 20102  1  0  0  0
 21 23  1  0  0  0
 22 28  1  0  0  0
 22 32  2  0  0  0
 26 27  1  0  0  0
 28103  1  0  0  0
 28104  1  0  0  0
 29105  1  0  0  0
 29106  1  0  0  0
 33 34  1  0  0  0
 33 66  1  0  0  0
 33 70  2  0  0  0
 34 36  1  0  0  0
 34 59  1  0  0  0
 34107  1  0  0  0
 35 44  2  0  0  0
 35 45  1  0  0  0
 35 68  1  0  0  0
 36 56  1  0  0  0
 36108  1  0  0  0
 37 39  1  0  0  0
 37 47  1  0  0  0
 37 66  1  0  0  0
 37109  1  0  0  0
 38 43  2  0  0  0
 38 46  1  0  0  0
 38 47  1  0  0  0
 39 64  1  0  0  0
 39 67  2  0  0  0
 40 52  1  0  0  0
 40 53  2  0  0  0
 40 58  1  0  0  0
 41110  1  0  0  0
 41111  1  0  0  0
 41112  1  0  0  0
 41 48  1  0  0  0
 42 43  1  0  0  0
 42 66  1  0  0  0
 42113  1  0  0  0
 42114  1  0  0  0
 43 44  1  0  0  0
 44115  1  0  0  0
 45 46  2  0  0  0
 45116  1  0  0  0
 46117  1  0  0  0
 47118  1  0  0  0
 47119  1  0  0  0
 48 56  1  0  0  0
 48 65  1  0  0  0
 48120  1  0  0  0
 49 50  1  0  0  0
 49 53  1  0  0  0
 49 64  1  0  0  0
 49121  1  0  0  0
 50 51  1  0  0  0
 50122  1  0  0  0
 50123  1  0  0  0
 51 52  1  0  0  0
 51124  1  0  0  0
 51125  1  0  0  0
 52126  1  0  0  0
 52127  1  0  0  0
 53 54  1  0  0  0
 54 55  2  0  0  0
 54128  1  0  0  0
 55 57  1  0  0  0
 55129  1  0  0  0
 56 69  2  0  0  0
 57 58  2  0  0  0
 57130  1  0  0  0
 58131  1  0  0  0
 59 60  1  0  0  0
 59 61  1  0  0  0
 59 62  1  0  0  0
 60132  1  0  0  0
 60133  1  0  0  0
 60134  1  0  0  0
 61135  1  0  0  0
 61136  1  0  0  0
 61137  1  0  0  0
 62138  1  0  0  0
 62139  1  0  0  0
 62140  1  0  0  0
 63 65  1  0  0  0
 63141  1  0  0  0
 63142  1  0  0  0
 63143  1  0  0  0
 64144  1  0  0  0
 65145  1  0  0  0
 68 80  1  0  0  0
 71 73  2  0  0  0
 71 82  1  0  0  0
 71146  1  0  0  0
 72 73  1  0  0  0
 72 83  2  0  0  0
 72147  1  0  0  0
 73 85  1  0  0  0
 74 82  2  0  0  0
 74 83  1  0  0  0
 74 86  1  0  0  0
 75 84  1  0  0  0
 75148  1  0  0  0
 75149  1  0  0  0
 75150  1  0  0  0
 76 78  1  0  0  0
 76 79  1  0  0  0
 76151  1  0  0  0
 76152  1  0  0  0
 77 80  1  0  0  0
 77 81  1  0  0  0
 77153  1  0  0  0
 77154  1  0  0  0
 78 84  1  0  0  0
 78155  1  0  0  0
 78156  1  0  0  0
 79 86  1  0  0  0
 79157  1  0  0  0
 79158  1  0  0  0
 80159  1  0  0  0
 80160  1  0  0  0
 81 85  1  0  0  0
 81161  1  0  0  0
 81162  1  0  0  0
M  ISO  4   1 100  68 101  80 101  84 100
M  END
> <chiral flag>
0

> <version>
0

> <s_m_source_file>
/data/baiqing/PycharmProjects/Reinvent-master-3.2/result/LINK_invent/BTK/process_docking_weight1_custom_sum_contain_oxygen_bond_distance_aromatic_linkinvent_7_9_3/rearranged_h_0067.sdf

> <i_m_source_file_index>
75

> <r_mmod_Potential_Energy-OPLS-2005>
-276.422912597656

> <r_mmod_Stretch_Energy-OPLS-2005>
34.8857765197754

> <r_mmod_Bend_Energy-OPLS-2005>
115.455657958984

> <r_mmod_Torsional_Energy-OPLS-2005>
287.783050537109

> <r_mmod_Improper_Torsional_Energy-OPLS-2005>
9.44512939453125

> <r_mmod_Van_der_Waal_Energy-OPLS-2005>
176.944351196289

> <r_mmod_Electrostatic_Energy-OPLS-2005>
-691.286865234375

> <r_mmod_Solvation_Energy-OPLS-2005>
-219.162246704102

> <b_mmod_Minimization_Converged-OPLS-2005>
0

> <r_mmod_RMS_Derivative-OPLS-2005>
3.6436460018158

$$$$
78
                    3D
 Structure written by MMmdl.
169177  0  0  1  0            999 V2000
  -30.7152  -14.4775   20.6395 C   0  0  0  0  0  0
  -30.4303  -12.3335   19.4247 C   0  0  0  0  0  0
  -29.4972  -12.5204   18.2100 C   0  0  0  0  0  0
  -28.0200  -12.3661   18.6212 C   0  0  0  0  0  0
  -27.6628  -13.2068   19.8742 C   0  0  2  0  0  0
  -28.6998  -12.9825   20.9951 C   0  0  0  0  0  0
  -25.2595  -13.8167   20.5676 C   0  0  0  0  0  0
  -24.1840  -13.0436   20.9167 C   0  0  0  0  0  0
  -24.6397  -11.6905   20.8728 C   0  0  0  0  0  0
  -23.9063  -10.4292   21.0406 C   0  0  0  0  0  0
  -24.3612   -9.4205   21.9186 C   0  0  0  0  0  0
  -23.6285   -8.2242   22.0754 C   0  0  0  0  0  0
  -22.4270   -8.0282   21.3541 C   0  0  0  0  0  0
  -21.9905   -9.0258   20.4647 C   0  0  0  0  0  0
  -22.7237  -10.2134   20.3054 C   0  0  0  0  0  0
  -21.6853   -6.0731   22.5278 C   0  0  0  0  0  0
  -21.4019   -6.5636   23.8210 C   0  0  0  0  0  0
  -21.3656   -5.6790   24.9173 C   0  0  0  0  0  0
  -21.6042   -4.3052   24.7227 C   0  0  0  0  0  0
  -21.8822   -3.8142   23.4348 C   0  0  0  0  0  0
  -21.9193   -4.6958   22.3402 C   0  0  0  0  0  0
  -22.7864  -13.5238   21.1837 C   0  0  0  0  0  0
  -22.1661   -4.2141   21.0980 F   0  0  0  0  0  0
  -21.5623   -3.4538   25.7739 F   0  0  0  0  0  0
  -30.0378  -13.3037   20.4621 N   0  0  0  0  0  0
  -26.3026  -12.9333   20.3348 N   0  0  0  0  0  0
  -25.9320  -11.6491   20.5747 N   0  0  0  0  0  0
  -22.0502  -12.8230   22.0397 N   0  0  0  0  0  0
  -25.4331  -15.1882   20.4112 N   0  0  0  0  0  0
  -31.7619  -14.7375   20.0373 O   0  0  0  0  0  0
  -21.6636   -6.8875   21.4239 O   0  0  0  0  0  0
  -22.3543  -14.5537   20.6689 O   0  0  0  0  0  0
  -24.6188  -31.8655   23.2108 C   0  0  0  0  0  0
  -25.9065  -32.4810   23.8404 C   0  0  1  0  0  0
  -27.2270  -27.3919   20.0922 C   0  0  0  0  0  0
  -25.5916  -33.8610   24.2328 N   0  0  0  0  0  0
  -23.4077  -30.4922   21.5515 C   0  0  2  0  0  0
  -24.8533  -28.9636   20.1090 C   0  0  0  0  0  0
  -22.7432  -29.4639   22.4971 C   0  0  0  0  0  0
  -18.0271  -28.1379   22.8479 C   0  0  0  0  0  0
  -24.1493  -36.7316   23.2638 C   0  0  0  0  0  0
  -25.9431  -30.8176   21.3722 C   0  0  0  0  0  0
  -26.0175  -29.4513   20.7142 C   0  0  0  0  0  0
  -27.2050  -28.6730   20.7052 C   0  0  0  0  0  0
  -26.0405  -26.9488   19.4562 C   0  0  0  0  0  0
  -24.8626  -27.7137   19.4748 C   0  0  0  0  0  0
  -23.6180  -29.8339   20.1636 C   0  0  0  0  0  0
  -25.4112  -36.3098   24.0331 C   0  0  1  0  0  0
  -20.5867  -28.3658   23.1308 C   0  0  2  0  0  0
  -20.6768  -26.9399   22.5403 C   0  0  0  0  0  0
  -19.5749  -26.6384   21.5200 C   0  0  0  0  0  0
  -18.1922  -26.7920   22.1614 C   0  0  0  0  0  0
  -19.1521  -28.8838   23.2888 C   0  0  0  0  0  0
  -18.9450  -30.1446   23.8899 C   0  0  0  0  0  0
  -17.6453  -30.6583   24.0557 C   0  0  0  0  0  0
  -25.9044  -34.9464   23.5121 C   0  0  0  0  0  0
  -16.5342  -29.9075   23.6334 C   0  0  0  0  0  0
  -16.7260  -28.6496   23.0345 C   0  0  0  0  0  0
  -26.4491  -31.6588   25.0733 C   0  0  0  0  0  0
  -25.3744  -31.3681   26.1470 C   0  0  0  0  0  0
  -27.0329  -30.3028   24.6123 C   0  0  0  0  0  0
  -27.6077  -32.4305   25.7483 C   0  0  0  0  0  0
  -27.5585  -37.1812   24.8467 C   0  0  0  0  0  0
  -21.4153  -29.3023   22.3716 N   0  0  0  0  0  0
  -26.4302  -37.3777   23.9405 N   0  0  0  0  0  0
  -24.6747  -31.0729   22.1026 N   0  0  0  0  0  0
  -23.4189  -28.8171   23.3018 O   0  0  0  0  0  0
  -28.3752  -26.6027   20.1395 O   0  0  0  0  0  0
  -26.5596  -34.8919   22.4676 O   0  0  0  0  0  0
  -23.5373  -32.1419   23.7486 O   0  0  0  0  0  0
  -29.9616  -20.3842   20.4157 C   0  0  0  0  0  0
  -29.2734  -21.5745   20.7486 C   0  0  0  0  0  0
  -29.8759  -19.3043   21.3227 C   0  0  0  0  0  0
  -28.5945  -20.6093   22.7240 C   0  0  0  0  0  0
  -26.2352  -20.3482   23.5499 C   0  0  0  0  0  0
  -27.7326  -22.0971   24.5908 C   0  0  0  0  0  0
  -28.1353  -19.7013   25.0642 C   0  0  0  0  0  0
  -30.2524  -15.2894   22.8872 C   0  0  0  0  0  0
  -29.1005  -22.7565   19.7799 C   0  0  0  0  0  0
  -30.5776  -17.9422   21.1395 C   0  0  0  0  0  0
  -29.2915  -24.2072   20.3464 C   0  0  0  0  0  0
  -29.6135  -16.7235   20.9622 C   0  0  0  0  0  0
  -28.2426  -25.2033   19.7729 C   0  0  0  0  0  0
  -27.6796  -20.6860   23.9615 C   0  0  0  0  0  0
  -28.5704  -21.6470   21.8912 N   0  0  0  0  0  0
  -29.1846  -19.4447   22.4671 N   0  0  0  0  0  0
  -30.1179  -15.4048   21.4320 N   0  0  0  0  0  0
  -31.4722  -12.4492   19.1206 H   0  0  0  0  0  0
  -30.3499  -11.3186   19.8173 H   0  0  0  0  0  0
  -29.7447  -11.7978   17.4311 H   0  0  0  0  0  0
  -29.6553  -13.5077   17.7732 H   0  0  0  0  0  0
  -27.8396  -11.3096   18.8228 H   0  0  0  0  0  0
  -27.3664  -12.6320   17.7898 H   0  0  0  0  0  0
  -27.7102  -14.2556   19.5806 H   0  0  0  0  0  0
  -28.6810  -11.9439   21.3282 H   0  0  0  0  0  0
  -28.4246  -13.5713   21.8688 H   0  0  0  0  0  0
  -25.2755   -9.5676   22.4761 H   0  0  0  0  0  0
  -23.9992   -7.4631   22.7473 H   0  0  0  0  0  0
  -21.0833   -8.8784   19.8953 H   0  0  0  0  0  0
  -22.3704  -10.9673   19.6160 H   0  0  0  0  0  0
  -21.2023   -7.6146   23.9714 H   0  0  0  0  0  0
  -21.1471   -6.0518   25.9073 H   0  0  0  0  0  0
  -22.0606   -2.7605   23.2855 H   0  0  0  0  0  0
  -22.4112  -11.9883   22.4779 H   0  0  0  0  0  0
  -21.1126  -13.1266   22.2613 H   0  0  0  0  0  0
  -24.6750  -15.8505   20.5355 H   0  0  0  0  0  0
  -26.2985  -15.6262   20.1226 H   0  0  0  0  0  0
  -26.7128  -32.5520   23.1163 H   0  0  0  0  0  0
  -25.0090  -33.9766   25.0489 H   0  0  0  0  0  0
  -22.6968  -31.3100   21.4168 H   0  0  0  0  0  0
  -23.3744  -35.9661   23.3304 H   0  0  0  0  0  0
  -24.3591  -36.8933   22.2057 H   0  0  0  0  0  0
  -23.7261  -37.6527   23.6653 H   0  0  0  0  0  0
  -26.0627  -31.5845   20.6047 H   0  0  0  0  0  0
  -26.8280  -30.8667   21.9954 H   0  0  0  0  0  0
  -28.0994  -29.0401   21.1891 H   0  0  0  0  0  0
  -25.9885  -26.0065   18.9319 H   0  0  0  0  0  0
  -23.9727  -27.3381   18.9890 H   0  0  0  0  0  0
  -23.7277  -30.6123   19.4075 H   0  0  0  0  0  0
  -22.7399  -29.2575   19.8657 H   0  0  0  0  0  0
  -25.1288  -36.1962   25.0824 H   0  0  0  0  0  0
  -20.9953  -28.3230   24.1431 H   0  0  0  0  0  0
  -20.5677  -26.2265   23.3585 H   0  0  0  0  0  0
  -21.6642  -26.7449   22.1202 H   0  0  0  0  0  0
  -19.6907  -25.6293   21.1231 H   0  0  0  0  0  0
  -19.6698  -27.3200   20.6739 H   0  0  0  0  0  0
  -17.4194  -26.6665   21.4013 H   0  0  0  0  0  0
  -18.0327  -26.0059   22.9015 H   0  0  0  0  0  0
  -19.7935  -30.7257   24.2274 H   0  0  0  0  0  0
  -17.5010  -31.6270   24.5153 H   0  0  0  0  0  0
  -15.5340  -30.2972   23.7669 H   0  0  0  0  0  0
  -15.8664  -28.0822   22.7051 H   0  0  0  0  0  0
  -24.5940  -30.7008   25.7799 H   0  0  0  0  0  0
  -24.8911  -32.2825   26.4918 H   0  0  0  0  0  0
  -25.8095  -30.8853   27.0228 H   0  0  0  0  0  0
  -26.2879  -29.6764   24.1203 H   0  0  0  0  0  0
  -27.4124  -29.7289   25.4589 H   0  0  0  0  0  0
  -27.8703  -30.4347   23.9262 H   0  0  0  0  0  0
  -27.2725  -33.3619   26.2052 H   0  0  0  0  0  0
  -28.3881  -32.6828   25.0291 H   0  0  0  0  0  0
  -28.0735  -31.8417   26.5395 H   0  0  0  0  0  0
  -28.2602  -38.0111   24.7514 H   0  0  0  0  0  0
  -28.1074  -36.2640   24.6286 H   0  0  0  0  0  0
  -27.2297  -37.1469   25.8868 H   0  0  0  0  0  0
  -20.9309  -29.8753   21.6956 H   0  0  0  0  0  0
  -26.0186  -38.2854   24.1394 H   0  0  0  0  0  0
  -30.5071  -20.2910   19.4857 H   0  0  0  0  0  0
  -25.8744  -21.0445   22.7924 H   0  0  0  0  0  0
  -25.5534  -20.3957   24.3987 H   0  0  0  0  0  0
  -26.1752  -19.3452   23.1262 H   0  0  0  0  0  0
  -27.3595  -22.8584   23.9053 H   0  0  0  0  0  0
  -28.7544  -22.3699   24.8566 H   0  0  0  0  0  0
  -27.1272  -22.1561   25.4951 H   0  0  0  0  0  0
  -28.0877  -18.6656   24.7263 H   0  0  0  0  0  0
  -27.5052  -19.7752   25.9502 H   0  0  0  0  0  0
  -29.1631  -19.8992   25.3698 H   0  0  0  0  0  0
  -29.5073  -15.8908   23.4092 H   0  0  0  0  0  0
  -31.2387  -15.6307   23.2027 H   0  0  0  0  0  0
  -30.1386  -14.2602   23.2304 H   0  0  0  0  0  0
  -28.0947  -22.6570   19.3704 H   0  0  0  0  0  0
  -29.7666  -22.6191   18.9278 H   0  0  0  0  0  0
  -31.2069  -17.7923   22.0164 H   0  0  0  0  0  0
  -31.2619  -17.9976   20.2926 H   0  0  0  0  0  0
  -30.3071  -24.5490   20.1482 H   0  0  0  0  0  0
  -29.1822  -24.1992   21.4304 H   0  0  0  0  0  0
  -29.3024  -16.6590   19.9178 H   0  0  0  0  0  0
  -28.6938  -16.9158   21.5150 H   0  0  0  0  0  0
  -27.2850  -24.8171   20.1246 H   0  0  0  0  0  0
  -28.2354  -25.1364   18.6833 H   0  0  0  0  0  0
  1 25  1  0  0  0
  1 30  2  0  0  0
  1 87  1  0  0  0
  2  3  1  0  0  0
  2 25  1  0  0  0
  2 88  1  0  0  0
  2 89  1  0  0  0
  3  4  1  0  0  0
  3 90  1  0  0  0
  3 91  1  0  0  0
  4  5  1  0  0  0
  4 92  1  0  0  0
  4 93  1  0  0  0
  5  6  1  0  0  0
  5 26  1  0  0  0
  5 94  1  0  0  0
  6 25  1  0  0  0
  6 95  1  0  0  0
  6 96  1  0  0  0
  7  8  2  0  0  0
  7 26  1  0  0  0
  7 29  1  0  0  0
  8  9  1  0  0  0
  8 22  1  0  0  0
  9 10  1  0  0  0
  9 27  2  0  0  0
 10 11  2  0  0  0
 10 15  1  0  0  0
 11 12  1  0  0  0
 11 97  1  0  0  0
 12 13  2  0  0  0
 12 98  1  0  0  0
 13 14  1  0  0  0
 13 31  1  0  0  0
 14 15  2  0  0  0
 14 99  1  0  0  0
 15100  1  0  0  0
 16 17  2  0  0  0
 16 21  1  0  0  0
 16 31  1  0  0  0
 17 18  1  0  0  0
 17101  1  0  0  0
 18 19  2  0  0  0
 18102  1  0  0  0
 19 20  1  0  0  0
 19 24  1  0  0  0
 20 21  2  0  0  0
 20103  1  0  0  0
 21 23  1  0  0  0
 22 28  1  0  0  0
 22 32  2  0  0  0
 26 27  1  0  0  0
 28104  1  0  0  0
 28105  1  0  0  0
 29106  1  0  0  0
 29107  1  0  0  0
 33 34  1  0  0  0
 33 66  1  0  0  0
 33 70  2  0  0  0
 34 36  1  0  0  0
 34 59  1  0  0  0
 34108  1  0  0  0
 35 44  2  0  0  0
 35 45  1  0  0  0
 35 68  1  0  0  0
 36 56  1  0  0  0
 36109  1  0  0  0
 37 39  1  0  0  0
 37 47  1  0  0  0
 37 66  1  0  0  0
 37110  1  0  0  0
 38 43  2  0  0  0
 38 46  1  0  0  0
 38 47  1  0  0  0
 39 64  1  0  0  0
 39 67  2  0  0  0
 40 52  1  0  0  0
 40 53  2  0  0  0
 40 58  1  0  0  0
 41111  1  0  0  0
 41112  1  0  0  0
 41113  1  0  0  0
 41 48  1  0  0  0
 42 43  1  0  0  0
 42 66  1  0  0  0
 42114  1  0  0  0
 42115  1  0  0  0
 43 44  1  0  0  0
 44116  1  0  0  0
 45 46  2  0  0  0
 45117  1  0  0  0
 46118  1  0  0  0
 47119  1  0  0  0
 47120  1  0  0  0
 48 56  1  0  0  0
 48 65  1  0  0  0
 48121  1  0  0  0
 49 50  1  0  0  0
 49 53  1  0  0  0
 49 64  1  0  0  0
 49122  1  0  0  0
 50 51  1  0  0  0
 50123  1  0  0  0
 50124  1  0  0  0
 51 52  1  0  0  0
 51125  1  0  0  0
 51126  1  0  0  0
 52127  1  0  0  0
 52128  1  0  0  0
 53 54  1  0  0  0
 54 55  2  0  0  0
 54129  1  0  0  0
 55 57  1  0  0  0
 55130  1  0  0  0
 56 69  2  0  0  0
 57 58  2  0  0  0
 57131  1  0  0  0
 58132  1  0  0  0
 59 60  1  0  0  0
 59 61  1  0  0  0
 59 62  1  0  0  0
 60133  1  0  0  0
 60134  1  0  0  0
 60135  1  0  0  0
 61136  1  0  0  0
 61137  1  0  0  0
 61138  1  0  0  0
 62139  1  0  0  0
 62140  1  0  0  0
 62141  1  0  0  0
 63 65  1  0  0  0
 63142  1  0  0  0
 63143  1  0  0  0
 63144  1  0  0  0
 64145  1  0  0  0
 65146  1  0  0  0
 68 83  1  0  0  0
 71 72  2  0  0  0
 71 73  1  0  0  0
 71147  1  0  0  0
 72 79  1  0  0  0
 72 85  1  0  0  0
 73 80  1  0  0  0
 73 86  2  0  0  0
 74 84  1  0  0  0
 74 85  2  0  0  0
 74 86  1  0  0  0
 75148  1  0  0  0
 75149  1  0  0  0
 75150  1  0  0  0
 75 84  1  0  0  0
 76 84  1  0  0  0
 76151  1  0  0  0
 76152  1  0  0  0
 76153  1  0  0  0
 77 84  1  0  0  0
 77154  1  0  0  0
 77155  1  0  0  0
 77156  1  0  0  0
 78 87  1  0  0  0
 78157  1  0  0  0
 78158  1  0  0  0
 78159  1  0  0  0
 79 81  1  0  0  0
 79160  1  0  0  0
 79161  1  0  0  0
 80 82  1  0  0  0
 80162  1  0  0  0
 80163  1  0  0  0
 81 83  1  0  0  0
 81164  1  0  0  0
 81165  1  0  0  0
 82 87  1  0  0  0
 82166  1  0  0  0
 82167  1  0  0  0
 83168  1  0  0  0
 83169  1  0  0  0
M  ISO  4   1 100  68 101  83 101  87 100
M  END
> <chiral flag>
0

> <version>
0

> <s_m_source_file>
/data/baiqing/PycharmProjects/Reinvent-master-3.2/result/LINK_invent/BTK/process_docking_weight1_custom_sum_contain_oxygen_bond_distance_aromatic_linkinvent_7_9_3/rearranged_h_0067.sdf

> <i_m_source_file_index>
76

> <r_mmod_Potential_Energy-OPLS-2005>
-355.38720703125

> <r_mmod_Stretch_Energy-OPLS-2005>
48.8340492248535

> <r_mmod_Bend_Energy-OPLS-2005>
116.470909118652

> <r_mmod_Torsional_Energy-OPLS-2005>
274.852416992188

> <r_mmod_Improper_Torsional_Energy-OPLS-2005>
5.07663488388062

> <r_mmod_Van_der_Waal_Energy-OPLS-2005>
166.350158691406

> <r_mmod_Electrostatic_Energy-OPLS-2005>
-781.356140136719

> <r_mmod_Solvation_Energy-OPLS-2005>
-203.071823120117

> <b_mmod_Minimization_Converged-OPLS-2005>
0

> <r_mmod_RMS_Derivative-OPLS-2005>
1.29954898357391

$$$$
79
                    3D
 Structure written by MMmdl.
166174  0  0  1  0            999 V2000
  -30.7316  -14.6342   20.3164 C   0  0  0  0  0  0
  -30.4141  -12.3619   19.4493 C   0  0  0  0  0  0
  -29.4925  -12.3374   18.2202 C   0  0  0  0  0  0
  -28.0117  -12.2383   18.6470 C   0  0  0  0  0  0
  -27.6201  -13.1804   19.8152 C   0  0  2  0  0  0
  -28.6883  -13.2272   20.9253 C   0  0  0  0  0  0
  -25.2518  -13.8048   20.5743 C   0  0  0  0  0  0
  -24.1772  -13.0354   20.9294 C   0  0  0  0  0  0
  -24.6321  -11.6819   20.8865 C   0  0  0  0  0  0
  -23.9012  -10.4208   21.0484 C   0  0  0  0  0  0
  -24.3583   -9.4112   21.9234 C   0  0  0  0  0  0
  -23.6239   -8.2164   22.0795 C   0  0  0  0  0  0
  -22.4234   -8.0234   21.3558 C   0  0  0  0  0  0
  -21.9875   -9.0213   20.4671 C   0  0  0  0  0  0
  -22.7208  -10.2085   20.3091 C   0  0  0  0  0  0
  -21.6809   -6.0702   22.5275 C   0  0  0  0  0  0
  -21.3979   -6.5629   23.8203 C   0  0  0  0  0  0
  -21.3666   -5.6807   24.9183 C   0  0  0  0  0  0
  -21.6054   -4.3070   24.7254 C   0  0  0  0  0  0
  -21.8802   -3.8139   23.4375 C   0  0  0  0  0  0
  -21.9155   -4.6933   22.3415 C   0  0  0  0  0  0
  -22.7812  -13.5192   21.1917 C   0  0  0  0  0  0
  -22.1623   -4.2097   21.1000 F   0  0  0  0  0  0
  -21.5641   -3.4572   25.7781 F   0  0  0  0  0  0
  -29.9889  -13.4850   20.2982 N   0  0  0  0  0  0
  -26.2862  -12.9125   20.3290 N   0  0  0  0  0  0
  -25.9237  -11.6347   20.5921 N   0  0  0  0  0  0
  -22.0413  -12.8191   22.0460 N   0  0  0  0  0  0
  -25.4265  -15.1754   20.4099 N   0  0  0  0  0  0
  -31.9401  -14.5293   20.5037 O   0  0  0  0  0  0
  -21.6583   -6.8843   21.4241 O   0  0  0  0  0  0
  -22.3528  -14.5482   20.6721 O   0  0  0  0  0  0
  -24.6140  -31.8660   23.2075 C   0  0  0  0  0  0
  -25.9034  -32.4804   23.8386 C   0  0  1  0  0  0
  -27.2444  -27.4173   20.1294 C   0  0  0  0  0  0
  -25.5887  -33.8606   24.2316 N   0  0  0  0  0  0
  -23.4036  -30.4853   21.5463 C   0  0  2  0  0  0
  -24.8568  -28.9384   20.1244 C   0  0  0  0  0  0
  -22.7399  -29.4668   22.5003 C   0  0  0  0  0  0
  -18.0270  -28.1385   22.8509 C   0  0  0  0  0  0
  -24.1487  -36.7290   23.2626 C   0  0  0  0  0  0
  -25.9307  -30.8275   21.3606 C   0  0  0  0  0  0
  -26.0134  -29.4571   20.7183 C   0  0  0  0  0  0
  -27.2125  -28.7059   20.7108 C   0  0  0  0  0  0
  -26.0725  -26.9088   19.5302 C   0  0  0  0  0  0
  -24.8820  -27.6647   19.5254 C   0  0  0  0  0  0
  -23.6169  -29.8054   20.1669 C   0  0  0  0  0  0
  -25.4105  -36.3094   24.0334 C   0  0  1  0  0  0
  -20.5853  -28.3690   23.1312 C   0  0  2  0  0  0
  -20.6760  -26.9454   22.5359 C   0  0  0  0  0  0
  -19.5726  -26.6438   21.5168 C   0  0  0  0  0  0
  -18.1925  -26.7940   22.1627 C   0  0  0  0  0  0
  -19.1515  -28.8855   23.2914 C   0  0  0  0  0  0
  -18.9441  -30.1454   23.8934 C   0  0  0  0  0  0
  -17.6443  -30.6596   24.0580 C   0  0  0  0  0  0
  -25.9038  -34.9459   23.5129 C   0  0  0  0  0  0
  -16.5346  -29.9083   23.6336 C   0  0  0  0  0  0
  -16.7250  -28.6496   23.0365 C   0  0  0  0  0  0
  -26.4473  -31.6587   25.0711 C   0  0  0  0  0  0
  -25.3743  -31.3669   26.1455 C   0  0  0  0  0  0
  -27.0303  -30.3035   24.6059 C   0  0  0  0  0  0
  -27.6047  -32.4305   25.7470 C   0  0  0  0  0  0
  -27.5575  -37.1790   24.8457 C   0  0  0  0  0  0
  -21.4119  -29.3093   22.3755 N   0  0  0  0  0  0
  -26.4292  -37.3774   23.9396 N   0  0  0  0  0  0
  -24.6661  -31.0770   22.0959 N   0  0  0  0  0  0
  -23.4172  -28.8223   23.3062 O   0  0  0  0  0  0
  -28.4138  -26.6873   20.1018 O   0  0  0  0  0  0
  -26.5594  -34.8901   22.4687 O   0  0  0  0  0  0
  -23.5341  -32.1428   23.7458 O   0  0  0  0  0  0
  -28.9592  -17.2712   21.4206 C   0  0  0  0  0  0
  -30.0438  -17.2403   20.5165 C   0  0  0  0  0  0
  -28.8778  -19.5741   21.2311 C   0  0  0  0  0  0
  -31.5285  -16.3314   18.6498 C   0  0  0  0  0  0
  -29.1083  -15.9673   18.6325 C   0  0  0  0  0  0
  -27.4136  -21.0576   19.7900 C   0  0  0  0  0  0
  -26.7638  -20.6864   22.1458 C   0  0  0  0  0  0
  -29.5479  -23.0414   20.7305 C   0  0  0  0  0  0
  -28.8425  -24.2338   20.0019 C   0  0  0  0  0  0
  -28.7179  -22.1626   21.7156 C   0  0  0  0  0  0
  -28.4435  -25.4637   20.8658 C   0  0  0  0  0  0
  -30.3189  -16.0085   19.5968 C   0  0  0  0  0  0
  -27.9885  -20.8624   21.2089 C   0  0  0  0  0  0
  -28.3638  -18.4456   21.7540 N   0  0  0  0  0  0
  -30.5620  -18.4383   20.1181 N   0  0  0  0  0  0
  -29.9934  -19.5994   20.4827 N   0  0  0  0  0  0
  -31.4538  -12.4508   19.1309 H   0  0  0  0  0  0
  -30.3428  -11.4244   20.0021 H   0  0  0  0  0  0
  -29.7461  -11.4761   17.6016 H   0  0  0  0  0  0
  -29.6783  -13.1922   17.5802 H   0  0  0  0  0  0
  -27.8458  -11.2054   18.9531 H   0  0  0  0  0  0
  -27.3562  -12.3957   17.7910 H   0  0  0  0  0  0
  -27.5421  -14.1502   19.3630 H   0  0  0  0  0  0
  -28.7144  -12.2879   21.4776 H   0  0  0  0  0  0
  -28.4517  -14.0070   21.6492 H   0  0  0  0  0  0
  -25.2737   -9.5559   22.4813 H   0  0  0  0  0  0
  -23.9916   -7.4542   22.7533 H   0  0  0  0  0  0
  -21.0801   -8.8731   19.8990 H   0  0  0  0  0  0
  -22.3676  -10.9632   19.6199 H   0  0  0  0  0  0
  -21.1946   -7.6140   23.9692 H   0  0  0  0  0  0
  -21.1539   -6.0554   25.9080 H   0  0  0  0  0  0
  -22.0585   -2.7594   23.2897 H   0  0  0  0  0  0
  -22.3994  -11.9835   22.4852 H   0  0  0  0  0  0
  -21.1043  -13.1259   22.2670 H   0  0  0  0  0  0
  -24.6604  -15.8308   20.5205 H   0  0  0  0  0  0
  -26.2685  -15.6114   20.0613 H   0  0  0  0  0  0
  -26.7111  -32.5520   23.1162 H   0  0  0  0  0  0
  -25.0015  -33.9796   25.0443 H   0  0  0  0  0  0
  -22.6935  -31.3009   21.3968 H   0  0  0  0  0  0
  -23.3753  -35.9626   23.3313 H   0  0  0  0  0  0
  -24.3567  -36.8898   22.2037 H   0  0  0  0  0  0
  -23.7251  -37.6496   23.6638 H   0  0  0  0  0  0
  -26.0402  -31.5878   20.5877 H   0  0  0  0  0  0
  -26.8184  -30.8943   21.9752 H   0  0  0  0  0  0
  -28.1084  -29.1054   21.1658 H   0  0  0  0  0  0
  -26.0861  -25.9311   19.0672 H   0  0  0  0  0  0
  -23.9917  -27.2604   19.0628 H   0  0  0  0  0  0
  -22.7431  -29.2192   19.8764 H   0  0  0  0  0  0
  -23.7264  -30.5729   19.4015 H   0  0  0  0  0  0
  -25.1294  -36.1951   25.0835 H   0  0  0  0  0  0
  -20.9939  -28.3180   24.1436 H   0  0  0  0  0  0
  -20.5672  -26.2319   23.3536 H   0  0  0  0  0  0
  -21.6626  -26.7516   22.1149 H   0  0  0  0  0  0
  -19.6891  -25.6356   21.1186 H   0  0  0  0  0  0
  -19.6637  -27.3263   20.6703 H   0  0  0  0  0  0
  -17.4184  -26.6700   21.4039 H   0  0  0  0  0  0
  -18.0380  -26.0060   22.9015 H   0  0  0  0  0  0
  -19.7915  -30.7269   24.2314 H   0  0  0  0  0  0
  -17.4990  -31.6282   24.5155 H   0  0  0  0  0  0
  -15.5344  -30.2996   23.7651 H   0  0  0  0  0  0
  -15.8651  -28.0813   22.7089 H   0  0  0  0  0  0
  -24.5923  -30.7019   25.7771 H   0  0  0  0  0  0
  -24.8934  -32.2815   26.4931 H   0  0  0  0  0  0
  -25.8122  -30.8817   27.0190 H   0  0  0  0  0  0
  -26.2846  -29.6795   24.1121 H   0  0  0  0  0  0
  -27.4101  -29.7273   25.4504 H   0  0  0  0  0  0
  -27.8666  -30.4380   23.9196 H   0  0  0  0  0  0
  -27.2681  -33.3584   26.2104 H   0  0  0  0  0  0
  -28.3828  -32.6919   25.0277 H   0  0  0  0  0  0
  -28.0744  -31.8397   26.5346 H   0  0  0  0  0  0
  -28.2600  -38.0077   24.7498 H   0  0  0  0  0  0
  -28.1080  -36.2617   24.6314 H   0  0  0  0  0  0
  -27.2291  -37.1465   25.8858 H   0  0  0  0  0  0
  -20.9291  -29.8806   21.6963 H   0  0  0  0  0  0
  -26.0194  -38.2864   24.1373 H   0  0  0  0  0  0
  -28.4415  -16.3702   21.7112 H   0  0  0  0  0  0
  -31.3258  -17.1610   17.9716 H   0  0  0  0  0  0
  -31.7860  -15.4792   18.0202 H   0  0  0  0  0  0
  -32.4244  -16.6066   19.2096 H   0  0  0  0  0  0
  -29.0809  -15.0979   17.9919 H   0  0  0  0  0  0
  -29.1168  -16.8255   17.9591 H   0  0  0  0  0  0
  -28.1634  -16.0662   19.1593 H   0  0  0  0  0  0
  -26.8503  -20.1797   19.4730 H   0  0  0  0  0  0
  -28.2044  -21.2102   19.0567 H   0  0  0  0  0  0
  -26.7487  -21.9181   19.7390 H   0  0  0  0  0  0
  -26.1390  -19.8480   21.8333 H   0  0  0  0  0  0
  -26.1191  -21.5663   22.1457 H   0  0  0  0  0  0
  -27.0732  -20.4990   23.1745 H   0  0  0  0  0  0
  -30.0165  -22.3960   19.9864 H   0  0  0  0  0  0
  -30.3835  -23.4585   21.2953 H   0  0  0  0  0  0
  -27.9820  -23.8834   19.4345 H   0  0  0  0  0  0
  -29.5475  -24.5962   19.2518 H   0  0  0  0  0  0
  -27.9968  -22.8349   22.1815 H   0  0  0  0  0  0
  -29.3695  -21.8573   22.5358 H   0  0  0  0  0  0
  -29.1903  -25.6083   21.6464 H   0  0  0  0  0  0
  -27.5052  -25.2767   21.3916 H   0  0  0  0  0  0
  1 25  1  0  0  0
  1 30  2  0  0  0
  1 82  1  0  0  0
  2  3  1  0  0  0
  2 25  1  0  0  0
  2 87  1  0  0  0
  2 88  1  0  0  0
  3  4  1  0  0  0
  3 89  1  0  0  0
  3 90  1  0  0  0
  4  5  1  0  0  0
  4 91  1  0  0  0
  4 92  1  0  0  0
  5  6  1  0  0  0
  5 26  1  0  0  0
  5 93  1  0  0  0
  6 25  1  0  0  0
  6 94  1  0  0  0
  6 95  1  0  0  0
  7  8  2  0  0  0
  7 26  1  0  0  0
  7 29  1  0  0  0
  8  9  1  0  0  0
  8 22  1  0  0  0
  9 10  1  0  0  0
  9 27  2  0  0  0
 10 11  2  0  0  0
 10 15  1  0  0  0
 11 12  1  0  0  0
 11 96  1  0  0  0
 12 13  2  0  0  0
 12 97  1  0  0  0
 13 14  1  0  0  0
 13 31  1  0  0  0
 14 15  2  0  0  0
 14 98  1  0  0  0
 15 99  1  0  0  0
 16 17  2  0  0  0
 16 21  1  0  0  0
 16 31  1  0  0  0
 17 18  1  0  0  0
 17100  1  0  0  0
 18 19  2  0  0  0
 18101  1  0  0  0
 19 20  1  0  0  0
 19 24  1  0  0  0
 20 21  2  0  0  0
 20102  1  0  0  0
 21 23  1  0  0  0
 22 28  1  0  0  0
 22 32  2  0  0  0
 26 27  1  0  0  0
 28103  1  0  0  0
 28104  1  0  0  0
 29105  1  0  0  0
 29106  1  0  0  0
 33 34  1  0  0  0
 33 66  1  0  0  0
 33 70  2  0  0  0
 34 36  1  0  0  0
 34 59  1  0  0  0
 34107  1  0  0  0
 35 44  2  0  0  0
 35 45  1  0  0  0
 35 68  1  0  0  0
 36 56  1  0  0  0
 36108  1  0  0  0
 37 39  1  0  0  0
 37 47  1  0  0  0
 37 66  1  0  0  0
 37109  1  0  0  0
 38 43  2  0  0  0
 38 46  1  0  0  0
 38 47  1  0  0  0
 39 64  1  0  0  0
 39 67  2  0  0  0
 40 52  1  0  0  0
 40 53  2  0  0  0
 40 58  1  0  0  0
 41110  1  0  0  0
 41111  1  0  0  0
 41112  1  0  0  0
 41 48  1  0  0  0
 42 43  1  0  0  0
 42 66  1  0  0  0
 42113  1  0  0  0
 42114  1  0  0  0
 43 44  1  0  0  0
 44115  1  0  0  0
 45 46  2  0  0  0
 45116  1  0  0  0
 46117  1  0  0  0
 47118  1  0  0  0
 47119  1  0  0  0
 48 56  1  0  0  0
 48 65  1  0  0  0
 48120  1  0  0  0
 49 50  1  0  0  0
 49 53  1  0  0  0
 49 64  1  0  0  0
 49121  1  0  0  0
 50 51  1  0  0  0
 50122  1  0  0  0
 50123  1  0  0  0
 51 52  1  0  0  0
 51124  1  0  0  0
 51125  1  0  0  0
 52126  1  0  0  0
 52127  1  0  0  0
 53 54  1  0  0  0
 54 55  2  0  0  0
 54128  1  0  0  0
 55 57  1  0  0  0
 55129  1  0  0  0
 56 69  2  0  0  0
 57 58  2  0  0  0
 57130  1  0  0  0
 58131  1  0  0  0
 59 60  1  0  0  0
 59 61  1  0  0  0
 59 62  1  0  0  0
 60132  1  0  0  0
 60133  1  0  0  0
 60134  1  0  0  0
 61135  1  0  0  0
 61136  1  0  0  0
 61137  1  0  0  0
 62138  1  0  0  0
 62139  1  0  0  0
 62140  1  0  0  0
 63 65  1  0  0  0
 63141  1  0  0  0
 63142  1  0  0  0
 63143  1  0  0  0
 64144  1  0  0  0
 65145  1  0  0  0
 68 81  1  0  0  0
 71 72  2  0  0  0
 71 84  1  0  0  0
 71146  1  0  0  0
 72 82  1  0  0  0
 72 85  1  0  0  0
 73 83  1  0  0  0
 73 84  2  0  0  0
 73 86  1  0  0  0
 74147  1  0  0  0
 74148  1  0  0  0
 74149  1  0  0  0
 74 82  1  0  0  0
 75 82  1  0  0  0
 75150  1  0  0  0
 75151  1  0  0  0
 75152  1  0  0  0
 76153  1  0  0  0
 76154  1  0  0  0
 76155  1  0  0  0
 76 83  1  0  0  0
 77 83  1  0  0  0
 77156  1  0  0  0
 77157  1  0  0  0
 77158  1  0  0  0
 78 79  1  0  0  0
 78 80  1  0  0  0
 78159  1  0  0  0
 78160  1  0  0  0
 79 81  1  0  0  0
 79161  1  0  0  0
 79162  1  0  0  0
 80 83  1  0  0  0
 80163  1  0  0  0
 80164  1  0  0  0
 81165  1  0  0  0
 81166  1  0  0  0
 85 86  2  0  0  0
M  ISO  4   1 100  68 101  81 101  82 100
M  END
> <chiral flag>
0

> <version>
0

> <s_m_source_file>
/data/baiqing/PycharmProjects/Reinvent-master-3.2/result/LINK_invent/BTK/process_docking_weight1_custom_sum_contain_oxygen_bond_distance_aromatic_linkinvent_7_9_3/rearranged_h_0067.sdf

> <i_m_source_file_index>
77

> <r_mmod_Potential_Energy-OPLS-2005>
293.930419921875

> <r_mmod_Stretch_Energy-OPLS-2005>
62.4188919067383

> <r_mmod_Bend_Energy-OPLS-2005>
162.252716064453

> <r_mmod_Torsional_Energy-OPLS-2005>
295.319213867188

> <r_mmod_Improper_Torsional_Energy-OPLS-2005>
22.0911064147949

> <r_mmod_Van_der_Waal_Energy-OPLS-2005>
176.991836547852

> <r_mmod_Electrostatic_Energy-OPLS-2005>
-305.020660400391

> <r_mmod_Solvation_Energy-OPLS-2005>
-201.397583007812

> <b_mmod_Minimization_Converged-OPLS-2005>
0

> <r_mmod_RMS_Derivative-OPLS-2005>
3.29974246025085

$$$$
80
                    3D
 Structure written by MMmdl.
178186  0  0  1  0            999 V2000
  -30.6751  -14.5481   20.3395 C   0  0  0  0  0  0
  -30.4191  -12.2606   19.4755 C   0  0  0  0  0  0
  -29.5091  -12.3133   18.2332 C   0  0  0  0  0  0
  -28.0092  -12.3306   18.6101 C   0  0  0  0  0  0
  -27.6469  -13.2071   19.8466 C   0  0  2  0  0  0
  -28.7013  -13.1019   20.9667 C   0  0  0  0  0  0
  -25.2578  -13.8139   20.5632 C   0  0  0  0  0  0
  -24.1828  -13.0427   20.9136 C   0  0  0  0  0  0
  -24.6381  -11.6895   20.8709 C   0  0  0  0  0  0
  -23.9035  -10.4297   21.0365 C   0  0  0  0  0  0
  -24.3601   -9.4226   21.9150 C   0  0  0  0  0  0
  -23.6284   -8.2269   22.0752 C   0  0  0  0  0  0
  -22.4289   -8.0278   21.3538 C   0  0  0  0  0  0
  -21.9889   -9.0244   20.4650 C   0  0  0  0  0  0
  -22.7186  -10.2140   20.3045 C   0  0  0  0  0  0
  -21.6884   -6.0673   22.5251 C   0  0  0  0  0  0
  -21.4015   -6.5579   23.8164 C   0  0  0  0  0  0
  -21.3686   -5.6760   24.9144 C   0  0  0  0  0  0
  -21.6083   -4.3020   24.7226 C   0  0  0  0  0  0
  -21.8824   -3.8090   23.4355 C   0  0  0  0  0  0
  -21.9213   -4.6890   22.3395 C   0  0  0  0  0  0
  -22.7870  -13.5262   21.1821 C   0  0  0  0  0  0
  -22.1683   -4.2053   21.0968 F   0  0  0  0  0  0
  -21.5679   -3.4514   25.7747 F   0  0  0  0  0  0
  -30.0152  -13.3563   20.3623 N   0  0  0  0  0  0
  -26.2976  -12.9289   20.3288 N   0  0  0  0  0  0
  -25.9313  -11.6454   20.5774 N   0  0  0  0  0  0
  -22.0526  -12.8271   22.0382 N   0  0  0  0  0  0
  -25.4331  -15.1840   20.4064 N   0  0  0  0  0  0
  -31.8922  -14.6240   20.1727 O   0  0  0  0  0  0
  -21.6702   -6.8837   21.4222 O   0  0  0  0  0  0
  -22.3544  -14.5563   20.6686 O   0  0  0  0  0  0
  -24.6097  -31.8726   23.2160 C   0  0  0  0  0  0
  -25.9018  -32.4851   23.8419 C   0  0  1  0  0  0
  -27.2189  -27.4637   20.0854 C   0  0  0  0  0  0
  -25.5883  -33.8645   24.2340 N   0  0  0  0  0  0
  -23.3953  -30.4950   21.5598 C   0  0  2  0  0  0
  -24.8355  -28.9703   20.1118 C   0  0  0  0  0  0
  -22.7389  -29.4660   22.5060 C   0  0  0  0  0  0
  -18.0250  -28.1406   22.8486 C   0  0  0  0  0  0
  -24.1486  -36.7321   23.2647 C   0  0  0  0  0  0
  -25.9195  -30.8419   21.3652 C   0  0  0  0  0  0
  -25.9929  -29.4801   20.7118 C   0  0  0  0  0  0
  -27.1922  -28.7334   20.6959 C   0  0  0  0  0  0
  -26.0470  -26.9632   19.4802 C   0  0  0  0  0  0
  -24.8535  -27.7086   19.4967 C   0  0  0  0  0  0
  -23.5937  -29.8335   20.1719 C   0  0  0  0  0  0
  -25.4110  -36.3148   24.0352 C   0  0  1  0  0  0
  -20.5839  -28.3664   23.1362 C   0  0  2  0  0  0
  -20.6773  -26.9413   22.5446 C   0  0  0  0  0  0
  -19.5751  -26.6395   21.5251 C   0  0  0  0  0  0
  -18.1905  -26.7956   22.1616 C   0  0  0  0  0  0
  -19.1510  -28.8855   23.2918 C   0  0  0  0  0  0
  -18.9440  -30.1456   23.8931 C   0  0  0  0  0  0
  -17.6458  -30.6613   24.0578 C   0  0  0  0  0  0
  -25.9027  -34.9488   23.5160 C   0  0  0  0  0  0
  -16.5339  -29.9118   23.6353 C   0  0  0  0  0  0
  -16.7248  -28.6545   23.0349 C   0  0  0  0  0  0
  -26.4435  -31.6612   25.0732 C   0  0  0  0  0  0
  -25.3717  -31.3696   26.1509 C   0  0  0  0  0  0
  -27.0245  -30.3073   24.6047 C   0  0  0  0  0  0
  -27.6042  -32.4315   25.7460 C   0  0  0  0  0  0
  -27.5585  -37.1800   24.8470 C   0  0  0  0  0  0
  -21.4133  -29.3032   22.3789 N   0  0  0  0  0  0
  -26.4302  -37.3822   23.9404 N   0  0  0  0  0  0
  -24.6601  -31.0849   22.1052 N   0  0  0  0  0  0
  -23.4172  -28.8229   23.3120 O   0  0  0  0  0  0
  -28.3885  -26.7434   20.0661 O   0  0  0  0  0  0
  -26.5618  -34.8944   22.4726 O   0  0  0  0  0  0
  -23.5314  -32.1463   23.7574 O   0  0  0  0  0  0
  -29.6431  -22.3868   22.2736 C   0  0  0  0  0  0
  -30.4236  -23.3290   21.5891 C   0  0  0  0  0  0
  -31.1871  -22.8279   20.5136 C   0  0  0  0  0  0
  -30.2241  -20.7451   20.7815 C   0  0  0  0  0  0
  -31.6466  -23.9666   18.2691 C   0  0  0  0  0  0
  -30.2976  -19.3688   18.6464 C   0  0  0  0  0  0
  -28.3387  -19.3353   20.0728 C   0  0  0  0  0  0
  -31.9313  -17.7680   20.3769 C   0  0  0  0  0  0
  -30.7540  -18.3657   22.4272 C   0  0  0  0  0  0
  -29.5747  -15.8988   18.6121 C   0  0  0  0  0  0
  -30.3944  -24.7888   22.0446 C   0  0  0  0  0  0
  -32.1592  -23.6607   19.6835 C   0  0  0  0  0  0
  -28.9825  -25.4122   22.0037 C   0  0  0  0  0  0
  -29.6055  -16.7437   20.9445 C   0  0  0  0  0  0
  -28.3013  -25.4319   20.6196 C   0  0  0  0  0  0
  -29.8893  -19.3515   20.1515 C   0  0  0  0  0  0
  -30.5124  -18.0636   20.9250 C   0  0  0  0  0  0
  -29.5355  -21.1164   21.8597 N   0  0  0  0  0  0
  -31.0867  -21.5377   20.1442 N   0  0  0  0  0  0
  -29.9006  -15.6268   20.0204 N   0  0  0  0  0  0
  -31.4638  -12.3292   19.1690 H   0  0  0  0  0  0
  -30.3153  -11.3066   19.9947 H   0  0  0  0  0  0
  -29.7046  -11.4330   17.6185 H   0  0  0  0  0  0
  -29.7864  -13.1478   17.5932 H   0  0  0  0  0  0
  -27.7321  -11.2955   18.8111 H   0  0  0  0  0  0
  -27.4148  -12.6306   17.7457 H   0  0  0  0  0  0
  -27.6360  -14.2390   19.5112 H   0  0  0  0  0  0
  -28.6745  -12.1132   21.4244 H   0  0  0  0  0  0
  -28.4876  -13.8206   21.7600 H   0  0  0  0  0  0
  -25.2740   -9.5720   22.4718 H   0  0  0  0  0  0
  -23.9990   -7.4668   22.7497 H   0  0  0  0  0  0
  -21.0813   -8.8726   19.8960 H   0  0  0  0  0  0
  -22.3579  -10.9677   19.6173 H   0  0  0  0  0  0
  -21.1963   -7.6079   23.9597 H   0  0  0  0  0  0
  -21.1530   -6.0526   25.9036 H   0  0  0  0  0  0
  -22.0586   -2.7543   23.2895 H   0  0  0  0  0  0
  -22.4199  -11.9981   22.4816 H   0  0  0  0  0  0
  -21.1107  -13.1258   22.2497 H   0  0  0  0  0  0
  -24.6797  -15.8495   20.5456 H   0  0  0  0  0  0
  -26.3013  -15.6183   20.1245 H   0  0  0  0  0  0
  -26.7070  -32.5575   23.1154 H   0  0  0  0  0  0
  -24.9996  -33.9814   25.0469 H   0  0  0  0  0  0
  -22.6812  -31.3108   21.4269 H   0  0  0  0  0  0
  -23.3787  -35.9620   23.3330 H   0  0  0  0  0  0
  -24.3581  -36.8924   22.2065 H   0  0  0  0  0  0
  -23.7174  -37.6502   23.6642 H   0  0  0  0  0  0
  -26.0285  -31.6094   20.5987 H   0  0  0  0  0  0
  -26.8113  -30.8923   21.9782 H   0  0  0  0  0  0
  -28.0892  -29.1132   21.1574 H   0  0  0  0  0  0
  -26.0573  -26.0022   18.9873 H   0  0  0  0  0  0
  -23.9658  -27.3097   19.0248 H   0  0  0  0  0  0
  -23.6853  -30.6132   19.4155 H   0  0  0  0  0  0
  -22.7133  -29.2560   19.8833 H   0  0  0  0  0  0
  -25.1263  -36.2028   25.0847 H   0  0  0  0  0  0
  -20.9870  -28.3234   24.1512 H   0  0  0  0  0  0
  -20.5752  -26.2269   23.3624 H   0  0  0  0  0  0
  -21.6626  -26.7521   22.1182 H   0  0  0  0  0  0
  -19.6961  -25.6325   21.1245 H   0  0  0  0  0  0
  -19.6735  -27.3245   20.6820 H   0  0  0  0  0  0
  -17.4198  -26.6743   21.3994 H   0  0  0  0  0  0
  -18.0270  -26.0088   22.8996 H   0  0  0  0  0  0
  -19.7925  -30.7245   24.2312 H   0  0  0  0  0  0
  -17.5023  -31.6294   24.5171 H   0  0  0  0  0  0
  -15.5346  -30.3029   23.7701 H   0  0  0  0  0  0
  -15.8632  -28.0882   22.7052 H   0  0  0  0  0  0
  -24.5846  -30.7083   25.7839 H   0  0  0  0  0  0
  -24.8944  -32.2854   26.5028 H   0  0  0  0  0  0
  -25.8077  -30.8789   27.0224 H   0  0  0  0  0  0
  -26.2737  -29.6861   24.1139 H   0  0  0  0  0  0
  -27.4108  -29.7267   25.4431 H   0  0  0  0  0  0
  -27.8542  -30.4451   23.9105 H   0  0  0  0  0  0
  -27.2694  -33.3628   26.2046 H   0  0  0  0  0  0
  -28.3822  -32.6859   25.0241 H   0  0  0  0  0  0
  -28.0743  -31.8430   26.5358 H   0  0  0  0  0  0
  -28.2603  -38.0096   24.7517 H   0  0  0  0  0  0
  -28.1064  -36.2617   24.6276 H   0  0  0  0  0  0
  -27.2309  -37.1445   25.8880 H   0  0  0  0  0  0
  -20.9310  -29.8688   21.6943 H   0  0  0  0  0  0
  -26.0231  -38.2910   24.1418 H   0  0  0  0  0  0
  -29.0567  -22.6719   23.1378 H   0  0  0  0  0  0
  -32.3360  -24.6277   17.7457 H   0  0  0  0  0  0
  -30.6706  -24.4524   18.2952 H   0  0  0  0  0  0
  -31.5596  -23.0528   17.6818 H   0  0  0  0  0  0
  -29.7345  -20.1215   18.0913 H   0  0  0  0  0  0
  -30.1085  -18.4224   18.1574 H   0  0  0  0  0  0
  -31.3520  -19.5986   18.4884 H   0  0  0  0  0  0
  -27.9708  -20.2854   19.6743 H   0  0  0  0  0  0
  -27.8816  -19.2138   21.0551 H   0  0  0  0  0  0
  -27.9590  -18.5601   19.4111 H   0  0  0  0  0  0
  -32.4768  -17.0780   21.0173 H   0  0  0  0  0  0
  -32.5276  -18.6790   20.3234 H   0  0  0  0  0  0
  -31.9207  -17.3368   19.3754 H   0  0  0  0  0  0
  -31.2397  -17.5272   22.9326 H   0  0  0  0  0  0
  -29.8160  -18.5487   22.9535 H   0  0  0  0  0  0
  -31.4093  -19.2249   22.5837 H   0  0  0  0  0  0
  -28.8171  -16.6733   18.5186 H   0  0  0  0  0  0
  -29.1418  -15.0401   18.1117 H   0  0  0  0  0  0
  -30.4530  -16.1958   18.0398 H   0  0  0  0  0  0
  -31.0738  -25.4289   21.4842 H   0  0  0  0  0  0
  -30.7595  -24.8061   23.0724 H   0  0  0  0  0  0
  -33.1008  -23.1161   19.6125 H   0  0  0  0  0  0
  -32.4232  -24.5937   20.1762 H   0  0  0  0  0  0
  -29.0311  -26.4325   22.3915 H   0  0  0  0  0  0
  -28.3377  -24.8772   22.6998 H   0  0  0  0  0  0
  -28.5478  -16.9696   20.8451 H   0  0  0  0  0  0
  -29.6430  -16.2942   21.9373 H   0  0  0  0  0  0
  -27.2710  -25.0879   20.7352 H   0  0  0  0  0  0
  -28.7595  -24.7301   19.9259 H   0  0  0  0  0  0
  1 25  1  0  0  0
  1 30  2  0  0  0
  1 90  1  0  0  0
  2  3  1  0  0  0
  2 25  1  0  0  0
  2 91  1  0  0  0
  2 92  1  0  0  0
  3  4  1  0  0  0
  3 93  1  0  0  0
  3 94  1  0  0  0
  4  5  1  0  0  0
  4 95  1  0  0  0
  4 96  1  0  0  0
  5  6  1  0  0  0
  5 26  1  0  0  0
  5 97  1  0  0  0
  6 25  1  0  0  0
  6 98  1  0  0  0
  6 99  1  0  0  0
  7  8  2  0  0  0
  7 26  1  0  0  0
  7 29  1  0  0  0
  8  9  1  0  0  0
  8 22  1  0  0  0
  9 10  1  0  0  0
  9 27  2  0  0  0
 10 11  2  0  0  0
 10 15  1  0  0  0
 11 12  1  0  0  0
 11100  1  0  0  0
 12 13  2  0  0  0
 12101  1  0  0  0
 13 14  1  0  0  0
 13 31  1  0  0  0
 14 15  2  0  0  0
 14102  1  0  0  0
 15103  1  0  0  0
 16 17  2  0  0  0
 16 21  1  0  0  0
 16 31  1  0  0  0
 17 18  1  0  0  0
 17104  1  0  0  0
 18 19  2  0  0  0
 18105  1  0  0  0
 19 20  1  0  0  0
 19 24  1  0  0  0
 20 21  2  0  0  0
 20106  1  0  0  0
 21 23  1  0  0  0
 22 28  1  0  0  0
 22 32  2  0  0  0
 26 27  1  0  0  0
 28107  1  0  0  0
 28108  1  0  0  0
 29109  1  0  0  0
 29110  1  0  0  0
 33 34  1  0  0  0
 33 66  1  0  0  0
 33 70  2  0  0  0
 34 36  1  0  0  0
 34 59  1  0  0  0
 34111  1  0  0  0
 35 44  2  0  0  0
 35 45  1  0  0  0
 35 68  1  0  0  0
 36 56  1  0  0  0
 36112  1  0  0  0
 37 39  1  0  0  0
 37 47  1  0  0  0
 37 66  1  0  0  0
 37113  1  0  0  0
 38 43  2  0  0  0
 38 46  1  0  0  0
 38 47  1  0  0  0
 39 64  1  0  0  0
 39 67  2  0  0  0
 40 52  1  0  0  0
 40 53  2  0  0  0
 40 58  1  0  0  0
 41114  1  0  0  0
 41115  1  0  0  0
 41116  1  0  0  0
 41 48  1  0  0  0
 42 43  1  0  0  0
 42 66  1  0  0  0
 42117  1  0  0  0
 42118  1  0  0  0
 43 44  1  0  0  0
 44119  1  0  0  0
 45 46  2  0  0  0
 45120  1  0  0  0
 46121  1  0  0  0
 47122  1  0  0  0
 47123  1  0  0  0
 48 56  1  0  0  0
 48 65  1  0  0  0
 48124  1  0  0  0
 49 50  1  0  0  0
 49 53  1  0  0  0
 49 64  1  0  0  0
 49125  1  0  0  0
 50 51  1  0  0  0
 50126  1  0  0  0
 50127  1  0  0  0
 51 52  1  0  0  0
 51128  1  0  0  0
 51129  1  0  0  0
 52130  1  0  0  0
 52131  1  0  0  0
 53 54  1  0  0  0
 54 55  2  0  0  0
 54132  1  0  0  0
 55 57  1  0  0  0
 55133  1  0  0  0
 56 69  2  0  0  0
 57 58  2  0  0  0
 57134  1  0  0  0
 58135  1  0  0  0
 59 60  1  0  0  0
 59 61  1  0  0  0
 59 62  1  0  0  0
 60136  1  0  0  0
 60137  1  0  0  0
 60138  1  0  0  0
 61139  1  0  0  0
 61140  1  0  0  0
 61141  1  0  0  0
 62142  1  0  0  0
 62143  1  0  0  0
 62144  1  0  0  0
 63 65  1  0  0  0
 63145  1  0  0  0
 63146  1  0  0  0
 63147  1  0  0  0
 64148  1  0  0  0
 65149  1  0  0  0
 68 85  1  0  0  0
 71 72  2  0  0  0
 71 88  1  0  0  0
 71150  1  0  0  0
 72 73  1  0  0  0
 72 81  1  0  0  0
 73 82  1  0  0  0
 73 89  2  0  0  0
 74 86  1  0  0  0
 74 88  2  0  0  0
 74 89  1  0  0  0
 75 82  1  0  0  0
 75151  1  0  0  0
 75152  1  0  0  0
 75153  1  0  0  0
 76154  1  0  0  0
 76155  1  0  0  0
 76156  1  0  0  0
 76 86  1  0  0  0
 77 86  1  0  0  0
 77157  1  0  0  0
 77158  1  0  0  0
 77159  1  0  0  0
 78160  1  0  0  0
 78161  1  0  0  0
 78162  1  0  0  0
 78 87  1  0  0  0
 79 87  1  0  0  0
 79163  1  0  0  0
 79164  1  0  0  0
 79165  1  0  0  0
 80 90  1  0  0  0
 80166  1  0  0  0
 80167  1  0  0  0
 80168  1  0  0  0
 81 83  1  0  0  0
 81169  1  0  0  0
 81170  1  0  0  0
 82171  1  0  0  0
 82172  1  0  0  0
 83 85  1  0  0  0
 83173  1  0  0  0
 83174  1  0  0  0
 84 87  1  0  0  0
 84 90  1  0  0  0
 84175  1  0  0  0
 84176  1  0  0  0
 85177  1  0  0  0
 85178  1  0  0  0
 86 87  1  0  0  0
M  ISO  4   1 100  68 101  85 101  90 100
M  END
> <chiral flag>
0

> <version>
0

> <s_m_source_file>
/data/baiqing/PycharmProjects/Reinvent-master-3.2/result/LINK_invent/BTK/process_docking_weight1_custom_sum_contain_oxygen_bond_distance_aromatic_linkinvent_7_9_3/rearranged_h_0067.sdf

> <i_m_source_file_index>
78

> <r_mmod_Potential_Energy-OPLS-2005>
-63.8563385009766

> <r_mmod_Stretch_Energy-OPLS-2005>
57.8512916564941

> <r_mmod_Bend_Energy-OPLS-2005>
143.564529418945

> <r_mmod_Torsional_Energy-OPLS-2005>
368.552337646484

> <r_mmod_Improper_Torsional_Energy-OPLS-2005>
15.1776971817017

> <r_mmod_Van_der_Waal_Energy-OPLS-2005>
191.247863769531

> <r_mmod_Electrostatic_Energy-OPLS-2005>
-680.345642089844

> <r_mmod_Solvation_Energy-OPLS-2005>
-196.918579101562

> <b_mmod_Minimization_Converged-OPLS-2005>
0

> <r_mmod_RMS_Derivative-OPLS-2005>
5.63588047027588

$$$$
81
                    3D
 Structure written by MMmdl.
160168  0  0  1  0            999 V2000
  -30.5752  -14.9153   20.4440 C   0  0  0  0  0  0
  -30.4171  -12.5516   19.5290 C   0  0  0  0  0  0
  -29.5194  -12.5455   18.2702 C   0  0  0  0  0  0
  -28.0508  -12.3323   18.6754 C   0  0  0  0  0  0
  -27.6301  -13.2556   19.8481 C   0  0  2  0  0  0
  -28.6634  -13.2762   20.9929 C   0  0  0  0  0  0
  -25.2466  -13.8254   20.5771 C   0  0  0  0  0  0
  -24.1790  -13.0455   20.9199 C   0  0  0  0  0  0
  -24.6410  -11.6933   20.8712 C   0  0  0  0  0  0
  -23.9085  -10.4305   21.0378 C   0  0  0  0  0  0
  -24.3625   -9.4219   21.9166 C   0  0  0  0  0  0
  -23.6287   -8.2260   22.0772 C   0  0  0  0  0  0
  -22.4273   -8.0286   21.3550 C   0  0  0  0  0  0
  -21.9917   -9.0262   20.4647 C   0  0  0  0  0  0
  -22.7260  -10.2132   20.3044 C   0  0  0  0  0  0
  -21.6851   -6.0708   22.5271 C   0  0  0  0  0  0
  -21.4037   -6.5636   23.8202 C   0  0  0  0  0  0
  -21.3672   -5.6797   24.9170 C   0  0  0  0  0  0
  -21.6047   -4.3056   24.7240 C   0  0  0  0  0  0
  -21.8822   -3.8133   23.4360 C   0  0  0  0  0  0
  -21.9209   -4.6930   22.3406 C   0  0  0  0  0  0
  -22.7799  -13.5173   21.1857 C   0  0  0  0  0  0
  -22.1656   -4.2110   21.0991 F   0  0  0  0  0  0
  -21.5625   -3.4548   25.7764 F   0  0  0  0  0  0
  -29.9588  -13.6621   20.4200 N   0  0  0  0  0  0
  -26.2891  -12.9486   20.3298 N   0  0  0  0  0  0
  -25.9348  -11.6587   20.5726 N   0  0  0  0  0  0
  -22.0484  -12.8135   22.0402 N   0  0  0  0  0  0
  -25.4177  -15.2001   20.4326 N   0  0  0  0  0  0
  -31.7534  -14.9507   20.0617 O   0  0  0  0  0  0
  -21.6647   -6.8871   21.4233 O   0  0  0  0  0  0
  -22.3431  -14.5456   20.6712 O   0  0  0  0  0  0
  -24.6460  -31.8440   23.1885 C   0  0  0  0  0  0
  -25.9242  -32.4680   23.8283 C   0  0  1  0  0  0
  -27.2216  -27.1321   20.1679 C   0  0  0  0  0  0
  -25.5993  -33.8502   24.2155 N   0  0  0  0  0  0
  -23.4508  -30.4584   21.5338 C   0  0  2  0  0  0
  -24.9036  -28.8874   20.1098 C   0  0  0  0  0  0
  -22.7598  -29.4509   22.4855 C   0  0  0  0  0  0
  -18.0288  -28.1452   22.8449 C   0  0  0  0  0  0
  -24.1502  -36.7222   23.2632 C   0  0  0  0  0  0
  -26.0093  -30.7133   21.3949 C   0  0  0  0  0  0
  -26.0820  -29.3295   20.7247 C   0  0  0  0  0  0
  -27.2433  -28.4699   20.7330 C   0  0  0  0  0  0
  -26.0127  -26.7807   19.5291 C   0  0  0  0  0  0
  -24.8772  -27.6210   19.5051 C   0  0  0  0  0  0
  -23.6812  -29.7922   20.1510 C   0  0  0  0  0  0
  -25.4146  -36.2980   24.0267 C   0  0  1  0  0  0
  -20.5905  -28.3740   23.1220 C   0  0  2  0  0  0
  -20.6790  -26.9437   22.5418 C   0  0  0  0  0  0
  -19.5777  -26.6396   21.5231 C   0  0  0  0  0  0
  -18.1923  -26.7979   22.1604 C   0  0  0  0  0  0
  -19.1551  -28.8923   23.2792 C   0  0  0  0  0  0
  -18.9474  -30.1511   23.8824 C   0  0  0  0  0  0
  -17.6471  -30.6624   24.0563 C   0  0  0  0  0  0
  -25.9111  -34.9379   23.5010 C   0  0  0  0  0  0
  -16.5351  -29.9123   23.6366 C   0  0  0  0  0  0
  -16.7264  -28.6566   23.0346 C   0  0  0  0  0  0
  -26.4572  -31.6585   25.0757 C   0  0  0  0  0  0
  -25.3724  -31.3834   26.1425 C   0  0  0  0  0  0
  -27.0500  -30.2955   24.6463 C   0  0  0  0  0  0
  -27.6062  -32.4432   25.7558 C   0  0  0  0  0  0
  -27.5567  -37.1724   24.8452 C   0  0  0  0  0  0
  -21.4273  -29.3010   22.3579 N   0  0  0  0  0  0
  -26.4290  -37.3695   23.9389 N   0  0  0  0  0  0
  -24.7208  -31.0258   22.0935 N   0  0  0  0  0  0
  -23.4215  -28.8026   23.3020 O   0  0  0  0  0  0
  -28.2841  -26.1580   20.1975 O   0  0  0  0  0  0
  -26.5717  -34.8863   22.4584 O   0  0  0  0  0  0
  -23.5575  -32.1383   23.7055 O   0  0  0  0  0  0
  -30.2217  -17.6375   20.1331 C   0  0  0  0  0  0
  -29.8744  -16.3358   20.7525 C   0  0  0  0  0  0
  -29.4871  -18.7269   20.6766 C   0  0  0  0  0  0
  -28.8229  -23.1618   18.6000 C   0  0  0  0  0  0
  -29.0259  -21.8991   22.2995 C   0  0  0  0  0  0
  -27.1534  -21.3888   20.6893 C   0  0  0  0  0  0
  -27.8476  -18.5216   22.6831 C   0  0  0  0  0  0
  -29.5112  -20.3421   20.2774 C   0  0  0  0  0  0
  -28.0357  -24.6695   20.5852 C   0  0  0  0  0  0
  -28.8913  -23.2737   20.1353 C   0  0  1  0  0  0
  -28.6581  -21.7183   20.8119 C   0  0  0  0  0  0
  -28.9787  -16.6608   21.6847 N   0  0  0  0  0  0
  -28.7581  -18.0288   21.6624 N   0  0  0  0  0  0
  -31.4663  -12.6446   19.2469 H   0  0  0  0  0  0
  -30.3366  -11.5951   20.0465 H   0  0  0  0  0  0
  -29.8334  -11.7688   17.5729 H   0  0  0  0  0  0
  -29.6181  -13.4936   17.7392 H   0  0  0  0  0  0
  -27.9355  -11.2886   18.9703 H   0  0  0  0  0  0
  -27.3903  -12.4803   17.8201 H   0  0  0  0  0  0
  -27.6005  -14.2648   19.4329 H   0  0  0  0  0  0
  -28.7244  -12.2984   21.4694 H   0  0  0  0  0  0
  -28.3606  -13.9794   21.7703 H   0  0  0  0  0  0
  -25.2787   -9.5677   22.4727 H   0  0  0  0  0  0
  -23.9984   -7.4654   22.7531 H   0  0  0  0  0  0
  -21.0846   -8.8802   19.8937 H   0  0  0  0  0  0
  -22.3745  -10.9667   19.6146 H   0  0  0  0  0  0
  -21.2034   -7.6139   23.9694 H   0  0  0  0  0  0
  -21.1484   -6.0529   25.9071 H   0  0  0  0  0  0
  -22.0586   -2.7585   23.2892 H   0  0  0  0  0  0
  -22.4122  -11.9750   22.4677 H   0  0  0  0  0  0
  -21.1124  -13.1127   22.2736 H   0  0  0  0  0  0
  -24.6625  -15.8610   20.5718 H   0  0  0  0  0  0
  -26.3029  -15.6431   20.2180 H   0  0  0  0  0  0
  -26.7328  -32.5212   23.1025 H   0  0  0  0  0  0
  -25.0095  -33.9677   25.0271 H   0  0  0  0  0  0
  -22.7497  -31.2781   21.3780 H   0  0  0  0  0  0
  -23.3770  -35.9544   23.3314 H   0  0  0  0  0  0
  -24.3549  -36.8907   22.2046 H   0  0  0  0  0  0
  -23.7312  -37.6409   23.6736 H   0  0  0  0  0  0
  -26.1879  -31.4816   20.6397 H   0  0  0  0  0  0
  -26.8697  -30.7394   22.0545 H   0  0  0  0  0  0
  -28.1432  -28.8010   21.2332 H   0  0  0  0  0  0
  -25.9184  -25.8097   19.0676 H   0  0  0  0  0  0
  -23.9695  -27.2643   19.0392 H   0  0  0  0  0  0
  -23.8114  -30.5753   19.4035 H   0  0  0  0  0  0
  -22.7990  -29.2331   19.8382 H   0  0  0  0  0  0
  -25.1331  -36.1776   25.0759 H   0  0  0  0  0  0
  -20.9935  -28.3362   24.1367 H   0  0  0  0  0  0
  -20.5776  -26.2316   23.3628 H   0  0  0  0  0  0
  -21.6640  -26.7504   22.1156 H   0  0  0  0  0  0
  -19.6980  -25.6304   21.1290 H   0  0  0  0  0  0
  -19.6800  -27.3183   20.6756 H   0  0  0  0  0  0
  -17.4214  -26.6699   21.3986 H   0  0  0  0  0  0
  -18.0294  -26.0162   22.9045 H   0  0  0  0  0  0
  -19.7954  -30.7332   24.2170 H   0  0  0  0  0  0
  -17.5045  -31.6300   24.5183 H   0  0  0  0  0  0
  -15.5359  -30.3011   23.7811 H   0  0  0  0  0  0
  -15.8635  -28.0911   22.7091 H   0  0  0  0  0  0
  -24.5853  -30.7267   25.7717 H   0  0  0  0  0  0
  -24.8972  -32.3055   26.4791 H   0  0  0  0  0  0
  -25.7935  -30.9012   27.0260 H   0  0  0  0  0  0
  -26.3198  -29.6606   24.1437 H   0  0  0  0  0  0
  -27.4036  -29.7347   25.5140 H   0  0  0  0  0  0
  -27.9120  -30.4189   23.9901 H   0  0  0  0  0  0
  -27.2605  -33.3763   26.2052 H   0  0  0  0  0  0
  -28.3891  -32.7016   25.0400 H   0  0  0  0  0  0
  -28.0723  -31.8657   26.5564 H   0  0  0  0  0  0
  -28.2519  -38.0064   24.7446 H   0  0  0  0  0  0
  -28.1117  -36.2569   24.6334 H   0  0  0  0  0  0
  -27.2240  -37.1396   25.8840 H   0  0  0  0  0  0
  -20.9548  -29.8659   21.6662 H   0  0  0  0  0  0
  -26.0144  -38.2733   24.1457 H   0  0  0  0  0  0
  -30.9641  -17.7527   19.3537 H   0  0  0  0  0  0
  -29.2011  -24.0647   18.1243 H   0  0  0  0  0  0
  -27.7995  -23.0230   18.2501 H   0  0  0  0  0  0
  -29.4224  -22.3331   18.2247 H   0  0  0  0  0  0
  -28.9302  -20.9762   22.8640 H   0  0  0  0  0  0
  -28.3895  -22.6403   22.7889 H   0  0  0  0  0  0
  -30.0598  -22.2360   22.4114 H   0  0  0  0  0  0
  -26.9950  -20.3656   20.3495 H   0  0  0  0  0  0
  -26.6390  -22.0240   19.9685 H   0  0  0  0  0  0
  -26.6206  -21.5080   21.6339 H   0  0  0  0  0  0
  -27.2434  -19.3397   22.3136 H   0  0  0  0  0  0
  -28.4073  -18.8537   23.5574 H   0  0  0  0  0  0
  -27.1677  -17.7298   23.0003 H   0  0  0  0  0  0
  -29.3104  -20.3243   19.2059 H   0  0  0  0  0  0
  -30.5621  -20.6314   20.3216 H   0  0  0  0  0  0
  -28.1041  -24.7047   21.6715 H   0  0  0  0  0  0
  -26.9869  -24.4459   20.4077 H   0  0  0  0  0  0
  -29.9321  -23.5197   20.3579 H   0  0  0  0  0  0
  1 25  1  0  0  0
  1 30  2  0  0  0
  1 72  1  0  0  0
  2  3  1  0  0  0
  2 25  1  0  0  0
  2 84  1  0  0  0
  2 85  1  0  0  0
  3  4  1  0  0  0
  3 86  1  0  0  0
  3 87  1  0  0  0
  4  5  1  0  0  0
  4 88  1  0  0  0
  4 89  1  0  0  0
  5  6  1  0  0  0
  5 26  1  0  0  0
  5 90  1  0  0  0
  6 25  1  0  0  0
  6 91  1  0  0  0
  6 92  1  0  0  0
  7  8  2  0  0  0
  7 26  1  0  0  0
  7 29  1  0  0  0
  8  9  1  0  0  0
  8 22  1  0  0  0
  9 10  1  0  0  0
  9 27  2  0  0  0
 10 11  2  0  0  0
 10 15  1  0  0  0
 11 12  1  0  0  0
 11 93  1  0  0  0
 12 13  2  0  0  0
 12 94  1  0  0  0
 13 14  1  0  0  0
 13 31  1  0  0  0
 14 15  2  0  0  0
 14 95  1  0  0  0
 15 96  1  0  0  0
 16 17  2  0  0  0
 16 21  1  0  0  0
 16 31  1  0  0  0
 17 18  1  0  0  0
 17 97  1  0  0  0
 18 19  2  0  0  0
 18 98  1  0  0  0
 19 20  1  0  0  0
 19 24  1  0  0  0
 20 21  2  0  0  0
 20 99  1  0  0  0
 21 23  1  0  0  0
 22 28  1  0  0  0
 22 32  2  0  0  0
 26 27  1  0  0  0
 28100  1  0  0  0
 28101  1  0  0  0
 29102  1  0  0  0
 29103  1  0  0  0
 33 34  1  0  0  0
 33 66  1  0  0  0
 33 70  2  0  0  0
 34 36  1  0  0  0
 34 59  1  0  0  0
 34104  1  0  0  0
 35 44  2  0  0  0
 35 45  1  0  0  0
 35 68  1  0  0  0
 36 56  1  0  0  0
 36105  1  0  0  0
 37 39  1  0  0  0
 37 47  1  0  0  0
 37 66  1  0  0  0
 37106  1  0  0  0
 38 43  2  0  0  0
 38 46  1  0  0  0
 38 47  1  0  0  0
 39 64  1  0  0  0
 39 67  2  0  0  0
 40 52  1  0  0  0
 40 53  2  0  0  0
 40 58  1  0  0  0
 41107  1  0  0  0
 41108  1  0  0  0
 41109  1  0  0  0
 41 48  1  0  0  0
 42 43  1  0  0  0
 42 66  1  0  0  0
 42110  1  0  0  0
 42111  1  0  0  0
 43 44  1  0  0  0
 44112  1  0  0  0
 45 46  2  0  0  0
 45113  1  0  0  0
 46114  1  0  0  0
 47115  1  0  0  0
 47116  1  0  0  0
 48 56  1  0  0  0
 48 65  1  0  0  0
 48117  1  0  0  0
 49 50  1  0  0  0
 49 53  1  0  0  0
 49 64  1  0  0  0
 49118  1  0  0  0
 50 51  1  0  0  0
 50119  1  0  0  0
 50120  1  0  0  0
 51 52  1  0  0  0
 51121  1  0  0  0
 51122  1  0  0  0
 52123  1  0  0  0
 52124  1  0  0  0
 53 54  1  0  0  0
 54 55  2  0  0  0
 54125  1  0  0  0
 55 57  1  0  0  0
 55126  1  0  0  0
 56 69  2  0  0  0
 57 58  2  0  0  0
 57127  1  0  0  0
 58128  1  0  0  0
 59 60  1  0  0  0
 59 61  1  0  0  0
 59 62  1  0  0  0
 60129  1  0  0  0
 60130  1  0  0  0
 60131  1  0  0  0
 61132  1  0  0  0
 61133  1  0  0  0
 61134  1  0  0  0
 62135  1  0  0  0
 62136  1  0  0  0
 62137  1  0  0  0
 63 65  1  0  0  0
 63138  1  0  0  0
 63139  1  0  0  0
 63140  1  0  0  0
 64141  1  0  0  0
 65142  1  0  0  0
 68 79  1  0  0  0
 71 72  1  0  0  0
 71 73  2  0  0  0
 71143  1  0  0  0
 72 82  2  0  0  0
 73 78  1  0  0  0
 73 83  1  0  0  0
 74144  1  0  0  0
 74145  1  0  0  0
 74146  1  0  0  0
 74 80  1  0  0  0
 75147  1  0  0  0
 75148  1  0  0  0
 75149  1  0  0  0
 75 81  1  0  0  0
 76 81  1  0  0  0
 76150  1  0  0  0
 76151  1  0  0  0
 76152  1  0  0  0
 77 83  1  0  0  0
 77153  1  0  0  0
 77154  1  0  0  0
 77155  1  0  0  0
 78 81  1  0  0  0
 78156  1  0  0  0
 78157  1  0  0  0
 79 80  1  0  0  0
 79158  1  0  0  0
 79159  1  0  0  0
 80 81  1  0  0  0
 80160  1  0  0  0
 82 83  1  0  0  0
M  ISO  4   1 100  68 101  72 100  79 101
M  END
> <chiral flag>
0

> <version>
0

> <s_m_source_file>
/data/baiqing/PycharmProjects/Reinvent-master-3.2/result/LINK_invent/BTK/process_docking_weight1_custom_sum_contain_oxygen_bond_distance_aromatic_linkinvent_7_9_3/rearranged_h_0067.sdf

> <i_m_source_file_index>
79

> <r_mmod_Potential_Energy-OPLS-2005>
662.053466796875

> <r_mmod_Stretch_Energy-OPLS-2005>
279.349548339844

> <r_mmod_Bend_Energy-OPLS-2005>
291.582489013672

> <r_mmod_Torsional_Energy-OPLS-2005>
239.714309692383

> <r_mmod_Improper_Torsional_Energy-OPLS-2005>
3.63375735282898

> <r_mmod_Van_der_Waal_Energy-OPLS-2005>
108.168617248535

> <r_mmod_Electrostatic_Energy-OPLS-2005>
-251.642608642578

> <r_mmod_Solvation_Energy-OPLS-2005>
-186.225112915039

> <b_mmod_Minimization_Converged-OPLS-2005>
0

> <r_mmod_RMS_Derivative-OPLS-2005>
5.51444530487061

$$$$
82
                    3D
 Structure written by MMmdl.
178186  0  0  1  0            999 V2000
  -30.6546  -14.5502   20.5355 C   0  0  0  0  0  0
  -30.4349  -12.3410   19.4429 C   0  0  0  0  0  0
  -29.5049  -12.5141   18.2206 C   0  0  0  0  0  0
  -28.0242  -12.3728   18.6254 C   0  0  0  0  0  0
  -27.6646  -13.2129   19.8796 C   0  0  2  0  0  0
  -28.7081  -13.0104   21.0053 C   0  0  0  0  0  0
  -25.2608  -13.8179   20.5687 C   0  0  0  0  0  0
  -24.1859  -13.0433   20.9180 C   0  0  0  0  0  0
  -24.6431  -11.6913   20.8753 C   0  0  0  0  0  0
  -23.9099  -10.4298   21.0425 C   0  0  0  0  0  0
  -24.3647   -9.4206   21.9197 C   0  0  0  0  0  0
  -23.6314   -8.2246   22.0769 C   0  0  0  0  0  0
  -22.4295   -8.0303   21.3552 C   0  0  0  0  0  0
  -21.9945   -9.0275   20.4645 C   0  0  0  0  0  0
  -22.7283  -10.2149   20.3065 C   0  0  0  0  0  0
  -21.6860   -6.0753   22.5283 C   0  0  0  0  0  0
  -21.4015   -6.5656   23.8217 C   0  0  0  0  0  0
  -21.3654   -5.6811   24.9175 C   0  0  0  0  0  0
  -21.6044   -4.3072   24.7231 C   0  0  0  0  0  0
  -21.8817   -3.8168   23.4348 C   0  0  0  0  0  0
  -21.9192   -4.6982   22.3408 C   0  0  0  0  0  0
  -22.7875  -13.5225   21.1825 C   0  0  0  0  0  0
  -22.1661   -4.2172   21.0981 F   0  0  0  0  0  0
  -21.5621   -3.4548   25.7735 F   0  0  0  0  0  0
  -30.0364  -13.3351   20.4570 N   0  0  0  0  0  0
  -26.3051  -12.9355   20.3380 N   0  0  0  0  0  0
  -25.9363  -11.6512   20.5795 N   0  0  0  0  0  0
  -22.0509  -12.8212   22.0377 N   0  0  0  0  0  0
  -25.4320  -15.1890   20.4081 N   0  0  0  0  0  0
  -31.7712  -14.7559   20.0544 O   0  0  0  0  0  0
  -21.6647   -6.8905   21.4249 O   0  0  0  0  0  0
  -22.3566  -14.5529   20.6676 O   0  0  0  0  0  0
  -24.6179  -31.8658   23.2068 C   0  0  0  0  0  0
  -25.9057  -32.4811   23.8379 C   0  0  1  0  0  0
  -27.2341  -27.3903   20.1157 C   0  0  0  0  0  0
  -25.5902  -33.8609   24.2310 N   0  0  0  0  0  0
  -23.4086  -30.4890   21.5478 C   0  0  2  0  0  0
  -24.8567  -28.9472   20.1180 C   0  0  0  0  0  0
  -22.7425  -29.4660   22.4971 C   0  0  0  0  0  0
  -18.0277  -28.1375   22.8489 C   0  0  0  0  0  0
  -24.1493  -36.7306   23.2639 C   0  0  0  0  0  0
  -25.9407  -30.8199   21.3659 C   0  0  0  0  0  0
  -26.0199  -29.4498   20.7150 C   0  0  0  0  0  0
  -27.2120  -28.6809   20.7060 C   0  0  0  0  0  0
  -26.0528  -26.9192   19.4998 C   0  0  0  0  0  0
  -24.8701  -27.6825   19.5072 C   0  0  0  0  0  0
  -23.6201  -29.8186   20.1643 C   0  0  0  0  0  0
  -25.4116  -36.3105   24.0334 C   0  0  1  0  0  0
  -20.5869  -28.3675   23.1305 C   0  0  2  0  0  0
  -20.6771  -26.9406   22.5414 C   0  0  0  0  0  0
  -19.5747  -26.6383   21.5214 C   0  0  0  0  0  0
  -18.1922  -26.7925   22.1616 C   0  0  0  0  0  0
  -19.1525  -28.8839   23.2892 C   0  0  0  0  0  0
  -18.9455  -30.1449   23.8898 C   0  0  0  0  0  0
  -17.6458  -30.6586   24.0560 C   0  0  0  0  0  0
  -25.9042  -34.9471   23.5121 C   0  0  0  0  0  0
  -16.5348  -29.9086   23.6327 C   0  0  0  0  0  0
  -16.7268  -28.6500   23.0353 C   0  0  0  0  0  0
  -26.4474  -31.6590   25.0711 C   0  0  0  0  0  0
  -25.3725  -31.3674   26.1440 C   0  0  0  0  0  0
  -27.0329  -30.3041   24.6092 C   0  0  0  0  0  0
  -27.6035  -32.4312   25.7498 C   0  0  0  0  0  0
  -27.5585  -37.1811   24.8460 C   0  0  0  0  0  0
  -21.4146  -29.3048   22.3710 N   0  0  0  0  0  0
  -26.4296  -37.3796   23.9408 N   0  0  0  0  0  0
  -24.6743  -31.0730   22.0986 N   0  0  0  0  0  0
  -23.4174  -28.8198   23.3030 O   0  0  0  0  0  0
  -28.3865  -26.6160   20.1239 O   0  0  0  0  0  0
  -26.5611  -34.8928   22.4687 O   0  0  0  0  0  0
  -23.5363  -32.1424   23.7440 O   0  0  0  0  0  0
  -29.0076  -21.7347   20.1151 C   0  0  0  0  0  0
  -29.1487  -20.2958   20.3255 C   0  0  0  0  0  0
  -27.8433  -21.3424   18.1181 C   0  0  0  0  0  0
  -27.9443  -19.9497   18.3255 C   0  0  0  0  0  0
  -30.7265  -25.1081   21.0851 C   0  0  0  0  0  0
  -28.4156  -19.0910   22.4025 C   0  0  0  0  0  0
  -30.4778  -20.3975   22.5474 C   0  0  0  0  0  0
  -31.7411  -18.5526   20.3324 C   0  0  0  0  0  0
  -31.2176  -17.5392   22.5211 C   0  0  0  0  0  0
  -29.4378  -22.9015   21.0408 C   0  0  0  0  0  0
  -29.7980  -16.9661   20.4912 C   0  0  0  0  0  0
  -28.2435  -25.2329   20.5593 C   0  0  0  0  0  0
  -29.5428  -24.3661   20.4368 C   0  0  1  0  0  0
  -29.6706  -19.4852   21.5839 C   0  0  0  0  0  0
  -27.1555  -21.9567   16.8943 C   0  0  0  0  0  0
  -27.3603  -18.9221   17.3516 C   0  0  0  0  0  0
  -30.5605  -18.1478   21.2492 C   0  0  0  0  0  0
  -28.3463  -22.2083   19.0301 N   0  0  0  0  0  0
  -28.5918  -19.4601   19.4119 N   0  0  0  0  0  0
  -29.8739  -15.5602   20.9866 N   0  0  0  0  0  0
  -27.4642  -21.3025   15.7752 F   0  0  0  0  0  0
  -25.8318  -21.9537   17.0585 F   0  0  0  0  0  0
  -27.5432  -23.2241   16.7283 F   0  0  0  0  0  0
  -26.1628  -19.2914   16.8996 F   0  0  0  0  0  0
  -28.1900  -18.7586   16.3216 F   0  0  0  0  0  0
  -27.2071  -17.7362   17.9471 F   0  0  0  0  0  0
  -31.4785  -12.4491   19.1438 H   0  0  0  0  0  0
  -30.3457  -11.3341   19.8534 H   0  0  0  0  0  0
  -29.7497  -11.7798   17.4515 H   0  0  0  0  0  0
  -29.6687  -13.4949   17.7702 H   0  0  0  0  0  0
  -27.8282  -11.3179   18.8165 H   0  0  0  0  0  0
  -27.3807  -12.6538   17.7905 H   0  0  0  0  0  0
  -27.7008  -14.2583   19.5741 H   0  0  0  0  0  0
  -28.6967  -11.9762   21.3520 H   0  0  0  0  0  0
  -28.4640  -13.6118   21.8817 H   0  0  0  0  0  0
  -25.2801   -9.5661   22.4770 H   0  0  0  0  0  0
  -24.0011   -7.4640   22.7498 H   0  0  0  0  0  0
  -21.0880   -8.8802   19.8949 H   0  0  0  0  0  0
  -22.3760  -10.9696   19.6171 H   0  0  0  0  0  0
  -21.2017   -7.6168   23.9719 H   0  0  0  0  0  0
  -21.1469   -6.0547   25.9082 H   0  0  0  0  0  0
  -22.0604   -2.7629   23.2843 H   0  0  0  0  0  0
  -22.4133  -11.9872   22.4757 H   0  0  0  0  0  0
  -21.1117  -13.1226   22.2558 H   0  0  0  0  0  0
  -24.6629  -15.8419   20.5096 H   0  0  0  0  0  0
  -26.2776  -15.6242   20.0638 H   0  0  0  0  0  0
  -26.7125  -32.5522   23.1141 H   0  0  0  0  0  0
  -25.0040  -33.9769   25.0447 H   0  0  0  0  0  0
  -22.6990  -31.3062   21.4056 H   0  0  0  0  0  0
  -23.3764  -35.9627   23.3289 H   0  0  0  0  0  0
  -24.3586  -36.8940   22.2055 H   0  0  0  0  0  0
  -23.7230  -37.6499   23.6667 H   0  0  0  0  0  0
  -26.0563  -31.5836   20.5964 H   0  0  0  0  0  0
  -26.8270  -30.8750   21.9865 H   0  0  0  0  0  0
  -28.1083  -29.0625   21.1746 H   0  0  0  0  0  0
  -26.0332  -25.9615   19.0009 H   0  0  0  0  0  0
  -23.9767  -27.2913   19.0407 H   0  0  0  0  0  0
  -23.7310  -30.5918   19.4033 H   0  0  0  0  0  0
  -22.7425  -29.2398   19.8686 H   0  0  0  0  0  0
  -25.1296  -36.1970   25.0828 H   0  0  0  0  0  0
  -20.9964  -28.3250   24.1426 H   0  0  0  0  0  0
  -20.5691  -26.2284   23.3601 H   0  0  0  0  0  0
  -21.6643  -26.7453   22.1204 H   0  0  0  0  0  0
  -19.6914  -25.6299   21.1241 H   0  0  0  0  0  0
  -19.6690  -27.3197   20.6747 H   0  0  0  0  0  0
  -17.4202  -26.6687   21.4009 H   0  0  0  0  0  0
  -18.0307  -26.0057   22.8999 H   0  0  0  0  0  0
  -19.7934  -30.7264   24.2262 H   0  0  0  0  0  0
  -17.5019  -31.6276   24.5147 H   0  0  0  0  0  0
  -15.5353  -30.2993   23.7647 H   0  0  0  0  0  0
  -15.8667  -28.0828   22.7061 H   0  0  0  0  0  0
  -24.5920  -30.7007   25.7754 H   0  0  0  0  0  0
  -24.8885  -32.2812   26.4889 H   0  0  0  0  0  0
  -25.8070  -30.8836   27.0194 H   0  0  0  0  0  0
  -26.2889  -29.6794   24.1132 H   0  0  0  0  0  0
  -27.4099  -29.7284   25.4555 H   0  0  0  0  0  0
  -27.8717  -30.4381   23.9257 H   0  0  0  0  0  0
  -27.2645  -33.3607   26.2087 H   0  0  0  0  0  0
  -28.3850  -32.6874   25.0331 H   0  0  0  0  0  0
  -28.0689  -31.8416   26.5408 H   0  0  0  0  0  0
  -28.2586  -38.0128   24.7544 H   0  0  0  0  0  0
  -28.1103  -36.2660   24.6252 H   0  0  0  0  0  0
  -27.2297  -37.1416   25.8859 H   0  0  0  0  0  0
  -20.9302  -29.8777   21.6940 H   0  0  0  0  0  0
  -26.0184  -38.2873   24.1414 H   0  0  0  0  0  0
  -31.6645  -24.5759   20.9223 H   0  0  0  0  0  0
  -30.5852  -25.2180   22.1606 H   0  0  0  0  0  0
  -30.8530  -26.1041   20.6612 H   0  0  0  0  0  0
  -27.8421  -19.9744   22.6850 H   0  0  0  0  0  0
  -28.6693  -18.5718   23.3252 H   0  0  0  0  0  0
  -27.7297  -18.4526   21.8508 H   0  0  0  0  0  0
  -29.8796  -21.2211   22.9271 H   0  0  0  0  0  0
  -31.3773  -20.8007   22.0830 H   0  0  0  0  0  0
  -30.7822  -19.8960   23.4623 H   0  0  0  0  0  0
  -32.3410  -17.6838   20.0556 H   0  0  0  0  0  0
  -32.4160  -19.2573   20.8172 H   0  0  0  0  0  0
  -31.4025  -19.0154   19.4056 H   0  0  0  0  0  0
  -31.8076  -16.6546   22.2840 H   0  0  0  0  0  0
  -30.4805  -17.2439   23.2661 H   0  0  0  0  0  0
  -31.9357  -18.2079   22.9939 H   0  0  0  0  0  0
  -30.4451  -22.6591   21.3647 H   0  0  0  0  0  0
  -28.8129  -22.9133   21.9339 H   0  0  0  0  0  0
  -30.0614  -16.9668   19.4314 H   0  0  0  0  0  0
  -28.7289  -17.1584   20.4805 H   0  0  0  0  0  0
  -27.9224  -25.2490   21.6025 H   0  0  0  0  0  0
  -27.4550  -24.7221   20.0101 H   0  0  0  0  0  0
  -29.8005  -24.2902   19.3806 H   0  0  0  0  0  0
  -29.0253  -15.2368   21.4256 H   0  0  0  0  0  0
  1 25  1  0  0  0
  1 30  2  0  0  0
  1 90  1  0  0  0
  2  3  1  0  0  0
  2 25  1  0  0  0
  2 97  1  0  0  0
  2 98  1  0  0  0
  3  4  1  0  0  0
  3 99  1  0  0  0
  3100  1  0  0  0
  4  5  1  0  0  0
  4101  1  0  0  0
  4102  1  0  0  0
  5  6  1  0  0  0
  5 26  1  0  0  0
  5103  1  0  0  0
  6 25  1  0  0  0
  6104  1  0  0  0
  6105  1  0  0  0
  7  8  2  0  0  0
  7 26  1  0  0  0
  7 29  1  0  0  0
  8  9  1  0  0  0
  8 22  1  0  0  0
  9 10  1  0  0  0
  9 27  2  0  0  0
 10 11  2  0  0  0
 10 15  1  0  0  0
 11 12  1  0  0  0
 11106  1  0  0  0
 12 13  2  0  0  0
 12107  1  0  0  0
 13 14  1  0  0  0
 13 31  1  0  0  0
 14 15  2  0  0  0
 14108  1  0  0  0
 15109  1  0  0  0
 16 17  2  0  0  0
 16 21  1  0  0  0
 16 31  1  0  0  0
 17 18  1  0  0  0
 17110  1  0  0  0
 18 19  2  0  0  0
 18111  1  0  0  0
 19 20  1  0  0  0
 19 24  1  0  0  0
 20 21  2  0  0  0
 20112  1  0  0  0
 21 23  1  0  0  0
 22 28  1  0  0  0
 22 32  2  0  0  0
 26 27  1  0  0  0
 28113  1  0  0  0
 28114  1  0  0  0
 29115  1  0  0  0
 29116  1  0  0  0
 33 34  1  0  0  0
 33 66  1  0  0  0
 33 70  2  0  0  0
 34 36  1  0  0  0
 34 59  1  0  0  0
 34117  1  0  0  0
 35 44  2  0  0  0
 35 45  1  0  0  0
 35 68  1  0  0  0
 36 56  1  0  0  0
 36118  1  0  0  0
 37 39  1  0  0  0
 37 47  1  0  0  0
 37 66  1  0  0  0
 37119  1  0  0  0
 38 43  2  0  0  0
 38 46  1  0  0  0
 38 47  1  0  0  0
 39 64  1  0  0  0
 39 67  2  0  0  0
 40 52  1  0  0  0
 40 53  2  0  0  0
 40 58  1  0  0  0
 41120  1  0  0  0
 41121  1  0  0  0
 41122  1  0  0  0
 41 48  1  0  0  0
 42 43  1  0  0  0
 42 66  1  0  0  0
 42123  1  0  0  0
 42124  1  0  0  0
 43 44  1  0  0  0
 44125  1  0  0  0
 45 46  2  0  0  0
 45126  1  0  0  0
 46127  1  0  0  0
 47128  1  0  0  0
 47129  1  0  0  0
 48 56  1  0  0  0
 48 65  1  0  0  0
 48130  1  0  0  0
 49 50  1  0  0  0
 49 53  1  0  0  0
 49 64  1  0  0  0
 49131  1  0  0  0
 50 51  1  0  0  0
 50132  1  0  0  0
 50133  1  0  0  0
 51 52  1  0  0  0
 51134  1  0  0  0
 51135  1  0  0  0
 52136  1  0  0  0
 52137  1  0  0  0
 53 54  1  0  0  0
 54 55  2  0  0  0
 54138  1  0  0  0
 55 57  1  0  0  0
 55139  1  0  0  0
 56 69  2  0  0  0
 57 58  2  0  0  0
 57140  1  0  0  0
 58141  1  0  0  0
 59 60  1  0  0  0
 59 61  1  0  0  0
 59 62  1  0  0  0
 60142  1  0  0  0
 60143  1  0  0  0
 60144  1  0  0  0
 61145  1  0  0  0
 61146  1  0  0  0
 61147  1  0  0  0
 62148  1  0  0  0
 62149  1  0  0  0
 62150  1  0  0  0
 63 65  1  0  0  0
 63151  1  0  0  0
 63152  1  0  0  0
 63153  1  0  0  0
 64154  1  0  0  0
 65155  1  0  0  0
 68 82  1  0  0  0
 71 72  1  0  0  0
 71 80  1  0  0  0
 71 88  2  0  0  0
 72 84  1  0  0  0
 72 89  2  0  0  0
 73 74  2  0  0  0
 73 85  1  0  0  0
 73 88  1  0  0  0
 74 86  1  0  0  0
 74 89  1  0  0  0
 75156  1  0  0  0
 75157  1  0  0  0
 75158  1  0  0  0
 75 83  1  0  0  0
 76159  1  0  0  0
 76160  1  0  0  0
 76161  1  0  0  0
 76 84  1  0  0  0
 77 84  1  0  0  0
 77162  1  0  0  0
 77163  1  0  0  0
 77164  1  0  0  0
 78165  1  0  0  0
 78166  1  0  0  0
 78167  1  0  0  0
 78 87  1  0  0  0
 79 87  1  0  0  0
 79168  1  0  0  0
 79169  1  0  0  0
 79170  1  0  0  0
 80 83  1  0  0  0
 80171  1  0  0  0
 80172  1  0  0  0
 81 87  1  0  0  0
 81 90  1  0  0  0
 81173  1  0  0  0
 81174  1  0  0  0
 82 83  1  0  0  0
 82175  1  0  0  0
 82176  1  0  0  0
 83177  1  0  0  0
 84 87  1  0  0  0
 85 91  1  0  0  0
 85 92  1  0  0  0
 85 93  1  0  0  0
 86 94  1  0  0  0
 86 95  1  0  0  0
 86 96  1  0  0  0
 90178  1  0  0  0
M  ISO  4   1 100  68 101  82 101  90 100
M  END
> <chiral flag>
0

> <version>
0

> <s_m_source_file>
/data/baiqing/PycharmProjects/Reinvent-master-3.2/result/LINK_invent/BTK/process_docking_weight1_custom_sum_contain_oxygen_bond_distance_aromatic_linkinvent_7_9_3/rearranged_h_0067.sdf

> <i_m_source_file_index>
80

> <r_mmod_Potential_Energy-OPLS-2005>
263.42138671875

> <r_mmod_Stretch_Energy-OPLS-2005>
86.874641418457

> <r_mmod_Bend_Energy-OPLS-2005>
172.095443725586

> <r_mmod_Torsional_Energy-OPLS-2005>
273.254333496094

> <r_mmod_Improper_Torsional_Energy-OPLS-2005>
7.48060035705566

> <r_mmod_Van_der_Waal_Energy-OPLS-2005>
185.342178344727

> <r_mmod_Electrostatic_Energy-OPLS-2005>
-299.215240478516

> <r_mmod_Solvation_Energy-OPLS-2005>
-184.614944458008

> <b_mmod_Minimization_Converged-OPLS-2005>
0

> <r_mmod_RMS_Derivative-OPLS-2005>
1.77103316783905

$$$$
83
                    3D
 Structure written by MMmdl.
173181  0  0  1  0            999 V2000
  -30.6282  -14.7487   20.4400 C   0  0  0  0  0  0
  -30.4661  -12.4459   19.4533 C   0  0  0  0  0  0
  -29.5102  -12.4918   18.2353 C   0  0  0  0  0  0
  -28.0315  -12.3101   18.6480 C   0  0  0  0  0  0
  -27.6479  -13.1682   19.8822 C   0  0  2  0  0  0
  -28.7325  -13.0399   20.9795 C   0  0  0  0  0  0
  -25.2404  -13.7979   20.5484 C   0  0  0  0  0  0
  -24.1725  -13.0341   20.9126 C   0  0  0  0  0  0
  -24.6313  -11.6813   20.8867 C   0  0  0  0  0  0
  -23.9002  -10.4254   21.0485 C   0  0  0  0  0  0
  -24.3570   -9.4152   21.9243 C   0  0  0  0  0  0
  -23.6282   -8.2175   22.0731 C   0  0  0  0  0  0
  -22.4238   -8.0282   21.3550 C   0  0  0  0  0  0
  -21.9870   -9.0280   20.4702 C   0  0  0  0  0  0
  -22.7194  -10.2138   20.3101 C   0  0  0  0  0  0
  -21.6896   -6.0748   22.5316 C   0  0  0  0  0  0
  -21.4084   -6.5608   23.8262 C   0  0  0  0  0  0
  -21.3605   -5.6691   24.9167 C   0  0  0  0  0  0
  -21.5954   -4.2960   24.7160 C   0  0  0  0  0  0
  -21.8835   -3.8131   23.4270 C   0  0  0  0  0  0
  -21.9228   -4.7003   22.3377 C   0  0  0  0  0  0
  -22.7752  -13.5192   21.1796 C   0  0  0  0  0  0
  -22.1715   -4.2220   21.0954 F   0  0  0  0  0  0
  -21.5531   -3.4388   25.7625 F   0  0  0  0  0  0
  -30.0210  -13.4891   20.4112 N   0  0  0  0  0  0
  -26.2962  -12.9093   20.3563 N   0  0  0  0  0  0
  -25.9245  -11.6336   20.6013 N   0  0  0  0  0  0
  -22.0439  -12.8307   22.0462 N   0  0  0  0  0  0
  -25.3685  -15.1691   20.3463 N   0  0  0  0  0  0
  -31.8251  -14.8046   20.1381 O   0  0  0  0  0  0
  -21.6604   -6.8909   21.4260 O   0  0  0  0  0  0
  -22.3489  -14.5561   20.6660 O   0  0  0  0  0  0
  -24.6212  -31.8635   23.1989 C   0  0  0  0  0  0
  -25.9062  -32.4831   23.8311 C   0  0  1  0  0  0
  -27.2612  -27.3276   20.1519 C   0  0  0  0  0  0
  -25.5887  -33.8612   24.2248 N   0  0  0  0  0  0
  -23.4198  -30.4823   21.5326 C   0  0  2  0  0  0
  -24.8853  -28.9380   20.1081 C   0  0  0  0  0  0
  -22.7482  -29.4657   22.4864 C   0  0  0  0  0  0
  -18.0296  -28.1409   22.8502 C   0  0  0  0  0  0
  -24.1473  -36.7263   23.2635 C   0  0  0  0  0  0
  -25.9564  -30.8085   21.3651 C   0  0  0  0  0  0
  -26.0485  -29.4306   20.7133 C   0  0  0  0  0  0
  -27.2359  -28.6433   20.7183 C   0  0  0  0  0  0
  -26.0772  -26.8976   19.5098 C   0  0  0  0  0  0
  -24.9064  -27.6791   19.4869 C   0  0  0  0  0  0
  -23.6437  -29.8054   20.1516 C   0  0  0  0  0  0
  -25.4116  -36.3096   24.0330 C   0  0  1  0  0  0
  -20.5904  -28.3715   23.1268 C   0  0  2  0  0  0
  -20.6771  -26.9433   22.5395 C   0  0  0  0  0  0
  -19.5741  -26.6397   21.5207 C   0  0  0  0  0  0
  -18.1939  -26.7953   22.1627 C   0  0  0  0  0  0
  -19.1555  -28.8884   23.2885 C   0  0  0  0  0  0
  -18.9460  -30.1476   23.8909 C   0  0  0  0  0  0
  -17.6468  -30.6615   24.0579 C   0  0  0  0  0  0
  -25.9041  -34.9482   23.5082 C   0  0  0  0  0  0
  -16.5346  -29.9116   23.6352 C   0  0  0  0  0  0
  -16.7279  -28.6523   23.0380 C   0  0  0  0  0  0
  -26.4446  -31.6648   25.0672 C   0  0  0  0  0  0
  -25.3666  -31.3823   26.1405 C   0  0  0  0  0  0
  -27.0313  -30.3076   24.6143 C   0  0  0  0  0  0
  -27.6011  -32.4387   25.7451 C   0  0  0  0  0  0
  -27.5580  -37.1802   24.8477 C   0  0  0  0  0  0
  -21.4192  -29.3054   22.3632 N   0  0  0  0  0  0
  -26.4294  -37.3811   23.9429 N   0  0  0  0  0  0
  -24.6834  -31.0695   22.0882 N   0  0  0  0  0  0
  -23.4207  -28.8202   23.2954 O   0  0  0  0  0  0
  -28.3862  -26.4827   20.2508 O   0  0  0  0  0  0
  -26.5592  -34.8952   22.4647 O   0  0  0  0  0  0
  -23.5384  -32.1345   23.7364 O   0  0  0  0  0  0
  -31.7857  -17.6320   21.4900 C   0  0  0  0  0  0
  -30.6086  -17.5581   20.7212 C   0  0  0  0  0  0
  -30.3189  -19.9551   21.0125 C   0  0  0  0  0  0
  -31.4258  -19.9316   21.9327 C   0  0  0  0  0  0
  -30.5263  -19.3290   24.7546 C   0  0  0  0  0  0
  -29.1311  -16.3602   19.1592 C   0  0  0  0  0  0
  -31.5598  -22.4512   22.6182 C   0  0  0  0  0  0
  -33.1737  -20.9574   23.5438 C   0  0  0  0  0  0
  -29.2963  -21.1688   20.8854 C   0  0  0  0  0  0
  -30.7203  -20.7705   24.2638 C   0  0  0  0  0  0
  -29.5935  -22.5168   20.0452 C   0  0  0  0  0  0
  -29.2361  -23.9678   20.6816 C   0  0  0  0  0  0
  -28.2738  -25.0279   19.9541 C   0  0  0  0  0  0
  -29.8244  -16.1745   20.5450 C   0  0  1  0  0  0
  -31.6966  -20.9855   23.0598 C   0  0  0  0  0  0
  -28.8628  -16.1669   21.7928 C   0  0  0  0  0  0
  -32.1749  -18.7929   22.0703 N   0  0  0  0  0  0
  -29.9552  -18.7586   20.4149 N   0  0  0  0  0  0
  -28.5184  -17.3701   22.2497 F   0  0  0  0  0  0
  -27.7084  -15.5821   21.5336 F   0  0  0  0  0  0
  -29.4358  -15.5376   22.8219 F   0  0  0  0  0  0
  -31.4908  -12.5942   19.1141 H   0  0  0  0  0  0
  -30.4594  -11.4516   19.9113 H   0  0  0  0  0  0
  -29.7829  -11.7280   17.5036 H   0  0  0  0  0  0
  -29.6265  -13.4461   17.7209 H   0  0  0  0  0  0
  -27.8835  -11.2522   18.8761 H   0  0  0  0  0  0
  -27.3715  -12.5353   17.8090 H   0  0  0  0  0  0
  -27.6113  -14.1846   19.5413 H   0  0  0  0  0  0
  -28.8060  -11.9955   21.2914 H   0  0  0  0  0  0
  -28.4837  -13.5339   21.9100 H   0  0  0  0  0  0
  -25.2720   -9.5593   22.4802 H   0  0  0  0  0  0
  -23.9986   -7.4517   22.7379 H   0  0  0  0  0  0
  -21.0811   -8.8787   19.8987 H   0  0  0  0  0  0
  -22.3594  -10.9720   19.6293 H   0  0  0  0  0  0
  -21.2235   -7.6132   23.9850 H   0  0  0  0  0  0
  -21.1330   -6.0351   25.9073 H   0  0  0  0  0  0
  -22.0673   -2.7625   23.2692 H   0  0  0  0  0  0
  -22.3941  -11.9850   22.4716 H   0  0  0  0  0  0
  -21.1144  -13.1485   22.2794 H   0  0  0  0  0  0
  -24.5732  -15.7857   20.4780 H   0  0  0  0  0  0
  -26.2507  -15.6626   20.3548 H   0  0  0  0  0  0
  -26.7150  -32.5571   23.1099 H   0  0  0  0  0  0
  -25.0146  -33.9754   25.0465 H   0  0  0  0  0  0
  -22.7065  -31.2977   21.3856 H   0  0  0  0  0  0
  -23.3762  -35.9562   23.3321 H   0  0  0  0  0  0
  -24.3535  -36.8845   22.2035 H   0  0  0  0  0  0
  -23.7184  -37.6452   23.6636 H   0  0  0  0  0  0
  -26.0876  -31.5809   20.6051 H   0  0  0  0  0  0
  -26.8310  -30.8617   22.0001 H   0  0  0  0  0  0
  -28.1215  -29.0378   21.1946 H   0  0  0  0  0  0
  -26.0385  -25.9336   19.0297 H   0  0  0  0  0  0
  -24.0250  -27.3014   18.9885 H   0  0  0  0  0  0
  -23.7499  -30.5758   19.3864 H   0  0  0  0  0  0
  -22.7721  -29.2174   19.8560 H   0  0  0  0  0  0
  -25.1319  -36.1918   25.0819 H   0  0  0  0  0  0
  -21.0028  -28.3293   24.1380 H   0  0  0  0  0  0
  -20.5677  -26.2323   23.3600 H   0  0  0  0  0  0
  -21.6647  -26.7449   22.1200 H   0  0  0  0  0  0
  -19.6861  -25.6302   21.1271 H   0  0  0  0  0  0
  -19.6681  -27.3184   20.6721 H   0  0  0  0  0  0
  -17.4201  -26.6742   21.4029 H   0  0  0  0  0  0
  -18.0326  -26.0091   22.9016 H   0  0  0  0  0  0
  -19.7928  -30.7338   24.2256 H   0  0  0  0  0  0
  -17.5005  -31.6310   24.5186 H   0  0  0  0  0  0
  -15.5350  -30.3030   23.7672 H   0  0  0  0  0  0
  -15.8677  -28.0858   22.7083 H   0  0  0  0  0  0
  -24.5830  -30.7192   25.7717 H   0  0  0  0  0  0
  -24.8872  -32.3024   26.4760 H   0  0  0  0  0  0
  -25.7952  -30.9026   27.0213 H   0  0  0  0  0  0
  -26.2889  -29.6835   24.1145 H   0  0  0  0  0  0
  -27.3991  -29.7344   25.4662 H   0  0  0  0  0  0
  -27.8776  -30.4382   23.9394 H   0  0  0  0  0  0
  -27.2611  -33.3707   26.1999 H   0  0  0  0  0  0
  -28.3833  -32.6920   25.0271 H   0  0  0  0  0  0
  -28.0666  -31.8519   26.5387 H   0  0  0  0  0  0
  -28.2641  -38.0063   24.7562 H   0  0  0  0  0  0
  -28.1040  -36.2615   24.6296 H   0  0  0  0  0  0
  -27.2310  -37.1454   25.8879 H   0  0  0  0  0  0
  -20.9337  -29.8748   21.6847 H   0  0  0  0  0  0
  -26.0160  -38.2876   24.1433 H   0  0  0  0  0  0
  -32.3318  -16.7466   21.7825 H   0  0  0  0  0  0
  -29.9422  -19.2944   25.6772 H   0  0  0  0  0  0
  -31.4835  -18.8446   24.9435 H   0  0  0  0  0  0
  -29.9916  -18.7370   24.0146 H   0  0  0  0  0  0
  -28.8424  -15.4473   18.6559 H   0  0  0  0  0  0
  -29.8282  -16.8056   18.4515 H   0  0  0  0  0  0
  -28.2664  -17.0211   19.1982 H   0  0  0  0  0  0
  -32.1043  -22.6422   21.6944 H   0  0  0  0  0  0
  -31.9527  -23.1323   23.3761 H   0  0  0  0  0  0
  -30.5298  -22.7563   22.5136 H   0  0  0  0  0  0
  -33.8639  -21.1669   22.7233 H   0  0  0  0  0  0
  -33.4854  -20.0221   24.0003 H   0  0  0  0  0  0
  -33.3449  -21.7216   24.3025 H   0  0  0  0  0  0
  -29.0006  -21.4320   21.8974 H   0  0  0  0  0  0
  -28.3685  -20.7535   20.4924 H   0  0  0  0  0  0
  -31.0207  -21.3896   25.1103 H   0  0  0  0  0  0
  -29.7278  -21.1319   23.9928 H   0  0  0  0  0  0
  -29.1372  -22.4280   19.0579 H   0  0  0  0  0  0
  -30.6628  -22.5307   19.8203 H   0  0  0  0  0  0
  -30.1785  -24.4760   20.8980 H   0  0  0  0  0  0
  -28.8015  -23.7843   21.6631 H   0  0  0  0  0  0
  -27.2742  -24.6861   20.2253 H   0  0  0  0  0  0
  -28.3502  -24.9293   18.8728 H   0  0  0  0  0  0
  1 25  1  0  0  0
  1 30  2  0  0  0
  1 84  1  0  0  0
  2  3  1  0  0  0
  2 25  1  0  0  0
  2 92  1  0  0  0
  2 93  1  0  0  0
  3  4  1  0  0  0
  3 94  1  0  0  0
  3 95  1  0  0  0
  4  5  1  0  0  0
  4 96  1  0  0  0
  4 97  1  0  0  0
  5  6  1  0  0  0
  5 26  1  0  0  0
  5 98  1  0  0  0
  6 25  1  0  0  0
  6 99  1  0  0  0
  6100  1  0  0  0
  7  8  2  0  0  0
  7 26  1  0  0  0
  7 29  1  0  0  0
  8  9  1  0  0  0
  8 22  1  0  0  0
  9 10  1  0  0  0
  9 27  2  0  0  0
 10 11  2  0  0  0
 10 15  1  0  0  0
 11 12  1  0  0  0
 11101  1  0  0  0
 12 13  2  0  0  0
 12102  1  0  0  0
 13 14  1  0  0  0
 13 31  1  0  0  0
 14 15  2  0  0  0
 14103  1  0  0  0
 15104  1  0  0  0
 16 17  2  0  0  0
 16 21  1  0  0  0
 16 31  1  0  0  0
 17 18  1  0  0  0
 17105  1  0  0  0
 18 19  2  0  0  0
 18106  1  0  0  0
 19 20  1  0  0  0
 19 24  1  0  0  0
 20 21  2  0  0  0
 20107  1  0  0  0
 21 23  1  0  0  0
 22 28  1  0  0  0
 22 32  2  0  0  0
 26 27  1  0  0  0
 28108  1  0  0  0
 28109  1  0  0  0
 29110  1  0  0  0
 29111  1  0  0  0
 33 34  1  0  0  0
 33 66  1  0  0  0
 33 70  2  0  0  0
 34 36  1  0  0  0
 34 59  1  0  0  0
 34112  1  0  0  0
 35 44  2  0  0  0
 35 45  1  0  0  0
 35 68  1  0  0  0
 36 56  1  0  0  0
 36113  1  0  0  0
 37 39  1  0  0  0
 37 47  1  0  0  0
 37 66  1  0  0  0
 37114  1  0  0  0
 38 43  2  0  0  0
 38 46  1  0  0  0
 38 47  1  0  0  0
 39 64  1  0  0  0
 39 67  2  0  0  0
 40 52  1  0  0  0
 40 53  2  0  0  0
 40 58  1  0  0  0
 41115  1  0  0  0
 41116  1  0  0  0
 41117  1  0  0  0
 41 48  1  0  0  0
 42 43  1  0  0  0
 42 66  1  0  0  0
 42118  1  0  0  0
 42119  1  0  0  0
 43 44  1  0  0  0
 44120  1  0  0  0
 45 46  2  0  0  0
 45121  1  0  0  0
 46122  1  0  0  0
 47123  1  0  0  0
 47124  1  0  0  0
 48 56  1  0  0  0
 48 65  1  0  0  0
 48125  1  0  0  0
 49 50  1  0  0  0
 49 53  1  0  0  0
 49 64  1  0  0  0
 49126  1  0  0  0
 50 51  1  0  0  0
 50127  1  0  0  0
 50128  1  0  0  0
 51 52  1  0  0  0
 51129  1  0  0  0
 51130  1  0  0  0
 52131  1  0  0  0
 52132  1  0  0  0
 53 54  1  0  0  0
 54 55  2  0  0  0
 54133  1  0  0  0
 55 57  1  0  0  0
 55134  1  0  0  0
 56 69  2  0  0  0
 57 58  2  0  0  0
 57135  1  0  0  0
 58136  1  0  0  0
 59 60  1  0  0  0
 59 61  1  0  0  0
 59 62  1  0  0  0
 60137  1  0  0  0
 60138  1  0  0  0
 60139  1  0  0  0
 61140  1  0  0  0
 61141  1  0  0  0
 61142  1  0  0  0
 62143  1  0  0  0
 62144  1  0  0  0
 62145  1  0  0  0
 63 65  1  0  0  0
 63146  1  0  0  0
 63147  1  0  0  0
 63148  1  0  0  0
 64149  1  0  0  0
 65150  1  0  0  0
 68 83  1  0  0  0
 71 72  2  0  0  0
 71 87  1  0  0  0
 71151  1  0  0  0
 72 84  1  0  0  0
 72 88  1  0  0  0
 73 74  1  0  0  0
 73 79  1  0  0  0
 73 88  2  0  0  0
 74 85  1  0  0  0
 74 87  2  0  0  0
 75 80  1  0  0  0
 75152  1  0  0  0
 75153  1  0  0  0
 75154  1  0  0  0
 76155  1  0  0  0
 76156  1  0  0  0
 76157  1  0  0  0
 76 84  1  0  0  0
 77158  1  0  0  0
 77159  1  0  0  0
 77160  1  0  0  0
 77 85  1  0  0  0
 78 85  1  0  0  0
 78161  1  0  0  0
 78162  1  0  0  0
 78163  1  0  0  0
 79 81  1  0  0  0
 79164  1  0  0  0
 79165  1  0  0  0
 80 85  1  0  0  0
 80166  1  0  0  0
 80167  1  0  0  0
 81 82  1  0  0  0
 81168  1  0  0  0
 81169  1  0  0  0
 82 83  1  0  0  0
 82170  1  0  0  0
 82171  1  0  0  0
 83172  1  0  0  0
 83173  1  0  0  0
 84 86  1  0  0  0
 86 89  1  0  0  0
 86 90  1  0  0  0
 86 91  1  0  0  0
M  ISO  4   1 100  68 101  83 101  84 100
M  END
> <chiral flag>
0

> <version>
0

> <s_m_source_file>
/data/baiqing/PycharmProjects/Reinvent-master-3.2/result/LINK_invent/BTK/process_docking_weight1_custom_sum_contain_oxygen_bond_distance_aromatic_linkinvent_7_9_3/rearranged_h_0067.sdf

> <i_m_source_file_index>
81

> <r_mmod_Potential_Energy-OPLS-2005>
508.438629150391

> <r_mmod_Stretch_Energy-OPLS-2005>
147.032104492188

> <r_mmod_Bend_Energy-OPLS-2005>
232.741958618164

> <r_mmod_Torsional_Energy-OPLS-2005>
247.702575683594

> <r_mmod_Improper_Torsional_Energy-OPLS-2005>
13.7285385131836

> <r_mmod_Van_der_Waal_Energy-OPLS-2005>
195.242401123047

> <r_mmod_Electrostatic_Energy-OPLS-2005>
-214.532165527344

> <r_mmod_Solvation_Energy-OPLS-2005>
-180.814758300781

> <b_mmod_Minimization_Converged-OPLS-2005>
0

> <r_mmod_RMS_Derivative-OPLS-2005>
8.03005409240723

$$$$
84
                    3D
 Structure written by MMmdl.
158166  0  0  1  0            999 V2000
  -30.6539  -14.7306   20.5221 C   0  0  0  0  0  0
  -30.4464  -12.4767   19.4511 C   0  0  0  0  0  0
  -29.5059  -12.5018   18.2284 C   0  0  0  0  0  0
  -28.0347  -12.3242   18.6485 C   0  0  0  0  0  0
  -27.6417  -13.2320   19.8441 C   0  0  2  0  0  0
  -28.6928  -13.1741   20.9711 C   0  0  0  0  0  0
  -25.2514  -13.8220   20.5726 C   0  0  0  0  0  0
  -24.1807  -13.0472   20.9244 C   0  0  0  0  0  0
  -24.6418  -11.6958   20.8771 C   0  0  0  0  0  0
  -23.9099  -10.4326   21.0408 C   0  0  0  0  0  0
  -24.3628   -9.4231   21.9190 C   0  0  0  0  0  0
  -23.6309   -8.2257   22.0755 C   0  0  0  0  0  0
  -22.4304   -8.0300   21.3547 C   0  0  0  0  0  0
  -21.9923   -9.0269   20.4653 C   0  0  0  0  0  0
  -22.7249  -10.2162   20.3068 C   0  0  0  0  0  0
  -21.6852   -6.0746   22.5291 C   0  0  0  0  0  0
  -21.3991   -6.5631   23.8243 C   0  0  0  0  0  0
  -21.3674   -5.6788   24.9195 C   0  0  0  0  0  0
  -21.6063   -4.3056   24.7227 C   0  0  0  0  0  0
  -21.8814   -3.8153   23.4339 C   0  0  0  0  0  0
  -21.9176   -4.6961   22.3414 C   0  0  0  0  0  0
  -22.7807  -13.5220   21.1875 C   0  0  0  0  0  0
  -22.1663   -4.2164   21.0984 F   0  0  0  0  0  0
  -21.5632   -3.4554   25.7737 F   0  0  0  0  0  0
  -29.9915  -13.5315   20.3810 N   0  0  0  0  0  0
  -26.2941  -12.9408   20.3277 N   0  0  0  0  0  0
  -25.9336  -11.6567   20.5737 N   0  0  0  0  0  0
  -22.0433  -12.8226   22.0415 N   0  0  0  0  0  0
  -25.4209  -15.1951   20.4083 N   0  0  0  0  0  0
  -31.8492  -14.8180   20.2390 O   0  0  0  0  0  0
  -21.6666   -6.8885   21.4262 O   0  0  0  0  0  0
  -22.3494  -14.5549   20.6715 O   0  0  0  0  0  0
  -24.6285  -31.8628   23.1960 C   0  0  0  0  0  0
  -25.9108  -32.4817   23.8331 C   0  0  1  0  0  0
  -27.2207  -27.2747   20.1401 C   0  0  0  0  0  0
  -25.5903  -33.8616   24.2257 N   0  0  0  0  0  0
  -23.4234  -30.4813   21.5447 C   0  0  2  0  0  0
  -24.8699  -28.9322   20.1121 C   0  0  0  0  0  0
  -22.7476  -29.4630   22.4971 C   0  0  0  0  0  0
  -18.0272  -28.1398   22.8468 C   0  0  0  0  0  0
  -24.1477  -36.7289   23.2639 C   0  0  0  0  0  0
  -25.9671  -30.7788   21.3743 C   0  0  0  0  0  0
  -26.0413  -29.4031   20.7200 C   0  0  0  0  0  0
  -27.2166  -28.5880   20.7234 C   0  0  0  0  0  0
  -26.0269  -26.8782   19.4941 C   0  0  0  0  0  0
  -24.8695  -27.6799   19.4855 C   0  0  0  0  0  0
  -23.6358  -29.8114   20.1625 C   0  0  0  0  0  0
  -25.4108  -36.3119   24.0332 C   0  0  1  0  0  0
  -20.5874  -28.3695   23.1279 C   0  0  2  0  0  0
  -20.6757  -26.9422   22.5398 C   0  0  0  0  0  0
  -19.5742  -26.6379   21.5197 C   0  0  0  0  0  0
  -18.1928  -26.7930   22.1612 C   0  0  0  0  0  0
  -19.1529  -28.8858   23.2861 C   0  0  0  0  0  0
  -18.9462  -30.1450   23.8890 C   0  0  0  0  0  0
  -17.6473  -30.6603   24.0558 C   0  0  0  0  0  0
  -25.9060  -34.9498   23.5108 C   0  0  0  0  0  0
  -16.5354  -29.9103   23.6351 C   0  0  0  0  0  0
  -16.7262  -28.6512   23.0385 C   0  0  0  0  0  0
  -26.4448  -31.6662   25.0740 C   0  0  0  0  0  0
  -25.3616  -31.3840   26.1406 C   0  0  0  0  0  0
  -27.0274  -30.3083   24.6221 C   0  0  0  0  0  0
  -27.6013  -32.4404   25.7494 C   0  0  0  0  0  0
  -27.5583  -37.1799   24.8470 C   0  0  0  0  0  0
  -21.4188  -29.3065   22.3692 N   0  0  0  0  0  0
  -26.4288  -37.3810   23.9413 N   0  0  0  0  0  0
  -24.6926  -31.0578   22.0953 N   0  0  0  0  0  0
  -23.4168  -28.8202   23.3095 O   0  0  0  0  0  0
  -28.3242  -26.3896   20.2012 O   0  0  0  0  0  0
  -26.5654  -34.8955   22.4688 O   0  0  0  0  0  0
  -23.5442  -32.1436   23.7281 O   0  0  0  0  0  0
  -29.4831  -19.7094   21.0636 C   0  0  0  0  0  0
  -31.3827  -18.8519   19.8690 C   0  0  0  0  0  0
  -30.3318  -18.5732   20.7617 C   0  0  0  0  0  0
  -29.6962  -21.0173   20.4796 C   0  0  0  0  0  0
  -31.5686  -20.1584   19.3475 C   0  0  0  0  0  0
  -29.6099  -17.2277   22.8468 C   0  0  0  0  0  0
  -28.7238  -22.2633   20.6623 C   0  0  0  0  0  0
  -29.2011  -23.7997   20.4766 C   0  0  0  0  0  0
  -28.0511  -24.9209   20.3481 C   0  0  0  0  0  0
  -30.3251  -17.1568   21.4899 C   0  0  2  0  0  0
  -32.7875  -20.4720   18.4610 C   0  0  0  0  0  0
  -30.7214  -21.1933   19.6192 N   0  0  0  0  0  0
  -29.9148  -15.8573   20.8176 N   0  0  0  0  0  0
  -33.1924  -21.7292   18.6497 F   0  0  0  0  0  0
  -33.8181  -19.6770   18.7591 F   0  0  0  0  0  0
  -32.4969  -20.3116   17.1664 F   0  0  0  0  0  0
  -31.4728  -12.6386   19.1128 H   0  0  0  0  0  0
  -30.4270  -11.5088   19.9525 H   0  0  0  0  0  0
  -29.7917  -11.7239   17.5228 H   0  0  0  0  0  0
  -29.6233  -13.4493   17.6994 H   0  0  0  0  0  0
  -27.8827  -11.2754   18.9114 H   0  0  0  0  0  0
  -27.3769  -12.5122   17.7997 H   0  0  0  0  0  0
  -27.6300  -14.2503   19.4570 H   0  0  0  0  0  0
  -28.7357  -12.1773   21.4059 H   0  0  0  0  0  0
  -28.4237  -13.8518   21.7814 H   0  0  0  0  0  0
  -25.2762   -9.5711   22.4765 H   0  0  0  0  0  0
  -24.0041   -7.4626   22.7446 H   0  0  0  0  0  0
  -21.0866   -8.8786   19.8932 H   0  0  0  0  0  0
  -22.3708  -10.9699   19.6199 H   0  0  0  0  0  0
  -21.1995   -7.6150   23.9744 H   0  0  0  0  0  0
  -21.1507   -6.0522   25.9116 H   0  0  0  0  0  0
  -22.0580   -2.7607   23.2854 H   0  0  0  0  0  0
  -22.4076  -11.9931   22.4850 H   0  0  0  0  0  0
  -21.1062  -13.1250   22.2626 H   0  0  0  0  0  0
  -24.6501  -15.8478   20.5125 H   0  0  0  0  0  0
  -26.2584  -15.6319   20.0432 H   0  0  0  0  0  0
  -26.7200  -32.5462   23.1089 H   0  0  0  0  0  0
  -25.0042  -33.9778   25.0386 H   0  0  0  0  0  0
  -22.7199  -31.3024   21.4001 H   0  0  0  0  0  0
  -23.3787  -35.9581   23.3329 H   0  0  0  0  0  0
  -24.3539  -36.8870   22.2045 H   0  0  0  0  0  0
  -23.7159  -37.6462   23.6645 H   0  0  0  0  0  0
  -26.1004  -31.5392   20.6053 H   0  0  0  0  0  0
  -26.8465  -30.8257   22.0063 H   0  0  0  0  0  0
  -28.1059  -28.9433   21.2242 H   0  0  0  0  0  0
  -25.9537  -25.9288   18.9891 H   0  0  0  0  0  0
  -23.9787  -27.3164   18.9939 H   0  0  0  0  0  0
  -23.7406  -30.5819   19.3991 H   0  0  0  0  0  0
  -22.7571  -29.2334   19.8692 H   0  0  0  0  0  0
  -25.1293  -36.1992   25.0828 H   0  0  0  0  0  0
  -20.9939  -28.3268   24.1412 H   0  0  0  0  0  0
  -20.5641  -26.2326   23.3599 H   0  0  0  0  0  0
  -21.6636  -26.7446   22.1223 H   0  0  0  0  0  0
  -19.6914  -25.6279   21.1265 H   0  0  0  0  0  0
  -19.6699  -27.3170   20.6717 H   0  0  0  0  0  0
  -17.4190  -26.6660   21.4035 H   0  0  0  0  0  0
  -18.0348  -26.0072   22.9023 H   0  0  0  0  0  0
  -19.7946  -30.7256   24.2283 H   0  0  0  0  0  0
  -17.5038  -31.6290   24.5155 H   0  0  0  0  0  0
  -15.5363  -30.3028   23.7664 H   0  0  0  0  0  0
  -15.8647  -28.0815   22.7166 H   0  0  0  0  0  0
  -24.5793  -30.7208   25.7696 H   0  0  0  0  0  0
  -24.8787  -32.3032   26.4764 H   0  0  0  0  0  0
  -25.7840  -30.9034   27.0235 H   0  0  0  0  0  0
  -26.2879  -29.6866   24.1172 H   0  0  0  0  0  0
  -27.3870  -29.7313   25.4752 H   0  0  0  0  0  0
  -27.8786  -30.4366   23.9525 H   0  0  0  0  0  0
  -27.2631  -33.3716   26.2037 H   0  0  0  0  0  0
  -28.3792  -32.6936   25.0294 H   0  0  0  0  0  0
  -28.0689  -31.8551   26.5397 H   0  0  0  0  0  0
  -28.2641  -38.0076   24.7554 H   0  0  0  0  0  0
  -28.1054  -36.2614   24.6289 H   0  0  0  0  0  0
  -27.2311  -37.1438   25.8879 H   0  0  0  0  0  0
  -20.9405  -29.8751   21.6856 H   0  0  0  0  0  0
  -26.0207  -38.2904   24.1411 H   0  0  0  0  0  0
  -28.6683  -19.5878   21.7660 H   0  0  0  0  0  0
  -32.0964  -18.0784   19.6195 H   0  0  0  0  0  0
  -28.5443  -17.4175   22.7283 H   0  0  0  0  0  0
  -29.7205  -16.2977   23.4083 H   0  0  0  0  0  0
  -30.0262  -18.0221   23.4655 H   0  0  0  0  0  0
  -28.2775  -22.1767   21.6561 H   0  0  0  0  0  0
  -27.8951  -22.0959   19.9752 H   0  0  0  0  0  0
  -29.8173  -23.8556   19.5769 H   0  0  0  0  0  0
  -29.8589  -24.0657   21.3039 H   0  0  0  0  0  0
  -27.4024  -24.8170   21.2217 H   0  0  0  0  0  0
  -27.4574  -24.5945   19.4981 H   0  0  0  0  0  0
  -31.3718  -17.0047   21.7518 H   0  0  0  0  0  0
  -28.9180  -15.7061   20.8118 H   0  0  0  0  0  0
  1 25  1  0  0  0
  1 30  2  0  0  0
  1 83  1  0  0  0
  2  3  1  0  0  0
  2 25  1  0  0  0
  2 87  1  0  0  0
  2 88  1  0  0  0
  3  4  1  0  0  0
  3 89  1  0  0  0
  3 90  1  0  0  0
  4  5  1  0  0  0
  4 91  1  0  0  0
  4 92  1  0  0  0
  5  6  1  0  0  0
  5 26  1  0  0  0
  5 93  1  0  0  0
  6 25  1  0  0  0
  6 94  1  0  0  0
  6 95  1  0  0  0
  7  8  2  0  0  0
  7 26  1  0  0  0
  7 29  1  0  0  0
  8  9  1  0  0  0
  8 22  1  0  0  0
  9 10  1  0  0  0
  9 27  2  0  0  0
 10 11  2  0  0  0
 10 15  1  0  0  0
 11 12  1  0  0  0
 11 96  1  0  0  0
 12 13  2  0  0  0
 12 97  1  0  0  0
 13 14  1  0  0  0
 13 31  1  0  0  0
 14 15  2  0  0  0
 14 98  1  0  0  0
 15 99  1  0  0  0
 16 17  2  0  0  0
 16 21  1  0  0  0
 16 31  1  0  0  0
 17 18  1  0  0  0
 17100  1  0  0  0
 18 19  2  0  0  0
 18101  1  0  0  0
 19 20  1  0  0  0
 19 24  1  0  0  0
 20 21  2  0  0  0
 20102  1  0  0  0
 21 23  1  0  0  0
 22 28  1  0  0  0
 22 32  2  0  0  0
 26 27  1  0  0  0
 28103  1  0  0  0
 28104  1  0  0  0
 29105  1  0  0  0
 29106  1  0  0  0
 33 34  1  0  0  0
 33 66  1  0  0  0
 33 70  2  0  0  0
 34 36  1  0  0  0
 34 59  1  0  0  0
 34107  1  0  0  0
 35 44  2  0  0  0
 35 45  1  0  0  0
 35 68  1  0  0  0
 36 56  1  0  0  0
 36108  1  0  0  0
 37 39  1  0  0  0
 37 47  1  0  0  0
 37 66  1  0  0  0
 37109  1  0  0  0
 38 43  2  0  0  0
 38 46  1  0  0  0
 38 47  1  0  0  0
 39 64  1  0  0  0
 39 67  2  0  0  0
 40 52  1  0  0  0
 40 53  2  0  0  0
 40 58  1  0  0  0
 41110  1  0  0  0
 41111  1  0  0  0
 41112  1  0  0  0
 41 48  1  0  0  0
 42 43  1  0  0  0
 42 66  1  0  0  0
 42113  1  0  0  0
 42114  1  0  0  0
 43 44  1  0  0  0
 44115  1  0  0  0
 45 46  2  0  0  0
 45116  1  0  0  0
 46117  1  0  0  0
 47118  1  0  0  0
 47119  1  0  0  0
 48 56  1  0  0  0
 48 65  1  0  0  0
 48120  1  0  0  0
 49 50  1  0  0  0
 49 53  1  0  0  0
 49 64  1  0  0  0
 49121  1  0  0  0
 50 51  1  0  0  0
 50122  1  0  0  0
 50123  1  0  0  0
 51 52  1  0  0  0
 51124  1  0  0  0
 51125  1  0  0  0
 52126  1  0  0  0
 52127  1  0  0  0
 53 54  1  0  0  0
 54 55  2  0  0  0
 54128  1  0  0  0
 55 57  1  0  0  0
 55129  1  0  0  0
 56 69  2  0  0  0
 57 58  2  0  0  0
 57130  1  0  0  0
 58131  1  0  0  0
 59 60  1  0  0  0
 59 61  1  0  0  0
 59 62  1  0  0  0
 60132  1  0  0  0
 60133  1  0  0  0
 60134  1  0  0  0
 61135  1  0  0  0
 61136  1  0  0  0
 61137  1  0  0  0
 62138  1  0  0  0
 62139  1  0  0  0
 62140  1  0  0  0
 63 65  1  0  0  0
 63141  1  0  0  0
 63142  1  0  0  0
 63143  1  0  0  0
 64144  1  0  0  0
 65145  1  0  0  0
 68 79  1  0  0  0
 71 73  2  0  0  0
 71 74  1  0  0  0
 71146  1  0  0  0
 72 73  1  0  0  0
 72 75  2  0  0  0
 72147  1  0  0  0
 73 80  1  0  0  0
 74 77  1  0  0  0
 74 82  2  0  0  0
 75 81  1  0  0  0
 75 82  1  0  0  0
 76148  1  0  0  0
 76149  1  0  0  0
 76150  1  0  0  0
 76 80  1  0  0  0
 77 78  1  0  0  0
 77151  1  0  0  0
 77152  1  0  0  0
 78 79  1  0  0  0
 78153  1  0  0  0
 78154  1  0  0  0
 79155  1  0  0  0
 79156  1  0  0  0
 80 83  1  0  0  0
 80157  1  0  0  0
 81 84  1  0  0  0
 81 85  1  0  0  0
 81 86  1  0  0  0
 83158  1  0  0  0
M  ISO  4   1 100  68 101  79 101  83 100
M  END
> <chiral flag>
0

> <version>
0

> <s_m_source_file>
/data/baiqing/PycharmProjects/Reinvent-master-3.2/result/LINK_invent/BTK/process_docking_weight1_custom_sum_contain_oxygen_bond_distance_aromatic_linkinvent_7_9_3/rearranged_h_0067.sdf

> <i_m_source_file_index>
82

> <r_mmod_Potential_Energy-OPLS-2005>
-17.5038757324219

> <r_mmod_Stretch_Energy-OPLS-2005>
112.052368164062

> <r_mmod_Bend_Energy-OPLS-2005>
165.016204833984

> <r_mmod_Torsional_Energy-OPLS-2005>
226.489944458008

> <r_mmod_Improper_Torsional_Energy-OPLS-2005>
5.68457508087158

> <r_mmod_Van_der_Waal_Energy-OPLS-2005>
140.620635986328

> <r_mmod_Electrostatic_Energy-OPLS-2005>
-538.75146484375

> <r_mmod_Solvation_Energy-OPLS-2005>
-210.60237121582

> <b_mmod_Minimization_Converged-OPLS-2005>
0

> <r_mmod_RMS_Derivative-OPLS-2005>
5.83830165863037

$$$$
85
                    3D
 Structure written by MMmdl.
174182  0  0  1  0            999 V2000
  -30.7653  -14.4175   20.4700 C   0  0  0  0  0  0
  -30.4098  -12.2490   19.4049 C   0  0  0  0  0  0
  -29.4917  -12.4885   18.1913 C   0  0  0  0  0  0
  -28.0118  -12.3746   18.6048 C   0  0  0  0  0  0
  -27.6686  -13.2108   19.8679 C   0  0  2  0  0  0
  -28.7241  -13.0327   20.9876 C   0  0  0  0  0  0
  -25.2681  -13.8207   20.5658 C   0  0  0  0  0  0
  -24.1920  -13.0448   20.9151 C   0  0  0  0  0  0
  -24.6480  -11.6952   20.8745 C   0  0  0  0  0  0
  -23.9137  -10.4325   21.0424 C   0  0  0  0  0  0
  -24.3687   -9.4249   21.9200 C   0  0  0  0  0  0
  -23.6347   -8.2285   22.0776 C   0  0  0  0  0  0
  -22.4324   -8.0337   21.3563 C   0  0  0  0  0  0
  -21.9991   -9.0313   20.4673 C   0  0  0  0  0  0
  -22.7314  -10.2191   20.3083 C   0  0  0  0  0  0
  -21.6872   -6.0797   22.5288 C   0  0  0  0  0  0
  -21.4013   -6.5670   23.8229 C   0  0  0  0  0  0
  -21.3670   -5.6807   24.9172 C   0  0  0  0  0  0
  -21.6025   -4.3066   24.7197 C   0  0  0  0  0  0
  -21.8831   -3.8191   23.4304 C   0  0  0  0  0  0
  -21.9206   -4.7022   22.3387 C   0  0  0  0  0  0
  -22.7953  -13.5280   21.1800 C   0  0  0  0  0  0
  -22.1668   -4.2222   21.0961 F   0  0  0  0  0  0
  -21.5644   -3.4544   25.7701 F   0  0  0  0  0  0
  -30.0615  -13.2600   20.4097 N   0  0  0  0  0  0
  -26.3115  -12.9375   20.3385 N   0  0  0  0  0  0
  -25.9405  -11.6540   20.5788 N   0  0  0  0  0  0
  -22.0577  -12.8269   22.0348 N   0  0  0  0  0  0
  -25.4369  -15.1922   20.4104 N   0  0  0  0  0  0
  -31.9261  -14.5420   20.0743 O   0  0  0  0  0  0
  -21.6671   -6.8954   21.4268 O   0  0  0  0  0  0
  -22.3647  -14.5577   20.6694 O   0  0  0  0  0  0
  -24.6186  -31.8717   23.2064 C   0  0  0  0  0  0
  -25.9129  -32.4837   23.8334 C   0  0  1  0  0  0
  -27.2438  -27.4463   20.0948 C   0  0  0  0  0  0
  -25.6027  -33.8640   24.2278 N   0  0  0  0  0  0
  -23.4036  -30.4938   21.5464 C   0  0  2  0  0  0
  -24.8479  -28.9529   20.1219 C   0  0  0  0  0  0
  -22.7451  -29.4678   22.4975 C   0  0  0  0  0  0
  -18.0270  -28.1356   22.8473 C   0  0  0  0  0  0
  -24.1484  -36.7304   23.2609 C   0  0  0  0  0  0
  -25.9304  -30.8407   21.3523 C   0  0  0  0  0  0
  -26.0076  -29.4727   20.7092 C   0  0  0  0  0  0
  -27.2055  -28.7252   20.6919 C   0  0  0  0  0  0
  -26.0512  -26.9205   19.5448 C   0  0  0  0  0  0
  -24.8616  -27.6686   19.5510 C   0  0  0  0  0  0
  -23.6144  -29.8227   20.1617 C   0  0  0  0  0  0
  -25.4112  -36.3117   24.0306 C   0  0  1  0  0  0
  -20.5858  -28.3663   23.1311 C   0  0  2  0  0  0
  -20.6774  -26.9388   22.5408 C   0  0  0  0  0  0
  -19.5767  -26.6352   21.5196 C   0  0  0  0  0  0
  -18.1931  -26.7913   22.1593 C   0  0  0  0  0  0
  -19.1519  -28.8827   23.2879 C   0  0  0  0  0  0
  -18.9481  -30.1436   23.8890 C   0  0  0  0  0  0
  -17.6484  -30.6579   24.0559 C   0  0  0  0  0  0
  -25.9079  -34.9496   23.5076 C   0  0  0  0  0  0
  -16.5367  -29.9093   23.6299 C   0  0  0  0  0  0
  -16.7275  -28.6498   23.0352 C   0  0  0  0  0  0
  -26.4474  -31.6630   25.0700 C   0  0  0  0  0  0
  -25.3701  -31.3840   26.1458 C   0  0  0  0  0  0
  -27.0312  -30.3091   24.6067 C   0  0  0  0  0  0
  -27.6034  -32.4354   25.7505 C   0  0  0  0  0  0
  -27.5566  -37.1788   24.8437 C   0  0  0  0  0  0
  -21.4166  -29.3074   22.3787 N   0  0  0  0  0  0
  -26.4283  -37.3815   23.9406 N   0  0  0  0  0  0
  -24.6700  -31.0841   22.0939 N   0  0  0  0  0  0
  -23.4256  -28.8206   23.2988 O   0  0  0  0  0  0
  -28.4392  -26.7584   20.1107 O   0  0  0  0  0  0
  -26.5588  -34.8949   22.4597 O   0  0  0  0  0  0
  -23.5409  -32.1477   23.7507 O   0  0  0  0  0  0
  -31.3137  -21.6353   19.8891 C   0  0  0  0  0  0
  -30.0247  -22.0658   19.4855 C   0  0  0  0  0  0
  -30.3041  -19.9041   21.0234 C   0  0  0  0  0  0
  -33.1578  -23.0095   20.9101 C   0  0  0  0  0  0
  -31.1671  -19.6756   23.3323 C   0  0  0  0  0  0
  -31.2287  -16.5496   23.0162 C   0  0  0  0  0  0
  -32.6647  -17.7527   21.4171 C   0  0  0  0  0  0
  -32.6216  -22.3642   19.6259 C   0  0  0  0  0  0
  -29.7026  -23.4016   18.8229 C   0  0  0  0  0  0
  -29.0942  -24.4147   19.8224 C   0  0  0  0  0  0
  -30.4806  -16.8819   20.5590 C   0  0  0  0  0  0
  -28.7043  -25.7372   19.1446 C   0  0  0  0  0  0
  -30.4165  -18.8965   22.2095 C   0  0  2  0  0  0
  -31.1719  -17.5398   21.8100 C   0  0  0  0  0  0
  -28.9904  -18.5861   22.8365 C   0  0  0  0  0  0
  -31.4308  -20.5284   20.6485 N   0  0  0  0  0  0
  -28.9478  -21.2878   19.7578 N   0  0  0  0  0  0
  -29.0904  -20.1973   20.5233 N   0  0  0  0  0  0
  -30.0391  -15.4987   20.7598 N   0  0  0  0  0  0
  -28.2614  -17.7270   22.1211 F   0  0  0  0  0  0
  -29.1030  -18.0533   24.0553 F   0  0  0  0  0  0
  -28.2515  -19.6811   23.0318 F   0  0  0  0  0  0
  -31.4551  -12.2962   19.0930 H   0  0  0  0  0  0
  -30.2629  -11.2462   19.8091 H   0  0  0  0  0  0
  -29.7169  -11.7857   17.3882 H   0  0  0  0  0  0
  -29.6781  -13.4831   17.7844 H   0  0  0  0  0  0
  -27.7891  -11.3219   18.7757 H   0  0  0  0  0  0
  -27.3750  -12.6881   17.7761 H   0  0  0  0  0  0
  -27.7050  -14.2514   19.5471 H   0  0  0  0  0  0
  -28.6807  -12.0337   21.4234 H   0  0  0  0  0  0
  -28.5230  -13.7301   21.8054 H   0  0  0  0  0  0
  -25.2847   -9.5717   22.4749 H   0  0  0  0  0  0
  -24.0066   -7.4698   22.7487 H   0  0  0  0  0  0
  -21.0933   -8.8854   19.8963 H   0  0  0  0  0  0
  -22.3795  -10.9755   19.6187 H   0  0  0  0  0  0
  -21.1990   -7.6174   23.9746 H   0  0  0  0  0  0
  -21.1476   -6.0520   25.9072 H   0  0  0  0  0  0
  -22.0603   -2.7660   23.2771 H   0  0  0  0  0  0
  -22.4137  -11.9861   22.4651 H   0  0  0  0  0  0
  -21.1239  -13.1403   22.2622 H   0  0  0  0  0  0
  -24.6728  -15.8450   20.5437 H   0  0  0  0  0  0
  -26.2887  -15.6486   20.1040 H   0  0  0  0  0  0
  -26.7221  -32.5499   23.1104 H   0  0  0  0  0  0
  -25.0297  -33.9758   25.0529 H   0  0  0  0  0  0
  -22.6939  -31.3101   21.4007 H   0  0  0  0  0  0
  -23.3776  -35.9607   23.3305 H   0  0  0  0  0  0
  -24.3549  -36.8918   22.2005 H   0  0  0  0  0  0
  -23.7216  -37.6505   23.6636 H   0  0  0  0  0  0
  -26.0361  -31.6007   20.5781 H   0  0  0  0  0  0
  -26.8246  -30.9107   21.9572 H   0  0  0  0  0  0
  -28.1091  -29.1312   21.1270 H   0  0  0  0  0  0
  -26.0033  -25.9201   19.1399 H   0  0  0  0  0  0
  -23.9603  -27.2378   19.1370 H   0  0  0  0  0  0
  -23.7469  -30.6010   19.4113 H   0  0  0  0  0  0
  -22.7368  -29.2557   19.8420 H   0  0  0  0  0  0
  -25.1273  -36.1933   25.0796 H   0  0  0  0  0  0
  -20.9883  -28.3208   24.1454 H   0  0  0  0  0  0
  -20.5642  -26.2246   23.3578 H   0  0  0  0  0  0
  -21.6649  -26.7409   22.1205 H   0  0  0  0  0  0
  -19.6928  -25.6253   21.1233 H   0  0  0  0  0  0
  -19.6735  -27.3159   20.6728 H   0  0  0  0  0  0
  -17.4180  -26.6669   21.3995 H   0  0  0  0  0  0
  -18.0365  -26.0011   22.8950 H   0  0  0  0  0  0
  -19.7989  -30.7231   24.2227 H   0  0  0  0  0  0
  -17.5087  -31.6245   24.5200 H   0  0  0  0  0  0
  -15.5398  -30.3036   23.7609 H   0  0  0  0  0  0
  -15.8673  -28.0836   22.7077 H   0  0  0  0  0  0
  -24.5882  -30.7136   25.7883 H   0  0  0  0  0  0
  -24.8845  -32.3028   26.4773 H   0  0  0  0  0  0
  -25.8010  -30.9151   27.0311 H   0  0  0  0  0  0
  -26.2859  -29.6904   24.1041 H   0  0  0  0  0  0
  -27.4078  -29.7296   25.4505 H   0  0  0  0  0  0
  -27.8705  -30.4505   23.9246 H   0  0  0  0  0  0
  -27.2665  -33.3707   26.2013 H   0  0  0  0  0  0
  -28.3903  -32.6832   25.0368 H   0  0  0  0  0  0
  -28.0637  -31.8498   26.5472 H   0  0  0  0  0  0
  -28.2537  -38.0133   24.7592 H   0  0  0  0  0  0
  -28.1097  -36.2656   24.6157 H   0  0  0  0  0  0
  -27.2275  -37.1347   25.8838 H   0  0  0  0  0  0
  -20.9354  -29.8906   21.7086 H   0  0  0  0  0  0
  -26.0159  -38.2863   24.1544 H   0  0  0  0  0  0
  -34.1009  -23.5252   20.7364 H   0  0  0  0  0  0
  -33.3328  -22.2664   21.6902 H   0  0  0  0  0  0
  -32.4406  -23.7312   21.2978 H   0  0  0  0  0  0
  -32.1670  -19.9889   23.0334 H   0  0  0  0  0  0
  -31.2755  -19.1108   24.2557 H   0  0  0  0  0  0
  -30.6265  -20.5910   23.5796 H   0  0  0  0  0  0
  -31.6492  -17.0025   23.9120 H   0  0  0  0  0  0
  -31.8474  -15.6760   22.8120 H   0  0  0  0  0  0
  -30.2467  -16.1585   23.2773 H   0  0  0  0  0  0
  -33.1435  -16.8064   21.1668 H   0  0  0  0  0  0
  -33.2640  -18.1821   22.2161 H   0  0  0  0  0  0
  -32.7958  -18.3773   20.5375 H   0  0  0  0  0  0
  -32.5275  -23.1081   18.8365 H   0  0  0  0  0  0
  -33.3503  -21.6433   19.2501 H   0  0  0  0  0  0
  -28.9892  -23.2144   18.0199 H   0  0  0  0  0  0
  -30.5656  -23.8411   18.3248 H   0  0  0  0  0  0
  -29.8146  -24.6220   20.6138 H   0  0  0  0  0  0
  -28.2213  -23.9834   20.3188 H   0  0  0  0  0  0
  -29.6003  -17.4339   20.2360 H   0  0  0  0  0  0
  -31.1206  -16.9353   19.6736 H   0  0  0  0  0  0
  -29.5601  -26.0835   18.5681 H   0  0  0  0  0  0
  -27.9192  -25.5665   18.4130 H   0  0  0  0  0  0
  -29.0773  -15.3503   21.0192 H   0  0  0  0  0  0
  1 25  1  0  0  0
  1 30  2  0  0  0
  1 89  1  0  0  0
  2  3  1  0  0  0
  2 25  1  0  0  0
  2 93  1  0  0  0
  2 94  1  0  0  0
  3  4  1  0  0  0
  3 95  1  0  0  0
  3 96  1  0  0  0
  4  5  1  0  0  0
  4 97  1  0  0  0
  4 98  1  0  0  0
  5  6  1  0  0  0
  5 26  1  0  0  0
  5 99  1  0  0  0
  6 25  1  0  0  0
  6100  1  0  0  0
  6101  1  0  0  0
  7  8  2  0  0  0
  7 26  1  0  0  0
  7 29  1  0  0  0
  8  9  1  0  0  0
  8 22  1  0  0  0
  9 10  1  0  0  0
  9 27  2  0  0  0
 10 11  2  0  0  0
 10 15  1  0  0  0
 11 12  1  0  0  0
 11102  1  0  0  0
 12 13  2  0  0  0
 12103  1  0  0  0
 13 14  1  0  0  0
 13 31  1  0  0  0
 14 15  2  0  0  0
 14104  1  0  0  0
 15105  1  0  0  0
 16 17  2  0  0  0
 16 21  1  0  0  0
 16 31  1  0  0  0
 17 18  1  0  0  0
 17106  1  0  0  0
 18 19  2  0  0  0
 18107  1  0  0  0
 19 20  1  0  0  0
 19 24  1  0  0  0
 20 21  2  0  0  0
 20108  1  0  0  0
 21 23  1  0  0  0
 22 28  1  0  0  0
 22 32  2  0  0  0
 26 27  1  0  0  0
 28109  1  0  0  0
 28110  1  0  0  0
 29111  1  0  0  0
 29112  1  0  0  0
 33 34  1  0  0  0
 33 66  1  0  0  0
 33 70  2  0  0  0
 34 36  1  0  0  0
 34 59  1  0  0  0
 34113  1  0  0  0
 35 44  2  0  0  0
 35 45  1  0  0  0
 35 68  1  0  0  0
 36 56  1  0  0  0
 36114  1  0  0  0
 37 39  1  0  0  0
 37 47  1  0  0  0
 37 66  1  0  0  0
 37115  1  0  0  0
 38 43  2  0  0  0
 38 46  1  0  0  0
 38 47  1  0  0  0
 39 64  1  0  0  0
 39 67  2  0  0  0
 40 52  1  0  0  0
 40 53  2  0  0  0
 40 58  1  0  0  0
 41116  1  0  0  0
 41117  1  0  0  0
 41118  1  0  0  0
 41 48  1  0  0  0
 42 43  1  0  0  0
 42 66  1  0  0  0
 42119  1  0  0  0
 42120  1  0  0  0
 43 44  1  0  0  0
 44121  1  0  0  0
 45 46  2  0  0  0
 45122  1  0  0  0
 46123  1  0  0  0
 47124  1  0  0  0
 47125  1  0  0  0
 48 56  1  0  0  0
 48 65  1  0  0  0
 48126  1  0  0  0
 49 50  1  0  0  0
 49 53  1  0  0  0
 49 64  1  0  0  0
 49127  1  0  0  0
 50 51  1  0  0  0
 50128  1  0  0  0
 50129  1  0  0  0
 51 52  1  0  0  0
 51130  1  0  0  0
 51131  1  0  0  0
 52132  1  0  0  0
 52133  1  0  0  0
 53 54  1  0  0  0
 54 55  2  0  0  0
 54134  1  0  0  0
 55 57  1  0  0  0
 55135  1  0  0  0
 56 69  2  0  0  0
 57 58  2  0  0  0
 57136  1  0  0  0
 58137  1  0  0  0
 59 60  1  0  0  0
 59 61  1  0  0  0
 59 62  1  0  0  0
 60138  1  0  0  0
 60139  1  0  0  0
 60140  1  0  0  0
 61141  1  0  0  0
 61142  1  0  0  0
 61143  1  0  0  0
 62144  1  0  0  0
 62145  1  0  0  0
 62146  1  0  0  0
 63 65  1  0  0  0
 63147  1  0  0  0
 63148  1  0  0  0
 63149  1  0  0  0
 64150  1  0  0  0
 65151  1  0  0  0
 68 82  1  0  0  0
 71 72  2  0  0  0
 71 78  1  0  0  0
 71 86  1  0  0  0
 72 79  1  0  0  0
 72 87  1  0  0  0
 73 83  1  0  0  0
 73 86  2  0  0  0
 73 88  1  0  0  0
 74 78  1  0  0  0
 74152  1  0  0  0
 74153  1  0  0  0
 74154  1  0  0  0
 75155  1  0  0  0
 75156  1  0  0  0
 75157  1  0  0  0
 75 83  1  0  0  0
 76158  1  0  0  0
 76159  1  0  0  0
 76160  1  0  0  0
 76 84  1  0  0  0
 77 84  1  0  0  0
 77161  1  0  0  0
 77162  1  0  0  0
 77163  1  0  0  0
 78164  1  0  0  0
 78165  1  0  0  0
 79 80  1  0  0  0
 79166  1  0  0  0
 79167  1  0  0  0
 80 82  1  0  0  0
 80168  1  0  0  0
 80169  1  0  0  0
 81 84  1  0  0  0
 81 89  1  0  0  0
 81170  1  0  0  0
 81171  1  0  0  0
 82172  1  0  0  0
 82173  1  0  0  0
 83 84  1  0  0  0
 83 85  1  0  0  0
 85 90  1  0  0  0
 85 91  1  0  0  0
 85 92  1  0  0  0
 87 88  2  0  0  0
 89174  1  0  0  0
M  ISO  4   1 100  68 101  82 101  89 100
M  END
> <chiral flag>
0

> <version>
0

> <s_m_source_file>
/data/baiqing/PycharmProjects/Reinvent-master-3.2/result/LINK_invent/BTK/process_docking_weight1_custom_sum_contain_oxygen_bond_distance_aromatic_linkinvent_7_9_3/rearranged_h_0067.sdf

> <i_m_source_file_index>
83

> <r_mmod_Potential_Energy-OPLS-2005>
155.196716308594

> <r_mmod_Stretch_Energy-OPLS-2005>
54.3067855834961

> <r_mmod_Bend_Energy-OPLS-2005>
142.531951904297

> <r_mmod_Torsional_Energy-OPLS-2005>
243.89436340332

> <r_mmod_Improper_Torsional_Energy-OPLS-2005>
6.48013353347778

> <r_mmod_Van_der_Waal_Energy-OPLS-2005>
200.825881958008

> <r_mmod_Electrostatic_Energy-OPLS-2005>
-302.023742675781

> <r_mmod_Solvation_Energy-OPLS-2005>
-208.739044189453

> <b_mmod_Minimization_Converged-OPLS-2005>
0

> <r_mmod_RMS_Derivative-OPLS-2005>
7.4589695930481

$$$$
86
                    3D
 Structure written by MMmdl.
164172  0  0  1  0            999 V2000
  -30.5766  -14.9275   20.4112 C   0  0  0  0  0  0
  -30.4374  -12.5633   19.5189 C   0  0  0  0  0  0
  -29.5330  -12.5364   18.2648 C   0  0  0  0  0  0
  -28.0620  -12.3233   18.6706 C   0  0  0  0  0  0
  -27.6318  -13.2570   19.8329 C   0  0  2  0  0  0
  -28.6696  -13.2930   20.9740 C   0  0  0  0  0  0
  -25.2478  -13.8243   20.5717 C   0  0  0  0  0  0
  -24.1788  -13.0461   20.9212 C   0  0  0  0  0  0
  -24.6401  -11.6950   20.8728 C   0  0  0  0  0  0
  -23.9082  -10.4315   21.0385 C   0  0  0  0  0  0
  -24.3630   -9.4229   21.9167 C   0  0  0  0  0  0
  -23.6305   -8.2257   22.0747 C   0  0  0  0  0  0
  -22.4286   -8.0288   21.3536 C   0  0  0  0  0  0
  -21.9916   -9.0265   20.4641 C   0  0  0  0  0  0
  -22.7248  -10.2140   20.3043 C   0  0  0  0  0  0
  -21.6864   -6.0742   22.5279 C   0  0  0  0  0  0
  -21.4013   -6.5640   23.8212 C   0  0  0  0  0  0
  -21.3665   -5.6785   24.9165 C   0  0  0  0  0  0
  -21.6039   -4.3047   24.7212 C   0  0  0  0  0  0
  -21.8818   -3.8143   23.4332 C   0  0  0  0  0  0
  -21.9192   -4.6966   22.3397 C   0  0  0  0  0  0
  -22.7815  -13.5230   21.1871 C   0  0  0  0  0  0
  -22.1666   -4.2160   21.0975 F   0  0  0  0  0  0
  -21.5630   -3.4523   25.7720 F   0  0  0  0  0  0
  -29.9648  -13.6739   20.3959 N   0  0  0  0  0  0
  -26.2901  -12.9488   20.3204 N   0  0  0  0  0  0
  -25.9329  -11.6606   20.5671 N   0  0  0  0  0  0
  -22.0455  -12.8235   22.0432 N   0  0  0  0  0  0
  -25.4180  -15.1978   20.4233 N   0  0  0  0  0  0
  -31.7731  -14.9270   20.1088 O   0  0  0  0  0  0
  -21.6647   -6.8886   21.4237 O   0  0  0  0  0  0
  -22.3489  -14.5511   20.6681 O   0  0  0  0  0  0
  -24.6414  -31.8442   23.1881 C   0  0  0  0  0  0
  -25.9187  -32.4690   23.8285 C   0  0  1  0  0  0
  -27.2370  -27.1538   20.1478 C   0  0  0  0  0  0
  -25.5948  -33.8502   24.2205 N   0  0  0  0  0  0
  -23.4470  -30.4583   21.5328 C   0  0  2  0  0  0
  -24.9004  -28.8824   20.1154 C   0  0  0  0  0  0
  -22.7562  -29.4540   22.4883 C   0  0  0  0  0  0
  -18.0303  -28.1389   22.8488 C   0  0  0  0  0  0
  -24.1492  -36.7242   23.2640 C   0  0  0  0  0  0
  -26.0010  -30.7219   21.3857 C   0  0  0  0  0  0
  -26.0765  -29.3343   20.7259 C   0  0  0  0  0  0
  -27.2453  -28.4872   20.7211 C   0  0  0  0  0  0
  -26.0309  -26.7914   19.5102 C   0  0  0  0  0  0
  -24.8881  -27.6235   19.4929 C   0  0  0  0  0  0
  -23.6740  -29.7785   20.1557 C   0  0  0  0  0  0
  -25.4123  -36.3030   24.0322 C   0  0  1  0  0  0
  -20.5915  -28.3717   23.1256 C   0  0  2  0  0  0
  -20.6784  -26.9423   22.5419 C   0  0  0  0  0  0
  -19.5760  -26.6375   21.5227 C   0  0  0  0  0  0
  -18.1934  -26.7940   22.1619 C   0  0  0  0  0  0
  -19.1558  -28.8874   23.2854 C   0  0  0  0  0  0
  -18.9474  -30.1477   23.8860 C   0  0  0  0  0  0
  -17.6472  -30.6592   24.0557 C   0  0  0  0  0  0
  -25.9081  -34.9409   23.5075 C   0  0  0  0  0  0
  -16.5362  -29.9083   23.6343 C   0  0  0  0  0  0
  -16.7288  -28.6502   23.0367 C   0  0  0  0  0  0
  -26.4518  -31.6557   25.0723 C   0  0  0  0  0  0
  -25.3700  -31.3757   26.1423 C   0  0  0  0  0  0
  -27.0387  -30.2958   24.6293 C   0  0  0  0  0  0
  -27.6059  -32.4319   25.7488 C   0  0  0  0  0  0
  -27.5591  -37.1760   24.8453 C   0  0  0  0  0  0
  -21.4260  -29.3045   22.3630 N   0  0  0  0  0  0
  -26.4282  -37.3744   23.9424 N   0  0  0  0  0  0
  -24.7153  -31.0296   22.0904 N   0  0  0  0  0  0
  -23.4212  -28.8096   23.3035 O   0  0  0  0  0  0
  -28.3215  -26.2080   20.1984 O   0  0  0  0  0  0
  -26.5655  -34.8909   22.4649 O   0  0  0  0  0  0
  -23.5538  -32.1317   23.7096 O   0  0  0  0  0  0
  -29.9163  -18.9615   20.4044 C   0  0  0  0  0  0
  -30.9268  -19.9929   20.5238 C   0  0  0  0  0  0
  -28.4077  -20.8946   20.2217 C   0  0  0  0  0  0
  -29.4329  -21.9130   20.3138 C   0  0  0  0  0  0
  -30.3112  -17.3806   20.3199 C   0  0  0  0  0  0
  -26.9562  -21.2914   20.0560 C   0  0  0  0  0  0
  -33.0934  -20.5146   21.7941 C   0  0  0  0  0  0
  -33.1812  -19.8011   19.3571 C   0  0  0  0  0  0
  -30.3585  -23.9998   19.1405 C   0  0  0  0  0  0
  -30.0578  -24.0268   21.6336 C   0  0  0  0  0  0
  -28.1363  -24.6617   20.1167 C   0  0  0  0  0  0
  -32.4223  -19.6740   20.6885 C   0  0  0  0  0  0
  -29.4175  -23.5897   20.2965 C   0  0  0  0  0  0
  -28.6418  -19.5027   20.2656 N   0  0  0  0  0  0
  -30.6801  -21.3574   20.4581 N   0  0  0  0  0  0
  -29.7970  -16.1677   20.6195 N   0  0  0  0  0  0
  -31.4816  -12.6755   19.2243 H   0  0  0  0  0  0
  -30.3875  -11.6108   20.0475 H   0  0  0  0  0  0
  -29.8568  -11.7494   17.5809 H   0  0  0  0  0  0
  -29.6317  -13.4785   17.7226 H   0  0  0  0  0  0
  -27.9528  -11.2825   18.9751 H   0  0  0  0  0  0
  -27.4073  -12.4582   17.8097 H   0  0  0  0  0  0
  -27.5962  -14.2609   19.4078 H   0  0  0  0  0  0
  -28.7341  -12.3245   21.4721 H   0  0  0  0  0  0
  -28.3718  -14.0138   21.7371 H   0  0  0  0  0  0
  -25.2774   -9.5708   22.4745 H   0  0  0  0  0  0
  -24.0020   -7.4643   22.7456 H   0  0  0  0  0  0
  -21.0845   -8.8770   19.8950 H   0  0  0  0  0  0
  -22.3701  -10.9664   19.6148 H   0  0  0  0  0  0
  -21.2005   -7.6149   23.9725 H   0  0  0  0  0  0
  -21.1494   -6.0505   25.9073 H   0  0  0  0  0  0
  -22.0592   -2.7606   23.2815 H   0  0  0  0  0  0
  -22.4059  -11.9912   22.4864 H   0  0  0  0  0  0
  -21.1054  -13.1241   22.2578 H   0  0  0  0  0  0
  -24.6612  -15.8615   20.5547 H   0  0  0  0  0  0
  -26.2924  -15.6357   20.1586 H   0  0  0  0  0  0
  -26.7248  -32.5290   23.1012 H   0  0  0  0  0  0
  -25.0090  -33.9622   25.0352 H   0  0  0  0  0  0
  -22.7487  -31.2830   21.3733 H   0  0  0  0  0  0
  -23.3786  -35.9535   23.3248 H   0  0  0  0  0  0
  -24.3591  -36.8927   22.2064 H   0  0  0  0  0  0
  -23.7210  -37.6407   23.6713 H   0  0  0  0  0  0
  -26.1593  -31.4787   20.6169 H   0  0  0  0  0  0
  -26.8692  -30.7698   22.0312 H   0  0  0  0  0  0
  -28.1465  -28.8344   21.2077 H   0  0  0  0  0  0
  -25.9455  -25.8280   19.0315 H   0  0  0  0  0  0
  -23.9892  -27.2698   19.0071 H   0  0  0  0  0  0
  -23.8073  -30.5468   19.3938 H   0  0  0  0  0  0
  -22.7925  -29.2128   19.8496 H   0  0  0  0  0  0
  -25.1305  -36.1843   25.0810 H   0  0  0  0  0  0
  -21.0002  -28.3294   24.1383 H   0  0  0  0  0  0
  -20.5698  -26.2327   23.3633 H   0  0  0  0  0  0
  -21.6643  -26.7439   22.1204 H   0  0  0  0  0  0
  -19.6920  -25.6280   21.1271 H   0  0  0  0  0  0
  -19.6702  -27.3174   20.6748 H   0  0  0  0  0  0
  -17.4225  -26.6725   21.3995 H   0  0  0  0  0  0
  -18.0295  -26.0072   22.8997 H   0  0  0  0  0  0
  -19.7946  -30.7306   24.2200 H   0  0  0  0  0  0
  -17.5027  -31.6270   24.5161 H   0  0  0  0  0  0
  -15.5366  -30.2974   23.7687 H   0  0  0  0  0  0
  -15.8691  -28.0816   22.7096 H   0  0  0  0  0  0
  -24.5857  -30.7135   25.7741 H   0  0  0  0  0  0
  -24.8914  -32.2950   26.4810 H   0  0  0  0  0  0
  -25.7968  -30.8938   27.0230 H   0  0  0  0  0  0
  -26.3011  -29.6666   24.1299 H   0  0  0  0  0  0
  -27.4026  -29.7255   25.4853 H   0  0  0  0  0  0
  -27.8908  -30.4214   23.9607 H   0  0  0  0  0  0
  -27.2674  -33.3648   26.2004 H   0  0  0  0  0  0
  -28.3888  -32.6826   25.0318 H   0  0  0  0  0  0
  -28.0714  -31.8484   26.5441 H   0  0  0  0  0  0
  -28.2547  -38.0117   24.7575 H   0  0  0  0  0  0
  -28.1147  -36.2654   24.6168 H   0  0  0  0  0  0
  -27.2327  -37.1256   25.8855 H   0  0  0  0  0  0
  -20.9478  -29.8757   21.6802 H   0  0  0  0  0  0
  -26.0147  -38.2799   24.1470 H   0  0  0  0  0  0
  -31.3074  -17.3309   19.8759 H   0  0  0  0  0  0
  -26.4935  -21.4490   21.0303 H   0  0  0  0  0  0
  -26.3997  -20.5208   19.5226 H   0  0  0  0  0  0
  -26.8724  -22.2116   19.4805 H   0  0  0  0  0  0
  -32.5809  -20.3889   22.7485 H   0  0  0  0  0  0
  -33.0907  -21.5789   21.5527 H   0  0  0  0  0  0
  -34.1341  -20.2178   21.9313 H   0  0  0  0  0  0
  -32.7620  -19.1377   18.6003 H   0  0  0  0  0  0
  -34.2329  -19.5391   19.4795 H   0  0  0  0  0  0
  -33.1353  -20.8197   18.9696 H   0  0  0  0  0  0
  -31.3522  -23.5610   19.2353 H   0  0  0  0  0  0
  -30.5012  -25.0803   19.0980 H   0  0  0  0  0  0
  -29.9542  -23.6856   18.1775 H   0  0  0  0  0  0
  -31.0626  -23.6206   21.7617 H   0  0  0  0  0  0
  -29.4585  -23.6925   22.4797 H   0  0  0  0  0  0
  -30.1494  -25.1111   21.7068 H   0  0  0  0  0  0
  -27.3792  -24.4027   20.8566 H   0  0  0  0  0  0
  -27.6839  -24.4507   19.1479 H   0  0  0  0  0  0
  -32.5367  -18.6482   21.0341 H   0  0  0  0  0  0
  1 25  1  0  0  0
  1 30  2  0  0  0
  1 86  1  0  0  0
  2  3  1  0  0  0
  2 25  1  0  0  0
  2 87  1  0  0  0
  2 88  1  0  0  0
  3  4  1  0  0  0
  3 89  1  0  0  0
  3 90  1  0  0  0
  4  5  1  0  0  0
  4 91  1  0  0  0
  4 92  1  0  0  0
  5  6  1  0  0  0
  5 26  1  0  0  0
  5 93  1  0  0  0
  6 25  1  0  0  0
  6 94  1  0  0  0
  6 95  1  0  0  0
  7  8  2  0  0  0
  7 26  1  0  0  0
  7 29  1  0  0  0
  8  9  1  0  0  0
  8 22  1  0  0  0
  9 10  1  0  0  0
  9 27  2  0  0  0
 10 11  2  0  0  0
 10 15  1  0  0  0
 11 12  1  0  0  0
 11 96  1  0  0  0
 12 13  2  0  0  0
 12 97  1  0  0  0
 13 14  1  0  0  0
 13 31  1  0  0  0
 14 15  2  0  0  0
 14 98  1  0  0  0
 15 99  1  0  0  0
 16 17  2  0  0  0
 16 21  1  0  0  0
 16 31  1  0  0  0
 17 18  1  0  0  0
 17100  1  0  0  0
 18 19  2  0  0  0
 18101  1  0  0  0
 19 20  1  0  0  0
 19 24  1  0  0  0
 20 21  2  0  0  0
 20102  1  0  0  0
 21 23  1  0  0  0
 22 28  1  0  0  0
 22 32  2  0  0  0
 26 27  1  0  0  0
 28103  1  0  0  0
 28104  1  0  0  0
 29105  1  0  0  0
 29106  1  0  0  0
 33 34  1  0  0  0
 33 66  1  0  0  0
 33 70  2  0  0  0
 34 36  1  0  0  0
 34 59  1  0  0  0
 34107  1  0  0  0
 35 44  2  0  0  0
 35 45  1  0  0  0
 35 68  1  0  0  0
 36 56  1  0  0  0
 36108  1  0  0  0
 37 39  1  0  0  0
 37 47  1  0  0  0
 37 66  1  0  0  0
 37109  1  0  0  0
 38 43  2  0  0  0
 38 46  1  0  0  0
 38 47  1  0  0  0
 39 64  1  0  0  0
 39 67  2  0  0  0
 40 52  1  0  0  0
 40 53  2  0  0  0
 40 58  1  0  0  0
 41110  1  0  0  0
 41111  1  0  0  0
 41112  1  0  0  0
 41 48  1  0  0  0
 42 43  1  0  0  0
 42 66  1  0  0  0
 42113  1  0  0  0
 42114  1  0  0  0
 43 44  1  0  0  0
 44115  1  0  0  0
 45 46  2  0  0  0
 45116  1  0  0  0
 46117  1  0  0  0
 47118  1  0  0  0
 47119  1  0  0  0
 48 56  1  0  0  0
 48 65  1  0  0  0
 48120  1  0  0  0
 49 50  1  0  0  0
 49 53  1  0  0  0
 49 64  1  0  0  0
 49121  1  0  0  0
 50 51  1  0  0  0
 50122  1  0  0  0
 50123  1  0  0  0
 51 52  1  0  0  0
 51124  1  0  0  0
 51125  1  0  0  0
 52126  1  0  0  0
 52127  1  0  0  0
 53 54  1  0  0  0
 54 55  2  0  0  0
 54128  1  0  0  0
 55 57  1  0  0  0
 55129  1  0  0  0
 56 69  2  0  0  0
 57 58  2  0  0  0
 57130  1  0  0  0
 58131  1  0  0  0
 59 60  1  0  0  0
 59 61  1  0  0  0
 59 62  1  0  0  0
 60132  1  0  0  0
 60133  1  0  0  0
 60134  1  0  0  0
 61135  1  0  0  0
 61136  1  0  0  0
 61137  1  0  0  0
 62138  1  0  0  0
 62139  1  0  0  0
 62140  1  0  0  0
 63 65  1  0  0  0
 63141  1  0  0  0
 63142  1  0  0  0
 63143  1  0  0  0
 64144  1  0  0  0
 65145  1  0  0  0
 68 81  1  0  0  0
 71 72  2  0  0  0
 71 75  1  0  0  0
 71 84  1  0  0  0
 72 82  1  0  0  0
 72 85  1  0  0  0
 73 74  1  0  0  0
 73 76  1  0  0  0
 73 84  2  0  0  0
 74 83  1  0  0  0
 74 85  2  0  0  0
 75 86  2  0  0  0
 75146  1  0  0  0
 76147  1  0  0  0
 76148  1  0  0  0
 76149  1  0  0  0
 77150  1  0  0  0
 77151  1  0  0  0
 77152  1  0  0  0
 77 82  1  0  0  0
 78 82  1  0  0  0
 78153  1  0  0  0
 78154  1  0  0  0
 78155  1  0  0  0
 79156  1  0  0  0
 79157  1  0  0  0
 79158  1  0  0  0
 79 83  1  0  0  0
 80 83  1  0  0  0
 80159  1  0  0  0
 80160  1  0  0  0
 80161  1  0  0  0
 81 83  1  0  0  0
 81162  1  0  0  0
 81163  1  0  0  0
 82164  1  0  0  0
M  ISO  4   1 100  68 101  81 101  86 100
M  END
> <chiral flag>
0

> <version>
0

> <s_m_source_file>
/data/baiqing/PycharmProjects/Reinvent-master-3.2/result/LINK_invent/BTK/process_docking_weight1_custom_sum_contain_oxygen_bond_distance_aromatic_linkinvent_7_9_3/rearranged_h_0067.sdf

> <i_m_source_file_index>
84

> <r_mmod_Potential_Energy-OPLS-2005>
566.042297363281

> <r_mmod_Stretch_Energy-OPLS-2005>
261.221221923828

> <r_mmod_Bend_Energy-OPLS-2005>
290.570281982422

> <r_mmod_Torsional_Energy-OPLS-2005>
160.371444702148

> <r_mmod_Improper_Torsional_Energy-OPLS-2005>
3.33493947982788

> <r_mmod_Van_der_Waal_Energy-OPLS-2005>
146.094741821289

> <r_mmod_Electrostatic_Energy-OPLS-2005>
-283.942504882812

> <r_mmod_Solvation_Energy-OPLS-2005>
-182.733703613281

> <b_mmod_Minimization_Converged-OPLS-2005>
0

> <r_mmod_RMS_Derivative-OPLS-2005>
2.5114848613739

$$$$
87
                    3D
 Structure written by MMmdl.
170178  0  0  1  0            999 V2000
  -30.6135  -14.8146   20.4831 C   0  0  0  0  0  0
  -30.4382  -12.5174   19.4617 C   0  0  0  0  0  0
  -29.5065  -12.5095   18.2300 C   0  0  0  0  0  0
  -28.0495  -12.2651   18.6725 C   0  0  0  0  0  0
  -27.6349  -13.1905   19.8426 C   0  0  2  0  0  0
  -28.6926  -13.1412   20.9752 C   0  0  0  0  0  0
  -25.2502  -13.8078   20.5643 C   0  0  0  0  0  0
  -24.1783  -13.0398   20.9192 C   0  0  0  0  0  0
  -24.6333  -11.6860   20.8767 C   0  0  0  0  0  0
  -23.9011  -10.4277   21.0439 C   0  0  0  0  0  0
  -24.3597   -9.4203   21.9206 C   0  0  0  0  0  0
  -23.6301   -8.2230   22.0777 C   0  0  0  0  0  0
  -22.4289   -8.0254   21.3554 C   0  0  0  0  0  0
  -21.9905   -9.0216   20.4649 C   0  0  0  0  0  0
  -22.7195  -10.2111   20.3074 C   0  0  0  0  0  0
  -21.6820   -6.0746   22.5302 C   0  0  0  0  0  0
  -21.3960   -6.5633   23.8235 C   0  0  0  0  0  0
  -21.3680   -5.6790   24.9201 C   0  0  0  0  0  0
  -21.6077   -4.3059   24.7238 C   0  0  0  0  0  0
  -21.8813   -3.8148   23.4351 C   0  0  0  0  0  0
  -21.9182   -4.6981   22.3416 C   0  0  0  0  0  0
  -22.7831  -13.5221   21.1869 C   0  0  0  0  0  0
  -22.1650   -4.2174   21.0994 F   0  0  0  0  0  0
  -21.5686   -3.4540   25.7756 F   0  0  0  0  0  0
  -29.9621  -13.5878   20.3830 N   0  0  0  0  0  0
  -26.2894  -12.9198   20.3267 N   0  0  0  0  0  0
  -25.9240  -11.6395   20.5763 N   0  0  0  0  0  0
  -22.0465  -12.8236   22.0422 N   0  0  0  0  0  0
  -25.4203  -15.1801   20.3994 N   0  0  0  0  0  0
  -31.8094  -14.8183   20.1800 O   0  0  0  0  0  0
  -21.6614   -6.8884   21.4268 O   0  0  0  0  0  0
  -22.3552  -14.5558   20.6732 O   0  0  0  0  0  0
  -24.6327  -31.8565   23.1999 C   0  0  0  0  0  0
  -25.9162  -32.4749   23.8345 C   0  0  1  0  0  0
  -27.2217  -27.2573   20.1453 C   0  0  0  0  0  0
  -25.5972  -33.8558   24.2255 N   0  0  0  0  0  0
  -23.4284  -30.4812   21.5422 C   0  0  2  0  0  0
  -24.8756  -28.9259   20.1142 C   0  0  0  0  0  0
  -22.7498  -29.4635   22.4909 C   0  0  0  0  0  0
  -18.0313  -28.1375   22.8490 C   0  0  0  0  0  0
  -24.1480  -36.7264   23.2636 C   0  0  0  0  0  0
  -25.9736  -30.7645   21.3841 C   0  0  0  0  0  0
  -26.0466  -29.3872   20.7304 C   0  0  0  0  0  0
  -27.2218  -28.5662   20.7369 C   0  0  0  0  0  0
  -26.0322  -26.8772   19.4807 C   0  0  0  0  0  0
  -24.8754  -27.6770   19.4787 C   0  0  0  0  0  0
  -23.6463  -29.8153   20.1585 C   0  0  0  0  0  0
  -25.4108  -36.3055   24.0323 C   0  0  1  0  0  0
  -20.5911  -28.3709   23.1228 C   0  0  2  0  0  0
  -20.6785  -26.9416   22.5384 C   0  0  0  0  0  0
  -19.5748  -26.6377   21.5199 C   0  0  0  0  0  0
  -18.1940  -26.7919   22.1630 C   0  0  0  0  0  0
  -19.1569  -28.8857   23.2861 C   0  0  0  0  0  0
  -18.9486  -30.1460   23.8872 C   0  0  0  0  0  0
  -17.6489  -30.6576   24.0561 C   0  0  0  0  0  0
  -25.9066  -34.9435   23.5083 C   0  0  0  0  0  0
  -16.5376  -29.9072   23.6328 C   0  0  0  0  0  0
  -16.7306  -28.6488   23.0348 C   0  0  0  0  0  0
  -26.4525  -31.6600   25.0755 C   0  0  0  0  0  0
  -25.3753  -31.3744   26.1481 C   0  0  0  0  0  0
  -27.0381  -30.3016   24.6254 C   0  0  0  0  0  0
  -27.6058  -32.4374   25.7538 C   0  0  0  0  0  0
  -27.5562  -37.1775   24.8459 C   0  0  0  0  0  0
  -21.4220  -29.3074   22.3624 N   0  0  0  0  0  0
  -26.4259  -37.3773   23.9428 N   0  0  0  0  0  0
  -24.6968  -31.0520   22.0988 N   0  0  0  0  0  0
  -23.4180  -28.8169   23.3021 O   0  0  0  0  0  0
  -28.3081  -26.3479   20.2013 O   0  0  0  0  0  0
  -26.5622  -34.8920   22.4640 O   0  0  0  0  0  0
  -23.5473  -32.1424   23.7277 O   0  0  0  0  0  0
  -29.7967  -20.3827   19.3026 C   0  0  0  0  0  0
  -30.0654  -18.7686   20.6213 C   0  0  0  0  0  0
  -32.6810  -18.6657   22.0500 C   0  0  0  0  0  0
  -30.3529  -24.0495   21.1302 C   0  0  0  0  0  0
  -29.4860  -23.6636   18.8511 C   0  0  0  0  0  0
  -27.1793  -21.8785   20.2233 C   0  0  0  0  0  0
  -28.3697  -22.1792   22.3683 C   0  0  0  0  0  0
  -28.5053  -16.2503   20.6177 C   0  0  0  0  0  0
  -32.1094  -17.4031   21.3789 C   0  0  0  0  0  0
  -28.0063  -24.8931   20.4781 C   0  0  0  0  0  0
  -30.5614  -17.3899   21.2303 C   0  0  2  0  0  0
  -29.0829  -23.6656   20.3400 C   0  0  0  0  0  0
  -28.5761  -22.1512   20.8282 C   0  0  0  0  0  0
  -30.2333  -19.1105   19.3063 N   0  0  0  0  0  0
  -29.5549  -19.7925   21.3588 N   0  0  0  0  0  0
  -29.3868  -20.8756   20.4846 N   0  0  0  0  0  0
  -29.9539  -16.0363   20.7836 N   0  0  0  0  0  0
  -31.4724  -12.6561   19.1407 H   0  0  0  0  0  0
  -30.4225  -11.5444   19.9566 H   0  0  0  0  0  0
  -29.8169  -11.7393   17.5228 H   0  0  0  0  0  0
  -29.5889  -13.4594   17.6979 H   0  0  0  0  0  0
  -27.9832  -11.2260   18.9979 H   0  0  0  0  0  0
  -27.3636  -12.3667   17.8310 H   0  0  0  0  0  0
  -27.6036  -14.1747   19.3919 H   0  0  0  0  0  0
  -28.7838  -12.1182   21.3408 H   0  0  0  0  0  0
  -28.4232  -13.7156   21.8608 H   0  0  0  0  0  0
  -25.2751   -9.5706   22.4766 H   0  0  0  0  0  0
  -24.0035   -7.4622   22.7480 H   0  0  0  0  0  0
  -21.0851   -8.8686   19.8932 H   0  0  0  0  0  0
  -22.3636  -10.9653   19.6184 H   0  0  0  0  0  0
  -21.1864   -7.6130   23.9739 H   0  0  0  0  0  0
  -21.1539   -6.0516   25.9113 H   0  0  0  0  0  0
  -22.0572   -2.7613   23.2831 H   0  0  0  0  0  0
  -22.3997  -11.9826   22.4748 H   0  0  0  0  0  0
  -21.1111  -13.1320   22.2656 H   0  0  0  0  0  0
  -24.6688  -15.8496   20.5196 H   0  0  0  0  0  0
  -26.2903  -15.6117   20.1206 H   0  0  0  0  0  0
  -26.7221  -32.5362   23.1079 H   0  0  0  0  0  0
  -25.0151  -33.9704   25.0416 H   0  0  0  0  0  0
  -22.7282  -31.3064   21.3969 H   0  0  0  0  0  0
  -23.3761  -35.9576   23.3283 H   0  0  0  0  0  0
  -24.3550  -36.8909   22.2047 H   0  0  0  0  0  0
  -23.7227  -37.6452   23.6687 H   0  0  0  0  0  0
  -26.1141  -31.5200   20.6097 H   0  0  0  0  0  0
  -26.8483  -30.8088   22.0206 H   0  0  0  0  0  0
  -28.1127  -28.9170   21.2403 H   0  0  0  0  0  0
  -25.9598  -25.9437   18.9467 H   0  0  0  0  0  0
  -23.9869  -27.3131   18.9818 H   0  0  0  0  0  0
  -23.7724  -30.5928   19.4041 H   0  0  0  0  0  0
  -22.7613  -29.2555   19.8502 H   0  0  0  0  0  0
  -25.1286  -36.1883   25.0811 H   0  0  0  0  0  0
  -21.0027  -28.3290   24.1340 H   0  0  0  0  0  0
  -20.5638  -26.2347   23.3616 H   0  0  0  0  0  0
  -21.6654  -26.7386   22.1204 H   0  0  0  0  0  0
  -19.6896  -25.6285   21.1234 H   0  0  0  0  0  0
  -19.6653  -27.3179   20.6717 H   0  0  0  0  0  0
  -17.4201  -26.6685   21.4038 H   0  0  0  0  0  0
  -18.0336  -26.0049   22.9011 H   0  0  0  0  0  0
  -19.7968  -30.7289   24.2206 H   0  0  0  0  0  0
  -17.5046  -31.6248   24.5183 H   0  0  0  0  0  0
  -15.5375  -30.2958   23.7669 H   0  0  0  0  0  0
  -15.8720  -28.0801   22.7047 H   0  0  0  0  0  0
  -24.5915  -30.7106   25.7818 H   0  0  0  0  0  0
  -24.8966  -32.2909   26.4941 H   0  0  0  0  0  0
  -25.8084  -30.8901   27.0245 H   0  0  0  0  0  0
  -26.2961  -29.6764   24.1268 H   0  0  0  0  0  0
  -27.4046  -29.7286   25.4785 H   0  0  0  0  0  0
  -27.8862  -30.4293   23.9520 H   0  0  0  0  0  0
  -27.2637  -33.3679   26.2092 H   0  0  0  0  0  0
  -28.3891  -32.6946   25.0392 H   0  0  0  0  0  0
  -28.0727  -31.8539   26.5486 H   0  0  0  0  0  0
  -28.2561  -38.0089   24.7543 H   0  0  0  0  0  0
  -28.1078  -36.2624   24.6247 H   0  0  0  0  0  0
  -27.2276  -37.1375   25.8857 H   0  0  0  0  0  0
  -20.9405  -29.8839   21.6860 H   0  0  0  0  0  0
  -26.0125  -38.2823   24.1501 H   0  0  0  0  0  0
  -29.7076  -20.9402   18.3826 H   0  0  0  0  0  0
  -33.7514  -18.5744   22.2298 H   0  0  0  0  0  0
  -32.1989  -18.8430   23.0111 H   0  0  0  0  0  0
  -32.5332  -19.5568   21.4385 H   0  0  0  0  0  0
  -30.8200  -24.9470   20.7229 H   0  0  0  0  0  0
  -31.0989  -23.2538   21.1000 H   0  0  0  0  0  0
  -30.1363  -24.2597   22.1763 H   0  0  0  0  0  0
  -29.7978  -24.6617   18.5378 H   0  0  0  0  0  0
  -28.6516  -23.3862   18.2094 H   0  0  0  0  0  0
  -30.3251  -23.0041   18.6363 H   0  0  0  0  0  0
  -26.4314  -22.5942   20.5630 H   0  0  0  0  0  0
  -26.8132  -20.8892   20.5034 H   0  0  0  0  0  0
  -27.1947  -21.8986   19.1342 H   0  0  0  0  0  0
  -27.7819  -23.0365   22.6898 H   0  0  0  0  0  0
  -29.3177  -22.2087   22.9068 H   0  0  0  0  0  0
  -27.8350  -21.2966   22.7235 H   0  0  0  0  0  0
  -28.2214  -16.2028   19.5663 H   0  0  0  0  0  0
  -28.1510  -17.2183   20.9699 H   0  0  0  0  0  0
  -27.9026  -15.5777   21.2107 H   0  0  0  0  0  0
  -32.4392  -16.5427   21.9620 H   0  0  0  0  0  0
  -32.5672  -17.3036   20.3933 H   0  0  0  0  0  0
  -27.5780  -24.8774   21.4804 H   0  0  0  0  0  0
  -27.1960  -24.5925   19.8223 H   0  0  0  0  0  0
  -30.2223  -17.4293   22.2679 H   0  0  0  0  0  0
  1 25  1  0  0  0
  1 30  2  0  0  0
  1 87  1  0  0  0
  2  3  1  0  0  0
  2 25  1  0  0  0
  2 88  1  0  0  0
  2 89  1  0  0  0
  3  4  1  0  0  0
  3 90  1  0  0  0
  3 91  1  0  0  0
  4  5  1  0  0  0
  4 92  1  0  0  0
  4 93  1  0  0  0
  5  6  1  0  0  0
  5 26  1  0  0  0
  5 94  1  0  0  0
  6 25  1  0  0  0
  6 95  1  0  0  0
  6 96  1  0  0  0
  7  8  2  0  0  0
  7 26  1  0  0  0
  7 29  1  0  0  0
  8  9  1  0  0  0
  8 22  1  0  0  0
  9 10  1  0  0  0
  9 27  2  0  0  0
 10 11  2  0  0  0
 10 15  1  0  0  0
 11 12  1  0  0  0
 11 97  1  0  0  0
 12 13  2  0  0  0
 12 98  1  0  0  0
 13 14  1  0  0  0
 13 31  1  0  0  0
 14 15  2  0  0  0
 14 99  1  0  0  0
 15100  1  0  0  0
 16 17  2  0  0  0
 16 21  1  0  0  0
 16 31  1  0  0  0
 17 18  1  0  0  0
 17101  1  0  0  0
 18 19  2  0  0  0
 18102  1  0  0  0
 19 20  1  0  0  0
 19 24  1  0  0  0
 20 21  2  0  0  0
 20103  1  0  0  0
 21 23  1  0  0  0
 22 28  1  0  0  0
 22 32  2  0  0  0
 26 27  1  0  0  0
 28104  1  0  0  0
 28105  1  0  0  0
 29106  1  0  0  0
 29107  1  0  0  0
 33 34  1  0  0  0
 33 66  1  0  0  0
 33 70  2  0  0  0
 34 36  1  0  0  0
 34 59  1  0  0  0
 34108  1  0  0  0
 35 44  2  0  0  0
 35 45  1  0  0  0
 35 68  1  0  0  0
 36 56  1  0  0  0
 36109  1  0  0  0
 37 39  1  0  0  0
 37 47  1  0  0  0
 37 66  1  0  0  0
 37110  1  0  0  0
 38 43  2  0  0  0
 38 46  1  0  0  0
 38 47  1  0  0  0
 39 64  1  0  0  0
 39 67  2  0  0  0
 40 52  1  0  0  0
 40 53  2  0  0  0
 40 58  1  0  0  0
 41111  1  0  0  0
 41112  1  0  0  0
 41113  1  0  0  0
 41 48  1  0  0  0
 42 43  1  0  0  0
 42 66  1  0  0  0
 42114  1  0  0  0
 42115  1  0  0  0
 43 44  1  0  0  0
 44116  1  0  0  0
 45 46  2  0  0  0
 45117  1  0  0  0
 46118  1  0  0  0
 47119  1  0  0  0
 47120  1  0  0  0
 48 56  1  0  0  0
 48 65  1  0  0  0
 48121  1  0  0  0
 49 50  1  0  0  0
 49 53  1  0  0  0
 49 64  1  0  0  0
 49122  1  0  0  0
 50 51  1  0  0  0
 50123  1  0  0  0
 50124  1  0  0  0
 51 52  1  0  0  0
 51125  1  0  0  0
 51126  1  0  0  0
 52127  1  0  0  0
 52128  1  0  0  0
 53 54  1  0  0  0
 54 55  2  0  0  0
 54129  1  0  0  0
 55 57  1  0  0  0
 55130  1  0  0  0
 56 69  2  0  0  0
 57 58  2  0  0  0
 57131  1  0  0  0
 58132  1  0  0  0
 59 60  1  0  0  0
 59 61  1  0  0  0
 59 62  1  0  0  0
 60133  1  0  0  0
 60134  1  0  0  0
 60135  1  0  0  0
 61136  1  0  0  0
 61137  1  0  0  0
 61138  1  0  0  0
 62139  1  0  0  0
 62140  1  0  0  0
 62141  1  0  0  0
 63 65  1  0  0  0
 63142  1  0  0  0
 63143  1  0  0  0
 63144  1  0  0  0
 64145  1  0  0  0
 65146  1  0  0  0
 68 80  1  0  0  0
 71 84  2  0  0  0
 71 86  1  0  0  0
 71147  1  0  0  0
 72 81  1  0  0  0
 72 84  1  0  0  0
 72 85  2  0  0  0
 73 79  1  0  0  0
 73148  1  0  0  0
 73149  1  0  0  0
 73150  1  0  0  0
 74151  1  0  0  0
 74152  1  0  0  0
 74153  1  0  0  0
 74 82  1  0  0  0
 75 82  1  0  0  0
 75154  1  0  0  0
 75155  1  0  0  0
 75156  1  0  0  0
 76157  1  0  0  0
 76158  1  0  0  0
 76159  1  0  0  0
 76 83  1  0  0  0
 77 83  1  0  0  0
 77160  1  0  0  0
 77161  1  0  0  0
 77162  1  0  0  0
 78 87  1  0  0  0
 78163  1  0  0  0
 78164  1  0  0  0
 78165  1  0  0  0
 79166  1  0  0  0
 79167  1  0  0  0
 79 81  1  0  0  0
 80 82  1  0  0  0
 80168  1  0  0  0
 80169  1  0  0  0
 81 87  1  0  0  0
 81170  1  0  0  0
 82 83  1  0  0  0
 83 86  1  0  0  0
 85 86  1  0  0  0
M  ISO  4   1 100  68 101  80 101  87 100
M  END
> <chiral flag>
0

> <version>
0

> <s_m_source_file>
/data/baiqing/PycharmProjects/Reinvent-master-3.2/result/LINK_invent/BTK/process_docking_weight1_custom_sum_contain_oxygen_bond_distance_aromatic_linkinvent_7_9_3/rearranged_h_0067.sdf

> <i_m_source_file_index>
85

> <r_mmod_Potential_Energy-OPLS-2005>
399.6396484375

> <r_mmod_Stretch_Energy-OPLS-2005>
165.405624389648

> <r_mmod_Bend_Energy-OPLS-2005>
227.852600097656

> <r_mmod_Torsional_Energy-OPLS-2005>
291.383758544922

> <r_mmod_Improper_Torsional_Energy-OPLS-2005>
4.70759057998657

> <r_mmod_Van_der_Waal_Energy-OPLS-2005>
152.585205078125

> <r_mmod_Electrostatic_Energy-OPLS-2005>
-339.448913574219

> <r_mmod_Solvation_Energy-OPLS-2005>
-205.103805541992

> <b_mmod_Minimization_Converged-OPLS-2005>
0

> <r_mmod_RMS_Derivative-OPLS-2005>
3.59710812568665

$$$$
88
                    3D
 Structure written by MMmdl.
183191  0  0  1  0            999 V2000
  -30.7252  -14.7739   20.3802 C   0  0  0  0  0  0
  -30.4071  -12.4855   19.4640 C   0  0  0  0  0  0
  -29.4871  -12.4468   18.2296 C   0  0  0  0  0  0
  -28.0194  -12.3042   18.6680 C   0  0  0  0  0  0
  -27.6259  -13.2359   19.8473 C   0  0  2  0  0  0
  -28.6946  -13.2753   20.9586 C   0  0  0  0  0  0
  -25.2498  -13.8153   20.6000 C   0  0  0  0  0  0
  -24.1789  -13.0353   20.9328 C   0  0  0  0  0  0
  -24.6413  -11.6816   20.8946 C   0  0  0  0  0  0
  -23.9100  -10.4188   21.0593 C   0  0  0  0  0  0
  -24.3580   -9.4033   21.9347 C   0  0  0  0  0  0
  -23.6234   -8.2077   22.0851 C   0  0  0  0  0  0
  -22.4208   -8.0208   21.3635 C   0  0  0  0  0  0
  -21.9944   -9.0202   20.4720 C   0  0  0  0  0  0
  -22.7298  -10.2063   20.3207 C   0  0  0  0  0  0
  -21.6797   -6.0647   22.5298 C   0  0  0  0  0  0
  -21.3982   -6.5589   23.8216 C   0  0  0  0  0  0
  -21.3712   -5.6807   24.9222 C   0  0  0  0  0  0
  -21.6050   -4.3057   24.7280 C   0  0  0  0  0  0
  -21.8808   -3.8091   23.4418 C   0  0  0  0  0  0
  -21.9177   -4.6881   22.3438 C   0  0  0  0  0  0
  -22.7771  -13.5075   21.1966 C   0  0  0  0  0  0
  -22.1679   -4.2044   21.1033 F   0  0  0  0  0  0
  -21.5609   -3.4575   25.7813 F   0  0  0  0  0  0
  -29.9711  -13.6150   20.3217 N   0  0  0  0  0  0
  -26.2923  -12.9377   20.3532 N   0  0  0  0  0  0
  -25.9378  -11.6499   20.6034 N   0  0  0  0  0  0
  -22.0404  -12.8091   22.0500 N   0  0  0  0  0  0
  -25.4293  -15.1934   20.4732 N   0  0  0  0  0  0
  -31.9437  -14.5784   20.4107 O   0  0  0  0  0  0
  -21.6559   -6.8807   21.4271 O   0  0  0  0  0  0
  -22.3433  -14.5364   20.6796 O   0  0  0  0  0  0
  -24.6289  -31.8571   23.1959 C   0  0  0  0  0  0
  -25.9128  -32.4753   23.8300 C   0  0  1  0  0  0
  -27.2222  -27.3102   20.1044 C   0  0  0  0  0  0
  -25.5943  -33.8560   24.2224 N   0  0  0  0  0  0
  -23.4210  -30.4769   21.5442 C   0  0  2  0  0  0
  -24.8641  -28.9302   20.1099 C   0  0  0  0  0  0
  -22.7514  -29.4576   22.4959 C   0  0  0  0  0  0
  -18.0289  -28.1386   22.8487 C   0  0  0  0  0  0
  -24.1495  -36.7307   23.2630 C   0  0  0  0  0  0
  -25.9612  -30.7866   21.3619 C   0  0  0  0  0  0
  -26.0352  -29.4107   20.7085 C   0  0  0  0  0  0
  -27.2180  -28.6123   20.6950 C   0  0  0  0  0  0
  -26.0260  -26.8823   19.4827 C   0  0  0  0  0  0
  -24.8612  -27.6714   19.4881 C   0  0  0  0  0  0
  -23.6335  -29.8112   20.1599 C   0  0  0  0  0  0
  -25.4120  -36.3060   24.0300 C   0  0  1  0  0  0
  -20.5895  -28.3667   23.1322 C   0  0  2  0  0  0
  -20.6768  -26.9390   22.5433 C   0  0  0  0  0  0
  -19.5748  -26.6378   21.5221 C   0  0  0  0  0  0
  -18.1923  -26.7928   22.1623 C   0  0  0  0  0  0
  -19.1540  -28.8850   23.2894 C   0  0  0  0  0  0
  -18.9453  -30.1460   23.8899 C   0  0  0  0  0  0
  -17.6450  -30.6574   24.0572 C   0  0  0  0  0  0
  -25.9066  -34.9429   23.5054 C   0  0  0  0  0  0
  -16.5353  -29.9078   23.6320 C   0  0  0  0  0  0
  -16.7282  -28.6506   23.0336 C   0  0  0  0  0  0
  -26.4495  -31.6578   25.0678 C   0  0  0  0  0  0
  -25.3727  -31.3723   26.1404 C   0  0  0  0  0  0
  -27.0330  -30.3005   24.6104 C   0  0  0  0  0  0
  -27.6031  -32.4320   25.7502 C   0  0  0  0  0  0
  -27.5590  -37.1801   24.8453 C   0  0  0  0  0  0
  -21.4220  -29.3005   22.3727 N   0  0  0  0  0  0
  -26.4292  -37.3761   23.9412 N   0  0  0  0  0  0
  -24.6905  -31.0570   22.0915 N   0  0  0  0  0  0
  -23.4243  -28.8115   23.3042 O   0  0  0  0  0  0
  -28.3428  -26.4644   20.1489 O   0  0  0  0  0  0
  -26.5645  -34.8919   22.4634 O   0  0  0  0  0  0
  -23.5455  -32.1376   23.7287 O   0  0  0  0  0  0
  -27.8162  -17.6686   22.1863 C   0  0  0  0  0  0
  -29.2813  -17.1617   20.7409 C   0  0  0  0  0  0
  -26.8025  -16.2330   24.0030 C   0  0  0  0  0  0
  -25.6416  -18.3222   23.3074 C   0  0  0  0  0  0
  -27.8277  -18.4325   24.5571 C   0  0  0  0  0  0
  -31.6581  -17.1473   20.0871 C   0  0  0  0  0  0
  -30.3089  -20.9815   21.7427 C   0  0  0  0  0  0
  -31.2289  -21.2943   19.4512 C   0  0  0  0  0  0
  -30.5407  -24.4836   19.5191 C   0  0  0  0  0  0
  -29.6101  -24.2047   21.8284 C   0  0  0  0  0  0
  -28.9685  -22.4292   20.0090 C   0  0  0  0  0  0
  -29.3036  -19.7063   19.7091 C   0  0  0  0  0  0
  -28.1408  -25.0029   19.9598 C   0  0  0  0  0  0
  -27.0304  -17.6699   23.4866 C   0  0  0  0  0  0
  -30.3395  -16.3191   19.9292 C   0  0  1  0  0  0
  -29.9135  -21.1177   20.2571 C   0  0  0  0  0  0
  -29.3254  -23.9948   20.3312 C   0  0  0  0  0  0
  -30.0036  -16.2585   18.4023 C   0  0  0  0  0  0
  -28.5878  -16.6258   21.7522 N   0  0  0  0  0  0
  -27.9930  -18.8021   21.5181 N   0  0  0  0  0  0
  -28.9695  -18.5258   20.6150 N   0  0  0  0  0  0
  -30.0267  -17.4486   17.8127 F   0  0  0  0  0  0
  -30.8910  -15.5162   17.7369 F   0  0  0  0  0  0
  -28.8000  -15.7403   18.1864 F   0  0  0  0  0  0
  -31.4448  -12.5665   19.1360 H   0  0  0  0  0  0
  -30.3428  -11.5517   20.0216 H   0  0  0  0  0  0
  -29.7634  -11.6027   17.5961 H   0  0  0  0  0  0
  -29.6214  -13.3379   17.6151 H   0  0  0  0  0  0
  -27.8870  -11.2647   18.9716 H   0  0  0  0  0  0
  -27.3535  -12.4681   17.8198 H   0  0  0  0  0  0
  -27.5613  -14.2326   19.4252 H   0  0  0  0  0  0
  -28.7736  -12.3199   21.4821 H   0  0  0  0  0  0
  -28.4344  -14.0146   21.7157 H   0  0  0  0  0  0
  -25.2704   -9.5372   22.4982 H   0  0  0  0  0  0
  -23.9875   -7.4385   22.7510 H   0  0  0  0  0  0
  -21.0938   -8.8725   19.8969 H   0  0  0  0  0  0
  -22.3821  -10.9637   19.6318 H   0  0  0  0  0  0
  -21.1948   -7.6097   23.9622 H   0  0  0  0  0  0
  -21.1642   -6.0626   25.9131 H   0  0  0  0  0  0
  -22.0572   -2.7527   23.2996 H   0  0  0  0  0  0
  -22.3912  -11.9717   22.4947 H   0  0  0  0  0  0
  -21.1063  -13.1238   22.2701 H   0  0  0  0  0  0
  -24.6877  -15.8638   20.6338 H   0  0  0  0  0  0
  -26.3395  -15.6292   20.3972 H   0  0  0  0  0  0
  -26.7208  -32.5417   23.1057 H   0  0  0  0  0  0
  -25.0054  -33.9686   25.0347 H   0  0  0  0  0  0
  -22.7102  -31.2943   21.3996 H   0  0  0  0  0  0
  -23.3745  -35.9650   23.3231 H   0  0  0  0  0  0
  -24.3584  -36.9018   22.2057 H   0  0  0  0  0  0
  -23.7263  -37.6486   23.6725 H   0  0  0  0  0  0
  -26.0801  -31.5395   20.5804 H   0  0  0  0  0  0
  -26.8486  -30.8468   21.9808 H   0  0  0  0  0  0
  -28.1228  -28.9752   21.1629 H   0  0  0  0  0  0
  -25.9612  -25.9228   18.9909 H   0  0  0  0  0  0
  -23.9621  -27.2957   19.0164 H   0  0  0  0  0  0
  -23.7624  -30.5853   19.4032 H   0  0  0  0  0  0
  -22.7513  -29.2461   19.8544 H   0  0  0  0  0  0
  -25.1297  -36.1869   25.0789 H   0  0  0  0  0  0
  -20.9957  -28.3213   24.1461 H   0  0  0  0  0  0
  -20.5664  -26.2265   23.3617 H   0  0  0  0  0  0
  -21.6643  -26.7404   22.1259 H   0  0  0  0  0  0
  -19.6900  -25.6292   21.1242 H   0  0  0  0  0  0
  -19.6683  -27.3190   20.6751 H   0  0  0  0  0  0
  -17.4201  -26.6722   21.4009 H   0  0  0  0  0  0
  -18.0276  -26.0067   22.9005 H   0  0  0  0  0  0
  -19.7918  -30.7289   24.2281 H   0  0  0  0  0  0
  -17.4984  -31.6238   24.5199 H   0  0  0  0  0  0
  -15.5345  -30.2977   23.7611 H   0  0  0  0  0  0
  -15.8695  -28.0814   22.7036 H   0  0  0  0  0  0
  -24.5929  -30.7024   25.7753 H   0  0  0  0  0  0
  -24.8880  -32.2890   26.4772 H   0  0  0  0  0  0
  -25.8065  -30.8973   27.0208 H   0  0  0  0  0  0
  -26.2877  -29.6768   24.1137 H   0  0  0  0  0  0
  -27.4054  -29.7233   25.4575 H   0  0  0  0  0  0
  -27.8735  -30.4288   23.9275 H   0  0  0  0  0  0
  -27.2590  -33.3601   26.2080 H   0  0  0  0  0  0
  -28.3869  -32.6921   25.0373 H   0  0  0  0  0  0
  -28.0666  -31.8447   26.5433 H   0  0  0  0  0  0
  -28.2556  -38.0144   24.7531 H   0  0  0  0  0  0
  -28.1134  -36.2670   24.6225 H   0  0  0  0  0  0
  -27.2324  -37.1388   25.8860 H   0  0  0  0  0  0
  -20.9401  -29.8779   21.6973 H   0  0  0  0  0  0
  -26.0141  -38.2823   24.1446 H   0  0  0  0  0  0
  -26.3547  -16.2354   24.9985 H   0  0  0  0  0  0
  -27.7440  -15.6931   24.0792 H   0  0  0  0  0  0
  -26.1466  -15.6628   23.3465 H   0  0  0  0  0  0
  -25.0207  -17.7369   22.6271 H   0  0  0  0  0  0
  -25.7117  -19.3331   22.9062 H   0  0  0  0  0  0
  -25.1140  -18.4061   24.2584 H   0  0  0  0  0  0
  -28.7916  -17.9552   24.7322 H   0  0  0  0  0  0
  -27.2881  -18.4530   25.5027 H   0  0  0  0  0  0
  -28.0099  -19.4694   24.2684 H   0  0  0  0  0  0
  -31.5334  -18.1934   19.8342 H   0  0  0  0  0  0
  -32.4465  -16.7917   19.4268 H   0  0  0  0  0  0
  -32.0365  -17.1197   21.1109 H   0  0  0  0  0  0
  -31.0735  -21.7001   22.0318 H   0  0  0  0  0  0
  -30.7370  -20.0031   21.9628 H   0  0  0  0  0  0
  -29.4518  -21.1277   22.3981 H   0  0  0  0  0  0
  -31.8288  -22.1334   19.7851 H   0  0  0  0  0  0
  -31.0323  -21.4364   18.3877 H   0  0  0  0  0  0
  -31.8878  -20.4313   19.5489 H   0  0  0  0  0  0
  -31.4873  -24.1453   19.9294 H   0  0  0  0  0  0
  -30.6194  -25.5712   19.5251 H   0  0  0  0  0  0
  -30.4735  -24.1748   18.4775 H   0  0  0  0  0  0
  -30.5622  -23.7675   22.1245 H   0  0  0  0  0  0
  -28.8221  -23.7744   22.4460 H   0  0  0  0  0  0
  -29.6778  -25.2650   22.0771 H   0  0  0  0  0  0
  -28.0236  -22.2236   20.5177 H   0  0  0  0  0  0
  -28.7007  -22.4133   18.9506 H   0  0  0  0  0  0
  -29.9545  -19.3450   18.9269 H   0  0  0  0  0  0
  -28.3998  -19.9380   19.1474 H   0  0  0  0  0  0
  -27.2652  -24.7029   20.5364 H   0  0  0  0  0  0
  -27.8873  -24.8351   18.9125 H   0  0  0  0  0  0
  1 25  1  0  0  0
  1 30  2  0  0  0
  1 85  1  0  0  0
  2  3  1  0  0  0
  2 25  1  0  0  0
  2 95  1  0  0  0
  2 96  1  0  0  0
  3  4  1  0  0  0
  3 97  1  0  0  0
  3 98  1  0  0  0
  4  5  1  0  0  0
  4 99  1  0  0  0
  4100  1  0  0  0
  5  6  1  0  0  0
  5 26  1  0  0  0
  5101  1  0  0  0
  6 25  1  0  0  0
  6102  1  0  0  0
  6103  1  0  0  0
  7  8  2  0  0  0
  7 26  1  0  0  0
  7 29  1  0  0  0
  8  9  1  0  0  0
  8 22  1  0  0  0
  9 10  1  0  0  0
  9 27  2  0  0  0
 10 11  2  0  0  0
 10 15  1  0  0  0
 11 12  1  0  0  0
 11104  1  0  0  0
 12 13  2  0  0  0
 12105  1  0  0  0
 13 14  1  0  0  0
 13 31  1  0  0  0
 14 15  2  0  0  0
 14106  1  0  0  0
 15107  1  0  0  0
 16 17  2  0  0  0
 16 21  1  0  0  0
 16 31  1  0  0  0
 17 18  1  0  0  0
 17108  1  0  0  0
 18 19  2  0  0  0
 18109  1  0  0  0
 19 20  1  0  0  0
 19 24  1  0  0  0
 20 21  2  0  0  0
 20110  1  0  0  0
 21 23  1  0  0  0
 22 28  1  0  0  0
 22 32  2  0  0  0
 26 27  1  0  0  0
 28111  1  0  0  0
 28112  1  0  0  0
 29113  1  0  0  0
 29114  1  0  0  0
 33 34  1  0  0  0
 33 66  1  0  0  0
 33 70  2  0  0  0
 34 36  1  0  0  0
 34 59  1  0  0  0
 34115  1  0  0  0
 35 44  2  0  0  0
 35 45  1  0  0  0
 35 68  1  0  0  0
 36 56  1  0  0  0
 36116  1  0  0  0
 37 39  1  0  0  0
 37 47  1  0  0  0
 37 66  1  0  0  0
 37117  1  0  0  0
 38 43  2  0  0  0
 38 46  1  0  0  0
 38 47  1  0  0  0
 39 64  1  0  0  0
 39 67  2  0  0  0
 40 52  1  0  0  0
 40 53  2  0  0  0
 40 58  1  0  0  0
 41118  1  0  0  0
 41119  1  0  0  0
 41120  1  0  0  0
 41 48  1  0  0  0
 42 43  1  0  0  0
 42 66  1  0  0  0
 42121  1  0  0  0
 42122  1  0  0  0
 43 44  1  0  0  0
 44123  1  0  0  0
 45 46  2  0  0  0
 45124  1  0  0  0
 46125  1  0  0  0
 47126  1  0  0  0
 47127  1  0  0  0
 48 56  1  0  0  0
 48 65  1  0  0  0
 48128  1  0  0  0
 49 50  1  0  0  0
 49 53  1  0  0  0
 49 64  1  0  0  0
 49129  1  0  0  0
 50 51  1  0  0  0
 50130  1  0  0  0
 50131  1  0  0  0
 51 52  1  0  0  0
 51132  1  0  0  0
 51133  1  0  0  0
 52134  1  0  0  0
 52135  1  0  0  0
 53 54  1  0  0  0
 54 55  2  0  0  0
 54136  1  0  0  0
 55 57  1  0  0  0
 55137  1  0  0  0
 56 69  2  0  0  0
 57 58  2  0  0  0
 57138  1  0  0  0
 58139  1  0  0  0
 59 60  1  0  0  0
 59 61  1  0  0  0
 59 62  1  0  0  0
 60140  1  0  0  0
 60141  1  0  0  0
 60142  1  0  0  0
 61143  1  0  0  0
 61144  1  0  0  0
 61145  1  0  0  0
 62146  1  0  0  0
 62147  1  0  0  0
 62148  1  0  0  0
 63 65  1  0  0  0
 63149  1  0  0  0
 63150  1  0  0  0
 63151  1  0  0  0
 64152  1  0  0  0
 65153  1  0  0  0
 68 83  1  0  0  0
 71 84  1  0  0  0
 71 89  1  0  0  0
 71 90  2  0  0  0
 72 85  1  0  0  0
 72 89  2  0  0  0
 72 91  1  0  0  0
 73154  1  0  0  0
 73155  1  0  0  0
 73156  1  0  0  0
 73 84  1  0  0  0
 74 84  1  0  0  0
 74157  1  0  0  0
 74158  1  0  0  0
 74159  1  0  0  0
 75 84  1  0  0  0
 75160  1  0  0  0
 75161  1  0  0  0
 75162  1  0  0  0
 76163  1  0  0  0
 76164  1  0  0  0
 76165  1  0  0  0
 76 85  1  0  0  0
 77166  1  0  0  0
 77167  1  0  0  0
 77168  1  0  0  0
 77 86  1  0  0  0
 78 86  1  0  0  0
 78169  1  0  0  0
 78170  1  0  0  0
 78171  1  0  0  0
 79172  1  0  0  0
 79173  1  0  0  0
 79174  1  0  0  0
 79 87  1  0  0  0
 80 87  1  0  0  0
 80175  1  0  0  0
 80176  1  0  0  0
 80177  1  0  0  0
 81 86  1  0  0  0
 81 87  1  0  0  0
 81178  1  0  0  0
 81179  1  0  0  0
 82 86  1  0  0  0
 82 91  1  0  0  0
 82180  1  0  0  0
 82181  1  0  0  0
 83 87  1  0  0  0
 83182  1  0  0  0
 83183  1  0  0  0
 85 88  1  0  0  0
 88 92  1  0  0  0
 88 93  1  0  0  0
 88 94  1  0  0  0
 90 91  1  0  0  0
M  ISO  4   1 100  68 101  83 101  85 100
M  END
> <chiral flag>
0

> <version>
0

> <s_m_source_file>
/data/baiqing/PycharmProjects/Reinvent-master-3.2/result/LINK_invent/BTK/process_docking_weight1_custom_sum_contain_oxygen_bond_distance_aromatic_linkinvent_7_9_3/rearranged_h_0067.sdf

> <i_m_source_file_index>
86

> <r_mmod_Potential_Energy-OPLS-2005>
459.948852539062

> <r_mmod_Stretch_Energy-OPLS-2005>
148.636657714844

> <r_mmod_Bend_Energy-OPLS-2005>
261.050415039062

> <r_mmod_Torsional_Energy-OPLS-2005>
242.214630126953

> <r_mmod_Improper_Torsional_Energy-OPLS-2005>
15.9620637893677

> <r_mmod_Van_der_Waal_Energy-OPLS-2005>
137.781539916992

> <r_mmod_Electrostatic_Energy-OPLS-2005>
-291.783935546875

> <r_mmod_Solvation_Energy-OPLS-2005>
-161.235046386719

> <b_mmod_Minimization_Converged-OPLS-2005>
0

> <r_mmod_RMS_Derivative-OPLS-2005>
6.54041910171509

$$$$
89
                    3D
 Structure written by MMmdl.
176184  0  0  1  0            999 V2000
  -30.7654  -14.6386   20.3947 C   0  0  0  0  0  0
  -30.4049  -12.3803   19.4540 C   0  0  0  0  0  0
  -29.4867  -12.4309   18.2186 C   0  0  0  0  0  0
  -28.0175  -12.2509   18.6459 C   0  0  0  0  0  0
  -27.6160  -13.1819   19.8126 C   0  0  2  0  0  0
  -28.6843  -13.2347   20.9344 C   0  0  0  0  0  0
  -25.2500  -13.8062   20.5728 C   0  0  0  0  0  0
  -24.1769  -13.0405   20.9273 C   0  0  0  0  0  0
  -24.6309  -11.6857   20.8853 C   0  0  0  0  0  0
  -23.8974  -10.4293   21.0475 C   0  0  0  0  0  0
  -24.3574   -9.4172   21.9179 C   0  0  0  0  0  0
  -23.6265   -8.2197   22.0733 C   0  0  0  0  0  0
  -22.4244   -8.0260   21.3510 C   0  0  0  0  0  0
  -21.9880   -9.0252   20.4624 C   0  0  0  0  0  0
  -22.7185  -10.2140   20.3056 C   0  0  0  0  0  0
  -21.6832   -6.0734   22.5246 C   0  0  0  0  0  0
  -21.4011   -6.5658   23.8187 C   0  0  0  0  0  0
  -21.3634   -5.6826   24.9168 C   0  0  0  0  0  0
  -21.6040   -4.3092   24.7244 C   0  0  0  0  0  0
  -21.8820   -3.8164   23.4366 C   0  0  0  0  0  0
  -21.9191   -4.6961   22.3400 C   0  0  0  0  0  0
  -22.7806  -13.5235   21.1904 C   0  0  0  0  0  0
  -22.1643   -4.2134   21.0990 F   0  0  0  0  0  0
  -21.5630   -3.4591   25.7779 F   0  0  0  0  0  0
  -30.0051  -13.4929   20.3433 N   0  0  0  0  0  0
  -26.2823  -12.9143   20.3238 N   0  0  0  0  0  0
  -25.9209  -11.6366   20.5805 N   0  0  0  0  0  0
  -22.0377  -12.8344   22.0474 N   0  0  0  0  0  0
  -25.4254  -15.1812   20.4155 N   0  0  0  0  0  0
  -31.9848  -14.5246   20.3026 O   0  0  0  0  0  0
  -21.6621   -6.8848   21.4194 O   0  0  0  0  0  0
  -22.3539  -14.5528   20.6673 O   0  0  0  0  0  0
  -24.6186  -31.8655   23.2090 C   0  0  0  0  0  0
  -25.9054  -32.4799   23.8396 C   0  0  1  0  0  0
  -27.2305  -27.3954   20.1071 C   0  0  0  0  0  0
  -25.5886  -33.8587   24.2320 N   0  0  0  0  0  0
  -23.4080  -30.4887   21.5544 C   0  0  2  0  0  0
  -24.8504  -28.9568   20.1145 C   0  0  0  0  0  0
  -22.7445  -29.4635   22.5015 C   0  0  0  0  0  0
  -18.0265  -28.1368   22.8486 C   0  0  0  0  0  0
  -24.1485  -36.7312   23.2636 C   0  0  0  0  0  0
  -25.9414  -30.8197   21.3652 C   0  0  0  0  0  0
  -26.0140  -29.4509   20.7146 C   0  0  0  0  0  0
  -27.2035  -28.6799   20.7061 C   0  0  0  0  0  0
  -26.0502  -26.9432   19.4674 C   0  0  0  0  0  0
  -24.8660  -27.7045   19.4835 C   0  0  0  0  0  0
  -23.6138  -29.8247   20.1686 C   0  0  0  0  0  0
  -25.4088  -36.3081   24.0351 C   0  0  1  0  0  0
  -20.5870  -28.3653   23.1312 C   0  0  2  0  0  0
  -20.6748  -26.9385   22.5430 C   0  0  0  0  0  0
  -19.5729  -26.6382   21.5216 C   0  0  0  0  0  0
  -18.1901  -26.7914   22.1635 C   0  0  0  0  0  0
  -19.1520  -28.8832   23.2893 C   0  0  0  0  0  0
  -18.9438  -30.1432   23.8930 C   0  0  0  0  0  0
  -17.6436  -30.6581   24.0552 C   0  0  0  0  0  0
  -25.9032  -34.9450   23.5140 C   0  0  0  0  0  0
  -16.5327  -29.9084   23.6300 C   0  0  0  0  0  0
  -16.7252  -28.6486   23.0347 C   0  0  0  0  0  0
  -26.4467  -31.6573   25.0719 C   0  0  0  0  0  0
  -25.3744  -31.3660   26.1482 C   0  0  0  0  0  0
  -27.0258  -30.3010   24.6076 C   0  0  0  0  0  0
  -27.6067  -32.4270   25.7450 C   0  0  0  0  0  0
  -27.5581  -37.1802   24.8467 C   0  0  0  0  0  0
  -21.4169  -29.3028   22.3749 N   0  0  0  0  0  0
  -26.4281  -37.3778   23.9415 N   0  0  0  0  0  0
  -24.6755  -31.0730   22.1006 N   0  0  0  0  0  0
  -23.4182  -28.8178   23.3089 O   0  0  0  0  0  0
  -28.3990  -26.6389   20.1643 O   0  0  0  0  0  0
  -26.5608  -34.8919   22.4713 O   0  0  0  0  0  0
  -23.5369  -32.1430   23.7439 O   0  0  0  0  0  0
  -26.3846  -21.6582   21.7377 C   0  0  0  0  0  0
  -27.1411  -20.5228   22.0361 C   0  0  0  0  0  0
  -28.5477  -20.6758   21.9924 C   0  0  0  0  0  0
  -28.2649  -22.9606   21.5138 C   0  0  0  0  0  0
  -29.1029  -24.7488   18.8519 C   0  0  0  0  0  0
  -30.3291  -24.5247   21.5990 C   0  0  0  0  0  0
  -28.1857  -25.2014   22.6458 C   0  0  0  0  0  0
  -31.2346  -16.7907   19.1192 C   0  0  0  0  0  0
  -28.8995  -16.1776   19.4142 C   0  0  0  0  0  0
  -31.5008  -17.2197   22.0932 C   0  0  0  0  0  0
  -29.5155  -19.4872   22.2564 C   0  0  0  0  0  0
  -29.4500  -18.3465   21.1810 C   0  0  0  0  0  0
  -28.3325  -25.1797   20.1148 C   0  0  1  0  0  0
  -26.3696  -19.2422   22.3484 C   0  0  0  0  0  0
  -28.7894  -24.4430   21.4399 C   0  0  0  0  0  0
  -30.2496  -16.1459   20.1571 C   0  0  0  0  0  0
  -26.9410  -22.8517   21.4857 N   0  0  0  0  0  0
  -29.0882  -21.9116   21.7327 N   0  0  0  0  0  0
  -30.1930  -17.0355   21.4016 N   0  3  1  0  0  0
  -27.0732  -18.3548   23.0450 F   0  0  0  0  0  0
  -25.2791  -19.5222   23.0596 F   0  0  0  0  0  0
  -25.9917  -18.6862   21.1987 F   0  0  0  0  0  0
  -31.4487  -12.4331   19.1397 H   0  0  0  0  0  0
  -30.2970  -11.4249   19.9696 H   0  0  0  0  0  0
  -29.7627  -11.6408   17.5191 H   0  0  0  0  0  0
  -29.6181  -13.3677   17.6761 H   0  0  0  0  0  0
  -27.8860  -11.2120   18.9488 H   0  0  0  0  0  0
  -27.3551  -12.3936   17.7919 H   0  0  0  0  0  0
  -27.5163  -14.1310   19.3194 H   0  0  0  0  0  0
  -28.7065  -12.2911   21.4817 H   0  0  0  0  0  0
  -28.4378  -14.0143   21.6555 H   0  0  0  0  0  0
  -25.2760   -9.5686   22.4659 H   0  0  0  0  0  0
  -24.0009   -7.4600   22.7454 H   0  0  0  0  0  0
  -21.0799   -8.8737   19.8949 H   0  0  0  0  0  0
  -22.3652  -10.9655   19.6119 H   0  0  0  0  0  0
  -21.1979   -7.6173   23.9678 H   0  0  0  0  0  0
  -21.1436   -6.0590   25.9055 H   0  0  0  0  0  0
  -22.0611   -2.7624   23.2894 H   0  0  0  0  0  0
  -21.1061  -13.1547   22.2720 H   0  0  0  0  0  0
  -22.3857  -12.0003   22.4982 H   0  0  0  0  0  0
  -24.6534  -15.8237   20.5593 H   0  0  0  0  0  0
  -26.2564  -15.6347   20.0608 H   0  0  0  0  0  0
  -26.7114  -32.5493   23.1142 H   0  0  0  0  0  0
  -24.9945  -33.9728   25.0407 H   0  0  0  0  0  0
  -22.7000  -31.3081   21.4181 H   0  0  0  0  0  0
  -23.3740  -35.9662   23.3300 H   0  0  0  0  0  0
  -24.3603  -36.8913   22.2055 H   0  0  0  0  0  0
  -23.7246  -37.6526   23.6644 H   0  0  0  0  0  0
  -26.0571  -31.5787   20.5885 H   0  0  0  0  0  0
  -26.8286  -30.8710   21.9847 H   0  0  0  0  0  0
  -28.0991  -29.0589   21.1783 H   0  0  0  0  0  0
  -26.0074  -26.0060   18.9336 H   0  0  0  0  0  0
  -23.9766  -27.3269   18.9976 H   0  0  0  0  0  0
  -23.7176  -30.5979   19.4072 H   0  0  0  0  0  0
  -22.7341  -29.2452   19.8809 H   0  0  0  0  0  0
  -25.1266  -36.1955   25.0851 H   0  0  0  0  0  0
  -20.9938  -28.3215   24.1441 H   0  0  0  0  0  0
  -20.5603  -26.2277   23.3621 H   0  0  0  0  0  0
  -21.6611  -26.7395   22.1252 H   0  0  0  0  0  0
  -19.6883  -25.6303   21.1204 H   0  0  0  0  0  0
  -19.6652  -27.3228   20.6763 H   0  0  0  0  0  0
  -17.4171  -26.6650   21.4038 H   0  0  0  0  0  0
  -18.0310  -26.0061   22.9034 H   0  0  0  0  0  0
  -19.7909  -30.7215   24.2347 H   0  0  0  0  0  0
  -17.4986  -31.6252   24.5150 H   0  0  0  0  0  0
  -15.5331  -30.2984   23.7597 H   0  0  0  0  0  0
  -15.8651  -28.0786   22.7084 H   0  0  0  0  0  0
  -24.5927  -30.6984   25.7827 H   0  0  0  0  0  0
  -24.8932  -32.2804   26.4962 H   0  0  0  0  0  0
  -25.8123  -30.8806   27.0210 H   0  0  0  0  0  0
  -26.2797  -29.6864   24.1024 H   0  0  0  0  0  0
  -27.3909  -29.7143   25.4513 H   0  0  0  0  0  0
  -27.8698  -30.4330   23.9301 H   0  0  0  0  0  0
  -27.2705  -33.3554   26.2075 H   0  0  0  0  0  0
  -28.3825  -32.6848   25.0227 H   0  0  0  0  0  0
  -28.0803  -31.8355   26.5303 H   0  0  0  0  0  0
  -28.2584  -38.0109   24.7488 H   0  0  0  0  0  0
  -28.1083  -36.2632   24.6301 H   0  0  0  0  0  0
  -27.2319  -37.1468   25.8879 H   0  0  0  0  0  0
  -20.9364  -29.8749   21.6951 H   0  0  0  0  0  0
  -26.0178  -38.2861   24.1414 H   0  0  0  0  0  0
  -25.3067  -21.6094   21.6968 H   0  0  0  0  0  0
  -30.1398  -25.0843   18.8709 H   0  0  0  0  0  0
  -28.6462  -25.1796   17.9622 H   0  0  0  0  0  0
  -29.0942  -23.6644   18.7330 H   0  0  0  0  0  0
  -30.6465  -24.1526   22.5741 H   0  0  0  0  0  0
  -30.6814  -25.5559   21.5150 H   0  0  0  0  0  0
  -30.8499  -23.9334   20.8451 H   0  0  0  0  0  0
  -28.3905  -24.6851   23.5822 H   0  0  0  0  0  0
  -27.1032  -25.2997   22.5449 H   0  0  0  0  0  0
  -28.5849  -26.2108   22.7315 H   0  0  0  0  0  0
  -30.9206  -17.7678   18.7589 H   0  0  0  0  0  0
  -31.3171  -16.1659   18.2283 H   0  0  0  0  0  0
  -32.2476  -16.9104   19.5006 H   0  0  0  0  0  0
  -28.6774  -17.1464   18.9674 H   0  0  0  0  0  0
  -28.0798  -15.9557   20.0913 H   0  0  0  0  0  0
  -28.9064  -15.4906   18.5674 H   0  0  0  0  0  0
  -31.3531  -17.6726   23.0732 H   0  0  0  0  0  0
  -32.1818  -17.8598   21.5333 H   0  0  0  0  0  0
  -32.0093  -16.2763   22.2833 H   0  0  0  0  0  0
  -29.3244  -19.0917   23.2532 H   0  0  0  0  0  0
  -30.5301  -19.8848   22.2988 H   0  0  0  0  0  0
  -28.4047  -18.0916   21.0343 H   0  0  0  0  0  0
  -29.7630  -18.8078   20.2503 H   0  0  0  0  0  0
  -27.3064  -24.8582   19.9766 H   0  0  0  0  0  0
  -29.6415  -16.5164   22.0693 H   0  0  0  0  0  0
  1 25  1  0  0  0
  1 30  2  0  0  0
  1 86  1  0  0  0
  2  3  1  0  0  0
  2 25  1  0  0  0
  2 93  1  0  0  0
  2 94  1  0  0  0
  3  4  1  0  0  0
  3 95  1  0  0  0
  3 96  1  0  0  0
  4  5  1  0  0  0
  4 97  1  0  0  0
  4 98  1  0  0  0
  5  6  1  0  0  0
  5 26  1  0  0  0
  5 99  1  0  0  0
  6 25  1  0  0  0
  6100  1  0  0  0
  6101  1  0  0  0
  7  8  2  0  0  0
  7 26  1  0  0  0
  7 29  1  0  0  0
  8  9  1  0  0  0
  8 22  1  0  0  0
  9 10  1  0  0  0
  9 27  2  0  0  0
 10 11  2  0  0  0
 10 15  1  0  0  0
 11 12  1  0  0  0
 11102  1  0  0  0
 12 13  2  0  0  0
 12103  1  0  0  0
 13 14  1  0  0  0
 13 31  1  0  0  0
 14 15  2  0  0  0
 14104  1  0  0  0
 15105  1  0  0  0
 16 17  2  0  0  0
 16 21  1  0  0  0
 16 31  1  0  0  0
 17 18  1  0  0  0
 17106  1  0  0  0
 18 19  2  0  0  0
 18107  1  0  0  0
 19 20  1  0  0  0
 19 24  1  0  0  0
 20 21  2  0  0  0
 20108  1  0  0  0
 21 23  1  0  0  0
 22 28  1  0  0  0
 22 32  2  0  0  0
 26 27  1  0  0  0
 28109  1  0  0  0
 28110  1  0  0  0
 29111  1  0  0  0
 29112  1  0  0  0
 33 34  1  0  0  0
 33 66  1  0  0  0
 33 70  2  0  0  0
 34 36  1  0  0  0
 34 59  1  0  0  0
 34113  1  0  0  0
 35 44  2  0  0  0
 35 45  1  0  0  0
 35 68  1  0  0  0
 36 56  1  0  0  0
 36114  1  0  0  0
 37 39  1  0  0  0
 37 47  1  0  0  0
 37 66  1  0  0  0
 37115  1  0  0  0
 38 43  2  0  0  0
 38 46  1  0  0  0
 38 47  1  0  0  0
 39 64  1  0  0  0
 39 67  2  0  0  0
 40 52  1  0  0  0
 40 53  2  0  0  0
 40 58  1  0  0  0
 41116  1  0  0  0
 41117  1  0  0  0
 41118  1  0  0  0
 41 48  1  0  0  0
 42 43  1  0  0  0
 42 66  1  0  0  0
 42119  1  0  0  0
 42120  1  0  0  0
 43 44  1  0  0  0
 44121  1  0  0  0
 45 46  2  0  0  0
 45122  1  0  0  0
 46123  1  0  0  0
 47124  1  0  0  0
 47125  1  0  0  0
 48 56  1  0  0  0
 48 65  1  0  0  0
 48126  1  0  0  0
 49 50  1  0  0  0
 49 53  1  0  0  0
 49 64  1  0  0  0
 49127  1  0  0  0
 50 51  1  0  0  0
 50128  1  0  0  0
 50129  1  0  0  0
 51 52  1  0  0  0
 51130  1  0  0  0
 51131  1  0  0  0
 52132  1  0  0  0
 52133  1  0  0  0
 53 54  1  0  0  0
 54 55  2  0  0  0
 54134  1  0  0  0
 55 57  1  0  0  0
 55135  1  0  0  0
 56 69  2  0  0  0
 57 58  2  0  0  0
 57136  1  0  0  0
 58137  1  0  0  0
 59 60  1  0  0  0
 59 61  1  0  0  0
 59 62  1  0  0  0
 60138  1  0  0  0
 60139  1  0  0  0
 60140  1  0  0  0
 61141  1  0  0  0
 61142  1  0  0  0
 61143  1  0  0  0
 62144  1  0  0  0
 62145  1  0  0  0
 62146  1  0  0  0
 63 65  1  0  0  0
 63147  1  0  0  0
 63148  1  0  0  0
 63149  1  0  0  0
 64150  1  0  0  0
 65151  1  0  0  0
 68 83  1  0  0  0
 71 72  2  0  0  0
 71 87  1  0  0  0
 71152  1  0  0  0
 72 73  1  0  0  0
 72 84  1  0  0  0
 73 81  1  0  0  0
 73 88  2  0  0  0
 74 85  1  0  0  0
 74 87  2  0  0  0
 74 88  1  0  0  0
 75153  1  0  0  0
 75154  1  0  0  0
 75155  1  0  0  0
 75 83  1  0  0  0
 76156  1  0  0  0
 76157  1  0  0  0
 76158  1  0  0  0
 76 85  1  0  0  0
 77 85  1  0  0  0
 77159  1  0  0  0
 77160  1  0  0  0
 77161  1  0  0  0
 78162  1  0  0  0
 78163  1  0  0  0
 78164  1  0  0  0
 78 86  1  0  0  0
 79 86  1  0  0  0
 79165  1  0  0  0
 79166  1  0  0  0
 79167  1  0  0  0
 80168  1  0  0  0
 80169  1  0  0  0
 80170  1  0  0  0
 80 89  1  0  0  0
 81 82  1  0  0  0
 81171  1  0  0  0
 81172  1  0  0  0
 82 89  1  0  0  0
 82173  1  0  0  0
 82174  1  0  0  0
 83 85  1  0  0  0
 83175  1  0  0  0
 84 90  1  0  0  0
 84 91  1  0  0  0
 84 92  1  0  0  0
 86 89  1  0  0  0
 89176  1  0  0  0
M  CHG  1  89   1
M  ISO  4   1 100  68 101  83 101  86 100
M  END
> <chiral flag>
0

> <version>
0

> <s_m_source_file>
/data/baiqing/PycharmProjects/Reinvent-master-3.2/result/LINK_invent/BTK/process_docking_weight1_custom_sum_contain_oxygen_bond_distance_aromatic_linkinvent_7_9_3/rearranged_h_0067.sdf

> <i_m_source_file_index>
87

> <r_mmod_Potential_Energy-OPLS-2005>
-284.628143310547

> <r_mmod_Stretch_Energy-OPLS-2005>
79.487060546875

> <r_mmod_Bend_Energy-OPLS-2005>
172.978515625

> <r_mmod_Torsional_Energy-OPLS-2005>
235.15022277832

> <r_mmod_Improper_Torsional_Energy-OPLS-2005>
10.0619478225708

> <r_mmod_Van_der_Waal_Energy-OPLS-2005>
193.018280029297

> <r_mmod_Electrostatic_Energy-OPLS-2005>
-616.471313476562

> <r_mmod_Solvation_Energy-OPLS-2005>
-423.731475830078

> <b_mmod_Minimization_Converged-OPLS-2005>
0

> <r_mmod_RMS_Derivative-OPLS-2005>
4.69002056121826

$$$$
90
                    3D
 Structure written by MMmdl.
164172  0  0  1  0            999 V2000
  -30.1179  -16.0826   20.3379 C   0  0  0  0  0  0
  -30.3866  -13.4393   19.5434 C   0  0  0  0  0  0
  -29.5805  -12.8094   18.3575 C   0  0  0  0  0  0
  -28.1838  -12.3550   18.8046 C   0  0  0  0  0  0
  -27.5844  -13.3622   19.8120 C   0  0  2  0  0  0
  -28.5651  -13.8648   20.9062 C   0  0  0  0  0  0
  -25.2285  -13.8335   20.5987 C   0  0  0  0  0  0
  -24.1677  -13.0425   20.9311 C   0  0  0  0  0  0
  -24.6425  -11.6946   20.8655 C   0  0  0  0  0  0
  -23.9094  -10.4266   21.0244 C   0  0  0  0  0  0
  -24.3617   -9.4201   21.9060 C   0  0  0  0  0  0
  -23.6300   -8.2219   22.0706 C   0  0  0  0  0  0
  -22.4256   -8.0221   21.3521 C   0  0  0  0  0  0
  -21.9867   -9.0193   20.4610 C   0  0  0  0  0  0
  -22.7223  -10.2070   20.2981 C   0  0  0  0  0  0
  -21.6858   -6.0660   22.5247 C   0  0  0  0  0  0
  -21.4014   -6.5585   23.8179 C   0  0  0  0  0  0
  -21.3691   -5.6753   24.9130 C   0  0  0  0  0  0
  -21.6055   -4.3021   24.7198 C   0  0  0  0  0  0
  -21.8842   -3.8086   23.4326 C   0  0  0  0  0  0
  -21.9182   -4.6911   22.3373 C   0  0  0  0  0  0
  -22.7675  -13.5129   21.1886 C   0  0  0  0  0  0
  -22.1689   -4.2095   21.0953 F   0  0  0  0  0  0
  -21.5633   -3.4526   25.7721 F   0  0  0  0  0  0
  -29.6507  -14.6427   20.2213 N   0  0  0  0  0  0
  -26.2786  -12.9748   20.3297 N   0  0  0  0  0  0
  -25.9423  -11.6748   20.5604 N   0  0  0  0  0  0
  -22.0302  -12.8148   22.0429 N   0  0  0  0  0  0
  -25.3824  -15.2103   20.4613 N   0  0  0  0  0  0
  -31.3648  -15.9468   20.2749 O   0  0  0  0  0  0
  -21.6620   -6.8818   21.4227 O   0  0  0  0  0  0
  -22.3349  -14.5451   20.6726 O   0  0  0  0  0  0
  -24.7172  -31.7700   23.1354 C   0  0  0  0  0  0
  -25.9629  -32.4299   23.7992 C   0  0  1  0  0  0
  -27.2192  -26.3795   20.3021 C   0  0  0  0  0  0
  -25.6079  -33.8158   24.1838 N   0  0  0  0  0  0
  -23.5528  -30.3601   21.5031 C   0  0  2  0  0  0
  -25.0123  -28.6345   20.1570 C   0  0  0  0  0  0
  -22.7917  -29.4136   22.4725 C   0  0  0  0  0  0
  -18.0348  -28.1451   22.8402 C   0  0  0  0  0  0
  -24.1528  -36.7050   23.2595 C   0  0  0  0  0  0
  -26.1471  -30.3992   21.4542 C   0  0  0  0  0  0
  -26.2050  -28.9220   20.8283 C   0  0  0  0  0  0
  -27.2869  -27.8402   20.8500 C   0  0  0  0  0  0
  -25.9951  -26.3896   19.5577 C   0  0  0  0  0  0
  -24.9660  -27.3955   19.4905 C   0  0  0  0  0  0
  -23.8291  -29.6351   20.1507 C   0  0  0  0  0  0
  -25.4173  -36.2773   24.0231 C   0  0  1  0  0  0
  -20.5993  -28.3819   23.1128 C   0  0  2  0  0  0
  -20.6819  -26.9456   22.5446 C   0  0  0  0  0  0
  -19.5817  -26.6387   21.5229 C   0  0  0  0  0  0
  -18.1989  -26.7965   22.1600 C   0  0  0  0  0  0
  -19.1615  -28.8976   23.2711 C   0  0  0  0  0  0
  -18.9508  -30.1574   23.8783 C   0  0  0  0  0  0
  -17.6471  -30.6616   24.0563 C   0  0  0  0  0  0
  -25.9200  -34.9180   23.4895 C   0  0  0  0  0  0
  -16.5384  -29.9078   23.6345 C   0  0  0  0  0  0
  -16.7334  -28.6535   23.0317 C   0  0  0  0  0  0
  -26.4697  -31.6444   25.0736 C   0  0  0  0  0  0
  -25.3676  -31.3861   26.1296 C   0  0  0  0  0  0
  -27.0626  -30.2738   24.6801 C   0  0  0  0  0  0
  -27.6170  -32.4294   25.7501 C   0  0  0  0  0  0
  -27.5665  -37.1562   24.8345 C   0  0  0  0  0  0
  -21.4562  -29.2989   22.3423 N   0  0  0  0  0  0
  -26.4199  -37.3656   23.9524 N   0  0  0  0  0  0
  -24.8308  -30.8813   22.0799 N   0  0  0  0  0  0
  -23.4213  -28.7783   23.3212 O   0  0  0  0  0  0
  -28.1618  -25.0464   20.1314 O   0  0  0  0  0  0
  -26.5888  -34.8799   22.4524 O   0  0  0  0  0  0
  -23.6127  -32.0937   23.6089 O   0  0  0  0  0  0
  -31.7284  -23.0687   20.1230 C   0  0  0  0  0  0
  -30.8240  -23.8976   20.8298 C   0  0  0  0  0  0
  -32.4036  -24.9114   18.9569 C   0  0  0  0  0  0
  -33.1402  -25.5168   17.7793 C   0  0  0  0  0  0
  -30.8716  -24.0851   23.8381 C   0  0  0  0  0  0
  -28.8165  -22.7088   23.9712 C   0  0  0  0  0  0
  -28.6312  -25.1044   23.3008 C   0  0  0  0  0  0
  -29.3794  -19.4842   20.6119 C   0  0  0  0  0  0
  -28.5857  -21.4255   20.1881 C   0  0  0  0  0  0
  -29.6640  -23.3135   21.6528 C   0  0  1  0  0  0
  -29.4967  -23.8248   23.1504 C   0  0  0  0  0  0
  -32.5324  -23.5967   19.1640 N   0  0  0  0  0  0
  -30.8372  -25.2395   20.6164 N   0  0  0  0  0  0
  -31.6278  -25.7509   19.6613 N   0  0  0  0  0  0
  -29.3590  -17.5636   20.3544 N   0  0  0  0  0  0
  -28.4281  -23.1736   20.8384 N   0  0  0  0  0  0
  -31.3420  -13.7837   19.1406 H   0  0  0  0  0  0
  -30.6657  -12.6781   20.2734 H   0  0  0  0  0  0
  -30.1343  -11.9848   17.9039 H   0  0  0  0  0  0
  -29.4928  -13.5610   17.5737 H   0  0  0  0  0  0
  -28.2723  -11.3787   19.2794 H   0  0  0  0  0  0
  -27.5319  -12.2298   17.9400 H   0  0  0  0  0  0
  -27.3854  -14.2340   19.1845 H   0  0  0  0  0  0
  -28.9358  -13.0452   21.5239 H   0  0  0  0  0  0
  -28.0421  -14.5346   21.5939 H   0  0  0  0  0  0
  -25.2732   -9.5736   22.4655 H   0  0  0  0  0  0
  -23.9989   -7.4663   22.7529 H   0  0  0  0  0  0
  -21.0743   -8.8686   19.9008 H   0  0  0  0  0  0
  -22.3579  -10.9561   19.6104 H   0  0  0  0  0  0
  -21.1992   -7.6102   23.9650 H   0  0  0  0  0  0
  -21.1549   -6.0472   25.9036 H   0  0  0  0  0  0
  -22.0591   -2.7563   23.2818 H   0  0  0  0  0  0
  -22.3926  -11.9904   22.4969 H   0  0  0  0  0  0
  -21.0918  -13.1219   22.2558 H   0  0  0  0  0  0
  -24.6109  -15.8505   20.5957 H   0  0  0  0  0  0
  -26.2229  -15.6664   20.1294 H   0  0  0  0  0  0
  -26.7730  -32.4714   23.0706 H   0  0  0  0  0  0
  -25.0111  -33.9212   24.9909 H   0  0  0  0  0  0
  -22.8923  -31.2051   21.2953 H   0  0  0  0  0  0
  -23.3962  -35.9188   23.2801 H   0  0  0  0  0  0
  -24.3696  -36.9215   22.2128 H   0  0  0  0  0  0
  -23.7050  -37.5952   23.7000 H   0  0  0  0  0  0
  -26.3869  -31.0942   20.6500 H   0  0  0  0  0  0
  -26.9879  -30.4848   22.1252 H   0  0  0  0  0  0
  -28.2071  -28.0991   21.3574 H   0  0  0  0  0  0
  -25.7890  -25.4819   19.0055 H   0  0  0  0  0  0
  -24.0877  -27.1677   18.9027 H   0  0  0  0  0  0
  -24.0471  -30.3934   19.3949 H   0  0  0  0  0  0
  -22.9262  -29.1310   19.8013 H   0  0  0  0  0  0
  -25.1332  -36.1410   25.0695 H   0  0  0  0  0  0
  -21.0029  -28.3448   24.1263 H   0  0  0  0  0  0
  -20.5711  -26.2415   23.3714 H   0  0  0  0  0  0
  -21.6681  -26.7408   22.1255 H   0  0  0  0  0  0
  -19.6988  -25.6284   21.1312 H   0  0  0  0  0  0
  -19.6771  -27.3160   20.6725 H   0  0  0  0  0  0
  -17.4259  -26.6686   21.3999 H   0  0  0  0  0  0
  -18.0360  -26.0179   22.9070 H   0  0  0  0  0  0
  -19.7965  -30.7432   24.2068 H   0  0  0  0  0  0
  -17.5012  -31.6267   24.5227 H   0  0  0  0  0  0
  -15.5376  -30.2934   23.7779 H   0  0  0  0  0  0
  -15.8708  -28.0860   22.7006 H   0  0  0  0  0  0
  -24.5833  -30.7252   25.7557 H   0  0  0  0  0  0
  -24.8915  -32.3135   26.4510 H   0  0  0  0  0  0
  -25.7771  -30.9116   27.0224 H   0  0  0  0  0  0
  -26.3408  -29.6326   24.1733 H   0  0  0  0  0  0
  -27.3883  -29.7201   25.5616 H   0  0  0  0  0  0
  -27.9462  -30.3814   24.0505 H   0  0  0  0  0  0
  -27.2776  -33.3672   26.1901 H   0  0  0  0  0  0
  -28.4045  -32.6722   25.0346 H   0  0  0  0  0  0
  -28.0771  -31.8534   26.5547 H   0  0  0  0  0  0
  -28.2175  -38.0311   24.8074 H   0  0  0  0  0  0
  -28.1634  -36.2956   24.5275 H   0  0  0  0  0  0
  -27.2521  -37.0068   25.8689 H   0  0  0  0  0  0
  -20.9959  -29.8521   21.6327 H   0  0  0  0  0  0
  -25.9948  -38.2545   24.1969 H   0  0  0  0  0  0
  -31.7517  -21.9914   20.2360 H   0  0  0  0  0  0
  -33.0769  -24.8611   16.9111 H   0  0  0  0  0  0
  -34.1896  -25.6869   18.0235 H   0  0  0  0  0  0
  -32.6913  -26.4694   17.4834 H   0  0  0  0  0  0
  -30.7704  -24.2057   24.9212 H   0  0  0  0  0  0
  -31.3534  -24.9963   23.4732 H   0  0  0  0  0  0
  -31.5729  -23.2589   23.6884 H   0  0  0  0  0  0
  -28.7633  -22.9730   25.0314 H   0  0  0  0  0  0
  -29.3593  -21.7652   23.9041 H   0  0  0  0  0  0
  -27.7985  -22.5365   23.6248 H   0  0  0  0  0  0
  -28.3244  -25.2397   24.3425 H   0  0  0  0  0  0
  -27.7114  -25.0643   22.7181 H   0  0  0  0  0  0
  -29.1655  -26.0142   23.0131 H   0  0  0  0  0  0
  -29.2859  -19.4883   21.6965 H   0  0  0  0  0  0
  -30.4367  -19.6658   20.4477 H   0  0  0  0  0  0
  -27.5259  -21.1977   20.0646 H   0  0  0  0  0  0
  -28.9164  -21.5915   19.1620 H   0  0  0  0  0  0
  -30.0080  -22.2897   21.8150 H   0  0  0  0  0  0
  -28.3839  -17.3127   20.2748 H   0  0  0  0  0  0
  1 25  1  0  0  0
  1 30  2  0  0  0
  1 85  1  0  0  0
  2  3  1  0  0  0
  2 25  1  0  0  0
  2 87  1  0  0  0
  2 88  1  0  0  0
  3  4  1  0  0  0
  3 89  1  0  0  0
  3 90  1  0  0  0
  4  5  1  0  0  0
  4 91  1  0  0  0
  4 92  1  0  0  0
  5  6  1  0  0  0
  5 26  1  0  0  0
  5 93  1  0  0  0
  6 25  1  0  0  0
  6 94  1  0  0  0
  6 95  1  0  0  0
  7  8  2  0  0  0
  7 26  1  0  0  0
  7 29  1  0  0  0
  8  9  1  0  0  0
  8 22  1  0  0  0
  9 10  1  0  0  0
  9 27  2  0  0  0
 10 11  2  0  0  0
 10 15  1  0  0  0
 11 12  1  0  0  0
 11 96  1  0  0  0
 12 13  2  0  0  0
 12 97  1  0  0  0
 13 14  1  0  0  0
 13 31  1  0  0  0
 14 15  2  0  0  0
 14 98  1  0  0  0
 15 99  1  0  0  0
 16 17  2  0  0  0
 16 21  1  0  0  0
 16 31  1  0  0  0
 17 18  1  0  0  0
 17100  1  0  0  0
 18 19  2  0  0  0
 18101  1  0  0  0
 19 20  1  0  0  0
 19 24  1  0  0  0
 20 21  2  0  0  0
 20102  1  0  0  0
 21 23  1  0  0  0
 22 28  1  0  0  0
 22 32  2  0  0  0
 26 27  1  0  0  0
 28103  1  0  0  0
 28104  1  0  0  0
 29105  1  0  0  0
 29106  1  0  0  0
 33 34  1  0  0  0
 33 66  1  0  0  0
 33 70  2  0  0  0
 34 36  1  0  0  0
 34 59  1  0  0  0
 34107  1  0  0  0
 35 44  2  0  0  0
 35 45  1  0  0  0
 35 68  1  0  0  0
 36 56  1  0  0  0
 36108  1  0  0  0
 37 39  1  0  0  0
 37 47  1  0  0  0
 37 66  1  0  0  0
 37109  1  0  0  0
 38 43  2  0  0  0
 38 46  1  0  0  0
 38 47  1  0  0  0
 39 64  1  0  0  0
 39 67  2  0  0  0
 40 52  1  0  0  0
 40 53  2  0  0  0
 40 58  1  0  0  0
 41110  1  0  0  0
 41111  1  0  0  0
 41112  1  0  0  0
 41 48  1  0  0  0
 42 43  1  0  0  0
 42 66  1  0  0  0
 42113  1  0  0  0
 42114  1  0  0  0
 43 44  1  0  0  0
 44115  1  0  0  0
 45 46  2  0  0  0
 45116  1  0  0  0
 46117  1  0  0  0
 47118  1  0  0  0
 47119  1  0  0  0
 48 56  1  0  0  0
 48 65  1  0  0  0
 48120  1  0  0  0
 49 50  1  0  0  0
 49 53  1  0  0  0
 49 64  1  0  0  0
 49121  1  0  0  0
 50 51  1  0  0  0
 50122  1  0  0  0
 50123  1  0  0  0
 51 52  1  0  0  0
 51124  1  0  0  0
 51125  1  0  0  0
 52126  1  0  0  0
 52127  1  0  0  0
 53 54  1  0  0  0
 54 55  2  0  0  0
 54128  1  0  0  0
 55 57  1  0  0  0
 55129  1  0  0  0
 56 69  2  0  0  0
 57 58  2  0  0  0
 57130  1  0  0  0
 58131  1  0  0  0
 59 60  1  0  0  0
 59 61  1  0  0  0
 59 62  1  0  0  0
 60132  1  0  0  0
 60133  1  0  0  0
 60134  1  0  0  0
 61135  1  0  0  0
 61136  1  0  0  0
 61137  1  0  0  0
 62138  1  0  0  0
 62139  1  0  0  0
 62140  1  0  0  0
 63 65  1  0  0  0
 63141  1  0  0  0
 63142  1  0  0  0
 63143  1  0  0  0
 64144  1  0  0  0
 65145  1  0  0  0
 68 86  1  0  0  0
 71 72  2  0  0  0
 71 82  1  0  0  0
 71146  1  0  0  0
 72 80  1  0  0  0
 72 83  1  0  0  0
 73 74  1  0  0  0
 73 82  2  0  0  0
 73 84  1  0  0  0
 74147  1  0  0  0
 74148  1  0  0  0
 74149  1  0  0  0
 75150  1  0  0  0
 75151  1  0  0  0
 75152  1  0  0  0
 75 81  1  0  0  0
 76 81  1  0  0  0
 76153  1  0  0  0
 76154  1  0  0  0
 76155  1  0  0  0
 77 81  1  0  0  0
 77156  1  0  0  0
 77157  1  0  0  0
 77158  1  0  0  0
 78 79  1  0  0  0
 78 85  1  0  0  0
 78159  1  0  0  0
 78160  1  0  0  0
 79 86  1  0  0  0
 79161  1  0  0  0
 79162  1  0  0  0
 80 81  1  0  0  0
 80 86  1  0  0  0
 80163  1  0  0  0
 83 84  2  0  0  0
 85164  1  0  0  0
M  ISO  4   1 100  68 101  85 100  86 101
M  END
> <chiral flag>
0

> <version>
0

> <s_m_source_file>
/data/baiqing/PycharmProjects/Reinvent-master-3.2/result/LINK_invent/BTK/process_docking_weight1_custom_sum_contain_oxygen_bond_distance_aromatic_linkinvent_7_9_3/rearranged_h_0067.sdf

> <i_m_source_file_index>
88

> <r_mmod_Potential_Energy-OPLS-2005>
4579.5732421875

> <r_mmod_Stretch_Energy-OPLS-2005>
2063.21508789062

> <r_mmod_Bend_Energy-OPLS-2005>
1028.01928710938

> <r_mmod_Torsional_Energy-OPLS-2005>
261.884002685547

> <r_mmod_Improper_Torsional_Energy-OPLS-2005>
7.4348292350769

> <r_mmod_Van_der_Waal_Energy-OPLS-2005>
142.602996826172

> <r_mmod_Electrostatic_Energy-OPLS-2005>
-348.188781738281

> <r_mmod_Solvation_Energy-OPLS-2005>
-265.8486328125

> <b_mmod_Minimization_Converged-OPLS-2005>
0

> <r_mmod_RMS_Derivative-OPLS-2005>
9.12207698822021

$$$$
91
                    3D
 Structure written by MMmdl.
171179  0  0  1  0            999 V2000
  -30.6677  -14.5153   20.5167 C   0  0  0  0  0  0
  -30.4301  -12.3126   19.4544 C   0  0  0  0  0  0
  -29.5030  -12.4878   18.2299 C   0  0  0  0  0  0
  -28.0258  -12.3400   18.6419 C   0  0  0  0  0  0
  -27.6636  -13.2015   19.8801 C   0  0  2  0  0  0
  -28.7033  -13.0185   21.0133 C   0  0  0  0  0  0
  -25.2629  -13.8155   20.5694 C   0  0  0  0  0  0
  -24.1853  -13.0445   20.9178 C   0  0  0  0  0  0
  -24.6384  -11.6912   20.8752 C   0  0  0  0  0  0
  -23.9043  -10.4297   21.0425 C   0  0  0  0  0  0
  -24.3592   -9.4224   21.9209 C   0  0  0  0  0  0
  -23.6281   -8.2250   22.0772 C   0  0  0  0  0  0
  -22.4278   -8.0281   21.3539 C   0  0  0  0  0  0
  -21.9899   -9.0261   20.4647 C   0  0  0  0  0  0
  -22.7218  -10.2144   20.3067 C   0  0  0  0  0  0
  -21.6856   -6.0741   22.5264 C   0  0  0  0  0  0
  -21.4015   -6.5644   23.8204 C   0  0  0  0  0  0
  -21.3659   -5.6797   24.9165 C   0  0  0  0  0  0
  -21.6044   -4.3051   24.7218 C   0  0  0  0  0  0
  -21.8820   -3.8146   23.4337 C   0  0  0  0  0  0
  -21.9197   -4.6969   22.3395 C   0  0  0  0  0  0
  -22.7888  -13.5268   21.1829 C   0  0  0  0  0  0
  -22.1665   -4.2155   21.0975 F   0  0  0  0  0  0
  -21.5635   -3.4537   25.7734 F   0  0  0  0  0  0
  -30.0377  -13.3106   20.4633 N   0  0  0  0  0  0
  -26.3045  -12.9297   20.3410 N   0  0  0  0  0  0
  -25.9319  -11.6464   20.5804 N   0  0  0  0  0  0
  -22.0492  -12.8256   22.0363 N   0  0  0  0  0  0
  -25.4386  -15.1870   20.4096 N   0  0  0  0  0  0
  -31.7978  -14.7056   20.0580 O   0  0  0  0  0  0
  -21.6633   -6.8884   21.4224 O   0  0  0  0  0  0
  -22.3579  -14.5578   20.6697 O   0  0  0  0  0  0
  -24.6166  -31.8704   23.2070 C   0  0  0  0  0  0
  -25.9044  -32.4812   23.8395 C   0  0  1  0  0  0
  -27.2352  -27.4129   20.1044 C   0  0  0  0  0  0
  -25.5919  -33.8631   24.2312 N   0  0  0  0  0  0
  -23.4048  -30.4921   21.5489 C   0  0  2  0  0  0
  -24.8512  -28.9475   20.1204 C   0  0  0  0  0  0
  -22.7425  -29.4681   22.4983 C   0  0  0  0  0  0
  -18.0292  -28.1392   22.8503 C   0  0  0  0  0  0
  -24.1484  -36.7317   23.2636 C   0  0  0  0  0  0
  -25.9386  -30.8180   21.3712 C   0  0  0  0  0  0
  -26.0112  -29.4531   20.7156 C   0  0  0  0  0  0
  -27.2097  -28.6988   20.6954 C   0  0  0  0  0  0
  -26.0533  -26.9198   19.5068 C   0  0  0  0  0  0
  -24.8671  -27.6794   19.5113 C   0  0  0  0  0  0
  -23.6136  -29.8192   20.1668 C   0  0  0  0  0  0
  -25.4112  -36.3120   24.0344 C   0  0  1  0  0  0
  -20.5881  -28.3689   23.1303 C   0  0  2  0  0  0
  -20.6804  -26.9429   22.5410 C   0  0  0  0  0  0
  -19.5760  -26.6400   21.5229 C   0  0  0  0  0  0
  -18.1929  -26.7945   22.1635 C   0  0  0  0  0  0
  -19.1545  -28.8855   23.2892 C   0  0  0  0  0  0
  -18.9471  -30.1463   23.8890 C   0  0  0  0  0  0
  -17.6463  -30.6590   24.0584 C   0  0  0  0  0  0
  -25.9053  -34.9485   23.5128 C   0  0  0  0  0  0
  -16.5359  -29.9098   23.6343 C   0  0  0  0  0  0
  -16.7286  -28.6526   23.0335 C   0  0  0  0  0  0
  -26.4466  -31.6636   25.0742 C   0  0  0  0  0  0
  -25.3702  -31.3710   26.1465 C   0  0  0  0  0  0
  -27.0323  -30.3084   24.6177 C   0  0  0  0  0  0
  -27.6057  -32.4389   25.7482 C   0  0  0  0  0  0
  -27.5586  -37.1797   24.8468 C   0  0  0  0  0  0
  -21.4168  -29.3040   22.3695 N   0  0  0  0  0  0
  -26.4299  -37.3801   23.9414 N   0  0  0  0  0  0
  -24.6706  -31.0759   22.1009 N   0  0  0  0  0  0
  -23.4185  -28.8246   23.3048 O   0  0  0  0  0  0
  -28.4097  -26.6816   20.0873 O   0  0  0  0  0  0
  -26.5618  -34.8922   22.4694 O   0  0  0  0  0  0
  -23.5359  -32.1516   23.7443 O   0  0  0  0  0  0
  -29.2341  -22.4626   21.4951 C   0  0  0  0  0  0
  -29.0710  -21.6929   19.4654 C   0  0  0  0  0  0
  -29.1723  -22.8932   20.1364 C   0  0  0  0  0  0
  -31.6531  -24.2144   18.6268 C   0  0  0  0  0  0
  -27.3575  -18.9044   20.5839 C   0  0  0  0  0  0
  -28.6370  -24.4207   18.1867 C   0  0  0  0  0  0
  -31.3016  -18.6463   20.3752 C   0  0  0  0  0  0
  -29.7998  -18.0223   22.2641 C   0  0  0  0  0  0
  -30.6880  -24.8544   19.6425 C   0  0  0  0  0  0
  -29.6957  -16.7605   20.0236 C   0  0  0  0  0  0
  -28.3571  -25.2979   20.5071 C   0  0  0  0  0  0
  -28.8126  -19.2036   20.1538 C   0  0  2  0  0  0
  -29.2180  -24.3445   19.6143 C   0  0  2  0  0  0
  -29.8768  -18.1620   20.7218 C   0  0  0  0  0  0
  -29.1462  -21.1478   21.6406 N   0  0  0  0  0  0
  -29.0668  -20.6480   20.3855 N   0  0  0  0  0  0
  -29.8655  -15.5451   20.8476 N   0  0  0  0  0  0
  -31.4764  -12.4100   19.1592 H   0  0  0  0  0  0
  -30.3324  -11.3106   19.8740 H   0  0  0  0  0  0
  -29.7495  -11.7500   17.4652 H   0  0  0  0  0  0
  -29.6631  -13.4673   17.7744 H   0  0  0  0  0  0
  -27.8512  -11.2863   18.8659 H   0  0  0  0  0  0
  -27.3704  -12.5863   17.8052 H   0  0  0  0  0  0
  -27.6943  -14.2400   19.5528 H   0  0  0  0  0  0
  -28.6821  -11.9990   21.4008 H   0  0  0  0  0  0
  -28.4634  -13.6580   21.8658 H   0  0  0  0  0  0
  -25.2731   -9.5717   22.4798 H   0  0  0  0  0  0
  -24.0000   -7.4644   22.7498 H   0  0  0  0  0  0
  -21.0836   -8.8768   19.8943 H   0  0  0  0  0  0
  -22.3675  -10.9692   19.6185 H   0  0  0  0  0  0
  -21.2002   -7.6145   23.9704 H   0  0  0  0  0  0
  -21.1485   -6.0524   25.9068 H   0  0  0  0  0  0
  -22.0603   -2.7610   23.2831 H   0  0  0  0  0  0
  -22.4075  -11.9899   22.4726 H   0  0  0  0  0  0
  -21.1120  -13.1322   22.2559 H   0  0  0  0  0  0
  -24.6760  -15.8483   20.5104 H   0  0  0  0  0  0
  -26.2971  -15.6151   20.0894 H   0  0  0  0  0  0
  -26.7116  -32.5477   23.1160 H   0  0  0  0  0  0
  -25.0090  -33.9829   25.0462 H   0  0  0  0  0  0
  -22.6912  -31.3082   21.4023 H   0  0  0  0  0  0
  -23.3774  -35.9618   23.3332 H   0  0  0  0  0  0
  -24.3547  -36.8915   22.2040 H   0  0  0  0  0  0
  -23.7228  -37.6522   23.6656 H   0  0  0  0  0  0
  -26.0570  -31.5738   20.5961 H   0  0  0  0  0  0
  -26.8308  -30.8704   21.9850 H   0  0  0  0  0  0
  -28.1080  -29.0948   21.1466 H   0  0  0  0  0  0
  -26.0378  -25.9511   19.0305 H   0  0  0  0  0  0
  -23.9756  -27.2781   19.0502 H   0  0  0  0  0  0
  -23.7205  -30.5927   19.4057 H   0  0  0  0  0  0
  -22.7378  -29.2370   19.8760 H   0  0  0  0  0  0
  -25.1268  -36.1998   25.0828 H   0  0  0  0  0  0
  -20.9966  -28.3293   24.1431 H   0  0  0  0  0  0
  -20.5758  -26.2312   23.3606 H   0  0  0  0  0  0
  -21.6651  -26.7517   22.1142 H   0  0  0  0  0  0
  -19.6929  -25.6311   21.1243 H   0  0  0  0  0  0
  -19.6686  -27.3232   20.6767 H   0  0  0  0  0  0
  -17.4213  -26.6746   21.4006 H   0  0  0  0  0  0
  -18.0301  -26.0055   22.8989 H   0  0  0  0  0  0
  -19.7931  -30.7315   24.2239 H   0  0  0  0  0  0
  -17.5003  -31.6260   24.5208 H   0  0  0  0  0  0
  -15.5350  -30.2978   23.7678 H   0  0  0  0  0  0
  -15.8695  -28.0872   22.6999 H   0  0  0  0  0  0
  -24.5907  -30.7050   25.7751 H   0  0  0  0  0  0
  -24.8821  -32.2799   26.4952 H   0  0  0  0  0  0
  -25.7977  -30.8827   27.0207 H   0  0  0  0  0  0
  -26.2890  -29.6827   24.1210 H   0  0  0  0  0  0
  -27.4066  -29.7340   25.4659 H   0  0  0  0  0  0
  -27.8716  -30.4437   23.9357 H   0  0  0  0  0  0
  -27.2767  -33.3753   26.2004 H   0  0  0  0  0  0
  -28.3846  -32.6882   25.0260 H   0  0  0  0  0  0
  -28.0747  -31.8549   26.5411 H   0  0  0  0  0  0
  -28.2607  -38.0096   24.7546 H   0  0  0  0  0  0
  -28.1091  -36.2631   24.6284 H   0  0  0  0  0  0
  -27.2284  -37.1439   25.8861 H   0  0  0  0  0  0
  -20.9371  -29.8722   21.6841 H   0  0  0  0  0  0
  -26.0209  -38.2878   24.1417 H   0  0  0  0  0  0
  -29.3150  -23.0646   22.3880 H   0  0  0  0  0  0
  -28.9730  -21.4950   18.4073 H   0  0  0  0  0  0
  -32.6599  -24.6094   18.7638 H   0  0  0  0  0  0
  -31.3656  -24.4413   17.6009 H   0  0  0  0  0  0
  -31.7081  -23.1316   18.7350 H   0  0  0  0  0  0
  -27.0644  -17.8686   20.4281 H   0  0  0  0  0  0
  -26.6575  -19.5183   20.0152 H   0  0  0  0  0  0
  -27.1975  -19.1322   21.6388 H   0  0  0  0  0  0
  -29.1371  -23.7524   17.4900 H   0  0  0  0  0  0
  -28.7258  -25.4303   17.7838 H   0  0  0  0  0  0
  -27.5806  -24.1533   18.1744 H   0  0  0  0  0  0
  -32.0566  -17.9386   20.7210 H   0  0  0  0  0  0
  -31.5277  -19.6115   20.8282 H   0  0  0  0  0  0
  -31.4329  -18.7526   19.2980 H   0  0  0  0  0  0
  -30.5701  -17.3487   22.6447 H   0  0  0  0  0  0
  -28.8375  -17.6324   22.5969 H   0  0  0  0  0  0
  -29.9652  -18.9740   22.7670 H   0  0  0  0  0  0
  -30.7137  -25.9305   19.4716 H   0  0  0  0  0  0
  -31.0871  -24.7191   20.6487 H   0  0  0  0  0  0
  -30.3224  -16.6973   19.1327 H   0  0  0  0  0  0
  -28.6892  -16.6654   19.6210 H   0  0  0  0  0  0
  -28.7297  -25.2781   21.5335 H   0  0  0  0  0  0
  -27.3396  -24.9112   20.5659 H   0  0  0  0  0  0
  -28.8344  -19.0784   19.0693 H   0  0  0  0  0  0
  -29.0445  -15.2798   21.3703 H   0  0  0  0  0  0
  1 25  1  0  0  0
  1 30  2  0  0  0
  1 87  1  0  0  0
  2  3  1  0  0  0
  2 25  1  0  0  0
  2 88  1  0  0  0
  2 89  1  0  0  0
  3  4  1  0  0  0
  3 90  1  0  0  0
  3 91  1  0  0  0
  4  5  1  0  0  0
  4 92  1  0  0  0
  4 93  1  0  0  0
  5  6  1  0  0  0
  5 26  1  0  0  0
  5 94  1  0  0  0
  6 25  1  0  0  0
  6 95  1  0  0  0
  6 96  1  0  0  0
  7  8  2  0  0  0
  7 26  1  0  0  0
  7 29  1  0  0  0
  8  9  1  0  0  0
  8 22  1  0  0  0
  9 10  1  0  0  0
  9 27  2  0  0  0
 10 11  2  0  0  0
 10 15  1  0  0  0
 11 12  1  0  0  0
 11 97  1  0  0  0
 12 13  2  0  0  0
 12 98  1  0  0  0
 13 14  1  0  0  0
 13 31  1  0  0  0
 14 15  2  0  0  0
 14 99  1  0  0  0
 15100  1  0  0  0
 16 17  2  0  0  0
 16 21  1  0  0  0
 16 31  1  0  0  0
 17 18  1  0  0  0
 17101  1  0  0  0
 18 19  2  0  0  0
 18102  1  0  0  0
 19 20  1  0  0  0
 19 24  1  0  0  0
 20 21  2  0  0  0
 20103  1  0  0  0
 21 23  1  0  0  0
 22 28  1  0  0  0
 22 32  2  0  0  0
 26 27  1  0  0  0
 28104  1  0  0  0
 28105  1  0  0  0
 29106  1  0  0  0
 29107  1  0  0  0
 33 34  1  0  0  0
 33 66  1  0  0  0
 33 70  2  0  0  0
 34 36  1  0  0  0
 34 59  1  0  0  0
 34108  1  0  0  0
 35 44  2  0  0  0
 35 45  1  0  0  0
 35 68  1  0  0  0
 36 56  1  0  0  0
 36109  1  0  0  0
 37 39  1  0  0  0
 37 47  1  0  0  0
 37 66  1  0  0  0
 37110  1  0  0  0
 38 43  2  0  0  0
 38 46  1  0  0  0
 38 47  1  0  0  0
 39 64  1  0  0  0
 39 67  2  0  0  0
 40 52  1  0  0  0
 40 53  2  0  0  0
 40 58  1  0  0  0
 41111  1  0  0  0
 41112  1  0  0  0
 41113  1  0  0  0
 41 48  1  0  0  0
 42 43  1  0  0  0
 42 66  1  0  0  0
 42114  1  0  0  0
 42115  1  0  0  0
 43 44  1  0  0  0
 44116  1  0  0  0
 45 46  2  0  0  0
 45117  1  0  0  0
 46118  1  0  0  0
 47119  1  0  0  0
 47120  1  0  0  0
 48 56  1  0  0  0
 48 65  1  0  0  0
 48121  1  0  0  0
 49 50  1  0  0  0
 49 53  1  0  0  0
 49 64  1  0  0  0
 49122  1  0  0  0
 50 51  1  0  0  0
 50123  1  0  0  0
 50124  1  0  0  0
 51 52  1  0  0  0
 51125  1  0  0  0
 51126  1  0  0  0
 52127  1  0  0  0
 52128  1  0  0  0
 53 54  1  0  0  0
 54 55  2  0  0  0
 54129  1  0  0  0
 55 57  1  0  0  0
 55130  1  0  0  0
 56 69  2  0  0  0
 57 58  2  0  0  0
 57131  1  0  0  0
 58132  1  0  0  0
 59 60  1  0  0  0
 59 61  1  0  0  0
 59 62  1  0  0  0
 60133  1  0  0  0
 60134  1  0  0  0
 60135  1  0  0  0
 61136  1  0  0  0
 61137  1  0  0  0
 61138  1  0  0  0
 62139  1  0  0  0
 62140  1  0  0  0
 62141  1  0  0  0
 63 65  1  0  0  0
 63142  1  0  0  0
 63143  1  0  0  0
 63144  1  0  0  0
 64145  1  0  0  0
 65146  1  0  0  0
 68 81  1  0  0  0
 71 73  1  0  0  0
 71 85  2  0  0  0
 71147  1  0  0  0
 72 73  2  0  0  0
 72 86  1  0  0  0
 72148  1  0  0  0
 73 83  1  0  0  0
 74 79  1  0  0  0
 74149  1  0  0  0
 74150  1  0  0  0
 74151  1  0  0  0
 75152  1  0  0  0
 75153  1  0  0  0
 75154  1  0  0  0
 75 82  1  0  0  0
 76155  1  0  0  0
 76156  1  0  0  0
 76157  1  0  0  0
 76 83  1  0  0  0
 77158  1  0  0  0
 77159  1  0  0  0
 77160  1  0  0  0
 77 84  1  0  0  0
 78 84  1  0  0  0
 78161  1  0  0  0
 78162  1  0  0  0
 78163  1  0  0  0
 79 83  1  0  0  0
 79164  1  0  0  0
 79165  1  0  0  0
 80 84  1  0  0  0
 80 87  1  0  0  0
 80166  1  0  0  0
 80167  1  0  0  0
 81 83  1  0  0  0
 81168  1  0  0  0
 81169  1  0  0  0
 82 84  1  0  0  0
 82 86  1  0  0  0
 82170  1  0  0  0
 85 86  1  0  0  0
 87171  1  0  0  0
M  ISO  4   1 100  68 101  81 101  87 100
M  END
> <chiral flag>
0

> <version>
0

> <s_m_source_file>
/data/baiqing/PycharmProjects/Reinvent-master-3.2/result/LINK_invent/BTK/process_docking_weight1_custom_sum_contain_oxygen_bond_distance_aromatic_linkinvent_7_9_3/rearranged_h_0067.sdf

> <i_m_source_file_index>
89

> <r_mmod_Potential_Energy-OPLS-2005>
1.44853591918945

> <r_mmod_Stretch_Energy-OPLS-2005>
49.917537689209

> <r_mmod_Bend_Energy-OPLS-2005>
119.473075866699

> <r_mmod_Torsional_Energy-OPLS-2005>
294.809417724609

> <r_mmod_Improper_Torsional_Energy-OPLS-2005>
9.82521438598633

> <r_mmod_Van_der_Waal_Energy-OPLS-2005>
129.858215332031

> <r_mmod_Electrostatic_Energy-OPLS-2005>
-415.640563964844

> <r_mmod_Solvation_Energy-OPLS-2005>
-204.945816040039

> <b_mmod_Minimization_Converged-OPLS-2005>
0

> <r_mmod_RMS_Derivative-OPLS-2005>
4.27529287338257

$$$$
92
                    3D
 Structure written by MMmdl.
161170  0  0  1  0            999 V2000
  -30.7150  -14.4601   20.4742 C   0  0  0  0  0  0
  -30.4157  -12.2741   19.4162 C   0  0  0  0  0  0
  -29.4844  -12.4726   18.2025 C   0  0  0  0  0  0
  -28.0056  -12.3546   18.6258 C   0  0  0  0  0  0
  -27.6601  -13.1922   19.8899 C   0  0  2  0  0  0
  -28.7177  -13.0027   20.9984 C   0  0  0  0  0  0
  -25.2547  -13.8083   20.5716 C   0  0  0  0  0  0
  -24.1819  -13.0395   20.9239 C   0  0  0  0  0  0
  -24.6359  -11.6864   20.8798 C   0  0  0  0  0  0
  -23.9027  -10.4244   21.0427 C   0  0  0  0  0  0
  -24.3596   -9.4173   21.9198 C   0  0  0  0  0  0
  -23.6281   -8.2207   22.0779 C   0  0  0  0  0  0
  -22.4264   -8.0243   21.3568 C   0  0  0  0  0  0
  -21.9878   -9.0202   20.4670 C   0  0  0  0  0  0
  -22.7198  -10.2093   20.3071 C   0  0  0  0  0  0
  -21.6831   -6.0716   22.5272 C   0  0  0  0  0  0
  -21.4009   -6.5633   23.8201 C   0  0  0  0  0  0
  -21.3656   -5.6777   24.9148 C   0  0  0  0  0  0
  -21.6056   -4.3041   24.7189 C   0  0  0  0  0  0
  -21.8821   -3.8133   23.4313 C   0  0  0  0  0  0
  -21.9180   -4.6950   22.3372 C   0  0  0  0  0  0
  -22.7837  -13.5226   21.1827 C   0  0  0  0  0  0
  -22.1643   -4.2157   21.0948 F   0  0  0  0  0  0
  -21.5629   -3.4538   25.7710 F   0  0  0  0  0  0
  -30.0352  -13.2860   20.4097 N   0  0  0  0  0  0
  -26.3018  -12.9242   20.3522 N   0  0  0  0  0  0
  -25.9303  -11.6413   20.5902 N   0  0  0  0  0  0
  -22.0484  -12.8229   22.0377 N   0  0  0  0  0  0
  -25.4166  -15.1759   20.3968 N   0  0  0  0  0  0
  -31.9073  -14.5690   20.1977 O   0  0  0  0  0  0
  -21.6621   -6.8861   21.4234 O   0  0  0  0  0  0
  -22.3538  -14.5514   20.6641 O   0  0  0  0  0  0
  -24.6105  -31.8726   23.2123 C   0  0  0  0  0  0
  -25.9018  -32.4852   23.8408 C   0  0  1  0  0  0
  -27.2380  -27.4848   20.0919 C   0  0  0  0  0  0
  -25.5897  -33.8646   24.2349 N   0  0  0  0  0  0
  -23.3959  -30.4926   21.5541 C   0  0  2  0  0  0
  -24.8431  -28.9596   20.1202 C   0  0  0  0  0  0
  -22.7384  -29.4667   22.5036 C   0  0  0  0  0  0
  -18.0263  -28.1372   22.8508 C   0  0  0  0  0  0
  -24.1490  -36.7329   23.2638 C   0  0  0  0  0  0
  -25.9169  -30.8509   21.3560 C   0  0  0  0  0  0
  -25.9975  -29.4841   20.7156 C   0  0  0  0  0  0
  -27.2003  -28.7502   20.7058 C   0  0  0  0  0  0
  -26.0731  -26.9557   19.5008 C   0  0  0  0  0  0
  -24.8716  -27.6894   19.5153 C   0  0  0  0  0  0
  -23.6020  -29.8206   20.1695 C   0  0  0  0  0  0
  -25.4109  -36.3128   24.0341 C   0  0  1  0  0  0
  -20.5850  -28.3645   23.1352 C   0  0  2  0  0  0
  -20.6756  -26.9393   22.5426 C   0  0  0  0  0  0
  -19.5734  -26.6387   21.5219 C   0  0  0  0  0  0
  -18.1910  -26.7923   22.1629 C   0  0  0  0  0  0
  -19.1513  -28.8824   23.2926 C   0  0  0  0  0  0
  -18.9444  -30.1433   23.8933 C   0  0  0  0  0  0
  -17.6449  -30.6585   24.0566 C   0  0  0  0  0  0
  -25.9031  -34.9490   23.5136 C   0  0  0  0  0  0
  -16.5339  -29.9094   23.6321 C   0  0  0  0  0  0
  -16.7252  -28.6504   23.0354 C   0  0  0  0  0  0
  -26.4460  -31.6614   25.0715 C   0  0  0  0  0  0
  -25.3733  -31.3706   26.1467 C   0  0  0  0  0  0
  -27.0294  -30.3080   24.6033 C   0  0  0  0  0  0
  -27.6053  -32.4317   25.7469 C   0  0  0  0  0  0
  -27.5574  -37.1828   24.8472 C   0  0  0  0  0  0
  -21.4116  -29.3026   22.3775 N   0  0  0  0  0  0
  -26.4304  -37.3801   23.9393 N   0  0  0  0  0  0
  -24.6595  -31.0854   22.1006 N   0  0  0  0  0  0
  -23.4176  -28.8208   23.3058 O   0  0  0  0  0  0
  -28.4076  -26.7807   20.0404 O   0  0  0  0  0  0
  -26.5585  -34.8932   22.4690 O   0  0  0  0  0  0
  -23.5314  -32.1457   23.7549 O   0  0  0  0  0  0
  -29.7664  -19.2352   19.6489 C   0  0  0  0  0  0
  -29.7392  -19.8323   17.3107 C   0  0  0  0  0  0
  -28.5321  -23.2832   20.4869 C   0  0  0  0  0  0
  -30.9892  -23.5783   19.3928 C   0  0  0  0  0  0
  -28.8878  -18.1736   19.3595 C   0  0  0  0  0  0
  -30.1807  -20.0955   18.6145 C   0  0  0  0  0  0
  -29.1865  -24.5333   20.4650 C   0  0  0  0  0  0
  -28.4907  -17.9896   18.0005 C   0  0  0  0  0  0
  -30.3356  -22.3232   19.4096 C   0  0  0  0  0  0
  -28.3370  -17.3646   20.5390 C   0  0  0  0  0  0
  -28.5104  -25.7643   21.0297 C   0  0  0  0  0  0
  -29.3377  -16.3930   21.2035 C   0  0  0  0  0  0
  -27.5219  -16.8862   17.5493 C   0  0  0  0  0  0
  -28.9322  -18.8015   17.0064 N   0  0  0  0  0  0
  -30.4211  -24.6914   19.9194 N   0  0  0  0  0  0
  -29.0983  -22.1775   19.9566 N   0  0  0  0  0  0
  -29.9663  -15.5371   20.2109 N   0  0  0  0  0  0
  -30.9439  -21.2064   18.8773 O   0  0  0  0  0  0
  -26.3349  -17.0317   18.1403 F   0  0  0  0  0  0
  -27.3255  -16.8968   16.2272 F   0  0  0  0  0  0
  -28.0252  -15.6984   17.8624 F   0  0  0  0  0  0
  -31.4593  -12.3602   19.1070 H   0  0  0  0  0  0
  -30.3053  -11.2725   19.8349 H   0  0  0  0  0  0
  -29.7113  -11.7439   17.4226 H   0  0  0  0  0  0
  -29.6645  -13.4516   17.7557 H   0  0  0  0  0  0
  -27.8024  -11.2998   18.8188 H   0  0  0  0  0  0
  -27.3531  -12.6432   17.8022 H   0  0  0  0  0  0
  -27.6919  -14.2380   19.6122 H   0  0  0  0  0  0
  -28.6947  -11.9805   21.3795 H   0  0  0  0  0  0
  -28.5126  -13.6417   21.8562 H   0  0  0  0  0  0
  -25.2737   -9.5662   22.4786 H   0  0  0  0  0  0
  -24.0019   -7.4626   22.7517 H   0  0  0  0  0  0
  -21.0804   -8.8672   19.8987 H   0  0  0  0  0  0
  -22.3608  -10.9615   19.6191 H   0  0  0  0  0  0
  -21.2016   -7.6140   23.9708 H   0  0  0  0  0  0
  -21.1484   -6.0497   25.9060 H   0  0  0  0  0  0
  -22.0610   -2.7609   23.2774 H   0  0  0  0  0  0
  -22.4159  -11.9969   22.4846 H   0  0  0  0  0  0
  -21.1078  -13.1235   22.2538 H   0  0  0  0  0  0
  -24.6245  -15.8081   20.4390 H   0  0  0  0  0  0
  -26.2107  -15.5665   19.9119 H   0  0  0  0  0  0
  -26.7096  -32.5584   23.1188 H   0  0  0  0  0  0
  -25.0065  -33.9817   25.0506 H   0  0  0  0  0  0
  -22.6818  -31.3068   21.4150 H   0  0  0  0  0  0
  -23.3744  -35.9674   23.3328 H   0  0  0  0  0  0
  -24.3577  -36.8913   22.2046 H   0  0  0  0  0  0
  -23.7253  -37.6548   23.6632 H   0  0  0  0  0  0
  -26.0085  -31.6100   20.5783 H   0  0  0  0  0  0
  -26.8130  -30.9206   21.9600 H   0  0  0  0  0  0
  -28.0950  -29.1513   21.1607 H   0  0  0  0  0  0
  -26.1012  -25.9858   19.0244 H   0  0  0  0  0  0
  -23.9836  -27.2798   19.0538 H   0  0  0  0  0  0
  -23.7021  -30.5919   19.4051 H   0  0  0  0  0  0
  -22.7291  -29.2336   19.8801 H   0  0  0  0  0  0
  -25.1287  -36.2003   25.0839 H   0  0  0  0  0  0
  -20.9933  -28.3192   24.1474 H   0  0  0  0  0  0
  -20.5667  -26.2247   23.3597 H   0  0  0  0  0  0
  -21.6627  -26.7451   22.1210 H   0  0  0  0  0  0
  -19.6894  -25.6304   21.1232 H   0  0  0  0  0  0
  -19.6678  -27.3211   20.6759 H   0  0  0  0  0  0
  -17.4184  -26.6686   21.4023 H   0  0  0  0  0  0
  -18.0303  -26.0053   22.9013 H   0  0  0  0  0  0
  -19.7918  -30.7236   24.2327 H   0  0  0  0  0  0
  -17.5005  -31.6269   24.5157 H   0  0  0  0  0  0
  -15.5342  -30.3007   23.7623 H   0  0  0  0  0  0
  -15.8649  -28.0824   22.7068 H   0  0  0  0  0  0
  -24.5892  -30.7079   25.7778 H   0  0  0  0  0  0
  -24.8948  -32.2871   26.4936 H   0  0  0  0  0  0
  -25.8088  -30.8838   27.0205 H   0  0  0  0  0  0
  -26.2825  -29.6837   24.1124 H   0  0  0  0  0  0
  -27.4146  -29.7304   25.4441 H   0  0  0  0  0  0
  -27.8607  -30.4430   23.9110 H   0  0  0  0  0  0
  -27.2694  -33.3599   26.2096 H   0  0  0  0  0  0
  -28.3843  -32.6907   25.0285 H   0  0  0  0  0  0
  -28.0753  -31.8415   26.5344 H   0  0  0  0  0  0
  -28.2642  -38.0076   24.7466 H   0  0  0  0  0  0
  -28.1026  -36.2610   24.6382 H   0  0  0  0  0  0
  -27.2285  -37.1574   25.8877 H   0  0  0  0  0  0
  -20.9267  -29.8771   21.7022 H   0  0  0  0  0  0
  -26.0206  -38.2893   24.1360 H   0  0  0  0  0  0
  -30.0643  -19.4371   20.6676 H   0  0  0  0  0  0
  -30.0237  -20.4771   16.4914 H   0  0  0  0  0  0
  -27.5467  -23.1715   20.9158 H   0  0  0  0  0  0
  -31.9725  -23.6818   18.9555 H   0  0  0  0  0  0
  -27.4447  -16.8204   20.2472 H   0  0  0  0  0  0
  -27.9857  -18.0701   21.2951 H   0  0  0  0  0  0
  -29.1027  -26.1412   21.8631 H   0  0  0  0  0  0
  -27.5375  -25.4867   21.4440 H   0  0  0  0  0  0
  -28.8442  -15.8163   21.9852 H   0  0  0  0  0  0
  -30.1292  -16.9642   21.6939 H   0  0  0  0  0  0
  -30.4455  -16.1096   19.5339 H   0  0  0  0  0  0
  1 25  1  0  0  0
  1 30  2  0  0  0
  1 87  1  0  0  0
  2  3  1  0  0  0
  2 25  1  0  0  0
  2 92  1  0  0  0
  2 93  1  0  0  0
  3  4  1  0  0  0
  3 94  1  0  0  0
  3 95  1  0  0  0
  4  5  1  0  0  0
  4 96  1  0  0  0
  4 97  1  0  0  0
  5  6  1  0  0  0
  5 26  1  0  0  0
  5 98  1  0  0  0
  6 25  1  0  0  0
  6 99  1  0  0  0
  6100  1  0  0  0
  7  8  2  0  0  0
  7 26  1  0  0  0
  7 29  1  0  0  0
  8  9  1  0  0  0
  8 22  1  0  0  0
  9 10  1  0  0  0
  9 27  2  0  0  0
 10 11  2  0  0  0
 10 15  1  0  0  0
 11 12  1  0  0  0
 11101  1  0  0  0
 12 13  2  0  0  0
 12102  1  0  0  0
 13 14  1  0  0  0
 13 31  1  0  0  0
 14 15  2  0  0  0
 14103  1  0  0  0
 15104  1  0  0  0
 16 17  2  0  0  0
 16 21  1  0  0  0
 16 31  1  0  0  0
 17 18  1  0  0  0
 17105  1  0  0  0
 18 19  2  0  0  0
 18106  1  0  0  0
 19 20  1  0  0  0
 19 24  1  0  0  0
 20 21  2  0  0  0
 20107  1  0  0  0
 21 23  1  0  0  0
 22 28  1  0  0  0
 22 32  2  0  0  0
 26 27  1  0  0  0
 28108  1  0  0  0
 28109  1  0  0  0
 29110  1  0  0  0
 29111  1  0  0  0
 33 34  1  0  0  0
 33 66  1  0  0  0
 33 70  2  0  0  0
 34 36  1  0  0  0
 34 59  1  0  0  0
 34112  1  0  0  0
 35 44  2  0  0  0
 35 45  1  0  0  0
 35 68  1  0  0  0
 36 56  1  0  0  0
 36113  1  0  0  0
 37 39  1  0  0  0
 37 47  1  0  0  0
 37 66  1  0  0  0
 37114  1  0  0  0
 38 43  2  0  0  0
 38 46  1  0  0  0
 38 47  1  0  0  0
 39 64  1  0  0  0
 39 67  2  0  0  0
 40 52  1  0  0  0
 40 53  2  0  0  0
 40 58  1  0  0  0
 41115  1  0  0  0
 41116  1  0  0  0
 41117  1  0  0  0
 41 48  1  0  0  0
 42 43  1  0  0  0
 42 66  1  0  0  0
 42118  1  0  0  0
 42119  1  0  0  0
 43 44  1  0  0  0
 44120  1  0  0  0
 45 46  2  0  0  0
 45121  1  0  0  0
 46122  1  0  0  0
 47123  1  0  0  0
 47124  1  0  0  0
 48 56  1  0  0  0
 48 65  1  0  0  0
 48125  1  0  0  0
 49 50  1  0  0  0
 49 53  1  0  0  0
 49 64  1  0  0  0
 49126  1  0  0  0
 50 51  1  0  0  0
 50127  1  0  0  0
 50128  1  0  0  0
 51 52  1  0  0  0
 51129  1  0  0  0
 51130  1  0  0  0
 52131  1  0  0  0
 52132  1  0  0  0
 53 54  1  0  0  0
 54 55  2  0  0  0
 54133  1  0  0  0
 55 57  1  0  0  0
 55134  1  0  0  0
 56 69  2  0  0  0
 57 58  2  0  0  0
 57135  1  0  0  0
 58136  1  0  0  0
 59 60  1  0  0  0
 59 61  1  0  0  0
 59 62  1  0  0  0
 60137  1  0  0  0
 60138  1  0  0  0
 60139  1  0  0  0
 61140  1  0  0  0
 61141  1  0  0  0
 61142  1  0  0  0
 62143  1  0  0  0
 62144  1  0  0  0
 62145  1  0  0  0
 63 65  1  0  0  0
 63146  1  0  0  0
 63147  1  0  0  0
 63148  1  0  0  0
 64149  1  0  0  0
 65150  1  0  0  0
 68 81  1  0  0  0
 71 75  2  0  0  0
 71 76  1  0  0  0
 71151  1  0  0  0
 72 76  2  0  0  0
 72 84  1  0  0  0
 72152  1  0  0  0
 73 77  2  0  0  0
 73 86  1  0  0  0
 73153  1  0  0  0
 74 79  1  0  0  0
 74 85  2  0  0  0
 74154  1  0  0  0
 75 78  1  0  0  0
 75 80  1  0  0  0
 76 88  1  0  0  0
 77 81  1  0  0  0
 77 85  1  0  0  0
 78 83  1  0  0  0
 78 84  2  0  0  0
 79 86  2  0  0  0
 79 88  1  0  0  0
 80 82  1  0  0  0
 80155  1  0  0  0
 80156  1  0  0  0
 81157  1  0  0  0
 81158  1  0  0  0
 82 87  1  0  0  0
 82159  1  0  0  0
 82160  1  0  0  0
 83 89  1  0  0  0
 83 90  1  0  0  0
 83 91  1  0  0  0
 87161  1  0  0  0
M  ISO  4   1 100  68 101  81 101  87 100
M  END
> <chiral flag>
0

> <version>
0

> <s_m_source_file>
/data/baiqing/PycharmProjects/Reinvent-master-3.2/result/LINK_invent/BTK/process_docking_weight1_custom_sum_contain_oxygen_bond_distance_aromatic_linkinvent_7_9_3/rearranged_h_0067.sdf

> <i_m_source_file_index>
90

> <r_mmod_Potential_Energy-OPLS-2005>
107.032035827637

> <r_mmod_Stretch_Energy-OPLS-2005>
36.0894966125488

> <r_mmod_Bend_Energy-OPLS-2005>
105.760528564453

> <r_mmod_Torsional_Energy-OPLS-2005>
317.477813720703

> <r_mmod_Improper_Torsional_Energy-OPLS-2005>
28.2575073242188

> <r_mmod_Van_der_Waal_Energy-OPLS-2005>
176.333892822266

> <r_mmod_Electrostatic_Energy-OPLS-2005>
-353.190826416016

> <r_mmod_Solvation_Energy-OPLS-2005>
-220.773025512695

> <b_mmod_Minimization_Converged-OPLS-2005>
0

> <r_mmod_RMS_Derivative-OPLS-2005>
3.34619760513306

$$$$
93
                    3D
 Structure written by MMmdl.
179187  0  0  1  0            999 V2000
  -30.7837  -14.5993   20.5513 C   0  0  0  0  0  0
  -30.3903  -12.3774   19.4630 C   0  0  0  0  0  0
  -29.4878  -12.5487   18.2298 C   0  0  0  0  0  0
  -28.0085  -12.3895   18.6375 C   0  0  0  0  0  0
  -27.6514  -13.2375   19.8889 C   0  0  2  0  0  0
  -28.7181  -13.0358   20.9991 C   0  0  0  0  0  0
  -25.2359  -13.8201   20.5728 C   0  0  0  0  0  0
  -24.1692  -13.0387   20.9190 C   0  0  0  0  0  0
  -24.6336  -11.6884   20.8708 C   0  0  0  0  0  0
  -23.9050  -10.4194   21.0370 C   0  0  0  0  0  0
  -24.3699   -9.4036   21.9058 C   0  0  0  0  0  0
  -23.6391   -8.2054   22.0603 C   0  0  0  0  0  0
  -22.4298   -8.0155   21.3501 C   0  0  0  0  0  0
  -21.9944   -9.0104   20.4593 C   0  0  0  0  0  0
  -22.7159  -10.2062   20.3111 C   0  0  0  0  0  0
  -21.6791   -6.0768   22.5363 C   0  0  0  0  0  0
  -21.4016   -6.5723   23.8271 C   0  0  0  0  0  0
  -21.3623   -5.6879   24.9239 C   0  0  0  0  0  0
  -21.5994   -4.3138   24.7285 C   0  0  0  0  0  0
  -21.8790   -3.8216   23.4413 C   0  0  0  0  0  0
  -21.9179   -4.7033   22.3460 C   0  0  0  0  0  0
  -22.7710  -13.5114   21.1893 C   0  0  0  0  0  0
  -22.1597   -4.2207   21.1019 F   0  0  0  0  0  0
  -21.5546   -3.4572   25.7782 F   0  0  0  0  0  0
  -30.0205  -13.4400   20.4570 N   0  0  0  0  0  0
  -26.2906  -12.9491   20.3459 N   0  0  0  0  0  0
  -25.9262  -11.6623   20.5756 N   0  0  0  0  0  0
  -22.0358  -12.7799   22.0172 N   0  0  0  0  0  0
  -25.3826  -15.1892   20.4212 N   0  0  0  0  0  0
  -31.8221  -14.5326   19.8984 O   0  0  0  0  0  0
  -21.6553   -6.8896   21.4328 O   0  0  0  0  0  0
  -22.3397  -14.5556   20.7012 O   0  0  0  0  0  0
  -24.6152  -31.8674   23.2098 C   0  0  0  0  0  0
  -25.9026  -32.4809   23.8401 C   0  0  1  0  0  0
  -27.2336  -27.4052   20.1388 C   0  0  0  0  0  0
  -25.5905  -33.8622   24.2337 N   0  0  0  0  0  0
  -23.4040  -30.4895   21.5487 C   0  0  2  0  0  0
  -24.8564  -28.9535   20.1164 C   0  0  0  0  0  0
  -22.7382  -29.4664   22.4951 C   0  0  0  0  0  0
  -18.0269  -28.1376   22.8501 C   0  0  0  0  0  0
  -24.1498  -36.7306   23.2627 C   0  0  0  0  0  0
  -25.9324  -30.8292   21.3673 C   0  0  0  0  0  0
  -26.0169  -29.4634   20.7138 C   0  0  0  0  0  0
  -27.2118  -28.7009   20.7119 C   0  0  0  0  0  0
  -26.0610  -26.9201   19.5247 C   0  0  0  0  0  0
  -24.8762  -27.6839   19.5104 C   0  0  0  0  0  0
  -23.6190  -29.8231   20.1642 C   0  0  0  0  0  0
  -25.4111  -36.3095   24.0328 C   0  0  1  0  0  0
  -20.5861  -28.3691   23.1308 C   0  0  2  0  0  0
  -20.6766  -26.9423   22.5424 C   0  0  0  0  0  0
  -19.5754  -26.6390   21.5213 C   0  0  0  0  0  0
  -18.1919  -26.7931   22.1618 C   0  0  0  0  0  0
  -19.1531  -28.8840   23.2909 C   0  0  0  0  0  0
  -18.9460  -30.1434   23.8928 C   0  0  0  0  0  0
  -17.6470  -30.6590   24.0571 C   0  0  0  0  0  0
  -25.9044  -34.9469   23.5119 C   0  0  0  0  0  0
  -16.5342  -29.9099   23.6318 C   0  0  0  0  0  0
  -16.7261  -28.6504   23.0345 C   0  0  0  0  0  0
  -26.4486  -31.6567   25.0699 C   0  0  0  0  0  0
  -25.3756  -31.3721   26.1451 C   0  0  0  0  0  0
  -27.0307  -30.2994   24.6079 C   0  0  0  0  0  0
  -27.6058  -32.4300   25.7440 C   0  0  0  0  0  0
  -27.5591  -37.1797   24.8453 C   0  0  0  0  0  0
  -21.4119  -29.3051   22.3677 N   0  0  0  0  0  0
  -26.4308  -37.3778   23.9395 N   0  0  0  0  0  0
  -24.6658  -31.0763   22.0996 N   0  0  0  0  0  0
  -23.4133  -28.8214   23.3020 O   0  0  0  0  0  0
  -28.3600  -26.6003   20.1816 O   0  0  0  0  0  0
  -26.5602  -34.8923   22.4679 O   0  0  0  0  0  0
  -23.5334  -32.1459   23.7441 O   0  0  0  0  0  0
  -26.6278  -18.2337   19.9965 C   0  0  0  0  0  0
  -26.7623  -19.6297   20.1234 C   0  0  0  0  0  0
  -28.0748  -20.0524   20.5002 C   0  0  0  0  0  0
  -28.6265  -17.8158   21.0158 C   0  0  0  0  0  0
  -24.2810  -19.9573   20.6153 C   0  0  0  0  0  0
  -25.1626  -20.4590   18.3224 C   0  0  0  0  0  0
  -25.5721  -21.9807   20.2366 C   0  0  0  0  0  0
  -29.7243  -17.6040   23.2481 C   0  0  0  0  0  0
  -28.3255  -15.8253   22.5638 C   0  0  0  0  0  0
  -31.7301  -15.7619   22.5344 C   0  0  0  0  0  0
  -28.6747  -21.4322   20.0866 C   0  0  0  0  0  0
  -28.5951  -22.7097   21.0072 C   0  0  0  0  0  0
  -28.6694  -24.0747   20.2118 C   0  0  0  0  0  0
  -28.2181  -25.3752   20.9539 C   0  0  0  0  0  0
  -25.5033  -20.5003   19.8216 C   0  0  0  0  0  0
  -29.3764  -16.7768   21.9543 C   0  0  0  0  0  0
  -30.7120  -16.0129   21.3702 C   0  0  2  0  0  0
  -31.4150  -17.1025   20.4433 C   0  0  0  0  0  0
  -27.5578  -17.3467   20.3839 N   0  0  0  0  0  0
  -28.9458  -19.1296   21.0148 N   0  0  0  0  0  0
  -30.7483  -17.2528   19.2950 F   0  0  0  0  0  0
  -32.6885  -16.8443   20.1207 F   0  0  0  0  0  0
  -31.5261  -18.2870   21.0325 F   0  0  0  0  0  0
  -31.4379  -12.3704   19.1634 H   0  0  0  0  0  0
  -30.2501  -11.3781   19.8761 H   0  0  0  0  0  0
  -29.7670  -11.8079   17.4810 H   0  0  0  0  0  0
  -29.6541  -13.5320   17.7837 H   0  0  0  0  0  0
  -27.8483  -11.3391   18.8751 H   0  0  0  0  0  0
  -27.3389  -12.6275   17.8103 H   0  0  0  0  0  0
  -27.6739  -14.2776   19.5693 H   0  0  0  0  0  0
  -28.7418  -11.9810   21.2712 H   0  0  0  0  0  0
  -28.4908  -13.4667   21.9540 H   0  0  0  0  0  0
  -25.2950   -9.5357   22.4512 H   0  0  0  0  0  0
  -24.0181   -7.4349   22.7142 H   0  0  0  0  0  0
  -21.0937   -8.8507   19.8812 H   0  0  0  0  0  0
  -22.3471  -10.9633   19.6344 H   0  0  0  0  0  0
  -21.2004   -7.6222   23.9770 H   0  0  0  0  0  0
  -21.1488   -6.0667   25.9134 H   0  0  0  0  0  0
  -22.0624   -2.7698   23.2952 H   0  0  0  0  0  0
  -22.4057  -11.9230   22.4025 H   0  0  0  0  0  0
  -21.0823  -13.0447   22.2122 H   0  0  0  0  0  0
  -24.6329  -15.8246   20.6755 H   0  0  0  0  0  0
  -26.2755  -15.6535   20.2688 H   0  0  0  0  0  0
  -26.7056  -32.5519   23.1136 H   0  0  0  0  0  0
  -25.0032  -33.9803   25.0459 H   0  0  0  0  0  0
  -22.6950  -31.3068   21.4093 H   0  0  0  0  0  0
  -23.3755  -35.9649   23.3287 H   0  0  0  0  0  0
  -24.3588  -36.8920   22.2045 H   0  0  0  0  0  0
  -23.7279  -37.6514   23.6652 H   0  0  0  0  0  0
  -26.0434  -31.5996   20.6040 H   0  0  0  0  0  0
  -26.8171  -30.8835   21.9870 H   0  0  0  0  0  0
  -28.1013  -29.0895   21.1875 H   0  0  0  0  0  0
  -26.0597  -25.9332   19.0826 H   0  0  0  0  0  0
  -23.9893  -27.2858   19.0355 H   0  0  0  0  0  0
  -23.7274  -30.6034   19.4110 H   0  0  0  0  0  0
  -22.7459  -29.2445   19.8620 H   0  0  0  0  0  0
  -25.1288  -36.1954   25.0827 H   0  0  0  0  0  0
  -20.9963  -28.3287   24.1432 H   0  0  0  0  0  0
  -20.5675  -26.2305   23.3618 H   0  0  0  0  0  0
  -21.6637  -26.7473   22.1222 H   0  0  0  0  0  0
  -19.6947  -25.6306   21.1236 H   0  0  0  0  0  0
  -19.6706  -27.3209   20.6754 H   0  0  0  0  0  0
  -17.4195  -26.6683   21.3997 H   0  0  0  0  0  0
  -18.0341  -26.0056   22.9015 H   0  0  0  0  0  0
  -19.7930  -30.7236   24.2313 H   0  0  0  0  0  0
  -17.5018  -31.6275   24.5169 H   0  0  0  0  0  0
  -15.5342  -30.3012   23.7610 H   0  0  0  0  0  0
  -15.8658  -28.0807   22.7066 H   0  0  0  0  0  0
  -24.5924  -30.7061   25.7816 H   0  0  0  0  0  0
  -24.8957  -32.2906   26.4856 H   0  0  0  0  0  0
  -25.8114  -30.8935   27.0230 H   0  0  0  0  0  0
  -26.2890  -29.6773   24.1060 H   0  0  0  0  0  0
  -27.3997  -29.7200   25.4550 H   0  0  0  0  0  0
  -27.8758  -30.4285   23.9308 H   0  0  0  0  0  0
  -27.2675  -33.3594   26.2053 H   0  0  0  0  0  0
  -28.3854  -32.6881   25.0249 H   0  0  0  0  0  0
  -28.0756  -31.8405   26.5325 H   0  0  0  0  0  0
  -28.2578  -38.0120   24.7488 H   0  0  0  0  0  0
  -28.1123  -36.2641   24.6283 H   0  0  0  0  0  0
  -27.2313  -37.1442   25.8861 H   0  0  0  0  0  0
  -20.9244  -29.8739   21.6882 H   0  0  0  0  0  0
  -26.0178  -38.2843   24.1420 H   0  0  0  0  0  0
  -25.7206  -17.7969   19.6050 H   0  0  0  0  0  0
  -23.9835  -18.9508   20.3172 H   0  0  0  0  0  0
  -23.4001  -20.5914   20.4748 H   0  0  0  0  0  0
  -24.4727  -19.9356   21.6932 H   0  0  0  0  0  0
  -24.9130  -19.4512   17.9884 H   0  0  0  0  0  0
  -25.9828  -20.8405   17.7104 H   0  0  0  0  0  0
  -24.2919  -21.0861   18.1142 H   0  0  0  0  0  0
  -25.7213  -22.0977   21.3108 H   0  0  0  0  0  0
  -24.6368  -22.4991   20.0122 H   0  0  0  0  0  0
  -26.3169  -22.5390   19.6844 H   0  0  0  0  0  0
  -28.8744  -18.1917   23.5998 H   0  0  0  0  0  0
  -30.5226  -18.3302   23.1054 H   0  0  0  0  0  0
  -30.0054  -16.9730   24.0909 H   0  0  0  0  0  0
  -27.7484  -15.3291   21.7927 H   0  0  0  0  0  0
  -27.5767  -16.3688   23.1417 H   0  0  0  0  0  0
  -28.7737  -15.0931   23.2356 H   0  0  0  0  0  0
  -32.0773  -16.6833   23.0012 H   0  0  0  0  0  0
  -32.6498  -15.2907   22.1804 H   0  0  0  0  0  0
  -31.3196  -15.1133   23.3091 H   0  0  0  0  0  0
  -28.2373  -21.6666   19.1187 H   0  0  0  0  0  0
  -29.7283  -21.2771   19.8452 H   0  0  0  0  0  0
  -29.3778  -22.6523   21.7646 H   0  0  0  0  0  0
  -27.6808  -22.7155   21.5869 H   0  0  0  0  0  0
  -28.0416  -23.9960   19.3255 H   0  0  0  0  0  0
  -29.6861  -24.2072   19.8421 H   0  0  0  0  0  0
  -28.8063  -25.5061   21.8631 H   0  0  0  0  0  0
  -27.1844  -25.2420   21.2889 H   0  0  0  0  0  0
  1 25  1  0  0  0
  1 30  2  0  0  0
  1 87  1  0  0  0
  2  3  1  0  0  0
  2 25  1  0  0  0
  2 94  1  0  0  0
  2 95  1  0  0  0
  3  4  1  0  0  0
  3 96  1  0  0  0
  3 97  1  0  0  0
  4  5  1  0  0  0
  4 98  1  0  0  0
  4 99  1  0  0  0
  5  6  1  0  0  0
  5 26  1  0  0  0
  5100  1  0  0  0
  6 25  1  0  0  0
  6101  1  0  0  0
  6102  1  0  0  0
  7  8  2  0  0  0
  7 26  1  0  0  0
  7 29  1  0  0  0
  8  9  1  0  0  0
  8 22  1  0  0  0
  9 10  1  0  0  0
  9 27  2  0  0  0
 10 11  2  0  0  0
 10 15  1  0  0  0
 11 12  1  0  0  0
 11103  1  0  0  0
 12 13  2  0  0  0
 12104  1  0  0  0
 13 14  1  0  0  0
 13 31  1  0  0  0
 14 15  2  0  0  0
 14105  1  0  0  0
 15106  1  0  0  0
 16 17  2  0  0  0
 16 21  1  0  0  0
 16 31  1  0  0  0
 17 18  1  0  0  0
 17107  1  0  0  0
 18 19  2  0  0  0
 18108  1  0  0  0
 19 20  1  0  0  0
 19 24  1  0  0  0
 20 21  2  0  0  0
 20109  1  0  0  0
 21 23  1  0  0  0
 22 28  1  0  0  0
 22 32  2  0  0  0
 26 27  1  0  0  0
 28110  1  0  0  0
 28111  1  0  0  0
 29112  1  0  0  0
 29113  1  0  0  0
 33 34  1  0  0  0
 33 66  1  0  0  0
 33 70  2  0  0  0
 34 36  1  0  0  0
 34 59  1  0  0  0
 34114  1  0  0  0
 35 44  2  0  0  0
 35 45  1  0  0  0
 35 68  1  0  0  0
 36 56  1  0  0  0
 36115  1  0  0  0
 37 39  1  0  0  0
 37 47  1  0  0  0
 37 66  1  0  0  0
 37116  1  0  0  0
 38 43  2  0  0  0
 38 46  1  0  0  0
 38 47  1  0  0  0
 39 64  1  0  0  0
 39 67  2  0  0  0
 40 52  1  0  0  0
 40 53  2  0  0  0
 40 58  1  0  0  0
 41117  1  0  0  0
 41118  1  0  0  0
 41119  1  0  0  0
 41 48  1  0  0  0
 42 43  1  0  0  0
 42 66  1  0  0  0
 42120  1  0  0  0
 42121  1  0  0  0
 43 44  1  0  0  0
 44122  1  0  0  0
 45 46  2  0  0  0
 45123  1  0  0  0
 46124  1  0  0  0
 47125  1  0  0  0
 47126  1  0  0  0
 48 56  1  0  0  0
 48 65  1  0  0  0
 48127  1  0  0  0
 49 50  1  0  0  0
 49 53  1  0  0  0
 49 64  1  0  0  0
 49128  1  0  0  0
 50 51  1  0  0  0
 50129  1  0  0  0
 50130  1  0  0  0
 51 52  1  0  0  0
 51131  1  0  0  0
 51132  1  0  0  0
 52133  1  0  0  0
 52134  1  0  0  0
 53 54  1  0  0  0
 54 55  2  0  0  0
 54135  1  0  0  0
 55 57  1  0  0  0
 55136  1  0  0  0
 56 69  2  0  0  0
 57 58  2  0  0  0
 57137  1  0  0  0
 58138  1  0  0  0
 59 60  1  0  0  0
 59 61  1  0  0  0
 59 62  1  0  0  0
 60139  1  0  0  0
 60140  1  0  0  0
 60141  1  0  0  0
 61142  1  0  0  0
 61143  1  0  0  0
 61144  1  0  0  0
 62145  1  0  0  0
 62146  1  0  0  0
 62147  1  0  0  0
 63 65  1  0  0  0
 63148  1  0  0  0
 63149  1  0  0  0
 63150  1  0  0  0
 64151  1  0  0  0
 65152  1  0  0  0
 68 84  1  0  0  0
 71 72  2  0  0  0
 71 89  1  0  0  0
 71153  1  0  0  0
 72 73  1  0  0  0
 72 85  1  0  0  0
 73 81  1  0  0  0
 73 90  2  0  0  0
 74 86  1  0  0  0
 74 89  2  0  0  0
 74 90  1  0  0  0
 75154  1  0  0  0
 75155  1  0  0  0
 75156  1  0  0  0
 75 85  1  0  0  0
 76 85  1  0  0  0
 76157  1  0  0  0
 76158  1  0  0  0
 76159  1  0  0  0
 77 85  1  0  0  0
 77160  1  0  0  0
 77161  1  0  0  0
 77162  1  0  0  0
 78163  1  0  0  0
 78164  1  0  0  0
 78165  1  0  0  0
 78 86  1  0  0  0
 79 86  1  0  0  0
 79166  1  0  0  0
 79167  1  0  0  0
 79168  1  0  0  0
 80169  1  0  0  0
 80170  1  0  0  0
 80171  1  0  0  0
 80 87  1  0  0  0
 81 82  1  0  0  0
 81172  1  0  0  0
 81173  1  0  0  0
 82 83  1  0  0  0
 82174  1  0  0  0
 82175  1  0  0  0
 83 84  1  0  0  0
 83176  1  0  0  0
 83177  1  0  0  0
 84178  1  0  0  0
 84179  1  0  0  0
 86 87  1  0  0  0
 87 88  1  0  0  0
 88 91  1  0  0  0
 88 92  1  0  0  0
 88 93  1  0  0  0
M  ISO  4   1 100  68 101  84 101  87 100
M  END
> <chiral flag>
0

> <version>
0

> <s_m_source_file>
/data/baiqing/PycharmProjects/Reinvent-master-3.2/result/LINK_invent/BTK/process_docking_weight1_custom_sum_contain_oxygen_bond_distance_aromatic_linkinvent_7_9_3/rearranged_h_0067.sdf

> <i_m_source_file_index>
91

> <r_mmod_Potential_Energy-OPLS-2005>
-46.097412109375

> <r_mmod_Stretch_Energy-OPLS-2005>
111.554046630859

> <r_mmod_Bend_Energy-OPLS-2005>
293.988067626953

> <r_mmod_Torsional_Energy-OPLS-2005>
223.861572265625

> <r_mmod_Improper_Torsional_Energy-OPLS-2005>
4.95307016372681

> <r_mmod_Van_der_Waal_Energy-OPLS-2005>
230.518463134766

> <r_mmod_Electrostatic_Energy-OPLS-2005>
-770.0439453125

> <r_mmod_Solvation_Energy-OPLS-2005>
-175.210678100586

> <b_mmod_Minimization_Converged-OPLS-2005>
0

> <r_mmod_RMS_Derivative-OPLS-2005>
7.63938474655151

$$$$
94
                    3D
 Structure written by MMmdl.
172180  0  0  1  0            999 V2000
  -30.7982  -14.4279   20.7162 C   0  0  0  0  0  0
  -30.4061  -12.3342   19.4343 C   0  0  0  0  0  0
  -29.4962  -12.5555   18.2085 C   0  0  0  0  0  0
  -28.0169  -12.3903   18.5984 C   0  0  0  0  0  0
  -27.6626  -13.2033   19.8675 C   0  0  2  0  0  0
  -28.6931  -12.9323   20.9829 C   0  0  0  0  0  0
  -25.2575  -13.8139   20.5594 C   0  0  0  0  0  0
  -24.1842  -13.0408   20.9152 C   0  0  0  0  0  0
  -24.6414  -11.6890   20.8710 C   0  0  0  0  0  0
  -23.9084  -10.4273   21.0412 C   0  0  0  0  0  0
  -24.3647   -9.4183   21.9192 C   0  0  0  0  0  0
  -23.6310   -8.2227   22.0756 C   0  0  0  0  0  0
  -22.4286   -8.0280   21.3562 C   0  0  0  0  0  0
  -21.9934   -9.0249   20.4659 C   0  0  0  0  0  0
  -22.7262  -10.2127   20.3053 C   0  0  0  0  0  0
  -21.6844   -6.0728   22.5285 C   0  0  0  0  0  0
  -21.4002   -6.5638   23.8220 C   0  0  0  0  0  0
  -21.3668   -5.6793   24.9194 C   0  0  0  0  0  0
  -21.6062   -4.3057   24.7243 C   0  0  0  0  0  0
  -21.8824   -3.8148   23.4364 C   0  0  0  0  0  0
  -21.9186   -4.6955   22.3415 C   0  0  0  0  0  0
  -22.7863  -13.5199   21.1853 C   0  0  0  0  0  0
  -22.1657   -4.2141   21.1001 F   0  0  0  0  0  0
  -21.5654   -3.4555   25.7760 F   0  0  0  0  0  0
  -30.0338  -13.3020   20.4971 N   0  0  0  0  0  0
  -26.3011  -12.9309   20.3251 N   0  0  0  0  0  0
  -25.9314  -11.6472   20.5663 N   0  0  0  0  0  0
  -22.0525  -12.8163   22.0417 N   0  0  0  0  0  0
  -25.4247  -15.1845   20.3980 N   0  0  0  0  0  0
  -31.7612  -14.6016   19.9562 O   0  0  0  0  0  0
  -21.6644   -6.8882   21.4253 O   0  0  0  0  0  0
  -22.3521  -14.5506   20.6740 O   0  0  0  0  0  0
  -24.6143  -31.8685   23.2094 C   0  0  0  0  0  0
  -25.9047  -32.4814   23.8389 C   0  0  1  0  0  0
  -27.2374  -27.4317   20.0838 C   0  0  0  0  0  0
  -25.5892  -33.8616   24.2298 N   0  0  0  0  0  0
  -23.4009  -30.4927   21.5510 C   0  0  2  0  0  0
  -24.8456  -28.9610   20.1137 C   0  0  0  0  0  0
  -22.7394  -29.4669   22.4998 C   0  0  0  0  0  0
  -18.0267  -28.1370   22.8497 C   0  0  0  0  0  0
  -24.1483  -36.7316   23.2636 C   0  0  0  0  0  0
  -25.9316  -30.8334   21.3628 C   0  0  0  0  0  0
  -26.0078  -29.4686   20.7065 C   0  0  0  0  0  0
  -27.2026  -28.7115   20.6898 C   0  0  0  0  0  0
  -26.0509  -26.9449   19.4819 C   0  0  0  0  0  0
  -24.8619  -27.6969   19.5033 C   0  0  0  0  0  0
  -23.6076  -29.8266   20.1657 C   0  0  0  0  0  0
  -25.4106  -36.3105   24.0331 C   0  0  1  0  0  0
  -20.5849  -28.3656   23.1323 C   0  0  2  0  0  0
  -20.6754  -26.9392   22.5420 C   0  0  0  0  0  0
  -19.5737  -26.6378   21.5209 C   0  0  0  0  0  0
  -18.1915  -26.7918   22.1623 C   0  0  0  0  0  0
  -19.1513  -28.8832   23.2904 C   0  0  0  0  0  0
  -18.9447  -30.1442   23.8904 C   0  0  0  0  0  0
  -17.6452  -30.6584   24.0563 C   0  0  0  0  0  0
  -25.9045  -34.9475   23.5114 C   0  0  0  0  0  0
  -16.5344  -29.9087   23.6321 C   0  0  0  0  0  0
  -16.7260  -28.6500   23.0347 C   0  0  0  0  0  0
  -26.4461  -31.6606   25.0734 C   0  0  0  0  0  0
  -25.3720  -31.3739   26.1476 C   0  0  0  0  0  0
  -27.0283  -30.3037   24.6135 C   0  0  0  0  0  0
  -27.6014  -32.4342   25.7512 C   0  0  0  0  0  0
  -27.5584  -37.1802   24.8460 C   0  0  0  0  0  0
  -21.4121  -29.3035   22.3738 N   0  0  0  0  0  0
  -26.4284  -37.3799   23.9421 N   0  0  0  0  0  0
  -24.6676  -31.0782   22.0999 N   0  0  0  0  0  0
  -23.4168  -28.8223   23.3053 O   0  0  0  0  0  0
  -28.4186  -26.7070   20.1122 O   0  0  0  0  0  0
  -26.5618  -34.8930   22.4682 O   0  0  0  0  0  0
  -23.5340  -32.1443   23.7494 O   0  0  0  0  0  0
  -29.5058  -18.2627   19.5759 C   0  0  0  0  0  0
  -30.3237  -19.3444   19.9865 C   0  0  0  0  0  0
  -30.5580  -16.9217   21.1244 C   0  0  0  0  0  0
  -28.4899  -18.3611   18.4541 C   0  0  0  0  0  0
  -32.1170  -15.4500   22.5221 C   0  0  0  0  0  0
  -28.1660  -15.7640   22.6085 C   0  0  0  0  0  0
  -29.7319  -14.1107   23.8544 C   0  0  0  0  0  0
  -29.8364  -16.5363   24.1611 C   0  0  0  0  0  0
  -30.3552  -20.7051   19.2791 C   0  0  0  0  0  0
  -29.9381  -21.9341   20.1264 C   0  0  0  0  0  0
  -29.8528  -23.2245   19.2689 C   0  0  0  0  0  0
  -29.6593  -24.5612   20.0403 C   0  0  0  0  0  0
  -28.4193  -25.3664   19.5943 C   0  0  0  0  0  0
  -30.6927  -15.5443   21.8639 C   0  0  1  0  0  0
  -29.6214  -15.4494   23.0624 C   0  0  0  0  0  0
  -29.6277  -17.0501   20.1627 N   0  0  0  0  0  0
  -31.2217  -19.1562   20.9827 N   0  0  0  0  0  0
  -31.3213  -17.9507   21.5649 N   0  0  0  0  0  0
  -31.4546  -12.3898   19.1406 H   0  0  0  0  0  0
  -30.2880  -11.3151   19.8070 H   0  0  0  0  0  0
  -29.7564  -11.8606   17.4102 H   0  0  0  0  0  0
  -29.6572  -13.5576   17.8071 H   0  0  0  0  0  0
  -27.8292  -11.3301   18.7684 H   0  0  0  0  0  0
  -27.3744  -12.6852   17.7687 H   0  0  0  0  0  0
  -27.7197  -14.2557   19.5910 H   0  0  0  0  0  0
  -28.6864  -11.8707   21.2363 H   0  0  0  0  0  0
  -28.3677  -13.3936   21.8959 H   0  0  0  0  0  0
  -25.2799   -9.5638   22.4760 H   0  0  0  0  0  0
  -24.0027   -7.4601   22.7451 H   0  0  0  0  0  0
  -21.0881   -8.8781   19.8931 H   0  0  0  0  0  0
  -22.3759  -10.9675   19.6153 H   0  0  0  0  0  0
  -21.1979   -7.6145   23.9722 H   0  0  0  0  0  0
  -21.1488   -6.0534   25.9105 H   0  0  0  0  0  0
  -22.0595   -2.7608   23.2876 H   0  0  0  0  0  0
  -22.4181  -11.9818   22.4772 H   0  0  0  0  0  0
  -21.1132  -13.1136   22.2642 H   0  0  0  0  0  0
  -24.6670  -15.8434   20.5349 H   0  0  0  0  0  0
  -26.2925  -15.6299   20.1269 H   0  0  0  0  0  0
  -26.7122  -32.5512   23.1155 H   0  0  0  0  0  0
  -25.0016  -33.9773   25.0422 H   0  0  0  0  0  0
  -22.6899  -31.3100   21.4121 H   0  0  0  0  0  0
  -23.3743  -35.9650   23.3288 H   0  0  0  0  0  0
  -24.3581  -36.8951   22.2055 H   0  0  0  0  0  0
  -23.7232  -37.6512   23.6667 H   0  0  0  0  0  0
  -26.0431  -31.6048   20.5988 H   0  0  0  0  0  0
  -26.8188  -30.8813   21.9839 H   0  0  0  0  0  0
  -28.0986  -29.1083   21.1469 H   0  0  0  0  0  0
  -26.0125  -25.9855   18.9872 H   0  0  0  0  0  0
  -23.9683  -27.2955   19.0452 H   0  0  0  0  0  0
  -23.7123  -30.6015   19.4059 H   0  0  0  0  0  0
  -22.7327  -29.2443   19.8708 H   0  0  0  0  0  0
  -25.1270  -36.1963   25.0820 H   0  0  0  0  0  0
  -20.9923  -28.3214   24.1449 H   0  0  0  0  0  0
  -20.5644  -26.2263   23.3601 H   0  0  0  0  0  0
  -21.6633  -26.7433   22.1222 H   0  0  0  0  0  0
  -19.6900  -25.6286   21.1248 H   0  0  0  0  0  0
  -19.6681  -27.3180   20.6733 H   0  0  0  0  0  0
  -17.4178  -26.6655   21.4031 H   0  0  0  0  0  0
  -18.0331  -26.0052   22.9014 H   0  0  0  0  0  0
  -19.7926  -30.7256   24.2265 H   0  0  0  0  0  0
  -17.5014  -31.6268   24.5164 H   0  0  0  0  0  0
  -15.5345  -30.3003   23.7635 H   0  0  0  0  0  0
  -15.8655  -28.0835   22.7045 H   0  0  0  0  0  0
  -24.5884  -30.7085   25.7832 H   0  0  0  0  0  0
  -24.8922  -32.2907   26.4912 H   0  0  0  0  0  0
  -25.8078  -30.8928   27.0237 H   0  0  0  0  0  0
  -26.2845  -29.6829   24.1123 H   0  0  0  0  0  0
  -27.3947  -29.7254   25.4627 H   0  0  0  0  0  0
  -27.8725  -30.4329   23.9357 H   0  0  0  0  0  0
  -27.2586  -33.3616   26.2114 H   0  0  0  0  0  0
  -28.3815  -32.6947   25.0348 H   0  0  0  0  0  0
  -28.0679  -31.8455   26.5416 H   0  0  0  0  0  0
  -28.2571  -38.0131   24.7534 H   0  0  0  0  0  0
  -28.1099  -36.2653   24.6229 H   0  0  0  0  0  0
  -27.2308  -37.1398   25.8865 H   0  0  0  0  0  0
  -20.9275  -29.8769   21.6969 H   0  0  0  0  0  0
  -26.0161  -38.2869   24.1447 H   0  0  0  0  0  0
  -28.9955  -18.5104   17.4991 H   0  0  0  0  0  0
  -27.8109  -19.1962   18.6210 H   0  0  0  0  0  0
  -27.8875  -17.4552   18.3816 H   0  0  0  0  0  0
  -32.2903  -16.1949   23.2951 H   0  0  0  0  0  0
  -32.9268  -15.6147   21.8109 H   0  0  0  0  0  0
  -32.2917  -14.4726   22.9698 H   0  0  0  0  0  0
  -27.4187  -15.3926   23.3112 H   0  0  0  0  0  0
  -27.9187  -15.3851   21.6251 H   0  0  0  0  0  0
  -27.9964  -16.8386   22.5235 H   0  0  0  0  0  0
  -30.5124  -14.1553   24.6146 H   0  0  0  0  0  0
  -29.9988  -13.2497   23.2478 H   0  0  0  0  0  0
  -28.8064  -13.8732   24.3817 H   0  0  0  0  0  0
  -29.0389  -16.4979   24.9044 H   0  0  0  0  0  0
  -29.8307  -17.5499   23.7586 H   0  0  0  0  0  0
  -30.7584  -16.4160   24.7266 H   0  0  0  0  0  0
  -29.7318  -20.6626   18.3878 H   0  0  0  0  0  0
  -31.3693  -20.8577   18.9083 H   0  0  0  0  0  0
  -30.6563  -22.0680   20.9375 H   0  0  0  0  0  0
  -28.9723  -21.7483   20.5958 H   0  0  0  0  0  0
  -29.0522  -23.1003   18.5376 H   0  0  0  0  0  0
  -30.7651  -23.3058   18.6755 H   0  0  0  0  0  0
  -30.5464  -25.1796   19.8921 H   0  0  0  0  0  0
  -29.6031  -24.3797   21.1146 H   0  0  0  0  0  0
  -27.5446  -24.8081   19.9302 H   0  0  0  0  0  0
  -28.3848  -25.4237   18.5054 H   0  0  0  0  0  0
  1 25  1  0  0  0
  1 30  2  0  0  0
  1 84  1  0  0  0
  2  3  1  0  0  0
  2 25  1  0  0  0
  2 89  1  0  0  0
  2 90  1  0  0  0
  3  4  1  0  0  0
  3 91  1  0  0  0
  3 92  1  0  0  0
  4  5  1  0  0  0
  4 93  1  0  0  0
  4 94  1  0  0  0
  5  6  1  0  0  0
  5 26  1  0  0  0
  5 95  1  0  0  0
  6 25  1  0  0  0
  6 96  1  0  0  0
  6 97  1  0  0  0
  7  8  2  0  0  0
  7 26  1  0  0  0
  7 29  1  0  0  0
  8  9  1  0  0  0
  8 22  1  0  0  0
  9 10  1  0  0  0
  9 27  2  0  0  0
 10 11  2  0  0  0
 10 15  1  0  0  0
 11 12  1  0  0  0
 11 98  1  0  0  0
 12 13  2  0  0  0
 12 99  1  0  0  0
 13 14  1  0  0  0
 13 31  1  0  0  0
 14 15  2  0  0  0
 14100  1  0  0  0
 15101  1  0  0  0
 16 17  2  0  0  0
 16 21  1  0  0  0
 16 31  1  0  0  0
 17 18  1  0  0  0
 17102  1  0  0  0
 18 19  2  0  0  0
 18103  1  0  0  0
 19 20  1  0  0  0
 19 24  1  0  0  0
 20 21  2  0  0  0
 20104  1  0  0  0
 21 23  1  0  0  0
 22 28  1  0  0  0
 22 32  2  0  0  0
 26 27  1  0  0  0
 28105  1  0  0  0
 28106  1  0  0  0
 29107  1  0  0  0
 29108  1  0  0  0
 33 34  1  0  0  0
 33 66  1  0  0  0
 33 70  2  0  0  0
 34 36  1  0  0  0
 34 59  1  0  0  0
 34109  1  0  0  0
 35 44  2  0  0  0
 35 45  1  0  0  0
 35 68  1  0  0  0
 36 56  1  0  0  0
 36110  1  0  0  0
 37 39  1  0  0  0
 37 47  1  0  0  0
 37 66  1  0  0  0
 37111  1  0  0  0
 38 43  2  0  0  0
 38 46  1  0  0  0
 38 47  1  0  0  0
 39 64  1  0  0  0
 39 67  2  0  0  0
 40 52  1  0  0  0
 40 53  2  0  0  0
 40 58  1  0  0  0
 41112  1  0  0  0
 41113  1  0  0  0
 41114  1  0  0  0
 41 48  1  0  0  0
 42 43  1  0  0  0
 42 66  1  0  0  0
 42115  1  0  0  0
 42116  1  0  0  0
 43 44  1  0  0  0
 44117  1  0  0  0
 45 46  2  0  0  0
 45118  1  0  0  0
 46119  1  0  0  0
 47120  1  0  0  0
 47121  1  0  0  0
 48 56  1  0  0  0
 48 65  1  0  0  0
 48122  1  0  0  0
 49 50  1  0  0  0
 49 53  1  0  0  0
 49 64  1  0  0  0
 49123  1  0  0  0
 50 51  1  0  0  0
 50124  1  0  0  0
 50125  1  0  0  0
 51 52  1  0  0  0
 51126  1  0  0  0
 51127  1  0  0  0
 52128  1  0  0  0
 52129  1  0  0  0
 53 54  1  0  0  0
 54 55  2  0  0  0
 54130  1  0  0  0
 55 57  1  0  0  0
 55131  1  0  0  0
 56 69  2  0  0  0
 57 58  2  0  0  0
 57132  1  0  0  0
 58133  1  0  0  0
 59 60  1  0  0  0
 59 61  1  0  0  0
 59 62  1  0  0  0
 60134  1  0  0  0
 60135  1  0  0  0
 60136  1  0  0  0
 61137  1  0  0  0
 61138  1  0  0  0
 61139  1  0  0  0
 62140  1  0  0  0
 62141  1  0  0  0
 62142  1  0  0  0
 63 65  1  0  0  0
 63143  1  0  0  0
 63144  1  0  0  0
 63145  1  0  0  0
 64146  1  0  0  0
 65147  1  0  0  0
 68 83  1  0  0  0
 71 72  2  0  0  0
 71 74  1  0  0  0
 71 86  1  0  0  0
 72 79  1  0  0  0
 72 87  1  0  0  0
 73 84  1  0  0  0
 73 86  2  0  0  0
 73 88  1  0  0  0
 74148  1  0  0  0
 74149  1  0  0  0
 74150  1  0  0  0
 75151  1  0  0  0
 75152  1  0  0  0
 75153  1  0  0  0
 75 84  1  0  0  0
 76154  1  0  0  0
 76155  1  0  0  0
 76156  1  0  0  0
 76 85  1  0  0  0
 77 85  1  0  0  0
 77157  1  0  0  0
 77158  1  0  0  0
 77159  1  0  0  0
 78 85  1  0  0  0
 78160  1  0  0  0
 78161  1  0  0  0
 78162  1  0  0  0
 79 80  1  0  0  0
 79163  1  0  0  0
 79164  1  0  0  0
 80 81  1  0  0  0
 80165  1  0  0  0
 80166  1  0  0  0
 81 82  1  0  0  0
 81167  1  0  0  0
 81168  1  0  0  0
 82 83  1  0  0  0
 82169  1  0  0  0
 82170  1  0  0  0
 83171  1  0  0  0
 83172  1  0  0  0
 84 85  1  0  0  0
 87 88  2  0  0  0
M  ISO  4   1 100  68 101  83 101  84 100
M  END
> <chiral flag>
0

> <version>
0

> <s_m_source_file>
/data/baiqing/PycharmProjects/Reinvent-master-3.2/result/LINK_invent/BTK/process_docking_weight1_custom_sum_contain_oxygen_bond_distance_aromatic_linkinvent_7_9_3/rearranged_h_0067.sdf

> <i_m_source_file_index>
92

> <r_mmod_Potential_Energy-OPLS-2005>
300.67822265625

> <r_mmod_Stretch_Energy-OPLS-2005>
69.8647384643555

> <r_mmod_Bend_Energy-OPLS-2005>
183.197708129883

> <r_mmod_Torsional_Energy-OPLS-2005>
177.924865722656

> <r_mmod_Improper_Torsional_Energy-OPLS-2005>
2.41943192481995

> <r_mmod_Van_der_Waal_Energy-OPLS-2005>
199.208862304688

> <r_mmod_Electrostatic_Energy-OPLS-2005>
-150.226776123047

> <r_mmod_Solvation_Energy-OPLS-2005>
-195.21598815918

> <b_mmod_Minimization_Converged-OPLS-2005>
0

> <r_mmod_RMS_Derivative-OPLS-2005>
2.58024287223816

$$$$
95
                    3D
 Structure written by MMmdl.
182190  0  0  1  0            999 V2000
  -30.7198  -14.6479   20.2987 C   0  0  0  0  0  0
  -30.3794  -12.3874   19.4004 C   0  0  0  0  0  0
  -29.4564  -12.4215   18.1717 C   0  0  0  0  0  0
  -27.9871  -12.3123   18.6108 C   0  0  0  0  0  0
  -27.6192  -13.2372   19.8070 C   0  0  2  0  0  0
  -28.6841  -13.2466   20.9140 C   0  0  0  0  0  0
  -25.2456  -13.8149   20.5699 C   0  0  0  0  0  0
  -24.1801  -13.0438   20.9318 C   0  0  0  0  0  0
  -24.6404  -11.6918   20.8808 C   0  0  0  0  0  0
  -23.9073  -10.4300   21.0422 C   0  0  0  0  0  0
  -24.3635   -9.4184   21.9190 C   0  0  0  0  0  0
  -23.6317   -8.2218   22.0726 C   0  0  0  0  0  0
  -22.4299   -8.0266   21.3524 C   0  0  0  0  0  0
  -21.9943   -9.0240   20.4632 C   0  0  0  0  0  0
  -22.7242  -10.2130   20.3062 C   0  0  0  0  0  0
  -21.6831   -6.0753   22.5278 C   0  0  0  0  0  0
  -21.3982   -6.5645   23.8223 C   0  0  0  0  0  0
  -21.3638   -5.6797   24.9191 C   0  0  0  0  0  0
  -21.6031   -4.3059   24.7228 C   0  0  0  0  0  0
  -21.8814   -3.8152   23.4344 C   0  0  0  0  0  0
  -21.9200   -4.6989   22.3413 C   0  0  0  0  0  0
  -22.7840  -13.5179   21.1951 C   0  0  0  0  0  0
  -22.1699   -4.2191   21.0995 F   0  0  0  0  0  0
  -21.5651   -3.4522   25.7730 F   0  0  0  0  0  0
  -29.9595  -13.5151   20.2499 N   0  0  0  0  0  0
  -26.2870  -12.9424   20.3189 N   0  0  0  0  0  0
  -25.9331  -11.6572   20.5793 N   0  0  0  0  0  0
  -22.0518  -12.8216   22.0533 N   0  0  0  0  0  0
  -25.4109  -15.1799   20.3929 N   0  0  0  0  0  0
  -31.8972  -14.4860   20.6080 O   0  0  0  0  0  0
  -21.6616   -6.8876   21.4233 O   0  0  0  0  0  0
  -22.3498  -14.5405   20.6633 O   0  0  0  0  0  0
  -24.6225  -31.8604   23.2039 C   0  0  0  0  0  0
  -25.9093  -32.4786   23.8345 C   0  0  1  0  0  0
  -27.2118  -27.3574   20.1044 C   0  0  0  0  0  0
  -25.5893  -33.8582   24.2267 N   0  0  0  0  0  0
  -23.4096  -30.4865   21.5480 C   0  0  2  0  0  0
  -24.8484  -28.9451   20.1094 C   0  0  0  0  0  0
  -22.7435  -29.4642   22.4987 C   0  0  0  0  0  0
  -18.0283  -28.1381   22.8491 C   0  0  0  0  0  0
  -24.1484  -36.7259   23.2632 C   0  0  0  0  0  0
  -25.9415  -30.8115   21.3566 C   0  0  0  0  0  0
  -26.0156  -29.4384   20.7015 C   0  0  0  0  0  0
  -27.2005  -28.6566   20.6858 C   0  0  0  0  0  0
  -26.0121  -26.8884   19.5170 C   0  0  0  0  0  0
  -24.8469  -27.6757   19.5092 C   0  0  0  0  0  0
  -23.6113  -29.8122   20.1669 C   0  0  0  0  0  0
  -25.4116  -36.3074   24.0314 C   0  0  1  0  0  0
  -20.5873  -28.3677   23.1297 C   0  0  2  0  0  0
  -20.6806  -26.9418   22.5394 C   0  0  0  0  0  0
  -19.5780  -26.6383   21.5213 C   0  0  0  0  0  0
  -18.1965  -26.7914   22.1653 C   0  0  0  0  0  0
  -19.1546  -28.8843   23.2869 C   0  0  0  0  0  0
  -18.9486  -30.1456   23.8849 C   0  0  0  0  0  0
  -17.6491  -30.6583   24.0562 C   0  0  0  0  0  0
  -25.9042  -34.9440   23.5098 C   0  0  0  0  0  0
  -16.5368  -29.9081   23.6345 C   0  0  0  0  0  0
  -16.7303  -28.6498   23.0347 C   0  0  0  0  0  0
  -26.4495  -31.6556   25.0665 C   0  0  0  0  0  0
  -25.3701  -31.3652   26.1357 C   0  0  0  0  0  0
  -27.0315  -30.2994   24.6027 C   0  0  0  0  0  0
  -27.6080  -32.4273   25.7413 C   0  0  0  0  0  0
  -27.5569  -37.1802   24.8467 C   0  0  0  0  0  0
  -21.4153  -29.3084   22.3749 N   0  0  0  0  0  0
  -26.4285  -37.3784   23.9394 N   0  0  0  0  0  0
  -24.6777  -31.0662   22.0963 N   0  0  0  0  0  0
  -23.4178  -28.8199   23.3041 O   0  0  0  0  0  0
  -28.3681  -26.5841   20.1559 O   0  0  0  0  0  0
  -26.5637  -34.8907   22.4682 O   0  0  0  0  0  0
  -23.5406  -32.1403   23.7388 O   0  0  0  0  0  0
  -27.7587  -18.3731   18.5014 C   0  0  0  0  0  0
  -27.5679  -18.2150   19.8339 C   0  0  0  0  0  0
  -29.2686  -16.8356   19.1527 C   0  0  0  0  0  0
  -26.4447  -18.2596   22.0942 C   0  0  0  0  0  0
  -25.1477  -18.6300   20.0015 C   0  0  0  0  0  0
  -31.5256  -17.0300   19.9475 C   0  0  0  0  0  0
  -31.2092  -15.4488   18.0261 C   0  0  0  0  0  0
  -28.9672  -19.3568   16.1782 C   0  0  0  0  0  0
  -28.6181  -16.9377   15.7091 C   0  0  0  0  0  0
  -30.8563  -17.8617   16.3955 C   0  0  0  0  0  0
  -27.2341  -22.9060   20.0135 C   0  0  0  0  0  0
  -27.6363  -21.3829   20.0917 C   0  0  0  0  0  0
  -28.2536  -23.9908   20.4997 C   0  0  0  0  0  0
  -26.5912  -20.4874   20.8339 C   0  0  0  0  0  0
  -28.4313  -25.2504   19.5677 C   0  0  0  0  0  0
  -26.5025  -18.9025   20.6926 C   0  0  0  0  0  0
  -30.5660  -15.9514   19.3489 C   0  0  0  0  0  0
  -29.3373  -17.9083   16.6626 C   0  0  0  0  0  0
  -28.8687  -17.6678   18.1058 N   0  0  0  0  0  0
  -28.4775  -17.2302   20.1886 N   0  3  0  0  0  0
  -31.4265  -12.4510   19.0950 H   0  0  0  0  0  0
  -30.2769  -11.4396   19.9318 H   0  0  0  0  0  0
  -29.7047  -11.6016   17.4943 H   0  0  0  0  0  0
  -29.5849  -13.3336   17.5964 H   0  0  0  0  0  0
  -27.8109  -11.2679   18.8678 H   0  0  0  0  0  0
  -27.3279  -12.5252   17.7689 H   0  0  0  0  0  0
  -27.5911  -14.2464   19.4012 H   0  0  0  0  0  0
  -28.7104  -12.2966   21.4488 H   0  0  0  0  0  0
  -28.4514  -14.0134   21.6578 H   0  0  0  0  0  0
  -25.2763   -9.5644   22.4804 H   0  0  0  0  0  0
  -23.9997   -7.4554   22.7423 H   0  0  0  0  0  0
  -21.0871   -8.8690   19.8935 H   0  0  0  0  0  0
  -22.3631  -10.9668   19.6205 H   0  0  0  0  0  0
  -21.1918   -7.6141   23.9723 H   0  0  0  0  0  0
  -21.1490   -6.0545   25.9107 H   0  0  0  0  0  0
  -22.0615   -2.7622   23.2813 H   0  0  0  0  0  0
  -22.4021  -11.9695   22.4681 H   0  0  0  0  0  0
  -21.1098  -13.1162   22.2646 H   0  0  0  0  0  0
  -24.6173  -15.8073   20.4452 H   0  0  0  0  0  0
  -26.1794  -15.5610   19.8613 H   0  0  0  0  0  0
  -26.7125  -32.5457   23.1064 H   0  0  0  0  0  0
  -24.9961  -33.9734   25.0352 H   0  0  0  0  0  0
  -22.7010  -31.3044   21.4062 H   0  0  0  0  0  0
  -23.3754  -35.9585   23.3315 H   0  0  0  0  0  0
  -24.3591  -36.8866   22.2046 H   0  0  0  0  0  0
  -23.7227  -37.6465   23.6637 H   0  0  0  0  0  0
  -26.0466  -31.5729   20.5830 H   0  0  0  0  0  0
  -26.8373  -30.8757   21.9628 H   0  0  0  0  0  0
  -28.1031  -29.0350   21.1474 H   0  0  0  0  0  0
  -25.9350  -25.9018   19.0842 H   0  0  0  0  0  0
  -23.9446  -27.2802   19.0649 H   0  0  0  0  0  0
  -23.6946  -30.5764   19.3934 H   0  0  0  0  0  0
  -22.7363  -29.2162   19.9034 H   0  0  0  0  0  0
  -25.1305  -36.1944   25.0809 H   0  0  0  0  0  0
  -20.9961  -28.3267   24.1412 H   0  0  0  0  0  0
  -20.5751  -26.2286   23.3583 H   0  0  0  0  0  0
  -21.6670  -26.7497   22.1162 H   0  0  0  0  0  0
  -19.6962  -25.6317   21.1214 H   0  0  0  0  0  0
  -19.6686  -27.3212   20.6755 H   0  0  0  0  0  0
  -17.4215  -26.6603   21.4083 H   0  0  0  0  0  0
  -18.0405  -26.0088   22.9084 H   0  0  0  0  0  0
  -19.7955  -30.7302   24.2182 H   0  0  0  0  0  0
  -17.5037  -31.6261   24.5156 H   0  0  0  0  0  0
  -15.5372  -30.2974   23.7671 H   0  0  0  0  0  0
  -15.8695  -28.0822   22.7057 H   0  0  0  0  0  0
  -24.5925  -30.6984   25.7625 H   0  0  0  0  0  0
  -24.8811  -32.2777   26.4756 H   0  0  0  0  0  0
  -25.7993  -30.8819   27.0137 H   0  0  0  0  0  0
  -26.2853  -29.6743   24.1106 H   0  0  0  0  0  0
  -27.4123  -29.7269   25.4497 H   0  0  0  0  0  0
  -27.8671  -30.4325   23.9158 H   0  0  0  0  0  0
  -27.2754  -33.3603   26.1985 H   0  0  0  0  0  0
  -28.3878  -32.6789   25.0201 H   0  0  0  0  0  0
  -28.0752  -31.8369   26.5303 H   0  0  0  0  0  0
  -28.2610  -38.0078   24.7515 H   0  0  0  0  0  0
  -28.1045  -36.2618   24.6303 H   0  0  0  0  0  0
  -27.2285  -37.1461   25.8872 H   0  0  0  0  0  0
  -20.9355  -29.8771   21.6923 H   0  0  0  0  0  0
  -26.0164  -38.2857   24.1413 H   0  0  0  0  0  0
  -27.1919  -19.0233   17.8510 H   0  0  0  0  0  0
  -25.5954  -18.6370   22.6645 H   0  0  0  0  0  0
  -27.3377  -18.4702   22.6794 H   0  0  0  0  0  0
  -26.3110  -17.1799   22.0366 H   0  0  0  0  0  0
  -25.0983  -19.0682   19.0029 H   0  0  0  0  0  0
  -24.3053  -19.0288   20.5644 H   0  0  0  0  0  0
  -24.9578  -17.5769   19.8674 H   0  0  0  0  0  0
  -31.5008  -17.9689   19.3963 H   0  0  0  0  0  0
  -32.5683  -16.7205   19.9504 H   0  0  0  0  0  0
  -31.2572  -17.2753   20.9763 H   0  0  0  0  0  0
  -32.0127  -16.0934   17.6885 H   0  0  0  0  0  0
  -30.4644  -15.3287   17.2476 H   0  0  0  0  0  0
  -31.7365  -14.4942   18.0805 H   0  0  0  0  0  0
  -29.4323  -19.6175   15.2256 H   0  0  0  0  0  0
  -29.2967  -20.1104   16.8954 H   0  0  0  0  0  0
  -27.9056  -19.5090   15.9769 H   0  0  0  0  0  0
  -28.9124  -17.1420   14.6815 H   0  0  0  0  0  0
  -27.5334  -17.0377   15.7516 H   0  0  0  0  0  0
  -28.8567  -15.8984   15.9145 H   0  0  0  0  0  0
  -31.1973  -18.5830   15.6569 H   0  0  0  0  0  0
  -31.1522  -16.9215   15.9357 H   0  0  0  0  0  0
  -31.4407  -18.0817   17.2780 H   0  0  0  0  0  0
  -26.2922  -23.0672   20.5455 H   0  0  0  0  0  0
  -26.9786  -23.1221   18.9763 H   0  0  0  0  0  0
  -27.7485  -21.0256   19.0678 H   0  0  0  0  0  0
  -28.6159  -21.2576   20.5516 H   0  0  0  0  0  0
  -29.2305  -23.5138   20.6169 H   0  0  0  0  0  0
  -27.9837  -24.3090   21.5054 H   0  0  0  0  0  0
  -25.6131  -20.8865   20.5639 H   0  0  0  0  0  0
  -26.6599  -20.7385   21.8927 H   0  0  0  0  0  0
  -27.8369  -25.1700   18.6584 H   0  0  0  0  0  0
  -29.4495  -25.1775   19.1841 H   0  0  0  0  0  0
  -28.5584  -16.8905   21.1432 H   0  0  0  0  0  0
  1 25  1  0  0  0
  1 30  2  0  0  0
  1 87  1  0  0  0
  2  3  1  0  0  0
  2 25  1  0  0  0
  2 91  1  0  0  0
  2 92  1  0  0  0
  3  4  1  0  0  0
  3 93  1  0  0  0
  3 94  1  0  0  0
  4  5  1  0  0  0
  4 95  1  0  0  0
  4 96  1  0  0  0
  5  6  1  0  0  0
  5 26  1  0  0  0
  5 97  1  0  0  0
  6 25  1  0  0  0
  6 98  1  0  0  0
  6 99  1  0  0  0
  7  8  2  0  0  0
  7 26  1  0  0  0
  7 29  1  0  0  0
  8  9  1  0  0  0
  8 22  1  0  0  0
  9 10  1  0  0  0
  9 27  2  0  0  0
 10 11  2  0  0  0
 10 15  1  0  0  0
 11 12  1  0  0  0
 11100  1  0  0  0
 12 13  2  0  0  0
 12101  1  0  0  0
 13 14  1  0  0  0
 13 31  1  0  0  0
 14 15  2  0  0  0
 14102  1  0  0  0
 15103  1  0  0  0
 16 17  2  0  0  0
 16 21  1  0  0  0
 16 31  1  0  0  0
 17 18  1  0  0  0
 17104  1  0  0  0
 18 19  2  0  0  0
 18105  1  0  0  0
 19 20  1  0  0  0
 19 24  1  0  0  0
 20 21  2  0  0  0
 20106  1  0  0  0
 21 23  1  0  0  0
 22 28  1  0  0  0
 22 32  2  0  0  0
 26 27  1  0  0  0
 28107  1  0  0  0
 28108  1  0  0  0
 29109  1  0  0  0
 29110  1  0  0  0
 33 34  1  0  0  0
 33 66  1  0  0  0
 33 70  2  0  0  0
 34 36  1  0  0  0
 34 59  1  0  0  0
 34111  1  0  0  0
 35 44  2  0  0  0
 35 45  1  0  0  0
 35 68  1  0  0  0
 36 56  1  0  0  0
 36112  1  0  0  0
 37 39  1  0  0  0
 37 47  1  0  0  0
 37 66  1  0  0  0
 37113  1  0  0  0
 38 43  2  0  0  0
 38 46  1  0  0  0
 38 47  1  0  0  0
 39 64  1  0  0  0
 39 67  2  0  0  0
 40 52  1  0  0  0
 40 53  2  0  0  0
 40 58  1  0  0  0
 41114  1  0  0  0
 41115  1  0  0  0
 41116  1  0  0  0
 41 48  1  0  0  0
 42 43  1  0  0  0
 42 66  1  0  0  0
 42117  1  0  0  0
 42118  1  0  0  0
 43 44  1  0  0  0
 44119  1  0  0  0
 45 46  2  0  0  0
 45120  1  0  0  0
 46121  1  0  0  0
 47122  1  0  0  0
 47123  1  0  0  0
 48 56  1  0  0  0
 48 65  1  0  0  0
 48124  1  0  0  0
 49 50  1  0  0  0
 49 53  1  0  0  0
 49 64  1  0  0  0
 49125  1  0  0  0
 50 51  1  0  0  0
 50126  1  0  0  0
 50127  1  0  0  0
 51 52  1  0  0  0
 51128  1  0  0  0
 51129  1  0  0  0
 52130  1  0  0  0
 52131  1  0  0  0
 53 54  1  0  0  0
 54 55  2  0  0  0
 54132  1  0  0  0
 55 57  1  0  0  0
 55133  1  0  0  0
 56 69  2  0  0  0
 57 58  2  0  0  0
 57134  1  0  0  0
 58135  1  0  0  0
 59 60  1  0  0  0
 59 61  1  0  0  0
 59 62  1  0  0  0
 60136  1  0  0  0
 60137  1  0  0  0
 60138  1  0  0  0
 61139  1  0  0  0
 61140  1  0  0  0
 61141  1  0  0  0
 62142  1  0  0  0
 62143  1  0  0  0
 62144  1  0  0  0
 63 65  1  0  0  0
 63145  1  0  0  0
 63146  1  0  0  0
 63147  1  0  0  0
 64148  1  0  0  0
 65149  1  0  0  0
 68 85  1  0  0  0
 71 72  2  0  0  0
 71 89  1  0  0  0
 71150  1  0  0  0
 72 86  1  0  0  0
 72 90  1  0  0  0
 73 87  1  0  0  0
 73 89  1  0  0  0
 73 90  2  0  0  0
 74151  1  0  0  0
 74152  1  0  0  0
 74153  1  0  0  0
 74 86  1  0  0  0
 75 86  1  0  0  0
 75154  1  0  0  0
 75155  1  0  0  0
 75156  1  0  0  0
 76157  1  0  0  0
 76158  1  0  0  0
 76159  1  0  0  0
 76 87  1  0  0  0
 77 87  1  0  0  0
 77160  1  0  0  0
 77161  1  0  0  0
 77162  1  0  0  0
 78163  1  0  0  0
 78164  1  0  0  0
 78165  1  0  0  0
 78 88  1  0  0  0
 79 88  1  0  0  0
 79166  1  0  0  0
 79167  1  0  0  0
 79168  1  0  0  0
 80 88  1  0  0  0
 80169  1  0  0  0
 80170  1  0  0  0
 80171  1  0  0  0
 81 82  1  0  0  0
 81 83  1  0  0  0
 81172  1  0  0  0
 81173  1  0  0  0
 82 84  1  0  0  0
 82174  1  0  0  0
 82175  1  0  0  0
 83 85  1  0  0  0
 83176  1  0  0  0
 83177  1  0  0  0
 84 86  1  0  0  0
 84178  1  0  0  0
 84179  1  0  0  0
 85180  1  0  0  0
 85181  1  0  0  0
 88 89  1  0  0  0
 90182  1  0  0  0
M  CHG  1  90   1
M  ISO  4   1 100  68 101  85 101  87 100
M  END
> <chiral flag>
0

> <version>
0

> <s_m_source_file>
/data/baiqing/PycharmProjects/Reinvent-master-3.2/result/LINK_invent/BTK/process_docking_weight1_custom_sum_contain_oxygen_bond_distance_aromatic_linkinvent_7_9_3/rearranged_h_0067.sdf

> <i_m_source_file_index>
93

> <r_mmod_Potential_Energy-OPLS-2005>
494.198822021484

> <r_mmod_Stretch_Energy-OPLS-2005>
96.7934494018555

> <r_mmod_Bend_Energy-OPLS-2005>
282.320587158203

> <r_mmod_Torsional_Energy-OPLS-2005>
365.484649658203

> <r_mmod_Improper_Torsional_Energy-OPLS-2005>
30.8097381591797

> <r_mmod_Van_der_Waal_Energy-OPLS-2005>
171.883071899414

> <r_mmod_Electrostatic_Energy-OPLS-2005>
-184.444366455078

> <r_mmod_Solvation_Energy-OPLS-2005>
-371.788208007812

> <b_mmod_Minimization_Converged-OPLS-2005>
0

> <r_mmod_RMS_Derivative-OPLS-2005>
7.56665754318237

$$$$
96
                    3D
 Structure written by MMmdl.
182190  0  0  1  0            999 V2000
  -30.6776  -14.4297   20.4945 C   0  0  0  0  0  0
  -30.4207  -12.2525   19.4294 C   0  0  0  0  0  0
  -29.4944  -12.4743   18.2133 C   0  0  0  0  0  0
  -28.0112  -12.3489   18.6165 C   0  0  0  0  0  0
  -27.6597  -13.1820   19.8748 C   0  0  2  0  0  0
  -28.7038  -12.9592   20.9990 C   0  0  0  0  0  0
  -25.2604  -13.8088   20.5681 C   0  0  0  0  0  0
  -24.1832  -13.0406   20.9185 C   0  0  0  0  0  0
  -24.6355  -11.6862   20.8741 C   0  0  0  0  0  0
  -23.9005  -10.4265   21.0407 C   0  0  0  0  0  0
  -24.3568   -9.4181   21.9184 C   0  0  0  0  0  0
  -23.6263   -8.2218   22.0742 C   0  0  0  0  0  0
  -22.4239   -8.0268   21.3543 C   0  0  0  0  0  0
  -21.9857   -9.0226   20.4632 C   0  0  0  0  0  0
  -22.7175  -10.2108   20.3056 C   0  0  0  0  0  0
  -21.6850   -6.0712   22.5269 C   0  0  0  0  0  0
  -21.4002   -6.5612   23.8197 C   0  0  0  0  0  0
  -21.3662   -5.6773   24.9164 C   0  0  0  0  0  0
  -21.6069   -4.3037   24.7218 C   0  0  0  0  0  0
  -21.8824   -3.8124   23.4333 C   0  0  0  0  0  0
  -21.9191   -4.6944   22.3391 C   0  0  0  0  0  0
  -22.7854  -13.5233   21.1832 C   0  0  0  0  0  0
  -22.1670   -4.2133   21.0968 F   0  0  0  0  0  0
  -21.5632   -3.4526   25.7728 F   0  0  0  0  0  0
  -30.0448  -13.2334   20.4540 N   0  0  0  0  0  0
  -26.3004  -12.9212   20.3360 N   0  0  0  0  0  0
  -25.9263  -11.6395   20.5767 N   0  0  0  0  0  0
  -22.0493  -12.8242   22.0402 N   0  0  0  0  0  0
  -25.4410  -15.1801   20.4104 N   0  0  0  0  0  0
  -31.8316  -14.6209   20.1065 O   0  0  0  0  0  0
  -21.6631   -6.8853   21.4231 O   0  0  0  0  0  0
  -22.3562  -14.5539   20.6674 O   0  0  0  0  0  0
  -24.6093  -31.8671   23.2079 C   0  0  0  0  0  0
  -25.9011  -32.4804   23.8346 C   0  0  1  0  0  0
  -27.2576  -27.4678   20.0780 C   0  0  0  0  0  0
  -25.5878  -33.8606   24.2293 N   0  0  0  0  0  0
  -23.3963  -30.4845   21.5480 C   0  0  2  0  0  0
  -24.8456  -28.9452   20.1077 C   0  0  0  0  0  0
  -22.7373  -29.4639   22.5017 C   0  0  0  0  0  0
  -18.0262  -28.1384   22.8489 C   0  0  0  0  0  0
  -24.1492  -36.7313   23.2636 C   0  0  0  0  0  0
  -25.9169  -30.8366   21.3557 C   0  0  0  0  0  0
  -25.9944  -29.4702   20.7079 C   0  0  0  0  0  0
  -27.1904  -28.7294   20.7041 C   0  0  0  0  0  0
  -26.0972  -26.9436   19.4658 C   0  0  0  0  0  0
  -24.8898  -27.6791   19.4880 C   0  0  0  0  0  0
  -23.6009  -29.8043   20.1635 C   0  0  0  0  0  0
  -25.4113  -36.3106   24.0327 C   0  0  1  0  0  0
  -20.5840  -28.3646   23.1342 C   0  0  2  0  0  0
  -20.6752  -26.9394   22.5435 C   0  0  0  0  0  0
  -19.5751  -26.6390   21.5214 C   0  0  0  0  0  0
  -18.1912  -26.7931   22.1604 C   0  0  0  0  0  0
  -19.1503  -28.8832   23.2908 C   0  0  0  0  0  0
  -18.9444  -30.1445   23.8914 C   0  0  0  0  0  0
  -17.6449  -30.6591   24.0573 C   0  0  0  0  0  0
  -25.9033  -34.9471   23.5102 C   0  0  0  0  0  0
  -16.5341  -29.9092   23.6335 C   0  0  0  0  0  0
  -16.7253  -28.6513   23.0341 C   0  0  0  0  0  0
  -26.4462  -31.6586   25.0667 C   0  0  0  0  0  0
  -25.3738  -31.3695   26.1418 C   0  0  0  0  0  0
  -27.0280  -30.3034   24.6022 C   0  0  0  0  0  0
  -27.6045  -32.4298   25.7422 C   0  0  0  0  0  0
  -27.5588  -37.1793   24.8455 C   0  0  0  0  0  0
  -21.4108  -29.3007   22.3745 N   0  0  0  0  0  0
  -26.4302  -37.3793   23.9406 N   0  0  0  0  0  0
  -24.6591  -31.0774   22.0961 N   0  0  0  0  0  0
  -23.4149  -28.8211   23.3077 O   0  0  0  0  0  0
  -28.4682  -26.8239   20.1643 O   0  0  0  0  0  0
  -26.5623  -34.8931   22.4684 O   0  0  0  0  0  0
  -23.5302  -32.1415   23.7493 O   0  0  0  0  0  0
  -30.3673  -23.6237   15.3658 C   0  0  0  0  0  0
  -30.7249  -24.3553   16.5149 C   0  0  0  0  0  0
  -29.8342  -22.3261   15.5031 C   0  0  0  0  0  0
  -30.5319  -23.7525   17.7756 C   0  0  0  0  0  0
  -29.6444  -21.8214   16.8128 C   0  0  0  0  0  0
  -31.3435  -25.7381   16.3638 C   0  0  0  0  0  0
  -30.1475  -18.4902   20.8528 C   0  0  0  0  0  0
  -29.8262  -24.4143   21.2167 C   0  0  0  0  0  0
  -31.1069  -26.4100   20.4079 C   0  0  0  0  0  0
  -27.1923  -18.5667   18.6172 C   0  0  0  0  0  0
  -31.1096  -24.3331   19.0550 C   0  0  0  0  0  0
  -28.9973  -20.4631   17.0876 C   0  0  0  0  0  0
  -29.6868  -16.4142   19.5089 C   0  0  0  0  0  0
  -29.3160  -19.8547   18.4801 C   0  0  0  0  0  0
  -28.8867  -25.7634   19.3109 C   0  0  0  0  0  0
  -29.1213  -17.7742   19.9473 C   0  0  2  0  0  0
  -29.4878  -21.5147   14.2581 C   0  0  0  0  0  0
  -30.2077  -25.2282   19.9603 C   0  0  0  0  0  0
  -29.9617  -22.5407   17.9132 N   0  0  0  0  0  0
  -29.8210  -15.4508   20.6066 N   0  0  0  0  0  0
  -28.6768  -18.5272   18.7251 N   0  3  1  0  0  0
  -29.5650  -22.2556   13.1525 F   0  0  0  0  0  0
  -30.3460  -20.5016   14.1442 F   0  0  0  0  0  0
  -28.2496  -21.0307   14.3419 F   0  0  0  0  0  0
  -31.4653  -12.3468   19.1252 H   0  0  0  0  0  0
  -30.3132  -11.2400   19.8223 H   0  0  0  0  0  0
  -29.7220  -11.7495   17.4316 H   0  0  0  0  0  0
  -29.6825  -13.4574   17.7802 H   0  0  0  0  0  0
  -27.8054  -11.2933   18.8010 H   0  0  0  0  0  0
  -27.3696  -12.6375   17.7839 H   0  0  0  0  0  0
  -27.6905  -14.2230   19.5631 H   0  0  0  0  0  0
  -28.6581  -11.9306   21.3603 H   0  0  0  0  0  0
  -28.4800  -13.5857   21.8651 H   0  0  0  0  0  0
  -25.2733   -9.5666   22.4728 H   0  0  0  0  0  0
  -23.9982   -7.4605   22.7448 H   0  0  0  0  0  0
  -21.0795   -8.8726   19.8925 H   0  0  0  0  0  0
  -22.3644  -10.9637   19.6151 H   0  0  0  0  0  0
  -21.1993   -7.6117   23.9683 H   0  0  0  0  0  0
  -21.1489   -6.0510   25.9062 H   0  0  0  0  0  0
  -22.0610   -2.7581   23.2839 H   0  0  0  0  0  0
  -22.4112  -11.9910   22.4799 H   0  0  0  0  0  0
  -21.1109  -13.1267   22.2581 H   0  0  0  0  0  0
  -24.6826  -15.8423   20.5330 H   0  0  0  0  0  0
  -26.3039  -15.6088   20.1089 H   0  0  0  0  0  0
  -26.7074  -32.5523   23.1098 H   0  0  0  0  0  0
  -24.9997  -33.9768   25.0413 H   0  0  0  0  0  0
  -22.6830  -31.2991   21.4054 H   0  0  0  0  0  0
  -23.3752  -35.9641   23.3289 H   0  0  0  0  0  0
  -24.3590  -36.8949   22.2051 H   0  0  0  0  0  0
  -23.7237  -37.6507   23.6666 H   0  0  0  0  0  0
  -26.0175  -31.5995   20.5822 H   0  0  0  0  0  0
  -26.8080  -30.8985   21.9687 H   0  0  0  0  0  0
  -28.0761  -29.1271   21.1789 H   0  0  0  0  0  0
  -26.1104  -25.9746   18.9896 H   0  0  0  0  0  0
  -24.0046  -27.2684   19.0233 H   0  0  0  0  0  0
  -23.6914  -30.5726   19.3943 H   0  0  0  0  0  0
  -22.7282  -29.2117   19.8826 H   0  0  0  0  0  0
  -25.1295  -36.1955   25.0820 H   0  0  0  0  0  0
  -20.9925  -28.3217   24.1469 H   0  0  0  0  0  0
  -20.5648  -26.2259   23.3615 H   0  0  0  0  0  0
  -21.6630  -26.7433   22.1247 H   0  0  0  0  0  0
  -19.6912  -25.6304   21.1248 H   0  0  0  0  0  0
  -19.6717  -27.3206   20.6747 H   0  0  0  0  0  0
  -17.4198  -26.6693   21.3994 H   0  0  0  0  0  0
  -18.0300  -26.0061   22.8992 H   0  0  0  0  0  0
  -19.7915  -30.7255   24.2286 H   0  0  0  0  0  0
  -17.5004  -31.6274   24.5164 H   0  0  0  0  0  0
  -15.5344  -30.3001   23.7648 H   0  0  0  0  0  0
  -15.8655  -28.0846   22.7040 H   0  0  0  0  0  0
  -24.5923  -30.7026   25.7758 H   0  0  0  0  0  0
  -24.8909  -32.2853   26.4841 H   0  0  0  0  0  0
  -25.8091  -30.8884   27.0184 H   0  0  0  0  0  0
  -26.2797  -29.6785   24.1131 H   0  0  0  0  0  0
  -27.4120  -29.7278   25.4451 H   0  0  0  0  0  0
  -27.8600  -30.4350   23.9100 H   0  0  0  0  0  0
  -27.2673  -33.3587   26.2035 H   0  0  0  0  0  0
  -28.3836  -32.6875   25.0235 H   0  0  0  0  0  0
  -28.0735  -31.8397   26.5306 H   0  0  0  0  0  0
  -28.2598  -38.0103   24.7534 H   0  0  0  0  0  0
  -28.1102  -36.2634   24.6243 H   0  0  0  0  0  0
  -27.2317  -37.1402   25.8866 H   0  0  0  0  0  0
  -20.9266  -29.8685   21.6929 H   0  0  0  0  0  0
  -26.0185  -38.2862   24.1441 H   0  0  0  0  0  0
  -30.5310  -24.0489   14.3862 H   0  0  0  0  0  0
  -31.2634  -26.1010   15.3390 H   0  0  0  0  0  0
  -32.3999  -25.7227   16.6333 H   0  0  0  0  0  0
  -30.8406  -26.4644   17.0015 H   0  0  0  0  0  0
  -30.3295  -17.9059   21.7562 H   0  0  0  0  0  0
  -29.7997  -19.4697   21.1786 H   0  0  0  0  0  0
  -31.1153  -18.6036   20.3625 H   0  0  0  0  0  0
  -30.7063  -24.0408   21.7421 H   0  0  0  0  0  0
  -29.2136  -23.5512   20.9514 H   0  0  0  0  0  0
  -29.2578  -25.0152   21.9271 H   0  0  0  0  0  0
  -32.0680  -26.0566   20.7856 H   0  0  0  0  0  0
  -30.6607  -26.9969   21.2114 H   0  0  0  0  0  0
  -31.3110  -27.0862   19.5769 H   0  0  0  0  0  0
  -26.8654  -18.7796   17.6006 H   0  0  0  0  0  0
  -26.7633  -19.3214   19.2780 H   0  0  0  0  0  0
  -26.7390  -17.6071   18.8703 H   0  0  0  0  0  0
  -32.0157  -24.8683   18.7716 H   0  0  0  0  0  0
  -31.5026  -23.4988   19.6393 H   0  0  0  0  0  0
  -29.3243  -19.7578   16.3242 H   0  0  0  0  0  0
  -27.9267  -20.6022   16.9533 H   0  0  0  0  0  0
  -30.6377  -16.5655   18.9926 H   0  0  0  0  0  0
  -29.0164  -15.9613   18.7769 H   0  0  0  0  0  0
  -28.9925  -20.5402   19.2651 H   0  0  0  0  0  0
  -30.3998  -19.7592   18.5510 H   0  0  0  0  0  0
  -28.1368  -24.9751   19.2320 H   0  0  0  0  0  0
  -29.0512  -26.1690   18.3141 H   0  0  0  0  0  0
  -28.2436  -17.5935   20.5698 H   0  0  0  0  0  0
  -28.9587  -15.2010   21.0648 H   0  0  0  0  0  0
  -28.9785  -17.9460   17.9571 H   0  0  0  0  0  0
  1 25  1  0  0  0
  1 30  2  0  0  0
  1 90  1  0  0  0
  2  3  1  0  0  0
  2 25  1  0  0  0
  2 95  1  0  0  0
  2 96  1  0  0  0
  3  4  1  0  0  0
  3 97  1  0  0  0
  3 98  1  0  0  0
  4  5  1  0  0  0
  4 99  1  0  0  0
  4100  1  0  0  0
  5  6  1  0  0  0
  5 26  1  0  0  0
  5101  1  0  0  0
  6 25  1  0  0  0
  6102  1  0  0  0
  6103  1  0  0  0
  7  8  2  0  0  0
  7 26  1  0  0  0
  7 29  1  0  0  0
  8  9  1  0  0  0
  8 22  1  0  0  0
  9 10  1  0  0  0
  9 27  2  0  0  0
 10 11  2  0  0  0
 10 15  1  0  0  0
 11 12  1  0  0  0
 11104  1  0  0  0
 12 13  2  0  0  0
 12105  1  0  0  0
 13 14  1  0  0  0
 13 31  1  0  0  0
 14 15  2  0  0  0
 14106  1  0  0  0
 15107  1  0  0  0
 16 17  2  0  0  0
 16 21  1  0  0  0
 16 31  1  0  0  0
 17 18  1  0  0  0
 17108  1  0  0  0
 18 19  2  0  0  0
 18109  1  0  0  0
 19 20  1  0  0  0
 19 24  1  0  0  0
 20 21  2  0  0  0
 20110  1  0  0  0
 21 23  1  0  0  0
 22 28  1  0  0  0
 22 32  2  0  0  0
 26 27  1  0  0  0
 28111  1  0  0  0
 28112  1  0  0  0
 29113  1  0  0  0
 29114  1  0  0  0
 33 34  1  0  0  0
 33 66  1  0  0  0
 33 70  2  0  0  0
 34 36  1  0  0  0
 34 59  1  0  0  0
 34115  1  0  0  0
 35 44  2  0  0  0
 35 45  1  0  0  0
 35 68  1  0  0  0
 36 56  1  0  0  0
 36116  1  0  0  0
 37 39  1  0  0  0
 37 47  1  0  0  0
 37 66  1  0  0  0
 37117  1  0  0  0
 38 43  2  0  0  0
 38 46  1  0  0  0
 38 47  1  0  0  0
 39 64  1  0  0  0
 39 67  2  0  0  0
 40 52  1  0  0  0
 40 53  2  0  0  0
 40 58  1  0  0  0
 41118  1  0  0  0
 41119  1  0  0  0
 41120  1  0  0  0
 41 48  1  0  0  0
 42 43  1  0  0  0
 42 66  1  0  0  0
 42121  1  0  0  0
 42122  1  0  0  0
 43 44  1  0  0  0
 44123  1  0  0  0
 45 46  2  0  0  0
 45124  1  0  0  0
 46125  1  0  0  0
 47126  1  0  0  0
 47127  1  0  0  0
 48 56  1  0  0  0
 48 65  1  0  0  0
 48128  1  0  0  0
 49 50  1  0  0  0
 49 53  1  0  0  0
 49 64  1  0  0  0
 49129  1  0  0  0
 50 51  1  0  0  0
 50130  1  0  0  0
 50131  1  0  0  0
 51 52  1  0  0  0
 51132  1  0  0  0
 51133  1  0  0  0
 52134  1  0  0  0
 52135  1  0  0  0
 53 54  1  0  0  0
 54 55  2  0  0  0
 54136  1  0  0  0
 55 57  1  0  0  0
 55137  1  0  0  0
 56 69  2  0  0  0
 57 58  2  0  0  0
 57138  1  0  0  0
 58139  1  0  0  0
 59 60  1  0  0  0
 59 61  1  0  0  0
 59 62  1  0  0  0
 60140  1  0  0  0
 60141  1  0  0  0
 60142  1  0  0  0
 61143  1  0  0  0
 61144  1  0  0  0
 61145  1  0  0  0
 62146  1  0  0  0
 62147  1  0  0  0
 62148  1  0  0  0
 63 65  1  0  0  0
 63149  1  0  0  0
 63150  1  0  0  0
 63151  1  0  0  0
 64152  1  0  0  0
 65153  1  0  0  0
 68 85  1  0  0  0
 71 72  2  0  0  0
 71 73  1  0  0  0
 71154  1  0  0  0
 72 74  1  0  0  0
 72 76  1  0  0  0
 73 75  2  0  0  0
 73 87  1  0  0  0
 74 81  1  0  0  0
 74 89  2  0  0  0
 75 82  1  0  0  0
 75 89  1  0  0  0
 76155  1  0  0  0
 76156  1  0  0  0
 76157  1  0  0  0
 77158  1  0  0  0
 77159  1  0  0  0
 77160  1  0  0  0
 77 86  1  0  0  0
 78161  1  0  0  0
 78162  1  0  0  0
 78163  1  0  0  0
 78 88  1  0  0  0
 79 88  1  0  0  0
 79164  1  0  0  0
 79165  1  0  0  0
 79166  1  0  0  0
 80167  1  0  0  0
 80168  1  0  0  0
 80169  1  0  0  0
 80 91  1  0  0  0
 81 88  1  0  0  0
 81170  1  0  0  0
 81171  1  0  0  0
 82 84  1  0  0  0
 82172  1  0  0  0
 82173  1  0  0  0
 83 86  1  0  0  0
 83 90  1  0  0  0
 83174  1  0  0  0
 83175  1  0  0  0
 84 91  1  0  0  0
 84176  1  0  0  0
 84177  1  0  0  0
 85 88  1  0  0  0
 85178  1  0  0  0
 85179  1  0  0  0
 86 91  1  0  0  0
 86180  1  0  0  0
 87 92  1  0  0  0
 87 93  1  0  0  0
 87 94  1  0  0  0
 90181  1  0  0  0
 91182  1  0  0  0
M  CHG  1  91   1
M  ISO  4   1 100  68 101  85 101  90 100
M  END
> <chiral flag>
0

> <version>
0

> <s_m_source_file>
/data/baiqing/PycharmProjects/Reinvent-master-3.2/result/LINK_invent/BTK/process_docking_weight1_custom_sum_contain_oxygen_bond_distance_aromatic_linkinvent_7_9_3/rearranged_h_0067.sdf

> <i_m_source_file_index>
94

> <r_mmod_Potential_Energy-OPLS-2005>
-224.460311889648

> <r_mmod_Stretch_Energy-OPLS-2005>
38.9242858886719

> <r_mmod_Bend_Energy-OPLS-2005>
139.43212890625

> <r_mmod_Torsional_Energy-OPLS-2005>
265.555328369141

> <r_mmod_Improper_Torsional_Energy-OPLS-2005>
15.3104276657104

> <r_mmod_Van_der_Waal_Energy-OPLS-2005>
173.518524169922

> <r_mmod_Electrostatic_Energy-OPLS-2005>
-423.641021728516

> <r_mmod_Solvation_Energy-OPLS-2005>
-449.478088378906

> <b_mmod_Minimization_Converged-OPLS-2005>
0

> <r_mmod_RMS_Derivative-OPLS-2005>
3.0793080329895

$$$$
