0
                    3D
 Structure written by MMmdl.
165173  0  0  1  0            999 V2000
  -30.7287  -14.3812   20.6058 C   0  0  0  0  0  0
  -30.4127  -12.2572   19.4141 C   0  0  0  0  0  0
  -29.4938  -12.5175   18.2030 C   0  0  0  0  0  0
  -28.0110  -12.3925   18.6073 C   0  0  0  0  0  0
  -27.6685  -13.2025   19.8864 C   0  0  2  0  0  0
  -28.7039  -12.9362   21.0039 C   0  0  0  0  0  0
  -25.2596  -13.8126   20.5661 C   0  0  0  0  0  0
  -24.1848  -13.0426   20.9146 C   0  0  0  0  0  0
  -24.6393  -11.6897   20.8694 C   0  0  0  0  0  0
  -23.9060  -10.4296   21.0373 C   0  0  0  0  0  0
  -24.3633   -9.4216   21.9139 C   0  0  0  0  0  0
  -23.6311   -8.2252   22.0752 C   0  0  0  0  0  0
  -22.4287   -8.0281   21.3553 C   0  0  0  0  0  0
  -21.9896   -9.0260   20.4668 C   0  0  0  0  0  0
  -22.7209  -10.2143   20.3061 C   0  0  0  0  0  0
  -21.6869   -6.0725   22.5277 C   0  0  0  0  0  0
  -21.4024   -6.5635   23.8206 C   0  0  0  0  0  0
  -21.3673   -5.6793   24.9175 C   0  0  0  0  0  0
  -21.6061   -4.3060   24.7236 C   0  0  0  0  0  0
  -21.8820   -3.8138   23.4358 C   0  0  0  0  0  0
  -21.9204   -4.6949   22.3410 C   0  0  0  0  0  0
  -22.7874  -13.5247   21.1823 C   0  0  0  0  0  0
  -22.1668   -4.2123   21.0992 F   0  0  0  0  0  0
  -21.5641   -3.4555   25.7758 F   0  0  0  0  0  0
  -30.0473  -13.2173   20.4645 N   0  0  0  0  0  0
  -26.3054  -12.9312   20.3380 N   0  0  0  0  0  0
  -25.9325  -11.6476   20.5748 N   0  0  0  0  0  0
  -22.0494  -12.8242   22.0352 N   0  0  0  0  0  0
  -25.4305  -15.1830   20.4115 N   0  0  0  0  0  0
  -31.8173  -14.6039   20.0670 O   0  0  0  0  0  0
  -21.6673   -6.8860   21.4234 O   0  0  0  0  0  0
  -22.3581  -14.5571   20.6680 O   0  0  0  0  0  0
  -24.6098  -31.8729   23.2134 C   0  0  0  0  0  0
  -25.8999  -32.4859   23.8424 C   0  0  1  0  0  0
  -27.2425  -27.4836   20.0858 C   0  0  0  0  0  0
  -25.5861  -33.8651   24.2365 N   0  0  0  0  0  0
  -23.3974  -30.4937   21.5544 C   0  0  2  0  0  0
  -24.8450  -28.9643   20.1174 C   0  0  0  0  0  0
  -22.7392  -29.4683   22.5037 C   0  0  0  0  0  0
  -18.0268  -28.1372   22.8495 C   0  0  0  0  0  0
  -24.1483  -36.7332   23.2639 C   0  0  0  0  0  0
  -25.9200  -30.8508   21.3611 C   0  0  0  0  0  0
  -26.0002  -29.4871   20.7126 C   0  0  0  0  0  0
  -27.2031  -28.7515   20.6985 C   0  0  0  0  0  0
  -26.0778  -26.9661   19.4817 C   0  0  0  0  0  0
  -24.8768  -27.7001   19.5016 C   0  0  0  0  0  0
  -23.6021  -29.8228   20.1698 C   0  0  0  0  0  0
  -25.4102  -36.3139   24.0349 C   0  0  1  0  0  0
  -20.5855  -28.3657   23.1345 C   0  0  2  0  0  0
  -20.6758  -26.9406   22.5420 C   0  0  0  0  0  0
  -19.5734  -26.6395   21.5217 C   0  0  0  0  0  0
  -18.1913  -26.7919   22.1629 C   0  0  0  0  0  0
  -19.1513  -28.8832   23.2912 C   0  0  0  0  0  0
  -18.9441  -30.1437   23.8919 C   0  0  0  0  0  0
  -17.6442  -30.6578   24.0566 C   0  0  0  0  0  0
  -25.9020  -34.9498   23.5160 C   0  0  0  0  0  0
  -16.5336  -29.9086   23.6314 C   0  0  0  0  0  0
  -16.7258  -28.6505   23.0340 C   0  0  0  0  0  0
  -26.4436  -31.6613   25.0733 C   0  0  0  0  0  0
  -25.3709  -31.3689   26.1487 C   0  0  0  0  0  0
  -27.0256  -30.3074   24.6058 C   0  0  0  0  0  0
  -27.6043  -32.4312   25.7460 C   0  0  0  0  0  0
  -27.5587  -37.1820   24.8470 C   0  0  0  0  0  0
  -21.4126  -29.3029   22.3757 N   0  0  0  0  0  0
  -26.4303  -37.3812   23.9409 N   0  0  0  0  0  0
  -24.6602  -31.0868   22.1016 N   0  0  0  0  0  0
  -23.4181  -28.8245   23.3079 O   0  0  0  0  0  0
  -28.4087  -26.7629   20.0816 O   0  0  0  0  0  0
  -26.5596  -34.8941   22.4730 O   0  0  0  0  0  0
  -23.5299  -32.1450   23.7558 O   0  0  0  0  0  0
  -26.1714  -21.8229   20.3476 C   0  0  0  0  0  0
  -28.4271  -21.0541   20.8235 C   0  0  0  0  0  0
  -27.4369  -22.0447   20.9229 C   0  0  0  0  0  0
  -25.9063  -20.6309   19.6430 C   0  0  0  0  0  0
  -28.1821  -19.8568   20.1199 C   0  0  0  0  0  0
  -26.9204  -19.6491   19.4979 C   0  0  0  0  0  0
  -24.5253  -20.4312   19.0382 C   0  0  0  0  0  0
  -26.6353  -18.3940   18.6793 C   0  0  0  0  0  0
  -27.7562  -23.3681   21.5899 C   0  0  0  0  0  0
  -29.3181  -18.8454   20.0486 C   0  0  0  0  0  0
  -28.2021  -24.3955   20.5401 C   0  0  0  0  0  0
  -29.0388  -17.5445   20.8192 C   0  0  0  0  0  0
  -30.3351  -16.7701   21.1068 C   0  0  0  0  0  0
  -28.4700  -25.7891   21.1204 C   0  0  0  0  0  0
  -30.0650  -15.3440   21.2552 N   0  0  0  0  0  0
  -31.4622  -12.3351   19.1253 H   0  0  0  0  0  0
  -30.2786  -11.2368   19.7777 H   0  0  0  0  0  0
  -29.7237  -11.8182   17.3984 H   0  0  0  0  0  0
  -29.6841  -13.5154   17.8040 H   0  0  0  0  0  0
  -27.7990  -11.3352   18.7700 H   0  0  0  0  0  0
  -27.3695  -12.7077   17.7831 H   0  0  0  0  0  0
  -27.7308  -14.2587   19.6238 H   0  0  0  0  0  0
  -28.6579  -11.8955   21.3281 H   0  0  0  0  0  0
  -28.4698  -13.5213   21.8940 H   0  0  0  0  0  0
  -25.2799   -9.5708   22.4672 H   0  0  0  0  0  0
  -24.0038   -7.4670   22.7492 H   0  0  0  0  0  0
  -21.0795   -8.8791   19.9019 H   0  0  0  0  0  0
  -22.3625  -10.9689   19.6203 H   0  0  0  0  0  0
  -21.1997   -7.6140   23.9706 H   0  0  0  0  0  0
  -21.1502   -6.0518   25.9080 H   0  0  0  0  0  0
  -22.0580   -2.7594   23.2857 H   0  0  0  0  0  0
  -22.4049  -11.9841   22.4676 H   0  0  0  0  0  0
  -21.1110  -13.1281   22.2529 H   0  0  0  0  0  0
  -24.6682  -15.8363   20.5513 H   0  0  0  0  0  0
  -26.2934  -15.6265   20.1296 H   0  0  0  0  0  0
  -26.7076  -32.5594   23.1200 H   0  0  0  0  0  0
  -24.9979  -33.9812   25.0489 H   0  0  0  0  0  0
  -22.6853  -31.3096   21.4189 H   0  0  0  0  0  0
  -23.3747  -35.9665   23.3324 H   0  0  0  0  0  0
  -24.3578  -36.8917   22.2048 H   0  0  0  0  0  0
  -23.7235  -37.6547   23.6633 H   0  0  0  0  0  0
  -26.0218  -31.6144   20.5893 H   0  0  0  0  0  0
  -26.8122  -30.9108   21.9727 H   0  0  0  0  0  0
  -28.0969  -29.1512   21.1574 H   0  0  0  0  0  0
  -26.0941  -26.0045   18.9903 H   0  0  0  0  0  0
  -23.9918  -27.2949   19.0319 H   0  0  0  0  0  0
  -23.7014  -30.5958   19.4068 H   0  0  0  0  0  0
  -22.7275  -29.2359   19.8827 H   0  0  0  0  0  0
  -25.1269  -36.2012   25.0841 H   0  0  0  0  0  0
  -20.9935  -28.3211   24.1472 H   0  0  0  0  0  0
  -20.5655  -26.2272   23.3597 H   0  0  0  0  0  0
  -21.6633  -26.7451   22.1217 H   0  0  0  0  0  0
  -19.6895  -25.6317   21.1227 H   0  0  0  0  0  0
  -19.6668  -27.3221   20.6759 H   0  0  0  0  0  0
  -17.4184  -26.6668   21.4030 H   0  0  0  0  0  0
  -18.0312  -26.0059   22.9021 H   0  0  0  0  0  0
  -19.7916  -30.7241   24.2313 H   0  0  0  0  0  0
  -17.5001  -31.6260   24.5159 H   0  0  0  0  0  0
  -15.5337  -30.2989   23.7629 H   0  0  0  0  0  0
  -15.8661  -28.0827   22.7042 H   0  0  0  0  0  0
  -24.5883  -30.7045   25.7806 H   0  0  0  0  0  0
  -24.8894  -32.2829   26.4969 H   0  0  0  0  0  0
  -25.8051  -30.8822   27.0227 H   0  0  0  0  0  0
  -26.2792  -29.6881   24.1074 H   0  0  0  0  0  0
  -27.4016  -29.7256   25.4481 H   0  0  0  0  0  0
  -27.8627  -30.4444   23.9213 H   0  0  0  0  0  0
  -27.2701  -33.3601   26.2090 H   0  0  0  0  0  0
  -28.3791  -32.6883   25.0227 H   0  0  0  0  0  0
  -28.0780  -31.8404   26.5309 H   0  0  0  0  0  0
  -28.2622  -38.0101   24.7503 H   0  0  0  0  0  0
  -28.1064  -36.2634   24.6305 H   0  0  0  0  0  0
  -27.2312  -37.1476   25.8877 H   0  0  0  0  0  0
  -20.9289  -29.8726   21.6953 H   0  0  0  0  0  0
  -26.0207  -38.2907   24.1373 H   0  0  0  0  0  0
  -25.4101  -22.5874   20.4264 H   0  0  0  0  0  0
  -29.3956  -21.2272   21.2734 H   0  0  0  0  0  0
  -23.8208  -21.1875   19.3844 H   0  0  0  0  0  0
  -24.1208  -19.4561   19.3123 H   0  0  0  0  0  0
  -24.5697  -20.4908   17.9510 H   0  0  0  0  0  0
  -26.1278  -17.6549   19.2976 H   0  0  0  0  0  0
  -25.9951  -18.6074   17.8235 H   0  0  0  0  0  0
  -27.5364  -17.9448   18.2662 H   0  0  0  0  0  0
  -28.5263  -23.2342   22.3514 H   0  0  0  0  0  0
  -26.8692  -23.7269   22.1145 H   0  0  0  0  0  0
  -30.2218  -19.3051   20.4521 H   0  0  0  0  0  0
  -29.5543  -18.6325   19.0060 H   0  0  0  0  0  0
  -27.4197  -24.4577   19.7872 H   0  0  0  0  0  0
  -29.0918  -24.0415   20.0166 H   0  0  0  0  0  0
  -28.3354  -16.9303   20.2559 H   0  0  0  0  0  0
  -28.5494  -17.7779   21.7663 H   0  0  0  0  0  0
  -30.8174  -17.1487   22.0085 H   0  0  0  0  0  0
  -31.0397  -16.9422   20.2903 H   0  0  0  0  0  0
  -29.4627  -25.8117   21.5726 H   0  0  0  0  0  0
  -27.7632  -26.0196   21.9216 H   0  0  0  0  0  0
  -29.2040  -15.0743   21.7063 H   0  0  0  0  0  0
  1 25  1  0  0  0
  1 30  2  0  0  0
  1 85  1  0  0  0
  2  3  1  0  0  0
  2 25  1  0  0  0
  2 86  1  0  0  0
  2 87  1  0  0  0
  3  4  1  0  0  0
  3 88  1  0  0  0
  3 89  1  0  0  0
  4  5  1  0  0  0
  4 90  1  0  0  0
  4 91  1  0  0  0
  5  6  1  0  0  0
  5 26  1  0  0  0
  5 92  1  0  0  0
  6 25  1  0  0  0
  6 93  1  0  0  0
  6 94  1  0  0  0
  7  8  2  0  0  0
  7 26  1  0  0  0
  7 29  1  0  0  0
  8  9  1  0  0  0
  8 22  1  0  0  0
  9 10  1  0  0  0
  9 27  2  0  0  0
 10 11  2  0  0  0
 10 15  1  0  0  0
 11 12  1  0  0  0
 11 95  1  0  0  0
 12 13  2  0  0  0
 12 96  1  0  0  0
 13 14  1  0  0  0
 13 31  1  0  0  0
 14 15  2  0  0  0
 14 97  1  0  0  0
 15 98  1  0  0  0
 16 17  2  0  0  0
 16 21  1  0  0  0
 16 31  1  0  0  0
 17 18  1  0  0  0
 17 99  1  0  0  0
 18 19  2  0  0  0
 18100  1  0  0  0
 19 20  1  0  0  0
 19 24  1  0  0  0
 20 21  2  0  0  0
 20101  1  0  0  0
 21 23  1  0  0  0
 22 28  1  0  0  0
 22 32  2  0  0  0
 26 27  1  0  0  0
 28102  1  0  0  0
 28103  1  0  0  0
 29104  1  0  0  0
 29105  1  0  0  0
 33 34  1  0  0  0
 33 66  1  0  0  0
 33 70  2  0  0  0
 34 36  1  0  0  0
 34 59  1  0  0  0
 34106  1  0  0  0
 35 44  2  0  0  0
 35 45  1  0  0  0
 35 68  1  0  0  0
 36 56  1  0  0  0
 36107  1  0  0  0
 37 39  1  0  0  0
 37 47  1  0  0  0
 37 66  1  0  0  0
 37108  1  0  0  0
 38 43  2  0  0  0
 38 46  1  0  0  0
 38 47  1  0  0  0
 39 64  1  0  0  0
 39 67  2  0  0  0
 40 52  1  0  0  0
 40 53  2  0  0  0
 40 58  1  0  0  0
 41109  1  0  0  0
 41110  1  0  0  0
 41111  1  0  0  0
 41 48  1  0  0  0
 42 43  1  0  0  0
 42 66  1  0  0  0
 42112  1  0  0  0
 42113  1  0  0  0
 43 44  1  0  0  0
 44114  1  0  0  0
 45 46  2  0  0  0
 45115  1  0  0  0
 46116  1  0  0  0
 47117  1  0  0  0
 47118  1  0  0  0
 48 56  1  0  0  0
 48 65  1  0  0  0
 48119  1  0  0  0
 49 50  1  0  0  0
 49 53  1  0  0  0
 49 64  1  0  0  0
 49120  1  0  0  0
 50 51  1  0  0  0
 50121  1  0  0  0
 50122  1  0  0  0
 51 52  1  0  0  0
 51123  1  0  0  0
 51124  1  0  0  0
 52125  1  0  0  0
 52126  1  0  0  0
 53 54  1  0  0  0
 54 55  2  0  0  0
 54127  1  0  0  0
 55 57  1  0  0  0
 55128  1  0  0  0
 56 69  2  0  0  0
 57 58  2  0  0  0
 57129  1  0  0  0
 58130  1  0  0  0
 59 60  1  0  0  0
 59 61  1  0  0  0
 59 62  1  0  0  0
 60131  1  0  0  0
 60132  1  0  0  0
 60133  1  0  0  0
 61134  1  0  0  0
 61135  1  0  0  0
 61136  1  0  0  0
 62137  1  0  0  0
 62138  1  0  0  0
 62139  1  0  0  0
 63 65  1  0  0  0
 63140  1  0  0  0
 63141  1  0  0  0
 63142  1  0  0  0
 64143  1  0  0  0
 65144  1  0  0  0
 68 84  1  0  0  0
 71 73  2  0  0  0
 71 74  1  0  0  0
 71145  1  0  0  0
 72 73  1  0  0  0
 72 75  2  0  0  0
 72146  1  0  0  0
 73 79  1  0  0  0
 74 76  2  0  0  0
 74 77  1  0  0  0
 75 76  1  0  0  0
 75 80  1  0  0  0
 76 78  1  0  0  0
 77147  1  0  0  0
 77148  1  0  0  0
 77149  1  0  0  0
 78150  1  0  0  0
 78151  1  0  0  0
 78152  1  0  0  0
 79 81  1  0  0  0
 79153  1  0  0  0
 79154  1  0  0  0
 80 82  1  0  0  0
 80155  1  0  0  0
 80156  1  0  0  0
 81 84  1  0  0  0
 81157  1  0  0  0
 81158  1  0  0  0
 82 83  1  0  0  0
 82159  1  0  0  0
 82160  1  0  0  0
 83 85  1  0  0  0
 83161  1  0  0  0
 83162  1  0  0  0
 84163  1  0  0  0
 84164  1  0  0  0
 85165  1  0  0  0
M  ISO  4   1 100  68 101  84 101  85 100
M  END
> <chiral flag>
0

> <version>
0

> <s_m_source_file>
/data/baiqing/PycharmProjects/Reinvent-master-3.2/result/LINK_invent/BTK/process_docking_weight1_custom_sum_contain_oxygen_bond_distance_aromatic_linkinvent_7_9_3/rearranged_h_0037.sdf

> <i_m_source_file_index>
1

> <r_mmod_Potential_Energy-OPLS-2005>
-92.2051849365234

> <r_mmod_Stretch_Energy-OPLS-2005>
31.3661918640137

> <r_mmod_Bend_Energy-OPLS-2005>
83.3487548828125

> <r_mmod_Torsional_Energy-OPLS-2005>
232.623779296875

> <r_mmod_Improper_Torsional_Energy-OPLS-2005>
3.8725643157959

> <r_mmod_Van_der_Waal_Energy-OPLS-2005>
155.649627685547

> <r_mmod_Electrostatic_Energy-OPLS-2005>
-404.271270751953

> <r_mmod_Solvation_Energy-OPLS-2005>
-202.246078491211

> <b_mmod_Minimization_Converged-OPLS-2005>
0

> <r_mmod_RMS_Derivative-OPLS-2005>
1.98011684417725

$$$$
1
                    3D
 Structure written by MMmdl.
164172  0  0  1  0            999 V2000
  -30.7331  -14.3831   20.6443 C   0  0  0  0  0  0
  -30.4217  -12.2808   19.3986 C   0  0  0  0  0  0
  -29.4892  -12.5218   18.1949 C   0  0  0  0  0  0
  -28.0108  -12.3826   18.6080 C   0  0  0  0  0  0
  -27.6686  -13.1990   19.8828 C   0  0  2  0  0  0
  -28.7062  -12.9275   20.9953 C   0  0  0  0  0  0
  -25.2619  -13.8149   20.5673 C   0  0  0  0  0  0
  -24.1852  -13.0440   20.9160 C   0  0  0  0  0  0
  -24.6389  -11.6901   20.8722 C   0  0  0  0  0  0
  -23.9052  -10.4293   21.0398 C   0  0  0  0  0  0
  -24.3609   -9.4214   21.9179 C   0  0  0  0  0  0
  -23.6291   -8.2248   22.0754 C   0  0  0  0  0  0
  -22.4277   -8.0279   21.3544 C   0  0  0  0  0  0
  -21.9902   -9.0250   20.4649 C   0  0  0  0  0  0
  -22.7223  -10.2131   20.3053 C   0  0  0  0  0  0
  -21.6851   -6.0734   22.5277 C   0  0  0  0  0  0
  -21.4012   -6.5638   23.8211 C   0  0  0  0  0  0
  -21.3660   -5.6792   24.9173 C   0  0  0  0  0  0
  -21.6045   -4.3054   24.7223 C   0  0  0  0  0  0
  -21.8822   -3.8146   23.4346 C   0  0  0  0  0  0
  -21.9192   -4.6963   22.3402 C   0  0  0  0  0  0
  -22.7877  -13.5249   21.1828 C   0  0  0  0  0  0
  -22.1662   -4.2148   21.0980 F   0  0  0  0  0  0
  -21.5631   -3.4539   25.7738 F   0  0  0  0  0  0
  -30.0483  -13.2261   20.4601 N   0  0  0  0  0  0
  -26.3056  -12.9303   20.3389 N   0  0  0  0  0  0
  -25.9312  -11.6469   20.5756 N   0  0  0  0  0  0
  -22.0514  -12.8247   22.0390 N   0  0  0  0  0  0
  -25.4365  -15.1864   20.4084 N   0  0  0  0  0  0
  -31.7896  -14.6531   20.0642 O   0  0  0  0  0  0
  -21.6639   -6.8878   21.4241 O   0  0  0  0  0  0
  -22.3567  -14.5557   20.6678 O   0  0  0  0  0  0
  -24.6106  -31.8711   23.2114 C   0  0  0  0  0  0
  -25.9011  -32.4840   23.8402 C   0  0  1  0  0  0
  -27.2383  -27.4684   20.0890 C   0  0  0  0  0  0
  -25.5875  -33.8639   24.2328 N   0  0  0  0  0  0
  -23.3961  -30.4936   21.5519 C   0  0  2  0  0  0
  -24.8417  -28.9583   20.1202 C   0  0  0  0  0  0
  -22.7382  -29.4676   22.5018 C   0  0  0  0  0  0
  -18.0258  -28.1372   22.8494 C   0  0  0  0  0  0
  -24.1484  -36.7322   23.2639 C   0  0  0  0  0  0
  -25.9218  -30.8453   21.3593 C   0  0  0  0  0  0
  -25.9996  -29.4811   20.7087 C   0  0  0  0  0  0
  -27.2007  -28.7446   20.6871 C   0  0  0  0  0  0
  -26.0629  -26.9472   19.5023 C   0  0  0  0  0  0
  -24.8661  -27.6886   19.5168 C   0  0  0  0  0  0
  -23.6025  -29.8216   20.1677 C   0  0  0  0  0  0
  -25.4108  -36.3124   24.0338 C   0  0  1  0  0  0
  -20.5846  -28.3652   23.1329 C   0  0  2  0  0  0
  -20.6751  -26.9393   22.5417 C   0  0  0  0  0  0
  -19.5733  -26.6384   21.5208 C   0  0  0  0  0  0
  -18.1910  -26.7924   22.1621 C   0  0  0  0  0  0
  -19.1508  -28.8832   23.2909 C   0  0  0  0  0  0
  -18.9444  -30.1443   23.8915 C   0  0  0  0  0  0
  -17.6447  -30.6582   24.0569 C   0  0  0  0  0  0
  -25.9033  -34.9490   23.5130 C   0  0  0  0  0  0
  -16.5337  -29.9089   23.6324 C   0  0  0  0  0  0
  -16.7251  -28.6502   23.0348 C   0  0  0  0  0  0
  -26.4451  -31.6620   25.0725 C   0  0  0  0  0  0
  -25.3724  -31.3730   26.1480 C   0  0  0  0  0  0
  -27.0281  -30.3066   24.6089 C   0  0  0  0  0  0
  -27.6030  -32.4347   25.7479 C   0  0  0  0  0  0
  -27.5585  -37.1818   24.8464 C   0  0  0  0  0  0
  -21.4116  -29.3032   22.3756 N   0  0  0  0  0  0
  -26.4299  -37.3804   23.9406 N   0  0  0  0  0  0
  -24.6608  -31.0844   22.0993 N   0  0  0  0  0  0
  -23.4177  -28.8224   23.3043 O   0  0  0  0  0  0
  -28.4355  -26.7955   20.0545 O   0  0  0  0  0  0
  -26.5599  -34.8933   22.4698 O   0  0  0  0  0  0
  -23.5308  -32.1445   23.7536 O   0  0  0  0  0  0
  -29.8577  -22.0672   23.3261 C   0  0  0  0  0  0
  -29.6998  -23.4112   22.9527 C   0  0  0  0  0  0
  -28.7900  -21.1723   23.1215 C   0  0  0  0  0  0
  -28.4768  -23.8200   22.3939 C   0  0  0  0  0  0
  -27.5931  -21.6743   22.5536 C   0  0  0  0  0  0
  -25.4419  -20.7579   23.5330 C   0  0  0  0  0  0
  -28.9715  -19.7088   23.5011 C   0  0  0  0  0  0
  -28.2692  -25.2539   21.9403 C   0  0  0  0  0  0
  -26.3676  -20.8062   22.3094 C   0  0  0  0  0  0
  -29.7454  -18.9373   22.4215 C   0  0  0  0  0  0
  -29.6038  -17.4148   22.5484 C   0  0  0  0  0  0
  -30.5037  -16.6733   21.5486 C   0  0  0  0  0  0
  -28.4291  -25.4163   20.4190 C   0  0  0  0  0  0
  -27.4433  -22.9721   22.2121 N   0  0  0  0  0  0
  -30.1386  -15.2661   21.4543 N   0  0  0  0  0  0
  -31.4656  -12.3829   19.0963 H   0  0  0  0  0  0
  -30.3192  -11.2569   19.7615 H   0  0  0  0  0  0
  -29.7204  -11.8195   17.3927 H   0  0  0  0  0  0
  -29.6636  -13.5192   17.7880 H   0  0  0  0  0  0
  -27.8122  -11.3242   18.7815 H   0  0  0  0  0  0
  -27.3603  -12.6817   17.7854 H   0  0  0  0  0  0
  -27.7298  -14.2549   19.6170 H   0  0  0  0  0  0
  -28.6686  -11.8796   21.2958 H   0  0  0  0  0  0
  -28.4600  -13.4871   21.8978 H   0  0  0  0  0  0
  -25.2758   -9.5688   22.4748 H   0  0  0  0  0  0
  -24.0001   -7.4640   22.7470 H   0  0  0  0  0  0
  -21.0834   -8.8765   19.8956 H   0  0  0  0  0  0
  -22.3682  -10.9668   19.6160 H   0  0  0  0  0  0
  -21.2001   -7.6147   23.9712 H   0  0  0  0  0  0
  -21.1481   -6.0523   25.9076 H   0  0  0  0  0  0
  -22.0601   -2.7610   23.2844 H   0  0  0  0  0  0
  -22.4119  -11.9902   22.4776 H   0  0  0  0  0  0
  -21.1132  -13.1279   22.2589 H   0  0  0  0  0  0
  -24.6741  -15.8468   20.5152 H   0  0  0  0  0  0
  -26.2984  -15.6223   20.1043 H   0  0  0  0  0  0
  -26.7090  -32.5546   23.1178 H   0  0  0  0  0  0
  -25.0028  -33.9815   25.0474 H   0  0  0  0  0  0
  -22.6819  -31.3083   21.4132 H   0  0  0  0  0  0
  -23.3745  -35.9655   23.3318 H   0  0  0  0  0  0
  -24.3574  -36.8914   22.2048 H   0  0  0  0  0  0
  -23.7240  -37.6534   23.6645 H   0  0  0  0  0  0
  -26.0327  -31.6105   20.5897 H   0  0  0  0  0  0
  -26.8105  -30.8975   21.9763 H   0  0  0  0  0  0
  -28.0995  -29.1526   21.1287 H   0  0  0  0  0  0
  -26.0642  -25.9858   19.0100 H   0  0  0  0  0  0
  -23.9762  -27.2824   19.0564 H   0  0  0  0  0  0
  -23.7078  -30.5931   19.4043 H   0  0  0  0  0  0
  -22.7279  -29.2373   19.8750 H   0  0  0  0  0  0
  -25.1289  -36.1996   25.0833 H   0  0  0  0  0  0
  -20.9938  -28.3208   24.1449 H   0  0  0  0  0  0
  -20.5648  -26.2254   23.3596 H   0  0  0  0  0  0
  -21.6628  -26.7436   22.1217 H   0  0  0  0  0  0
  -19.6883  -25.6298   21.1222 H   0  0  0  0  0  0
  -19.6679  -27.3210   20.6750 H   0  0  0  0  0  0
  -17.4185  -26.6672   21.4018 H   0  0  0  0  0  0
  -18.0318  -26.0057   22.9012 H   0  0  0  0  0  0
  -19.7922  -30.7255   24.2291 H   0  0  0  0  0  0
  -17.5003  -31.6262   24.5175 H   0  0  0  0  0  0
  -15.5341  -30.3000   23.7642 H   0  0  0  0  0  0
  -15.8644  -28.0831   22.7054 H   0  0  0  0  0  0
  -24.5863  -30.7119   25.7814 H   0  0  0  0  0  0
  -24.8962  -32.2900   26.4971 H   0  0  0  0  0  0
  -25.8072  -30.8856   27.0217 H   0  0  0  0  0  0
  -26.2825  -29.6834   24.1134 H   0  0  0  0  0  0
  -27.4050  -29.7291   25.4543 H   0  0  0  0  0  0
  -27.8658  -30.4392   23.9233 H   0  0  0  0  0  0
  -27.2637  -33.3625   26.2104 H   0  0  0  0  0  0
  -28.3805  -32.6955   25.0286 H   0  0  0  0  0  0
  -28.0741  -31.8454   26.5355 H   0  0  0  0  0  0
  -28.2620  -38.0099   24.7514 H   0  0  0  0  0  0
  -28.1063  -36.2639   24.6294 H   0  0  0  0  0  0
  -27.2304  -37.1471   25.8865 H   0  0  0  0  0  0
  -20.9272  -29.8758   21.6988 H   0  0  0  0  0  0
  -26.0187  -38.2884   24.1399 H   0  0  0  0  0  0
  -30.7909  -21.7267   23.7528 H   0  0  0  0  0  0
  -30.5117  -24.1128   23.0892 H   0  0  0  0  0  0
  -24.5649  -20.1418   23.3356 H   0  0  0  0  0  0
  -25.0982  -21.7577   23.8007 H   0  0  0  0  0  0
  -25.9553  -20.3425   24.3999 H   0  0  0  0  0  0
  -28.0082  -19.2379   23.6932 H   0  0  0  0  0  0
  -29.5109  -19.6485   24.4480 H   0  0  0  0  0  0
  -28.9890  -25.8931   22.4518 H   0  0  0  0  0  0
  -27.2827  -25.5933   22.2558 H   0  0  0  0  0  0
  -26.6646  -19.8022   22.0082 H   0  0  0  0  0  0
  -25.8133  -21.2061   21.4592 H   0  0  0  0  0  0
  -30.7969  -19.2277   22.4496 H   0  0  0  0  0  0
  -29.3768  -19.2261   21.4356 H   0  0  0  0  0  0
  -28.5587  -17.1469   22.3813 H   0  0  0  0  0  0
  -29.8473  -17.0986   23.5642 H   0  0  0  0  0  0
  -31.5517  -16.7714   21.8371 H   0  0  0  0  0  0
  -30.4051  -17.1182   20.5562 H   0  0  0  0  0  0
  -27.6809  -24.8355   19.8810 H   0  0  0  0  0  0
  -29.3937  -25.0065   20.1188 H   0  0  0  0  0  0
  -29.2876  -14.9659   21.9056 H   0  0  0  0  0  0
  1 25  1  0  0  0
  1 30  2  0  0  0
  1 85  1  0  0  0
  2  3  1  0  0  0
  2 25  1  0  0  0
  2 86  1  0  0  0
  2 87  1  0  0  0
  3  4  1  0  0  0
  3 88  1  0  0  0
  3 89  1  0  0  0
  4  5  1  0  0  0
  4 90  1  0  0  0
  4 91  1  0  0  0
  5  6  1  0  0  0
  5 26  1  0  0  0
  5 92  1  0  0  0
  6 25  1  0  0  0
  6 93  1  0  0  0
  6 94  1  0  0  0
  7  8  2  0  0  0
  7 26  1  0  0  0
  7 29  1  0  0  0
  8  9  1  0  0  0
  8 22  1  0  0  0
  9 10  1  0  0  0
  9 27  2  0  0  0
 10 11  2  0  0  0
 10 15  1  0  0  0
 11 12  1  0  0  0
 11 95  1  0  0  0
 12 13  2  0  0  0
 12 96  1  0  0  0
 13 14  1  0  0  0
 13 31  1  0  0  0
 14 15  2  0  0  0
 14 97  1  0  0  0
 15 98  1  0  0  0
 16 17  2  0  0  0
 16 21  1  0  0  0
 16 31  1  0  0  0
 17 18  1  0  0  0
 17 99  1  0  0  0
 18 19  2  0  0  0
 18100  1  0  0  0
 19 20  1  0  0  0
 19 24  1  0  0  0
 20 21  2  0  0  0
 20101  1  0  0  0
 21 23  1  0  0  0
 22 28  1  0  0  0
 22 32  2  0  0  0
 26 27  1  0  0  0
 28102  1  0  0  0
 28103  1  0  0  0
 29104  1  0  0  0
 29105  1  0  0  0
 33 34  1  0  0  0
 33 66  1  0  0  0
 33 70  2  0  0  0
 34 36  1  0  0  0
 34 59  1  0  0  0
 34106  1  0  0  0
 35 44  2  0  0  0
 35 45  1  0  0  0
 35 68  1  0  0  0
 36 56  1  0  0  0
 36107  1  0  0  0
 37 39  1  0  0  0
 37 47  1  0  0  0
 37 66  1  0  0  0
 37108  1  0  0  0
 38 43  2  0  0  0
 38 46  1  0  0  0
 38 47  1  0  0  0
 39 64  1  0  0  0
 39 67  2  0  0  0
 40 52  1  0  0  0
 40 53  2  0  0  0
 40 58  1  0  0  0
 41109  1  0  0  0
 41110  1  0  0  0
 41111  1  0  0  0
 41 48  1  0  0  0
 42 43  1  0  0  0
 42 66  1  0  0  0
 42112  1  0  0  0
 42113  1  0  0  0
 43 44  1  0  0  0
 44114  1  0  0  0
 45 46  2  0  0  0
 45115  1  0  0  0
 46116  1  0  0  0
 47117  1  0  0  0
 47118  1  0  0  0
 48 56  1  0  0  0
 48 65  1  0  0  0
 48119  1  0  0  0
 49 50  1  0  0  0
 49 53  1  0  0  0
 49 64  1  0  0  0
 49120  1  0  0  0
 50 51  1  0  0  0
 50121  1  0  0  0
 50122  1  0  0  0
 51 52  1  0  0  0
 51123  1  0  0  0
 51124  1  0  0  0
 52125  1  0  0  0
 52126  1  0  0  0
 53 54  1  0  0  0
 54 55  2  0  0  0
 54127  1  0  0  0
 55 57  1  0  0  0
 55128  1  0  0  0
 56 69  2  0  0  0
 57 58  2  0  0  0
 57129  1  0  0  0
 58130  1  0  0  0
 59 60  1  0  0  0
 59 61  1  0  0  0
 59 62  1  0  0  0
 60131  1  0  0  0
 60132  1  0  0  0
 60133  1  0  0  0
 61134  1  0  0  0
 61135  1  0  0  0
 61136  1  0  0  0
 62137  1  0  0  0
 62138  1  0  0  0
 62139  1  0  0  0
 63 65  1  0  0  0
 63140  1  0  0  0
 63141  1  0  0  0
 63142  1  0  0  0
 64143  1  0  0  0
 65144  1  0  0  0
 68 83  1  0  0  0
 71 72  2  0  0  0
 71 73  1  0  0  0
 71145  1  0  0  0
 72 74  1  0  0  0
 72146  1  0  0  0
 73 75  2  0  0  0
 73 77  1  0  0  0
 74 78  1  0  0  0
 74 84  2  0  0  0
 75 79  1  0  0  0
 75 84  1  0  0  0
 76 79  1  0  0  0
 76147  1  0  0  0
 76148  1  0  0  0
 76149  1  0  0  0
 77 80  1  0  0  0
 77150  1  0  0  0
 77151  1  0  0  0
 78 83  1  0  0  0
 78152  1  0  0  0
 78153  1  0  0  0
 79154  1  0  0  0
 79155  1  0  0  0
 80 81  1  0  0  0
 80156  1  0  0  0
 80157  1  0  0  0
 81 82  1  0  0  0
 81158  1  0  0  0
 81159  1  0  0  0
 82 85  1  0  0  0
 82160  1  0  0  0
 82161  1  0  0  0
 83162  1  0  0  0
 83163  1  0  0  0
 85164  1  0  0  0
M  ISO  4   1 100  68 101  83 101  85 100
M  END
> <chiral flag>
0

> <version>
0

> <s_m_source_file>
/data/baiqing/PycharmProjects/Reinvent-master-3.2/result/LINK_invent/BTK/process_docking_weight1_custom_sum_contain_oxygen_bond_distance_aromatic_linkinvent_7_9_3/rearranged_h_0037.sdf

> <i_m_source_file_index>
2

> <r_mmod_Potential_Energy-OPLS-2005>
-272.679077148438

> <r_mmod_Stretch_Energy-OPLS-2005>
30.9744510650635

> <r_mmod_Bend_Energy-OPLS-2005>
88.0167922973633

> <r_mmod_Torsional_Energy-OPLS-2005>
189.569198608398

> <r_mmod_Improper_Torsional_Energy-OPLS-2005>
2.60153961181641

> <r_mmod_Van_der_Waal_Energy-OPLS-2005>
152.625991821289

> <r_mmod_Electrostatic_Energy-OPLS-2005>
-528.782043457031

> <r_mmod_Solvation_Energy-OPLS-2005>
-214.862518310547

> <b_mmod_Minimization_Converged-OPLS-2005>
0

> <r_mmod_RMS_Derivative-OPLS-2005>
1.08650374412537

$$$$
2
                    3D
 Structure written by MMmdl.
162170  0  0  1  0            999 V2000
  -30.6539  -14.5312   20.5487 C   0  0  0  0  0  0
  -30.4374  -12.3443   19.4136 C   0  0  0  0  0  0
  -29.4983  -12.5132   18.1996 C   0  0  0  0  0  0
  -28.0188  -12.3629   18.6115 C   0  0  0  0  0  0
  -27.6560  -13.2055   19.8628 C   0  0  2  0  0  0
  -28.7010  -12.9919   20.9800 C   0  0  0  0  0  0
  -25.2550  -13.8143   20.5623 C   0  0  0  0  0  0
  -24.1817  -13.0429   20.9200 C   0  0  0  0  0  0
  -24.6370  -11.6902   20.8730 C   0  0  0  0  0  0
  -23.9032  -10.4287   21.0398 C   0  0  0  0  0  0
  -24.3594   -9.4206   21.9163 C   0  0  0  0  0  0
  -23.6284   -8.2240   22.0733 C   0  0  0  0  0  0
  -22.4258   -8.0269   21.3531 C   0  0  0  0  0  0
  -21.9889   -9.0244   20.4632 C   0  0  0  0  0  0
  -22.7209  -10.2124   20.3039 C   0  0  0  0  0  0
  -21.6853   -6.0718   22.5276 C   0  0  0  0  0  0
  -21.4013   -6.5625   23.8206 C   0  0  0  0  0  0
  -21.3667   -5.6776   24.9178 C   0  0  0  0  0  0
  -21.6046   -4.3039   24.7221 C   0  0  0  0  0  0
  -21.8825   -3.8129   23.4348 C   0  0  0  0  0  0
  -21.9197   -4.6947   22.3402 C   0  0  0  0  0  0
  -22.7832  -13.5219   21.1884 C   0  0  0  0  0  0
  -22.1662   -4.2130   21.0981 F   0  0  0  0  0  0
  -21.5639   -3.4522   25.7739 F   0  0  0  0  0  0
  -30.0255  -13.3265   20.4262 N   0  0  0  0  0  0
  -26.2982  -12.9311   20.3291 N   0  0  0  0  0  0
  -25.9293  -11.6481   20.5707 N   0  0  0  0  0  0
  -22.0467  -12.8215   22.0439 N   0  0  0  0  0  0
  -25.4222  -15.1864   20.3973 N   0  0  0  0  0  0
  -31.8073  -14.7321   20.1588 O   0  0  0  0  0  0
  -21.6637   -6.8865   21.4232 O   0  0  0  0  0  0
  -22.3518  -14.5534   20.6738 O   0  0  0  0  0  0
  -24.6154  -31.8685   23.2041 C   0  0  0  0  0  0
  -25.9024  -32.4838   23.8380 C   0  0  1  0  0  0
  -27.2714  -27.4426   20.0776 C   0  0  0  0  0  0
  -25.5879  -33.8638   24.2303 N   0  0  0  0  0  0
  -23.4082  -30.4898   21.5406 C   0  0  2  0  0  0
  -24.8634  -28.9518   20.1142 C   0  0  0  0  0  0
  -22.7430  -29.4672   22.4932 C   0  0  0  0  0  0
  -18.0275  -28.1389   22.8490 C   0  0  0  0  0  0
  -24.1484  -36.7306   23.2654 C   0  0  0  0  0  0
  -25.9376  -30.8404   21.3534 C   0  0  0  0  0  0
  -26.0215  -29.4701   20.7059 C   0  0  0  0  0  0
  -27.2209  -28.7193   20.6906 C   0  0  0  0  0  0
  -26.0804  -26.9292   19.5111 C   0  0  0  0  0  0
  -24.8879  -27.6782   19.5217 C   0  0  0  0  0  0
  -23.6221  -29.8138   20.1593 C   0  0  0  0  0  0
  -25.4104  -36.3117   24.0345 C   0  0  1  0  0  0
  -20.5879  -28.3681   23.1286 C   0  0  2  0  0  0
  -20.6775  -26.9409   22.5402 C   0  0  0  0  0  0
  -19.5747  -26.6370   21.5220 C   0  0  0  0  0  0
  -18.1920  -26.7933   22.1612 C   0  0  0  0  0  0
  -19.1536  -28.8837   23.2897 C   0  0  0  0  0  0
  -18.9484  -30.1447   23.8896 C   0  0  0  0  0  0
  -17.6486  -30.6592   24.0580 C   0  0  0  0  0  0
  -25.9022  -34.9491   23.5115 C   0  0  0  0  0  0
  -16.5363  -29.9110   23.6334 C   0  0  0  0  0  0
  -16.7263  -28.6534   23.0324 C   0  0  0  0  0  0
  -26.4431  -31.6630   25.0711 C   0  0  0  0  0  0
  -25.3700  -31.3799   26.1473 C   0  0  0  0  0  0
  -27.0281  -30.3072   24.6115 C   0  0  0  0  0  0
  -27.6015  -32.4342   25.7456 C   0  0  0  0  0  0
  -27.5575  -37.1804   24.8466 C   0  0  0  0  0  0
  -21.4152  -29.3064   22.3698 N   0  0  0  0  0  0
  -26.4275  -37.3802   23.9423 N   0  0  0  0  0  0
  -24.6730  -31.0814   22.0913 N   0  0  0  0  0  0
  -23.4211  -28.8208   23.2958 O   0  0  0  0  0  0
  -28.4564  -26.7248   20.1108 O   0  0  0  0  0  0
  -26.5618  -34.8956   22.4689 O   0  0  0  0  0  0
  -23.5320  -32.1388   23.7418 O   0  0  0  0  0  0
  -31.0096  -22.6577   19.6898 C   0  0  0  0  0  0
  -28.4206  -23.5741   20.2021 C   0  0  0  0  0  0
  -30.6433  -23.9718   19.3113 C   0  0  0  0  0  0
  -28.7950  -22.2753   20.6142 C   0  0  0  0  0  0
  -30.1019  -21.7857   20.3367 C   0  0  0  0  0  0
  -29.3209  -24.4401   19.5505 C   0  0  0  0  0  0
  -31.6903  -24.8325   18.6213 C   0  0  0  0  0  0
  -27.7615  -21.4476   21.3568 C   0  0  0  0  0  0
  -30.5711  -20.3654   20.7147 C   0  0  0  0  0  0
  -28.7936  -25.7995   19.0572 C   0  0  0  0  0  0
  -30.0058  -19.2533   19.7903 C   0  0  0  0  0  0
  -30.5580  -17.7976   19.9253 C   0  0  0  0  0  0
  -30.0903  -16.9859   21.1673 C   0  0  0  0  0  0
  -29.8515  -15.5357   20.9671 N   0  0  0  0  0  0
  -31.4760  -12.4780   19.1071 H   0  0  0  0  0  0
  -30.3712  -11.3326   19.8160 H   0  0  0  0  0  0
  -29.7494  -11.7853   17.4268 H   0  0  0  0  0  0
  -29.6515  -13.4957   17.7514 H   0  0  0  0  0  0
  -27.8412  -11.3060   18.8137 H   0  0  0  0  0  0
  -27.3684  -12.6249   17.7777 H   0  0  0  0  0  0
  -27.6944  -14.2513   19.5579 H   0  0  0  0  0  0
  -28.6888  -11.9520   21.3088 H   0  0  0  0  0  0
  -28.4565  -13.5793   21.8663 H   0  0  0  0  0  0
  -25.2743   -9.5694   22.4719 H   0  0  0  0  0  0
  -24.0010   -7.4619   22.7439 H   0  0  0  0  0  0
  -21.0825   -8.8754   19.8924 H   0  0  0  0  0  0
  -22.3671  -10.9657   19.6137 H   0  0  0  0  0  0
  -21.1989   -7.6127   23.9713 H   0  0  0  0  0  0
  -21.1486   -6.0500   25.9080 H   0  0  0  0  0  0
  -22.0595   -2.7589   23.2853 H   0  0  0  0  0  0
  -22.4089  -11.9921   22.4908 H   0  0  0  0  0  0
  -21.1044  -13.1206   22.2558 H   0  0  0  0  0  0
  -24.6413  -15.8293   20.4696 H   0  0  0  0  0  0
  -26.2583  -15.6222   20.0272 H   0  0  0  0  0  0
  -26.7128  -32.5561   23.1199 H   0  0  0  0  0  0
  -25.0087  -33.9814   25.0479 H   0  0  0  0  0  0
  -22.6981  -31.3062   21.3901 H   0  0  0  0  0  0
  -23.3758  -35.9629   23.3322 H   0  0  0  0  0  0
  -24.3613  -36.8888   22.2074 H   0  0  0  0  0  0
  -23.7220  -37.6501   23.6666 H   0  0  0  0  0  0
  -26.0482  -31.6049   20.5820 H   0  0  0  0  0  0
  -26.8274  -30.8983   21.9703 H   0  0  0  0  0  0
  -28.1142  -29.1277   21.1425 H   0  0  0  0  0  0
  -26.0472  -25.9376   19.0906 H   0  0  0  0  0  0
  -23.9909  -27.2597   19.0845 H   0  0  0  0  0  0
  -23.7280  -30.5838   19.3935 H   0  0  0  0  0  0
  -22.7525  -29.2231   19.8653 H   0  0  0  0  0  0
  -25.1277  -36.1975   25.0831 H   0  0  0  0  0  0
  -20.9985  -28.3256   24.1403 H   0  0  0  0  0  0
  -20.5669  -26.2293   23.3602 H   0  0  0  0  0  0
  -21.6648  -26.7414   22.1207 H   0  0  0  0  0  0
  -19.6929  -25.6288   21.1239 H   0  0  0  0  0  0
  -19.6703  -27.3204   20.6786 H   0  0  0  0  0  0
  -17.4195  -26.6678   21.4009 H   0  0  0  0  0  0
  -18.0298  -26.0082   22.9003 H   0  0  0  0  0  0
  -19.7972  -30.7263   24.2232 H   0  0  0  0  0  0
  -17.5060  -31.6277   24.5189 H   0  0  0  0  0  0
  -15.5383  -30.3023   23.7681 H   0  0  0  0  0  0
  -15.8654  -28.0897   22.6981 H   0  0  0  0  0  0
  -24.5827  -30.7185   25.7846 H   0  0  0  0  0  0
  -24.8954  -32.2990   26.4917 H   0  0  0  0  0  0
  -25.8018  -30.8977   27.0247 H   0  0  0  0  0  0
  -26.2849  -29.6837   24.1134 H   0  0  0  0  0  0
  -27.4024  -29.7298   25.4580 H   0  0  0  0  0  0
  -27.8683  -30.4404   23.9300 H   0  0  0  0  0  0
  -27.2652  -33.3642   26.2058 H   0  0  0  0  0  0
  -28.3814  -32.6891   25.0272 H   0  0  0  0  0  0
  -28.0718  -31.8457   26.5349 H   0  0  0  0  0  0
  -28.2578  -38.0119   24.7517 H   0  0  0  0  0  0
  -28.1052  -36.2632   24.6232 H   0  0  0  0  0  0
  -27.2304  -37.1392   25.8873 H   0  0  0  0  0  0
  -20.9272  -29.8836   21.6993 H   0  0  0  0  0  0
  -26.0154  -38.2859   24.1453 H   0  0  0  0  0  0
  -32.0085  -22.3027   19.4731 H   0  0  0  0  0  0
  -27.4114  -23.9227   20.3809 H   0  0  0  0  0  0
  -32.6984  -24.4661   18.8214 H   0  0  0  0  0  0
  -31.6589  -25.8679   18.9626 H   0  0  0  0  0  0
  -31.5365  -24.8076   17.5424 H   0  0  0  0  0  0
  -27.0578  -22.1037   21.8743 H   0  0  0  0  0  0
  -28.2116  -20.8042   22.1108 H   0  0  0  0  0  0
  -27.1944  -20.8306   20.6610 H   0  0  0  0  0  0
  -30.3249  -20.1536   21.7547 H   0  0  0  0  0  0
  -31.6621  -20.3450   20.6764 H   0  0  0  0  0  0
  -27.9752  -25.5816   18.3748 H   0  0  0  0  0  0
  -29.5273  -26.2970   18.4251 H   0  0  0  0  0  0
  -30.2071  -19.5717   18.7678 H   0  0  0  0  0  0
  -28.9209  -19.2318   19.8748 H   0  0  0  0  0  0
  -31.6498  -17.8037   19.8768 H   0  0  0  0  0  0
  -30.2359  -17.2654   19.0291 H   0  0  0  0  0  0
  -29.1369  -17.3967   21.5012 H   0  0  0  0  0  0
  -30.7752  -17.1360   22.0018 H   0  0  0  0  0  0
  -28.9178  -15.2284   21.1979 H   0  0  0  0  0  0
  1 25  1  0  0  0
  1 30  2  0  0  0
  1 84  1  0  0  0
  2  3  1  0  0  0
  2 25  1  0  0  0
  2 85  1  0  0  0
  2 86  1  0  0  0
  3  4  1  0  0  0
  3 87  1  0  0  0
  3 88  1  0  0  0
  4  5  1  0  0  0
  4 89  1  0  0  0
  4 90  1  0  0  0
  5  6  1  0  0  0
  5 26  1  0  0  0
  5 91  1  0  0  0
  6 25  1  0  0  0
  6 92  1  0  0  0
  6 93  1  0  0  0
  7  8  2  0  0  0
  7 26  1  0  0  0
  7 29  1  0  0  0
  8  9  1  0  0  0
  8 22  1  0  0  0
  9 10  1  0  0  0
  9 27  2  0  0  0
 10 11  2  0  0  0
 10 15  1  0  0  0
 11 12  1  0  0  0
 11 94  1  0  0  0
 12 13  2  0  0  0
 12 95  1  0  0  0
 13 14  1  0  0  0
 13 31  1  0  0  0
 14 15  2  0  0  0
 14 96  1  0  0  0
 15 97  1  0  0  0
 16 17  2  0  0  0
 16 21  1  0  0  0
 16 31  1  0  0  0
 17 18  1  0  0  0
 17 98  1  0  0  0
 18 19  2  0  0  0
 18 99  1  0  0  0
 19 20  1  0  0  0
 19 24  1  0  0  0
 20 21  2  0  0  0
 20100  1  0  0  0
 21 23  1  0  0  0
 22 28  1  0  0  0
 22 32  2  0  0  0
 26 27  1  0  0  0
 28101  1  0  0  0
 28102  1  0  0  0
 29103  1  0  0  0
 29104  1  0  0  0
 33 34  1  0  0  0
 33 66  1  0  0  0
 33 70  2  0  0  0
 34 36  1  0  0  0
 34 59  1  0  0  0
 34105  1  0  0  0
 35 44  2  0  0  0
 35 45  1  0  0  0
 35 68  1  0  0  0
 36 56  1  0  0  0
 36106  1  0  0  0
 37 39  1  0  0  0
 37 47  1  0  0  0
 37 66  1  0  0  0
 37107  1  0  0  0
 38 43  2  0  0  0
 38 46  1  0  0  0
 38 47  1  0  0  0
 39 64  1  0  0  0
 39 67  2  0  0  0
 40 52  1  0  0  0
 40 53  2  0  0  0
 40 58  1  0  0  0
 41108  1  0  0  0
 41109  1  0  0  0
 41110  1  0  0  0
 41 48  1  0  0  0
 42 43  1  0  0  0
 42 66  1  0  0  0
 42111  1  0  0  0
 42112  1  0  0  0
 43 44  1  0  0  0
 44113  1  0  0  0
 45 46  2  0  0  0
 45114  1  0  0  0
 46115  1  0  0  0
 47116  1  0  0  0
 47117  1  0  0  0
 48 56  1  0  0  0
 48 65  1  0  0  0
 48118  1  0  0  0
 49 50  1  0  0  0
 49 53  1  0  0  0
 49 64  1  0  0  0
 49119  1  0  0  0
 50 51  1  0  0  0
 50120  1  0  0  0
 50121  1  0  0  0
 51 52  1  0  0  0
 51122  1  0  0  0
 51123  1  0  0  0
 52124  1  0  0  0
 52125  1  0  0  0
 53 54  1  0  0  0
 54 55  2  0  0  0
 54126  1  0  0  0
 55 57  1  0  0  0
 55127  1  0  0  0
 56 69  2  0  0  0
 57 58  2  0  0  0
 57128  1  0  0  0
 58129  1  0  0  0
 59 60  1  0  0  0
 59 61  1  0  0  0
 59 62  1  0  0  0
 60130  1  0  0  0
 60131  1  0  0  0
 60132  1  0  0  0
 61133  1  0  0  0
 61134  1  0  0  0
 61135  1  0  0  0
 62136  1  0  0  0
 62137  1  0  0  0
 62138  1  0  0  0
 63 65  1  0  0  0
 63139  1  0  0  0
 63140  1  0  0  0
 63141  1  0  0  0
 64142  1  0  0  0
 65143  1  0  0  0
 68 80  1  0  0  0
 71 73  2  0  0  0
 71 75  1  0  0  0
 71144  1  0  0  0
 72 74  1  0  0  0
 72 76  2  0  0  0
 72145  1  0  0  0
 73 76  1  0  0  0
 73 77  1  0  0  0
 74 75  2  0  0  0
 74 78  1  0  0  0
 75 79  1  0  0  0
 76 80  1  0  0  0
 77146  1  0  0  0
 77147  1  0  0  0
 77148  1  0  0  0
 78149  1  0  0  0
 78150  1  0  0  0
 78151  1  0  0  0
 79 81  1  0  0  0
 79152  1  0  0  0
 79153  1  0  0  0
 80154  1  0  0  0
 80155  1  0  0  0
 81 82  1  0  0  0
 81156  1  0  0  0
 81157  1  0  0  0
 82 83  1  0  0  0
 82158  1  0  0  0
 82159  1  0  0  0
 83 84  1  0  0  0
 83160  1  0  0  0
 83161  1  0  0  0
 84162  1  0  0  0
M  ISO  4   1 100  68 101  80 101  84 100
M  END
> <chiral flag>
0

> <version>
0

> <s_m_source_file>
/data/baiqing/PycharmProjects/Reinvent-master-3.2/result/LINK_invent/BTK/process_docking_weight1_custom_sum_contain_oxygen_bond_distance_aromatic_linkinvent_7_9_3/rearranged_h_0037.sdf

> <i_m_source_file_index>
3

> <r_mmod_Potential_Energy-OPLS-2005>
-18.1521663665771

> <r_mmod_Stretch_Energy-OPLS-2005>
44.2146873474121

> <r_mmod_Bend_Energy-OPLS-2005>
119.132301330566

> <r_mmod_Torsional_Energy-OPLS-2005>
221.61946105957

> <r_mmod_Improper_Torsional_Energy-OPLS-2005>
4.44127321243286

> <r_mmod_Van_der_Waal_Energy-OPLS-2005>
146.138244628906

> <r_mmod_Electrostatic_Energy-OPLS-2005>
-366.969451904297

> <r_mmod_Solvation_Energy-OPLS-2005>
-205.472274780273

> <b_mmod_Minimization_Converged-OPLS-2005>
0

> <r_mmod_RMS_Derivative-OPLS-2005>
4.30791187286377

$$$$
3
                    3D
 Structure written by MMmdl.
168176  0  0  1  0            999 V2000
  -30.7675  -14.3756   20.6599 C   0  0  0  0  0  0
  -30.4104  -12.2840   19.4002 C   0  0  0  0  0  0
  -29.4850  -12.5180   18.1929 C   0  0  0  0  0  0
  -28.0067  -12.3816   18.6049 C   0  0  0  0  0  0
  -27.6636  -13.2043   19.8753 C   0  0  2  0  0  0
  -28.7014  -12.9592   20.9922 C   0  0  0  0  0  0
  -25.2597  -13.8163   20.5678 C   0  0  0  0  0  0
  -24.1841  -13.0437   20.9170 C   0  0  0  0  0  0
  -24.6395  -11.6905   20.8727 C   0  0  0  0  0  0
  -23.9061  -10.4292   21.0405 C   0  0  0  0  0  0
  -24.3620   -9.4206   21.9180 C   0  0  0  0  0  0
  -23.6296   -8.2240   22.0758 C   0  0  0  0  0  0
  -22.4274   -8.0280   21.3547 C   0  0  0  0  0  0
  -21.9914   -9.0252   20.4644 C   0  0  0  0  0  0
  -22.7240  -10.2132   20.3049 C   0  0  0  0  0  0
  -21.6853   -6.0735   22.5286 C   0  0  0  0  0  0
  -21.4012   -6.5643   23.8219 C   0  0  0  0  0  0
  -21.3656   -5.6801   24.9185 C   0  0  0  0  0  0
  -21.6044   -4.3062   24.7231 C   0  0  0  0  0  0
  -21.8823   -3.8150   23.4354 C   0  0  0  0  0  0
  -21.9193   -4.6963   22.3406 C   0  0  0  0  0  0
  -22.7859  -13.5225   21.1830 C   0  0  0  0  0  0
  -22.1657   -4.2146   21.0984 F   0  0  0  0  0  0
  -21.5629   -3.4544   25.7744 F   0  0  0  0  0  0
  -30.0419  -13.2446   20.4512 N   0  0  0  0  0  0
  -26.3032  -12.9327   20.3363 N   0  0  0  0  0  0
  -25.9324  -11.6487   20.5756 N   0  0  0  0  0  0
  -22.0505  -12.8216   22.0387 N   0  0  0  0  0  0
  -25.4332  -15.1879   20.4084 N   0  0  0  0  0  0
  -31.8221  -14.6179   20.0628 O   0  0  0  0  0  0
  -21.6644   -6.8874   21.4245 O   0  0  0  0  0  0
  -22.3532  -14.5524   20.6685 O   0  0  0  0  0  0
  -24.6100  -31.8698   23.2117 C   0  0  0  0  0  0
  -25.9011  -32.4831   23.8402 C   0  0  1  0  0  0
  -27.2545  -27.4825   20.0773 C   0  0  0  0  0  0
  -25.5873  -33.8630   24.2335 N   0  0  0  0  0  0
  -23.3978  -30.4919   21.5506 C   0  0  2  0  0  0
  -24.8486  -28.9596   20.1163 C   0  0  0  0  0  0
  -22.7389  -29.4665   22.4998 C   0  0  0  0  0  0
  -18.0265  -28.1386   22.8503 C   0  0  0  0  0  0
  -24.1482  -36.7330   23.2640 C   0  0  0  0  0  0
  -25.9211  -30.8480   21.3590 C   0  0  0  0  0  0
  -26.0031  -29.4843   20.7105 C   0  0  0  0  0  0
  -27.2071  -28.7513   20.6978 C   0  0  0  0  0  0
  -26.0800  -26.9510   19.5093 C   0  0  0  0  0  0
  -24.8789  -27.6870   19.5166 C   0  0  0  0  0  0
  -23.6062  -29.8203   20.1656 C   0  0  0  0  0  0
  -25.4101  -36.3120   24.0339 C   0  0  1  0  0  0
  -20.5850  -28.3663   23.1329 C   0  0  2  0  0  0
  -20.6751  -26.9400   22.5421 C   0  0  0  0  0  0
  -19.5731  -26.6395   21.5215 C   0  0  0  0  0  0
  -18.1910  -26.7939   22.1629 C   0  0  0  0  0  0
  -19.1514  -28.8841   23.2916 C   0  0  0  0  0  0
  -18.9445  -30.1455   23.8918 C   0  0  0  0  0  0
  -17.6446  -30.6591   24.0573 C   0  0  0  0  0  0
  -25.9024  -34.9483   23.5136 C   0  0  0  0  0  0
  -16.5340  -29.9096   23.6325 C   0  0  0  0  0  0
  -16.7254  -28.6513   23.0345 C   0  0  0  0  0  0
  -26.4454  -31.6599   25.0714 C   0  0  0  0  0  0
  -25.3743  -31.3687   26.1475 C   0  0  0  0  0  0
  -27.0279  -30.3050   24.6063 C   0  0  0  0  0  0
  -27.6037  -32.4313   25.7478 C   0  0  0  0  0  0
  -27.5581  -37.1819   24.8465 C   0  0  0  0  0  0
  -21.4121  -29.3042   22.3751 N   0  0  0  0  0  0
  -26.4295  -37.3800   23.9406 N   0  0  0  0  0  0
  -24.6606  -31.0832   22.0996 N   0  0  0  0  0  0
  -23.4178  -28.8199   23.3028 O   0  0  0  0  0  0
  -28.3954  -26.7167   20.0309 O   0  0  0  0  0  0
  -26.5598  -34.8932   22.4704 O   0  0  0  0  0  0
  -23.5303  -32.1426   23.7538 O   0  0  0  0  0  0
  -29.6548  -24.2534   17.9181 C   0  0  0  0  0  0
  -30.4289  -25.4157   18.1991 C   0  0  0  0  0  0
  -30.5378  -23.2126   18.0156 C   0  0  0  0  0  0
  -33.0386  -23.1087   18.5544 C   0  0  0  0  0  0
  -31.1995  -15.4244   22.7925 C   0  0  0  0  0  0
  -29.9990  -26.8611   18.2163 C   0  0  0  0  0  0
  -30.3430  -21.7396   17.8071 C   0  0  0  0  0  0
  -29.8002  -20.9940   19.0414 C   0  0  0  0  0  0
  -30.0333  -19.4756   18.9525 C   0  0  0  0  0  0
  -29.4391  -18.6705   20.1250 C   0  0  0  0  0  0
  -30.0910  -17.2822   20.2366 C   0  0  0  0  0  0
  -29.4848  -16.3669   21.3272 C   0  0  0  0  0  0
  -29.6008  -27.3599   19.6154 C   0  0  0  0  0  0
  -31.6916  -25.1101   18.4633 N   0  0  0  0  0  0
  -31.7617  -23.7664   18.3485 N   0  0  0  0  0  0
  -30.3273  -15.1966   21.6386 N   0  0  0  0  0  0
  -31.4553  -12.3702   19.0977 H   0  0  0  0  0  0
  -30.2956  -11.2657   19.7749 H   0  0  0  0  0  0
  -29.7171  -11.8102   17.3964 H   0  0  0  0  0  0
  -29.6628  -13.5122   17.7802 H   0  0  0  0  0  0
  -27.8028  -11.3242   18.7795 H   0  0  0  0  0  0
  -27.3600  -12.6813   17.7794 H   0  0  0  0  0  0
  -27.7175  -14.2559   19.5944 H   0  0  0  0  0  0
  -28.6617  -11.9201   21.3218 H   0  0  0  0  0  0
  -28.4558  -13.5521   21.8740 H   0  0  0  0  0  0
  -25.2765   -9.5677   22.4749 H   0  0  0  0  0  0
  -24.0003   -7.4636   22.7480 H   0  0  0  0  0  0
  -21.0841   -8.8766   19.8945 H   0  0  0  0  0  0
  -22.3700  -10.9670   19.6152 H   0  0  0  0  0  0
  -21.2005   -7.6155   23.9717 H   0  0  0  0  0  0
  -21.1473   -6.0535   25.9085 H   0  0  0  0  0  0
  -22.0604   -2.7608   23.2868 H   0  0  0  0  0  0
  -22.4119  -11.9868   22.4765 H   0  0  0  0  0  0
  -21.1124  -13.1241   22.2593 H   0  0  0  0  0  0
  -24.6729  -15.8494   20.5205 H   0  0  0  0  0  0
  -26.2909  -15.6240   20.0955 H   0  0  0  0  0  0
  -26.7088  -32.5567   23.1179 H   0  0  0  0  0  0
  -24.9996  -33.9793   25.0460 H   0  0  0  0  0  0
  -22.6857  -31.3068   21.4105 H   0  0  0  0  0  0
  -23.3732  -35.9674   23.3308 H   0  0  0  0  0  0
  -24.3579  -36.8939   22.2054 H   0  0  0  0  0  0
  -23.7242  -37.6542   23.6647 H   0  0  0  0  0  0
  -26.0240  -31.6129   20.5885 H   0  0  0  0  0  0
  -26.8126  -30.9084   21.9709 H   0  0  0  0  0  0
  -28.0897  -29.1582   21.1708 H   0  0  0  0  0  0
  -26.1023  -25.9734   19.0486 H   0  0  0  0  0  0
  -23.9899  -27.2722   19.0632 H   0  0  0  0  0  0
  -23.7093  -30.5940   19.4043 H   0  0  0  0  0  0
  -22.7319  -29.2353   19.8713 H   0  0  0  0  0  0
  -25.1273  -36.1994   25.0834 H   0  0  0  0  0  0
  -20.9949  -28.3232   24.1446 H   0  0  0  0  0  0
  -20.5655  -26.2269   23.3612 H   0  0  0  0  0  0
  -21.6624  -26.7450   22.1213 H   0  0  0  0  0  0
  -19.6887  -25.6310   21.1233 H   0  0  0  0  0  0
  -19.6667  -27.3224   20.6763 H   0  0  0  0  0  0
  -17.4179  -26.6700   21.4030 H   0  0  0  0  0  0
  -18.0299  -26.0074   22.9017 H   0  0  0  0  0  0
  -19.7917  -30.7273   24.2290 H   0  0  0  0  0  0
  -17.4996  -31.6269   24.5186 H   0  0  0  0  0  0
  -15.5341  -30.3006   23.7632 H   0  0  0  0  0  0
  -15.8655  -28.0847   22.7036 H   0  0  0  0  0  0
  -24.5903  -30.7050   25.7812 H   0  0  0  0  0  0
  -24.8952  -32.2837   26.4969 H   0  0  0  0  0  0
  -25.8118  -30.8820   27.0203 H   0  0  0  0  0  0
  -26.2810  -29.6817   24.1132 H   0  0  0  0  0  0
  -27.4073  -29.7271   25.4502 H   0  0  0  0  0  0
  -27.8630  -30.4369   23.9179 H   0  0  0  0  0  0
  -27.2659  -33.3600   26.2088 H   0  0  0  0  0  0
  -28.3834  -32.6895   25.0302 H   0  0  0  0  0  0
  -28.0714  -31.8415   26.5370 H   0  0  0  0  0  0
  -28.2603  -38.0109   24.7502 H   0  0  0  0  0  0
  -28.1070  -36.2644   24.6298 H   0  0  0  0  0  0
  -27.2303  -37.1483   25.8870 H   0  0  0  0  0  0
  -20.9275  -29.8777   21.6989 H   0  0  0  0  0  0
  -26.0186  -38.2882   24.1403 H   0  0  0  0  0  0
  -28.6036  -24.1969   17.6724 H   0  0  0  0  0  0
  -32.9307  -22.3118   19.2904 H   0  0  0  0  0  0
  -33.7885  -23.8161   18.9097 H   0  0  0  0  0  0
  -33.3855  -22.6782   17.6149 H   0  0  0  0  0  0
  -30.6101  -15.5549   23.7008 H   0  0  0  0  0  0
  -31.8045  -16.3203   22.6467 H   0  0  0  0  0  0
  -31.8816  -14.5889   22.9634 H   0  0  0  0  0  0
  -29.1694  -27.0155   17.5269 H   0  0  0  0  0  0
  -30.8085  -27.4862   17.8381 H   0  0  0  0  0  0
  -31.2915  -21.2960   17.5027 H   0  0  0  0  0  0
  -29.6718  -21.5794   16.9622 H   0  0  0  0  0  0
  -28.7416  -21.2212   19.1741 H   0  0  0  0  0  0
  -30.3085  -21.3606   19.9343 H   0  0  0  0  0  0
  -31.1102  -19.3060   18.9088 H   0  0  0  0  0  0
  -29.6299  -19.0913   18.0141 H   0  0  0  0  0  0
  -28.3596  -18.5734   19.9972 H   0  0  0  0  0  0
  -29.5936  -19.2113   21.0603 H   0  0  0  0  0  0
  -31.1545  -17.4251   20.4373 H   0  0  0  0  0  0
  -30.0297  -16.7830   19.2688 H   0  0  0  0  0  0
  -28.4964  -16.0268   21.0186 H   0  0  0  0  0  0
  -29.3195  -16.9453   22.2377 H   0  0  0  0  0  0
  -29.5183  -28.4465   19.5826 H   0  0  0  0  0  0
  -30.3899  -27.1341   20.3332 H   0  0  0  0  0  0
  1 25  1  0  0  0
  1 30  2  0  0  0
  1 86  1  0  0  0
  2  3  1  0  0  0
  2 25  1  0  0  0
  2 87  1  0  0  0
  2 88  1  0  0  0
  3  4  1  0  0  0
  3 89  1  0  0  0
  3 90  1  0  0  0
  4  5  1  0  0  0
  4 91  1  0  0  0
  4 92  1  0  0  0
  5  6  1  0  0  0
  5 26  1  0  0  0
  5 93  1  0  0  0
  6 25  1  0  0  0
  6 94  1  0  0  0
  6 95  1  0  0  0
  7  8  2  0  0  0
  7 26  1  0  0  0
  7 29  1  0  0  0
  8  9  1  0  0  0
  8 22  1  0  0  0
  9 10  1  0  0  0
  9 27  2  0  0  0
 10 11  2  0  0  0
 10 15  1  0  0  0
 11 12  1  0  0  0
 11 96  1  0  0  0
 12 13  2  0  0  0
 12 97  1  0  0  0
 13 14  1  0  0  0
 13 31  1  0  0  0
 14 15  2  0  0  0
 14 98  1  0  0  0
 15 99  1  0  0  0
 16 17  2  0  0  0
 16 21  1  0  0  0
 16 31  1  0  0  0
 17 18  1  0  0  0
 17100  1  0  0  0
 18 19  2  0  0  0
 18101  1  0  0  0
 19 20  1  0  0  0
 19 24  1  0  0  0
 20 21  2  0  0  0
 20102  1  0  0  0
 21 23  1  0  0  0
 22 28  1  0  0  0
 22 32  2  0  0  0
 26 27  1  0  0  0
 28103  1  0  0  0
 28104  1  0  0  0
 29105  1  0  0  0
 29106  1  0  0  0
 33 34  1  0  0  0
 33 66  1  0  0  0
 33 70  2  0  0  0
 34 36  1  0  0  0
 34 59  1  0  0  0
 34107  1  0  0  0
 35 44  2  0  0  0
 35 45  1  0  0  0
 35 68  1  0  0  0
 36 56  1  0  0  0
 36108  1  0  0  0
 37 39  1  0  0  0
 37 47  1  0  0  0
 37 66  1  0  0  0
 37109  1  0  0  0
 38 43  2  0  0  0
 38 46  1  0  0  0
 38 47  1  0  0  0
 39 64  1  0  0  0
 39 67  2  0  0  0
 40 52  1  0  0  0
 40 53  2  0  0  0
 40 58  1  0  0  0
 41110  1  0  0  0
 41111  1  0  0  0
 41112  1  0  0  0
 41 48  1  0  0  0
 42 43  1  0  0  0
 42 66  1  0  0  0
 42113  1  0  0  0
 42114  1  0  0  0
 43 44  1  0  0  0
 44115  1  0  0  0
 45 46  2  0  0  0
 45116  1  0  0  0
 46117  1  0  0  0
 47118  1  0  0  0
 47119  1  0  0  0
 48 56  1  0  0  0
 48 65  1  0  0  0
 48120  1  0  0  0
 49 50  1  0  0  0
 49 53  1  0  0  0
 49 64  1  0  0  0
 49121  1  0  0  0
 50 51  1  0  0  0
 50122  1  0  0  0
 50123  1  0  0  0
 51 52  1  0  0  0
 51124  1  0  0  0
 51125  1  0  0  0
 52126  1  0  0  0
 52127  1  0  0  0
 53 54  1  0  0  0
 54 55  2  0  0  0
 54128  1  0  0  0
 55 57  1  0  0  0
 55129  1  0  0  0
 56 69  2  0  0  0
 57 58  2  0  0  0
 57130  1  0  0  0
 58131  1  0  0  0
 59 60  1  0  0  0
 59 61  1  0  0  0
 59 62  1  0  0  0
 60132  1  0  0  0
 60133  1  0  0  0
 60134  1  0  0  0
 61135  1  0  0  0
 61136  1  0  0  0
 61137  1  0  0  0
 62138  1  0  0  0
 62139  1  0  0  0
 62140  1  0  0  0
 63 65  1  0  0  0
 63141  1  0  0  0
 63142  1  0  0  0
 63143  1  0  0  0
 64144  1  0  0  0
 65145  1  0  0  0
 68 83  1  0  0  0
 71 72  1  0  0  0
 71 73  2  0  0  0
 71146  1  0  0  0
 72 76  1  0  0  0
 72 84  2  0  0  0
 73 77  1  0  0  0
 73 85  1  0  0  0
 74 85  1  0  0  0
 74147  1  0  0  0
 74148  1  0  0  0
 74149  1  0  0  0
 75 86  1  0  0  0
 75150  1  0  0  0
 75151  1  0  0  0
 75152  1  0  0  0
 76 83  1  0  0  0
 76153  1  0  0  0
 76154  1  0  0  0
 77 78  1  0  0  0
 77155  1  0  0  0
 77156  1  0  0  0
 78 79  1  0  0  0
 78157  1  0  0  0
 78158  1  0  0  0
 79 80  1  0  0  0
 79159  1  0  0  0
 79160  1  0  0  0
 80 81  1  0  0  0
 80161  1  0  0  0
 80162  1  0  0  0
 81 82  1  0  0  0
 81163  1  0  0  0
 81164  1  0  0  0
 82 86  1  0  0  0
 82165  1  0  0  0
 82166  1  0  0  0
 83167  1  0  0  0
 83168  1  0  0  0
 84 85  1  0  0  0
M  ISO  4   1 100  68 101  83 101  86 100
M  END
> <chiral flag>
0

> <version>
0

> <s_m_source_file>
/data/baiqing/PycharmProjects/Reinvent-master-3.2/result/LINK_invent/BTK/process_docking_weight1_custom_sum_contain_oxygen_bond_distance_aromatic_linkinvent_7_9_3/rearranged_h_0037.sdf

> <i_m_source_file_index>
4

> <r_mmod_Potential_Energy-OPLS-2005>
46.7739715576172

> <r_mmod_Stretch_Energy-OPLS-2005>
32.3564376831055

> <r_mmod_Bend_Energy-OPLS-2005>
93.6203536987305

> <r_mmod_Torsional_Energy-OPLS-2005>
282.206756591797

> <r_mmod_Improper_Torsional_Energy-OPLS-2005>
4.87938404083252

> <r_mmod_Van_der_Waal_Energy-OPLS-2005>
125.430976867676

> <r_mmod_Electrostatic_Energy-OPLS-2005>
-294.317749023438

> <r_mmod_Solvation_Energy-OPLS-2005>
-203.74072265625

> <b_mmod_Minimization_Converged-OPLS-2005>
0

> <r_mmod_RMS_Derivative-OPLS-2005>
1.5673041343689

$$$$
4
                    3D
 Structure written by MMmdl.
159167  0  0  1  0            999 V2000
  -30.6294  -14.5183   20.6073 C   0  0  0  0  0  0
  -30.4390  -12.3282   19.4513 C   0  0  0  0  0  0
  -29.5132  -12.4870   18.2273 C   0  0  0  0  0  0
  -28.0319  -12.3369   18.6386 C   0  0  0  0  0  0
  -27.6590  -13.1913   19.8797 C   0  0  2  0  0  0
  -28.6871  -12.9782   21.0095 C   0  0  0  0  0  0
  -25.2569  -13.8121   20.5627 C   0  0  0  0  0  0
  -24.1785  -13.0398   20.9088 C   0  0  0  0  0  0
  -24.6312  -11.6865   20.8648 C   0  0  0  0  0  0
  -23.8999  -10.4245   21.0338 C   0  0  0  0  0  0
  -24.3589   -9.4191   21.9139 C   0  0  0  0  0  0
  -23.6298   -8.2220   22.0768 C   0  0  0  0  0  0
  -22.4280   -8.0215   21.3568 C   0  0  0  0  0  0
  -21.9862   -9.0154   20.4680 C   0  0  0  0  0  0
  -22.7135  -10.2058   20.3041 C   0  0  0  0  0  0
  -21.6875   -6.0692   22.5306 C   0  0  0  0  0  0
  -21.4027   -6.5641   23.8212 C   0  0  0  0  0  0
  -21.3665   -5.6811   24.9187 C   0  0  0  0  0  0
  -21.6050   -4.3075   24.7253 C   0  0  0  0  0  0
  -21.8826   -3.8151   23.4385 C   0  0  0  0  0  0
  -21.9182   -4.6930   22.3419 C   0  0  0  0  0  0
  -22.7835  -13.5229   21.1782 C   0  0  0  0  0  0
  -22.1652   -4.2126   21.0992 F   0  0  0  0  0  0
  -21.5619   -3.4560   25.7769 F   0  0  0  0  0  0
  -30.0173  -13.3081   20.4684 N   0  0  0  0  0  0
  -26.2971  -12.9238   20.3339 N   0  0  0  0  0  0
  -25.9242  -11.6427   20.5717 N   0  0  0  0  0  0
  -22.0498  -12.8203   22.0367 N   0  0  0  0  0  0
  -25.4282  -15.1833   20.4114 N   0  0  0  0  0  0
  -31.7551  -14.7567   20.1578 O   0  0  0  0  0  0
  -21.6651   -6.8808   21.4264 O   0  0  0  0  0  0
  -22.3521  -14.5529   20.6643 O   0  0  0  0  0  0
  -24.6163  -31.8689   23.2113 C   0  0  0  0  0  0
  -25.9062  -32.4822   23.8406 C   0  0  1  0  0  0
  -27.2215  -27.4112   20.0850 C   0  0  0  0  0  0
  -25.5941  -33.8621   24.2354 N   0  0  0  0  0  0
  -23.4031  -30.4966   21.5559 C   0  0  2  0  0  0
  -24.8437  -28.9708   20.1104 C   0  0  0  0  0  0
  -22.7412  -29.4656   22.5009 C   0  0  0  0  0  0
  -18.0295  -28.1352   22.8511 C   0  0  0  0  0  0
  -24.1493  -36.7304   23.2635 C   0  0  0  0  0  0
  -25.9366  -30.8289   21.3653 C   0  0  0  0  0  0
  -26.0100  -29.4659   20.7051 C   0  0  0  0  0  0
  -27.2025  -28.6973   20.6847 C   0  0  0  0  0  0
  -26.0400  -26.9621   19.4517 C   0  0  0  0  0  0
  -24.8576  -27.7197   19.4755 C   0  0  0  0  0  0
  -23.6073  -29.8384   20.1694 C   0  0  0  0  0  0
  -25.4104  -36.3106   24.0355 C   0  0  1  0  0  0
  -20.5887  -28.3643   23.1317 C   0  0  2  0  0  0
  -20.6775  -26.9381   22.5412 C   0  0  0  0  0  0
  -19.5745  -26.6380   21.5209 C   0  0  0  0  0  0
  -18.1922  -26.7906   22.1616 C   0  0  0  0  0  0
  -19.1552  -28.8816   23.2911 C   0  0  0  0  0  0
  -18.9455  -30.1425   23.8904 C   0  0  0  0  0  0
  -17.6461  -30.6560   24.0566 C   0  0  0  0  0  0
  -25.9051  -34.9480   23.5154 C   0  0  0  0  0  0
  -16.5357  -29.9059   23.6326 C   0  0  0  0  0  0
  -16.7279  -28.6474   23.0356 C   0  0  0  0  0  0
  -26.4487  -31.6570   25.0711 C   0  0  0  0  0  0
  -25.3757  -31.3647   26.1460 C   0  0  0  0  0  0
  -27.0311  -30.3013   24.6047 C   0  0  0  0  0  0
  -27.6095  -32.4247   25.7449 C   0  0  0  0  0  0
  -27.5588  -37.1800   24.8477 C   0  0  0  0  0  0
  -21.4159  -29.3030   22.3712 N   0  0  0  0  0  0
  -26.4302  -37.3782   23.9431 N   0  0  0  0  0  0
  -24.6713  -31.0774   22.1034 N   0  0  0  0  0  0
  -23.4174  -28.8160   23.3028 O   0  0  0  0  0  0
  -28.3678  -26.6298   20.0985 O   0  0  0  0  0  0
  -26.5594  -34.8921   22.4706 O   0  0  0  0  0  0
  -23.5354  -32.1466   23.7486 O   0  0  0  0  0  0
  -28.6788  -22.0880   21.9216 C   0  0  0  0  0  0
  -28.5324  -21.0896   22.8939 C   0  0  0  0  0  0
  -28.9488  -20.3492   20.2403 C   0  0  0  0  0  0
  -28.8802  -21.7393   20.5743 C   0  0  0  0  0  0
  -28.5980  -19.7201   22.5682 C   0  0  0  0  0  0
  -28.8320  -19.3163   21.2246 C   0  0  0  0  0  0
  -28.3933  -18.7516   23.7213 C   0  0  0  0  0  0
  -29.0155  -22.8481   19.5038 C   0  0  0  0  0  0
  -28.8538  -17.8107   20.8250 C   0  0  0  0  0  0
  -29.3719  -24.3129   19.9599 C   0  0  0  0  0  0
  -30.0586  -16.9379   21.3217 C   0  0  0  0  0  0
  -28.1814  -25.2189   20.3841 C   0  0  0  0  0  0
  -29.8385  -15.4798   21.1471 N   0  0  0  0  0  0
  -31.4840  -12.4516   19.1611 H   0  0  0  0  0  0
  -30.3662  -11.3191   19.8578 H   0  0  0  0  0  0
  -29.7609  -11.7458   17.4653 H   0  0  0  0  0  0
  -29.6779  -13.4630   17.7680 H   0  0  0  0  0  0
  -27.8583  -11.2803   18.8609 H   0  0  0  0  0  0
  -27.3800  -12.5811   17.8000 H   0  0  0  0  0  0
  -27.7028  -14.2338   19.5724 H   0  0  0  0  0  0
  -28.6683  -11.9466   21.3617 H   0  0  0  0  0  0
  -28.4268  -13.5820   21.8816 H   0  0  0  0  0  0
  -25.2722   -9.5748   22.4723 H   0  0  0  0  0  0
  -24.0018   -7.4663   22.7556 H   0  0  0  0  0  0
  -21.0767   -8.8625   19.9061 H   0  0  0  0  0  0
  -22.3486  -10.9561   19.6196 H   0  0  0  0  0  0
  -21.2044   -7.6153   23.9694 H   0  0  0  0  0  0
  -21.1477   -6.0564   25.9073 H   0  0  0  0  0  0
  -22.0591   -2.7613   23.2889 H   0  0  0  0  0  0
  -22.4028  -11.9734   22.4584 H   0  0  0  0  0  0
  -21.1123  -13.1280   22.2580 H   0  0  0  0  0  0
  -24.6669  -15.8368   20.5578 H   0  0  0  0  0  0
  -26.2828  -15.6427   20.1262 H   0  0  0  0  0  0
  -26.7110  -32.5499   23.1153 H   0  0  0  0  0  0
  -25.0120  -33.9801   25.0517 H   0  0  0  0  0  0
  -22.6934  -31.3139   21.4184 H   0  0  0  0  0  0
  -23.3759  -35.9636   23.3298 H   0  0  0  0  0  0
  -24.3585  -36.8895   22.2048 H   0  0  0  0  0  0
  -23.7246  -37.6523   23.6620 H   0  0  0  0  0  0
  -26.0579  -31.5974   20.5988 H   0  0  0  0  0  0
  -26.8251  -30.8775   21.9840 H   0  0  0  0  0  0
  -28.1033  -29.0810   21.1397 H   0  0  0  0  0  0
  -26.0079  -26.0316   18.9065 H   0  0  0  0  0  0
  -23.9672  -27.3429   18.9900 H   0  0  0  0  0  0
  -23.7151  -30.6187   19.4165 H   0  0  0  0  0  0
  -22.7277  -29.2671   19.8695 H   0  0  0  0  0  0
  -25.1252  -36.2007   25.0848 H   0  0  0  0  0  0
  -21.0013  -28.3204   24.1429 H   0  0  0  0  0  0
  -20.5665  -26.2240   23.3585 H   0  0  0  0  0  0
  -21.6620  -26.7412   22.1173 H   0  0  0  0  0  0
  -19.6902  -25.6307   21.1197 H   0  0  0  0  0  0
  -19.6677  -27.3207   20.6750 H   0  0  0  0  0  0
  -17.4194  -26.6698   21.4015 H   0  0  0  0  0  0
  -18.0301  -26.0033   22.8988 H   0  0  0  0  0  0
  -19.7928  -30.7263   24.2231 H   0  0  0  0  0  0
  -17.5008  -31.6229   24.5168 H   0  0  0  0  0  0
  -15.5340  -30.2960   23.7635 H   0  0  0  0  0  0
  -15.8685  -28.0787   22.7073 H   0  0  0  0  0  0
  -24.5965  -30.6956   25.7777 H   0  0  0  0  0  0
  -24.8907  -32.2789   26.4888 H   0  0  0  0  0  0
  -25.8122  -30.8830   27.0222 H   0  0  0  0  0  0
  -26.2848  -29.6751   24.1136 H   0  0  0  0  0  0
  -27.4159  -29.7227   25.4454 H   0  0  0  0  0  0
  -27.8638  -30.4304   23.9120 H   0  0  0  0  0  0
  -27.2779  -33.3556   26.2052 H   0  0  0  0  0  0
  -28.3906  -32.6791   25.0266 H   0  0  0  0  0  0
  -28.0785  -31.8350   26.5344 H   0  0  0  0  0  0
  -28.2600  -38.0091   24.7529 H   0  0  0  0  0  0
  -28.1083  -36.2646   24.6289 H   0  0  0  0  0  0
  -27.2317  -37.1428   25.8874 H   0  0  0  0  0  0
  -20.9280  -29.8787   21.6993 H   0  0  0  0  0  0
  -26.0199  -38.2868   24.1420 H   0  0  0  0  0  0
  -28.6330  -23.1191   22.2404 H   0  0  0  0  0  0
  -28.3638  -21.3808   23.9185 H   0  0  0  0  0  0
  -29.0763  -20.0623   19.2041 H   0  0  0  0  0  0
  -29.3324  -18.6169   24.2568 H   0  0  0  0  0  0
  -28.0125  -17.7813   23.4158 H   0  0  0  0  0  0
  -27.6744  -19.1661   24.4323 H   0  0  0  0  0  0
  -28.1027  -22.8782   18.9058 H   0  0  0  0  0  0
  -29.7939  -22.5249   18.8106 H   0  0  0  0  0  0
  -28.8005  -17.7271   19.7394 H   0  0  0  0  0  0
  -27.9215  -17.3657   21.1767 H   0  0  0  0  0  0
  -29.8115  -24.8030   19.0918 H   0  0  0  0  0  0
  -30.1635  -24.3199   20.7116 H   0  0  0  0  0  0
  -30.2092  -17.1129   22.3881 H   0  0  0  0  0  0
  -30.9784  -17.2523   20.8265 H   0  0  0  0  0  0
  -28.0053  -25.1185   21.4561 H   0  0  0  0  0  0
  -27.2961  -24.8101   19.9088 H   0  0  0  0  0  0
  -28.9380  -15.1317   21.4440 H   0  0  0  0  0  0
  1 25  1  0  0  0
  1 30  2  0  0  0
  1 83  1  0  0  0
  2  3  1  0  0  0
  2 25  1  0  0  0
  2 84  1  0  0  0
  2 85  1  0  0  0
  3  4  1  0  0  0
  3 86  1  0  0  0
  3 87  1  0  0  0
  4  5  1  0  0  0
  4 88  1  0  0  0
  4 89  1  0  0  0
  5  6  1  0  0  0
  5 26  1  0  0  0
  5 90  1  0  0  0
  6 25  1  0  0  0
  6 91  1  0  0  0
  6 92  1  0  0  0
  7  8  2  0  0  0
  7 26  1  0  0  0
  7 29  1  0  0  0
  8  9  1  0  0  0
  8 22  1  0  0  0
  9 10  1  0  0  0
  9 27  2  0  0  0
 10 11  2  0  0  0
 10 15  1  0  0  0
 11 12  1  0  0  0
 11 93  1  0  0  0
 12 13  2  0  0  0
 12 94  1  0  0  0
 13 14  1  0  0  0
 13 31  1  0  0  0
 14 15  2  0  0  0
 14 95  1  0  0  0
 15 96  1  0  0  0
 16 17  2  0  0  0
 16 21  1  0  0  0
 16 31  1  0  0  0
 17 18  1  0  0  0
 17 97  1  0  0  0
 18 19  2  0  0  0
 18 98  1  0  0  0
 19 20  1  0  0  0
 19 24  1  0  0  0
 20 21  2  0  0  0
 20 99  1  0  0  0
 21 23  1  0  0  0
 22 28  1  0  0  0
 22 32  2  0  0  0
 26 27  1  0  0  0
 28100  1  0  0  0
 28101  1  0  0  0
 29102  1  0  0  0
 29103  1  0  0  0
 33 34  1  0  0  0
 33 66  1  0  0  0
 33 70  2  0  0  0
 34 36  1  0  0  0
 34 59  1  0  0  0
 34104  1  0  0  0
 35 44  2  0  0  0
 35 45  1  0  0  0
 35 68  1  0  0  0
 36 56  1  0  0  0
 36105  1  0  0  0
 37 39  1  0  0  0
 37 47  1  0  0  0
 37 66  1  0  0  0
 37106  1  0  0  0
 38 43  2  0  0  0
 38 46  1  0  0  0
 38 47  1  0  0  0
 39 64  1  0  0  0
 39 67  2  0  0  0
 40 52  1  0  0  0
 40 53  2  0  0  0
 40 58  1  0  0  0
 41107  1  0  0  0
 41108  1  0  0  0
 41109  1  0  0  0
 41 48  1  0  0  0
 42 43  1  0  0  0
 42 66  1  0  0  0
 42110  1  0  0  0
 42111  1  0  0  0
 43 44  1  0  0  0
 44112  1  0  0  0
 45 46  2  0  0  0
 45113  1  0  0  0
 46114  1  0  0  0
 47115  1  0  0  0
 47116  1  0  0  0
 48 56  1  0  0  0
 48 65  1  0  0  0
 48117  1  0  0  0
 49 50  1  0  0  0
 49 53  1  0  0  0
 49 64  1  0  0  0
 49118  1  0  0  0
 50 51  1  0  0  0
 50119  1  0  0  0
 50120  1  0  0  0
 51 52  1  0  0  0
 51121  1  0  0  0
 51122  1  0  0  0
 52123  1  0  0  0
 52124  1  0  0  0
 53 54  1  0  0  0
 54 55  2  0  0  0
 54125  1  0  0  0
 55 57  1  0  0  0
 55126  1  0  0  0
 56 69  2  0  0  0
 57 58  2  0  0  0
 57127  1  0  0  0
 58128  1  0  0  0
 59 60  1  0  0  0
 59 61  1  0  0  0
 59 62  1  0  0  0
 60129  1  0  0  0
 60130  1  0  0  0
 60131  1  0  0  0
 61132  1  0  0  0
 61133  1  0  0  0
 61134  1  0  0  0
 62135  1  0  0  0
 62136  1  0  0  0
 62137  1  0  0  0
 63 65  1  0  0  0
 63138  1  0  0  0
 63139  1  0  0  0
 63140  1  0  0  0
 64141  1  0  0  0
 65142  1  0  0  0
 68 82  1  0  0  0
 71 72  2  0  0  0
 71 74  1  0  0  0
 71143  1  0  0  0
 72 75  1  0  0  0
 72144  1  0  0  0
 73 74  2  0  0  0
 73 76  1  0  0  0
 73145  1  0  0  0
 74 78  1  0  0  0
 75 76  2  0  0  0
 75 77  1  0  0  0
 76 79  1  0  0  0
 77146  1  0  0  0
 77147  1  0  0  0
 77148  1  0  0  0
 78 80  1  0  0  0
 78149  1  0  0  0
 78150  1  0  0  0
 79 81  1  0  0  0
 79151  1  0  0  0
 79152  1  0  0  0
 80 82  1  0  0  0
 80153  1  0  0  0
 80154  1  0  0  0
 81 83  1  0  0  0
 81155  1  0  0  0
 81156  1  0  0  0
 82157  1  0  0  0
 82158  1  0  0  0
 83159  1  0  0  0
M  ISO  4   1 100  68 101  82 101  83 100
M  END
> <chiral flag>
0

> <version>
0

> <s_m_source_file>
/data/baiqing/PycharmProjects/Reinvent-master-3.2/result/LINK_invent/BTK/process_docking_weight1_custom_sum_contain_oxygen_bond_distance_aromatic_linkinvent_7_9_3/rearranged_h_0037.sdf

> <i_m_source_file_index>
5

> <r_mmod_Potential_Energy-OPLS-2005>
-43.4853134155273

> <r_mmod_Stretch_Energy-OPLS-2005>
51.1740303039551

> <r_mmod_Bend_Energy-OPLS-2005>
110.982414245605

> <r_mmod_Torsional_Energy-OPLS-2005>
214.341644287109

> <r_mmod_Improper_Torsional_Energy-OPLS-2005>
3.39759063720703

> <r_mmod_Van_der_Waal_Energy-OPLS-2005>
153.564956665039

> <r_mmod_Electrostatic_Energy-OPLS-2005>
-389.661682128906

> <r_mmod_Solvation_Energy-OPLS-2005>
-207.852401733398

> <b_mmod_Minimization_Converged-OPLS-2005>
0

> <r_mmod_RMS_Derivative-OPLS-2005>
6.34940528869629

$$$$
5
                    3D
 Structure written by MMmdl.
156164  0  0  1  0            999 V2000
  -30.6873  -14.5026   20.5558 C   0  0  0  0  0  0
  -30.4270  -12.3236   19.4248 C   0  0  0  0  0  0
  -29.4949  -12.5019   18.2091 C   0  0  0  0  0  0
  -28.0168  -12.3595   18.6247 C   0  0  0  0  0  0
  -27.6589  -13.2085   19.8737 C   0  0  2  0  0  0
  -28.7033  -13.0033   20.9947 C   0  0  0  0  0  0
  -25.2569  -13.8155   20.5706 C   0  0  0  0  0  0
  -24.1827  -13.0429   20.9205 C   0  0  0  0  0  0
  -24.6377  -11.6897   20.8748 C   0  0  0  0  0  0
  -23.9053  -10.4280   21.0405 C   0  0  0  0  0  0
  -24.3608   -9.4198   21.9184 C   0  0  0  0  0  0
  -23.6291   -8.2229   22.0744 C   0  0  0  0  0  0
  -22.4268   -8.0270   21.3535 C   0  0  0  0  0  0
  -21.9905   -9.0241   20.4638 C   0  0  0  0  0  0
  -22.7225  -10.2125   20.3052 C   0  0  0  0  0  0
  -21.6847   -6.0738   22.5282 C   0  0  0  0  0  0
  -21.4008   -6.5640   23.8222 C   0  0  0  0  0  0
  -21.3669   -5.6792   24.9180 C   0  0  0  0  0  0
  -21.6046   -4.3056   24.7228 C   0  0  0  0  0  0
  -21.8824   -3.8148   23.4346 C   0  0  0  0  0  0
  -21.9191   -4.6969   22.3405 C   0  0  0  0  0  0
  -22.7849  -13.5222   21.1870 C   0  0  0  0  0  0
  -22.1653   -4.2154   21.0980 F   0  0  0  0  0  0
  -21.5632   -3.4539   25.7740 F   0  0  0  0  0  0
  -30.0315  -13.3138   20.4383 N   0  0  0  0  0  0
  -26.3006  -12.9331   20.3371 N   0  0  0  0  0  0
  -25.9306  -11.6489   20.5785 N   0  0  0  0  0  0
  -22.0493  -12.8213   22.0434 N   0  0  0  0  0  0
  -25.4290  -15.1874   20.4112 N   0  0  0  0  0  0
  -31.8202  -14.6900   20.1056 O   0  0  0  0  0  0
  -21.6633   -6.8867   21.4237 O   0  0  0  0  0  0
  -22.3538  -14.5536   20.6736 O   0  0  0  0  0  0
  -24.6195  -31.8674   23.2112 C   0  0  0  0  0  0
  -25.9075  -32.4812   23.8409 C   0  0  1  0  0  0
  -27.2201  -27.3942   20.0873 C   0  0  0  0  0  0
  -25.5928  -33.8615   24.2335 N   0  0  0  0  0  0
  -23.4075  -30.4961   21.5534 C   0  0  2  0  0  0
  -24.8499  -28.9671   20.1094 C   0  0  0  0  0  0
  -22.7431  -29.4673   22.4971 C   0  0  0  0  0  0
  -18.0279  -28.1394   22.8469 C   0  0  0  0  0  0
  -24.1491  -36.7317   23.2637 C   0  0  0  0  0  0
  -25.9431  -30.8174   21.3749 C   0  0  0  0  0  0
  -26.0150  -29.4524   20.7151 C   0  0  0  0  0  0
  -27.2005  -28.6721   20.7059 C   0  0  0  0  0  0
  -26.0342  -26.9582   19.4429 C   0  0  0  0  0  0
  -24.8566  -27.7211   19.4697 C   0  0  0  0  0  0
  -23.6161  -29.8396   20.1646 C   0  0  0  0  0  0
  -25.4111  -36.3108   24.0337 C   0  0  1  0  0  0
  -20.5873  -28.3686   23.1295 C   0  0  2  0  0  0
  -20.6770  -26.9418   22.5403 C   0  0  0  0  0  0
  -19.5749  -26.6401   21.5199 C   0  0  0  0  0  0
  -18.1927  -26.7943   22.1608 C   0  0  0  0  0  0
  -19.1528  -28.8853   23.2884 C   0  0  0  0  0  0
  -18.9460  -30.1451   23.8910 C   0  0  0  0  0  0
  -17.6461  -30.6589   24.0567 C   0  0  0  0  0  0
  -25.9043  -34.9474   23.5133 C   0  0  0  0  0  0
  -16.5350  -29.9095   23.6324 C   0  0  0  0  0  0
  -16.7269  -28.6517   23.0338 C   0  0  0  0  0  0
  -26.4487  -31.6593   25.0748 C   0  0  0  0  0  0
  -25.3749  -31.3696   26.1497 C   0  0  0  0  0  0
  -27.0319  -30.3030   24.6146 C   0  0  0  0  0  0
  -27.6067  -32.4314   25.7506 C   0  0  0  0  0  0
  -27.5576  -37.1817   24.8465 C   0  0  0  0  0  0
  -21.4155  -29.3060   22.3703 N   0  0  0  0  0  0
  -26.4292  -37.3791   23.9404 N   0  0  0  0  0  0
  -24.6750  -31.0747   22.1040 N   0  0  0  0  0  0
  -23.4184  -28.8209   23.3021 O   0  0  0  0  0  0
  -28.3649  -26.6018   20.1403 O   0  0  0  0  0  0
  -26.5591  -34.8922   22.4688 O   0  0  0  0  0  0
  -23.5382  -32.1449   23.7481 O   0  0  0  0  0  0
  -29.5573  -20.3124   19.5409 C   0  0  0  0  0  0
  -29.3359  -19.3360   20.4825 C   0  0  0  0  0  0
  -29.0306  -20.0991   21.6505 C   0  0  0  0  0  0
  -28.6339  -19.5911   23.0064 C   0  0  0  0  0  0
  -29.2684  -17.8182   20.2905 C   0  0  0  0  0  0
  -29.2541  -24.1818   20.2570 C   0  0  0  0  0  0
  -29.2120  -22.8524   19.4259 C   0  0  0  0  0  0
  -30.2863  -16.9594   21.0948 C   0  0  0  0  0  0
  -28.2469  -25.2255   19.6938 C   0  0  0  0  0  0
  -29.0371  -21.4115   21.4279 N   0  0  0  0  0  0
  -29.3365  -21.5557   20.1181 N   0  0  0  0  0  0
  -29.9517  -15.5184   21.0520 N   0  0  0  0  0  0
  -31.4688  -12.4349   19.1192 H   0  0  0  0  0  0
  -30.3404  -11.3141   19.8311 H   0  0  0  0  0  0
  -29.7358  -11.7661   17.4402 H   0  0  0  0  0  0
  -29.6577  -13.4826   17.7592 H   0  0  0  0  0  0
  -27.8337  -11.3048   18.8342 H   0  0  0  0  0  0
  -27.3634  -12.6196   17.7912 H   0  0  0  0  0  0
  -27.6981  -14.2544   19.5678 H   0  0  0  0  0  0
  -28.6870  -11.9700   21.3446 H   0  0  0  0  0  0
  -28.4630  -13.6120   21.8686 H   0  0  0  0  0  0
  -25.2753   -9.5682   22.4762 H   0  0  0  0  0  0
  -24.0011   -7.4620   22.7455 H   0  0  0  0  0  0
  -21.0842   -8.8757   19.8940 H   0  0  0  0  0  0
  -22.3681  -10.9665   19.6166 H   0  0  0  0  0  0
  -21.1991   -7.6151   23.9720 H   0  0  0  0  0  0
  -21.1486   -6.0526   25.9088 H   0  0  0  0  0  0
  -22.0595   -2.7610   23.2851 H   0  0  0  0  0  0
  -22.4109  -11.9875   22.4825 H   0  0  0  0  0  0
  -21.1102  -13.1227   22.2622 H   0  0  0  0  0  0
  -24.6641  -15.8444   20.5218 H   0  0  0  0  0  0
  -26.2819  -15.6241   20.0864 H   0  0  0  0  0  0
  -26.7138  -32.5503   23.1162 H   0  0  0  0  0  0
  -25.0086  -33.9780   25.0484 H   0  0  0  0  0  0
  -22.6980  -31.3148   21.4177 H   0  0  0  0  0  0
  -23.3742  -35.9658   23.3318 H   0  0  0  0  0  0
  -24.3583  -36.8920   22.2046 H   0  0  0  0  0  0
  -23.7262  -37.6539   23.6639 H   0  0  0  0  0  0
  -26.0686  -31.5840   20.6093 H   0  0  0  0  0  0
  -26.8272  -30.8627   21.9986 H   0  0  0  0  0  0
  -28.0947  -29.0387   21.1906 H   0  0  0  0  0  0
  -25.9764  -26.0254   18.9030 H   0  0  0  0  0  0
  -23.9656  -27.3495   18.9826 H   0  0  0  0  0  0
  -23.7323  -30.6216   19.4133 H   0  0  0  0  0  0
  -22.7354  -29.2698   19.8611 H   0  0  0  0  0  0
  -25.1287  -36.1969   25.0826 H   0  0  0  0  0  0
  -20.9949  -28.3256   24.1422 H   0  0  0  0  0  0
  -20.5686  -26.2294   23.3597 H   0  0  0  0  0  0
  -21.6639  -26.7471   22.1185 H   0  0  0  0  0  0
  -19.6918  -25.6322   21.1209 H   0  0  0  0  0  0
  -19.6696  -27.3221   20.6738 H   0  0  0  0  0  0
  -17.4197  -26.6680   21.4009 H   0  0  0  0  0  0
  -18.0331  -26.0096   22.9015 H   0  0  0  0  0  0
  -19.7942  -30.7247   24.2300 H   0  0  0  0  0  0
  -17.5025  -31.6266   24.5185 H   0  0  0  0  0  0
  -15.5356  -30.3001   23.7663 H   0  0  0  0  0  0
  -15.8664  -28.0849   22.7050 H   0  0  0  0  0  0
  -24.5927  -30.7035   25.7833 H   0  0  0  0  0  0
  -24.8932  -32.2847   26.4954 H   0  0  0  0  0  0
  -25.8111  -30.8862   27.0249 H   0  0  0  0  0  0
  -26.2868  -29.6792   24.1194 H   0  0  0  0  0  0
  -27.4072  -29.7266   25.4612 H   0  0  0  0  0  0
  -27.8716  -30.4343   23.9318 H   0  0  0  0  0  0
  -27.2695  -33.3607   26.2110 H   0  0  0  0  0  0
  -28.3862  -32.6889   25.0321 H   0  0  0  0  0  0
  -28.0752  -31.8423   26.5404 H   0  0  0  0  0  0
  -28.2608  -38.0097   24.7491 H   0  0  0  0  0  0
  -28.1060  -36.2636   24.6315 H   0  0  0  0  0  0
  -27.2296  -37.1498   25.8867 H   0  0  0  0  0  0
  -20.9318  -29.8793   21.6934 H   0  0  0  0  0  0
  -26.0186  -38.2873   24.1388 H   0  0  0  0  0  0
  -29.7715  -20.2211   18.4851 H   0  0  0  0  0  0
  -28.1481  -20.3652   23.6017 H   0  0  0  0  0  0
  -29.5011  -19.2347   23.5623 H   0  0  0  0  0  0
  -27.9312  -18.7619   22.9200 H   0  0  0  0  0  0
  -29.3781  -17.5730   19.2337 H   0  0  0  0  0  0
  -28.2632  -17.4801   20.5459 H   0  0  0  0  0  0
  -30.2658  -24.5852   20.2403 H   0  0  0  0  0  0
  -29.0145  -24.0042   21.3054 H   0  0  0  0  0  0
  -29.9757  -22.8965   18.6480 H   0  0  0  0  0  0
  -28.2628  -22.8041   18.8905 H   0  0  0  0  0  0
  -30.2725  -17.2591   22.1424 H   0  0  0  0  0  0
  -31.3000  -17.1446   20.7339 H   0  0  0  0  0  0
  -27.2773  -24.8115   19.9734 H   0  0  0  0  0  0
  -28.2975  -25.2306   18.6041 H   0  0  0  0  0  0
  -29.0330  -15.2623   21.3830 H   0  0  0  0  0  0
  1 25  1  0  0  0
  1 30  2  0  0  0
  1 82  1  0  0  0
  2  3  1  0  0  0
  2 25  1  0  0  0
  2 83  1  0  0  0
  2 84  1  0  0  0
  3  4  1  0  0  0
  3 85  1  0  0  0
  3 86  1  0  0  0
  4  5  1  0  0  0
  4 87  1  0  0  0
  4 88  1  0  0  0
  5  6  1  0  0  0
  5 26  1  0  0  0
  5 89  1  0  0  0
  6 25  1  0  0  0
  6 90  1  0  0  0
  6 91  1  0  0  0
  7  8  2  0  0  0
  7 26  1  0  0  0
  7 29  1  0  0  0
  8  9  1  0  0  0
  8 22  1  0  0  0
  9 10  1  0  0  0
  9 27  2  0  0  0
 10 11  2  0  0  0
 10 15  1  0  0  0
 11 12  1  0  0  0
 11 92  1  0  0  0
 12 13  2  0  0  0
 12 93  1  0  0  0
 13 14  1  0  0  0
 13 31  1  0  0  0
 14 15  2  0  0  0
 14 94  1  0  0  0
 15 95  1  0  0  0
 16 17  2  0  0  0
 16 21  1  0  0  0
 16 31  1  0  0  0
 17 18  1  0  0  0
 17 96  1  0  0  0
 18 19  2  0  0  0
 18 97  1  0  0  0
 19 20  1  0  0  0
 19 24  1  0  0  0
 20 21  2  0  0  0
 20 98  1  0  0  0
 21 23  1  0  0  0
 22 28  1  0  0  0
 22 32  2  0  0  0
 26 27  1  0  0  0
 28 99  1  0  0  0
 28100  1  0  0  0
 29101  1  0  0  0
 29102  1  0  0  0
 33 34  1  0  0  0
 33 66  1  0  0  0
 33 70  2  0  0  0
 34 36  1  0  0  0
 34 59  1  0  0  0
 34103  1  0  0  0
 35 44  2  0  0  0
 35 45  1  0  0  0
 35 68  1  0  0  0
 36 56  1  0  0  0
 36104  1  0  0  0
 37 39  1  0  0  0
 37 47  1  0  0  0
 37 66  1  0  0  0
 37105  1  0  0  0
 38 43  2  0  0  0
 38 46  1  0  0  0
 38 47  1  0  0  0
 39 64  1  0  0  0
 39 67  2  0  0  0
 40 52  1  0  0  0
 40 53  2  0  0  0
 40 58  1  0  0  0
 41106  1  0  0  0
 41107  1  0  0  0
 41108  1  0  0  0
 41 48  1  0  0  0
 42 43  1  0  0  0
 42 66  1  0  0  0
 42109  1  0  0  0
 42110  1  0  0  0
 43 44  1  0  0  0
 44111  1  0  0  0
 45 46  2  0  0  0
 45112  1  0  0  0
 46113  1  0  0  0
 47114  1  0  0  0
 47115  1  0  0  0
 48 56  1  0  0  0
 48 65  1  0  0  0
 48116  1  0  0  0
 49 50  1  0  0  0
 49 53  1  0  0  0
 49 64  1  0  0  0
 49117  1  0  0  0
 50 51  1  0  0  0
 50118  1  0  0  0
 50119  1  0  0  0
 51 52  1  0  0  0
 51120  1  0  0  0
 51121  1  0  0  0
 52122  1  0  0  0
 52123  1  0  0  0
 53 54  1  0  0  0
 54 55  2  0  0  0
 54124  1  0  0  0
 55 57  1  0  0  0
 55125  1  0  0  0
 56 69  2  0  0  0
 57 58  2  0  0  0
 57126  1  0  0  0
 58127  1  0  0  0
 59 60  1  0  0  0
 59 61  1  0  0  0
 59 62  1  0  0  0
 60128  1  0  0  0
 60129  1  0  0  0
 60130  1  0  0  0
 61131  1  0  0  0
 61132  1  0  0  0
 61133  1  0  0  0
 62134  1  0  0  0
 62135  1  0  0  0
 62136  1  0  0  0
 63 65  1  0  0  0
 63137  1  0  0  0
 63138  1  0  0  0
 63139  1  0  0  0
 64140  1  0  0  0
 65141  1  0  0  0
 68 79  1  0  0  0
 71 72  2  0  0  0
 71 81  1  0  0  0
 71142  1  0  0  0
 72 73  1  0  0  0
 72 75  1  0  0  0
 73 74  1  0  0  0
 73 80  2  0  0  0
 74143  1  0  0  0
 74144  1  0  0  0
 74145  1  0  0  0
 75 78  1  0  0  0
 75146  1  0  0  0
 75147  1  0  0  0
 76 77  1  0  0  0
 76 79  1  0  0  0
 76148  1  0  0  0
 76149  1  0  0  0
 77 81  1  0  0  0
 77150  1  0  0  0
 77151  1  0  0  0
 78 82  1  0  0  0
 78152  1  0  0  0
 78153  1  0  0  0
 79154  1  0  0  0
 79155  1  0  0  0
 80 81  1  0  0  0
 82156  1  0  0  0
M  ISO  4   1 100  68 101  79 101  82 100
M  END
> <chiral flag>
0

> <version>
0

> <s_m_source_file>
/data/baiqing/PycharmProjects/Reinvent-master-3.2/result/LINK_invent/BTK/process_docking_weight1_custom_sum_contain_oxygen_bond_distance_aromatic_linkinvent_7_9_3/rearranged_h_0037.sdf

> <i_m_source_file_index>
6

> <r_mmod_Potential_Energy-OPLS-2005>
-133.597183227539

> <r_mmod_Stretch_Energy-OPLS-2005>
42.3942680358887

> <r_mmod_Bend_Energy-OPLS-2005>
109.087120056152

> <r_mmod_Torsional_Energy-OPLS-2005>
211.522872924805

> <r_mmod_Improper_Torsional_Energy-OPLS-2005>
5.33412981033325

> <r_mmod_Van_der_Waal_Energy-OPLS-2005>
133.25146484375

> <r_mmod_Electrostatic_Energy-OPLS-2005>
-425.637329101562

> <r_mmod_Solvation_Energy-OPLS-2005>
-229.971923828125

> <b_mmod_Minimization_Converged-OPLS-2005>
0

> <r_mmod_RMS_Derivative-OPLS-2005>
1.58467948436737

$$$$
6
                    3D
 Structure written by MMmdl.
172180  0  0  1  0            999 V2000
  -30.6191  -14.6827   20.5133 C   0  0  0  0  0  0
  -30.4385  -12.4164   19.4721 C   0  0  0  0  0  0
  -29.5141  -12.5111   18.2377 C   0  0  0  0  0  0
  -28.0378  -12.3399   18.6478 C   0  0  0  0  0  0
  -27.6530  -13.2231   19.8649 C   0  0  2  0  0  0
  -28.6960  -13.1086   20.9983 C   0  0  0  0  0  0
  -25.2570  -13.8170   20.5716 C   0  0  0  0  0  0
  -24.1841  -13.0430   20.9199 C   0  0  0  0  0  0
  -24.6419  -11.6901   20.8746 C   0  0  0  0  0  0
  -23.9093  -10.4284   21.0413 C   0  0  0  0  0  0
  -24.3631   -9.4201   21.9196 C   0  0  0  0  0  0
  -23.6301   -8.2240   22.0764 C   0  0  0  0  0  0
  -22.4281   -8.0284   21.3553 C   0  0  0  0  0  0
  -21.9925   -9.0258   20.4649 C   0  0  0  0  0  0
  -22.7265  -10.2137   20.3063 C   0  0  0  0  0  0
  -21.6847   -6.0743   22.5282 C   0  0  0  0  0  0
  -21.4012   -6.5648   23.8214 C   0  0  0  0  0  0
  -21.3656   -5.6802   24.9170 C   0  0  0  0  0  0
  -21.6036   -4.3065   24.7221 C   0  0  0  0  0  0
  -21.8816   -3.8160   23.4345 C   0  0  0  0  0  0
  -21.9194   -4.6975   22.3404 C   0  0  0  0  0  0
  -22.7863  -13.5213   21.1844 C   0  0  0  0  0  0
  -22.1663   -4.2168   21.0981 F   0  0  0  0  0  0
  -21.5623   -3.4546   25.7731 F   0  0  0  0  0  0
  -30.0079  -13.4530   20.4365 N   0  0  0  0  0  0
  -26.3003  -12.9364   20.3338 N   0  0  0  0  0  0
  -25.9352  -11.6515   20.5780 N   0  0  0  0  0  0
  -22.0500  -12.8209   22.0397 N   0  0  0  0  0  0
  -25.4280  -15.1890   20.4125 N   0  0  0  0  0  0
  -31.7722  -14.8130   20.0919 O   0  0  0  0  0  0
  -21.6641   -6.8889   21.4245 O   0  0  0  0  0  0
  -22.3564  -14.5526   20.6698 O   0  0  0  0  0  0
  -24.6286  -31.8564   23.2008 C   0  0  0  0  0  0
  -25.9118  -32.4757   23.8347 C   0  0  1  0  0  0
  -27.2214  -27.2968   20.1115 C   0  0  0  0  0  0
  -25.5928  -33.8558   24.2264 N   0  0  0  0  0  0
  -23.4217  -30.4805   21.5444 C   0  0  2  0  0  0
  -24.8664  -28.9328   20.1126 C   0  0  0  0  0  0
  -22.7488  -29.4596   22.4931 C   0  0  0  0  0  0
  -18.0284  -28.1383   22.8481 C   0  0  0  0  0  0
  -24.1490  -36.7282   23.2642 C   0  0  0  0  0  0
  -25.9656  -30.7806   21.3747 C   0  0  0  0  0  0
  -26.0371  -29.4081   20.7134 C   0  0  0  0  0  0
  -27.2141  -28.6016   20.7041 C   0  0  0  0  0  0
  -26.0159  -26.8705   19.5072 C   0  0  0  0  0  0
  -24.8577  -27.6700   19.5056 C   0  0  0  0  0  0
  -23.6374  -29.8155   20.1612 C   0  0  0  0  0  0
  -25.4124  -36.3069   24.0332 C   0  0  1  0  0  0
  -20.5884  -28.3684   23.1288 C   0  0  2  0  0  0
  -20.6781  -26.9406   22.5416 C   0  0  0  0  0  0
  -19.5752  -26.6370   21.5223 C   0  0  0  0  0  0
  -18.1919  -26.7924   22.1620 C   0  0  0  0  0  0
  -19.1541  -28.8850   23.2876 C   0  0  0  0  0  0
  -18.9465  -30.1450   23.8893 C   0  0  0  0  0  0
  -17.6472  -30.6581   24.0568 C   0  0  0  0  0  0
  -25.9059  -34.9437   23.5098 C   0  0  0  0  0  0
  -16.5359  -29.9078   23.6344 C   0  0  0  0  0  0
  -16.7276  -28.6502   23.0352 C   0  0  0  0  0  0
  -26.4501  -31.6585   25.0730 C   0  0  0  0  0  0
  -25.3723  -31.3744   26.1453 C   0  0  0  0  0  0
  -27.0352  -30.3004   24.6197 C   0  0  0  0  0  0
  -27.6052  -32.4326   25.7486 C   0  0  0  0  0  0
  -27.5580  -37.1792   24.8466 C   0  0  0  0  0  0
  -21.4203  -29.3036   22.3691 N   0  0  0  0  0  0
  -26.4295  -37.3771   23.9413 N   0  0  0  0  0  0
  -24.6910  -31.0552   22.0970 N   0  0  0  0  0  0
  -23.4207  -28.8135   23.3017 O   0  0  0  0  0  0
  -28.3594  -26.4704   20.1731 O   0  0  0  0  0  0
  -26.5622  -34.8893   22.4660 O   0  0  0  0  0  0
  -23.5444  -32.1390   23.7313 O   0  0  0  0  0  0
  -28.9944  -22.5356   19.9223 C   0  0  0  0  0  0
  -29.4344  -21.6440   22.1368 C   0  0  0  0  0  0
  -28.7442  -23.9896   21.8501 C   0  0  0  0  0  0
  -29.3510  -21.4004   20.7455 C   0  0  0  0  0  0
  -28.7117  -23.8501   20.4534 C   0  0  0  0  0  0
  -29.1463  -22.9204   22.6881 C   0  0  0  0  0  0
  -31.4406  -24.6449   23.7118 C   0  0  0  0  0  0
  -29.7997  -20.0004   20.1416 C   0  0  0  0  0  0
  -28.4336  -25.1163   19.5565 C   0  0  0  0  0  0
  -29.8612  -15.9951   21.0210 C   0  0  0  0  0  0
  -30.1109  -24.4895   24.4686 C   0  0  0  0  0  0
  -28.0009  -23.1677   24.9570 C   0  0  0  0  0  0
  -30.1912  -17.4126   20.3254 C   0  0  0  0  0  0
  -27.3317  -21.7867   25.1227 C   0  0  0  0  0  0
  -29.3391  -23.1761   24.1845 C   0  0  1  0  0  0
  -27.9283  -20.9864   26.2102 N   0  3  0  0  0  0
  -29.5457  -18.6892   20.8837 N   0  3  0  0  0  0
  -31.4815  -12.5309   19.1736 H   0  0  0  0  0  0
  -30.3708  -11.4261   19.9255 H   0  0  0  0  0  0
  -29.7863  -11.7515   17.5042 H   0  0  0  0  0  0
  -29.6512  -13.4753   17.7465 H   0  0  0  0  0  0
  -27.8852  -11.2880   18.8939 H   0  0  0  0  0  0
  -27.3811  -12.5516   17.8033 H   0  0  0  0  0  0
  -27.6636  -14.2528   19.5082 H   0  0  0  0  0  0
  -28.7129  -12.0950   21.4022 H   0  0  0  0  0  0
  -28.4392  -13.7596   21.8357 H   0  0  0  0  0  0
  -25.2763   -9.5668   22.4789 H   0  0  0  0  0  0
  -23.9995   -7.4631   22.7487 H   0  0  0  0  0  0
  -21.0861   -8.8774   19.8961 H   0  0  0  0  0  0
  -22.3717  -10.9675   19.6183 H   0  0  0  0  0  0
  -21.2009   -7.6157   23.9721 H   0  0  0  0  0  0
  -21.1479   -6.0534   25.9074 H   0  0  0  0  0  0
  -22.0603   -2.7626   23.2836 H   0  0  0  0  0  0
  -22.4097  -11.9842   22.4740 H   0  0  0  0  0  0
  -21.1127  -13.1249   22.2607 H   0  0  0  0  0  0
  -24.6544  -15.8380   20.5068 H   0  0  0  0  0  0
  -26.2696  -15.6243   20.0580 H   0  0  0  0  0  0
  -26.7179  -32.5406   23.1081 H   0  0  0  0  0  0
  -25.0093  -33.9707   25.0423 H   0  0  0  0  0  0
  -22.7155  -31.3012   21.3975 H   0  0  0  0  0  0
  -23.3753  -35.9604   23.3297 H   0  0  0  0  0  0
  -24.3600  -36.8921   22.2059 H   0  0  0  0  0  0
  -23.7219  -37.6473   23.6677 H   0  0  0  0  0  0
  -26.1012  -31.5447   20.6083 H   0  0  0  0  0  0
  -26.8442  -30.8255   22.0069 H   0  0  0  0  0  0
  -28.1128  -28.9621   21.1832 H   0  0  0  0  0  0
  -25.9079  -25.8995   19.0554 H   0  0  0  0  0  0
  -23.9530  -27.2931   19.0494 H   0  0  0  0  0  0
  -23.7627  -30.5906   19.4051 H   0  0  0  0  0  0
  -22.7584  -29.2476   19.8531 H   0  0  0  0  0  0
  -25.1293  -36.1926   25.0826 H   0  0  0  0  0  0
  -20.9957  -28.3246   24.1418 H   0  0  0  0  0  0
  -20.5711  -26.2278   23.3613 H   0  0  0  0  0  0
  -21.6643  -26.7447   22.1176 H   0  0  0  0  0  0
  -19.6935  -25.6290   21.1227 H   0  0  0  0  0  0
  -19.6698  -27.3208   20.6781 H   0  0  0  0  0  0
  -17.4204  -26.6687   21.4003 H   0  0  0  0  0  0
  -18.0307  -26.0051   22.9003 H   0  0  0  0  0  0
  -19.7951  -30.7261   24.2234 H   0  0  0  0  0  0
  -17.5028  -31.6259   24.5170 H   0  0  0  0  0  0
  -15.5359  -30.2978   23.7672 H   0  0  0  0  0  0
  -15.8672  -28.0824   22.7068 H   0  0  0  0  0  0
  -24.5873  -30.7116   25.7785 H   0  0  0  0  0  0
  -24.8945  -32.2928   26.4873 H   0  0  0  0  0  0
  -25.8029  -30.8914   27.0231 H   0  0  0  0  0  0
  -26.2949  -29.6721   24.1215 H   0  0  0  0  0  0
  -27.4073  -29.7278   25.4705 H   0  0  0  0  0  0
  -27.8798  -30.4306   23.9418 H   0  0  0  0  0  0
  -27.2682  -33.3663   26.1985 H   0  0  0  0  0  0
  -28.3880  -32.6814   25.0313 H   0  0  0  0  0  0
  -28.0669  -31.8489   26.5452 H   0  0  0  0  0  0
  -28.2571  -38.0101   24.7512 H   0  0  0  0  0  0
  -28.1085  -36.2632   24.6286 H   0  0  0  0  0  0
  -27.2294  -37.1436   25.8861 H   0  0  0  0  0  0
  -20.9388  -29.8771   21.6912 H   0  0  0  0  0  0
  -26.0173  -38.2841   24.1418 H   0  0  0  0  0  0
  -28.9811  -22.4090   18.8483 H   0  0  0  0  0  0
  -29.7669  -20.8545   22.7953 H   0  0  0  0  0  0
  -28.5241  -24.9586   22.2737 H   0  0  0  0  0  0
  -31.9236  -25.5837   23.9834 H   0  0  0  0  0  0
  -31.3031  -24.6595   22.6299 H   0  0  0  0  0  0
  -32.1298  -23.8353   23.9502 H   0  0  0  0  0  0
  -30.8749  -20.0737   19.9724 H   0  0  0  0  0  0
  -29.3552  -19.9075   19.1508 H   0  0  0  0  0  0
  -27.6203  -24.8813   18.8779 H   0  0  0  0  0  0
  -29.2961  -25.1794   18.8927 H   0  0  0  0  0  0
  -28.7881  -15.8325   20.9450 H   0  0  0  0  0  0
  -30.0733  -16.0749   22.0866 H   0  0  0  0  0  0
  -29.4791  -25.3476   24.2363 H   0  0  0  0  0  0
  -30.3073  -24.5630   25.5386 H   0  0  0  0  0  0
  -28.1444  -23.5972   25.9488 H   0  0  0  0  0  0
  -27.3065  -23.8433   24.4562 H   0  0  0  0  0  0
  -29.9241  -17.3408   19.2700 H   0  0  0  0  0  0
  -31.2725  -17.5595   20.3398 H   0  0  0  0  0  0
  -27.3505  -21.2244   24.1886 H   0  0  0  0  0  0
  -26.2794  -21.9355   25.3677 H   0  0  0  0  0  0
  -29.9606  -22.3684   24.5729 H   0  0  0  0  0  0
  -28.8858  -20.7528   26.0205 H   0  0  0  0  0  0
  -27.4167  -20.1285   26.3247 H   0  0  0  0  0  0
  -27.8836  -21.4825   27.0824 H   0  0  0  0  0  0
  -28.5477  -18.5609   20.9207 H   0  0  0  0  0  0
  -29.8699  -18.8060   21.8290 H   0  0  0  0  0  0
  1 25  1  0  0  0
  1 30  2  0  0  0
  1 80  1  0  0  0
  2  3  1  0  0  0
  2 25  1  0  0  0
  2 88  1  0  0  0
  2 89  1  0  0  0
  3  4  1  0  0  0
  3 90  1  0  0  0
  3 91  1  0  0  0
  4  5  1  0  0  0
  4 92  1  0  0  0
  4 93  1  0  0  0
  5  6  1  0  0  0
  5 26  1  0  0  0
  5 94  1  0  0  0
  6 25  1  0  0  0
  6 95  1  0  0  0
  6 96  1  0  0  0
  7  8  2  0  0  0
  7 26  1  0  0  0
  7 29  1  0  0  0
  8  9  1  0  0  0
  8 22  1  0  0  0
  9 10  1  0  0  0
  9 27  2  0  0  0
 10 11  2  0  0  0
 10 15  1  0  0  0
 11 12  1  0  0  0
 11 97  1  0  0  0
 12 13  2  0  0  0
 12 98  1  0  0  0
 13 14  1  0  0  0
 13 31  1  0  0  0
 14 15  2  0  0  0
 14 99  1  0  0  0
 15100  1  0  0  0
 16 17  2  0  0  0
 16 21  1  0  0  0
 16 31  1  0  0  0
 17 18  1  0  0  0
 17101  1  0  0  0
 18 19  2  0  0  0
 18102  1  0  0  0
 19 20  1  0  0  0
 19 24  1  0  0  0
 20 21  2  0  0  0
 20103  1  0  0  0
 21 23  1  0  0  0
 22 28  1  0  0  0
 22 32  2  0  0  0
 26 27  1  0  0  0
 28104  1  0  0  0
 28105  1  0  0  0
 29106  1  0  0  0
 29107  1  0  0  0
 33 34  1  0  0  0
 33 66  1  0  0  0
 33 70  2  0  0  0
 34 36  1  0  0  0
 34 59  1  0  0  0
 34108  1  0  0  0
 35 44  2  0  0  0
 35 45  1  0  0  0
 35 68  1  0  0  0
 36 56  1  0  0  0
 36109  1  0  0  0
 37 39  1  0  0  0
 37 47  1  0  0  0
 37 66  1  0  0  0
 37110  1  0  0  0
 38 43  2  0  0  0
 38 46  1  0  0  0
 38 47  1  0  0  0
 39 64  1  0  0  0
 39 67  2  0  0  0
 40 52  1  0  0  0
 40 53  2  0  0  0
 40 58  1  0  0  0
 41111  1  0  0  0
 41112  1  0  0  0
 41113  1  0  0  0
 41 48  1  0  0  0
 42 43  1  0  0  0
 42 66  1  0  0  0
 42114  1  0  0  0
 42115  1  0  0  0
 43 44  1  0  0  0
 44116  1  0  0  0
 45 46  2  0  0  0
 45117  1  0  0  0
 46118  1  0  0  0
 47119  1  0  0  0
 47120  1  0  0  0
 48 56  1  0  0  0
 48 65  1  0  0  0
 48121  1  0  0  0
 49 50  1  0  0  0
 49 53  1  0  0  0
 49 64  1  0  0  0
 49122  1  0  0  0
 50 51  1  0  0  0
 50123  1  0  0  0
 50124  1  0  0  0
 51 52  1  0  0  0
 51125  1  0  0  0
 51126  1  0  0  0
 52127  1  0  0  0
 52128  1  0  0  0
 53 54  1  0  0  0
 54 55  2  0  0  0
 54129  1  0  0  0
 55 57  1  0  0  0
 55130  1  0  0  0
 56 69  2  0  0  0
 57 58  2  0  0  0
 57131  1  0  0  0
 58132  1  0  0  0
 59 60  1  0  0  0
 59 61  1  0  0  0
 59 62  1  0  0  0
 60133  1  0  0  0
 60134  1  0  0  0
 60135  1  0  0  0
 61136  1  0  0  0
 61137  1  0  0  0
 61138  1  0  0  0
 62139  1  0  0  0
 62140  1  0  0  0
 62141  1  0  0  0
 63 65  1  0  0  0
 63142  1  0  0  0
 63143  1  0  0  0
 63144  1  0  0  0
 64145  1  0  0  0
 65146  1  0  0  0
 68 79  1  0  0  0
 71 74  2  0  0  0
 71 75  1  0  0  0
 71147  1  0  0  0
 72 74  1  0  0  0
 72 76  2  0  0  0
 72148  1  0  0  0
 73 75  2  0  0  0
 73 76  1  0  0  0
 73149  1  0  0  0
 74 78  1  0  0  0
 75 79  1  0  0  0
 76 85  1  0  0  0
 77 81  1  0  0  0
 77150  1  0  0  0
 77151  1  0  0  0
 77152  1  0  0  0
 78 87  1  0  0  0
 78153  1  0  0  0
 78154  1  0  0  0
 79155  1  0  0  0
 79156  1  0  0  0
 80 83  1  0  0  0
 80157  1  0  0  0
 80158  1  0  0  0
 81159  1  0  0  0
 81160  1  0  0  0
 81 85  1  0  0  0
 82 84  1  0  0  0
 82 85  1  0  0  0
 82161  1  0  0  0
 82162  1  0  0  0
 83 87  1  0  0  0
 83163  1  0  0  0
 83164  1  0  0  0
 84 86  1  0  0  0
 84165  1  0  0  0
 84166  1  0  0  0
 85167  1  0  0  0
 86168  1  0  0  0
 86169  1  0  0  0
 86170  1  0  0  0
 87171  1  0  0  0
 87172  1  0  0  0
M  CHG  2  86   1  87   1
M  ISO  4   1 100  68 101  79 101  80 100
M  END
> <chiral flag>
0

> <version>
0

> <s_m_source_file>
/data/baiqing/PycharmProjects/Reinvent-master-3.2/result/LINK_invent/BTK/process_docking_weight1_custom_sum_contain_oxygen_bond_distance_aromatic_linkinvent_7_9_3/rearranged_h_0037.sdf

> <i_m_source_file_index>
7

> <r_mmod_Potential_Energy-OPLS-2005>
-324.999206542969

> <r_mmod_Stretch_Energy-OPLS-2005>
101.151733398438

> <r_mmod_Bend_Energy-OPLS-2005>
154.166046142578

> <r_mmod_Torsional_Energy-OPLS-2005>
192.246917724609

> <r_mmod_Improper_Torsional_Energy-OPLS-2005>
3.60502219200134

> <r_mmod_Van_der_Waal_Energy-OPLS-2005>
136.696319580078

> <r_mmod_Electrostatic_Energy-OPLS-2005>
8.25963020324707

> <r_mmod_Solvation_Energy-OPLS-2005>
-979.022583007812

> <b_mmod_Minimization_Converged-OPLS-2005>
0

> <r_mmod_RMS_Derivative-OPLS-2005>
2.40980553627014

$$$$
7
                    3D
 Structure written by MMmdl.
157165  0  0  1  0            999 V2000
  -30.6779  -14.5597   20.4872 C   0  0  0  0  0  0
  -30.4201  -12.3441   19.4450 C   0  0  0  0  0  0
  -29.4946  -12.4873   18.2172 C   0  0  0  0  0  0
  -28.0133  -12.3463   18.6256 C   0  0  0  0  0  0
  -27.6449  -13.2160   19.8569 C   0  0  2  0  0  0
  -28.6920  -13.0808   20.9862 C   0  0  0  0  0  0
  -25.2500  -13.8185   20.5689 C   0  0  0  0  0  0
  -24.1776  -13.0436   20.9223 C   0  0  0  0  0  0
  -24.6330  -11.6920   20.8761 C   0  0  0  0  0  0
  -23.9011  -10.4299   21.0427 C   0  0  0  0  0  0
  -24.3568   -9.4226   21.9193 C   0  0  0  0  0  0
  -23.6275   -8.2239   22.0744 C   0  0  0  0  0  0
  -22.4259   -8.0259   21.3530 C   0  0  0  0  0  0
  -21.9885   -9.0233   20.4642 C   0  0  0  0  0  0
  -22.7191  -10.2133   20.3072 C   0  0  0  0  0  0
  -21.6847   -6.0714   22.5272 C   0  0  0  0  0  0
  -21.4009   -6.5630   23.8207 C   0  0  0  0  0  0
  -21.3663   -5.6787   24.9169 C   0  0  0  0  0  0
  -21.6038   -4.3044   24.7218 C   0  0  0  0  0  0
  -21.8838   -3.8132   23.4345 C   0  0  0  0  0  0
  -21.9193   -4.6941   22.3404 C   0  0  0  0  0  0
  -22.7785  -13.5246   21.1849 C   0  0  0  0  0  0
  -22.1675   -4.2142   21.0967 F   0  0  0  0  0  0
  -21.5612   -3.4528   25.7721 F   0  0  0  0  0  0
  -30.0024  -13.3812   20.4031 N   0  0  0  0  0  0
  -26.2920  -12.9361   20.3320 N   0  0  0  0  0  0
  -25.9266  -11.6520   20.5797 N   0  0  0  0  0  0
  -22.0416  -12.8239   22.0414 N   0  0  0  0  0  0
  -25.4215  -15.1868   20.4001 N   0  0  0  0  0  0
  -31.8722  -14.6389   20.2038 O   0  0  0  0  0  0
  -21.6630   -6.8844   21.4229 O   0  0  0  0  0  0
  -22.3516  -14.5546   20.6694 O   0  0  0  0  0  0
  -24.6200  -31.8569   23.2083 C   0  0  0  0  0  0
  -25.9082  -32.4759   23.8325 C   0  0  1  0  0  0
  -27.2002  -27.3609   20.1221 C   0  0  0  0  0  0
  -25.5880  -33.8551   24.2246 N   0  0  0  0  0  0
  -23.4066  -30.4844   21.5501 C   0  0  2  0  0  0
  -24.8406  -28.9431   20.1115 C   0  0  0  0  0  0
  -22.7424  -29.4585   22.4956 C   0  0  0  0  0  0
  -18.0244  -28.1417   22.8462 C   0  0  0  0  0  0
  -24.1473  -36.7288   23.2633 C   0  0  0  0  0  0
  -25.9361  -30.8090   21.3639 C   0  0  0  0  0  0
  -26.0054  -29.4375   20.7121 C   0  0  0  0  0  0
  -27.1877  -28.6549   20.7092 C   0  0  0  0  0  0
  -26.0206  -26.9014   19.4958 C   0  0  0  0  0  0
  -24.8456  -27.6794   19.4972 C   0  0  0  0  0  0
  -23.6105  -29.8234   20.1602 C   0  0  0  0  0  0
  -25.4107  -36.3077   24.0315 C   0  0  1  0  0  0
  -20.5837  -28.3666   23.1341 C   0  0  2  0  0  0
  -20.6737  -26.9414   22.5426 C   0  0  0  0  0  0
  -19.5736  -26.6421   21.5185 C   0  0  0  0  0  0
  -18.1917  -26.7962   22.1597 C   0  0  0  0  0  0
  -19.1506  -28.8872   23.2881 C   0  0  0  0  0  0
  -18.9445  -30.1498   23.8858 C   0  0  0  0  0  0
  -17.6445  -30.6612   24.0619 C   0  0  0  0  0  0
  -25.9027  -34.9430   23.5085 C   0  0  0  0  0  0
  -16.5338  -29.9104   23.6371 C   0  0  0  0  0  0
  -16.7242  -28.6564   23.0308 C   0  0  0  0  0  0
  -26.4500  -31.6563   25.0673 C   0  0  0  0  0  0
  -25.3785  -31.3665   26.1436 C   0  0  0  0  0  0
  -27.0324  -30.3005   24.6095 C   0  0  0  0  0  0
  -27.6056  -32.4249   25.7468 C   0  0  0  0  0  0
  -27.5568  -37.1815   24.8475 C   0  0  0  0  0  0
  -21.4143  -29.2980   22.3699 N   0  0  0  0  0  0
  -26.4279  -37.3780   23.9406 N   0  0  0  0  0  0
  -24.6734  -31.0638   22.1003 N   0  0  0  0  0  0
  -23.4176  -28.8146   23.3037 O   0  0  0  0  0  0
  -28.3534  -26.5907   20.1857 O   0  0  0  0  0  0
  -26.5628  -34.8894   22.4670 O   0  0  0  0  0  0
  -23.5405  -32.1286   23.7544 O   0  0  0  0  0  0
  -27.8520  -21.5736   20.7232 C   0  0  0  0  0  0
  -28.3930  -20.4556   21.4171 C   0  0  0  0  0  0
  -28.0628  -22.8707   21.2696 C   0  0  0  0  0  0
  -29.1964  -21.8897   23.0151 C   0  0  0  0  0  0
  -29.8895  -22.0536   24.3472 C   0  0  0  0  0  0
  -28.1324  -18.9710   21.0489 C   0  0  0  0  0  0
  -27.4395  -24.1909   20.7400 C   0  0  0  0  0  0
  -29.3444  -17.9798   21.1730 C   0  0  0  0  0  0
  -29.0139  -16.4427   21.1100 C   0  0  0  0  0  0
  -28.3583  -25.1534   19.9049 C   0  0  0  0  0  0
  -29.0456  -20.6482   22.5784 N   0  0  0  0  0  0
  -28.7468  -22.9927   22.4237 N   0  0  0  0  0  0
  -29.9615  -15.6873   20.2617 N   0  0  0  0  0  0
  -31.4658  -12.4482   19.1423 H   0  0  0  0  0  0
  -30.3354  -11.3527   19.8955 H   0  0  0  0  0  0
  -29.7463  -11.7311   17.4731 H   0  0  0  0  0  0
  -29.6533  -13.4603   17.7455 H   0  0  0  0  0  0
  -27.8364  -11.2954   18.8535 H   0  0  0  0  0  0
  -27.3611  -12.5865   17.7818 H   0  0  0  0  0  0
  -27.6668  -14.2488   19.5052 H   0  0  0  0  0  0
  -28.6845  -12.0781   21.4141 H   0  0  0  0  0  0
  -28.4634  -13.7604   21.8049 H   0  0  0  0  0  0
  -25.2713   -9.5697   22.4773 H   0  0  0  0  0  0
  -23.9967   -7.4645   22.7475 H   0  0  0  0  0  0
  -21.0798   -8.8774   19.8969 H   0  0  0  0  0  0
  -22.3653  -10.9660   19.6188 H   0  0  0  0  0  0
  -21.2026   -7.6139   23.9704 H   0  0  0  0  0  0
  -21.1458   -6.0513   25.9072 H   0  0  0  0  0  0
  -22.0612   -2.7597   23.2855 H   0  0  0  0  0  0
  -22.4030  -11.9924   22.4823 H   0  0  0  0  0  0
  -21.1048  -13.1342   22.2616 H   0  0  0  0  0  0
  -24.6499  -15.8388   20.4767 H   0  0  0  0  0  0
  -26.2563  -15.6015   20.0067 H   0  0  0  0  0  0
  -26.7145  -32.5450   23.1065 H   0  0  0  0  0  0
  -25.0039  -33.9638   25.0404 H   0  0  0  0  0  0
  -22.7022  -31.3062   21.4194 H   0  0  0  0  0  0
  -23.3697  -35.9663   23.3353 H   0  0  0  0  0  0
  -24.3549  -36.8850   22.2034 H   0  0  0  0  0  0
  -23.7249  -37.6507   23.6635 H   0  0  0  0  0  0
  -26.0519  -31.5809   20.5998 H   0  0  0  0  0  0
  -26.8206  -30.8518   21.9881 H   0  0  0  0  0  0
  -28.0916  -29.0269   21.1712 H   0  0  0  0  0  0
  -25.9955  -25.9394   19.0074 H   0  0  0  0  0  0
  -23.9441  -27.3048   19.0278 H   0  0  0  0  0  0
  -23.7369  -30.5969   19.4021 H   0  0  0  0  0  0
  -22.7236  -29.2594   19.8595 H   0  0  0  0  0  0
  -25.1323  -36.1937   25.0814 H   0  0  0  0  0  0
  -20.9897  -28.3252   24.1479 H   0  0  0  0  0  0
  -20.5624  -26.2282   23.3603 H   0  0  0  0  0  0
  -21.6624  -26.7439   22.1259 H   0  0  0  0  0  0
  -19.6899  -25.6331   21.1209 H   0  0  0  0  0  0
  -19.6708  -27.3226   20.6716 H   0  0  0  0  0  0
  -17.4180  -26.6657   21.4024 H   0  0  0  0  0  0
  -18.0380  -26.0126   22.9028 H   0  0  0  0  0  0
  -19.7930  -30.7346   24.2138 H   0  0  0  0  0  0
  -17.5013  -31.6288   24.5252 H   0  0  0  0  0  0
  -15.5344  -30.3016   23.7731 H   0  0  0  0  0  0
  -15.8641  -28.0931   22.6920 H   0  0  0  0  0  0
  -24.5972  -30.6970   25.7828 H   0  0  0  0  0  0
  -24.8948  -32.2796   26.4908 H   0  0  0  0  0  0
  -25.8158  -30.8858   27.0192 H   0  0  0  0  0  0
  -26.2852  -29.6776   24.1158 H   0  0  0  0  0  0
  -27.4062  -29.7259   25.4582 H   0  0  0  0  0  0
  -27.8738  -30.4301   23.9277 H   0  0  0  0  0  0
  -27.2665  -33.3525   26.2100 H   0  0  0  0  0  0
  -28.3892  -32.6791   25.0316 H   0  0  0  0  0  0
  -28.0714  -31.8311   26.5356 H   0  0  0  0  0  0
  -28.2649  -38.0055   24.7479 H   0  0  0  0  0  0
  -28.0986  -36.2573   24.6388 H   0  0  0  0  0  0
  -27.2279  -37.1626   25.8877 H   0  0  0  0  0  0
  -20.9292  -29.8727   21.6937 H   0  0  0  0  0  0
  -26.0164  -38.2855   24.1400 H   0  0  0  0  0  0
  -27.2456  -21.4318   19.8357 H   0  0  0  0  0  0
  -29.1581  -22.2655   25.1278 H   0  0  0  0  0  0
  -30.6172  -22.8612   24.3091 H   0  0  0  0  0  0
  -30.4211  -21.1462   24.6313 H   0  0  0  0  0  0
  -27.7500  -18.9249   20.0280 H   0  0  0  0  0  0
  -27.3195  -18.6180   21.6820 H   0  0  0  0  0  0
  -27.0682  -24.7447   21.6014 H   0  0  0  0  0  0
  -26.5452  -23.9377   20.1688 H   0  0  0  0  0  0
  -29.8510  -18.1471   22.1260 H   0  0  0  0  0  0
  -30.0711  -18.2516   20.4089 H   0  0  0  0  0  0
  -29.0050  -16.0277   22.1203 H   0  0  0  0  0  0
  -28.0062  -16.3038   20.7203 H   0  0  0  0  0  0
  -29.3877  -24.8504   20.0965 H   0  0  0  0  0  0
  -28.2256  -24.9694   18.8390 H   0  0  0  0  0  0
  -30.4966  -16.3175   19.6824 H   0  0  0  0  0  0
  1 25  1  0  0  0
  1 30  2  0  0  0
  1 83  1  0  0  0
  2  3  1  0  0  0
  2 25  1  0  0  0
  2 84  1  0  0  0
  2 85  1  0  0  0
  3  4  1  0  0  0
  3 86  1  0  0  0
  3 87  1  0  0  0
  4  5  1  0  0  0
  4 88  1  0  0  0
  4 89  1  0  0  0
  5  6  1  0  0  0
  5 26  1  0  0  0
  5 90  1  0  0  0
  6 25  1  0  0  0
  6 91  1  0  0  0
  6 92  1  0  0  0
  7  8  2  0  0  0
  7 26  1  0  0  0
  7 29  1  0  0  0
  8  9  1  0  0  0
  8 22  1  0  0  0
  9 10  1  0  0  0
  9 27  2  0  0  0
 10 11  2  0  0  0
 10 15  1  0  0  0
 11 12  1  0  0  0
 11 93  1  0  0  0
 12 13  2  0  0  0
 12 94  1  0  0  0
 13 14  1  0  0  0
 13 31  1  0  0  0
 14 15  2  0  0  0
 14 95  1  0  0  0
 15 96  1  0  0  0
 16 17  2  0  0  0
 16 21  1  0  0  0
 16 31  1  0  0  0
 17 18  1  0  0  0
 17 97  1  0  0  0
 18 19  2  0  0  0
 18 98  1  0  0  0
 19 20  1  0  0  0
 19 24  1  0  0  0
 20 21  2  0  0  0
 20 99  1  0  0  0
 21 23  1  0  0  0
 22 28  1  0  0  0
 22 32  2  0  0  0
 26 27  1  0  0  0
 28100  1  0  0  0
 28101  1  0  0  0
 29102  1  0  0  0
 29103  1  0  0  0
 33 34  1  0  0  0
 33 66  1  0  0  0
 33 70  2  0  0  0
 34 36  1  0  0  0
 34 59  1  0  0  0
 34104  1  0  0  0
 35 44  2  0  0  0
 35 45  1  0  0  0
 35 68  1  0  0  0
 36 56  1  0  0  0
 36105  1  0  0  0
 37 39  1  0  0  0
 37 47  1  0  0  0
 37 66  1  0  0  0
 37106  1  0  0  0
 38 43  2  0  0  0
 38 46  1  0  0  0
 38 47  1  0  0  0
 39 64  1  0  0  0
 39 67  2  0  0  0
 40 52  1  0  0  0
 40 53  2  0  0  0
 40 58  1  0  0  0
 41107  1  0  0  0
 41108  1  0  0  0
 41109  1  0  0  0
 41 48  1  0  0  0
 42 43  1  0  0  0
 42 66  1  0  0  0
 42110  1  0  0  0
 42111  1  0  0  0
 43 44  1  0  0  0
 44112  1  0  0  0
 45 46  2  0  0  0
 45113  1  0  0  0
 46114  1  0  0  0
 47115  1  0  0  0
 47116  1  0  0  0
 48 56  1  0  0  0
 48 65  1  0  0  0
 48117  1  0  0  0
 49 50  1  0  0  0
 49 53  1  0  0  0
 49 64  1  0  0  0
 49118  1  0  0  0
 50 51  1  0  0  0
 50119  1  0  0  0
 50120  1  0  0  0
 51 52  1  0  0  0
 51121  1  0  0  0
 51122  1  0  0  0
 52123  1  0  0  0
 52124  1  0  0  0
 53 54  1  0  0  0
 54 55  2  0  0  0
 54125  1  0  0  0
 55 57  1  0  0  0
 55126  1  0  0  0
 56 69  2  0  0  0
 57 58  2  0  0  0
 57127  1  0  0  0
 58128  1  0  0  0
 59 60  1  0  0  0
 59 61  1  0  0  0
 59 62  1  0  0  0
 60129  1  0  0  0
 60130  1  0  0  0
 60131  1  0  0  0
 61132  1  0  0  0
 61133  1  0  0  0
 61134  1  0  0  0
 62135  1  0  0  0
 62136  1  0  0  0
 62137  1  0  0  0
 63 65  1  0  0  0
 63138  1  0  0  0
 63139  1  0  0  0
 63140  1  0  0  0
 64141  1  0  0  0
 65142  1  0  0  0
 68 80  1  0  0  0
 71 72  2  0  0  0
 71 73  1  0  0  0
 71143  1  0  0  0
 72 76  1  0  0  0
 72 81  1  0  0  0
 73 77  1  0  0  0
 73 82  2  0  0  0
 74 75  1  0  0  0
 74 81  2  0  0  0
 74 82  1  0  0  0
 75144  1  0  0  0
 75145  1  0  0  0
 75146  1  0  0  0
 76 78  1  0  0  0
 76147  1  0  0  0
 76148  1  0  0  0
 77 80  1  0  0  0
 77149  1  0  0  0
 77150  1  0  0  0
 78 79  1  0  0  0
 78151  1  0  0  0
 78152  1  0  0  0
 79 83  1  0  0  0
 79153  1  0  0  0
 79154  1  0  0  0
 80155  1  0  0  0
 80156  1  0  0  0
 83157  1  0  0  0
M  ISO  4   1 100  68 101  80 101  83 100
M  END
> <chiral flag>
0

> <version>
0

> <s_m_source_file>
/data/baiqing/PycharmProjects/Reinvent-master-3.2/result/LINK_invent/BTK/process_docking_weight1_custom_sum_contain_oxygen_bond_distance_aromatic_linkinvent_7_9_3/rearranged_h_0037.sdf

> <i_m_source_file_index>
8

> <r_mmod_Potential_Energy-OPLS-2005>
-358.883758544922

> <r_mmod_Stretch_Energy-OPLS-2005>
50.1592102050781

> <r_mmod_Bend_Energy-OPLS-2005>
143.220001220703

> <r_mmod_Torsional_Energy-OPLS-2005>
262.366149902344

> <r_mmod_Improper_Torsional_Energy-OPLS-2005>
26.0369300842285

> <r_mmod_Van_der_Waal_Energy-OPLS-2005>
145.409164428711

> <r_mmod_Electrostatic_Energy-OPLS-2005>
-787.026245117188

> <r_mmod_Solvation_Energy-OPLS-2005>
-234.064361572266

> <b_mmod_Minimization_Converged-OPLS-2005>
0

> <r_mmod_RMS_Derivative-OPLS-2005>
5.79853534698486

$$$$
8
                    3D
 Structure written by MMmdl.
165174  0  0  1  0            999 V2000
  -30.7229  -14.3640   20.6546 C   0  0  0  0  0  0
  -30.4184  -12.2754   19.3849 C   0  0  0  0  0  0
  -29.4756  -12.5368   18.1918 C   0  0  0  0  0  0
  -28.0019  -12.3889   18.6119 C   0  0  0  0  0  0
  -27.6712  -13.1927   19.8952 C   0  0  2  0  0  0
  -28.7094  -12.8893   21.0000 C   0  0  0  0  0  0
  -25.2646  -13.8129   20.5703 C   0  0  0  0  0  0
  -24.1863  -13.0443   20.9174 C   0  0  0  0  0  0
  -24.6384  -11.6899   20.8728 C   0  0  0  0  0  0
  -23.9019  -10.4293   21.0413 C   0  0  0  0  0  0
  -24.3572   -9.4216   21.9204 C   0  0  0  0  0  0
  -23.6257   -8.2244   22.0760 C   0  0  0  0  0  0
  -22.4243   -8.0264   21.3545 C   0  0  0  0  0  0
  -21.9877   -9.0235   20.4641 C   0  0  0  0  0  0
  -22.7195  -10.2126   20.3055 C   0  0  0  0  0  0
  -21.6862   -6.0723   22.5277 C   0  0  0  0  0  0
  -21.4010   -6.5632   23.8207 C   0  0  0  0  0  0
  -21.3652   -5.6791   24.9176 C   0  0  0  0  0  0
  -21.6039   -4.3049   24.7230 C   0  0  0  0  0  0
  -21.8822   -3.8133   23.4351 C   0  0  0  0  0  0
  -21.9200   -4.6949   22.3409 C   0  0  0  0  0  0
  -22.7903  -13.5267   21.1851 C   0  0  0  0  0  0
  -22.1680   -4.2132   21.0990 F   0  0  0  0  0  0
  -21.5613   -3.4542   25.7750 F   0  0  0  0  0  0
  -30.0545  -13.1955   20.4728 N   0  0  0  0  0  0
  -26.3079  -12.9273   20.3470 N   0  0  0  0  0  0
  -25.9302  -11.6442   20.5791 N   0  0  0  0  0  0
  -22.0498  -12.8249   22.0363 N   0  0  0  0  0  0
  -25.4413  -15.1836   20.4098 N   0  0  0  0  0  0
  -31.7544  -14.6548   20.0423 O   0  0  0  0  0  0
  -21.6628   -6.8850   21.4232 O   0  0  0  0  0  0
  -22.3617  -14.5617   20.6744 O   0  0  0  0  0  0
  -24.6110  -31.8712   23.2138 C   0  0  0  0  0  0
  -25.9022  -32.4822   23.8429 C   0  0  1  0  0  0
  -27.2399  -27.4826   20.0804 C   0  0  0  0  0  0
  -25.5909  -33.8624   24.2383 N   0  0  0  0  0  0
  -23.3938  -30.4934   21.5555 C   0  0  2  0  0  0
  -24.8389  -28.9631   20.1165 C   0  0  0  0  0  0
  -22.7352  -29.4695   22.5071 C   0  0  0  0  0  0
  -18.0241  -28.1370   22.8517 C   0  0  0  0  0  0
  -24.1465  -36.7302   23.2636 C   0  0  0  0  0  0
  -25.9138  -30.8512   21.3546 C   0  0  0  0  0  0
  -25.9937  -29.4829   20.7159 C   0  0  0  0  0  0
  -27.1905  -28.7404   20.7128 C   0  0  0  0  0  0
  -26.0670  -26.9578   19.4906 C   0  0  0  0  0  0
  -24.8670  -27.6957   19.5101 C   0  0  0  0  0  0
  -23.5951  -29.8201   20.1701 C   0  0  0  0  0  0
  -25.4086  -36.3124   24.0352 C   0  0  1  0  0  0
  -20.5822  -28.3638   23.1350 C   0  0  2  0  0  0
  -20.6725  -26.9379   22.5431 C   0  0  0  0  0  0
  -19.5706  -26.6390   21.5218 C   0  0  0  0  0  0
  -18.1880  -26.7932   22.1616 C   0  0  0  0  0  0
  -19.1487  -28.8824   23.2936 C   0  0  0  0  0  0
  -18.9420  -30.1433   23.8937 C   0  0  0  0  0  0
  -17.6427  -30.6580   24.0574 C   0  0  0  0  0  0
  -25.9015  -34.9472   23.5164 C   0  0  0  0  0  0
  -16.5319  -29.9087   23.6336 C   0  0  0  0  0  0
  -16.7227  -28.6490   23.0383 C   0  0  0  0  0  0
  -26.4466  -31.6559   25.0719 C   0  0  0  0  0  0
  -25.3763  -31.3561   26.1465 C   0  0  0  0  0  0
  -27.0280  -30.3031   24.5999 C   0  0  0  0  0  0
  -27.6067  -32.4217   25.7509 C   0  0  0  0  0  0
  -27.5578  -37.1799   24.8453 C   0  0  0  0  0  0
  -21.4086  -29.3031   22.3771 N   0  0  0  0  0  0
  -26.4267  -37.3819   23.9438 N   0  0  0  0  0  0
  -24.6580  -31.0846   22.1017 N   0  0  0  0  0  0
  -23.4146  -28.8246   23.3102 O   0  0  0  0  0  0
  -28.4284  -26.7978   20.0861 O   0  0  0  0  0  0
  -26.5585  -34.8911   22.4730 O   0  0  0  0  0  0
  -23.5311  -32.1459   23.7569 O   0  0  0  0  0  0
  -31.7565  -23.8751   18.1190 C   0  0  0  0  0  0
  -30.6229  -24.6772   17.9207 C   0  0  0  0  0  0
  -31.9303  -24.8177   20.3384 C   0  0  0  0  0  0
  -33.3183  -20.4571   18.7686 C   0  0  0  0  0  0
  -32.3997  -23.9113   19.3704 C   0  0  0  0  0  0
  -32.9358  -21.5179   19.6386 C   0  0  0  0  0  0
  -30.1702  -25.4844   18.9777 C   0  0  0  0  0  0
  -31.8999  -20.9927   20.3666 C   0  0  0  0  0  0
  -31.0701  -21.6115   21.4488 C   0  0  0  0  0  0
  -33.5054  -22.9154   19.6917 C   0  0  0  0  0  0
  -28.8475  -26.2273   18.8498 C   0  0  0  0  0  0
  -31.0728  -17.5409   20.9467 C   0  0  0  0  0  0
  -30.5928  -18.7952   20.1982 C   0  0  0  0  0  0
  -29.8674  -16.6349   21.2790 C   0  0  0  0  0  0
  -30.8356  -25.5840   20.1531 N   0  0  0  0  0  0
  -32.5484  -19.3889   18.9042 N   0  0  0  0  0  0
  -31.6647  -19.7211   19.8731 N   0  0  0  0  0  0
  -30.1192  -15.2089   21.5012 N   0  0  0  0  0  0
  -31.4595  -12.3868   19.0759 H   0  0  0  0  0  0
  -30.3213  -11.2429   19.7212 H   0  0  0  0  0  0
  -29.6964  -11.8519   17.3727 H   0  0  0  0  0  0
  -29.6433  -13.5412   17.8002 H   0  0  0  0  0  0
  -27.8037  -11.3302   18.7775 H   0  0  0  0  0  0
  -27.3447  -12.6997   17.7981 H   0  0  0  0  0  0
  -27.7406  -14.2513   19.6445 H   0  0  0  0  0  0
  -28.6728  -11.8315   21.2662 H   0  0  0  0  0  0
  -28.4631  -13.4147   21.9238 H   0  0  0  0  0  0
  -25.2705   -9.5713   22.4797 H   0  0  0  0  0  0
  -23.9978   -7.4647   22.7484 H   0  0  0  0  0  0
  -21.0815   -8.8734   19.8940 H   0  0  0  0  0  0
  -22.3645  -10.9662   19.6157 H   0  0  0  0  0  0
  -21.1986   -7.6140   23.9702 H   0  0  0  0  0  0
  -21.1467   -6.0527   25.9080 H   0  0  0  0  0  0
  -22.0590   -2.7587   23.2867 H   0  0  0  0  0  0
  -22.4077  -11.9848   22.4685 H   0  0  0  0  0  0
  -21.1127  -13.1297   22.2571 H   0  0  0  0  0  0
  -24.6746  -15.8408   20.4977 H   0  0  0  0  0  0
  -26.2991  -15.6136   20.0852 H   0  0  0  0  0  0
  -26.7110  -32.5544   23.1216 H   0  0  0  0  0  0
  -25.0051  -33.9793   25.0526 H   0  0  0  0  0  0
  -22.6835  -31.3097   21.4157 H   0  0  0  0  0  0
  -23.3767  -35.9588   23.3207 H   0  0  0  0  0  0
  -24.3598  -36.9018   22.2074 H   0  0  0  0  0  0
  -23.7119  -37.6437   23.6693 H   0  0  0  0  0  0
  -25.9995  -31.6079   20.5745 H   0  0  0  0  0  0
  -26.8128  -30.9276   21.9534 H   0  0  0  0  0  0
  -28.0832  -29.1376   21.1768 H   0  0  0  0  0  0
  -26.0588  -25.9812   19.0298 H   0  0  0  0  0  0
  -23.9751  -27.2848   19.0566 H   0  0  0  0  0  0
  -23.6844  -30.5890   19.4017 H   0  0  0  0  0  0
  -22.7224  -29.2262   19.8897 H   0  0  0  0  0  0
  -25.1262  -36.1999   25.0845 H   0  0  0  0  0  0
  -20.9908  -28.3183   24.1471 H   0  0  0  0  0  0
  -20.5610  -26.2243   23.3618 H   0  0  0  0  0  0
  -21.6600  -26.7428   22.1212 H   0  0  0  0  0  0
  -19.6856  -25.6309   21.1233 H   0  0  0  0  0  0
  -19.6665  -27.3236   20.6779 H   0  0  0  0  0  0
  -17.4160  -26.6728   21.3997 H   0  0  0  0  0  0
  -18.0250  -26.0050   22.8971 H   0  0  0  0  0  0
  -19.7882  -30.7256   24.2334 H   0  0  0  0  0  0
  -17.4958  -31.6274   24.5136 H   0  0  0  0  0  0
  -15.5316  -30.3000   23.7642 H   0  0  0  0  0  0
  -15.8610  -28.0813   22.7127 H   0  0  0  0  0  0
  -24.6013  -30.6830   25.7776 H   0  0  0  0  0  0
  -24.8844  -32.2638   26.4959 H   0  0  0  0  0  0
  -25.8164  -30.8713   27.0191 H   0  0  0  0  0  0
  -26.2784  -29.6799   24.1100 H   0  0  0  0  0  0
  -27.4158  -29.7244   25.4391 H   0  0  0  0  0  0
  -27.8567  -30.4406   23.9050 H   0  0  0  0  0  0
  -27.2778  -33.3588   26.2011 H   0  0  0  0  0  0
  -28.3955  -32.6621   25.0369 H   0  0  0  0  0  0
  -28.0608  -31.8323   26.5485 H   0  0  0  0  0  0
  -28.2519  -38.0168   24.7604 H   0  0  0  0  0  0
  -28.1154  -36.2706   24.6156 H   0  0  0  0  0  0
  -27.2304  -37.1285   25.8849 H   0  0  0  0  0  0
  -20.9227  -29.8773   21.7027 H   0  0  0  0  0  0
  -26.0148  -38.2880   24.1524 H   0  0  0  0  0  0
  -32.0875  -23.1983   17.3451 H   0  0  0  0  0  0
  -30.0748  -24.6327   16.9893 H   0  0  0  0  0  0
  -32.3990  -24.8896   21.3085 H   0  0  0  0  0  0
  -34.1008  -20.4459   18.0218 H   0  0  0  0  0  0
  -31.6415  -22.3555   22.0033 H   0  0  0  0  0  0
  -30.7282  -20.8694   22.1704 H   0  0  0  0  0  0
  -30.1972  -22.1107   21.0265 H   0  0  0  0  0  0
  -33.9321  -23.1303   20.6726 H   0  0  0  0  0  0
  -34.3174  -23.0475   18.9752 H   0  0  0  0  0  0
  -28.1132  -25.5137   18.4777 H   0  0  0  0  0  0
  -28.9481  -27.0109   18.0979 H   0  0  0  0  0  0
  -31.5921  -17.8222   21.8634 H   0  0  0  0  0  0
  -31.8080  -17.0453   20.3187 H   0  0  0  0  0  0
  -29.8215  -19.3109   20.7704 H   0  0  0  0  0  0
  -30.1179  -18.4997   19.2615 H   0  0  0  0  0  0
  -29.1224  -16.6998   20.4850 H   0  0  0  0  0  0
  -29.3712  -17.0270   22.1681 H   0  0  0  0  0  0
  -29.4083  -14.7539   22.0571 H   0  0  0  0  0  0
  1 25  1  0  0  0
  1 30  2  0  0  0
  1 88  1  0  0  0
  2  3  1  0  0  0
  2 25  1  0  0  0
  2 89  1  0  0  0
  2 90  1  0  0  0
  3  4  1  0  0  0
  3 91  1  0  0  0
  3 92  1  0  0  0
  4  5  1  0  0  0
  4 93  1  0  0  0
  4 94  1  0  0  0
  5  6  1  0  0  0
  5 26  1  0  0  0
  5 95  1  0  0  0
  6 25  1  0  0  0
  6 96  1  0  0  0
  6 97  1  0  0  0
  7  8  2  0  0  0
  7 26  1  0  0  0
  7 29  1  0  0  0
  8  9  1  0  0  0
  8 22  1  0  0  0
  9 10  1  0  0  0
  9 27  2  0  0  0
 10 11  2  0  0  0
 10 15  1  0  0  0
 11 12  1  0  0  0
 11 98  1  0  0  0
 12 13  2  0  0  0
 12 99  1  0  0  0
 13 14  1  0  0  0
 13 31  1  0  0  0
 14 15  2  0  0  0
 14100  1  0  0  0
 15101  1  0  0  0
 16 17  2  0  0  0
 16 21  1  0  0  0
 16 31  1  0  0  0
 17 18  1  0  0  0
 17102  1  0  0  0
 18 19  2  0  0  0
 18103  1  0  0  0
 19 20  1  0  0  0
 19 24  1  0  0  0
 20 21  2  0  0  0
 20104  1  0  0  0
 21 23  1  0  0  0
 22 28  1  0  0  0
 22 32  2  0  0  0
 26 27  1  0  0  0
 28105  1  0  0  0
 28106  1  0  0  0
 29107  1  0  0  0
 29108  1  0  0  0
 33 34  1  0  0  0
 33 66  1  0  0  0
 33 70  2  0  0  0
 34 36  1  0  0  0
 34 59  1  0  0  0
 34109  1  0  0  0
 35 44  2  0  0  0
 35 45  1  0  0  0
 35 68  1  0  0  0
 36 56  1  0  0  0
 36110  1  0  0  0
 37 39  1  0  0  0
 37 47  1  0  0  0
 37 66  1  0  0  0
 37111  1  0  0  0
 38 43  2  0  0  0
 38 46  1  0  0  0
 38 47  1  0  0  0
 39 64  1  0  0  0
 39 67  2  0  0  0
 40 52  1  0  0  0
 40 53  2  0  0  0
 40 58  1  0  0  0
 41112  1  0  0  0
 41113  1  0  0  0
 41114  1  0  0  0
 41 48  1  0  0  0
 42 43  1  0  0  0
 42 66  1  0  0  0
 42115  1  0  0  0
 42116  1  0  0  0
 43 44  1  0  0  0
 44117  1  0  0  0
 45 46  2  0  0  0
 45118  1  0  0  0
 46119  1  0  0  0
 47120  1  0  0  0
 47121  1  0  0  0
 48 56  1  0  0  0
 48 65  1  0  0  0
 48122  1  0  0  0
 49 50  1  0  0  0
 49 53  1  0  0  0
 49 64  1  0  0  0
 49123  1  0  0  0
 50 51  1  0  0  0
 50124  1  0  0  0
 50125  1  0  0  0
 51 52  1  0  0  0
 51126  1  0  0  0
 51127  1  0  0  0
 52128  1  0  0  0
 52129  1  0  0  0
 53 54  1  0  0  0
 54 55  2  0  0  0
 54130  1  0  0  0
 55 57  1  0  0  0
 55131  1  0  0  0
 56 69  2  0  0  0
 57 58  2  0  0  0
 57132  1  0  0  0
 58133  1  0  0  0
 59 60  1  0  0  0
 59 61  1  0  0  0
 59 62  1  0  0  0
 60134  1  0  0  0
 60135  1  0  0  0
 60136  1  0  0  0
 61137  1  0  0  0
 61138  1  0  0  0
 61139  1  0  0  0
 62140  1  0  0  0
 62141  1  0  0  0
 62142  1  0  0  0
 63 65  1  0  0  0
 63143  1  0  0  0
 63144  1  0  0  0
 63145  1  0  0  0
 64146  1  0  0  0
 65147  1  0  0  0
 68 81  1  0  0  0
 71 72  2  0  0  0
 71 75  1  0  0  0
 71148  1  0  0  0
 72 77  1  0  0  0
 72149  1  0  0  0
 73 75  2  0  0  0
 73 85  1  0  0  0
 73150  1  0  0  0
 74 76  1  0  0  0
 74 86  2  0  0  0
 74151  1  0  0  0
 75 80  1  0  0  0
 76 78  2  0  0  0
 76 80  1  0  0  0
 77 81  1  0  0  0
 77 85  2  0  0  0
 78 79  1  0  0  0
 78 87  1  0  0  0
 79152  1  0  0  0
 79153  1  0  0  0
 79154  1  0  0  0
 80155  1  0  0  0
 80156  1  0  0  0
 81157  1  0  0  0
 81158  1  0  0  0
 82 83  1  0  0  0
 82 84  1  0  0  0
 82159  1  0  0  0
 82160  1  0  0  0
 83 87  1  0  0  0
 83161  1  0  0  0
 83162  1  0  0  0
 84 88  1  0  0  0
 84163  1  0  0  0
 84164  1  0  0  0
 86 87  1  0  0  0
 88165  1  0  0  0
M  ISO  4   1 100  68 101  81 101  88 100
M  END
> <chiral flag>
0

> <version>
0

> <s_m_source_file>
/data/baiqing/PycharmProjects/Reinvent-master-3.2/result/LINK_invent/BTK/process_docking_weight1_custom_sum_contain_oxygen_bond_distance_aromatic_linkinvent_7_9_3/rearranged_h_0037.sdf

> <i_m_source_file_index>
9

> <r_mmod_Potential_Energy-OPLS-2005>
-201.521041870117

> <r_mmod_Stretch_Energy-OPLS-2005>
31.3355159759521

> <r_mmod_Bend_Energy-OPLS-2005>
95.8712768554688

> <r_mmod_Torsional_Energy-OPLS-2005>
241.339431762695

> <r_mmod_Improper_Torsional_Energy-OPLS-2005>
5.81413221359253

> <r_mmod_Van_der_Waal_Energy-OPLS-2005>
153.926498413086

> <r_mmod_Electrostatic_Energy-OPLS-2005>
-479.935150146484

> <r_mmod_Solvation_Energy-OPLS-2005>
-257.318206787109

> <b_mmod_Minimization_Converged-OPLS-2005>
0

> <r_mmod_RMS_Derivative-OPLS-2005>
3.13743829727173

$$$$
9
                    3D
 Structure written by MMmdl.
174182  0  0  1  0            999 V2000
  -30.7534  -14.4293   20.5987 C   0  0  0  0  0  0
  -30.4152  -12.2994   19.4063 C   0  0  0  0  0  0
  -29.4860  -12.5071   18.1932 C   0  0  0  0  0  0
  -28.0094  -12.3500   18.6109 C   0  0  0  0  0  0
  -27.6544  -13.1889   19.8649 C   0  0  2  0  0  0
  -28.7048  -12.9899   20.9851 C   0  0  0  0  0  0
  -25.2568  -13.8117   20.5679 C   0  0  0  0  0  0
  -24.1822  -13.0418   20.9170 C   0  0  0  0  0  0
  -24.6355  -11.6876   20.8716 C   0  0  0  0  0  0
  -23.9029  -10.4279   21.0387 C   0  0  0  0  0  0
  -24.3604   -9.4214   21.9172 C   0  0  0  0  0  0
  -23.6290   -8.2246   22.0743 C   0  0  0  0  0  0
  -22.4267   -8.0275   21.3540 C   0  0  0  0  0  0
  -21.9887   -9.0246   20.4647 C   0  0  0  0  0  0
  -22.7200  -10.2123   20.3045 C   0  0  0  0  0  0
  -21.6867   -6.0727   22.5282 C   0  0  0  0  0  0
  -21.4023   -6.5628   23.8215 C   0  0  0  0  0  0
  -21.3646   -5.6774   24.9174 C   0  0  0  0  0  0
  -21.6047   -4.3038   24.7222 C   0  0  0  0  0  0
  -21.8823   -3.8138   23.4338 C   0  0  0  0  0  0
  -21.9199   -4.6956   22.3403 C   0  0  0  0  0  0
  -22.7848  -13.5234   21.1835 C   0  0  0  0  0  0
  -22.1667   -4.2154   21.0972 F   0  0  0  0  0  0
  -21.5629   -3.4513   25.7730 F   0  0  0  0  0  0
  -30.0369  -13.2849   20.4287 N   0  0  0  0  0  0
  -26.2979  -12.9251   20.3340 N   0  0  0  0  0  0
  -25.9270  -11.6430   20.5756 N   0  0  0  0  0  0
  -22.0493  -12.8264   22.0406 N   0  0  0  0  0  0
  -25.4240  -15.1851   20.4053 N   0  0  0  0  0  0
  -31.8748  -14.6072   20.1229 O   0  0  0  0  0  0
  -21.6643   -6.8864   21.4239 O   0  0  0  0  0  0
  -22.3549  -14.5537   20.6655 O   0  0  0  0  0  0
  -24.6120  -31.8681   23.2126 C   0  0  0  0  0  0
  -25.9024  -32.4819   23.8411 C   0  0  1  0  0  0
  -27.2487  -27.4665   20.0725 C   0  0  0  0  0  0
  -25.5902  -33.8618   24.2333 N   0  0  0  0  0  0
  -23.3990  -30.4906   21.5524 C   0  0  2  0  0  0
  -24.8462  -28.9659   20.1143 C   0  0  0  0  0  0
  -22.7383  -29.4650   22.5006 C   0  0  0  0  0  0
  -18.0277  -28.1363   22.8520 C   0  0  0  0  0  0
  -24.1485  -36.7304   23.2636 C   0  0  0  0  0  0
  -25.9273  -30.8395   21.3667 C   0  0  0  0  0  0
  -26.0045  -29.4775   20.7126 C   0  0  0  0  0  0
  -27.2023  -28.7291   20.7008 C   0  0  0  0  0  0
  -26.0584  -26.9563   19.5007 C   0  0  0  0  0  0
  -24.8669  -27.6997   19.5104 C   0  0  0  0  0  0
  -23.6041  -29.8216   20.1675 C   0  0  0  0  0  0
  -25.4111  -36.3098   24.0334 C   0  0  1  0  0  0
  -20.5848  -28.3649   23.1321 C   0  0  2  0  0  0
  -20.6738  -26.9378   22.5422 C   0  0  0  0  0  0
  -19.5743  -26.6427   21.5175 C   0  0  0  0  0  0
  -18.1949  -26.7914   22.1654 C   0  0  0  0  0  0
  -19.1515  -28.8841   23.2906 C   0  0  0  0  0  0
  -18.9437  -30.1473   23.8860 C   0  0  0  0  0  0
  -17.6431  -30.6604   24.0495 C   0  0  0  0  0  0
  -25.9031  -34.9466   23.5117 C   0  0  0  0  0  0
  -16.5331  -29.9068   23.6300 C   0  0  0  0  0  0
  -16.7264  -28.6467   23.0367 C   0  0  0  0  0  0
  -26.4469  -31.6604   25.0731 C   0  0  0  0  0  0
  -25.3748  -31.3711   26.1485 C   0  0  0  0  0  0
  -27.0305  -30.3051   24.6105 C   0  0  0  0  0  0
  -27.6056  -32.4319   25.7488 C   0  0  0  0  0  0
  -27.5581  -37.1801   24.8466 C   0  0  0  0  0  0
  -21.4115  -29.3019   22.3730 N   0  0  0  0  0  0
  -26.4295  -37.3784   23.9409 N   0  0  0  0  0  0
  -24.6638  -31.0791   22.1024 N   0  0  0  0  0  0
  -23.4147  -28.8201   23.3062 O   0  0  0  0  0  0
  -28.4383  -26.7650   20.1002 O   0  0  0  0  0  0
  -26.5583  -34.8919   22.4671 O   0  0  0  0  0  0
  -23.5319  -32.1426   23.7533 O   0  0  0  0  0  0
  -26.3002  -22.9956   17.6608 C   0  0  0  0  0  0
  -27.5602  -25.0128   17.1286 C   0  0  0  0  0  0
  -27.8610  -23.9212   19.2922 C   0  0  0  0  0  0
  -26.6114  -24.0380   16.7627 C   0  0  0  0  0  0
  -26.9227  -22.9329   18.9277 C   0  0  0  0  0  0
  -28.1443  -24.9840   18.4101 C   0  0  0  0  0  0
  -25.3045  -26.5420   14.6106 C   0  0  0  0  0  0
  -23.4178  -24.9582   15.1879 C   0  0  0  0  0  0
  -25.8447  -24.1898   15.4591 C   0  0  0  0  0  0
  -26.4972  -21.8783   19.9389 C   0  0  0  0  0  0
  -28.9406  -26.1813   18.8934 C   0  0  0  0  0  0
  -29.2074  -17.6973   20.8913 C   0  0  0  0  0  0
  -28.0647  -18.4045   20.1409 C   0  0  0  0  0  0
  -29.0620  -16.1741   20.7459 C   0  0  0  0  0  0
  -28.0296  -19.9330   20.3158 C   0  0  0  0  0  0
  -24.8568  -25.3825   15.5155 C   0  0  0  0  0  0
  -30.1822  -15.4162   21.3013 N   0  0  0  0  0  0
  -26.9109  -20.5206   19.5458 N   0  3  0  0  0  0
  -31.4621  -12.3823   19.1056 H   0  0  0  0  0  0
  -30.3037  -11.2907   19.8092 H   0  0  0  0  0  0
  -29.7311  -11.7957   17.4037 H   0  0  0  0  0  0
  -29.6454  -13.4990   17.7673 H   0  0  0  0  0  0
  -27.8309  -11.2933   18.8113 H   0  0  0  0  0  0
  -27.3520  -12.6161   17.7818 H   0  0  0  0  0  0
  -27.6724  -14.2222   19.5349 H   0  0  0  0  0  0
  -28.6833  -11.9600   21.3444 H   0  0  0  0  0  0
  -28.4682  -13.6020   21.8576 H   0  0  0  0  0  0
  -25.2743   -9.5712   22.4754 H   0  0  0  0  0  0
  -24.0025   -7.4636   22.7429 H   0  0  0  0  0  0
  -21.0835   -8.8733   19.8947 H   0  0  0  0  0  0
  -22.3641  -10.9665   19.6157 H   0  0  0  0  0  0
  -21.2022   -7.6138   23.9727 H   0  0  0  0  0  0
  -21.1454   -6.0493   25.9079 H   0  0  0  0  0  0
  -22.0613   -2.7602   23.2837 H   0  0  0  0  0  0
  -22.4109  -11.9970   22.4884 H   0  0  0  0  0  0
  -21.1085  -13.1252   22.2546 H   0  0  0  0  0  0
  -24.6446  -15.8252   20.5119 H   0  0  0  0  0  0
  -26.2578  -15.6291   20.0483 H   0  0  0  0  0  0
  -26.7090  -32.5536   23.1179 H   0  0  0  0  0  0
  -25.0071  -33.9777   25.0493 H   0  0  0  0  0  0
  -22.6877  -31.3070   21.4139 H   0  0  0  0  0  0
  -23.3735  -35.9644   23.3318 H   0  0  0  0  0  0
  -24.3591  -36.8893   22.2046 H   0  0  0  0  0  0
  -23.7238  -37.6522   23.6635 H   0  0  0  0  0  0
  -26.0384  -31.6086   20.6010 H   0  0  0  0  0  0
  -26.8144  -30.8898   21.9871 H   0  0  0  0  0  0
  -28.0961  -29.1186   21.1676 H   0  0  0  0  0  0
  -26.0051  -25.9751   19.0643 H   0  0  0  0  0  0
  -23.9744  -27.2873   19.0587 H   0  0  0  0  0  0
  -23.6995  -30.5898   19.4001 H   0  0  0  0  0  0
  -22.7329  -29.2281   19.8836 H   0  0  0  0  0  0
  -25.1282  -36.1963   25.0826 H   0  0  0  0  0  0
  -20.9932  -28.3217   24.1437 H   0  0  0  0  0  0
  -20.5541  -26.2242   23.3596 H   0  0  0  0  0  0
  -21.6627  -26.7352   22.1284 H   0  0  0  0  0  0
  -19.6883  -25.6372   21.1136 H   0  0  0  0  0  0
  -19.6676  -27.3299   20.6743 H   0  0  0  0  0  0
  -17.4148  -26.6570   21.4135 H   0  0  0  0  0  0
  -18.0465  -26.0076   22.9080 H   0  0  0  0  0  0
  -19.7904  -30.7323   24.2206 H   0  0  0  0  0  0
  -17.4953  -31.6297   24.5061 H   0  0  0  0  0  0
  -15.5318  -30.2942   23.7620 H   0  0  0  0  0  0
  -15.8675  -28.0775   22.7079 H   0  0  0  0  0  0
  -24.5906  -30.7068   25.7829 H   0  0  0  0  0  0
  -24.8955  -32.2866   26.4958 H   0  0  0  0  0  0
  -25.8107  -30.8862   27.0226 H   0  0  0  0  0  0
  -26.2849  -29.6815   24.1149 H   0  0  0  0  0  0
  -27.4070  -29.7279   25.4562 H   0  0  0  0  0  0
  -27.8687  -30.4375   23.9257 H   0  0  0  0  0  0
  -27.2680  -33.3595   26.2124 H   0  0  0  0  0  0
  -28.3843  -32.6915   25.0303 H   0  0  0  0  0  0
  -28.0759  -31.8407   26.5358 H   0  0  0  0  0  0
  -28.2596  -38.0097   24.7511 H   0  0  0  0  0  0
  -28.1070  -36.2629   24.6291 H   0  0  0  0  0  0
  -27.2301  -37.1449   25.8868 H   0  0  0  0  0  0
  -20.9294  -29.8665   21.6879 H   0  0  0  0  0  0
  -26.0180  -38.2854   24.1431 H   0  0  0  0  0  0
  -25.5422  -22.2719   17.3958 H   0  0  0  0  0  0
  -27.7596  -25.8451   16.4673 H   0  0  0  0  0  0
  -28.2955  -23.9210   20.2823 H   0  0  0  0  0  0
  -24.6451  -27.4045   14.7159 H   0  0  0  0  0  0
  -25.3053  -26.2499   13.5604 H   0  0  0  0  0  0
  -26.3126  -26.8758   14.8610 H   0  0  0  0  0  0
  -22.7265  -25.7930   15.3171 H   0  0  0  0  0  0
  -23.0853  -24.1587   15.8510 H   0  0  0  0  0  0
  -23.3282  -24.6012   14.1610 H   0  0  0  0  0  0
  -25.3148  -23.2602   15.2443 H   0  0  0  0  0  0
  -26.5567  -24.3091   14.6409 H   0  0  0  0  0  0
  -25.4091  -21.8911   19.9983 H   0  0  0  0  0  0
  -26.8492  -22.1310   20.9407 H   0  0  0  0  0  0
  -29.0012  -26.9462   18.1174 H   0  0  0  0  0  0
  -29.9643  -25.8551   19.0820 H   0  0  0  0  0  0
  -29.1908  -17.9754   21.9468 H   0  0  0  0  0  0
  -30.1682  -18.0313   20.4920 H   0  0  0  0  0  0
  -27.1160  -17.9889   20.4815 H   0  0  0  0  0  0
  -28.1356  -18.1658   19.0778 H   0  0  0  0  0  0
  -28.1417  -15.8491   21.2331 H   0  0  0  0  0  0
  -28.9596  -15.9552   19.6810 H   0  0  0  0  0  0
  -28.9695  -20.3812   19.9902 H   0  0  0  0  0  0
  -27.9116  -20.1628   21.3755 H   0  0  0  0  0  0
  -24.8292  -25.7651   16.5391 H   0  0  0  0  0  0
  -30.8765  -16.0163   21.7232 H   0  0  0  0  0  0
  -27.1266  -20.5206   18.5624 H   0  0  0  0  0  0
  -26.1030  -19.9351   19.6803 H   0  0  0  0  0  0
  1 25  1  0  0  0
  1 30  2  0  0  0
  1 87  1  0  0  0
  2  3  1  0  0  0
  2 25  1  0  0  0
  2 89  1  0  0  0
  2 90  1  0  0  0
  3  4  1  0  0  0
  3 91  1  0  0  0
  3 92  1  0  0  0
  4  5  1  0  0  0
  4 93  1  0  0  0
  4 94  1  0  0  0
  5  6  1  0  0  0
  5 26  1  0  0  0
  5 95  1  0  0  0
  6 25  1  0  0  0
  6 96  1  0  0  0
  6 97  1  0  0  0
  7  8  2  0  0  0
  7 26  1  0  0  0
  7 29  1  0  0  0
  8  9  1  0  0  0
  8 22  1  0  0  0
  9 10  1  0  0  0
  9 27  2  0  0  0
 10 11  2  0  0  0
 10 15  1  0  0  0
 11 12  1  0  0  0
 11 98  1  0  0  0
 12 13  2  0  0  0
 12 99  1  0  0  0
 13 14  1  0  0  0
 13 31  1  0  0  0
 14 15  2  0  0  0
 14100  1  0  0  0
 15101  1  0  0  0
 16 17  2  0  0  0
 16 21  1  0  0  0
 16 31  1  0  0  0
 17 18  1  0  0  0
 17102  1  0  0  0
 18 19  2  0  0  0
 18103  1  0  0  0
 19 20  1  0  0  0
 19 24  1  0  0  0
 20 21  2  0  0  0
 20104  1  0  0  0
 21 23  1  0  0  0
 22 28  1  0  0  0
 22 32  2  0  0  0
 26 27  1  0  0  0
 28105  1  0  0  0
 28106  1  0  0  0
 29107  1  0  0  0
 29108  1  0  0  0
 33 34  1  0  0  0
 33 66  1  0  0  0
 33 70  2  0  0  0
 34 36  1  0  0  0
 34 59  1  0  0  0
 34109  1  0  0  0
 35 44  2  0  0  0
 35 45  1  0  0  0
 35 68  1  0  0  0
 36 56  1  0  0  0
 36110  1  0  0  0
 37 39  1  0  0  0
 37 47  1  0  0  0
 37 66  1  0  0  0
 37111  1  0  0  0
 38 43  2  0  0  0
 38 46  1  0  0  0
 38 47  1  0  0  0
 39 64  1  0  0  0
 39 67  2  0  0  0
 40 52  1  0  0  0
 40 53  2  0  0  0
 40 58  1  0  0  0
 41112  1  0  0  0
 41113  1  0  0  0
 41114  1  0  0  0
 41 48  1  0  0  0
 42 43  1  0  0  0
 42 66  1  0  0  0
 42115  1  0  0  0
 42116  1  0  0  0
 43 44  1  0  0  0
 44117  1  0  0  0
 45 46  2  0  0  0
 45118  1  0  0  0
 46119  1  0  0  0
 47120  1  0  0  0
 47121  1  0  0  0
 48 56  1  0  0  0
 48 65  1  0  0  0
 48122  1  0  0  0
 49 50  1  0  0  0
 49 53  1  0  0  0
 49 64  1  0  0  0
 49123  1  0  0  0
 50 51  1  0  0  0
 50124  1  0  0  0
 50125  1  0  0  0
 51 52  1  0  0  0
 51126  1  0  0  0
 51127  1  0  0  0
 52128  1  0  0  0
 52129  1  0  0  0
 53 54  1  0  0  0
 54 55  2  0  0  0
 54130  1  0  0  0
 55 57  1  0  0  0
 55131  1  0  0  0
 56 69  2  0  0  0
 57 58  2  0  0  0
 57132  1  0  0  0
 58133  1  0  0  0
 59 60  1  0  0  0
 59 61  1  0  0  0
 59 62  1  0  0  0
 60134  1  0  0  0
 60135  1  0  0  0
 60136  1  0  0  0
 61137  1  0  0  0
 61138  1  0  0  0
 61139  1  0  0  0
 62140  1  0  0  0
 62141  1  0  0  0
 62142  1  0  0  0
 63 65  1  0  0  0
 63143  1  0  0  0
 63144  1  0  0  0
 63145  1  0  0  0
 64146  1  0  0  0
 65147  1  0  0  0
 68 81  1  0  0  0
 71 74  2  0  0  0
 71 75  1  0  0  0
 71148  1  0  0  0
 72 74  1  0  0  0
 72 76  2  0  0  0
 72149  1  0  0  0
 73 75  2  0  0  0
 73 76  1  0  0  0
 73150  1  0  0  0
 74 79  1  0  0  0
 75 80  1  0  0  0
 76 81  1  0  0  0
 77151  1  0  0  0
 77152  1  0  0  0
 77153  1  0  0  0
 77 86  1  0  0  0
 78 86  1  0  0  0
 78154  1  0  0  0
 78155  1  0  0  0
 78156  1  0  0  0
 79 86  1  0  0  0
 79157  1  0  0  0
 79158  1  0  0  0
 80 88  1  0  0  0
 80159  1  0  0  0
 80160  1  0  0  0
 81161  1  0  0  0
 81162  1  0  0  0
 82 83  1  0  0  0
 82 84  1  0  0  0
 82163  1  0  0  0
 82164  1  0  0  0
 83 85  1  0  0  0
 83165  1  0  0  0
 83166  1  0  0  0
 84 87  1  0  0  0
 84167  1  0  0  0
 84168  1  0  0  0
 85 88  1  0  0  0
 85169  1  0  0  0
 85170  1  0  0  0
 86171  1  0  0  0
 87172  1  0  0  0
 88173  1  0  0  0
 88174  1  0  0  0
M  CHG  1  88   1
M  ISO  4   1 100  68 101  81 101  87 100
M  END
> <chiral flag>
0

> <version>
0

> <s_m_source_file>
/data/baiqing/PycharmProjects/Reinvent-master-3.2/result/LINK_invent/BTK/process_docking_weight1_custom_sum_contain_oxygen_bond_distance_aromatic_linkinvent_7_9_3/rearranged_h_0037.sdf

> <i_m_source_file_index>
10

> <r_mmod_Potential_Energy-OPLS-2005>
-173.549499511719

> <r_mmod_Stretch_Energy-OPLS-2005>
32.6949348449707

> <r_mmod_Bend_Energy-OPLS-2005>
104.594352722168

> <r_mmod_Torsional_Energy-OPLS-2005>
284.606872558594

> <r_mmod_Improper_Torsional_Energy-OPLS-2005>
7.55490493774414

> <r_mmod_Van_der_Waal_Energy-OPLS-2005>
148.165161132812

> <r_mmod_Electrostatic_Energy-OPLS-2005>
-293.742218017578

> <r_mmod_Solvation_Energy-OPLS-2005>
-468.82373046875

> <b_mmod_Minimization_Converged-OPLS-2005>
0

> <r_mmod_RMS_Derivative-OPLS-2005>
2.87787556648254

$$$$
10
                    3D
 Structure written by MMmdl.
166174  0  0  1  0            999 V2000
  -30.8170  -14.2750   20.7074 C   0  0  0  0  0  0
  -30.3986  -12.2555   19.3685 C   0  0  0  0  0  0
  -29.4646  -12.5476   18.1807 C   0  0  0  0  0  0
  -27.9857  -12.4168   18.5968 C   0  0  0  0  0  0
  -27.6650  -13.2008   19.8942 C   0  0  2  0  0  0
  -28.7136  -12.8945   20.9882 C   0  0  0  0  0  0
  -25.2539  -13.8149   20.5700 C   0  0  0  0  0  0
  -24.1786  -13.0462   20.9169 C   0  0  0  0  0  0
  -24.6326  -11.6929   20.8761 C   0  0  0  0  0  0
  -23.8986  -10.4297   21.0412 C   0  0  0  0  0  0
  -24.3582   -9.4232   21.9182 C   0  0  0  0  0  0
  -23.6281   -8.2243   22.0729 C   0  0  0  0  0  0
  -22.4283   -8.0234   21.3487 C   0  0  0  0  0  0
  -21.9878   -9.0215   20.4619 C   0  0  0  0  0  0
  -22.7165  -10.2127   20.3045 C   0  0  0  0  0  0
  -21.6871   -6.0705   22.5258 C   0  0  0  0  0  0
  -21.4062   -6.5618   23.8193 C   0  0  0  0  0  0
  -21.3670   -5.6760   24.9133 C   0  0  0  0  0  0
  -21.6019   -4.3019   24.7196 C   0  0  0  0  0  0
  -21.8855   -3.8128   23.4317 C   0  0  0  0  0  0
  -21.9247   -4.6948   22.3392 C   0  0  0  0  0  0
  -22.7798  -13.5252   21.1815 C   0  0  0  0  0  0
  -22.1716   -4.2147   21.0984 F   0  0  0  0  0  0
  -21.5590   -3.4489   25.7706 F   0  0  0  0  0  0
  -30.0566  -13.1811   20.4541 N   0  0  0  0  0  0
  -26.3025  -12.9351   20.3508 N   0  0  0  0  0  0
  -25.9269  -11.6499   20.5877 N   0  0  0  0  0  0
  -22.0505  -12.8182   22.0343 N   0  0  0  0  0  0
  -25.4180  -15.1863   20.4115 N   0  0  0  0  0  0
  -31.8391  -14.5611   20.0755 O   0  0  0  0  0  0
  -21.6641   -6.8855   21.4201 O   0  0  0  0  0  0
  -22.3422  -14.5534   20.6679 O   0  0  0  0  0  0
  -24.6077  -31.8690   23.2128 C   0  0  0  0  0  0
  -25.8987  -32.4800   23.8385 C   0  0  1  0  0  0
  -27.2074  -27.4417   20.0881 C   0  0  0  0  0  0
  -25.5853  -33.8597   24.2318 N   0  0  0  0  0  0
  -23.3963  -30.4921   21.5554 C   0  0  2  0  0  0
  -24.8391  -28.9599   20.1184 C   0  0  0  0  0  0
  -22.7372  -29.4644   22.5007 C   0  0  0  0  0  0
  -18.0261  -28.1360   22.8494 C   0  0  0  0  0  0
  -24.1517  -36.7295   23.2633 C   0  0  0  0  0  0
  -25.9241  -30.8315   21.3690 C   0  0  0  0  0  0
  -26.0000  -29.4658   20.7205 C   0  0  0  0  0  0
  -27.1938  -28.7117   20.7070 C   0  0  0  0  0  0
  -26.0400  -26.9535   19.4769 C   0  0  0  0  0  0
  -24.8516  -27.7002   19.4969 C   0  0  0  0  0  0
  -23.6042  -29.8261   20.1705 C   0  0  0  0  0  0
  -25.4118  -36.3080   24.0341 C   0  0  1  0  0  0
  -20.5855  -28.3643   23.1323 C   0  0  2  0  0  0
  -20.6750  -26.9391   22.5416 C   0  0  0  0  0  0
  -19.5744  -26.6401   21.5192 C   0  0  0  0  0  0
  -18.1926  -26.7917   22.1627 C   0  0  0  0  0  0
  -19.1515  -28.8820   23.2909 C   0  0  0  0  0  0
  -18.9444  -30.1436   23.8916 C   0  0  0  0  0  0
  -17.6453  -30.6576   24.0573 C   0  0  0  0  0  0
  -25.9045  -34.9463   23.5133 C   0  0  0  0  0  0
  -16.5339  -29.9088   23.6311 C   0  0  0  0  0  0
  -16.7259  -28.6496   23.0333 C   0  0  0  0  0  0
  -26.4484  -31.6544   25.0657 C   0  0  0  0  0  0
  -25.3810  -31.3606   26.1438 C   0  0  0  0  0  0
  -27.0254  -30.2969   24.5944 C   0  0  0  0  0  0
  -27.6077  -32.4239   25.7396 C   0  0  0  0  0  0
  -27.5603  -37.1804   24.8461 C   0  0  0  0  0  0
  -21.4105  -29.3001   22.3729 N   0  0  0  0  0  0
  -26.4314  -37.3758   23.9416 N   0  0  0  0  0  0
  -24.6609  -31.0793   22.1039 N   0  0  0  0  0  0
  -23.4151  -28.8180   23.3052 O   0  0  0  0  0  0
  -28.3406  -26.6765   20.0381 O   0  0  0  0  0  0
  -26.5645  -34.8908   22.4716 O   0  0  0  0  0  0
  -23.5281  -32.1492   23.7511 O   0  0  0  0  0  0
  -27.7798  -23.3580   20.0777 C   0  0  0  0  0  0
  -26.3111  -24.3728   21.6881 C   0  0  0  0  0  0
  -27.4638  -24.4622   20.8903 C   0  0  0  0  0  0
  -26.9890  -22.1839   20.1502 C   0  0  0  0  0  0
  -25.8516  -22.2134   20.9832 C   0  0  0  0  0  0
  -27.5485  -20.9396   19.4555 C   0  0  0  0  0  0
  -28.4185  -25.6534   21.0344 C   0  0  0  0  0  0
  -26.6064  -19.8632   18.8726 C   0  0  0  0  0  0
  -27.3793  -18.9537   17.8915 C   0  0  0  0  0  0
  -28.6078  -18.2785   18.5227 C   0  0  0  0  0  0
  -28.2974  -17.4730   19.7944 C   0  0  0  0  0  0
  -29.5863  -16.9059   20.3629 C   0  0  0  0  0  0
  -29.4144  -16.0436   21.6308 C   0  0  0  0  0  0
  -25.5120  -23.2829   21.7196 N   0  0  0  0  0  0
  -25.0125  -21.1228   21.1473 N   0  0  0  0  0  0
  -30.4637  -15.0275   21.7516 N   0  0  0  0  0  0
  -31.4414  -12.3311   19.0528 H   0  0  0  0  0  0
  -30.2683  -11.2278   19.7084 H   0  0  0  0  0  0
  -29.6765  -11.8758   17.3500 H   0  0  0  0  0  0
  -29.6531  -13.5573   17.8164 H   0  0  0  0  0  0
  -27.7651  -11.3578   18.7376 H   0  0  0  0  0  0
  -27.3325  -12.7495   17.7866 H   0  0  0  0  0  0
  -27.7357  -14.2609   19.6564 H   0  0  0  0  0  0
  -28.6784  -11.8405   21.2588 H   0  0  0  0  0  0
  -28.4985  -13.4178   21.9173 H   0  0  0  0  0  0
  -25.2737   -9.5710   22.4748 H   0  0  0  0  0  0
  -24.0006   -7.4647   22.7432 H   0  0  0  0  0  0
  -21.0803   -8.8660   19.8922 H   0  0  0  0  0  0
  -22.3561  -10.9639   19.6152 H   0  0  0  0  0  0
  -21.2040   -7.6135   23.9692 H   0  0  0  0  0  0
  -21.1456   -6.0472   25.9014 H   0  0  0  0  0  0
  -22.0633   -2.7582   23.2797 H   0  0  0  0  0  0
  -22.4217  -11.9934   22.4771 H   0  0  0  0  0  0
  -21.1120  -13.1150   22.2583 H   0  0  0  0  0  0
  -24.6325  -15.8283   20.4648 H   0  0  0  0  0  0
  -26.2717  -15.6309   20.1019 H   0  0  0  0  0  0
  -26.7014  -32.5541   23.1105 H   0  0  0  0  0  0
  -24.9847  -33.9794   25.0344 H   0  0  0  0  0  0
  -22.6827  -31.3062   21.4172 H   0  0  0  0  0  0
  -23.3769  -35.9647   23.3304 H   0  0  0  0  0  0
  -24.3597  -36.8897   22.2048 H   0  0  0  0  0  0
  -23.7340  -37.6520   23.6653 H   0  0  0  0  0  0
  -26.0366  -31.5974   20.6003 H   0  0  0  0  0  0
  -26.8182  -30.8806   21.9809 H   0  0  0  0  0  0
  -28.0942  -29.0933   21.1674 H   0  0  0  0  0  0
  -26.0527  -25.9873   18.9899 H   0  0  0  0  0  0
  -23.9621  -27.3066   19.0250 H   0  0  0  0  0  0
  -23.7099  -30.6036   19.4143 H   0  0  0  0  0  0
  -22.7310  -29.2400   19.8734 H   0  0  0  0  0  0
  -25.1310  -36.1916   25.0841 H   0  0  0  0  0  0
  -20.9945  -28.3221   24.1449 H   0  0  0  0  0  0
  -20.5635  -26.2245   23.3594 H   0  0  0  0  0  0
  -21.6616  -26.7435   22.1218 H   0  0  0  0  0  0
  -19.6926  -25.6320   21.1192 H   0  0  0  0  0  0
  -19.6678  -27.3237   20.6756 H   0  0  0  0  0  0
  -17.4174  -26.6635   21.4063 H   0  0  0  0  0  0
  -18.0388  -26.0050   22.9035 H   0  0  0  0  0  0
  -19.7921  -30.7245   24.2302 H   0  0  0  0  0  0
  -17.4998  -31.6256   24.5175 H   0  0  0  0  0  0
  -15.5339  -30.2997   23.7608 H   0  0  0  0  0  0
  -15.8665  -28.0828   22.7025 H   0  0  0  0  0  0
  -24.5931  -30.7004   25.7772 H   0  0  0  0  0  0
  -24.9082  -32.2748   26.5024 H   0  0  0  0  0  0
  -25.8212  -30.8661   27.0108 H   0  0  0  0  0  0
  -26.2741  -29.6782   24.0991 H   0  0  0  0  0  0
  -27.4040  -29.7117   25.4342 H   0  0  0  0  0  0
  -27.8607  -30.4259   23.9048 H   0  0  0  0  0  0
  -27.2657  -33.3415   26.2185 H   0  0  0  0  0  0
  -28.3764  -32.6997   25.0160 H   0  0  0  0  0  0
  -28.0901  -31.8244   26.5141 H   0  0  0  0  0  0
  -28.2591  -38.0121   24.7468 H   0  0  0  0  0  0
  -28.1147  -36.2652   24.6314 H   0  0  0  0  0  0
  -27.2319  -37.1448   25.8863 H   0  0  0  0  0  0
  -20.9247  -29.8666   21.6895 H   0  0  0  0  0  0
  -26.0189  -38.2833   24.1402 H   0  0  0  0  0  0
  -28.6743  -23.3816   19.4743 H   0  0  0  0  0  0
  -26.0375  -25.1892   22.3412 H   0  0  0  0  0  0
  -28.2248  -20.4708   20.1730 H   0  0  0  0  0  0
  -28.1798  -21.2929   18.6444 H   0  0  0  0  0  0
  -29.4361  -25.2653   21.0174 H   0  0  0  0  0  0
  -28.2867  -26.0989   22.0232 H   0  0  0  0  0  0
  -25.7684  -20.3209   18.3518 H   0  0  0  0  0  0
  -26.1598  -19.2435   19.6523 H   0  0  0  0  0  0
  -27.7168  -19.5535   17.0419 H   0  0  0  0  0  0
  -26.7188  -18.1958   17.4672 H   0  0  0  0  0  0
  -29.3598  -19.0315   18.7649 H   0  0  0  0  0  0
  -29.1000  -17.6414   17.7843 H   0  0  0  0  0  0
  -27.6173  -16.6595   19.5511 H   0  0  0  0  0  0
  -27.8187  -18.0798   20.5609 H   0  0  0  0  0  0
  -30.2973  -17.7048   20.5745 H   0  0  0  0  0  0
  -30.0186  -16.3558   19.5312 H   0  0  0  0  0  0
  -28.4282  -15.5811   21.6665 H   0  0  0  0  0  0
  -29.4696  -16.6859   22.5119 H   0  0  0  0  0  0
  -24.9836  -20.4260   20.4131 H   0  0  0  0  0  0
  -24.1401  -21.2465   21.6479 H   0  0  0  0  0  0
  -31.2800  -15.4182   22.2013 H   0  0  0  0  0  0
  1 25  1  0  0  0
  1 30  2  0  0  0
  1 86  1  0  0  0
  2  3  1  0  0  0
  2 25  1  0  0  0
  2 87  1  0  0  0
  2 88  1  0  0  0
  3  4  1  0  0  0
  3 89  1  0  0  0
  3 90  1  0  0  0
  4  5  1  0  0  0
  4 91  1  0  0  0
  4 92  1  0  0  0
  5  6  1  0  0  0
  5 26  1  0  0  0
  5 93  1  0  0  0
  6 25  1  0  0  0
  6 94  1  0  0  0
  6 95  1  0  0  0
  7  8  2  0  0  0
  7 26  1  0  0  0
  7 29  1  0  0  0
  8  9  1  0  0  0
  8 22  1  0  0  0
  9 10  1  0  0  0
  9 27  2  0  0  0
 10 11  2  0  0  0
 10 15  1  0  0  0
 11 12  1  0  0  0
 11 96  1  0  0  0
 12 13  2  0  0  0
 12 97  1  0  0  0
 13 14  1  0  0  0
 13 31  1  0  0  0
 14 15  2  0  0  0
 14 98  1  0  0  0
 15 99  1  0  0  0
 16 17  2  0  0  0
 16 21  1  0  0  0
 16 31  1  0  0  0
 17 18  1  0  0  0
 17100  1  0  0  0
 18 19  2  0  0  0
 18101  1  0  0  0
 19 20  1  0  0  0
 19 24  1  0  0  0
 20 21  2  0  0  0
 20102  1  0  0  0
 21 23  1  0  0  0
 22 28  1  0  0  0
 22 32  2  0  0  0
 26 27  1  0  0  0
 28103  1  0  0  0
 28104  1  0  0  0
 29105  1  0  0  0
 29106  1  0  0  0
 33 34  1  0  0  0
 33 66  1  0  0  0
 33 70  2  0  0  0
 34 36  1  0  0  0
 34 59  1  0  0  0
 34107  1  0  0  0
 35 44  2  0  0  0
 35 45  1  0  0  0
 35 68  1  0  0  0
 36 56  1  0  0  0
 36108  1  0  0  0
 37 39  1  0  0  0
 37 47  1  0  0  0
 37 66  1  0  0  0
 37109  1  0  0  0
 38 43  2  0  0  0
 38 46  1  0  0  0
 38 47  1  0  0  0
 39 64  1  0  0  0
 39 67  2  0  0  0
 40 52  1  0  0  0
 40 53  2  0  0  0
 40 58  1  0  0  0
 41110  1  0  0  0
 41111  1  0  0  0
 41112  1  0  0  0
 41 48  1  0  0  0
 42 43  1  0  0  0
 42 66  1  0  0  0
 42113  1  0  0  0
 42114  1  0  0  0
 43 44  1  0  0  0
 44115  1  0  0  0
 45 46  2  0  0  0
 45116  1  0  0  0
 46117  1  0  0  0
 47118  1  0  0  0
 47119  1  0  0  0
 48 56  1  0  0  0
 48 65  1  0  0  0
 48120  1  0  0  0
 49 50  1  0  0  0
 49 53  1  0  0  0
 49 64  1  0  0  0
 49121  1  0  0  0
 50 51  1  0  0  0
 50122  1  0  0  0
 50123  1  0  0  0
 51 52  1  0  0  0
 51124  1  0  0  0
 51125  1  0  0  0
 52126  1  0  0  0
 52127  1  0  0  0
 53 54  1  0  0  0
 54 55  2  0  0  0
 54128  1  0  0  0
 55 57  1  0  0  0
 55129  1  0  0  0
 56 69  2  0  0  0
 57 58  2  0  0  0
 57130  1  0  0  0
 58131  1  0  0  0
 59 60  1  0  0  0
 59 61  1  0  0  0
 59 62  1  0  0  0
 60132  1  0  0  0
 60133  1  0  0  0
 60134  1  0  0  0
 61135  1  0  0  0
 61136  1  0  0  0
 61137  1  0  0  0
 62138  1  0  0  0
 62139  1  0  0  0
 62140  1  0  0  0
 63 65  1  0  0  0
 63141  1  0  0  0
 63142  1  0  0  0
 63143  1  0  0  0
 64144  1  0  0  0
 65145  1  0  0  0
 68 77  1  0  0  0
 71 73  2  0  0  0
 71 74  1  0  0  0
 71146  1  0  0  0
 72 73  1  0  0  0
 72 84  2  0  0  0
 72147  1  0  0  0
 73 77  1  0  0  0
 74 75  2  0  0  0
 74 76  1  0  0  0
 75 84  1  0  0  0
 75 85  1  0  0  0
 76 78  1  0  0  0
 76148  1  0  0  0
 76149  1  0  0  0
 77150  1  0  0  0
 77151  1  0  0  0
 78 79  1  0  0  0
 78152  1  0  0  0
 78153  1  0  0  0
 79 80  1  0  0  0
 79154  1  0  0  0
 79155  1  0  0  0
 80 81  1  0  0  0
 80156  1  0  0  0
 80157  1  0  0  0
 81 82  1  0  0  0
 81158  1  0  0  0
 81159  1  0  0  0
 82 83  1  0  0  0
 82160  1  0  0  0
 82161  1  0  0  0
 83 86  1  0  0  0
 83162  1  0  0  0
 83163  1  0  0  0
 85164  1  0  0  0
 85165  1  0  0  0
 86166  1  0  0  0
M  ISO  4   1 100  68 101  77 101  86 100
M  END
> <chiral flag>
0

> <version>
0

> <s_m_source_file>
/data/baiqing/PycharmProjects/Reinvent-master-3.2/result/LINK_invent/BTK/process_docking_weight1_custom_sum_contain_oxygen_bond_distance_aromatic_linkinvent_7_9_3/rearranged_h_0037.sdf

> <i_m_source_file_index>
11

> <r_mmod_Potential_Energy-OPLS-2005>
-207.681106567383

> <r_mmod_Stretch_Energy-OPLS-2005>
32.1151161193848

> <r_mmod_Bend_Energy-OPLS-2005>
119.26326751709

> <r_mmod_Torsional_Energy-OPLS-2005>
302.482482910156

> <r_mmod_Improper_Torsional_Energy-OPLS-2005>
10.6683616638184

> <r_mmod_Van_der_Waal_Energy-OPLS-2005>
160.333786010742

> <r_mmod_Electrostatic_Energy-OPLS-2005>
-629.40185546875

> <r_mmod_Solvation_Energy-OPLS-2005>
-214.519332885742

> <b_mmod_Minimization_Converged-OPLS-2005>
0

> <r_mmod_RMS_Derivative-OPLS-2005>
7.35672187805176

$$$$
11
                    3D
 Structure written by MMmdl.
170178  0  0  1  0            999 V2000
  -30.6758  -14.6448   20.4655 C   0  0  0  0  0  0
  -30.4174  -12.3933   19.4492 C   0  0  0  0  0  0
  -29.4956  -12.4760   18.2154 C   0  0  0  0  0  0
  -28.0214  -12.3243   18.6372 C   0  0  0  0  0  0
  -27.6406  -13.2263   19.8421 C   0  0  2  0  0  0
  -28.6879  -13.1482   20.9725 C   0  0  0  0  0  0
  -25.2505  -13.8186   20.5655 C   0  0  0  0  0  0
  -24.1798  -13.0432   20.9196 C   0  0  0  0  0  0
  -24.6374  -11.6911   20.8736 C   0  0  0  0  0  0
  -23.9062  -10.4286   21.0402 C   0  0  0  0  0  0
  -24.3611   -9.4202   21.9186 C   0  0  0  0  0  0
  -23.6283   -8.2242   22.0759 C   0  0  0  0  0  0
  -22.4268   -8.0281   21.3543 C   0  0  0  0  0  0
  -21.9911   -9.0247   20.4636 C   0  0  0  0  0  0
  -22.7238  -10.2122   20.3040 C   0  0  0  0  0  0
  -21.6856   -6.0719   22.5268 C   0  0  0  0  0  0
  -21.4012   -6.5630   23.8201 C   0  0  0  0  0  0
  -21.3662   -5.6789   24.9173 C   0  0  0  0  0  0
  -21.6041   -4.3050   24.7226 C   0  0  0  0  0  0
  -21.8829   -3.8130   23.4351 C   0  0  0  0  0  0
  -21.9190   -4.6943   22.3397 C   0  0  0  0  0  0
  -22.7814  -13.5216   21.1856 C   0  0  0  0  0  0
  -22.1660   -4.2124   21.0979 F   0  0  0  0  0  0
  -21.5634   -3.4541   25.7745 F   0  0  0  0  0  0
  -29.9953  -13.4576   20.3834 N   0  0  0  0  0  0
  -26.2934  -12.9395   20.3248 N   0  0  0  0  0  0
  -25.9308  -11.6546   20.5745 N   0  0  0  0  0  0
  -22.0463  -12.8183   22.0396 N   0  0  0  0  0  0
  -25.4218  -15.1910   20.4021 N   0  0  0  0  0  0
  -31.8670  -14.7035   20.1606 O   0  0  0  0  0  0
  -21.6640   -6.8865   21.4231 O   0  0  0  0  0  0
  -22.3502  -14.5532   20.6726 O   0  0  0  0  0  0
  -24.6246  -31.8606   23.2035 C   0  0  0  0  0  0
  -25.9100  -32.4772   23.8334 C   0  0  1  0  0  0
  -27.2282  -27.3468   20.1015 C   0  0  0  0  0  0
  -25.5920  -33.8569   24.2302 N   0  0  0  0  0  0
  -23.4164  -30.4873   21.5422 C   0  0  2  0  0  0
  -24.8626  -28.9482   20.1031 C   0  0  0  0  0  0
  -22.7466  -29.4617   22.4896 C   0  0  0  0  0  0
  -18.0288  -28.1418   22.8472 C   0  0  0  0  0  0
  -24.1487  -36.7274   23.2651 C   0  0  0  0  0  0
  -25.9554  -30.7945   21.3766 C   0  0  0  0  0  0
  -26.0249  -29.4278   20.7155 C   0  0  0  0  0  0
  -27.2056  -28.6347   20.7136 C   0  0  0  0  0  0
  -26.0400  -26.9069   19.4724 C   0  0  0  0  0  0
  -24.8702  -27.6941   19.4741 C   0  0  0  0  0  0
  -23.6319  -29.8289   20.1535 C   0  0  0  0  0  0
  -25.4106  -36.3080   24.0359 C   0  0  1  0  0  0
  -20.5891  -28.3680   23.1297 C   0  0  2  0  0  0
  -20.6790  -26.9419   22.5410 C   0  0  0  0  0  0
  -19.5764  -26.6418   21.5211 C   0  0  0  0  0  0
  -18.1928  -26.7964   22.1596 C   0  0  0  0  0  0
  -19.1544  -28.8861   23.2883 C   0  0  0  0  0  0
  -18.9487  -30.1471   23.8873 C   0  0  0  0  0  0
  -17.6480  -30.6586   24.0585 C   0  0  0  0  0  0
  -25.9037  -34.9440   23.5137 C   0  0  0  0  0  0
  -16.5358  -29.9079   23.6345 C   0  0  0  0  0  0
  -16.7289  -28.6532   23.0307 C   0  0  0  0  0  0
  -26.4481  -31.6557   25.0673 C   0  0  0  0  0  0
  -25.3712  -31.3656   26.1396 C   0  0  0  0  0  0
  -27.0355  -30.2996   24.6116 C   0  0  0  0  0  0
  -27.6056  -32.4277   25.7431 C   0  0  0  0  0  0
  -27.5571  -37.1800   24.8470 C   0  0  0  0  0  0
  -21.4179  -29.3017   22.3648 N   0  0  0  0  0  0
  -26.4270  -37.3794   23.9428 N   0  0  0  0  0  0
  -24.6829  -31.0631   22.0982 N   0  0  0  0  0  0
  -23.4212  -28.8190   23.2974 O   0  0  0  0  0  0
  -28.3839  -26.5606   20.1665 O   0  0  0  0  0  0
  -26.5613  -34.8919   22.4705 O   0  0  0  0  0  0
  -23.5406  -32.1389   23.7352 O   0  0  0  0  0  0
  -29.3825  -20.8080   21.3561 C   0  0  0  0  0  0
  -29.6126  -19.4316   21.6525 C   0  0  0  0  0  0
  -29.4734  -21.2880   20.0284 C   0  0  0  0  0  0
  -29.8979  -18.5138   20.6054 C   0  0  0  0  0  0
  -29.6338  -20.2694   19.0390 C   0  0  0  0  0  0
  -29.6633  -18.9944   23.1090 C   0  0  0  0  0  0
  -28.2322  -20.7762   16.9772 C   0  0  0  0  0  0
  -31.5224  -23.5720   21.3764 C   0  0  0  0  0  0
  -31.8178  -24.1167   18.9288 C   0  0  0  0  0  0
  -29.6443  -20.5746   17.5444 C   0  0  0  0  0  0
  -30.6321  -17.1449   20.8476 C   0  0  0  0  0  0
  -28.6801  -23.9289   20.3046 C   0  0  0  0  0  0
  -28.5350  -25.2777   19.4677 C   0  0  0  0  0  0
  -29.6628  -22.8258   19.7031 C   0  0  1  0  0  0
  -31.1786  -23.1468   19.9373 C   0  0  0  0  0  0
  -29.8238  -18.9458   19.3243 N   0  0  0  0  0  0
  -29.9767  -15.8007   20.7000 N   0  0  0  0  0  0
  -31.4610  -12.4868   19.1447 H   0  0  0  0  0  0
  -30.3336  -11.4167   19.9294 H   0  0  0  0  0  0
  -29.7580  -11.6937   17.5017 H   0  0  0  0  0  0
  -29.6439  -13.4260   17.6988 H   0  0  0  0  0  0
  -27.8677  -11.2766   18.9006 H   0  0  0  0  0  0
  -27.3642  -12.5236   17.7884 H   0  0  0  0  0  0
  -27.6410  -14.2486   19.4645 H   0  0  0  0  0  0
  -28.7011  -12.1559   21.4232 H   0  0  0  0  0  0
  -28.4418  -13.8457   21.7747 H   0  0  0  0  0  0
  -25.2751   -9.5682   22.4765 H   0  0  0  0  0  0
  -23.9981   -7.4637   22.7495 H   0  0  0  0  0  0
  -21.0843   -8.8751   19.8943 H   0  0  0  0  0  0
  -22.3695  -10.9651   19.6138 H   0  0  0  0  0  0
  -21.2006   -7.6140   23.9693 H   0  0  0  0  0  0
  -21.1475   -6.0527   25.9075 H   0  0  0  0  0  0
  -22.0604   -2.7589   23.2861 H   0  0  0  0  0  0
  -22.4073  -11.9816   22.4740 H   0  0  0  0  0  0
  -21.1067  -13.1192   22.2594 H   0  0  0  0  0  0
  -24.6589  -15.8504   20.5103 H   0  0  0  0  0  0
  -26.2635  -15.6188   20.0375 H   0  0  0  0  0  0
  -26.7156  -32.5435   23.1053 H   0  0  0  0  0  0
  -25.0070  -33.9713   25.0448 H   0  0  0  0  0  0
  -22.7132  -31.3098   21.4017 H   0  0  0  0  0  0
  -23.3767  -35.9579   23.3291 H   0  0  0  0  0  0
  -24.3581  -36.8902   22.2068 H   0  0  0  0  0  0
  -23.7226  -37.6478   23.6648 H   0  0  0  0  0  0
  -26.1080  -31.5656   20.6208 H   0  0  0  0  0  0
  -26.8302  -30.8282   22.0108 H   0  0  0  0  0  0
  -28.0982  -28.9980   21.2045 H   0  0  0  0  0  0
  -25.9694  -25.9484   18.9840 H   0  0  0  0  0  0
  -23.9773  -27.3264   18.9865 H   0  0  0  0  0  0
  -23.7569  -30.6121   19.4044 H   0  0  0  0  0  0
  -22.7512  -29.2638   19.8453 H   0  0  0  0  0  0
  -25.1292  -36.1941   25.0855 H   0  0  0  0  0  0
  -20.9990  -28.3227   24.1414 H   0  0  0  0  0  0
  -20.5753  -26.2251   23.3572 H   0  0  0  0  0  0
  -21.6656  -26.7498   22.1156 H   0  0  0  0  0  0
  -19.6941  -25.6343   21.1187 H   0  0  0  0  0  0
  -19.6723  -27.3273   20.6789 H   0  0  0  0  0  0
  -17.4228  -26.6733   21.3974 H   0  0  0  0  0  0
  -18.0286  -26.0119   22.9013 H   0  0  0  0  0  0
  -19.7956  -30.7316   24.2181 H   0  0  0  0  0  0
  -17.5038  -31.6246   24.5213 H   0  0  0  0  0  0
  -15.5356  -30.2986   23.7724 H   0  0  0  0  0  0
  -15.8676  -28.0900   22.6972 H   0  0  0  0  0  0
  -24.5925  -30.6967   25.7710 H   0  0  0  0  0  0
  -24.8822  -32.2789   26.4796 H   0  0  0  0  0  0
  -25.8048  -30.8855   27.0182 H   0  0  0  0  0  0
  -26.2926  -29.6691   24.1205 H   0  0  0  0  0  0
  -27.4204  -29.7300   25.4590 H   0  0  0  0  0  0
  -27.8719  -30.4340   23.9253 H   0  0  0  0  0  0
  -27.2722  -33.3634   26.1940 H   0  0  0  0  0  0
  -28.3885  -32.6748   25.0245 H   0  0  0  0  0  0
  -28.0665  -31.8403   26.5397 H   0  0  0  0  0  0
  -28.2602  -38.0092   24.7538 H   0  0  0  0  0  0
  -28.1071  -36.2633   24.6272 H   0  0  0  0  0  0
  -27.2274  -37.1429   25.8870 H   0  0  0  0  0  0
  -20.9339  -29.8708   21.6851 H   0  0  0  0  0  0
  -26.0152  -38.2873   24.1434 H   0  0  0  0  0  0
  -29.2445  -21.5128   22.1638 H   0  0  0  0  0  0
  -29.0804  -19.6618   23.7459 H   0  0  0  0  0  0
  -30.6920  -18.9996   23.4722 H   0  0  0  0  0  0
  -29.2617  -17.9881   23.2297 H   0  0  0  0  0  0
  -28.2657  -20.9444   15.9018 H   0  0  0  0  0  0
  -27.7398  -21.6365   17.4312 H   0  0  0  0  0  0
  -27.6084  -19.8995   17.1578 H   0  0  0  0  0  0
  -32.5933  -23.4838   21.5623 H   0  0  0  0  0  0
  -31.0179  -22.9471   22.1099 H   0  0  0  0  0  0
  -31.2381  -24.6073   21.5711 H   0  0  0  0  0  0
  -32.9051  -24.0623   19.0053 H   0  0  0  0  0  0
  -31.5531  -25.1556   19.1205 H   0  0  0  0  0  0
  -31.5534  -23.8741   17.8982 H   0  0  0  0  0  0
  -30.1188  -19.7478   17.0156 H   0  0  0  0  0  0
  -30.2757  -21.4331   17.3238 H   0  0  0  0  0  0
  -31.0800  -17.1631   21.8401 H   0  0  0  0  0  0
  -31.4992  -17.1788   20.1860 H   0  0  0  0  0  0
  -27.6836  -23.4921   20.3680 H   0  0  0  0  0  0
  -28.9447  -24.1588   21.3357 H   0  0  0  0  0  0
  -27.8152  -25.1289   18.6660 H   0  0  0  0  0  0
  -29.4488  -25.4161   18.9024 H   0  0  0  0  0  0
  -29.4794  -22.9099   18.6347 H   0  0  0  0  0  0
  -31.7156  -22.2111   19.7657 H   0  0  0  0  0  0
  -28.9803  -15.7547   20.8295 H   0  0  0  0  0  0
  1 25  1  0  0  0
  1 30  2  0  0  0
  1 87  1  0  0  0
  2  3  1  0  0  0
  2 25  1  0  0  0
  2 88  1  0  0  0
  2 89  1  0  0  0
  3  4  1  0  0  0
  3 90  1  0  0  0
  3 91  1  0  0  0
  4  5  1  0  0  0
  4 92  1  0  0  0
  4 93  1  0  0  0
  5  6  1  0  0  0
  5 26  1  0  0  0
  5 94  1  0  0  0
  6 25  1  0  0  0
  6 95  1  0  0  0
  6 96  1  0  0  0
  7  8  2  0  0  0
  7 26  1  0  0  0
  7 29  1  0  0  0
  8  9  1  0  0  0
  8 22  1  0  0  0
  9 10  1  0  0  0
  9 27  2  0  0  0
 10 11  2  0  0  0
 10 15  1  0  0  0
 11 12  1  0  0  0
 11 97  1  0  0  0
 12 13  2  0  0  0
 12 98  1  0  0  0
 13 14  1  0  0  0
 13 31  1  0  0  0
 14 15  2  0  0  0
 14 99  1  0  0  0
 15100  1  0  0  0
 16 17  2  0  0  0
 16 21  1  0  0  0
 16 31  1  0  0  0
 17 18  1  0  0  0
 17101  1  0  0  0
 18 19  2  0  0  0
 18102  1  0  0  0
 19 20  1  0  0  0
 19 24  1  0  0  0
 20 21  2  0  0  0
 20103  1  0  0  0
 21 23  1  0  0  0
 22 28  1  0  0  0
 22 32  2  0  0  0
 26 27  1  0  0  0
 28104  1  0  0  0
 28105  1  0  0  0
 29106  1  0  0  0
 29107  1  0  0  0
 33 34  1  0  0  0
 33 66  1  0  0  0
 33 70  2  0  0  0
 34 36  1  0  0  0
 34 59  1  0  0  0
 34108  1  0  0  0
 35 44  2  0  0  0
 35 45  1  0  0  0
 35 68  1  0  0  0
 36 56  1  0  0  0
 36109  1  0  0  0
 37 39  1  0  0  0
 37 47  1  0  0  0
 37 66  1  0  0  0
 37110  1  0  0  0
 38 43  2  0  0  0
 38 46  1  0  0  0
 38 47  1  0  0  0
 39 64  1  0  0  0
 39 67  2  0  0  0
 40 52  1  0  0  0
 40 53  2  0  0  0
 40 58  1  0  0  0
 41111  1  0  0  0
 41112  1  0  0  0
 41113  1  0  0  0
 41 48  1  0  0  0
 42 43  1  0  0  0
 42 66  1  0  0  0
 42114  1  0  0  0
 42115  1  0  0  0
 43 44  1  0  0  0
 44116  1  0  0  0
 45 46  2  0  0  0
 45117  1  0  0  0
 46118  1  0  0  0
 47119  1  0  0  0
 47120  1  0  0  0
 48 56  1  0  0  0
 48 65  1  0  0  0
 48121  1  0  0  0
 49 50  1  0  0  0
 49 53  1  0  0  0
 49 64  1  0  0  0
 49122  1  0  0  0
 50 51  1  0  0  0
 50123  1  0  0  0
 50124  1  0  0  0
 51 52  1  0  0  0
 51125  1  0  0  0
 51126  1  0  0  0
 52127  1  0  0  0
 52128  1  0  0  0
 53 54  1  0  0  0
 54 55  2  0  0  0
 54129  1  0  0  0
 55 57  1  0  0  0
 55130  1  0  0  0
 56 69  2  0  0  0
 57 58  2  0  0  0
 57131  1  0  0  0
 58132  1  0  0  0
 59 60  1  0  0  0
 59 61  1  0  0  0
 59 62  1  0  0  0
 60133  1  0  0  0
 60134  1  0  0  0
 60135  1  0  0  0
 61136  1  0  0  0
 61137  1  0  0  0
 61138  1  0  0  0
 62139  1  0  0  0
 62140  1  0  0  0
 62141  1  0  0  0
 63 65  1  0  0  0
 63142  1  0  0  0
 63143  1  0  0  0
 63144  1  0  0  0
 64145  1  0  0  0
 65146  1  0  0  0
 68 83  1  0  0  0
 71 72  2  0  0  0
 71 73  1  0  0  0
 71147  1  0  0  0
 72 74  1  0  0  0
 72 76  1  0  0  0
 73 75  2  0  0  0
 73 84  1  0  0  0
 74 81  1  0  0  0
 74 86  2  0  0  0
 75 80  1  0  0  0
 75 86  1  0  0  0
 76148  1  0  0  0
 76149  1  0  0  0
 76150  1  0  0  0
 77 80  1  0  0  0
 77151  1  0  0  0
 77152  1  0  0  0
 77153  1  0  0  0
 78154  1  0  0  0
 78155  1  0  0  0
 78156  1  0  0  0
 78 85  1  0  0  0
 79 85  1  0  0  0
 79157  1  0  0  0
 79158  1  0  0  0
 79159  1  0  0  0
 80160  1  0  0  0
 80161  1  0  0  0
 81 87  1  0  0  0
 81162  1  0  0  0
 81163  1  0  0  0
 82 83  1  0  0  0
 82164  1  0  0  0
 82165  1  0  0  0
 82 84  1  0  0  0
 83166  1  0  0  0
 83167  1  0  0  0
 84 85  1  0  0  0
 84168  1  0  0  0
 85169  1  0  0  0
 87170  1  0  0  0
M  ISO  4   1 100  68 101  83 101  87 100
M  END
> <chiral flag>
0

> <version>
0

> <s_m_source_file>
/data/baiqing/PycharmProjects/Reinvent-master-3.2/result/LINK_invent/BTK/process_docking_weight1_custom_sum_contain_oxygen_bond_distance_aromatic_linkinvent_7_9_3/rearranged_h_0037.sdf

> <i_m_source_file_index>
12

> <r_mmod_Potential_Energy-OPLS-2005>
-176.012420654297

> <r_mmod_Stretch_Energy-OPLS-2005>
77.339469909668

> <r_mmod_Bend_Energy-OPLS-2005>
163.764312744141

> <r_mmod_Torsional_Energy-OPLS-2005>
241.069427490234

> <r_mmod_Improper_Torsional_Energy-OPLS-2005>
8.1331844329834

> <r_mmod_Van_der_Waal_Energy-OPLS-2005>
152.023864746094

> <r_mmod_Electrostatic_Energy-OPLS-2005>
-654.195556640625

> <r_mmod_Solvation_Energy-OPLS-2005>
-212.568328857422

> <b_mmod_Minimization_Converged-OPLS-2005>
0

> <r_mmod_RMS_Derivative-OPLS-2005>
4.25540494918823

$$$$
12
                    3D
 Structure written by MMmdl.
160168  0  0  1  0            999 V2000
  -30.6747  -14.5396   20.5345 C   0  0  0  0  0  0
  -30.4264  -12.3376   19.4393 C   0  0  0  0  0  0
  -29.5000  -12.5024   18.2157 C   0  0  0  0  0  0
  -28.0210  -12.3562   18.6264 C   0  0  0  0  0  0
  -27.6571  -13.2121   19.8700 C   0  0  2  0  0  0
  -28.7006  -13.0329   20.9963 C   0  0  0  0  0  0
  -25.2569  -13.8165   20.5681 C   0  0  0  0  0  0
  -24.1831  -13.0436   20.9185 C   0  0  0  0  0  0
  -24.6394  -11.6906   20.8738 C   0  0  0  0  0  0
  -23.9058  -10.4292   21.0400 C   0  0  0  0  0  0
  -24.3612   -9.4210   21.9182 C   0  0  0  0  0  0
  -23.6291   -8.2245   22.0751 C   0  0  0  0  0  0
  -22.4272   -8.0280   21.3540 C   0  0  0  0  0  0
  -21.9906   -9.0252   20.4643 C   0  0  0  0  0  0
  -22.7230  -10.2134   20.3051 C   0  0  0  0  0  0
  -21.6851   -6.0734   22.5282 C   0  0  0  0  0  0
  -21.4014   -6.5639   23.8214 C   0  0  0  0  0  0
  -21.3661   -5.6791   24.9177 C   0  0  0  0  0  0
  -21.6044   -4.3053   24.7226 C   0  0  0  0  0  0
  -21.8819   -3.8144   23.4349 C   0  0  0  0  0  0
  -21.9194   -4.6963   22.3404 C   0  0  0  0  0  0
  -22.7856  -13.5234   21.1852 C   0  0  0  0  0  0
  -22.1658   -4.2148   21.0979 F   0  0  0  0  0  0
  -21.5634   -3.4538   25.7738 F   0  0  0  0  0  0
  -30.0242  -13.3449   20.4359 N   0  0  0  0  0  0
  -26.3005  -12.9344   20.3352 N   0  0  0  0  0  0
  -25.9320  -11.6500   20.5762 N   0  0  0  0  0  0
  -22.0496  -12.8223   22.0407 N   0  0  0  0  0  0
  -25.4282  -15.1883   20.4077 N   0  0  0  0  0  0
  -31.8248  -14.7020   20.1182 O   0  0  0  0  0  0
  -21.6639   -6.8875   21.4240 O   0  0  0  0  0  0
  -22.3542  -14.5542   20.6705 O   0  0  0  0  0  0
  -24.6197  -31.8654   23.2073 C   0  0  0  0  0  0
  -25.9071  -32.4810   23.8382 C   0  0  1  0  0  0
  -27.2264  -27.3807   20.1037 C   0  0  0  0  0  0
  -25.5909  -33.8609   24.2312 N   0  0  0  0  0  0
  -23.4103  -30.4899   21.5495 C   0  0  2  0  0  0
  -24.8553  -28.9550   20.1102 C   0  0  0  0  0  0
  -22.7443  -29.4648   22.4969 C   0  0  0  0  0  0
  -18.0280  -28.1384   22.8490 C   0  0  0  0  0  0
  -24.1489  -36.7310   23.2638 C   0  0  0  0  0  0
  -25.9453  -30.8150   21.3689 C   0  0  0  0  0  0
  -26.0205  -29.4475   20.7110 C   0  0  0  0  0  0
  -27.2094  -28.6707   20.7002 C   0  0  0  0  0  0
  -26.0396  -26.9265   19.4811 C   0  0  0  0  0  0
  -24.8636  -27.6972   19.4881 C   0  0  0  0  0  0
  -23.6204  -29.8276   20.1627 C   0  0  0  0  0  0
  -25.4111  -36.3104   24.0334 C   0  0  1  0  0  0
  -20.5874  -28.3678   23.1307 C   0  0  2  0  0  0
  -20.6773  -26.9411   22.5416 C   0  0  0  0  0  0
  -19.5746  -26.6388   21.5219 C   0  0  0  0  0  0
  -18.1926  -26.7929   22.1630 C   0  0  0  0  0  0
  -19.1531  -28.8848   23.2895 C   0  0  0  0  0  0
  -18.9455  -30.1454   23.8906 C   0  0  0  0  0  0
  -17.6454  -30.6587   24.0567 C   0  0  0  0  0  0
  -25.9041  -34.9470   23.5121 C   0  0  0  0  0  0
  -16.5347  -29.9088   23.6325 C   0  0  0  0  0  0
  -16.7268  -28.6509   23.0344 C   0  0  0  0  0  0
  -26.4476  -31.6596   25.0726 C   0  0  0  0  0  0
  -25.3728  -31.3714   26.1464 C   0  0  0  0  0  0
  -27.0310  -30.3031   24.6130 C   0  0  0  0  0  0
  -27.6048  -32.4319   25.7492 C   0  0  0  0  0  0
  -27.5581  -37.1812   24.8465 C   0  0  0  0  0  0
  -21.4164  -29.3040   22.3709 N   0  0  0  0  0  0
  -26.4296  -37.3791   23.9406 N   0  0  0  0  0  0
  -24.6771  -31.0715   22.0998 N   0  0  0  0  0  0
  -23.4195  -28.8188   23.3027 O   0  0  0  0  0  0
  -28.3667  -26.5816   20.1500 O   0  0  0  0  0  0
  -26.5606  -34.8926   22.4686 O   0  0  0  0  0  0
  -23.5375  -32.1429   23.7434 O   0  0  0  0  0  0
  -29.8242  -19.9438   18.6185 C   0  0  0  0  0  0
  -29.5634  -22.1564   18.4728 C   0  0  0  0  0  0
  -29.8440  -21.0485   17.7252 C   0  0  0  0  0  0
  -29.5432  -20.3884   19.8816 C   0  0  0  0  0  0
  -30.1211  -21.0005   16.2466 C   0  0  0  0  0  0
  -29.4294  -19.5626   21.1532 C   0  0  0  0  0  0
  -29.1207  -18.0259   21.0001 C   0  0  0  0  0  0
  -29.3416  -24.2737   20.6423 C   0  0  0  0  0  0
  -29.0580  -22.7396   20.8858 C   0  0  0  0  0  0
  -30.3226  -17.0301   20.8836 C   0  0  0  0  0  0
  -28.1682  -25.1374   20.0812 C   0  0  0  0  0  0
  -29.3900  -21.7914   19.7994 N   0  0  0  0  0  0
  -29.9277  -15.5968   20.9365 N   0  0  0  0  0  0
  -31.4712  -12.4410   19.1400 H   0  0  0  0  0  0
  -30.3344  -11.3350   19.8593 H   0  0  0  0  0  0
  -29.7511  -11.7665   17.4507 H   0  0  0  0  0  0
  -29.6588  -13.4818   17.7613 H   0  0  0  0  0  0
  -27.8398  -11.3017   18.8373 H   0  0  0  0  0  0
  -27.3705  -12.6125   17.7895 H   0  0  0  0  0  0
  -27.6883  -14.2537   19.5499 H   0  0  0  0  0  0
  -28.6896  -12.0070   21.3671 H   0  0  0  0  0  0
  -28.4617  -13.6606   21.8564 H   0  0  0  0  0  0
  -25.2756   -9.5695   22.4758 H   0  0  0  0  0  0
  -24.0008   -7.4633   22.7464 H   0  0  0  0  0  0
  -21.0845   -8.8759   19.8946 H   0  0  0  0  0  0
  -22.3678  -10.9672   19.6161 H   0  0  0  0  0  0
  -21.2001   -7.6146   23.9719 H   0  0  0  0  0  0
  -21.1486   -6.0521   25.9081 H   0  0  0  0  0  0
  -22.0598   -2.7608   23.2849 H   0  0  0  0  0  0
  -22.4102  -11.9883   22.4799 H   0  0  0  0  0  0
  -21.1111  -13.1250   22.2601 H   0  0  0  0  0  0
  -24.6605  -15.8428   20.5130 H   0  0  0  0  0  0
  -26.2787  -15.6272   20.0786 H   0  0  0  0  0  0
  -26.7142  -32.5503   23.1141 H   0  0  0  0  0  0
  -25.0059  -33.9770   25.0456 H   0  0  0  0  0  0
  -22.7009  -31.3085   21.4116 H   0  0  0  0  0  0
  -23.3748  -35.9646   23.3308 H   0  0  0  0  0  0
  -24.3580  -36.8919   22.2050 H   0  0  0  0  0  0
  -23.7246  -37.6519   23.6649 H   0  0  0  0  0  0
  -26.0665  -31.5815   20.6021 H   0  0  0  0  0  0
  -26.8297  -30.8648   21.9924 H   0  0  0  0  0  0
  -28.1051  -29.0442   21.1764 H   0  0  0  0  0  0
  -25.9980  -25.9678   18.9860 H   0  0  0  0  0  0
  -23.9708  -27.3157   19.0119 H   0  0  0  0  0  0
  -23.7336  -30.6063   19.4078 H   0  0  0  0  0  0
  -22.7422  -29.2535   19.8619 H   0  0  0  0  0  0
  -25.1290  -36.1968   25.0827 H   0  0  0  0  0  0
  -20.9966  -28.3248   24.1428 H   0  0  0  0  0  0
  -20.5690  -26.2287   23.3608 H   0  0  0  0  0  0
  -21.6642  -26.7458   22.1200 H   0  0  0  0  0  0
  -19.6910  -25.6302   21.1241 H   0  0  0  0  0  0
  -19.6683  -27.3208   20.6755 H   0  0  0  0  0  0
  -17.4198  -26.6678   21.4030 H   0  0  0  0  0  0
  -18.0323  -26.0072   22.9026 H   0  0  0  0  0  0
  -19.7930  -30.7269   24.2278 H   0  0  0  0  0  0
  -17.5009  -31.6267   24.5170 H   0  0  0  0  0  0
  -15.5347  -30.2994   23.7644 H   0  0  0  0  0  0
  -15.8670  -28.0834   22.7044 H   0  0  0  0  0  0
  -24.5901  -30.7065   25.7793 H   0  0  0  0  0  0
  -24.8919  -32.2872   26.4909 H   0  0  0  0  0  0
  -25.8066  -30.8879   27.0225 H   0  0  0  0  0  0
  -26.2866  -29.6798   24.1161 H   0  0  0  0  0  0
  -27.4040  -29.7264   25.4605 H   0  0  0  0  0  0
  -27.8720  -30.4338   23.9317 H   0  0  0  0  0  0
  -27.2664  -33.3612   26.2088 H   0  0  0  0  0  0
  -28.3845  -32.6891   25.0311 H   0  0  0  0  0  0
  -28.0728  -31.8433   26.5392 H   0  0  0  0  0  0
  -28.2603  -38.0105   24.7507 H   0  0  0  0  0  0
  -28.1073  -36.2637   24.6296 H   0  0  0  0  0  0
  -27.2299  -37.1469   25.8867 H   0  0  0  0  0  0
  -20.9332  -29.8769   21.6930 H   0  0  0  0  0  0
  -26.0183  -38.2871   24.1399 H   0  0  0  0  0  0
  -30.0007  -18.9092   18.3559 H   0  0  0  0  0  0
  -29.4785  -23.1897   18.1634 H   0  0  0  0  0  0
  -29.5092  -20.2361   15.7665 H   0  0  0  0  0  0
  -31.1701  -20.7637   16.0664 H   0  0  0  0  0  0
  -29.9014  -21.9591   15.7761 H   0  0  0  0  0  0
  -28.6296  -19.9937   21.7569 H   0  0  0  0  0  0
  -30.3323  -19.6911   21.7507 H   0  0  0  0  0  0
  -28.4149  -17.8722   20.1829 H   0  0  0  0  0  0
  -28.5765  -17.7348   21.8995 H   0  0  0  0  0  0
  -30.2395  -24.4107   20.0398 H   0  0  0  0  0  0
  -29.5918  -24.6993   21.6144 H   0  0  0  0  0  0
  -28.0137  -22.5907   21.1630 H   0  0  0  0  0  0
  -29.6390  -22.4289   21.7549 H   0  0  0  0  0  0
  -31.0318  -17.2160   21.6910 H   0  0  0  0  0  0
  -30.8599  -17.2241   19.9540 H   0  0  0  0  0  0
  -27.2766  -24.8766   20.6548 H   0  0  0  0  0  0
  -27.9762  -24.8486   19.0474 H   0  0  0  0  0  0
  -28.9898  -15.3855   21.2427 H   0  0  0  0  0  0
  1 25  1  0  0  0
  1 30  2  0  0  0
  1 83  1  0  0  0
  2  3  1  0  0  0
  2 25  1  0  0  0
  2 84  1  0  0  0
  2 85  1  0  0  0
  3  4  1  0  0  0
  3 86  1  0  0  0
  3 87  1  0  0  0
  4  5  1  0  0  0
  4 88  1  0  0  0
  4 89  1  0  0  0
  5  6  1  0  0  0
  5 26  1  0  0  0
  5 90  1  0  0  0
  6 25  1  0  0  0
  6 91  1  0  0  0
  6 92  1  0  0  0
  7  8  2  0  0  0
  7 26  1  0  0  0
  7 29  1  0  0  0
  8  9  1  0  0  0
  8 22  1  0  0  0
  9 10  1  0  0  0
  9 27  2  0  0  0
 10 11  2  0  0  0
 10 15  1  0  0  0
 11 12  1  0  0  0
 11 93  1  0  0  0
 12 13  2  0  0  0
 12 94  1  0  0  0
 13 14  1  0  0  0
 13 31  1  0  0  0
 14 15  2  0  0  0
 14 95  1  0  0  0
 15 96  1  0  0  0
 16 17  2  0  0  0
 16 21  1  0  0  0
 16 31  1  0  0  0
 17 18  1  0  0  0
 17 97  1  0  0  0
 18 19  2  0  0  0
 18 98  1  0  0  0
 19 20  1  0  0  0
 19 24  1  0  0  0
 20 21  2  0  0  0
 20 99  1  0  0  0
 21 23  1  0  0  0
 22 28  1  0  0  0
 22 32  2  0  0  0
 26 27  1  0  0  0
 28100  1  0  0  0
 28101  1  0  0  0
 29102  1  0  0  0
 29103  1  0  0  0
 33 34  1  0  0  0
 33 66  1  0  0  0
 33 70  2  0  0  0
 34 36  1  0  0  0
 34 59  1  0  0  0
 34104  1  0  0  0
 35 44  2  0  0  0
 35 45  1  0  0  0
 35 68  1  0  0  0
 36 56  1  0  0  0
 36105  1  0  0  0
 37 39  1  0  0  0
 37 47  1  0  0  0
 37 66  1  0  0  0
 37106  1  0  0  0
 38 43  2  0  0  0
 38 46  1  0  0  0
 38 47  1  0  0  0
 39 64  1  0  0  0
 39 67  2  0  0  0
 40 52  1  0  0  0
 40 53  2  0  0  0
 40 58  1  0  0  0
 41107  1  0  0  0
 41108  1  0  0  0
 41109  1  0  0  0
 41 48  1  0  0  0
 42 43  1  0  0  0
 42 66  1  0  0  0
 42110  1  0  0  0
 42111  1  0  0  0
 43 44  1  0  0  0
 44112  1  0  0  0
 45 46  2  0  0  0
 45113  1  0  0  0
 46114  1  0  0  0
 47115  1  0  0  0
 47116  1  0  0  0
 48 56  1  0  0  0
 48 65  1  0  0  0
 48117  1  0  0  0
 49 50  1  0  0  0
 49 53  1  0  0  0
 49 64  1  0  0  0
 49118  1  0  0  0
 50 51  1  0  0  0
 50119  1  0  0  0
 50120  1  0  0  0
 51 52  1  0  0  0
 51121  1  0  0  0
 51122  1  0  0  0
 52123  1  0  0  0
 52124  1  0  0  0
 53 54  1  0  0  0
 54 55  2  0  0  0
 54125  1  0  0  0
 55 57  1  0  0  0
 55126  1  0  0  0
 56 69  2  0  0  0
 57 58  2  0  0  0
 57127  1  0  0  0
 58128  1  0  0  0
 59 60  1  0  0  0
 59 61  1  0  0  0
 59 62  1  0  0  0
 60129  1  0  0  0
 60130  1  0  0  0
 60131  1  0  0  0
 61132  1  0  0  0
 61133  1  0  0  0
 61134  1  0  0  0
 62135  1  0  0  0
 62136  1  0  0  0
 62137  1  0  0  0
 63 65  1  0  0  0
 63138  1  0  0  0
 63139  1  0  0  0
 63140  1  0  0  0
 64141  1  0  0  0
 65142  1  0  0  0
 68 81  1  0  0  0
 71 73  1  0  0  0
 71 74  2  0  0  0
 71143  1  0  0  0
 72 73  2  0  0  0
 72 82  1  0  0  0
 72144  1  0  0  0
 73 75  1  0  0  0
 74 76  1  0  0  0
 74 82  1  0  0  0
 75145  1  0  0  0
 75146  1  0  0  0
 75147  1  0  0  0
 76 77  1  0  0  0
 76148  1  0  0  0
 76149  1  0  0  0
 77 80  1  0  0  0
 77150  1  0  0  0
 77151  1  0  0  0
 78 79  1  0  0  0
 78 81  1  0  0  0
 78152  1  0  0  0
 78153  1  0  0  0
 79 82  1  0  0  0
 79154  1  0  0  0
 79155  1  0  0  0
 80 83  1  0  0  0
 80156  1  0  0  0
 80157  1  0  0  0
 81158  1  0  0  0
 81159  1  0  0  0
 83160  1  0  0  0
M  ISO  4   1 100  68 101  81 101  83 100
M  END
> <chiral flag>
0

> <version>
0

> <s_m_source_file>
/data/baiqing/PycharmProjects/Reinvent-master-3.2/result/LINK_invent/BTK/process_docking_weight1_custom_sum_contain_oxygen_bond_distance_aromatic_linkinvent_7_9_3/rearranged_h_0037.sdf

> <i_m_source_file_index>
13

> <r_mmod_Potential_Energy-OPLS-2005>
-64.7961654663086

> <r_mmod_Stretch_Energy-OPLS-2005>
51.6610565185547

> <r_mmod_Bend_Energy-OPLS-2005>
112.351043701172

> <r_mmod_Torsional_Energy-OPLS-2005>
222.783157348633

> <r_mmod_Improper_Torsional_Energy-OPLS-2005>
4.25228023529053

> <r_mmod_Van_der_Waal_Energy-OPLS-2005>
124.571975708008

> <r_mmod_Electrostatic_Energy-OPLS-2005>
-390.537658691406

> <r_mmod_Solvation_Energy-OPLS-2005>
-214.726303100586

> <b_mmod_Minimization_Converged-OPLS-2005>
0

> <r_mmod_RMS_Derivative-OPLS-2005>
0.728399038314819

$$$$
13
                    3D
 Structure written by MMmdl.
180188  0  0  1  0            999 V2000
  -30.8274  -14.2673   20.7493 C   0  0  0  0  0  0
  -30.4136  -12.2684   19.3745 C   0  0  0  0  0  0
  -29.4847  -12.5313   18.1802 C   0  0  0  0  0  0
  -28.0098  -12.3906   18.6020 C   0  0  0  0  0  0
  -27.6760  -13.1997   19.8829 C   0  0  2  0  0  0
  -28.7130  -12.9314   20.9956 C   0  0  0  0  0  0
  -25.2683  -13.8172   20.5663 C   0  0  0  0  0  0
  -24.1906  -13.0469   20.9144 C   0  0  0  0  0  0
  -24.6436  -11.6925   20.8705 C   0  0  0  0  0  0
  -23.9088  -10.4329   21.0413 C   0  0  0  0  0  0
  -24.3650   -9.4249   21.9193 C   0  0  0  0  0  0
  -23.6323   -8.2286   22.0765 C   0  0  0  0  0  0
  -22.4294   -8.0326   21.3559 C   0  0  0  0  0  0
  -21.9930   -9.0297   20.4652 C   0  0  0  0  0  0
  -22.7261  -10.2177   20.3058 C   0  0  0  0  0  0
  -21.6870   -6.0756   22.5268 C   0  0  0  0  0  0
  -21.4020   -6.5645   23.8205 C   0  0  0  0  0  0
  -21.3657   -5.6788   24.9161 C   0  0  0  0  0  0
  -21.6052   -4.3053   24.7206 C   0  0  0  0  0  0
  -21.8823   -3.8152   23.4325 C   0  0  0  0  0  0
  -21.9211   -4.6980   22.3389 C   0  0  0  0  0  0
  -22.7926  -13.5287   21.1797 C   0  0  0  0  0  0
  -22.1688   -4.2163   21.0966 F   0  0  0  0  0  0
  -21.5638   -3.4534   25.7723 F   0  0  0  0  0  0
  -30.0634  -13.1876   20.4622 N   0  0  0  0  0  0
  -26.3121  -12.9320   20.3384 N   0  0  0  0  0  0
  -25.9366  -11.6481   20.5760 N   0  0  0  0  0  0
  -22.0549  -12.8283   22.0333 N   0  0  0  0  0  0
  -25.4430  -15.1888   20.4093 N   0  0  0  0  0  0
  -31.7417  -14.6748   20.0267 O   0  0  0  0  0  0
  -21.6671   -6.8908   21.4239 O   0  0  0  0  0  0
  -22.3632  -14.5607   20.6665 O   0  0  0  0  0  0
  -24.6055  -31.8681   23.2107 C   0  0  0  0  0  0
  -25.8961  -32.4837   23.8394 C   0  0  1  0  0  0
  -27.2650  -27.4971   20.0997 C   0  0  0  0  0  0
  -25.5840  -33.8631   24.2349 N   0  0  0  0  0  0
  -23.3902  -30.4875   21.5478 C   0  0  2  0  0  0
  -24.8431  -28.9576   20.1135 C   0  0  0  0  0  0
  -22.7360  -29.4656   22.5024 C   0  0  0  0  0  0
  -18.0256  -28.1383   22.8489 C   0  0  0  0  0  0
  -24.1471  -36.7320   23.2634 C   0  0  0  0  0  0
  -25.9055  -30.8625   21.3447 C   0  0  0  0  0  0
  -25.9934  -29.5014   20.6926 C   0  0  0  0  0  0
  -27.2062  -28.7941   20.6629 C   0  0  0  0  0  0
  -26.1008  -26.9639   19.5051 C   0  0  0  0  0  0
  -24.8894  -27.6871   19.5093 C   0  0  0  0  0  0
  -23.5951  -29.8065   20.1673 C   0  0  0  0  0  0
  -25.4076  -36.3104   24.0355 C   0  0  1  0  0  0
  -20.5835  -28.3629   23.1375 C   0  0  2  0  0  0
  -20.6728  -26.9371   22.5440 C   0  0  0  0  0  0
  -19.5719  -26.6392   21.5213 C   0  0  0  0  0  0
  -18.1895  -26.7929   22.1629 C   0  0  0  0  0  0
  -19.1505  -28.8827   23.2917 C   0  0  0  0  0  0
  -18.9456  -30.1431   23.8933 C   0  0  0  0  0  0
  -17.6466  -30.6591   24.0584 C   0  0  0  0  0  0
  -25.8987  -34.9486   23.5149 C   0  0  0  0  0  0
  -16.5352  -29.9117   23.6311 C   0  0  0  0  0  0
  -16.7250  -28.6525   23.0327 C   0  0  0  0  0  0
  -26.4471  -31.6619   25.0690 C   0  0  0  0  0  0
  -25.3828  -31.3600   26.1488 C   0  0  0  0  0  0
  -27.0371  -30.3143   24.6009 C   0  0  0  0  0  0
  -27.5994  -32.4370   25.7525 C   0  0  0  0  0  0
  -27.5569  -37.1800   24.8462 C   0  0  0  0  0  0
  -21.4099  -29.3017   22.3798 N   0  0  0  0  0  0
  -26.4279  -37.3788   23.9411 N   0  0  0  0  0  0
  -24.6506  -31.0859   22.0943 N   0  0  0  0  0  0
  -23.4191  -28.8214   23.3037 O   0  0  0  0  0  0
  -28.3976  -26.7069   20.1211 O   0  0  0  0  0  0
  -26.5514  -34.8913   22.4680 O   0  0  0  0  0  0
  -23.5271  -32.1372   23.7571 O   0  0  0  0  0  0
  -31.5401  -21.5248   23.0691 C   0  0  0  0  0  0
  -29.7548  -20.8589   21.5516 C   0  0  0  0  0  0
  -31.0102  -20.6145   22.1406 C   0  0  0  0  0  0
  -30.7922  -22.6405   23.4887 C   0  0  0  0  0  0
  -29.4829  -22.8372   22.9684 C   0  0  0  0  0  0
  -28.9927  -21.9680   21.9631 C   0  0  0  0  0  0
  -31.1082  -23.1441   25.9658 C   0  0  0  0  0  0
  -28.0121  -26.8818   24.4231 C   0  0  0  0  0  0
  -30.6548  -27.4147   20.5561 C   0  0  0  0  0  0
  -31.7690  -19.3342   21.8675 C   0  0  0  0  0  0
  -31.4293  -23.5581   24.5250 C   0  0  0  0  0  0
  -28.5568  -23.9110   23.5309 C   0  0  0  0  0  0
  -31.5207  -18.3161   22.9998 C   0  0  0  0  0  0
  -30.6313  -17.1320   22.5933 C   0  0  0  0  0  0
  -31.4118  -15.8119   22.5988 C   0  0  0  0  0  0
  -27.3792  -26.0463   23.2950 C   0  0  0  0  0  0
  -29.5425  -25.6392   22.0088 C   0  0  0  0  0  0
  -29.3461  -26.9226   21.1778 C   0  0  2  0  0  0
  -30.6304  -14.7528   21.9787 N   0  0  0  0  0  0
  -28.3054  -25.0754   22.6382 N   0  3  1  0  0  0
  -27.4427  -22.2317   21.2423 Cl  0  0  0  0  0  0
  -31.4587  -12.3619   19.0726 H   0  0  0  0  0  0
  -30.2965  -11.2415   19.7222 H   0  0  0  0  0  0
  -29.7091  -11.8373   17.3685 H   0  0  0  0  0  0
  -29.6685  -13.5302   17.7818 H   0  0  0  0  0  0
  -27.8061  -11.3307   18.7629 H   0  0  0  0  0  0
  -27.3602  -12.7020   17.7856 H   0  0  0  0  0  0
  -27.7414  -14.2546   19.6207 H   0  0  0  0  0  0
  -28.6585  -11.8903   21.3172 H   0  0  0  0  0  0
  -28.4670  -13.5248   21.8775 H   0  0  0  0  0  0
  -25.2810   -9.5741   22.4744 H   0  0  0  0  0  0
  -24.0055   -7.4677   22.7469 H   0  0  0  0  0  0
  -21.0874   -8.8815   19.8941 H   0  0  0  0  0  0
  -22.3734  -10.9727   19.6167 H   0  0  0  0  0  0
  -21.1998   -7.6146   23.9705 H   0  0  0  0  0  0
  -21.1480   -6.0518   25.9064 H   0  0  0  0  0  0
  -22.0604   -2.7612   23.2817 H   0  0  0  0  0  0
  -22.4188  -11.9966   22.4750 H   0  0  0  0  0  0
  -21.1156  -13.1307   22.2493 H   0  0  0  0  0  0
  -24.6836  -15.8484   20.5354 H   0  0  0  0  0  0
  -26.3063  -15.6291   20.1149 H   0  0  0  0  0  0
  -26.7039  -32.5598   23.1169 H   0  0  0  0  0  0
  -25.0086  -33.9796   25.0558 H   0  0  0  0  0  0
  -22.6740  -31.3006   21.4037 H   0  0  0  0  0  0
  -23.3712  -35.9665   23.3308 H   0  0  0  0  0  0
  -24.3557  -36.8936   22.2052 H   0  0  0  0  0  0
  -23.7256  -37.6540   23.6655 H   0  0  0  0  0  0
  -26.0060  -31.6308   20.5785 H   0  0  0  0  0  0
  -26.7970  -30.9229   21.9562 H   0  0  0  0  0  0
  -28.0790  -29.2811   21.0729 H   0  0  0  0  0  0
  -26.1290  -25.9825   19.0533 H   0  0  0  0  0  0
  -24.0038  -27.2649   19.0548 H   0  0  0  0  0  0
  -23.6821  -30.5701   19.3938 H   0  0  0  0  0  0
  -22.7295  -29.2036   19.8860 H   0  0  0  0  0  0
  -25.1253  -36.1938   25.0856 H   0  0  0  0  0  0
  -20.9897  -28.3166   24.1510 H   0  0  0  0  0  0
  -20.5589  -26.2222   23.3608 H   0  0  0  0  0  0
  -21.6599  -26.7385   22.1252 H   0  0  0  0  0  0
  -19.6844  -25.6312   21.1210 H   0  0  0  0  0  0
  -19.6684  -27.3231   20.6761 H   0  0  0  0  0  0
  -17.4151  -26.6670   21.4048 H   0  0  0  0  0  0
  -18.0299  -26.0098   22.9053 H   0  0  0  0  0  0
  -19.7943  -30.7213   24.2327 H   0  0  0  0  0  0
  -17.5047  -31.6284   24.5174 H   0  0  0  0  0  0
  -15.5357  -30.3059   23.7631 H   0  0  0  0  0  0
  -15.8626  -28.0897   22.7008 H   0  0  0  0  0  0
  -24.5759  -30.7293   25.7766 H   0  0  0  0  0  0
  -24.9391  -32.2784   26.5372 H   0  0  0  0  0  0
  -25.8223  -30.8346   26.9971 H   0  0  0  0  0  0
  -26.2915  -29.6856   24.1114 H   0  0  0  0  0  0
  -27.4317  -29.7434   25.4425 H   0  0  0  0  0  0
  -27.8643  -30.4563   23.9071 H   0  0  0  0  0  0
  -27.2463  -33.3652   26.2036 H   0  0  0  0  0  0
  -28.3946  -32.6994   25.0530 H   0  0  0  0  0  0
  -28.0520  -31.8517   26.5538 H   0  0  0  0  0  0
  -28.2542  -38.0125   24.7461 H   0  0  0  0  0  0
  -28.1093  -36.2640   24.6297 H   0  0  0  0  0  0
  -27.2302  -37.1478   25.8869 H   0  0  0  0  0  0
  -20.9196  -29.8729   21.7061 H   0  0  0  0  0  0
  -26.0167  -38.2881   24.1320 H   0  0  0  0  0  0
  -32.5141  -21.3317   23.5006 H   0  0  0  0  0  0
  -29.3526  -20.1789   20.8156 H   0  0  0  0  0  0
  -31.5984  -23.8135   26.6728 H   0  0  0  0  0  0
  -31.4602  -22.1327   26.1665 H   0  0  0  0  0  0
  -30.0402  -23.1720   26.1770 H   0  0  0  0  0  0
  -27.2462  -27.4994   24.8866 H   0  0  0  0  0  0
  -28.7960  -27.5507   24.0731 H   0  0  0  0  0  0
  -28.4331  -26.2650   25.2156 H   0  0  0  0  0  0
  -31.4268  -27.5255   21.3188 H   0  0  0  0  0  0
  -30.5139  -28.3862   20.0817 H   0  0  0  0  0  0
  -31.0248  -26.7199   19.8023 H   0  0  0  0  0  0
  -32.8318  -19.5774   21.8182 H   0  0  0  0  0  0
  -31.5155  -18.9362   20.8825 H   0  0  0  0  0  0
  -31.1462  -24.5956   24.3599 H   0  0  0  0  0  0
  -32.5121  -23.5403   24.3873 H   0  0  0  0  0  0
  -28.9315  -24.2550   24.4897 H   0  0  0  0  0  0
  -27.6101  -23.4284   23.7757 H   0  0  0  0  0  0
  -31.0869  -18.8094   23.8725 H   0  0  0  0  0  0
  -32.4816  -17.9422   23.3587 H   0  0  0  0  0  0
  -30.1811  -17.3031   21.6138 H   0  0  0  0  0  0
  -29.7897  -17.0551   23.2841 H   0  0  0  0  0  0
  -31.6385  -15.5208   23.6246 H   0  0  0  0  0  0
  -32.3766  -15.9331   22.1001 H   0  0  0  0  0  0
  -26.9400  -26.7091   22.5565 H   0  0  0  0  0  0
  -26.5262  -25.5038   23.7046 H   0  0  0  0  0  0
  -30.2651  -25.8582   22.7917 H   0  0  0  0  0  0
  -30.0054  -24.8825   21.3755 H   0  0  0  0  0  0
  -29.0494  -27.6810   21.8923 H   0  0  0  0  0  0
  -29.9150  -14.3105   22.5371 H   0  0  0  0  0  0
  -27.7748  -24.6872   21.8687 H   0  0  0  0  0  0
  1 25  1  0  0  0
  1 30  2  0  0  0
  1 89  1  0  0  0
  2  3  1  0  0  0
  2 25  1  0  0  0
  2 92  1  0  0  0
  2 93  1  0  0  0
  3  4  1  0  0  0
  3 94  1  0  0  0
  3 95  1  0  0  0
  4  5  1  0  0  0
  4 96  1  0  0  0
  4 97  1  0  0  0
  5  6  1  0  0  0
  5 26  1  0  0  0
  5 98  1  0  0  0
  6 25  1  0  0  0
  6 99  1  0  0  0
  6100  1  0  0  0
  7  8  2  0  0  0
  7 26  1  0  0  0
  7 29  1  0  0  0
  8  9  1  0  0  0
  8 22  1  0  0  0
  9 10  1  0  0  0
  9 27  2  0  0  0
 10 11  2  0  0  0
 10 15  1  0  0  0
 11 12  1  0  0  0
 11101  1  0  0  0
 12 13  2  0  0  0
 12102  1  0  0  0
 13 14  1  0  0  0
 13 31  1  0  0  0
 14 15  2  0  0  0
 14103  1  0  0  0
 15104  1  0  0  0
 16 17  2  0  0  0
 16 21  1  0  0  0
 16 31  1  0  0  0
 17 18  1  0  0  0
 17105  1  0  0  0
 18 19  2  0  0  0
 18106  1  0  0  0
 19 20  1  0  0  0
 19 24  1  0  0  0
 20 21  2  0  0  0
 20107  1  0  0  0
 21 23  1  0  0  0
 22 28  1  0  0  0
 22 32  2  0  0  0
 26 27  1  0  0  0
 28108  1  0  0  0
 28109  1  0  0  0
 29110  1  0  0  0
 29111  1  0  0  0
 33 34  1  0  0  0
 33 66  1  0  0  0
 33 70  2  0  0  0
 34 36  1  0  0  0
 34 59  1  0  0  0
 34112  1  0  0  0
 35 44  2  0  0  0
 35 45  1  0  0  0
 35 68  1  0  0  0
 36 56  1  0  0  0
 36113  1  0  0  0
 37 39  1  0  0  0
 37 47  1  0  0  0
 37 66  1  0  0  0
 37114  1  0  0  0
 38 43  2  0  0  0
 38 46  1  0  0  0
 38 47  1  0  0  0
 39 64  1  0  0  0
 39 67  2  0  0  0
 40 52  1  0  0  0
 40 53  2  0  0  0
 40 58  1  0  0  0
 41115  1  0  0  0
 41116  1  0  0  0
 41117  1  0  0  0
 41 48  1  0  0  0
 42 43  1  0  0  0
 42 66  1  0  0  0
 42118  1  0  0  0
 42119  1  0  0  0
 43 44  1  0  0  0
 44120  1  0  0  0
 45 46  2  0  0  0
 45121  1  0  0  0
 46122  1  0  0  0
 47123  1  0  0  0
 47124  1  0  0  0
 48 56  1  0  0  0
 48 65  1  0  0  0
 48125  1  0  0  0
 49 50  1  0  0  0
 49 53  1  0  0  0
 49 64  1  0  0  0
 49126  1  0  0  0
 50 51  1  0  0  0
 50127  1  0  0  0
 50128  1  0  0  0
 51 52  1  0  0  0
 51129  1  0  0  0
 51130  1  0  0  0
 52131  1  0  0  0
 52132  1  0  0  0
 53 54  1  0  0  0
 54 55  2  0  0  0
 54133  1  0  0  0
 55 57  1  0  0  0
 55134  1  0  0  0
 56 69  2  0  0  0
 57 58  2  0  0  0
 57135  1  0  0  0
 58136  1  0  0  0
 59 60  1  0  0  0
 59 61  1  0  0  0
 59 62  1  0  0  0
 60137  1  0  0  0
 60138  1  0  0  0
 60139  1  0  0  0
 61140  1  0  0  0
 61141  1  0  0  0
 61142  1  0  0  0
 62143  1  0  0  0
 62144  1  0  0  0
 62145  1  0  0  0
 63 65  1  0  0  0
 63146  1  0  0  0
 63147  1  0  0  0
 63148  1  0  0  0
 64149  1  0  0  0
 65150  1  0  0  0
 68 88  1  0  0  0
 71 73  2  0  0  0
 71 74  1  0  0  0
 71151  1  0  0  0
 72 73  1  0  0  0
 72 76  2  0  0  0
 72152  1  0  0  0
 73 80  1  0  0  0
 74 75  2  0  0  0
 74 81  1  0  0  0
 75 76  1  0  0  0
 75 82  1  0  0  0
 76 91  1  0  0  0
 77 81  1  0  0  0
 77153  1  0  0  0
 77154  1  0  0  0
 77155  1  0  0  0
 78 86  1  0  0  0
 78156  1  0  0  0
 78157  1  0  0  0
 78158  1  0  0  0
 79159  1  0  0  0
 79160  1  0  0  0
 79161  1  0  0  0
 79 88  1  0  0  0
 80 83  1  0  0  0
 80162  1  0  0  0
 80163  1  0  0  0
 81164  1  0  0  0
 81165  1  0  0  0
 82166  1  0  0  0
 82167  1  0  0  0
 82 90  1  0  0  0
 83 84  1  0  0  0
 83168  1  0  0  0
 83169  1  0  0  0
 84 85  1  0  0  0
 84170  1  0  0  0
 84171  1  0  0  0
 85 89  1  0  0  0
 85172  1  0  0  0
 85173  1  0  0  0
 86 90  1  0  0  0
 86174  1  0  0  0
 86175  1  0  0  0
 87 88  1  0  0  0
 87 90  1  0  0  0
 87176  1  0  0  0
 87177  1  0  0  0
 88178  1  0  0  0
 89179  1  0  0  0
 90180  1  0  0  0
M  CHG  1  90   1
M  ISO  4   1 100  68 101  88 101  89 100
M  END
> <chiral flag>
0

> <version>
0

> <s_m_source_file>
/data/baiqing/PycharmProjects/Reinvent-master-3.2/result/LINK_invent/BTK/process_docking_weight1_custom_sum_contain_oxygen_bond_distance_aromatic_linkinvent_7_9_3/rearranged_h_0037.sdf

> <i_m_source_file_index>
14

> <r_mmod_Potential_Energy-OPLS-2005>
-158.854263305664

> <r_mmod_Stretch_Energy-OPLS-2005>
34.9507369995117

> <r_mmod_Bend_Energy-OPLS-2005>
106.221755981445

> <r_mmod_Torsional_Energy-OPLS-2005>
237.524459838867

> <r_mmod_Improper_Torsional_Energy-OPLS-2005>
3.89405679702759

> <r_mmod_Van_der_Waal_Energy-OPLS-2005>
158.077499389648

> <r_mmod_Electrostatic_Energy-OPLS-2005>
-332.630981445312

> <r_mmod_Solvation_Energy-OPLS-2005>
-376.171020507812

> <b_mmod_Minimization_Converged-OPLS-2005>
0

> <r_mmod_RMS_Derivative-OPLS-2005>
3.75599551200867

$$$$
14
                    3D
 Structure written by MMmdl.
159167  0  0  1  0            999 V2000
  -30.7048  -14.4654   20.5422 C   0  0  0  0  0  0
  -30.4238  -12.3044   19.3956 C   0  0  0  0  0  0
  -29.4810  -12.4805   18.1901 C   0  0  0  0  0  0
  -28.0016  -12.3691   18.6110 C   0  0  0  0  0  0
  -27.6584  -13.2142   19.8702 C   0  0  2  0  0  0
  -28.7103  -12.9977   20.9809 C   0  0  0  0  0  0
  -25.2548  -13.8182   20.5731 C   0  0  0  0  0  0
  -24.1840  -13.0445   20.9218 C   0  0  0  0  0  0
  -24.6416  -11.6933   20.8764 C   0  0  0  0  0  0
  -23.9086  -10.4312   21.0399 C   0  0  0  0  0  0
  -24.3631   -9.4235   21.9181 C   0  0  0  0  0  0
  -23.6309   -8.2267   22.0751 C   0  0  0  0  0  0
  -22.4278   -8.0299   21.3558 C   0  0  0  0  0  0
  -21.9919   -9.0280   20.4652 C   0  0  0  0  0  0
  -22.7249  -10.2162   20.3059 C   0  0  0  0  0  0
  -21.6861   -6.0760   22.5297 C   0  0  0  0  0  0
  -21.4001   -6.5653   23.8223 C   0  0  0  0  0  0
  -21.3645   -5.6806   24.9186 C   0  0  0  0  0  0
  -21.6053   -4.3072   24.7235 C   0  0  0  0  0  0
  -21.8838   -3.8172   23.4344 C   0  0  0  0  0  0
  -21.9206   -4.6991   22.3403 C   0  0  0  0  0  0
  -22.7863  -13.5214   21.1882 C   0  0  0  0  0  0
  -22.1682   -4.2197   21.0975 F   0  0  0  0  0  0
  -21.5609   -3.4531   25.7718 F   0  0  0  0  0  0
  -30.0330  -13.2937   20.4044 N   0  0  0  0  0  0
  -26.3032  -12.9416   20.3442 N   0  0  0  0  0  0
  -25.9341  -11.6560   20.5799 N   0  0  0  0  0  0
  -22.0507  -12.8231   22.0422 N   0  0  0  0  0  0
  -25.4135  -15.1913   20.4175 N   0  0  0  0  0  0
  -31.8703  -14.6395   20.1776 O   0  0  0  0  0  0
  -21.6652   -6.8901   21.4251 O   0  0  0  0  0  0
  -22.3529  -14.5501   20.6701 O   0  0  0  0  0  0
  -24.6153  -31.8641   23.2041 C   0  0  0  0  0  0
  -25.9042  -32.4811   23.8347 C   0  0  1  0  0  0
  -27.2360  -27.4164   20.0965 C   0  0  0  0  0  0
  -25.5863  -33.8610   24.2280 N   0  0  0  0  0  0
  -23.4037  -30.4806   21.5457 C   0  0  2  0  0  0
  -24.8496  -28.9430   20.1092 C   0  0  0  0  0  0
  -22.7410  -29.4613   22.4998 C   0  0  0  0  0  0
  -18.0263  -28.1349   22.8558 C   0  0  0  0  0  0
  -24.1483  -36.7338   23.2636 C   0  0  0  0  0  0
  -25.9300  -30.8217   21.3520 C   0  0  0  0  0  0
  -26.0072  -29.4511   20.7107 C   0  0  0  0  0  0
  -27.2002  -28.6943   20.7022 C   0  0  0  0  0  0
  -26.0657  -26.9310   19.4705 C   0  0  0  0  0  0
  -24.8744  -27.6825   19.4845 C   0  0  0  0  0  0
  -23.6088  -29.8072   20.1616 C   0  0  0  0  0  0
  -25.4094  -36.3111   24.0335 C   0  0  1  0  0  0
  -20.5885  -28.3561   23.1298 C   0  0  2  0  0  0
  -20.6696  -26.9314   22.5367 C   0  0  0  0  0  0
  -19.5591  -26.6312   21.5265 C   0  0  0  0  0  0
  -18.1831  -26.7860   22.1791 C   0  0  0  0  0  0
  -19.1557  -28.8808   23.2879 C   0  0  0  0  0  0
  -18.9549  -30.1447   23.8836 C   0  0  0  0  0  0
  -17.6585  -30.6631   24.0521 C   0  0  0  0  0  0
  -25.9026  -34.9472   23.5113 C   0  0  0  0  0  0
  -16.5436  -29.9129   23.6396 C   0  0  0  0  0  0
  -16.7260  -28.6503   23.0473 C   0  0  0  0  0  0
  -26.4441  -31.6600   25.0681 C   0  0  0  0  0  0
  -25.3689  -31.3730   26.1419 C   0  0  0  0  0  0
  -27.0264  -30.3051   24.6021 C   0  0  0  0  0  0
  -27.6004  -32.4305   25.7474 C   0  0  0  0  0  0
  -27.5569  -37.1817   24.8456 C   0  0  0  0  0  0
  -21.4173  -29.2857   22.3628 N   0  0  0  0  0  0
  -26.4285  -37.3779   23.9409 N   0  0  0  0  0  0
  -24.6692  -31.0694   22.0952 N   0  0  0  0  0  0
  -23.4154  -28.8307   23.3179 O   0  0  0  0  0  0
  -28.4138  -26.6962   20.1273 O   0  0  0  0  0  0
  -26.5603  -34.8941   22.4689 O   0  0  0  0  0  0
  -23.5333  -32.1451   23.7389 O   0  0  0  0  0  0
  -30.6451  -18.8296   22.3470 C   0  0  0  0  0  0
  -28.5933  -19.8810   20.7656 C   0  0  0  0  0  0
  -30.4399  -20.2293   22.3077 C   0  0  0  0  0  0
  -29.8171  -17.9319   21.6378 C   0  0  0  0  0  0
  -29.3855  -20.7710   21.5248 C   0  0  0  0  0  0
  -28.7960  -18.4829   20.8165 C   0  0  0  0  0  0
  -31.3450  -21.1000   23.1674 C   0  0  0  0  0  0
  -29.0300  -22.2674   21.5352 C   0  0  0  0  0  0
  -29.9983  -16.4224   21.9040 C   0  0  0  0  0  0
  -29.8246  -23.1263   20.5226 C   0  0  0  0  0  0
  -29.6318  -24.6631   20.6685 C   0  0  0  0  0  0
  -28.3410  -25.2615   20.0578 C   0  0  0  0  0  0
  -29.9140  -15.5234   20.7549 N   0  0  0  0  0  0
  -27.7353  -17.4837   19.8889 Cl  0  0  0  0  0  0
  -31.4600  -12.4206   19.0710 H   0  0  0  0  0  0
  -30.3352  -11.3000   19.8081 H   0  0  0  0  0  0
  -29.7043  -11.7175   17.4439 H   0  0  0  0  0  0
  -29.6548  -13.4443   17.7094 H   0  0  0  0  0  0
  -27.7931  -11.3154   18.8044 H   0  0  0  0  0  0
  -27.3540  -12.6523   17.7804 H   0  0  0  0  0  0
  -27.6963  -14.2626   19.5710 H   0  0  0  0  0  0
  -28.6840  -11.9659   21.3375 H   0  0  0  0  0  0
  -28.4892  -13.6260   21.8453 H   0  0  0  0  0  0
  -25.2787   -9.5737   22.4734 H   0  0  0  0  0  0
  -24.0055   -7.4665   22.7445 H   0  0  0  0  0  0
  -21.0866   -8.8791   19.8941 H   0  0  0  0  0  0
  -22.3702  -10.9696   19.6152 H   0  0  0  0  0  0
  -21.1965   -7.6155   23.9738 H   0  0  0  0  0  0
  -21.1429   -6.0523   25.9093 H   0  0  0  0  0  0
  -22.0615   -2.7636   23.2840 H   0  0  0  0  0  0
  -22.4119  -11.9867   22.4788 H   0  0  0  0  0  0
  -21.1107  -13.1255   22.2537 H   0  0  0  0  0  0
  -24.6409  -15.8382   20.5308 H   0  0  0  0  0  0
  -26.2873  -15.6530   20.1966 H   0  0  0  0  0  0
  -26.7111  -32.5520   23.1115 H   0  0  0  0  0  0
  -25.0004  -33.9764   25.0421 H   0  0  0  0  0  0
  -22.6939  -31.2960   21.4075 H   0  0  0  0  0  0
  -23.3723  -35.9693   23.3297 H   0  0  0  0  0  0
  -24.3573  -36.8954   22.2043 H   0  0  0  0  0  0
  -23.7266  -37.6556   23.6662 H   0  0  0  0  0  0
  -26.0142  -31.5695   20.5628 H   0  0  0  0  0  0
  -26.8311  -30.9006   21.9497 H   0  0  0  0  0  0
  -28.0916  -29.0777   21.1769 H   0  0  0  0  0  0
  -26.0627  -25.9801   18.9582 H   0  0  0  0  0  0
  -23.9924  -27.2858   18.9994 H   0  0  0  0  0  0
  -23.7092  -30.5759   19.3945 H   0  0  0  0  0  0
  -22.7359  -29.2173   19.8765 H   0  0  0  0  0  0
  -25.1274  -36.1967   25.0822 H   0  0  0  0  0  0
  -20.9998  -28.3069   24.1420 H   0  0  0  0  0  0
  -20.5718  -26.2182   23.3574 H   0  0  0  0  0  0
  -21.6497  -26.7387   22.0991 H   0  0  0  0  0  0
  -19.6446  -27.3096   20.6755 H   0  0  0  0  0  0
  -19.6677  -25.6172   21.1397 H   0  0  0  0  0  0
  -17.3998  -26.6548   21.4319 H   0  0  0  0  0  0
  -18.0366  -26.0072   22.9310 H   0  0  0  0  0  0
  -19.8077  -30.7206   24.2155 H   0  0  0  0  0  0
  -17.5221  -31.6348   24.5084 H   0  0  0  0  0  0
  -15.5457  -30.3055   23.7780 H   0  0  0  0  0  0
  -15.8591  -28.0862   22.7355 H   0  0  0  0  0  0
  -24.5860  -30.7070   25.7765 H   0  0  0  0  0  0
  -24.8886  -32.2904   26.4828 H   0  0  0  0  0  0
  -25.8012  -30.8932   27.0204 H   0  0  0  0  0  0
  -26.2796  -29.6847   24.1040 H   0  0  0  0  0  0
  -27.4032  -29.7227   25.4437 H   0  0  0  0  0  0
  -27.8623  -30.4413   23.9154 H   0  0  0  0  0  0
  -27.2613  -33.3597   26.2061 H   0  0  0  0  0  0
  -28.3829  -32.6855   25.0320 H   0  0  0  0  0  0
  -28.0654  -31.8418   26.5396 H   0  0  0  0  0  0
  -28.2580  -38.0114   24.7485 H   0  0  0  0  0  0
  -28.1068  -36.2641   24.6300 H   0  0  0  0  0  0
  -27.2295  -37.1484   25.8859 H   0  0  0  0  0  0
  -20.9455  -29.8175   21.6453 H   0  0  0  0  0  0
  -26.0170  -38.2858   24.1403 H   0  0  0  0  0  0
  -31.4242  -18.4271   22.9813 H   0  0  0  0  0  0
  -27.7808  -20.2728   20.1714 H   0  0  0  0  0  0
  -32.3299  -20.6417   23.2661 H   0  0  0  0  0  0
  -30.9240  -21.2139   24.1690 H   0  0  0  0  0  0
  -31.5047  -22.0912   22.7451 H   0  0  0  0  0  0
  -29.1694  -22.6493   22.5481 H   0  0  0  0  0  0
  -27.9623  -22.3881   21.3372 H   0  0  0  0  0  0
  -29.1959  -16.1233   22.5789 H   0  0  0  0  0  0
  -30.9324  -16.2485   22.4453 H   0  0  0  0  0  0
  -29.5926  -22.8081   19.5062 H   0  0  0  0  0  0
  -30.8891  -22.9233   20.6438 H   0  0  0  0  0  0
  -30.4741  -25.1476   20.1763 H   0  0  0  0  0  0
  -29.7131  -24.9512   21.7185 H   0  0  0  0  0  0
  -27.4655  -24.8770   20.5869 H   0  0  0  0  0  0
  -28.2575  -24.9611   19.0126 H   0  0  0  0  0  0
  -29.6370  -15.9869   19.9022 H   0  0  0  0  0  0
  1 25  1  0  0  0
  1 30  2  0  0  0
  1 83  1  0  0  0
  2  3  1  0  0  0
  2 25  1  0  0  0
  2 85  1  0  0  0
  2 86  1  0  0  0
  3  4  1  0  0  0
  3 87  1  0  0  0
  3 88  1  0  0  0
  4  5  1  0  0  0
  4 89  1  0  0  0
  4 90  1  0  0  0
  5  6  1  0  0  0
  5 26  1  0  0  0
  5 91  1  0  0  0
  6 25  1  0  0  0
  6 92  1  0  0  0
  6 93  1  0  0  0
  7  8  2  0  0  0
  7 26  1  0  0  0
  7 29  1  0  0  0
  8  9  1  0  0  0
  8 22  1  0  0  0
  9 10  1  0  0  0
  9 27  2  0  0  0
 10 11  2  0  0  0
 10 15  1  0  0  0
 11 12  1  0  0  0
 11 94  1  0  0  0
 12 13  2  0  0  0
 12 95  1  0  0  0
 13 14  1  0  0  0
 13 31  1  0  0  0
 14 15  2  0  0  0
 14 96  1  0  0  0
 15 97  1  0  0  0
 16 17  2  0  0  0
 16 21  1  0  0  0
 16 31  1  0  0  0
 17 18  1  0  0  0
 17 98  1  0  0  0
 18 19  2  0  0  0
 18 99  1  0  0  0
 19 20  1  0  0  0
 19 24  1  0  0  0
 20 21  2  0  0  0
 20100  1  0  0  0
 21 23  1  0  0  0
 22 28  1  0  0  0
 22 32  2  0  0  0
 26 27  1  0  0  0
 28101  1  0  0  0
 28102  1  0  0  0
 29103  1  0  0  0
 29104  1  0  0  0
 33 34  1  0  0  0
 33 66  1  0  0  0
 33 70  2  0  0  0
 34 36  1  0  0  0
 34 59  1  0  0  0
 34105  1  0  0  0
 35 44  2  0  0  0
 35 45  1  0  0  0
 35 68  1  0  0  0
 36 56  1  0  0  0
 36106  1  0  0  0
 37 39  1  0  0  0
 37 47  1  0  0  0
 37 66  1  0  0  0
 37107  1  0  0  0
 38 43  2  0  0  0
 38 46  1  0  0  0
 38 47  1  0  0  0
 39 64  1  0  0  0
 39 67  2  0  0  0
 40 52  1  0  0  0
 40 53  2  0  0  0
 40 58  1  0  0  0
 41108  1  0  0  0
 41109  1  0  0  0
 41110  1  0  0  0
 41 48  1  0  0  0
 42 43  1  0  0  0
 42 66  1  0  0  0
 42111  1  0  0  0
 42112  1  0  0  0
 43 44  1  0  0  0
 44113  1  0  0  0
 45 46  2  0  0  0
 45114  1  0  0  0
 46115  1  0  0  0
 47116  1  0  0  0
 47117  1  0  0  0
 48 56  1  0  0  0
 48 65  1  0  0  0
 48118  1  0  0  0
 49 50  1  0  0  0
 49 53  1  0  0  0
 49 64  1  0  0  0
 49119  1  0  0  0
 50 51  1  0  0  0
 50120  1  0  0  0
 50121  1  0  0  0
 51 52  1  0  0  0
 51122  1  0  0  0
 51123  1  0  0  0
 52124  1  0  0  0
 52125  1  0  0  0
 53 54  1  0  0  0
 54 55  2  0  0  0
 54126  1  0  0  0
 55 57  1  0  0  0
 55127  1  0  0  0
 56 69  2  0  0  0
 57 58  2  0  0  0
 57128  1  0  0  0
 58129  1  0  0  0
 59 60  1  0  0  0
 59 61  1  0  0  0
 59 62  1  0  0  0
 60130  1  0  0  0
 60131  1  0  0  0
 60132  1  0  0  0
 61133  1  0  0  0
 61134  1  0  0  0
 61135  1  0  0  0
 62136  1  0  0  0
 62137  1  0  0  0
 62138  1  0  0  0
 63 65  1  0  0  0
 63139  1  0  0  0
 63140  1  0  0  0
 63141  1  0  0  0
 64142  1  0  0  0
 65143  1  0  0  0
 68 82  1  0  0  0
 71 73  2  0  0  0
 71 74  1  0  0  0
 71144  1  0  0  0
 72 75  2  0  0  0
 72 76  1  0  0  0
 72145  1  0  0  0
 73 75  1  0  0  0
 73 77  1  0  0  0
 74 76  2  0  0  0
 74 79  1  0  0  0
 75 78  1  0  0  0
 76 84  1  0  0  0
 77146  1  0  0  0
 77147  1  0  0  0
 77148  1  0  0  0
 78 80  1  0  0  0
 78149  1  0  0  0
 78150  1  0  0  0
 79 83  1  0  0  0
 79151  1  0  0  0
 79152  1  0  0  0
 80 81  1  0  0  0
 80153  1  0  0  0
 80154  1  0  0  0
 81 82  1  0  0  0
 81155  1  0  0  0
 81156  1  0  0  0
 82157  1  0  0  0
 82158  1  0  0  0
 83159  1  0  0  0
M  ISO  4   1 100  68 101  82 101  83 100
M  END
> <chiral flag>
0

> <version>
0

> <s_m_source_file>
/data/baiqing/PycharmProjects/Reinvent-master-3.2/result/LINK_invent/BTK/process_docking_weight1_custom_sum_contain_oxygen_bond_distance_aromatic_linkinvent_7_9_3/rearranged_h_0037.sdf

> <i_m_source_file_index>
15

> <r_mmod_Potential_Energy-OPLS-2005>
-2.60680532455444

> <r_mmod_Stretch_Energy-OPLS-2005>
38.6676979064941

> <r_mmod_Bend_Energy-OPLS-2005>
101.392150878906

> <r_mmod_Torsional_Energy-OPLS-2005>
281.350036621094

> <r_mmod_Improper_Torsional_Energy-OPLS-2005>
12.3963785171509

> <r_mmod_Van_der_Waal_Energy-OPLS-2005>
144.154006958008

> <r_mmod_Electrostatic_Energy-OPLS-2005>
-406.756591796875

> <r_mmod_Solvation_Energy-OPLS-2005>
-190.843734741211

> <b_mmod_Minimization_Converged-OPLS-2005>
0

> <r_mmod_RMS_Derivative-OPLS-2005>
5.45403575897217

$$$$
15
                    3D
 Structure written by MMmdl.
165173  0  0  1  0            999 V2000
  -30.7067  -14.3866   20.6487 C   0  0  0  0  0  0
  -30.4295  -12.2765   19.4162 C   0  0  0  0  0  0
  -29.5074  -12.5318   18.2062 C   0  0  0  0  0  0
  -28.0227  -12.3935   18.6125 C   0  0  0  0  0  0
  -27.6744  -13.1946   19.8983 C   0  0  2  0  0  0
  -28.7086  -12.8947   21.0093 C   0  0  0  0  0  0
  -25.2608  -13.8126   20.5726 C   0  0  0  0  0  0
  -24.1849  -13.0456   20.9196 C   0  0  0  0  0  0
  -24.6357  -11.6906   20.8720 C   0  0  0  0  0  0
  -23.9025  -10.4304   21.0409 C   0  0  0  0  0  0
  -24.3581   -9.4237   21.9198 C   0  0  0  0  0  0
  -23.6268   -8.2254   22.0741 C   0  0  0  0  0  0
  -22.4250   -8.0270   21.3543 C   0  0  0  0  0  0
  -21.9877   -9.0251   20.4653 C   0  0  0  0  0  0
  -22.7185  -10.2147   20.3077 C   0  0  0  0  0  0
  -21.6821   -6.0730   22.5282 C   0  0  0  0  0  0
  -21.4014   -6.5632   23.8219 C   0  0  0  0  0  0
  -21.3683   -5.6781   24.9185 C   0  0  0  0  0  0
  -21.6037   -4.3038   24.7222 C   0  0  0  0  0  0
  -21.8809   -3.8147   23.4343 C   0  0  0  0  0  0
  -21.9187   -4.6958   22.3397 C   0  0  0  0  0  0
  -22.7857  -13.5291   21.1875 C   0  0  0  0  0  0
  -22.1639   -4.2157   21.0972 F   0  0  0  0  0  0
  -21.5655   -3.4520   25.7738 F   0  0  0  0  0  0
  -30.0458  -13.2154   20.4769 N   0  0  0  0  0  0
  -26.3062  -12.9283   20.3454 N   0  0  0  0  0  0
  -25.9284  -11.6470   20.5753 N   0  0  0  0  0  0
  -22.0455  -12.8305   22.0413 N   0  0  0  0  0  0
  -25.4402  -15.1855   20.4160 N   0  0  0  0  0  0
  -31.7908  -14.6489   20.1132 O   0  0  0  0  0  0
  -21.6620   -6.8870   21.4239 O   0  0  0  0  0  0
  -22.3593  -14.5627   20.6720 O   0  0  0  0  0  0
  -24.6129  -31.8757   23.2166 C   0  0  0  0  0  0
  -25.9053  -32.4875   23.8433 C   0  0  1  0  0  0
  -27.2243  -27.4429   20.0668 C   0  0  0  0  0  0
  -25.5917  -33.8681   24.2363 N   0  0  0  0  0  0
  -23.3965  -30.4968   21.5665 C   0  0  2  0  0  0
  -24.8356  -28.9486   20.1412 C   0  0  0  0  0  0
  -22.7391  -29.4719   22.5161 C   0  0  0  0  0  0
  -18.0252  -28.1349   22.8507 C   0  0  0  0  0  0
  -24.1476  -36.7310   23.2646 C   0  0  0  0  0  0
  -25.9270  -30.8282   21.3749 C   0  0  0  0  0  0
  -26.0004  -29.4550   20.7368 C   0  0  0  0  0  0
  -27.2009  -28.7019   20.7170 C   0  0  0  0  0  0
  -26.0425  -26.9495   19.4860 C   0  0  0  0  0  0
  -24.8467  -27.6873   19.5220 C   0  0  0  0  0  0
  -23.6038  -29.8263   20.1837 C   0  0  0  0  0  0
  -25.4095  -36.3163   24.0363 C   0  0  1  0  0  0
  -20.5841  -28.3642   23.1344 C   0  0  2  0  0  0
  -20.6731  -26.9391   22.5412 C   0  0  0  0  0  0
  -19.5714  -26.6366   21.5209 C   0  0  0  0  0  0
  -18.1896  -26.7885   22.1633 C   0  0  0  0  0  0
  -19.1503  -28.8809   23.2918 C   0  0  0  0  0  0
  -18.9450  -30.1416   23.8924 C   0  0  0  0  0  0
  -17.6458  -30.6573   24.0544 C   0  0  0  0  0  0
  -25.9026  -34.9527   23.5156 C   0  0  0  0  0  0
  -16.5343  -29.9078   23.6319 C   0  0  0  0  0  0
  -16.7246  -28.6481   23.0371 C   0  0  0  0  0  0
  -26.4453  -31.6625   25.0747 C   0  0  0  0  0  0
  -25.3701  -31.3715   26.1477 C   0  0  0  0  0  0
  -27.0275  -30.3084   24.6079 C   0  0  0  0  0  0
  -27.6045  -32.4317   25.7480 C   0  0  0  0  0  0
  -27.5585  -37.1813   24.8485 C   0  0  0  0  0  0
  -21.4135  -29.3046   22.3834 N   0  0  0  0  0  0
  -26.4291  -37.3835   23.9435 N   0  0  0  0  0  0
  -24.6637  -31.0828   22.1104 N   0  0  0  0  0  0
  -23.4179  -28.8271   23.3196 O   0  0  0  0  0  0
  -28.3390  -26.6614   19.8535 O   0  0  0  0  0  0
  -26.5590  -34.8976   22.4724 O   0  0  0  0  0  0
  -23.5327  -32.1551   23.7585 O   0  0  0  0  0  0
  -28.9696  -21.3845   20.7472 C   0  0  0  0  0  0
  -30.1492  -22.3266   18.8577 C   0  0  0  0  0  0
  -29.6243  -21.2020   19.5220 C   0  0  0  0  0  0
  -28.9014  -22.6550   21.3513 C   0  0  0  0  0  0
  -30.0602  -23.6221   19.4273 C   0  0  0  0  0  0
  -29.4247  -23.8139   20.7003 C   0  0  0  0  0  0
  -28.3377  -22.6966   22.7651 C   0  0  0  0  0  0
  -29.7817  -19.7876   18.9778 C   0  0  0  0  0  0
  -29.3504  -25.1545   21.4886 C   0  0  0  0  0  0
  -30.7285  -24.7289   18.6296 C   0  0  0  0  0  0
  -30.4938  -18.8446   19.9805 C   0  0  0  0  0  0
  -29.8076  -17.4763   20.1719 C   0  0  0  0  0  0
  -30.3412  -16.7224   21.4117 C   0  0  0  0  0  0
  -29.3773  -26.5481   20.8125 C   0  0  0  0  0  0
  -30.0343  -15.2983   21.3609 N   0  0  0  0  0  0
  -31.9091  -25.0489   19.1642 F   0  0  0  0  0  0
  -31.4786  -12.3767   19.1335 H   0  0  0  0  0  0
  -30.3086  -11.2505   19.7695 H   0  0  0  0  0  0
  -29.7579  -11.8372   17.4029 H   0  0  0  0  0  0
  -29.6918  -13.5310   17.8106 H   0  0  0  0  0  0
  -27.8207  -11.3320   18.7686 H   0  0  0  0  0  0
  -27.3755  -12.7093   17.7953 H   0  0  0  0  0  0
  -27.7449  -14.2575   19.6583 H   0  0  0  0  0  0
  -28.6775  -11.8352   21.2726 H   0  0  0  0  0  0
  -28.4717  -13.4139   21.9376 H   0  0  0  0  0  0
  -25.2739   -9.5712   22.4763 H   0  0  0  0  0  0
  -23.9996   -7.4646   22.7437 H   0  0  0  0  0  0
  -21.0814   -8.8769   19.8944 H   0  0  0  0  0  0
  -22.3650  -10.9685   19.6184 H   0  0  0  0  0  0
  -21.1987   -7.6143   23.9733 H   0  0  0  0  0  0
  -21.1525   -6.0507   25.9091 H   0  0  0  0  0  0
  -22.0565   -2.7606   23.2829 H   0  0  0  0  0  0
  -22.3994  -11.9981   22.4879 H   0  0  0  0  0  0
  -21.1064  -13.1409   22.2557 H   0  0  0  0  0  0
  -24.6831  -15.8497   20.5288 H   0  0  0  0  0  0
  -26.3027  -15.6210   20.1104 H   0  0  0  0  0  0
  -26.7134  -32.5605   23.1205 H   0  0  0  0  0  0
  -25.0069  -33.9831   25.0508 H   0  0  0  0  0  0
  -22.6842  -31.3131   21.4326 H   0  0  0  0  0  0
  -23.3774  -35.9606   23.3319 H   0  0  0  0  0  0
  -24.3579  -36.8898   22.2057 H   0  0  0  0  0  0
  -23.7153  -37.6497   23.6620 H   0  0  0  0  0  0
  -26.0333  -31.5870   20.5998 H   0  0  0  0  0  0
  -26.8184  -30.8918   21.9862 H   0  0  0  0  0  0
  -28.0987  -29.1079   21.1606 H   0  0  0  0  0  0
  -26.0628  -25.9921   18.9870 H   0  0  0  0  0  0
  -23.9534  -27.2867   19.0639 H   0  0  0  0  0  0
  -23.7286  -30.6008   19.4281 H   0  0  0  0  0  0
  -22.7182  -29.2636   19.8846 H   0  0  0  0  0  0
  -25.1254  -36.2031   25.0847 H   0  0  0  0  0  0
  -20.9908  -28.3164   24.1484 H   0  0  0  0  0  0
  -20.5596  -26.2281   23.3619 H   0  0  0  0  0  0
  -21.6603  -26.7406   22.1235 H   0  0  0  0  0  0
  -19.6870  -25.6288   21.1235 H   0  0  0  0  0  0
  -19.6599  -27.3179   20.6742 H   0  0  0  0  0  0
  -17.4153  -26.6657   21.4045 H   0  0  0  0  0  0
  -18.0287  -25.9995   22.9000 H   0  0  0  0  0  0
  -19.7937  -30.7200   24.2326 H   0  0  0  0  0  0
  -17.5027  -31.6259   24.5142 H   0  0  0  0  0  0
  -15.5355  -30.2997   23.7609 H   0  0  0  0  0  0
  -15.8647  -28.0788   22.7110 H   0  0  0  0  0  0
  -24.5895  -30.7036   25.7809 H   0  0  0  0  0  0
  -24.8853  -32.2859   26.4909 H   0  0  0  0  0  0
  -25.8045  -30.8902   27.0244 H   0  0  0  0  0  0
  -26.2822  -29.6863   24.1118 H   0  0  0  0  0  0
  -27.4060  -29.7284   25.4500 H   0  0  0  0  0  0
  -27.8635  -30.4443   23.9219 H   0  0  0  0  0  0
  -27.2706  -33.3634   26.2046 H   0  0  0  0  0  0
  -28.3827  -32.6839   25.0270 H   0  0  0  0  0  0
  -28.0715  -31.8435   26.5380 H   0  0  0  0  0  0
  -28.2627  -38.0096   24.7562 H   0  0  0  0  0  0
  -28.1064  -36.2644   24.6262 H   0  0  0  0  0  0
  -27.2340  -37.1398   25.8901 H   0  0  0  0  0  0
  -20.9340  -29.8847   21.7104 H   0  0  0  0  0  0
  -26.0210  -38.2931   24.1422 H   0  0  0  0  0  0
  -28.5717  -20.5152   21.2587 H   0  0  0  0  0  0
  -30.6565  -22.1890   17.9113 H   0  0  0  0  0  0
  -28.0604  -21.7015   23.1187 H   0  0  0  0  0  0
  -27.4408  -23.3096   22.8284 H   0  0  0  0  0  0
  -29.0884  -23.0702   23.4651 H   0  0  0  0  0  0
  -30.3178  -19.8071   18.0272 H   0  0  0  0  0  0
  -28.7831  -19.4158   18.7443 H   0  0  0  0  0  0
  -30.1263  -25.1278   22.2515 H   0  0  0  0  0  0
  -28.4124  -25.1531   22.0355 H   0  0  0  0  0  0
  -30.1124  -25.6134   18.5109 H   0  0  0  0  0  0
  -30.9307  -24.3876   17.6171 H   0  0  0  0  0  0
  -31.5190  -18.6780   19.6405 H   0  0  0  0  0  0
  -30.5940  -19.3256   20.9565 H   0  0  0  0  0  0
  -29.9647  -16.8879   19.2665 H   0  0  0  0  0  0
  -28.7234  -17.5947   20.2691 H   0  0  0  0  0  0
  -29.8929  -17.1399   22.3160 H   0  0  0  0  0  0
  -31.4188  -16.8572   21.5121 H   0  0  0  0  0  0
  -30.3327  -26.7270   20.3292 H   0  0  0  0  0  0
  -29.3217  -27.3178   21.5796 H   0  0  0  0  0  0
  -29.1811  -14.9854   21.8046 H   0  0  0  0  0  0
  1 25  1  0  0  0
  1 30  2  0  0  0
  1 85  1  0  0  0
  2  3  1  0  0  0
  2 25  1  0  0  0
  2 87  1  0  0  0
  2 88  1  0  0  0
  3  4  1  0  0  0
  3 89  1  0  0  0
  3 90  1  0  0  0
  4  5  1  0  0  0
  4 91  1  0  0  0
  4 92  1  0  0  0
  5  6  1  0  0  0
  5 26  1  0  0  0
  5 93  1  0  0  0
  6 25  1  0  0  0
  6 94  1  0  0  0
  6 95  1  0  0  0
  7  8  2  0  0  0
  7 26  1  0  0  0
  7 29  1  0  0  0
  8  9  1  0  0  0
  8 22  1  0  0  0
  9 10  1  0  0  0
  9 27  2  0  0  0
 10 11  2  0  0  0
 10 15  1  0  0  0
 11 12  1  0  0  0
 11 96  1  0  0  0
 12 13  2  0  0  0
 12 97  1  0  0  0
 13 14  1  0  0  0
 13 31  1  0  0  0
 14 15  2  0  0  0
 14 98  1  0  0  0
 15 99  1  0  0  0
 16 17  2  0  0  0
 16 21  1  0  0  0
 16 31  1  0  0  0
 17 18  1  0  0  0
 17100  1  0  0  0
 18 19  2  0  0  0
 18101  1  0  0  0
 19 20  1  0  0  0
 19 24  1  0  0  0
 20 21  2  0  0  0
 20102  1  0  0  0
 21 23  1  0  0  0
 22 28  1  0  0  0
 22 32  2  0  0  0
 26 27  1  0  0  0
 28103  1  0  0  0
 28104  1  0  0  0
 29105  1  0  0  0
 29106  1  0  0  0
 33 34  1  0  0  0
 33 66  1  0  0  0
 33 70  2  0  0  0
 34 36  1  0  0  0
 34 59  1  0  0  0
 34107  1  0  0  0
 35 44  2  0  0  0
 35 45  1  0  0  0
 35 68  1  0  0  0
 36 56  1  0  0  0
 36108  1  0  0  0
 37 39  1  0  0  0
 37 47  1  0  0  0
 37 66  1  0  0  0
 37109  1  0  0  0
 38 43  2  0  0  0
 38 46  1  0  0  0
 38 47  1  0  0  0
 39 64  1  0  0  0
 39 67  2  0  0  0
 40 52  1  0  0  0
 40 53  2  0  0  0
 40 58  1  0  0  0
 41110  1  0  0  0
 41111  1  0  0  0
 41112  1  0  0  0
 41 48  1  0  0  0
 42 43  1  0  0  0
 42 66  1  0  0  0
 42113  1  0  0  0
 42114  1  0  0  0
 43 44  1  0  0  0
 44115  1  0  0  0
 45 46  2  0  0  0
 45116  1  0  0  0
 46117  1  0  0  0
 47118  1  0  0  0
 47119  1  0  0  0
 48 56  1  0  0  0
 48 65  1  0  0  0
 48120  1  0  0  0
 49 50  1  0  0  0
 49 53  1  0  0  0
 49 64  1  0  0  0
 49121  1  0  0  0
 50 51  1  0  0  0
 50122  1  0  0  0
 50123  1  0  0  0
 51 52  1  0  0  0
 51124  1  0  0  0
 51125  1  0  0  0
 52126  1  0  0  0
 52127  1  0  0  0
 53 54  1  0  0  0
 54 55  2  0  0  0
 54128  1  0  0  0
 55 57  1  0  0  0
 55129  1  0  0  0
 56 69  2  0  0  0
 57 58  2  0  0  0
 57130  1  0  0  0
 58131  1  0  0  0
 59 60  1  0  0  0
 59 61  1  0  0  0
 59 62  1  0  0  0
 60132  1  0  0  0
 60133  1  0  0  0
 60134  1  0  0  0
 61135  1  0  0  0
 61136  1  0  0  0
 61137  1  0  0  0
 62138  1  0  0  0
 62139  1  0  0  0
 62140  1  0  0  0
 63 65  1  0  0  0
 63141  1  0  0  0
 63142  1  0  0  0
 63143  1  0  0  0
 64144  1  0  0  0
 65145  1  0  0  0
 68 84  1  0  0  0
 71 73  2  0  0  0
 71 74  1  0  0  0
 71146  1  0  0  0
 72 73  1  0  0  0
 72 75  2  0  0  0
 72147  1  0  0  0
 73 78  1  0  0  0
 74 76  2  0  0  0
 74 77  1  0  0  0
 75 76  1  0  0  0
 75 80  1  0  0  0
 76 79  1  0  0  0
 77148  1  0  0  0
 77149  1  0  0  0
 77150  1  0  0  0
 78 81  1  0  0  0
 78151  1  0  0  0
 78152  1  0  0  0
 79 84  1  0  0  0
 79153  1  0  0  0
 79154  1  0  0  0
 80 86  1  0  0  0
 80155  1  0  0  0
 80156  1  0  0  0
 81 82  1  0  0  0
 81157  1  0  0  0
 81158  1  0  0  0
 82 83  1  0  0  0
 82159  1  0  0  0
 82160  1  0  0  0
 83 85  1  0  0  0
 83161  1  0  0  0
 83162  1  0  0  0
 84163  1  0  0  0
 84164  1  0  0  0
 85165  1  0  0  0
M  ISO  4   1 100  68 101  84 101  85 100
M  END
> <chiral flag>
0

> <version>
0

> <s_m_source_file>
/data/baiqing/PycharmProjects/Reinvent-master-3.2/result/LINK_invent/BTK/process_docking_weight1_custom_sum_contain_oxygen_bond_distance_aromatic_linkinvent_7_9_3/rearranged_h_0037.sdf

> <i_m_source_file_index>
16

> <r_mmod_Potential_Energy-OPLS-2005>
-23.1787643432617

> <r_mmod_Stretch_Energy-OPLS-2005>
39.7715644836426

> <r_mmod_Bend_Energy-OPLS-2005>
128.183227539062

> <r_mmod_Torsional_Energy-OPLS-2005>
207.829330444336

> <r_mmod_Improper_Torsional_Energy-OPLS-2005>
3.75292801856995

> <r_mmod_Van_der_Waal_Energy-OPLS-2005>
162.117599487305

> <r_mmod_Electrostatic_Energy-OPLS-2005>
-372.928192138672

> <r_mmod_Solvation_Energy-OPLS-2005>
-204.603485107422

> <b_mmod_Minimization_Converged-OPLS-2005>
0

> <r_mmod_RMS_Derivative-OPLS-2005>
6.32322263717651

$$$$
16
                    3D
 Structure written by MMmdl.
151159  0  0  1  0            999 V2000
  -30.6311  -14.7645   20.4368 C   0  0  0  0  0  0
  -30.4298  -12.4661   19.4812 C   0  0  0  0  0  0
  -29.5147  -12.4955   18.2385 C   0  0  0  0  0  0
  -28.0374  -12.3378   18.6494 C   0  0  0  0  0  0
  -27.6398  -13.2450   19.8468 C   0  0  2  0  0  0
  -28.6866  -13.2103   20.9820 C   0  0  0  0  0  0
  -25.2478  -13.8213   20.5667 C   0  0  0  0  0  0
  -24.1807  -13.0448   20.9208 C   0  0  0  0  0  0
  -24.6432  -11.6929   20.8775 C   0  0  0  0  0  0
  -23.9114  -10.4296   21.0442 C   0  0  0  0  0  0
  -24.3628   -9.4195   21.9213 C   0  0  0  0  0  0
  -23.6302   -8.2223   22.0759 C   0  0  0  0  0  0
  -22.4294   -8.0276   21.3561 C   0  0  0  0  0  0
  -21.9938   -9.0261   20.4660 C   0  0  0  0  0  0
  -22.7260  -10.2131   20.3097 C   0  0  0  0  0  0
  -21.6838   -6.0738   22.5296 C   0  0  0  0  0  0
  -21.3987   -6.5635   23.8223 C   0  0  0  0  0  0
  -21.3666   -5.6780   24.9186 C   0  0  0  0  0  0
  -21.6056   -4.3052   24.7222 C   0  0  0  0  0  0
  -21.8825   -3.8149   23.4337 C   0  0  0  0  0  0
  -21.9166   -4.6968   22.3399 C   0  0  0  0  0  0
  -22.7809  -13.5202   21.1864 C   0  0  0  0  0  0
  -22.1665   -4.2172   21.0976 F   0  0  0  0  0  0
  -21.5638   -3.4524   25.7726 F   0  0  0  0  0  0
  -29.9847  -13.5508   20.3878 N   0  0  0  0  0  0
  -26.2963  -12.9478   20.3320 N   0  0  0  0  0  0
  -25.9381  -11.6590   20.5791 N   0  0  0  0  0  0
  -22.0442  -12.8211   22.0403 N   0  0  0  0  0  0
  -25.4025  -15.1961   20.3962 N   0  0  0  0  0  0
  -31.8282  -14.8255   20.1432 O   0  0  0  0  0  0
  -21.6635   -6.8888   21.4265 O   0  0  0  0  0  0
  -22.3490  -14.5501   20.6685 O   0  0  0  0  0  0
  -24.6266  -31.8573   23.1977 C   0  0  0  0  0  0
  -25.9098  -32.4777   23.8317 C   0  0  1  0  0  0
  -27.2364  -27.2908   20.1195 C   0  0  0  0  0  0
  -25.5917  -33.8584   24.2241 N   0  0  0  0  0  0
  -23.4239  -30.4760   21.5406 C   0  0  2  0  0  0
  -24.8718  -28.9188   20.1125 C   0  0  0  0  0  0
  -22.7463  -29.4623   22.4929 C   0  0  0  0  0  0
  -18.0270  -28.1362   22.8512 C   0  0  0  0  0  0
  -24.1490  -36.7297   23.2629 C   0  0  0  0  0  0
  -25.9645  -30.7780   21.3719 C   0  0  0  0  0  0
  -26.0380  -29.4017   20.7141 C   0  0  0  0  0  0
  -27.2191  -28.6008   20.7056 C   0  0  0  0  0  0
  -26.0438  -26.8550   19.5065 C   0  0  0  0  0  0
  -24.8775  -27.6520   19.5008 C   0  0  0  0  0  0
  -23.6373  -29.7989   20.1595 C   0  0  0  0  0  0
  -25.4110  -36.3087   24.0316 C   0  0  1  0  0  0
  -20.5875  -28.3685   23.1248 C   0  0  2  0  0  0
  -20.6767  -26.9415   22.5350 C   0  0  0  0  0  0
  -19.5715  -26.6364   21.5187 C   0  0  0  0  0  0
  -18.1914  -26.7897   22.1645 C   0  0  0  0  0  0
  -19.1534  -28.8841   23.2880 C   0  0  0  0  0  0
  -18.9460  -30.1439   23.8883 C   0  0  0  0  0  0
  -17.6464  -30.6588   24.0551 C   0  0  0  0  0  0
  -25.9050  -34.9462   23.5077 C   0  0  0  0  0  0
  -16.5352  -29.9086   23.6347 C   0  0  0  0  0  0
  -16.7264  -28.6486   23.0400 C   0  0  0  0  0  0
  -26.4472  -31.6630   25.0725 C   0  0  0  0  0  0
  -25.3706  -31.3820   26.1469 C   0  0  0  0  0  0
  -27.0331  -30.3033   24.6253 C   0  0  0  0  0  0
  -27.6008  -32.4415   25.7493 C   0  0  0  0  0  0
  -27.5597  -37.1754   24.8423 C   0  0  0  0  0  0
  -21.4175  -29.3061   22.3665 N   0  0  0  0  0  0
  -26.4271  -37.3795   23.9436 N   0  0  0  0  0  0
  -24.6911  -31.0555   22.0927 N   0  0  0  0  0  0
  -23.4163  -28.8146   23.3030 O   0  0  0  0  0  0
  -28.3739  -26.4621   20.2051 O   0  0  0  0  0  0
  -26.5631  -34.8946   22.4650 O   0  0  0  0  0  0
  -23.5417  -32.1377   23.7276 O   0  0  0  0  0  0
  -29.9460  -19.9593   19.9130 C   0  0  0  0  0  0
  -27.9646  -20.3578   20.8436 C   0  0  0  0  0  0
  -29.5721  -18.7129   20.4290 C   0  0  0  0  0  0
  -28.3133  -19.0328   21.0414 C   0  0  0  0  0  0
  -30.4230  -17.3563   20.3407 C   0  0  0  0  0  0
  -28.4151  -23.7029   20.3027 C   0  0  0  0  0  0
  -29.0189  -22.4013   19.5504 C   0  0  0  0  0  0
  -28.5283  -25.1308   19.5408 C   0  0  0  0  0  0
  -28.9799  -20.9833   20.1288 N   0  0  0  0  0  0
  -29.9019  -15.9382   20.5779 N   0  0  0  0  0  0
  -27.3444  -17.9057   21.9247 Cl  0  0  0  0  0  0
  -31.4750  -12.5752   19.1822 H   0  0  0  0  0  0
  -30.3627  -11.5065   19.9957 H   0  0  0  0  0  0
  -29.7967  -11.6971   17.5529 H   0  0  0  0  0  0
  -29.6592  -13.4327   17.6951 H   0  0  0  0  0  0
  -27.8828  -11.2899   18.9097 H   0  0  0  0  0  0
  -27.3882  -12.5383   17.7968 H   0  0  0  0  0  0
  -27.6240  -14.2627   19.4558 H   0  0  0  0  0  0
  -28.7334  -12.2300   21.4552 H   0  0  0  0  0  0
  -28.4232  -13.9201   21.7696 H   0  0  0  0  0  0
  -25.2764   -9.5620   22.4809 H   0  0  0  0  0  0
  -23.9986   -7.4584   22.7472 H   0  0  0  0  0  0
  -21.0863   -8.8774   19.8957 H   0  0  0  0  0  0
  -22.3737  -10.9672   19.6205 H   0  0  0  0  0  0
  -21.1987   -7.6140   23.9742 H   0  0  0  0  0  0
  -21.1492   -6.0506   25.9087 H   0  0  0  0  0  0
  -22.0593   -2.7615   23.2825 H   0  0  0  0  0  0
  -22.3978  -11.9852   22.4836 H   0  0  0  0  0  0
  -21.1075  -13.1324   22.2576 H   0  0  0  0  0  0
  -24.6061  -15.8204   20.4589 H   0  0  0  0  0  0
  -26.2428  -15.6689   20.0920 H   0  0  0  0  0  0
  -26.7182  -32.5419   23.1079 H   0  0  0  0  0  0
  -25.0101  -33.9743   25.0409 H   0  0  0  0  0  0
  -22.7217  -31.2964   21.3885 H   0  0  0  0  0  0
  -23.3774  -35.9603   23.3254 H   0  0  0  0  0  0
  -24.3595  -36.8980   22.2055 H   0  0  0  0  0  0
  -23.7211  -37.6460   23.6702 H   0  0  0  0  0  0
  -26.1012  -31.5383   20.6019 H   0  0  0  0  0  0
  -26.8420  -30.8245   22.0055 H   0  0  0  0  0  0
  -28.1138  -28.9761   21.1815 H   0  0  0  0  0  0
  -25.9803  -25.8737   19.0597 H   0  0  0  0  0  0
  -23.9782  -27.2673   19.0437 H   0  0  0  0  0  0
  -23.7492  -30.5697   19.3958 H   0  0  0  0  0  0
  -22.7592  -29.2234   19.8642 H   0  0  0  0  0  0
  -25.1288  -36.1908   25.0799 H   0  0  0  0  0  0
  -20.9981  -28.3227   24.1369 H   0  0  0  0  0  0
  -20.5702  -26.2289   23.3550 H   0  0  0  0  0  0
  -21.6617  -26.7463   22.1100 H   0  0  0  0  0  0
  -19.6880  -25.6267   21.1239 H   0  0  0  0  0  0
  -19.6605  -27.3150   20.6695 H   0  0  0  0  0  0
  -17.4155  -26.6627   21.4086 H   0  0  0  0  0  0
  -18.0367  -26.0016   22.9029 H   0  0  0  0  0  0
  -19.7933  -30.7261   24.2246 H   0  0  0  0  0  0
  -17.5025  -31.6281   24.5118 H   0  0  0  0  0  0
  -15.5361  -30.3001   23.7665 H   0  0  0  0  0  0
  -15.8650  -28.0792   22.7181 H   0  0  0  0  0  0
  -24.5760  -30.7334   25.7779 H   0  0  0  0  0  0
  -24.9045  -32.3036   26.4972 H   0  0  0  0  0  0
  -25.7982  -30.8872   27.0200 H   0  0  0  0  0  0
  -26.2928  -29.6767   24.1262 H   0  0  0  0  0  0
  -27.3979  -29.7331   25.4807 H   0  0  0  0  0  0
  -27.8837  -30.4309   23.9553 H   0  0  0  0  0  0
  -27.2563  -33.3679   26.2125 H   0  0  0  0  0  0
  -28.3773  -32.7069   25.0305 H   0  0  0  0  0  0
  -28.0767  -31.8548   26.5369 H   0  0  0  0  0  0
  -28.2505  -38.0153   24.7637 H   0  0  0  0  0  0
  -28.1211  -36.2696   24.6051 H   0  0  0  0  0  0
  -27.2358  -37.1179   25.8825 H   0  0  0  0  0  0
  -20.9347  -29.8819   21.6901 H   0  0  0  0  0  0
  -26.0148  -38.2851   24.1516 H   0  0  0  0  0  0
  -30.8465  -20.2162   19.3648 H   0  0  0  0  0  0
  -27.0736  -20.9048   21.1366 H   0  0  0  0  0  0
  -31.2850  -17.4916   20.9967 H   0  0  0  0  0  0
  -30.8493  -17.3575   19.3347 H   0  0  0  0  0  0
  -28.8997  -23.7943   21.2739 H   0  0  0  0  0  0
  -27.3613  -23.5220   20.5103 H   0  0  0  0  0  0
  -30.0655  -22.6138   19.3291 H   0  0  0  0  0  0
  -28.5397  -22.3460   18.5702 H   0  0  0  0  0  0
  -27.9560  -25.1022   18.6159 H   0  0  0  0  0  0
  -29.5598  -25.1802   19.1901 H   0  0  0  0  0  0
  -28.9161  -15.8464   20.7631 H   0  0  0  0  0  0
  1 25  1  0  0  0
  1 30  2  0  0  0
  1 80  1  0  0  0
  2  3  1  0  0  0
  2 25  1  0  0  0
  2 82  1  0  0  0
  2 83  1  0  0  0
  3  4  1  0  0  0
  3 84  1  0  0  0
  3 85  1  0  0  0
  4  5  1  0  0  0
  4 86  1  0  0  0
  4 87  1  0  0  0
  5  6  1  0  0  0
  5 26  1  0  0  0
  5 88  1  0  0  0
  6 25  1  0  0  0
  6 89  1  0  0  0
  6 90  1  0  0  0
  7  8  2  0  0  0
  7 26  1  0  0  0
  7 29  1  0  0  0
  8  9  1  0  0  0
  8 22  1  0  0  0
  9 10  1  0  0  0
  9 27  2  0  0  0
 10 11  2  0  0  0
 10 15  1  0  0  0
 11 12  1  0  0  0
 11 91  1  0  0  0
 12 13  2  0  0  0
 12 92  1  0  0  0
 13 14  1  0  0  0
 13 31  1  0  0  0
 14 15  2  0  0  0
 14 93  1  0  0  0
 15 94  1  0  0  0
 16 17  2  0  0  0
 16 21  1  0  0  0
 16 31  1  0  0  0
 17 18  1  0  0  0
 17 95  1  0  0  0
 18 19  2  0  0  0
 18 96  1  0  0  0
 19 20  1  0  0  0
 19 24  1  0  0  0
 20 21  2  0  0  0
 20 97  1  0  0  0
 21 23  1  0  0  0
 22 28  1  0  0  0
 22 32  2  0  0  0
 26 27  1  0  0  0
 28 98  1  0  0  0
 28 99  1  0  0  0
 29100  1  0  0  0
 29101  1  0  0  0
 33 34  1  0  0  0
 33 66  1  0  0  0
 33 70  2  0  0  0
 34 36  1  0  0  0
 34 59  1  0  0  0
 34102  1  0  0  0
 35 44  2  0  0  0
 35 45  1  0  0  0
 35 68  1  0  0  0
 36 56  1  0  0  0
 36103  1  0  0  0
 37 39  1  0  0  0
 37 47  1  0  0  0
 37 66  1  0  0  0
 37104  1  0  0  0
 38 43  2  0  0  0
 38 46  1  0  0  0
 38 47  1  0  0  0
 39 64  1  0  0  0
 39 67  2  0  0  0
 40 52  1  0  0  0
 40 53  2  0  0  0
 40 58  1  0  0  0
 41105  1  0  0  0
 41106  1  0  0  0
 41107  1  0  0  0
 41 48  1  0  0  0
 42 43  1  0  0  0
 42 66  1  0  0  0
 42108  1  0  0  0
 42109  1  0  0  0
 43 44  1  0  0  0
 44110  1  0  0  0
 45 46  2  0  0  0
 45111  1  0  0  0
 46112  1  0  0  0
 47113  1  0  0  0
 47114  1  0  0  0
 48 56  1  0  0  0
 48 65  1  0  0  0
 48115  1  0  0  0
 49 50  1  0  0  0
 49 53  1  0  0  0
 49 64  1  0  0  0
 49116  1  0  0  0
 50 51  1  0  0  0
 50117  1  0  0  0
 50118  1  0  0  0
 51 52  1  0  0  0
 51119  1  0  0  0
 51120  1  0  0  0
 52121  1  0  0  0
 52122  1  0  0  0
 53 54  1  0  0  0
 54 55  2  0  0  0
 54123  1  0  0  0
 55 57  1  0  0  0
 55124  1  0  0  0
 56 69  2  0  0  0
 57 58  2  0  0  0
 57125  1  0  0  0
 58126  1  0  0  0
 59 60  1  0  0  0
 59 61  1  0  0  0
 59 62  1  0  0  0
 60127  1  0  0  0
 60128  1  0  0  0
 60129  1  0  0  0
 61130  1  0  0  0
 61131  1  0  0  0
 61132  1  0  0  0
 62133  1  0  0  0
 62134  1  0  0  0
 62135  1  0  0  0
 63 65  1  0  0  0
 63136  1  0  0  0
 63137  1  0  0  0
 63138  1  0  0  0
 64139  1  0  0  0
 65140  1  0  0  0
 68 78  1  0  0  0
 71 73  2  0  0  0
 71 79  1  0  0  0
 71141  1  0  0  0
 72 74  2  0  0  0
 72 79  1  0  0  0
 72142  1  0  0  0
 73 74  1  0  0  0
 73 75  1  0  0  0
 74 81  1  0  0  0
 75 80  1  0  0  0
 75143  1  0  0  0
 75144  1  0  0  0
 76 77  1  0  0  0
 76 78  1  0  0  0
 76145  1  0  0  0
 76146  1  0  0  0
 77 79  1  0  0  0
 77147  1  0  0  0
 77148  1  0  0  0
 78149  1  0  0  0
 78150  1  0  0  0
 80151  1  0  0  0
M  ISO  4   1 100  68 101  78 101  80 100
M  END
> <chiral flag>
0

> <version>
0

> <s_m_source_file>
/data/baiqing/PycharmProjects/Reinvent-master-3.2/result/LINK_invent/BTK/process_docking_weight1_custom_sum_contain_oxygen_bond_distance_aromatic_linkinvent_7_9_3/rearranged_h_0037.sdf

> <i_m_source_file_index>
17

> <r_mmod_Potential_Energy-OPLS-2005>
109.037910461426

> <r_mmod_Stretch_Energy-OPLS-2005>
115.109436035156

> <r_mmod_Bend_Energy-OPLS-2005>
193.025344848633

> <r_mmod_Torsional_Energy-OPLS-2005>
207.614028930664

> <r_mmod_Improper_Torsional_Energy-OPLS-2005>
5.99743938446045

> <r_mmod_Van_der_Waal_Energy-OPLS-2005>
108.479515075684

> <r_mmod_Electrostatic_Energy-OPLS-2005>
-396.913330078125

> <r_mmod_Solvation_Energy-OPLS-2005>
-207.377426147461

> <b_mmod_Minimization_Converged-OPLS-2005>
0

> <r_mmod_RMS_Derivative-OPLS-2005>
5.62761783599854

$$$$
17
                    3D
 Structure written by MMmdl.
159167  0  0  1  0            999 V2000
  -30.7956  -14.3702   20.6734 C   0  0  0  0  0  0
  -30.4090  -12.2962   19.3901 C   0  0  0  0  0  0
  -29.4787  -12.5212   18.1856 C   0  0  0  0  0  0
  -28.0048  -12.3797   18.6069 C   0  0  0  0  0  0
  -27.6638  -13.2077   19.8742 C   0  0  2  0  0  0
  -28.7060  -12.9747   20.9904 C   0  0  0  0  0  0
  -25.2591  -13.8163   20.5661 C   0  0  0  0  0  0
  -24.1847  -13.0446   20.9152 C   0  0  0  0  0  0
  -24.6404  -11.6908   20.8720 C   0  0  0  0  0  0
  -23.9071  -10.4303   21.0396 C   0  0  0  0  0  0
  -24.3619   -9.4221   21.9183 C   0  0  0  0  0  0
  -23.6293   -8.2255   22.0765 C   0  0  0  0  0  0
  -22.4278   -8.0282   21.3553 C   0  0  0  0  0  0
  -21.9919   -9.0244   20.4647 C   0  0  0  0  0  0
  -22.7237  -10.2129   20.3048 C   0  0  0  0  0  0
  -21.6848   -6.0736   22.5280 C   0  0  0  0  0  0
  -21.4008   -6.5632   23.8212 C   0  0  0  0  0  0
  -21.3655   -5.6795   24.9177 C   0  0  0  0  0  0
  -21.6039   -4.3050   24.7238 C   0  0  0  0  0  0
  -21.8824   -3.8146   23.4360 C   0  0  0  0  0  0
  -21.9193   -4.6961   22.3409 C   0  0  0  0  0  0
  -22.7872  -13.5239   21.1820 C   0  0  0  0  0  0
  -22.1663   -4.2152   21.0984 F   0  0  0  0  0  0
  -21.5629   -3.4536   25.7757 F   0  0  0  0  0  0
  -30.0465  -13.2591   20.4425 N   0  0  0  0  0  0
  -26.3042  -12.9341   20.3366 N   0  0  0  0  0  0
  -25.9330  -11.6503   20.5741 N   0  0  0  0  0  0
  -22.0523  -12.8222   22.0371 N   0  0  0  0  0  0
  -25.4291  -15.1889   20.4082 N   0  0  0  0  0  0
  -31.8308  -14.6233   20.0504 O   0  0  0  0  0  0
  -21.6633   -6.8878   21.4246 O   0  0  0  0  0  0
  -22.3568  -14.5554   20.6674 O   0  0  0  0  0  0
  -24.6201  -31.8709   23.2200 C   0  0  0  0  0  0
  -25.9106  -32.4832   23.8477 C   0  0  1  0  0  0
  -27.2166  -27.4238   20.0638 C   0  0  0  0  0  0
  -25.6006  -33.8637   24.2401 N   0  0  0  0  0  0
  -23.4050  -30.5074   21.5581 C   0  0  2  0  0  0
  -24.8439  -28.9912   20.1132 C   0  0  0  0  0  0
  -22.7420  -29.4727   22.4957 C   0  0  0  0  0  0
  -18.0299  -28.1386   22.8489 C   0  0  0  0  0  0
  -24.1493  -36.7272   23.2642 C   0  0  0  0  0  0
  -25.9448  -30.8246   21.3886 C   0  0  0  0  0  0
  -26.0130  -29.4673   20.7204 C   0  0  0  0  0  0
  -27.1986  -28.6885   20.7053 C   0  0  0  0  0  0
  -26.0227  -27.0064   19.4140 C   0  0  0  0  0  0
  -24.8439  -27.7561   19.4635 C   0  0  0  0  0  0
  -23.6129  -29.8619   20.1677 C   0  0  0  0  0  0
  -25.4125  -36.3103   24.0345 C   0  0  1  0  0  0
  -20.5895  -28.3714   23.1265 C   0  0  2  0  0  0
  -20.6789  -26.9442   22.5396 C   0  0  0  0  0  0
  -19.5754  -26.6393   21.5214 C   0  0  0  0  0  0
  -18.1919  -26.7955   22.1586 C   0  0  0  0  0  0
  -19.1548  -28.8861   23.2876 C   0  0  0  0  0  0
  -18.9466  -30.1466   23.8890 C   0  0  0  0  0  0
  -17.6470  -30.6596   24.0577 C   0  0  0  0  0  0
  -25.9052  -34.9469   23.5137 C   0  0  0  0  0  0
  -16.5369  -29.9091   23.6345 C   0  0  0  0  0  0
  -16.7292  -28.6503   23.0383 C   0  0  0  0  0  0
  -26.4530  -31.6615   25.0803 C   0  0  0  0  0  0
  -25.3766  -31.3648   26.1505 C   0  0  0  0  0  0
  -27.0457  -30.3087   24.6217 C   0  0  0  0  0  0
  -27.6068  -32.4399   25.7567 C   0  0  0  0  0  0
  -27.5585  -37.1791   24.8477 C   0  0  0  0  0  0
  -21.4154  -29.3080   22.3661 N   0  0  0  0  0  0
  -26.4308  -37.3783   23.9403 N   0  0  0  0  0  0
  -24.6734  -31.0816   22.1108 N   0  0  0  0  0  0
  -23.4170  -28.8247   23.2996 O   0  0  0  0  0  0
  -28.3549  -26.6216   20.0966 O   0  0  0  0  0  0
  -26.5526  -34.8900   22.4648 O   0  0  0  0  0  0
  -23.5397  -32.1511   23.7578 O   0  0  0  0  0  0
  -28.6671  -23.0274   20.6578 C   0  0  0  0  0  0
  -29.0925  -24.1775   19.9393 C   0  0  0  0  0  0
  -29.5965  -22.0662   20.3933 C   0  0  0  0  0  0
  -31.7884  -22.1383   19.0510 C   0  0  0  0  0  0
  -28.1713  -25.3024   19.5395 C   0  0  0  0  0  0
  -29.4513  -20.6014   20.7186 C   0  0  0  0  0  0
  -30.7049  -19.7364   20.9272 C   0  0  0  0  0  0
  -30.3309  -18.3334   21.4567 C   0  0  0  0  0  0
  -31.5495  -17.4206   21.6550 C   0  0  0  0  0  0
  -31.2455  -16.1038   22.4050 C   0  0  0  0  0  0
  -30.2844  -23.9913   19.3884 N   0  0  0  0  0  0
  -30.5868  -22.6904   19.6437 N   0  0  0  0  0  0
  -30.3942  -15.1478   21.6887 N   0  0  0  0  0  0
  -31.4515  -12.3850   19.0805 H   0  0  0  0  0  0
  -30.3035  -11.2781   19.7694 H   0  0  0  0  0  0
  -29.7109  -11.8085   17.3931 H   0  0  0  0  0  0
  -29.6498  -13.5131   17.7643 H   0  0  0  0  0  0
  -27.8116  -11.3218   18.7898 H   0  0  0  0  0  0
  -27.3511  -12.6708   17.7831 H   0  0  0  0  0  0
  -27.7140  -14.2595   19.5909 H   0  0  0  0  0  0
  -28.6712  -11.9385   21.3304 H   0  0  0  0  0  0
  -28.4572  -13.5768   21.8649 H   0  0  0  0  0  0
  -25.2765   -9.5693   22.4751 H   0  0  0  0  0  0
  -23.9996   -7.4659   22.7496 H   0  0  0  0  0  0
  -21.0852   -8.8755   19.8950 H   0  0  0  0  0  0
  -22.3691  -10.9662   19.6149 H   0  0  0  0  0  0
  -21.1998   -7.6134   23.9717 H   0  0  0  0  0  0
  -21.1459   -6.0521   25.9086 H   0  0  0  0  0  0
  -22.0598   -2.7614   23.2855 H   0  0  0  0  0  0
  -22.4145  -11.9885   22.4763 H   0  0  0  0  0  0
  -21.1135  -13.1235   22.2577 H   0  0  0  0  0  0
  -24.6608  -15.8421   20.5154 H   0  0  0  0  0  0
  -26.2914  -15.6325   20.1167 H   0  0  0  0  0  0
  -26.7172  -32.5509   23.1224 H   0  0  0  0  0  0
  -25.0394  -33.9824   25.0708 H   0  0  0  0  0  0
  -22.6973  -31.3284   21.4285 H   0  0  0  0  0  0
  -23.3790  -35.9564   23.3305 H   0  0  0  0  0  0
  -24.3586  -36.8917   22.2057 H   0  0  0  0  0  0
  -23.7211  -37.6453   23.6672 H   0  0  0  0  0  0
  -26.0935  -31.5992   20.6356 H   0  0  0  0  0  0
  -26.8198  -30.8496   22.0260 H   0  0  0  0  0  0
  -28.0915  -29.0495   21.1971 H   0  0  0  0  0  0
  -25.9349  -26.1010   18.8347 H   0  0  0  0  0  0
  -23.9526  -27.3869   18.9743 H   0  0  0  0  0  0
  -23.7333  -30.6480   19.4216 H   0  0  0  0  0  0
  -22.7325  -29.2956   19.8594 H   0  0  0  0  0  0
  -25.1314  -36.1972   25.0846 H   0  0  0  0  0  0
  -21.0011  -28.3315   24.1374 H   0  0  0  0  0  0
  -20.5752  -26.2323   23.3597 H   0  0  0  0  0  0
  -21.6650  -26.7489   22.1174 H   0  0  0  0  0  0
  -19.6916  -25.6298   21.1260 H   0  0  0  0  0  0
  -19.6715  -27.3173   20.6721 H   0  0  0  0  0  0
  -17.4225  -26.6806   21.3928 H   0  0  0  0  0  0
  -18.0239  -26.0063   22.8942 H   0  0  0  0  0  0
  -19.7931  -30.7292   24.2246 H   0  0  0  0  0  0
  -17.5028  -31.6268   24.5204 H   0  0  0  0  0  0
  -15.5380  -30.3003   23.7668 H   0  0  0  0  0  0
  -15.8687  -28.0832   22.7119 H   0  0  0  0  0  0
  -24.6177  -30.6710   25.7876 H   0  0  0  0  0  0
  -24.8629  -32.2713   26.4704 H   0  0  0  0  0  0
  -25.8159  -30.9115   27.0397 H   0  0  0  0  0  0
  -26.3051  -29.6751   24.1320 H   0  0  0  0  0  0
  -27.4331  -29.7425   25.4693 H   0  0  0  0  0  0
  -27.8827  -30.4481   23.9369 H   0  0  0  0  0  0
  -27.2696  -33.3779   26.1992 H   0  0  0  0  0  0
  -28.3921  -32.6850   25.0402 H   0  0  0  0  0  0
  -28.0669  -31.8619   26.5592 H   0  0  0  0  0  0
  -28.2594  -38.0093   24.7565 H   0  0  0  0  0  0
  -28.1111  -36.2627   24.6321 H   0  0  0  0  0  0
  -27.2272  -37.1467   25.8870 H   0  0  0  0  0  0
  -20.9317  -29.8819   21.6899 H   0  0  0  0  0  0
  -26.0208  -38.2866   24.1418 H   0  0  0  0  0  0
  -27.7166  -22.8746   21.1510 H   0  0  0  0  0  0
  -31.5324  -21.2883   18.4191 H   0  0  0  0  0  0
  -32.4702  -21.8107   19.8363 H   0  0  0  0  0  0
  -32.2923  -22.8852   18.4350 H   0  0  0  0  0  0
  -27.2039  -24.9110   19.8531 H   0  0  0  0  0  0
  -28.1428  -25.3853   18.4521 H   0  0  0  0  0  0
  -28.8398  -20.1375   19.9431 H   0  0  0  0  0  0
  -28.8504  -20.5350   21.6265 H   0  0  0  0  0  0
  -31.3788  -20.2263   21.6305 H   0  0  0  0  0  0
  -31.2476  -19.6300   19.9900 H   0  0  0  0  0  0
  -29.6305  -17.8526   20.7723 H   0  0  0  0  0  0
  -29.8032  -18.4397   22.4054 H   0  0  0  0  0  0
  -32.2958  -17.9658   22.2352 H   0  0  0  0  0  0
  -32.0212  -17.2149   20.6931 H   0  0  0  0  0  0
  -30.7742  -16.3288   23.3620 H   0  0  0  0  0  0
  -32.1867  -15.6088   22.6509 H   0  0  0  0  0  0
  -29.5170  -14.8988   22.1222 H   0  0  0  0  0  0
  1 25  1  0  0  0
  1 30  2  0  0  0
  1 83  1  0  0  0
  2  3  1  0  0  0
  2 25  1  0  0  0
  2 84  1  0  0  0
  2 85  1  0  0  0
  3  4  1  0  0  0
  3 86  1  0  0  0
  3 87  1  0  0  0
  4  5  1  0  0  0
  4 88  1  0  0  0
  4 89  1  0  0  0
  5  6  1  0  0  0
  5 26  1  0  0  0
  5 90  1  0  0  0
  6 25  1  0  0  0
  6 91  1  0  0  0
  6 92  1  0  0  0
  7  8  2  0  0  0
  7 26  1  0  0  0
  7 29  1  0  0  0
  8  9  1  0  0  0
  8 22  1  0  0  0
  9 10  1  0  0  0
  9 27  2  0  0  0
 10 11  2  0  0  0
 10 15  1  0  0  0
 11 12  1  0  0  0
 11 93  1  0  0  0
 12 13  2  0  0  0
 12 94  1  0  0  0
 13 14  1  0  0  0
 13 31  1  0  0  0
 14 15  2  0  0  0
 14 95  1  0  0  0
 15 96  1  0  0  0
 16 17  2  0  0  0
 16 21  1  0  0  0
 16 31  1  0  0  0
 17 18  1  0  0  0
 17 97  1  0  0  0
 18 19  2  0  0  0
 18 98  1  0  0  0
 19 20  1  0  0  0
 19 24  1  0  0  0
 20 21  2  0  0  0
 20 99  1  0  0  0
 21 23  1  0  0  0
 22 28  1  0  0  0
 22 32  2  0  0  0
 26 27  1  0  0  0
 28100  1  0  0  0
 28101  1  0  0  0
 29102  1  0  0  0
 29103  1  0  0  0
 33 34  1  0  0  0
 33 66  1  0  0  0
 33 70  2  0  0  0
 34 36  1  0  0  0
 34 59  1  0  0  0
 34104  1  0  0  0
 35 44  2  0  0  0
 35 45  1  0  0  0
 35 68  1  0  0  0
 36 56  1  0  0  0
 36105  1  0  0  0
 37 39  1  0  0  0
 37 47  1  0  0  0
 37 66  1  0  0  0
 37106  1  0  0  0
 38 43  2  0  0  0
 38 46  1  0  0  0
 38 47  1  0  0  0
 39 64  1  0  0  0
 39 67  2  0  0  0
 40 52  1  0  0  0
 40 53  2  0  0  0
 40 58  1  0  0  0
 41107  1  0  0  0
 41108  1  0  0  0
 41109  1  0  0  0
 41 48  1  0  0  0
 42 43  1  0  0  0
 42 66  1  0  0  0
 42110  1  0  0  0
 42111  1  0  0  0
 43 44  1  0  0  0
 44112  1  0  0  0
 45 46  2  0  0  0
 45113  1  0  0  0
 46114  1  0  0  0
 47115  1  0  0  0
 47116  1  0  0  0
 48 56  1  0  0  0
 48 65  1  0  0  0
 48117  1  0  0  0
 49 50  1  0  0  0
 49 53  1  0  0  0
 49 64  1  0  0  0
 49118  1  0  0  0
 50 51  1  0  0  0
 50119  1  0  0  0
 50120  1  0  0  0
 51 52  1  0  0  0
 51121  1  0  0  0
 51122  1  0  0  0
 52123  1  0  0  0
 52124  1  0  0  0
 53 54  1  0  0  0
 54 55  2  0  0  0
 54125  1  0  0  0
 55 57  1  0  0  0
 55126  1  0  0  0
 56 69  2  0  0  0
 57 58  2  0  0  0
 57127  1  0  0  0
 58128  1  0  0  0
 59 60  1  0  0  0
 59 61  1  0  0  0
 59 62  1  0  0  0
 60129  1  0  0  0
 60130  1  0  0  0
 60131  1  0  0  0
 61132  1  0  0  0
 61133  1  0  0  0
 61134  1  0  0  0
 62135  1  0  0  0
 62136  1  0  0  0
 62137  1  0  0  0
 63 65  1  0  0  0
 63138  1  0  0  0
 63139  1  0  0  0
 63140  1  0  0  0
 64141  1  0  0  0
 65142  1  0  0  0
 68 75  1  0  0  0
 71 72  1  0  0  0
 71 73  2  0  0  0
 71143  1  0  0  0
 72 75  1  0  0  0
 72 81  2  0  0  0
 73 76  1  0  0  0
 73 82  1  0  0  0
 74 82  1  0  0  0
 74144  1  0  0  0
 74145  1  0  0  0
 74146  1  0  0  0
 75147  1  0  0  0
 75148  1  0  0  0
 76 77  1  0  0  0
 76149  1  0  0  0
 76150  1  0  0  0
 77 78  1  0  0  0
 77151  1  0  0  0
 77152  1  0  0  0
 78 79  1  0  0  0
 78153  1  0  0  0
 78154  1  0  0  0
 79 80  1  0  0  0
 79155  1  0  0  0
 79156  1  0  0  0
 80 83  1  0  0  0
 80157  1  0  0  0
 80158  1  0  0  0
 81 82  1  0  0  0
 83159  1  0  0  0
M  ISO  4   1 100  68 101  75 101  83 100
M  END
> <chiral flag>
0

> <version>
0

> <s_m_source_file>
/data/baiqing/PycharmProjects/Reinvent-master-3.2/result/LINK_invent/BTK/process_docking_weight1_custom_sum_contain_oxygen_bond_distance_aromatic_linkinvent_7_9_3/rearranged_h_0037.sdf

> <i_m_source_file_index>
18

> <r_mmod_Potential_Energy-OPLS-2005>
-46.942798614502

> <r_mmod_Stretch_Energy-OPLS-2005>
35.1118240356445

> <r_mmod_Bend_Energy-OPLS-2005>
115.749954223633

> <r_mmod_Torsional_Energy-OPLS-2005>
215.833450317383

> <r_mmod_Improper_Torsional_Energy-OPLS-2005>
5.9497275352478

> <r_mmod_Van_der_Waal_Energy-OPLS-2005>
148.117828369141

> <r_mmod_Electrostatic_Energy-OPLS-2005>
-356.644897460938

> <r_mmod_Solvation_Energy-OPLS-2005>
-225.385345458984

> <b_mmod_Minimization_Converged-OPLS-2005>
0

> <r_mmod_RMS_Derivative-OPLS-2005>
2.71086239814758

$$$$
18
                    3D
 Structure written by MMmdl.
171179  0  0  1  0            999 V2000
  -30.7773  -14.3704   20.6433 C   0  0  0  0  0  0
  -30.4095  -12.2718   19.4090 C   0  0  0  0  0  0
  -29.4864  -12.5234   18.2013 C   0  0  0  0  0  0
  -28.0093  -12.3889   18.6154 C   0  0  0  0  0  0
  -27.6698  -13.2092   19.8883 C   0  0  2  0  0  0
  -28.7107  -12.9625   21.0057 C   0  0  0  0  0  0
  -25.2606  -13.8163   20.5697 C   0  0  0  0  0  0
  -24.1863  -13.0459   20.9168 C   0  0  0  0  0  0
  -24.6407  -11.6908   20.8718 C   0  0  0  0  0  0
  -23.9072  -10.4309   21.0397 C   0  0  0  0  0  0
  -24.3618   -9.4218   21.9178 C   0  0  0  0  0  0
  -23.6297   -8.2246   22.0746 C   0  0  0  0  0  0
  -22.4271   -8.0289   21.3547 C   0  0  0  0  0  0
  -21.9916   -9.0261   20.4641 C   0  0  0  0  0  0
  -22.7240  -10.2146   20.3055 C   0  0  0  0  0  0
  -21.6856   -6.0739   22.5273 C   0  0  0  0  0  0
  -21.4016   -6.5639   23.8213 C   0  0  0  0  0  0
  -21.3663   -5.6794   24.9173 C   0  0  0  0  0  0
  -21.6041   -4.3054   24.7225 C   0  0  0  0  0  0
  -21.8821   -3.8151   23.4344 C   0  0  0  0  0  0
  -21.9195   -4.6964   22.3403 C   0  0  0  0  0  0
  -22.7882  -13.5252   21.1847 C   0  0  0  0  0  0
  -22.1663   -4.2152   21.0978 F   0  0  0  0  0  0
  -21.5630   -3.4539   25.7737 F   0  0  0  0  0  0
  -30.0544  -13.2349   20.4623 N   0  0  0  0  0  0
  -26.3075  -12.9352   20.3430 N   0  0  0  0  0  0
  -25.9346  -11.6505   20.5790 N   0  0  0  0  0  0
  -22.0519  -12.8241   22.0371 N   0  0  0  0  0  0
  -25.4353  -15.1898   20.4112 N   0  0  0  0  0  0
  -31.8126  -14.6147   20.0158 O   0  0  0  0  0  0
  -21.6639   -6.8878   21.4238 O   0  0  0  0  0  0
  -22.3557  -14.5558   20.6678 O   0  0  0  0  0  0
  -24.6127  -31.8722   23.2189 C   0  0  0  0  0  0
  -25.9023  -32.4879   23.8458 C   0  0  1  0  0  0
  -27.2225  -27.4488   20.0893 C   0  0  0  0  0  0
  -25.5887  -33.8654   24.2402 N   0  0  0  0  0  0
  -23.4057  -30.4927   21.5560 C   0  0  2  0  0  0
  -24.8539  -28.9834   20.1031 C   0  0  0  0  0  0
  -22.7419  -29.4629   22.4973 C   0  0  0  0  0  0
  -18.0291  -28.1358   22.8507 C   0  0  0  0  0  0
  -24.1478  -36.7333   23.2641 C   0  0  0  0  0  0
  -25.9319  -30.8415   21.3772 C   0  0  0  0  0  0
  -26.0119  -29.4818   20.7157 C   0  0  0  0  0  0
  -27.1990  -28.7136   20.7197 C   0  0  0  0  0  0
  -26.0694  -27.0026   19.4137 C   0  0  0  0  0  0
  -24.8765  -27.7407   19.4497 C   0  0  0  0  0  0
  -23.6156  -29.8432   20.1646 C   0  0  0  0  0  0
  -25.4101  -36.3149   24.0357 C   0  0  1  0  0  0
  -20.5876  -28.3631   23.1323 C   0  0  2  0  0  0
  -20.6765  -26.9357   22.5420 C   0  0  0  0  0  0
  -19.5742  -26.6354   21.5224 C   0  0  0  0  0  0
  -18.1924  -26.7906   22.1631 C   0  0  0  0  0  0
  -19.1538  -28.8809   23.2922 C   0  0  0  0  0  0
  -18.9453  -30.1414   23.8937 C   0  0  0  0  0  0
  -17.6451  -30.6562   24.0554 C   0  0  0  0  0  0
  -25.9009  -34.9498   23.5176 C   0  0  0  0  0  0
  -16.5345  -29.9059   23.6310 C   0  0  0  0  0  0
  -16.7278  -28.6475   23.0345 C   0  0  0  0  0  0
  -26.4462  -31.6622   25.0748 C   0  0  0  0  0  0
  -25.3740  -31.3705   26.1503 C   0  0  0  0  0  0
  -27.0271  -30.3067   24.6093 C   0  0  0  0  0  0
  -27.6056  -32.4312   25.7511 C   0  0  0  0  0  0
  -27.5588  -37.1811   24.8457 C   0  0  0  0  0  0
  -21.4132  -29.3026   22.3731 N   0  0  0  0  0  0
  -26.4307  -37.3823   23.9404 N   0  0  0  0  0  0
  -24.6678  -31.0812   22.1114 N   0  0  0  0  0  0
  -23.4190  -28.8157   23.2999 O   0  0  0  0  0  0
  -28.3306  -26.6349   20.1536 O   0  0  0  0  0  0
  -26.5562  -34.8934   22.4728 O   0  0  0  0  0  0
  -23.5308  -32.1442   23.7560 O   0  0  0  0  0  0
  -25.3568  -22.5854   19.4807 C   0  0  0  0  0  0
  -25.9159  -24.3884   21.0006 C   0  0  0  0  0  0
  -24.9665  -23.5015   20.4648 C   0  0  0  0  0  0
  -26.6971  -22.5123   19.0612 C   0  0  0  0  0  0
  -27.2596  -24.3805   20.5594 C   0  0  0  0  0  0
  -27.6805  -23.3629   19.6491 C   0  0  0  0  0  0
  -23.5155  -23.5679   20.8923 C   0  0  0  0  0  0
  -27.0039  -21.5196   17.9475 C   0  0  0  0  0  0
  -29.1676  -23.1393   19.3442 C   0  0  0  0  0  0
  -28.1746  -25.5180   21.0607 C   0  0  0  0  0  0
  -29.7053  -21.7913   19.8909 C   0  0  0  0  0  0
  -29.5952  -21.5775   21.4202 C   0  0  0  0  0  0
  -29.1590  -20.1498   21.8165 C   0  0  0  0  0  0
  -30.2399  -19.0716   21.6071 C   0  0  0  0  0  0
  -29.6985  -17.6374   21.7776 C   0  0  0  0  0  0
  -30.8233  -16.5910   21.7492 C   0  0  0  0  0  0
  -30.2958  -15.2401   21.5419 N   0  0  0  0  0  0
  -31.4569  -12.3423   19.1098 H   0  0  0  0  0  0
  -30.2796  -11.2539   19.7807 H   0  0  0  0  0  0
  -29.7162  -11.8216   17.3979 H   0  0  0  0  0  0
  -29.6691  -13.5221   17.7980 H   0  0  0  0  0  0
  -27.8098  -11.3308   18.7901 H   0  0  0  0  0  0
  -27.3602  -12.6895   17.7913 H   0  0  0  0  0  0
  -27.7252  -14.2629   19.6138 H   0  0  0  0  0  0
  -28.6636  -11.9273   21.3440 H   0  0  0  0  0  0
  -28.4694  -13.5608   21.8836 H   0  0  0  0  0  0
  -25.2769   -9.5689   22.4748 H   0  0  0  0  0  0
  -24.0006   -7.4642   22.7473 H   0  0  0  0  0  0
  -21.0841   -8.8783   19.8954 H   0  0  0  0  0  0
  -22.3699  -10.9680   19.6162 H   0  0  0  0  0  0
  -21.2007   -7.6148   23.9715 H   0  0  0  0  0  0
  -21.1481   -6.0523   25.9078 H   0  0  0  0  0  0
  -22.0597   -2.7611   23.2845 H   0  0  0  0  0  0
  -22.4127  -11.9899   22.4768 H   0  0  0  0  0  0
  -21.1142  -13.1263   22.2597 H   0  0  0  0  0  0
  -24.6733  -15.8500   20.5222 H   0  0  0  0  0  0
  -26.3009  -15.6261   20.1196 H   0  0  0  0  0  0
  -26.7080  -32.5615   23.1229 H   0  0  0  0  0  0
  -25.0062  -33.9819   25.0563 H   0  0  0  0  0  0
  -22.6956  -31.3102   21.4231 H   0  0  0  0  0  0
  -23.3755  -35.9644   23.3316 H   0  0  0  0  0  0
  -24.3583  -36.8928   22.2054 H   0  0  0  0  0  0
  -23.7190  -37.6525   23.6630 H   0  0  0  0  0  0
  -26.0389  -31.6102   20.6126 H   0  0  0  0  0  0
  -26.8228  -30.8963   21.9925 H   0  0  0  0  0  0
  -28.0856  -29.0797   21.2174 H   0  0  0  0  0  0
  -26.0795  -26.0670   18.8749 H   0  0  0  0  0  0
  -23.9930  -27.3529   18.9591 H   0  0  0  0  0  0
  -23.7297  -30.6285   19.4156 H   0  0  0  0  0  0
  -22.7379  -29.2684   19.8643 H   0  0  0  0  0  0
  -25.1257  -36.2057   25.0847 H   0  0  0  0  0  0
  -20.9985  -28.3191   24.1433 H   0  0  0  0  0  0
  -20.5654  -26.2221   23.3590 H   0  0  0  0  0  0
  -21.6624  -26.7371   22.1212 H   0  0  0  0  0  0
  -19.6874  -25.6276   21.1233 H   0  0  0  0  0  0
  -19.6692  -27.3175   20.6772 H   0  0  0  0  0  0
  -17.4178  -26.6679   21.4036 H   0  0  0  0  0  0
  -18.0298  -26.0035   22.9020 H   0  0  0  0  0  0
  -19.7927  -30.7216   24.2313 H   0  0  0  0  0  0
  -17.5012  -31.6256   24.5139 H   0  0  0  0  0  0
  -15.5343  -30.2974   23.7617 H   0  0  0  0  0  0
  -15.8683  -28.0812   22.7040 H   0  0  0  0  0  0
  -24.5914  -30.7046   25.7857 H   0  0  0  0  0  0
  -24.8904  -32.2829   26.4980 H   0  0  0  0  0  0
  -25.8080  -30.8862   27.0258 H   0  0  0  0  0  0
  -26.2812  -29.6853   24.1134 H   0  0  0  0  0  0
  -27.4022  -29.7276   25.4535 H   0  0  0  0  0  0
  -27.8642  -30.4397   23.9249 H   0  0  0  0  0  0
  -27.2726  -33.3608   26.2136 H   0  0  0  0  0  0
  -28.3852  -32.6872   25.0335 H   0  0  0  0  0  0
  -28.0744  -31.8397   26.5380 H   0  0  0  0  0  0
  -28.2605  -38.0116   24.7538 H   0  0  0  0  0  0
  -28.1080  -36.2632   24.6261 H   0  0  0  0  0  0
  -27.2291  -37.1465   25.8859 H   0  0  0  0  0  0
  -20.9237  -29.8833   21.7066 H   0  0  0  0  0  0
  -26.0209  -38.2899   24.1428 H   0  0  0  0  0  0
  -24.6144  -21.9288   19.0423 H   0  0  0  0  0  0
  -25.5909  -25.1343   21.7101 H   0  0  0  0  0  0
  -22.9805  -22.6668   20.5882 H   0  0  0  0  0  0
  -23.0237  -24.4216   20.4292 H   0  0  0  0  0  0
  -23.4256  -23.6646   21.9735 H   0  0  0  0  0  0
  -26.1290  -21.3817   17.3099 H   0  0  0  0  0  0
  -27.2617  -20.5402   18.3453 H   0  0  0  0  0  0
  -27.8076  -21.8615   17.3003 H   0  0  0  0  0  0
  -29.7872  -23.9443   19.7261 H   0  0  0  0  0  0
  -29.3156  -23.1873   18.2678 H   0  0  0  0  0  0
  -27.7677  -25.9048   21.9952 H   0  0  0  0  0  0
  -29.1561  -25.1458   21.3451 H   0  0  0  0  0  0
  -30.7476  -21.6738   19.5884 H   0  0  0  0  0  0
  -29.1804  -20.9794   19.3945 H   0  0  0  0  0  0
  -28.8823  -22.2773   21.8516 H   0  0  0  0  0  0
  -30.5484  -21.8119   21.8935 H   0  0  0  0  0  0
  -28.2568  -19.8800   21.2663 H   0  0  0  0  0  0
  -28.8710  -20.1399   22.8685 H   0  0  0  0  0  0
  -31.0623  -19.2392   22.3037 H   0  0  0  0  0  0
  -30.6661  -19.1664   20.6071 H   0  0  0  0  0  0
  -28.9817  -17.4342   20.9779 H   0  0  0  0  0  0
  -29.1472  -17.5438   22.7158 H   0  0  0  0  0  0
  -31.3904  -16.6114   22.6814 H   0  0  0  0  0  0
  -31.5323  -16.8601   20.9633 H   0  0  0  0  0  0
  -29.4804  -14.9576   22.0667 H   0  0  0  0  0  0
  1 25  1  0  0  0
  1 30  2  0  0  0
  1 87  1  0  0  0
  2  3  1  0  0  0
  2 25  1  0  0  0
  2 88  1  0  0  0
  2 89  1  0  0  0
  3  4  1  0  0  0
  3 90  1  0  0  0
  3 91  1  0  0  0
  4  5  1  0  0  0
  4 92  1  0  0  0
  4 93  1  0  0  0
  5  6  1  0  0  0
  5 26  1  0  0  0
  5 94  1  0  0  0
  6 25  1  0  0  0
  6 95  1  0  0  0
  6 96  1  0  0  0
  7  8  2  0  0  0
  7 26  1  0  0  0
  7 29  1  0  0  0
  8  9  1  0  0  0
  8 22  1  0  0  0
  9 10  1  0  0  0
  9 27  2  0  0  0
 10 11  2  0  0  0
 10 15  1  0  0  0
 11 12  1  0  0  0
 11 97  1  0  0  0
 12 13  2  0  0  0
 12 98  1  0  0  0
 13 14  1  0  0  0
 13 31  1  0  0  0
 14 15  2  0  0  0
 14 99  1  0  0  0
 15100  1  0  0  0
 16 17  2  0  0  0
 16 21  1  0  0  0
 16 31  1  0  0  0
 17 18  1  0  0  0
 17101  1  0  0  0
 18 19  2  0  0  0
 18102  1  0  0  0
 19 20  1  0  0  0
 19 24  1  0  0  0
 20 21  2  0  0  0
 20103  1  0  0  0
 21 23  1  0  0  0
 22 28  1  0  0  0
 22 32  2  0  0  0
 26 27  1  0  0  0
 28104  1  0  0  0
 28105  1  0  0  0
 29106  1  0  0  0
 29107  1  0  0  0
 33 34  1  0  0  0
 33 66  1  0  0  0
 33 70  2  0  0  0
 34 36  1  0  0  0
 34 59  1  0  0  0
 34108  1  0  0  0
 35 44  2  0  0  0
 35 45  1  0  0  0
 35 68  1  0  0  0
 36 56  1  0  0  0
 36109  1  0  0  0
 37 39  1  0  0  0
 37 47  1  0  0  0
 37 66  1  0  0  0
 37110  1  0  0  0
 38 43  2  0  0  0
 38 46  1  0  0  0
 38 47  1  0  0  0
 39 64  1  0  0  0
 39 67  2  0  0  0
 40 52  1  0  0  0
 40 53  2  0  0  0
 40 58  1  0  0  0
 41111  1  0  0  0
 41112  1  0  0  0
 41113  1  0  0  0
 41 48  1  0  0  0
 42 43  1  0  0  0
 42 66  1  0  0  0
 42114  1  0  0  0
 42115  1  0  0  0
 43 44  1  0  0  0
 44116  1  0  0  0
 45 46  2  0  0  0
 45117  1  0  0  0
 46118  1  0  0  0
 47119  1  0  0  0
 47120  1  0  0  0
 48 56  1  0  0  0
 48 65  1  0  0  0
 48121  1  0  0  0
 49 50  1  0  0  0
 49 53  1  0  0  0
 49 64  1  0  0  0
 49122  1  0  0  0
 50 51  1  0  0  0
 50123  1  0  0  0
 50124  1  0  0  0
 51 52  1  0  0  0
 51125  1  0  0  0
 51126  1  0  0  0
 52127  1  0  0  0
 52128  1  0  0  0
 53 54  1  0  0  0
 54 55  2  0  0  0
 54129  1  0  0  0
 55 57  1  0  0  0
 55130  1  0  0  0
 56 69  2  0  0  0
 57 58  2  0  0  0
 57131  1  0  0  0
 58132  1  0  0  0
 59 60  1  0  0  0
 59 61  1  0  0  0
 59 62  1  0  0  0
 60133  1  0  0  0
 60134  1  0  0  0
 60135  1  0  0  0
 61136  1  0  0  0
 61137  1  0  0  0
 61138  1  0  0  0
 62139  1  0  0  0
 62140  1  0  0  0
 62141  1  0  0  0
 63 65  1  0  0  0
 63142  1  0  0  0
 63143  1  0  0  0
 63144  1  0  0  0
 64145  1  0  0  0
 65146  1  0  0  0
 68 80  1  0  0  0
 71 73  2  0  0  0
 71 74  1  0  0  0
 71147  1  0  0  0
 72 73  1  0  0  0
 72 75  2  0  0  0
 72148  1  0  0  0
 73 77  1  0  0  0
 74 76  2  0  0  0
 74 78  1  0  0  0
 75 76  1  0  0  0
 75 80  1  0  0  0
 76 79  1  0  0  0
 77149  1  0  0  0
 77150  1  0  0  0
 77151  1  0  0  0
 78152  1  0  0  0
 78153  1  0  0  0
 78154  1  0  0  0
 79 81  1  0  0  0
 79155  1  0  0  0
 79156  1  0  0  0
 80157  1  0  0  0
 80158  1  0  0  0
 81 82  1  0  0  0
 81159  1  0  0  0
 81160  1  0  0  0
 82 83  1  0  0  0
 82161  1  0  0  0
 82162  1  0  0  0
 83 84  1  0  0  0
 83163  1  0  0  0
 83164  1  0  0  0
 84 85  1  0  0  0
 84165  1  0  0  0
 84166  1  0  0  0
 85 86  1  0  0  0
 85167  1  0  0  0
 85168  1  0  0  0
 86 87  1  0  0  0
 86169  1  0  0  0
 86170  1  0  0  0
 87171  1  0  0  0
M  ISO  4   1 100  68 101  80 101  87 100
M  END
> <chiral flag>
0

> <version>
0

> <s_m_source_file>
/data/baiqing/PycharmProjects/Reinvent-master-3.2/result/LINK_invent/BTK/process_docking_weight1_custom_sum_contain_oxygen_bond_distance_aromatic_linkinvent_7_9_3/rearranged_h_0037.sdf

> <i_m_source_file_index>
19

> <r_mmod_Potential_Energy-OPLS-2005>
-14.4327669143677

> <r_mmod_Stretch_Energy-OPLS-2005>
38.8133583068848

> <r_mmod_Bend_Energy-OPLS-2005>
93.155517578125

> <r_mmod_Torsional_Energy-OPLS-2005>
248.530242919922

> <r_mmod_Improper_Torsional_Energy-OPLS-2005>
2.04027366638184

> <r_mmod_Van_der_Waal_Energy-OPLS-2005>
155.267517089844

> <r_mmod_Electrostatic_Energy-OPLS-2005>
-369.613372802734

> <r_mmod_Solvation_Energy-OPLS-2005>
-195.402191162109

> <b_mmod_Minimization_Converged-OPLS-2005>
0

> <r_mmod_RMS_Derivative-OPLS-2005>
4.34890985488892

$$$$
19
                    3D
 Structure written by MMmdl.
159167  0  0  1  0            999 V2000
  -30.6341  -14.7270   20.4674 C   0  0  0  0  0  0
  -30.4244  -12.4479   19.4667 C   0  0  0  0  0  0
  -29.5083  -12.5208   18.2285 C   0  0  0  0  0  0
  -28.0323  -12.3470   18.6386 C   0  0  0  0  0  0
  -27.6394  -13.2339   19.8520 C   0  0  2  0  0  0
  -28.6866  -13.1676   20.9833 C   0  0  0  0  0  0
  -25.2494  -13.8191   20.5732 C   0  0  0  0  0  0
  -24.1785  -13.0428   20.9229 C   0  0  0  0  0  0
  -24.6385  -11.6911   20.8749 C   0  0  0  0  0  0
  -23.9066  -10.4290   21.0388 C   0  0  0  0  0  0
  -24.3623   -9.4215   21.9172 C   0  0  0  0  0  0
  -23.6303   -8.2249   22.0742 C   0  0  0  0  0  0
  -22.4284   -8.0277   21.3539 C   0  0  0  0  0  0
  -21.9919   -9.0246   20.4639 C   0  0  0  0  0  0
  -22.7237  -10.2129   20.3040 C   0  0  0  0  0  0
  -21.6857   -6.0742   22.5283 C   0  0  0  0  0  0
  -21.4012   -6.5640   23.8216 C   0  0  0  0  0  0
  -21.3667   -5.6790   24.9180 C   0  0  0  0  0  0
  -21.6038   -4.3052   24.7221 C   0  0  0  0  0  0
  -21.8821   -3.8151   23.4344 C   0  0  0  0  0  0
  -21.9191   -4.6973   22.3404 C   0  0  0  0  0  0
  -22.7813  -13.5211   21.1885 C   0  0  0  0  0  0
  -22.1659   -4.2161   21.0978 F   0  0  0  0  0  0
  -21.5637   -3.4530   25.7732 F   0  0  0  0  0  0
  -29.9846  -13.5146   20.3946 N   0  0  0  0  0  0
  -26.2924  -12.9409   20.3293 N   0  0  0  0  0  0
  -25.9316  -11.6545   20.5744 N   0  0  0  0  0  0
  -22.0442  -12.8205   22.0434 N   0  0  0  0  0  0
  -25.4160  -15.1923   20.4203 N   0  0  0  0  0  0
  -31.8279  -14.7962   20.1660 O   0  0  0  0  0  0
  -21.6647   -6.8877   21.4241 O   0  0  0  0  0  0
  -22.3495  -14.5515   20.6723 O   0  0  0  0  0  0
  -24.6312  -31.8539   23.1972 C   0  0  0  0  0  0
  -25.9139  -32.4742   23.8324 C   0  0  1  0  0  0
  -27.2230  -27.2680   20.1336 C   0  0  0  0  0  0
  -25.5938  -33.8549   24.2248 N   0  0  0  0  0  0
  -23.4276  -30.4750   21.5412 C   0  0  2  0  0  0
  -24.8760  -28.9192   20.1124 C   0  0  0  0  0  0
  -22.7495  -29.4596   22.4926 C   0  0  0  0  0  0
  -18.0290  -28.1374   22.8486 C   0  0  0  0  0  0
  -24.1499  -36.7287   23.2638 C   0  0  0  0  0  0
  -25.9726  -30.7694   21.3757 C   0  0  0  0  0  0
  -26.0471  -29.3914   20.7200 C   0  0  0  0  0  0
  -27.2265  -28.5796   20.7154 C   0  0  0  0  0  0
  -26.0334  -26.8608   19.4955 C   0  0  0  0  0  0
  -24.8742  -27.6618   19.4876 C   0  0  0  0  0  0
  -23.6445  -29.8033   20.1590 C   0  0  0  0  0  0
  -25.4123  -36.3064   24.0320 C   0  0  1  0  0  0
  -20.5893  -28.3693   23.1273 C   0  0  2  0  0  0
  -20.6784  -26.9412   22.5412 C   0  0  0  0  0  0
  -19.5764  -26.6373   21.5213 C   0  0  0  0  0  0
  -18.1942  -26.7918   22.1617 C   0  0  0  0  0  0
  -19.1546  -28.8853   23.2869 C   0  0  0  0  0  0
  -18.9461  -30.1453   23.8881 C   0  0  0  0  0  0
  -17.6454  -30.6574   24.0563 C   0  0  0  0  0  0
  -25.9064  -34.9434   23.5091 C   0  0  0  0  0  0
  -16.5351  -29.9067   23.6331 C   0  0  0  0  0  0
  -16.7277  -28.6482   23.0353 C   0  0  0  0  0  0
  -26.4504  -31.6563   25.0713 C   0  0  0  0  0  0
  -25.3727  -31.3702   26.1429 C   0  0  0  0  0  0
  -27.0351  -30.2981   24.6198 C   0  0  0  0  0  0
  -27.6059  -32.4305   25.7487 C   0  0  0  0  0  0
  -27.5585  -37.1799   24.8456 C   0  0  0  0  0  0
  -21.4205  -29.3039   22.3665 N   0  0  0  0  0  0
  -26.4294  -37.3763   23.9405 N   0  0  0  0  0  0
  -24.6959  -31.0510   22.0943 N   0  0  0  0  0  0
  -23.4198  -28.8146   23.3029 O   0  0  0  0  0  0
  -28.3175  -26.3768   20.1448 O   0  0  0  0  0  0
  -26.5634  -34.8902   22.4658 O   0  0  0  0  0  0
  -23.5464  -32.1359   23.7276 O   0  0  0  0  0  0
  -29.5496  -19.8144   21.2595 C   0  0  0  0  0  0
  -29.7686  -18.6652   20.4980 C   0  0  0  0  0  0
  -29.3577  -19.1515   19.2119 C   0  0  0  0  0  0
  -27.1395  -17.1992   18.2250 C   0  0  0  0  0  0
  -30.4681  -17.2897   20.9125 C   0  0  0  0  0  0
  -29.3925  -18.4039   17.9033 C   0  0  0  0  0  0
  -27.9907  -18.1150   17.3351 C   0  0  0  0  0  0
  -28.7832  -23.6430   20.0740 C   0  0  0  0  0  0
  -28.5740  -22.2747   20.9178 C   0  0  0  0  0  0
  -28.1015  -24.9874   20.6772 C   0  0  0  0  0  0
  -28.9541  -20.4399   19.2129 N   0  0  0  0  0  0
  -29.0814  -20.8992   20.4818 N   0  0  0  0  0  0
  -29.9056  -15.8859   20.6948 N   0  0  0  0  0  0
  -31.4678  -12.5608   19.1677 H   0  0  0  0  0  0
  -30.3529  -11.4690   19.9428 H   0  0  0  0  0  0
  -29.7912  -11.7597   17.5011 H   0  0  0  0  0  0
  -29.6426  -13.4839   17.7332 H   0  0  0  0  0  0
  -27.8806  -11.2945   18.8846 H   0  0  0  0  0  0
  -27.3798  -12.5586   17.7908 H   0  0  0  0  0  0
  -27.6323  -14.2586   19.4854 H   0  0  0  0  0  0
  -28.7193  -12.1715   21.4258 H   0  0  0  0  0  0
  -28.4263  -13.8539   21.7914 H   0  0  0  0  0  0
  -25.2763   -9.5714   22.4746 H   0  0  0  0  0  0
  -24.0027   -7.4642   22.7455 H   0  0  0  0  0  0
  -21.0854   -8.8748   19.8944 H   0  0  0  0  0  0
  -22.3677  -10.9664   19.6153 H   0  0  0  0  0  0
  -21.1995   -7.6147   23.9725 H   0  0  0  0  0  0
  -21.1493   -6.0519   25.9086 H   0  0  0  0  0  0
  -22.0596   -2.7613   23.2836 H   0  0  0  0  0  0
  -22.4052  -11.9882   22.4859 H   0  0  0  0  0  0
  -21.1047  -13.1218   22.2588 H   0  0  0  0  0  0
  -24.6441  -15.8411   20.5296 H   0  0  0  0  0  0
  -26.2571  -15.6372   20.0790 H   0  0  0  0  0  0
  -26.7210  -32.5387   23.1069 H   0  0  0  0  0  0
  -25.0095  -33.9688   25.0399 H   0  0  0  0  0  0
  -22.7245  -31.2970   21.3925 H   0  0  0  0  0  0
  -23.3755  -35.9624   23.3278 H   0  0  0  0  0  0
  -24.3597  -36.8933   22.2057 H   0  0  0  0  0  0
  -23.7255  -37.6482   23.6679 H   0  0  0  0  0  0
  -26.1116  -31.5302   20.6064 H   0  0  0  0  0  0
  -26.8504  -30.8182   22.0091 H   0  0  0  0  0  0
  -28.1257  -28.9379   21.1965 H   0  0  0  0  0  0
  -25.9929  -25.8977   19.0063 H   0  0  0  0  0  0
  -23.9798  -27.2965   19.0017 H   0  0  0  0  0  0
  -23.7627  -30.5748   19.3974 H   0  0  0  0  0  0
  -22.7644  -29.2308   19.8607 H   0  0  0  0  0  0
  -25.1310  -36.1908   25.0812 H   0  0  0  0  0  0
  -20.9992  -28.3264   24.1393 H   0  0  0  0  0  0
  -20.5686  -26.2299   23.3614 H   0  0  0  0  0  0
  -21.6651  -26.7436   22.1207 H   0  0  0  0  0  0
  -19.6930  -25.6280   21.1254 H   0  0  0  0  0  0
  -19.6703  -27.3173   20.6737 H   0  0  0  0  0  0
  -17.4219  -26.6669   21.4013 H   0  0  0  0  0  0
  -18.0336  -26.0050   22.9006 H   0  0  0  0  0  0
  -19.7935  -30.7288   24.2234 H   0  0  0  0  0  0
  -17.5003  -31.6257   24.5165 H   0  0  0  0  0  0
  -15.5348  -30.2965   23.7657 H   0  0  0  0  0  0
  -15.8678  -28.0800   22.7076 H   0  0  0  0  0  0
  -24.5920  -30.7030   25.7749 H   0  0  0  0  0  0
  -24.8893  -32.2863   26.4839 H   0  0  0  0  0  0
  -25.8047  -30.8891   27.0213 H   0  0  0  0  0  0
  -26.2927  -29.6718   24.1233 H   0  0  0  0  0  0
  -27.4039  -29.7254   25.4717 H   0  0  0  0  0  0
  -27.8804  -30.4242   23.9428 H   0  0  0  0  0  0
  -27.2670  -33.3618   26.2034 H   0  0  0  0  0  0
  -28.3885  -32.6838   25.0324 H   0  0  0  0  0  0
  -28.0704  -31.8442   26.5425 H   0  0  0  0  0  0
  -28.2584  -38.0114   24.7531 H   0  0  0  0  0  0
  -28.1101  -36.2651   24.6251 H   0  0  0  0  0  0
  -27.2309  -37.1407   25.8857 H   0  0  0  0  0  0
  -20.9392  -29.8749   21.6857 H   0  0  0  0  0  0
  -26.0169  -38.2834   24.1399 H   0  0  0  0  0  0
  -29.7112  -19.9589   22.3184 H   0  0  0  0  0  0
  -27.6225  -16.2327   18.3564 H   0  0  0  0  0  0
  -26.1599  -17.0243   17.7803 H   0  0  0  0  0  0
  -26.9812  -17.6383   19.2110 H   0  0  0  0  0  0
  -30.7000  -17.3296   21.9769 H   0  0  0  0  0  0
  -31.4541  -17.2927   20.4458 H   0  0  0  0  0  0
  -29.9313  -17.4630   18.0265 H   0  0  0  0  0  0
  -29.9682  -18.9724   17.1722 H   0  0  0  0  0  0
  -27.4624  -19.0552   17.1719 H   0  0  0  0  0  0
  -28.0943  -17.6513   16.3542 H   0  0  0  0  0  0
  -28.4045  -23.4884   19.0634 H   0  0  0  0  0  0
  -29.8545  -23.8129   19.9653 H   0  0  0  0  0  0
  -27.5013  -22.1597   21.0782 H   0  0  0  0  0  0
  -28.9803  -22.4477   21.9150 H   0  0  0  0  0  0
  -28.4342  -25.0483   21.7142 H   0  0  0  0  0  0
  -27.0331  -24.7881   20.7577 H   0  0  0  0  0  0
  -28.9205  -15.7625   20.8723 H   0  0  0  0  0  0
  1 25  1  0  0  0
  1 30  2  0  0  0
  1 83  1  0  0  0
  2  3  1  0  0  0
  2 25  1  0  0  0
  2 84  1  0  0  0
  2 85  1  0  0  0
  3  4  1  0  0  0
  3 86  1  0  0  0
  3 87  1  0  0  0
  4  5  1  0  0  0
  4 88  1  0  0  0
  4 89  1  0  0  0
  5  6  1  0  0  0
  5 26  1  0  0  0
  5 90  1  0  0  0
  6 25  1  0  0  0
  6 91  1  0  0  0
  6 92  1  0  0  0
  7  8  2  0  0  0
  7 26  1  0  0  0
  7 29  1  0  0  0
  8  9  1  0  0  0
  8 22  1  0  0  0
  9 10  1  0  0  0
  9 27  2  0  0  0
 10 11  2  0  0  0
 10 15  1  0  0  0
 11 12  1  0  0  0
 11 93  1  0  0  0
 12 13  2  0  0  0
 12 94  1  0  0  0
 13 14  1  0  0  0
 13 31  1  0  0  0
 14 15  2  0  0  0
 14 95  1  0  0  0
 15 96  1  0  0  0
 16 17  2  0  0  0
 16 21  1  0  0  0
 16 31  1  0  0  0
 17 18  1  0  0  0
 17 97  1  0  0  0
 18 19  2  0  0  0
 18 98  1  0  0  0
 19 20  1  0  0  0
 19 24  1  0  0  0
 20 21  2  0  0  0
 20 99  1  0  0  0
 21 23  1  0  0  0
 22 28  1  0  0  0
 22 32  2  0  0  0
 26 27  1  0  0  0
 28100  1  0  0  0
 28101  1  0  0  0
 29102  1  0  0  0
 29103  1  0  0  0
 33 34  1  0  0  0
 33 66  1  0  0  0
 33 70  2  0  0  0
 34 36  1  0  0  0
 34 59  1  0  0  0
 34104  1  0  0  0
 35 44  2  0  0  0
 35 45  1  0  0  0
 35 68  1  0  0  0
 36 56  1  0  0  0
 36105  1  0  0  0
 37 39  1  0  0  0
 37 47  1  0  0  0
 37 66  1  0  0  0
 37106  1  0  0  0
 38 43  2  0  0  0
 38 46  1  0  0  0
 38 47  1  0  0  0
 39 64  1  0  0  0
 39 67  2  0  0  0
 40 52  1  0  0  0
 40 53  2  0  0  0
 40 58  1  0  0  0
 41107  1  0  0  0
 41108  1  0  0  0
 41109  1  0  0  0
 41 48  1  0  0  0
 42 43  1  0  0  0
 42 66  1  0  0  0
 42110  1  0  0  0
 42111  1  0  0  0
 43 44  1  0  0  0
 44112  1  0  0  0
 45 46  2  0  0  0
 45113  1  0  0  0
 46114  1  0  0  0
 47115  1  0  0  0
 47116  1  0  0  0
 48 56  1  0  0  0
 48 65  1  0  0  0
 48117  1  0  0  0
 49 50  1  0  0  0
 49 53  1  0  0  0
 49 64  1  0  0  0
 49118  1  0  0  0
 50 51  1  0  0  0
 50119  1  0  0  0
 50120  1  0  0  0
 51 52  1  0  0  0
 51121  1  0  0  0
 51122  1  0  0  0
 52123  1  0  0  0
 52124  1  0  0  0
 53 54  1  0  0  0
 54 55  2  0  0  0
 54125  1  0  0  0
 55 57  1  0  0  0
 55126  1  0  0  0
 56 69  2  0  0  0
 57 58  2  0  0  0
 57127  1  0  0  0
 58128  1  0  0  0
 59 60  1  0  0  0
 59 61  1  0  0  0
 59 62  1  0  0  0
 60129  1  0  0  0
 60130  1  0  0  0
 60131  1  0  0  0
 61132  1  0  0  0
 61133  1  0  0  0
 61134  1  0  0  0
 62135  1  0  0  0
 62136  1  0  0  0
 62137  1  0  0  0
 63 65  1  0  0  0
 63138  1  0  0  0
 63139  1  0  0  0
 63140  1  0  0  0
 64141  1  0  0  0
 65142  1  0  0  0
 68 80  1  0  0  0
 71 72  2  0  0  0
 71 82  1  0  0  0
 71143  1  0  0  0
 72 73  1  0  0  0
 72 75  1  0  0  0
 73 76  1  0  0  0
 73 81  2  0  0  0
 74 77  1  0  0  0
 74144  1  0  0  0
 74145  1  0  0  0
 74146  1  0  0  0
 75 83  1  0  0  0
 75147  1  0  0  0
 75148  1  0  0  0
 76 77  1  0  0  0
 76149  1  0  0  0
 76150  1  0  0  0
 77151  1  0  0  0
 77152  1  0  0  0
 78 79  1  0  0  0
 78 80  1  0  0  0
 78153  1  0  0  0
 78154  1  0  0  0
 79 82  1  0  0  0
 79155  1  0  0  0
 79156  1  0  0  0
 80157  1  0  0  0
 80158  1  0  0  0
 81 82  1  0  0  0
 83159  1  0  0  0
M  ISO  4   1 100  68 101  80 101  83 100
M  END
> <chiral flag>
0

> <version>
0

> <s_m_source_file>
/data/baiqing/PycharmProjects/Reinvent-master-3.2/result/LINK_invent/BTK/process_docking_weight1_custom_sum_contain_oxygen_bond_distance_aromatic_linkinvent_7_9_3/rearranged_h_0037.sdf

> <i_m_source_file_index>
20

> <r_mmod_Potential_Energy-OPLS-2005>
95.2344589233398

> <r_mmod_Stretch_Energy-OPLS-2005>
114.724227905273

> <r_mmod_Bend_Energy-OPLS-2005>
175.934722900391

> <r_mmod_Torsional_Energy-OPLS-2005>
227.553955078125

> <r_mmod_Improper_Torsional_Energy-OPLS-2005>
5.86630010604858

> <r_mmod_Van_der_Waal_Energy-OPLS-2005>
103.751281738281

> <r_mmod_Electrostatic_Energy-OPLS-2005>
-391.767852783203

> <r_mmod_Solvation_Energy-OPLS-2005>
-219.710556030273

> <b_mmod_Minimization_Converged-OPLS-2005>
0

> <r_mmod_RMS_Derivative-OPLS-2005>
1.65415751934052

$$$$
20
                    3D
 Structure written by MMmdl.
159167  0  0  1  0            999 V2000
  -30.5819  -14.8292   20.4227 C   0  0  0  0  0  0
  -30.4274  -12.4977   19.5153 C   0  0  0  0  0  0
  -29.5242  -12.5051   18.2617 C   0  0  0  0  0  0
  -28.0483  -12.3189   18.6622 C   0  0  0  0  0  0
  -27.6344  -13.2406   19.8412 C   0  0  2  0  0  0
  -28.6690  -13.2325   20.9876 C   0  0  0  0  0  0
  -25.2485  -13.8208   20.5694 C   0  0  0  0  0  0
  -24.1793  -13.0452   20.9212 C   0  0  0  0  0  0
  -24.6382  -11.6921   20.8735 C   0  0  0  0  0  0
  -23.9075  -10.4295   21.0406 C   0  0  0  0  0  0
  -24.3622   -9.4204   21.9188 C   0  0  0  0  0  0
  -23.6292   -8.2243   22.0766 C   0  0  0  0  0  0
  -22.4271   -8.0291   21.3567 C   0  0  0  0  0  0
  -21.9905   -9.0268   20.4674 C   0  0  0  0  0  0
  -22.7242  -10.2136   20.3071 C   0  0  0  0  0  0
  -21.6844   -6.0739   22.5284 C   0  0  0  0  0  0
  -21.4016   -6.5642   23.8222 C   0  0  0  0  0  0
  -21.3666   -5.6796   24.9184 C   0  0  0  0  0  0
  -21.6043   -4.3060   24.7230 C   0  0  0  0  0  0
  -21.8818   -3.8148   23.4349 C   0  0  0  0  0  0
  -21.9190   -4.6966   22.3404 C   0  0  0  0  0  0
  -22.7819  -13.5230   21.1876 C   0  0  0  0  0  0
  -22.1658   -4.2144   21.0982 F   0  0  0  0  0  0
  -21.5629   -3.4553   25.7744 F   0  0  0  0  0  0
  -29.9678  -13.5895   20.4096 N   0  0  0  0  0  0
  -26.2898  -12.9429   20.3225 N   0  0  0  0  0  0
  -25.9310  -11.6567   20.5721 N   0  0  0  0  0  0
  -22.0451  -12.8267   22.0430 N   0  0  0  0  0  0
  -25.4187  -15.1942   20.4119 N   0  0  0  0  0  0
  -31.7715  -14.8968   20.0976 O   0  0  0  0  0  0
  -21.6650   -6.8883   21.4247 O   0  0  0  0  0  0
  -22.3497  -14.5522   20.6683 O   0  0  0  0  0  0
  -24.6319  -31.8513   23.1945 C   0  0  0  0  0  0
  -25.9133  -32.4739   23.8306 C   0  0  1  0  0  0
  -27.2151  -27.2078   20.1394 C   0  0  0  0  0  0
  -25.5935  -33.8551   24.2236 N   0  0  0  0  0  0
  -23.4344  -30.4690   21.5364 C   0  0  2  0  0  0
  -24.8832  -28.9025   20.1119 C   0  0  0  0  0  0
  -22.7515  -29.4560   22.4869 C   0  0  0  0  0  0
  -18.0315  -28.1395   22.8481 C   0  0  0  0  0  0
  -24.1502  -36.7244   23.2647 C   0  0  0  0  0  0
  -25.9829  -30.7423   21.3894 C   0  0  0  0  0  0
  -26.0530  -29.3624   20.7280 C   0  0  0  0  0  0
  -27.2187  -28.5247   20.7292 C   0  0  0  0  0  0
  -26.0178  -26.8195   19.5013 C   0  0  0  0  0  0
  -24.8727  -27.6444   19.4883 C   0  0  0  0  0  0
  -23.6571  -29.7949   20.1570 C   0  0  0  0  0  0
  -25.4141  -36.3055   24.0323 C   0  0  1  0  0  0
  -20.5907  -28.3711   23.1261 C   0  0  2  0  0  0
  -20.6777  -26.9409   22.5447 C   0  0  0  0  0  0
  -19.5767  -26.6366   21.5233 C   0  0  0  0  0  0
  -18.1941  -26.7942   22.1610 C   0  0  0  0  0  0
  -19.1564  -28.8869   23.2874 C   0  0  0  0  0  0
  -18.9479  -30.1462   23.8897 C   0  0  0  0  0  0
  -17.6472  -30.6591   24.0554 C   0  0  0  0  0  0
  -25.9070  -34.9425   23.5078 C   0  0  0  0  0  0
  -16.5369  -29.9079   23.6331 C   0  0  0  0  0  0
  -16.7297  -28.6494   23.0360 C   0  0  0  0  0  0
  -26.4516  -31.6603   25.0716 C   0  0  0  0  0  0
  -25.3711  -31.3810   26.1430 C   0  0  0  0  0  0
  -27.0345  -30.2987   24.6267 C   0  0  0  0  0  0
  -27.6074  -32.4352   25.7463 C   0  0  0  0  0  0
  -27.5596  -37.1774   24.8458 C   0  0  0  0  0  0
  -21.4215  -29.3048   22.3618 N   0  0  0  0  0  0
  -26.4308  -37.3756   23.9408 N   0  0  0  0  0  0
  -24.7012  -31.0418   22.0951 N   0  0  0  0  0  0
  -23.4187  -28.8100   23.2979 O   0  0  0  0  0  0
  -28.3208  -26.3189   20.2206 O   0  0  0  0  0  0
  -26.5632  -34.8892   22.4641 O   0  0  0  0  0  0
  -23.5451  -32.1368   23.7201 O   0  0  0  0  0  0
  -27.6717  -20.8034   20.4727 C   0  0  0  0  0  0
  -28.1868  -19.2933   20.7107 C   0  0  0  0  0  0
  -29.9397  -21.6024   19.7758 C   0  0  0  0  0  0
  -28.6869  -22.0009   20.6196 C   0  0  2  0  0  0
  -29.6838  -18.9169   20.3858 C   0  0  2  0  0  0
  -30.1224  -20.0603   19.3634 C   0  0  2  0  0  0
  -31.5525  -19.8560   18.8406 C   0  0  0  0  0  0
  -28.1287  -23.5761   20.7354 C   0  0  0  0  0  0
  -30.0974  -17.3762   19.8942 C   0  0  0  0  0  0
  -28.3678  -24.8666   19.7518 C   0  0  0  0  0  0
  -29.8174  -16.0008   20.5524 N   0  0  0  0  0  0
  -31.4732  -12.6123   19.2279 H   0  0  0  0  0  0
  -30.3665  -11.5385   20.0313 H   0  0  0  0  0  0
  -29.8285  -11.7123   17.5770 H   0  0  0  0  0  0
  -29.6492  -13.4452   17.7206 H   0  0  0  0  0  0
  -27.9171  -11.2752   18.9514 H   0  0  0  0  0  0
  -27.3967  -12.4794   17.8028 H   0  0  0  0  0  0
  -27.6168  -14.2506   19.4298 H   0  0  0  0  0  0
  -28.7139  -12.2563   21.4712 H   0  0  0  0  0  0
  -28.3833  -13.9474   21.7601 H   0  0  0  0  0  0
  -25.2765   -9.5683   22.4768 H   0  0  0  0  0  0
  -24.0008   -7.4633   22.7476 H   0  0  0  0  0  0
  -21.0840   -8.8798   19.8974 H   0  0  0  0  0  0
  -22.3710  -10.9687   19.6187 H   0  0  0  0  0  0
  -21.2014   -7.6151   23.9729 H   0  0  0  0  0  0
  -21.1490   -6.0525   25.9090 H   0  0  0  0  0  0
  -22.0582   -2.7607   23.2856 H   0  0  0  0  0  0
  -22.4058  -11.9956   22.4885 H   0  0  0  0  0  0
  -21.1070  -13.1326   22.2616 H   0  0  0  0  0  0
  -24.6499  -15.8452   20.5283 H   0  0  0  0  0  0
  -26.2649  -15.6356   20.0745 H   0  0  0  0  0  0
  -26.7166  -32.5362   23.1013 H   0  0  0  0  0  0
  -25.0134  -33.9724   25.0420 H   0  0  0  0  0  0
  -22.7338  -31.2935   21.3818 H   0  0  0  0  0  0
  -23.3791  -35.9547   23.3303 H   0  0  0  0  0  0
  -24.3582  -36.8873   22.2056 H   0  0  0  0  0  0
  -23.7231  -37.6426   23.6685 H   0  0  0  0  0  0
  -26.1419  -31.5028   20.6246 H   0  0  0  0  0  0
  -26.8531  -30.7869   22.0319 H   0  0  0  0  0  0
  -28.1115  -28.8663   21.2325 H   0  0  0  0  0  0
  -25.9354  -25.8492   19.0356 H   0  0  0  0  0  0
  -23.9716  -27.2886   19.0087 H   0  0  0  0  0  0
  -23.7884  -30.5653   19.3967 H   0  0  0  0  0  0
  -22.7788  -29.2267   19.8476 H   0  0  0  0  0  0
  -25.1339  -36.1893   25.0813 H   0  0  0  0  0  0
  -21.0046  -28.3334   24.1359 H   0  0  0  0  0  0
  -20.5630  -26.2343   23.3686 H   0  0  0  0  0  0
  -21.6649  -26.7377   22.1277 H   0  0  0  0  0  0
  -19.6922  -25.6265   21.1291 H   0  0  0  0  0  0
  -19.6722  -27.3148   20.6741 H   0  0  0  0  0  0
  -17.4228  -26.6733   21.3985 H   0  0  0  0  0  0
  -18.0283  -26.0083   22.8984 H   0  0  0  0  0  0
  -19.7956  -30.7281   24.2263 H   0  0  0  0  0  0
  -17.5027  -31.6272   24.5152 H   0  0  0  0  0  0
  -15.5366  -30.2969   23.7665 H   0  0  0  0  0  0
  -15.8702  -28.0803   22.7083 H   0  0  0  0  0  0
  -24.5917  -30.7118   25.7784 H   0  0  0  0  0  0
  -24.8861  -32.2986   26.4752 H   0  0  0  0  0  0
  -25.8007  -30.9080   27.0266 H   0  0  0  0  0  0
  -26.2922  -29.6739   24.1274 H   0  0  0  0  0  0
  -27.3957  -29.7280   25.4836 H   0  0  0  0  0  0
  -27.8853  -30.4223   23.9561 H   0  0  0  0  0  0
  -27.2714  -33.3678   26.2015 H   0  0  0  0  0  0
  -28.3889  -32.6882   25.0284 H   0  0  0  0  0  0
  -28.0743  -31.8491   26.5395 H   0  0  0  0  0  0
  -28.2622  -38.0068   24.7518 H   0  0  0  0  0  0
  -28.1089  -36.2596   24.6279 H   0  0  0  0  0  0
  -27.2303  -37.1407   25.8860 H   0  0  0  0  0  0
  -20.9416  -29.8747   21.6794 H   0  0  0  0  0  0
  -26.0181  -38.2816   24.1451 H   0  0  0  0  0  0
  -26.8218  -20.9710   21.1378 H   0  0  0  0  0  0
  -27.2481  -20.8625   19.4702 H   0  0  0  0  0  0
  -27.5388  -18.6413   20.1226 H   0  0  0  0  0  0
  -27.9847  -19.0147   21.7454 H   0  0  0  0  0  0
  -30.8260  -21.9353   20.3197 H   0  0  0  0  0  0
  -29.9345  -22.1991   18.8608 H   0  0  0  0  0  0
  -29.0450  -21.8331   21.6380 H   0  0  0  0  0  0
  -30.2492  -19.1029   21.3003 H   0  0  0  0  0  0
  -29.4788  -19.9211   18.4894 H   0  0  0  0  0  0
  -32.2739  -19.8166   19.6592 H   0  0  0  0  0  0
  -31.8380  -20.6734   18.1802 H   0  0  0  0  0  0
  -31.6473  -18.9422   18.2522 H   0  0  0  0  0  0
  -28.4900  -23.9206   21.7065 H   0  0  0  0  0  0
  -27.0475  -23.5191   20.8905 H   0  0  0  0  0  0
  -31.1829  -17.3863   19.7956 H   0  0  0  0  0  0
  -29.7260  -17.2726   18.8735 H   0  0  0  0  0  0
  -27.7762  -24.7473   18.8413 H   0  0  0  0  0  0
  -29.3938  -24.7699   19.3959 H   0  0  0  0  0  0
  -28.8663  -15.8641   20.8614 H   0  0  0  0  0  0
  1 25  1  0  0  0
  1 30  2  0  0  0
  1 81  1  0  0  0
  2  3  1  0  0  0
  2 25  1  0  0  0
  2 82  1  0  0  0
  2 83  1  0  0  0
  3  4  1  0  0  0
  3 84  1  0  0  0
  3 85  1  0  0  0
  4  5  1  0  0  0
  4 86  1  0  0  0
  4 87  1  0  0  0
  5  6  1  0  0  0
  5 26  1  0  0  0
  5 88  1  0  0  0
  6 25  1  0  0  0
  6 89  1  0  0  0
  6 90  1  0  0  0
  7  8  2  0  0  0
  7 26  1  0  0  0
  7 29  1  0  0  0
  8  9  1  0  0  0
  8 22  1  0  0  0
  9 10  1  0  0  0
  9 27  2  0  0  0
 10 11  2  0  0  0
 10 15  1  0  0  0
 11 12  1  0  0  0
 11 91  1  0  0  0
 12 13  2  0  0  0
 12 92  1  0  0  0
 13 14  1  0  0  0
 13 31  1  0  0  0
 14 15  2  0  0  0
 14 93  1  0  0  0
 15 94  1  0  0  0
 16 17  2  0  0  0
 16 21  1  0  0  0
 16 31  1  0  0  0
 17 18  1  0  0  0
 17 95  1  0  0  0
 18 19  2  0  0  0
 18 96  1  0  0  0
 19 20  1  0  0  0
 19 24  1  0  0  0
 20 21  2  0  0  0
 20 97  1  0  0  0
 21 23  1  0  0  0
 22 28  1  0  0  0
 22 32  2  0  0  0
 26 27  1  0  0  0
 28 98  1  0  0  0
 28 99  1  0  0  0
 29100  1  0  0  0
 29101  1  0  0  0
 33 34  1  0  0  0
 33 66  1  0  0  0
 33 70  2  0  0  0
 34 36  1  0  0  0
 34 59  1  0  0  0
 34102  1  0  0  0
 35 44  2  0  0  0
 35 45  1  0  0  0
 35 68  1  0  0  0
 36 56  1  0  0  0
 36103  1  0  0  0
 37 39  1  0  0  0
 37 47  1  0  0  0
 37 66  1  0  0  0
 37104  1  0  0  0
 38 43  2  0  0  0
 38 46  1  0  0  0
 38 47  1  0  0  0
 39 64  1  0  0  0
 39 67  2  0  0  0
 40 52  1  0  0  0
 40 53  2  0  0  0
 40 58  1  0  0  0
 41105  1  0  0  0
 41106  1  0  0  0
 41107  1  0  0  0
 41 48  1  0  0  0
 42 43  1  0  0  0
 42 66  1  0  0  0
 42108  1  0  0  0
 42109  1  0  0  0
 43 44  1  0  0  0
 44110  1  0  0  0
 45 46  2  0  0  0
 45111  1  0  0  0
 46112  1  0  0  0
 47113  1  0  0  0
 47114  1  0  0  0
 48 56  1  0  0  0
 48 65  1  0  0  0
 48115  1  0  0  0
 49 50  1  0  0  0
 49 53  1  0  0  0
 49 64  1  0  0  0
 49116  1  0  0  0
 50 51  1  0  0  0
 50117  1  0  0  0
 50118  1  0  0  0
 51 52  1  0  0  0
 51119  1  0  0  0
 51120  1  0  0  0
 52121  1  0  0  0
 52122  1  0  0  0
 53 54  1  0  0  0
 54 55  2  0  0  0
 54123  1  0  0  0
 55 57  1  0  0  0
 55124  1  0  0  0
 56 69  2  0  0  0
 57 58  2  0  0  0
 57125  1  0  0  0
 58126  1  0  0  0
 59 60  1  0  0  0
 59 61  1  0  0  0
 59 62  1  0  0  0
 60127  1  0  0  0
 60128  1  0  0  0
 60129  1  0  0  0
 61130  1  0  0  0
 61131  1  0  0  0
 61132  1  0  0  0
 62133  1  0  0  0
 62134  1  0  0  0
 62135  1  0  0  0
 63 65  1  0  0  0
 63136  1  0  0  0
 63137  1  0  0  0
 63138  1  0  0  0
 64139  1  0  0  0
 65140  1  0  0  0
 68 80  1  0  0  0
 71 72  1  0  0  0
 71 74  1  0  0  0
 71141  1  0  0  0
 71142  1  0  0  0
 72 75  1  0  0  0
 72143  1  0  0  0
 72144  1  0  0  0
 73 74  1  0  0  0
 73 76  1  0  0  0
 73145  1  0  0  0
 73146  1  0  0  0
 74 78  1  0  0  0
 74147  1  0  0  0
 75 76  1  0  0  0
 75 79  1  0  0  0
 75148  1  0  0  0
 76 77  1  0  0  0
 76149  1  0  0  0
 77150  1  0  0  0
 77151  1  0  0  0
 77152  1  0  0  0
 78 80  1  0  0  0
 78153  1  0  0  0
 78154  1  0  0  0
 79 81  1  0  0  0
 79155  1  0  0  0
 79156  1  0  0  0
 80157  1  0  0  0
 80158  1  0  0  0
 81159  1  0  0  0
M  ISO  4   1 100  68 101  80 101  81 100
M  END
> <chiral flag>
0

> <version>
0

> <s_m_source_file>
/data/baiqing/PycharmProjects/Reinvent-master-3.2/result/LINK_invent/BTK/process_docking_weight1_custom_sum_contain_oxygen_bond_distance_aromatic_linkinvent_7_9_3/rearranged_h_0037.sdf

> <i_m_source_file_index>
21

> <r_mmod_Potential_Energy-OPLS-2005>
416.151458740234

> <r_mmod_Stretch_Energy-OPLS-2005>
176.260299682617

> <r_mmod_Bend_Energy-OPLS-2005>
279.227813720703

> <r_mmod_Torsional_Energy-OPLS-2005>
276.159698486328

> <r_mmod_Improper_Torsional_Energy-OPLS-2005>
6.63676118850708

> <r_mmod_Van_der_Waal_Energy-OPLS-2005>
122.497665405273

> <r_mmod_Electrostatic_Energy-OPLS-2005>
-369.095672607422

> <r_mmod_Solvation_Energy-OPLS-2005>
-198.885437011719

> <b_mmod_Minimization_Converged-OPLS-2005>
0

> <r_mmod_RMS_Derivative-OPLS-2005>
3.29945826530457

$$$$
21
                    3D
 Structure written by MMmdl.
165173  0  0  1  0            999 V2000
  -30.7332  -14.5074   20.4767 C   0  0  0  0  0  0
  -30.4205  -12.3015   19.4400 C   0  0  0  0  0  0
  -29.5065  -12.4663   18.2085 C   0  0  0  0  0  0
  -28.0258  -12.3408   18.6166 C   0  0  0  0  0  0
  -27.6571  -13.2186   19.8466 C   0  0  2  0  0  0
  -28.7031  -13.0701   20.9782 C   0  0  0  0  0  0
  -25.2598  -13.8178   20.5678 C   0  0  0  0  0  0
  -24.1843  -13.0460   20.9197 C   0  0  0  0  0  0
  -24.6408  -11.6922   20.8722 C   0  0  0  0  0  0
  -23.9060  -10.4307   21.0376 C   0  0  0  0  0  0
  -24.3616   -9.4217   21.9153 C   0  0  0  0  0  0
  -23.6294   -8.2250   22.0727 C   0  0  0  0  0  0
  -22.4298   -8.0272   21.3509 C   0  0  0  0  0  0
  -21.9916   -9.0252   20.4630 C   0  0  0  0  0  0
  -22.7233  -10.2138   20.3034 C   0  0  0  0  0  0
  -21.6853   -6.0726   22.5275 C   0  0  0  0  0  0
  -21.4003   -6.5622   23.8211 C   0  0  0  0  0  0
  -21.3664   -5.6768   24.9159 C   0  0  0  0  0  0
  -21.6064   -4.3037   24.7205 C   0  0  0  0  0  0
  -21.8815   -3.8137   23.4325 C   0  0  0  0  0  0
  -21.9189   -4.6947   22.3385 C   0  0  0  0  0  0
  -22.7874  -13.5251   21.1827 C   0  0  0  0  0  0
  -22.1660   -4.2137   21.0967 F   0  0  0  0  0  0
  -21.5640   -3.4519   25.7715 F   0  0  0  0  0  0
  -30.0335  -13.3374   20.4123 N   0  0  0  0  0  0
  -26.3016  -12.9368   20.3239 N   0  0  0  0  0  0
  -25.9338  -11.6526   20.5701 N   0  0  0  0  0  0
  -22.0465  -12.8308   22.0393 N   0  0  0  0  0  0
  -25.4325  -15.1897   20.4096 N   0  0  0  0  0  0
  -31.9162  -14.5845   20.1506 O   0  0  0  0  0  0
  -21.6643   -6.8877   21.4242 O   0  0  0  0  0  0
  -22.3572  -14.5531   20.6589 O   0  0  0  0  0  0
  -24.6114  -31.8679   23.2131 C   0  0  0  0  0  0
  -25.8999  -32.4829   23.8428 C   0  0  1  0  0  0
  -27.2158  -27.4005   20.1008 C   0  0  0  0  0  0
  -25.5856  -33.8643   24.2377 N   0  0  0  0  0  0
  -23.4032  -30.4892   21.5584 C   0  0  2  0  0  0
  -24.8451  -28.9579   20.1169 C   0  0  0  0  0  0
  -22.7404  -29.4642   22.5072 C   0  0  0  0  0  0
  -18.0274  -28.1308   22.8539 C   0  0  0  0  0  0
  -24.1501  -36.7289   23.2656 C   0  0  0  0  0  0
  -25.9409  -30.8131   21.3859 C   0  0  0  0  0  0
  -26.0109  -29.4558   20.7126 C   0  0  0  0  0  0
  -27.1999  -28.6851   20.6973 C   0  0  0  0  0  0
  -26.0238  -26.9235   19.5026 C   0  0  0  0  0  0
  -24.8473  -27.6919   19.5102 C   0  0  0  0  0  0
  -23.6055  -29.8199   20.1749 C   0  0  0  0  0  0
  -25.4132  -36.3138   24.0378 C   0  0  1  0  0  0
  -20.5863  -28.3568   23.1333 C   0  0  2  0  0  0
  -20.6731  -26.9305   22.5421 C   0  0  0  0  0  0
  -19.5716  -26.6322   21.5205 C   0  0  0  0  0  0
  -18.1900  -26.7879   22.1619 C   0  0  0  0  0  0
  -19.1528  -28.8766   23.2926 C   0  0  0  0  0  0
  -18.9451  -30.1388   23.8904 C   0  0  0  0  0  0
  -17.6450  -30.6540   24.0528 C   0  0  0  0  0  0
  -25.9033  -34.9488   23.5185 C   0  0  0  0  0  0
  -16.5336  -29.9015   23.6338 C   0  0  0  0  0  0
  -16.7265  -28.6410   23.0417 C   0  0  0  0  0  0
  -26.4412  -31.6639   25.0782 C   0  0  0  0  0  0
  -25.3651  -31.3745   26.1512 C   0  0  0  0  0  0
  -27.0278  -30.3088   24.6221 C   0  0  0  0  0  0
  -27.6033  -32.4364   25.7452 C   0  0  0  0  0  0
  -27.5638  -37.1782   24.8465 C   0  0  0  0  0  0
  -21.4144  -29.2963   22.3778 N   0  0  0  0  0  0
  -26.4332  -37.3809   23.9422 N   0  0  0  0  0  0
  -24.6701  -31.0706   22.1083 N   0  0  0  0  0  0
  -23.4177  -28.8215   23.3137 O   0  0  0  0  0  0
  -28.3726  -26.6385   20.1243 O   0  0  0  0  0  0
  -26.5583  -34.8898   22.4740 O   0  0  0  0  0  0
  -23.5279  -32.1490   23.7447 O   0  0  0  0  0  0
  -30.2406  -20.6021   22.7014 C   0  0  0  0  0  0
  -30.4437  -19.4871   20.5665 C   0  0  0  0  0  0
  -30.4020  -20.6855   21.3140 C   0  0  0  0  0  0
  -30.1014  -19.3636   23.3504 C   0  0  0  0  0  0
  -30.3072  -18.2100   21.1833 C   0  0  0  0  0  0
  -30.1157  -18.1499   22.5995 C   0  0  0  0  0  0
  -29.9391  -16.8139   23.3100 C   0  0  0  0  0  0
  -28.4846  -19.5954   25.2862 C   0  0  0  0  0  0
  -30.5850  -22.0700   20.6839 C   0  0  0  0  0  0
  -29.9481  -19.4366   24.8663 C   0  0  0  0  0  0
  -30.4554  -16.9905   20.2374 C   0  0  0  0  0  0
  -29.2862  -22.9120   20.6332 C   0  0  0  0  0  0
  -29.5096  -24.4322   20.3973 C   0  0  0  0  0  0
  -28.1916  -25.2084   20.1856 C   0  0  0  0  0  0
  -30.0063  -15.6336   20.6409 N   0  0  0  0  0  0
  -31.4688  -12.3696   19.1411 H   0  0  0  0  0  0
  -30.2977  -11.3080   19.8751 H   0  0  0  0  0  0
  -29.7561  -11.7084   17.4620 H   0  0  0  0  0  0
  -29.6784  -13.4329   17.7334 H   0  0  0  0  0  0
  -27.8487  -11.2913   18.8494 H   0  0  0  0  0  0
  -27.3797  -12.5764   17.7700 H   0  0  0  0  0  0
  -27.6750  -14.2520   19.4999 H   0  0  0  0  0  0
  -28.6739  -12.0603   21.3886 H   0  0  0  0  0  0
  -28.4778  -13.7409   21.8104 H   0  0  0  0  0  0
  -25.2756   -9.5698   22.4719 H   0  0  0  0  0  0
  -23.9997   -7.4655   22.7466 H   0  0  0  0  0  0
  -21.0829   -8.8781   19.8974 H   0  0  0  0  0  0
  -22.3674  -10.9666   19.6150 H   0  0  0  0  0  0
  -21.1988   -7.6131   23.9702 H   0  0  0  0  0  0
  -21.1498   -6.0500   25.9072 H   0  0  0  0  0  0
  -22.0597   -2.7597   23.2812 H   0  0  0  0  0  0
  -22.4061  -12.0036   22.4911 H   0  0  0  0  0  0
  -21.1054  -13.1354   22.2446 H   0  0  0  0  0  0
  -24.6710  -15.8498   20.5272 H   0  0  0  0  0  0
  -26.2819  -15.6195   20.0699 H   0  0  0  0  0  0
  -26.7050  -32.5506   23.1160 H   0  0  0  0  0  0
  -24.9990  -33.9808   25.0498 H   0  0  0  0  0  0
  -22.6943  -31.3087   21.4195 H   0  0  0  0  0  0
  -23.3820  -35.9562   23.3304 H   0  0  0  0  0  0
  -24.3606  -36.8882   22.2071 H   0  0  0  0  0  0
  -23.7148  -37.6455   23.6639 H   0  0  0  0  0  0
  -26.0907  -31.5967   20.6428 H   0  0  0  0  0  0
  -26.8122  -30.8270   22.0315 H   0  0  0  0  0  0
  -28.0991  -29.0506   21.1727 H   0  0  0  0  0  0
  -25.9714  -25.9541   19.0294 H   0  0  0  0  0  0
  -23.9448  -27.3014   19.0565 H   0  0  0  0  0  0
  -23.6870  -30.5870   19.4043 H   0  0  0  0  0  0
  -22.7351  -29.2208   19.9013 H   0  0  0  0  0  0
  -25.1299  -36.2072   25.0874 H   0  0  0  0  0  0
  -20.9952  -28.3062   24.1449 H   0  0  0  0  0  0
  -20.5572  -26.2157   23.3587 H   0  0  0  0  0  0
  -21.6606  -26.7301   22.1249 H   0  0  0  0  0  0
  -19.6842  -25.6236   21.1217 H   0  0  0  0  0  0
  -19.6668  -27.3137   20.6745 H   0  0  0  0  0  0
  -17.4188  -26.6719   21.3993 H   0  0  0  0  0  0
  -18.0240  -25.9972   22.8951 H   0  0  0  0  0  0
  -19.7917  -30.7207   24.2286 H   0  0  0  0  0  0
  -17.4988  -31.6243   24.5062 H   0  0  0  0  0  0
  -15.5325  -30.2893   23.7635 H   0  0  0  0  0  0
  -15.8683  -28.0669   22.7189 H   0  0  0  0  0  0
  -24.5770  -30.7185   25.7797 H   0  0  0  0  0  0
  -24.8864  -32.2880   26.5052 H   0  0  0  0  0  0
  -25.7915  -30.8796   27.0242 H   0  0  0  0  0  0
  -26.2862  -29.6835   24.1241 H   0  0  0  0  0  0
  -27.4000  -29.7353   25.4718 H   0  0  0  0  0  0
  -27.8714  -30.4446   23.9455 H   0  0  0  0  0  0
  -27.2734  -33.3656   26.2105 H   0  0  0  0  0  0
  -28.3706  -32.6958   25.0154 H   0  0  0  0  0  0
  -28.0865  -31.8472   26.5247 H   0  0  0  0  0  0
  -28.2642  -38.0101   24.7585 H   0  0  0  0  0  0
  -28.1144  -36.2631   24.6225 H   0  0  0  0  0  0
  -27.2341  -37.1349   25.8857 H   0  0  0  0  0  0
  -20.9307  -29.8668   21.6987 H   0  0  0  0  0  0
  -26.0276  -38.2907   24.1405 H   0  0  0  0  0  0
  -30.2345  -21.5126   23.2861 H   0  0  0  0  0  0
  -30.6124  -19.5484   19.4996 H   0  0  0  0  0  0
  -29.0648  -16.2906   22.9260 H   0  0  0  0  0  0
  -29.7764  -16.8920   24.3782 H   0  0  0  0  0  0
  -30.8216  -16.1919   23.1648 H   0  0  0  0  0  0
  -28.4041  -19.7866   26.3567 H   0  0  0  0  0  0
  -27.9062  -18.7002   25.0543 H   0  0  0  0  0  0
  -28.0202  -20.4387   24.7716 H   0  0  0  0  0  0
  -31.0260  -21.9806   19.6916 H   0  0  0  0  0  0
  -31.3217  -22.6040   21.2875 H   0  0  0  0  0  0
  -30.5008  -20.3059   25.2253 H   0  0  0  0  0  0
  -30.4233  -18.5983   25.3730 H   0  0  0  0  0  0
  -31.5031  -16.9797   19.9348 H   0  0  0  0  0  0
  -29.9161  -17.2267   19.3193 H   0  0  0  0  0  0
  -28.7550  -22.8011   21.5786 H   0  0  0  0  0  0
  -28.6227  -22.5030   19.8702 H   0  0  0  0  0  0
  -30.1506  -24.5763   19.5285 H   0  0  0  0  0  0
  -30.0450  -24.8539   21.2474 H   0  0  0  0  0  0
  -27.5032  -24.9684   21.0007 H   0  0  0  0  0  0
  -27.7456  -24.8367   19.2624 H   0  0  0  0  0  0
  -29.0254  -15.5205   20.8366 H   0  0  0  0  0  0
  1 25  1  0  0  0
  1 30  2  0  0  0
  1 85  1  0  0  0
  2  3  1  0  0  0
  2 25  1  0  0  0
  2 86  1  0  0  0
  2 87  1  0  0  0
  3  4  1  0  0  0
  3 88  1  0  0  0
  3 89  1  0  0  0
  4  5  1  0  0  0
  4 90  1  0  0  0
  4 91  1  0  0  0
  5  6  1  0  0  0
  5 26  1  0  0  0
  5 92  1  0  0  0
  6 25  1  0  0  0
  6 93  1  0  0  0
  6 94  1  0  0  0
  7  8  2  0  0  0
  7 26  1  0  0  0
  7 29  1  0  0  0
  8  9  1  0  0  0
  8 22  1  0  0  0
  9 10  1  0  0  0
  9 27  2  0  0  0
 10 11  2  0  0  0
 10 15  1  0  0  0
 11 12  1  0  0  0
 11 95  1  0  0  0
 12 13  2  0  0  0
 12 96  1  0  0  0
 13 14  1  0  0  0
 13 31  1  0  0  0
 14 15  2  0  0  0
 14 97  1  0  0  0
 15 98  1  0  0  0
 16 17  2  0  0  0
 16 21  1  0  0  0
 16 31  1  0  0  0
 17 18  1  0  0  0
 17 99  1  0  0  0
 18 19  2  0  0  0
 18100  1  0  0  0
 19 20  1  0  0  0
 19 24  1  0  0  0
 20 21  2  0  0  0
 20101  1  0  0  0
 21 23  1  0  0  0
 22 28  1  0  0  0
 22 32  2  0  0  0
 26 27  1  0  0  0
 28102  1  0  0  0
 28103  1  0  0  0
 29104  1  0  0  0
 29105  1  0  0  0
 33 34  1  0  0  0
 33 66  1  0  0  0
 33 70  2  0  0  0
 34 36  1  0  0  0
 34 59  1  0  0  0
 34106  1  0  0  0
 35 44  2  0  0  0
 35 45  1  0  0  0
 35 68  1  0  0  0
 36 56  1  0  0  0
 36107  1  0  0  0
 37 39  1  0  0  0
 37 47  1  0  0  0
 37 66  1  0  0  0
 37108  1  0  0  0
 38 43  2  0  0  0
 38 46  1  0  0  0
 38 47  1  0  0  0
 39 64  1  0  0  0
 39 67  2  0  0  0
 40 52  1  0  0  0
 40 53  2  0  0  0
 40 58  1  0  0  0
 41109  1  0  0  0
 41110  1  0  0  0
 41111  1  0  0  0
 41 48  1  0  0  0
 42 43  1  0  0  0
 42 66  1  0  0  0
 42112  1  0  0  0
 42113  1  0  0  0
 43 44  1  0  0  0
 44114  1  0  0  0
 45 46  2  0  0  0
 45115  1  0  0  0
 46116  1  0  0  0
 47117  1  0  0  0
 47118  1  0  0  0
 48 56  1  0  0  0
 48 65  1  0  0  0
 48119  1  0  0  0
 49 50  1  0  0  0
 49 53  1  0  0  0
 49 64  1  0  0  0
 49120  1  0  0  0
 50 51  1  0  0  0
 50121  1  0  0  0
 50122  1  0  0  0
 51 52  1  0  0  0
 51123  1  0  0  0
 51124  1  0  0  0
 52125  1  0  0  0
 52126  1  0  0  0
 53 54  1  0  0  0
 54 55  2  0  0  0
 54127  1  0  0  0
 55 57  1  0  0  0
 55128  1  0  0  0
 56 69  2  0  0  0
 57 58  2  0  0  0
 57129  1  0  0  0
 58130  1  0  0  0
 59 60  1  0  0  0
 59 61  1  0  0  0
 59 62  1  0  0  0
 60131  1  0  0  0
 60132  1  0  0  0
 60133  1  0  0  0
 61134  1  0  0  0
 61135  1  0  0  0
 61136  1  0  0  0
 62137  1  0  0  0
 62138  1  0  0  0
 62139  1  0  0  0
 63 65  1  0  0  0
 63140  1  0  0  0
 63141  1  0  0  0
 63142  1  0  0  0
 64143  1  0  0  0
 65144  1  0  0  0
 68 84  1  0  0  0
 71 73  2  0  0  0
 71 74  1  0  0  0
 71145  1  0  0  0
 72 73  1  0  0  0
 72 75  2  0  0  0
 72146  1  0  0  0
 73 79  1  0  0  0
 74 76  2  0  0  0
 74 80  1  0  0  0
 75 76  1  0  0  0
 75 81  1  0  0  0
 76 77  1  0  0  0
 77147  1  0  0  0
 77148  1  0  0  0
 77149  1  0  0  0
 78 80  1  0  0  0
 78150  1  0  0  0
 78151  1  0  0  0
 78152  1  0  0  0
 79 82  1  0  0  0
 79153  1  0  0  0
 79154  1  0  0  0
 80155  1  0  0  0
 80156  1  0  0  0
 81 85  1  0  0  0
 81157  1  0  0  0
 81158  1  0  0  0
 82 83  1  0  0  0
 82159  1  0  0  0
 82160  1  0  0  0
 83 84  1  0  0  0
 83161  1  0  0  0
 83162  1  0  0  0
 84163  1  0  0  0
 84164  1  0  0  0
 85165  1  0  0  0
M  ISO  4   1 100  68 101  84 101  85 100
M  END
> <chiral flag>
0

> <version>
0

> <s_m_source_file>
/data/baiqing/PycharmProjects/Reinvent-master-3.2/result/LINK_invent/BTK/process_docking_weight1_custom_sum_contain_oxygen_bond_distance_aromatic_linkinvent_7_9_3/rearranged_h_0037.sdf

> <i_m_source_file_index>
22

> <r_mmod_Potential_Energy-OPLS-2005>
-69.4080505371094

> <r_mmod_Stretch_Energy-OPLS-2005>
44.8517456054688

> <r_mmod_Bend_Energy-OPLS-2005>
111.459335327148

> <r_mmod_Torsional_Energy-OPLS-2005>
206.715438842773

> <r_mmod_Improper_Torsional_Energy-OPLS-2005>
7.38818883895874

> <r_mmod_Van_der_Waal_Energy-OPLS-2005>
160.987335205078

> <r_mmod_Electrostatic_Energy-OPLS-2005>
-426.40625

> <r_mmod_Solvation_Energy-OPLS-2005>
-200.470825195312

> <b_mmod_Minimization_Converged-OPLS-2005>
0

> <r_mmod_RMS_Derivative-OPLS-2005>
4.83166551589966

$$$$
22
                    3D
 Structure written by MMmdl.
180189  0  0  1  0            999 V2000
  -30.8556  -14.2444   20.7826 C   0  0  0  0  0  0
  -30.4065  -12.2884   19.3604 C   0  0  0  0  0  0
  -29.4664  -12.5450   18.1746 C   0  0  0  0  0  0
  -28.0011  -12.3781   18.6077 C   0  0  0  0  0  0
  -27.6655  -13.2053   19.8745 C   0  0  2  0  0  0
  -28.7050  -12.9644   20.9915 C   0  0  0  0  0  0
  -25.2605  -13.8162   20.5682 C   0  0  0  0  0  0
  -24.1849  -13.0439   20.9163 C   0  0  0  0  0  0
  -24.6396  -11.6908   20.8721 C   0  0  0  0  0  0
  -23.9059  -10.4294   21.0396 C   0  0  0  0  0  0
  -24.3610   -9.4213   21.9179 C   0  0  0  0  0  0
  -23.6287   -8.2248   22.0756 C   0  0  0  0  0  0
  -22.4272   -8.0281   21.3548 C   0  0  0  0  0  0
  -21.9907   -9.0248   20.4644 C   0  0  0  0  0  0
  -22.7232  -10.2129   20.3047 C   0  0  0  0  0  0
  -21.6848   -6.0738   22.5281 C   0  0  0  0  0  0
  -21.4015   -6.5640   23.8214 C   0  0  0  0  0  0
  -21.3662   -5.6794   24.9175 C   0  0  0  0  0  0
  -21.6041   -4.3055   24.7226 C   0  0  0  0  0  0
  -21.8817   -3.8147   23.4348 C   0  0  0  0  0  0
  -21.9189   -4.6965   22.3406 C   0  0  0  0  0  0
  -22.7872  -13.5242   21.1833 C   0  0  0  0  0  0
  -22.1657   -4.2152   21.0982 F   0  0  0  0  0  0
  -21.5628   -3.4542   25.7739 F   0  0  0  0  0  0
  -30.0586  -13.2022   20.4548 N   0  0  0  0  0  0
  -26.3049  -12.9336   20.3373 N   0  0  0  0  0  0
  -25.9324  -11.6492   20.5752 N   0  0  0  0  0  0
  -22.0507  -12.8235   22.0382 N   0  0  0  0  0  0
  -25.4332  -15.1872   20.4108 N   0  0  0  0  0  0
  -31.7414  -14.6944   20.0478 O   0  0  0  0  0  0
  -21.6638   -6.8879   21.4244 O   0  0  0  0  0  0
  -22.3561  -14.5556   20.6694 O   0  0  0  0  0  0
  -24.6075  -31.8713   23.2136 C   0  0  0  0  0  0
  -25.8999  -32.4837   23.8411 C   0  0  1  0  0  0
  -27.2539  -27.4866   20.0902 C   0  0  0  0  0  0
  -25.5900  -33.8632   24.2355 N   0  0  0  0  0  0
  -23.3928  -30.4917   21.5530 C   0  0  2  0  0  0
  -24.8434  -28.9571   20.1225 C   0  0  0  0  0  0
  -22.7363  -29.4665   22.5034 C   0  0  0  0  0  0
  -18.0254  -28.1370   22.8493 C   0  0  0  0  0  0
  -24.1497  -36.7320   23.2636 C   0  0  0  0  0  0
  -25.9133  -30.8492   21.3605 C   0  0  0  0  0  0
  -25.9946  -29.4815   20.7225 C   0  0  0  0  0  0
  -27.1991  -28.7521   20.7156 C   0  0  0  0  0  0
  -26.0909  -26.9701   19.4836 C   0  0  0  0  0  0
  -24.8825  -27.6941   19.5051 C   0  0  0  0  0  0
  -23.5993  -29.8150   20.1699 C   0  0  0  0  0  0
  -25.4113  -36.3120   24.0346 C   0  0  1  0  0  0
  -20.5840  -28.3643   23.1346 C   0  0  2  0  0  0
  -20.6759  -26.9393   22.5419 C   0  0  0  0  0  0
  -19.5738  -26.6382   21.5215 C   0  0  0  0  0  0
  -18.1906  -26.7917   22.1616 C   0  0  0  0  0  0
  -19.1503  -28.8822   23.2911 C   0  0  0  0  0  0
  -18.9440  -30.1431   23.8917 C   0  0  0  0  0  0
  -17.6449  -30.6584   24.0560 C   0  0  0  0  0  0
  -25.9034  -34.9482   23.5145 C   0  0  0  0  0  0
  -16.5339  -29.9087   23.6328 C   0  0  0  0  0  0
  -16.7247  -28.6503   23.0350 C   0  0  0  0  0  0
  -26.4458  -31.6583   25.0703 C   0  0  0  0  0  0
  -25.3748  -31.3655   26.1469 C   0  0  0  0  0  0
  -27.0297  -30.3050   24.6009 C   0  0  0  0  0  0
  -27.6042  -32.4282   25.7471 C   0  0  0  0  0  0
  -27.5596  -37.1807   24.8457 C   0  0  0  0  0  0
  -21.4100  -29.3028   22.3775 N   0  0  0  0  0  0
  -26.4303  -37.3801   23.9414 N   0  0  0  0  0  0
  -24.6555  -31.0847   22.1018 N   0  0  0  0  0  0
  -23.4154  -28.8212   23.3062 O   0  0  0  0  0  0
  -28.4150  -26.7613   19.9692 O   0  0  0  0  0  0
  -26.5574  -34.8923   22.4691 O   0  0  0  0  0  0
  -23.5287  -32.1442   23.7570 O   0  0  0  0  0  0
  -27.9869  -23.4101   22.6928 C   0  0  0  0  0  0
  -30.3446  -19.3635   24.9545 C   0  0  0  0  0  0
  -28.6846  -25.9435   23.4700 C   0  0  0  0  0  0
  -28.4171  -24.3066   21.7028 C   0  0  0  0  0  0
  -28.7645  -25.6176   22.1010 C   0  0  0  0  0  0
  -27.9844  -23.8108   24.0388 C   0  0  0  0  0  0
  -29.9797  -20.6767   24.5498 C   0  0  0  0  0  0
  -30.0333  -18.5733   23.8827 C   0  0  0  0  0  0
  -28.5246  -23.8270   20.2652 C   0  0  0  0  0  0
  -26.9204  -18.5592   20.2001 C   0  0  0  0  0  0
  -29.2661  -26.6523   21.1060 C   0  0  0  0  0  0
  -27.6347  -22.8178   25.1355 C   0  0  0  0  0  0
  -30.1186  -21.9688   25.3119 C   0  0  0  0  0  0
  -30.2202  -17.1043   23.6895 C   0  0  0  0  0  0
  -27.4775  -18.9079   21.5860 C   0  0  0  0  0  0
  -28.8286  -22.4182   26.0320 C   0  0  0  0  0  0
  -31.5252  -16.7796   22.9463 C   0  0  0  0  0  0
  -29.0034  -19.0874   21.5835 C   0  0  0  0  0  0
  -31.8154  -15.2773   22.8373 C   0  0  0  0  0  0
  -28.3094  -25.0632   24.4245 N   0  0  0  0  0  0
  -29.4831  -20.6857   23.3252 N   0  0  0  0  0  0
  -29.5074  -19.4040   22.9106 N   0  0  0  0  0  0
  -30.7921  -14.5581   22.0815 N   0  0  0  0  0  0
  -31.4468  -12.3953   19.0461 H   0  0  0  0  0  0
  -30.3063  -11.2588   19.7077 H   0  0  0  0  0  0
  -29.6949  -11.8600   17.3571 H   0  0  0  0  0  0
  -29.6253  -13.5527   17.7868 H   0  0  0  0  0  0
  -27.8246  -11.3185   18.7972 H   0  0  0  0  0  0
  -27.3341  -12.6553   17.7905 H   0  0  0  0  0  0
  -27.7201  -14.2573   19.5933 H   0  0  0  0  0  0
  -28.6441  -11.9386   21.3579 H   0  0  0  0  0  0
  -28.4657  -13.6056   21.8411 H   0  0  0  0  0  0
  -25.2755   -9.5692   22.4757 H   0  0  0  0  0  0
  -23.9993   -7.4646   22.7484 H   0  0  0  0  0  0
  -21.0837   -8.8764   19.8951 H   0  0  0  0  0  0
  -22.3690  -10.9665   19.6154 H   0  0  0  0  0  0
  -21.2012   -7.6148   23.9720 H   0  0  0  0  0  0
  -21.1485   -6.0525   25.9079 H   0  0  0  0  0  0
  -22.0592   -2.7611   23.2848 H   0  0  0  0  0  0
  -22.4103  -11.9882   22.4754 H   0  0  0  0  0  0
  -21.1132  -13.1274   22.2594 H   0  0  0  0  0  0
  -24.6724  -15.8467   20.5293 H   0  0  0  0  0  0
  -26.2979  -15.6262   20.1224 H   0  0  0  0  0  0
  -26.7067  -32.5597   23.1184 H   0  0  0  0  0  0
  -25.0114  -33.9798   25.0546 H   0  0  0  0  0  0
  -22.6793  -31.3063   21.4123 H   0  0  0  0  0  0
  -23.3767  -35.9643   23.3283 H   0  0  0  0  0  0
  -24.3606  -36.8941   22.2054 H   0  0  0  0  0  0
  -23.7231  -37.6517   23.6651 H   0  0  0  0  0  0
  -26.0100  -31.6086   20.5837 H   0  0  0  0  0  0
  -26.8065  -30.9162   21.9696 H   0  0  0  0  0  0
  -28.0814  -29.1922   21.1554 H   0  0  0  0  0  0
  -26.1274  -26.0113   18.9858 H   0  0  0  0  0  0
  -23.9999  -27.2841   19.0339 H   0  0  0  0  0  0
  -23.6943  -30.5844   19.4031 H   0  0  0  0  0  0
  -22.7274  -29.2234   19.8839 H   0  0  0  0  0  0
  -25.1284  -36.1992   25.0838 H   0  0  0  0  0  0
  -20.9912  -28.3203   24.1474 H   0  0  0  0  0  0
  -20.5687  -26.2248   23.3592 H   0  0  0  0  0  0
  -21.6627  -26.7461   22.1197 H   0  0  0  0  0  0
  -19.6909  -25.6297   21.1231 H   0  0  0  0  0  0
  -19.6686  -27.3208   20.6757 H   0  0  0  0  0  0
  -17.4181  -26.6667   21.4009 H   0  0  0  0  0  0
  -18.0301  -26.0044   22.8996 H   0  0  0  0  0  0
  -19.7923  -30.7232   24.2297 H   0  0  0  0  0  0
  -17.5014  -31.6276   24.5138 H   0  0  0  0  0  0
  -15.5345  -30.3004   23.7645 H   0  0  0  0  0  0
  -15.8640  -28.0840   22.7061 H   0  0  0  0  0  0
  -24.5931  -30.6988   25.7810 H   0  0  0  0  0  0
  -24.8932  -32.2798   26.4945 H   0  0  0  0  0  0
  -25.8130  -30.8812   27.0205 H   0  0  0  0  0  0
  -26.2822  -29.6816   24.1089 H   0  0  0  0  0  0
  -27.4142  -29.7268   25.4419 H   0  0  0  0  0  0
  -27.8619  -30.4415   23.9097 H   0  0  0  0  0  0
  -27.2671  -33.3569   26.2086 H   0  0  0  0  0  0
  -28.3848  -32.6844   25.0297 H   0  0  0  0  0  0
  -28.0707  -31.8370   26.5359 H   0  0  0  0  0  0
  -28.2572  -38.0146   24.7565 H   0  0  0  0  0  0
  -28.1131  -36.2675   24.6211 H   0  0  0  0  0  0
  -27.2316  -37.1375   25.8858 H   0  0  0  0  0  0
  -20.9245  -29.8768   21.7026 H   0  0  0  0  0  0
  -26.0200  -38.2880   24.1424 H   0  0  0  0  0  0
  -27.7152  -22.3968   22.4295 H   0  0  0  0  0  0
  -30.7847  -19.0484   25.8905 H   0  0  0  0  0  0
  -28.9518  -26.9308   23.8179 H   0  0  0  0  0  0
  -28.4182  -22.7435   20.2028 H   0  0  0  0  0  0
  -29.4950  -24.0837   19.8400 H   0  0  0  0  0  0
  -27.7464  -24.2731   19.6472 H   0  0  0  0  0  0
  -25.8375  -18.4342   20.2367 H   0  0  0  0  0  0
  -27.3496  -17.6300   19.8245 H   0  0  0  0  0  0
  -27.1385  -19.3454   19.4762 H   0  0  0  0  0  0
  -30.2448  -26.3254   20.7536 H   0  0  0  0  0  0
  -29.4446  -27.6079   21.5967 H   0  0  0  0  0  0
  -27.2098  -21.9221   24.6811 H   0  0  0  0  0  0
  -26.8406  -23.2425   25.7506 H   0  0  0  0  0  0
  -30.4699  -22.7598   24.6485 H   0  0  0  0  0  0
  -30.9072  -21.8557   26.0569 H   0  0  0  0  0  0
  -29.3654  -16.6898   23.1541 H   0  0  0  0  0  0
  -30.2261  -16.6148   24.6638 H   0  0  0  0  0  0
  -27.2057  -18.1220   22.2921 H   0  0  0  0  0  0
  -27.0041  -19.8224   21.9469 H   0  0  0  0  0  0
  -28.5108  -21.6395   26.7249 H   0  0  0  0  0  0
  -29.0800  -23.2810   26.6487 H   0  0  0  0  0  0
  -32.3546  -17.2491   23.4772 H   0  0  0  0  0  0
  -31.5187  -17.2280   21.9526 H   0  0  0  0  0  0
  -29.2890  -19.8888   20.9003 H   0  0  0  0  0  0
  -29.4921  -18.1845   21.2185 H   0  0  0  0  0  0
  -31.8729  -14.8403   23.8350 H   0  0  0  0  0  0
  -32.7992  -15.1228   22.3895 H   0  0  0  0  0  0
  -30.0848  -14.0717   22.6143 H   0  0  0  0  0  0
  1 25  1  0  0  0
  1 30  2  0  0  0
  1 93  1  0  0  0
  2  3  1  0  0  0
  2 25  1  0  0  0
  2 94  1  0  0  0
  2 95  1  0  0  0
  3  4  1  0  0  0
  3 96  1  0  0  0
  3 97  1  0  0  0
  4  5  1  0  0  0
  4 98  1  0  0  0
  4 99  1  0  0  0
  5  6  1  0  0  0
  5 26  1  0  0  0
  5100  1  0  0  0
  6 25  1  0  0  0
  6101  1  0  0  0
  6102  1  0  0  0
  7  8  2  0  0  0
  7 26  1  0  0  0
  7 29  1  0  0  0
  8  9  1  0  0  0
  8 22  1  0  0  0
  9 10  1  0  0  0
  9 27  2  0  0  0
 10 11  2  0  0  0
 10 15  1  0  0  0
 11 12  1  0  0  0
 11103  1  0  0  0
 12 13  2  0  0  0
 12104  1  0  0  0
 13 14  1  0  0  0
 13 31  1  0  0  0
 14 15  2  0  0  0
 14105  1  0  0  0
 15106  1  0  0  0
 16 17  2  0  0  0
 16 21  1  0  0  0
 16 31  1  0  0  0
 17 18  1  0  0  0
 17107  1  0  0  0
 18 19  2  0  0  0
 18108  1  0  0  0
 19 20  1  0  0  0
 19 24  1  0  0  0
 20 21  2  0  0  0
 20109  1  0  0  0
 21 23  1  0  0  0
 22 28  1  0  0  0
 22 32  2  0  0  0
 26 27  1  0  0  0
 28110  1  0  0  0
 28111  1  0  0  0
 29112  1  0  0  0
 29113  1  0  0  0
 33 34  1  0  0  0
 33 66  1  0  0  0
 33 70  2  0  0  0
 34 36  1  0  0  0
 34 59  1  0  0  0
 34114  1  0  0  0
 35 44  2  0  0  0
 35 45  1  0  0  0
 35 68  1  0  0  0
 36 56  1  0  0  0
 36115  1  0  0  0
 37 39  1  0  0  0
 37 47  1  0  0  0
 37 66  1  0  0  0
 37116  1  0  0  0
 38 43  2  0  0  0
 38 46  1  0  0  0
 38 47  1  0  0  0
 39 64  1  0  0  0
 39 67  2  0  0  0
 40 52  1  0  0  0
 40 53  2  0  0  0
 40 58  1  0  0  0
 41117  1  0  0  0
 41118  1  0  0  0
 41119  1  0  0  0
 41 48  1  0  0  0
 42 43  1  0  0  0
 42 66  1  0  0  0
 42120  1  0  0  0
 42121  1  0  0  0
 43 44  1  0  0  0
 44122  1  0  0  0
 45 46  2  0  0  0
 45123  1  0  0  0
 46124  1  0  0  0
 47125  1  0  0  0
 47126  1  0  0  0
 48 56  1  0  0  0
 48 65  1  0  0  0
 48127  1  0  0  0
 49 50  1  0  0  0
 49 53  1  0  0  0
 49 64  1  0  0  0
 49128  1  0  0  0
 50 51  1  0  0  0
 50129  1  0  0  0
 50130  1  0  0  0
 51 52  1  0  0  0
 51131  1  0  0  0
 51132  1  0  0  0
 52133  1  0  0  0
 52134  1  0  0  0
 53 54  1  0  0  0
 54 55  2  0  0  0
 54135  1  0  0  0
 55 57  1  0  0  0
 55136  1  0  0  0
 56 69  2  0  0  0
 57 58  2  0  0  0
 57137  1  0  0  0
 58138  1  0  0  0
 59 60  1  0  0  0
 59 61  1  0  0  0
 59 62  1  0  0  0
 60139  1  0  0  0
 60140  1  0  0  0
 60141  1  0  0  0
 61142  1  0  0  0
 61143  1  0  0  0
 61144  1  0  0  0
 62145  1  0  0  0
 62146  1  0  0  0
 62147  1  0  0  0
 63 65  1  0  0  0
 63148  1  0  0  0
 63149  1  0  0  0
 63150  1  0  0  0
 64151  1  0  0  0
 65152  1  0  0  0
 68 81  1  0  0  0
 71 74  2  0  0  0
 71 76  1  0  0  0
 71153  1  0  0  0
 72 77  1  0  0  0
 72 78  2  0  0  0
 72154  1  0  0  0
 73 75  2  0  0  0
 73 90  1  0  0  0
 73155  1  0  0  0
 74 75  1  0  0  0
 74 79  1  0  0  0
 75 81  1  0  0  0
 76 82  1  0  0  0
 76 90  2  0  0  0
 77 83  1  0  0  0
 77 91  2  0  0  0
 78 84  1  0  0  0
 78 92  1  0  0  0
 79156  1  0  0  0
 79157  1  0  0  0
 79158  1  0  0  0
 80 85  1  0  0  0
 80159  1  0  0  0
 80160  1  0  0  0
 80161  1  0  0  0
 81162  1  0  0  0
 81163  1  0  0  0
 82 86  1  0  0  0
 82164  1  0  0  0
 82165  1  0  0  0
 83 86  1  0  0  0
 83166  1  0  0  0
 83167  1  0  0  0
 84 87  1  0  0  0
 84168  1  0  0  0
 84169  1  0  0  0
 85 88  1  0  0  0
 85170  1  0  0  0
 85171  1  0  0  0
 86172  1  0  0  0
 86173  1  0  0  0
 87 89  1  0  0  0
 87174  1  0  0  0
 87175  1  0  0  0
 88 92  1  0  0  0
 88176  1  0  0  0
 88177  1  0  0  0
 89 93  1  0  0  0
 89178  1  0  0  0
 89179  1  0  0  0
 91 92  1  0  0  0
 93180  1  0  0  0
M  ISO  4   1 100  68 101  81 101  93 100
M  END
> <chiral flag>
0

> <version>
0

> <s_m_source_file>
/data/baiqing/PycharmProjects/Reinvent-master-3.2/result/LINK_invent/BTK/process_docking_weight1_custom_sum_contain_oxygen_bond_distance_aromatic_linkinvent_7_9_3/rearranged_h_0037.sdf

> <i_m_source_file_index>
23

> <r_mmod_Potential_Energy-OPLS-2005>
-263.318542480469

> <r_mmod_Stretch_Energy-OPLS-2005>
30.4348297119141

> <r_mmod_Bend_Energy-OPLS-2005>
92.9609603881836

> <r_mmod_Torsional_Energy-OPLS-2005>
224.912048339844

> <r_mmod_Improper_Torsional_Energy-OPLS-2005>
6.82050943374634

> <r_mmod_Van_der_Waal_Energy-OPLS-2005>
128.576782226562

> <r_mmod_Electrostatic_Energy-OPLS-2005>
-532.602172851562

> <r_mmod_Solvation_Energy-OPLS-2005>
-223.917129516602

> <b_mmod_Minimization_Converged-OPLS-2005>
0

> <r_mmod_RMS_Derivative-OPLS-2005>
1.04296219348907

$$$$
23
                    3D
 Structure written by MMmdl.
165173  0  0  1  0            999 V2000
  -28.5840  -16.4535   20.7320 C   0  0  0  0  0  0
  -29.9497  -13.9797   19.7337 C   0  0  0  0  0  0
  -29.4664  -13.0112   18.5527 C   0  0  0  0  0  0
  -28.1636  -12.2914   18.9089 C   0  0  0  0  0  0
  -27.4046  -13.2585   19.8147 C   0  0  2  0  0  0
  -28.1551  -13.7543   21.0483 C   0  0  0  0  0  0
  -25.1339  -13.7970   20.5501 C   0  0  0  0  0  0
  -24.0968  -13.0185   20.9381 C   0  0  0  0  0  0
  -24.5705  -11.6693   20.8874 C   0  0  0  0  0  0
  -23.8633  -10.4112   21.0555 C   0  0  0  0  0  0
  -24.3378   -9.4093   21.9271 C   0  0  0  0  0  0
  -23.6161   -8.2087   22.0772 C   0  0  0  0  0  0
  -22.4153   -8.0119   21.3544 C   0  0  0  0  0  0
  -21.9697   -9.0043   20.4649 C   0  0  0  0  0  0
  -22.6908  -10.1957   20.3108 C   0  0  0  0  0  0
  -21.6796   -6.0652   22.5303 C   0  0  0  0  0  0
  -21.3975   -6.5595   23.8225 C   0  0  0  0  0  0
  -21.3641   -5.6766   24.9197 C   0  0  0  0  0  0
  -21.6039   -4.3028   24.7257 C   0  0  0  0  0  0
  -21.8828   -3.8101   23.4385 C   0  0  0  0  0  0
  -21.9178   -4.6899   22.3433 C   0  0  0  0  0  0
  -22.7142  -13.5060   21.2113 C   0  0  0  0  0  0
  -22.1658   -4.2095   21.1008 F   0  0  0  0  0  0
  -21.5630   -3.4521   25.7775 F   0  0  0  0  0  0
  -28.8339  -14.9084   20.4861 N   0  0  0  0  0  0
  -26.1308  -12.8970   20.2575 N   0  0  0  0  0  0
  -25.8444  -11.6189   20.5457 N   0  0  0  0  0  0
  -21.9843  -12.8100   22.0708 N   0  0  0  0  0  0
  -25.3084  -15.1736   20.3833 N   0  0  0  0  0  0
  -29.8698  -16.6217   20.5847 O   0  0  0  0  0  0
  -21.6547   -6.8728   21.4239 O   0  0  0  0  0  0
  -22.2986  -14.5430   20.6952 O   0  0  0  0  0  0
  -24.6400  -32.0328   23.0148 C   0  0  0  0  0  0
  -25.9185  -32.5384   23.7782 C   0  0  1  0  0  0
  -26.6990  -27.4850   20.9412 C   0  0  0  0  0  0
  -25.6029  -33.8963   24.2152 N   0  0  0  0  0  0
  -23.5386  -30.5796   21.2460 C   0  0  2  0  0  0
  -24.9982  -29.1828   19.7567 C   0  0  0  0  0  0
  -23.6030  -29.2954   22.0592 C   0  0  0  0  0  0
  -18.2768  -27.1209   23.2397 C   0  0  0  0  0  0
  -24.1455  -36.7533   23.2628 C   0  0  0  0  0  0
  -26.0124  -31.0920   21.1092 C   0  0  0  0  0  0
  -26.0997  -29.6964   20.4772 C   0  0  0  0  0  0
  -27.1076  -28.8188   20.8868 C   0  0  0  0  0  0
  -25.8974  -26.9475   19.9117 C   0  0  0  0  0  0
  -24.9734  -27.8329   19.3341 C   0  0  0  0  0  0
  -23.7422  -30.0411   19.8092 C   0  0  0  0  0  0
  -25.4075  -36.3362   24.0345 C   0  0  1  0  0  0
  -22.1746  -27.1067   23.0359 C   0  0  2  0  0  0
  -22.2151  -26.1296   20.8750 C   0  0  0  0  0  0
  -19.9630  -25.1448   20.1757 C   0  0  0  0  0  0
  -18.1717  -25.6217   21.7620 C   0  0  0  0  0  0
  -19.7408  -27.6690   24.1598 C   0  0  0  0  0  0
  -19.2379  -28.9931   24.7408 C   0  0  0  0  0  0
  -18.0673  -29.8091   24.4404 C   0  0  0  0  0  0
  -25.9056  -34.9841   23.5025 C   0  0  0  0  0  0
  -17.0069  -29.3350   23.6653 C   0  0  0  0  0  0
  -17.1273  -28.0290   23.1340 C   0  0  0  0  0  0
  -26.4339  -31.6915   25.0226 C   0  0  0  0  0  0
  -25.3519  -31.3927   26.0839 C   0  0  0  0  0  0
  -27.0773  -30.3604   24.5777 C   0  0  0  0  0  0
  -27.5794  -32.4592   25.7334 C   0  0  0  0  0  0
  -27.5595  -37.1946   24.8466 C   0  0  0  0  0  0
  -22.8997  -28.1414   22.0003 N   0  0  0  0  0  0
  -26.4252  -37.4046   23.9504 N   0  0  0  0  0  0
  -24.7123  -31.4149   21.7681 N   0  0  0  0  0  0
  -24.4839  -29.3550   22.8236 O   0  0  0  0  0  0
  -26.5705  -27.0528   22.2780 O   0  0  0  0  0  0
  -26.5544  -34.9354   22.4536 O   0  0  0  0  0  0
  -23.5523  -32.1948   23.5909 O   0  0  0  0  0  0
  -20.9794  -24.8612   22.2144 C   0  0  0  0  0  0
  -20.1803  -26.7533   21.6530 C   0  0  0  0  0  0
  -20.3166  -25.8642   22.7588 C   0  0  0  0  0  0
  -18.9464  -27.4116   20.2717 C   0  0  0  0  0  0
  -20.1895  -25.1517   24.1855 C   0  0  0  0  0  0
  -22.7565  -23.1764   22.1497 C   0  0  0  0  0  0
  -24.0656  -21.1173   21.5292 C   0  0  0  0  0  0
  -22.3354  -29.0930   24.3704 C   0  0  0  0  0  0
  -23.9740  -27.9499   24.5919 C   0  0  0  0  0  0
  -20.9729  -29.2624   22.8660 C   0  0  0  0  0  0
  -26.0223  -19.5313   21.4097 C   0  0  0  0  0  0
  -25.2112  -27.0222   23.3528 C   0  0  0  0  0  0
  -20.5604  -27.8181   20.8631 N   0  0  0  0  0  0
  -20.3375  -27.7405   22.0207 N   0  0  0  0  0  0
  -27.1607  -17.6460   20.9992 N   0  0  0  0  0  0
  -30.6842  -14.6542   19.2919 H   0  0  0  0  0  0
  -30.5377  -13.4177   20.4635 H   0  0  0  0  0  0
  -30.2471  -12.3006   18.2787 H   0  0  0  0  0  0
  -29.2841  -13.6211   17.6666 H   0  0  0  0  0  0
  -28.3807  -11.3685   19.4510 H   0  0  0  0  0  0
  -27.5913  -12.0221   18.0195 H   0  0  0  0  0  0
  -27.1961  -14.0812   19.1257 H   0  0  0  0  0  0
  -28.7590  -12.9844   21.5319 H   0  0  0  0  0  0
  -27.4920  -14.1289   21.8296 H   0  0  0  0  0  0
  -25.2516   -9.5655   22.4833 H   0  0  0  0  0  0
  -23.9913   -7.4470   22.7467 H   0  0  0  0  0  0
  -21.0639   -8.8492   19.8950 H   0  0  0  0  0  0
  -22.3345  -10.9498   19.6228 H   0  0  0  0  0  0
  -21.1958   -7.6104   23.9711 H   0  0  0  0  0  0
  -21.1455   -6.0503   25.9097 H   0  0  0  0  0  0
  -22.0626   -2.7564   23.2901 H   0  0  0  0  0  0
  -22.3428  -11.9722   22.5045 H   0  0  0  0  0  0
  -21.0497  -13.1184   22.2987 H   0  0  0  0  0  0
  -24.4363  -15.6938   20.3796 H   0  0  0  0  0  0
  -25.8924  -15.4333   19.5979 H   0  0  0  0  0  0
  -26.7648  -32.6269   23.1056 H   0  0  0  0  0  0
  -25.0367  -33.9943   25.0453 H   0  0  0  0  0  0
  -22.6279  -31.1700   21.3234 H   0  0  0  0  0  0
  -23.3744  -35.9828   23.3212 H   0  0  0  0  0  0
  -24.3590  -36.9228   22.2062 H   0  0  0  0  0  0
  -23.7153  -37.6698   23.6682 H   0  0  0  0  0  0
  -26.1875  -31.8300   20.3273 H   0  0  0  0  0  0
  -26.8667  -31.1544   21.7716 H   0  0  0  0  0  0
  -27.8061  -29.1800   21.6308 H   0  0  0  0  0  0
  -25.6802  -25.8881   19.8602 H   0  0  0  0  0  0
  -24.1584  -27.4445   18.7427 H   0  0  0  0  0  0
  -23.8488  -30.8691   19.1094 H   0  0  0  0  0  0
  -22.8738  -29.4670   19.4799 H   0  0  0  0  0  0
  -25.1233  -36.2146   25.0827 H   0  0  0  0  0  0
  -22.6898  -26.3213   23.5886 H   0  0  0  0  0  0
  -23.0143  -25.3938   20.8087 H   0  0  0  0  0  0
  -22.5504  -26.7978   20.0803 H   0  0  0  0  0  0
  -20.0387  -24.0601   20.0659 H   0  0  0  0  0  0
  -19.7557  -25.4222   19.1405 H   0  0  0  0  0  0
  -17.1960  -25.6683   21.2753 H   0  0  0  0  0  0
  -18.0448  -24.7016   22.3365 H   0  0  0  0  0  0
  -19.9251  -29.5571   25.3500 H   0  0  0  0  0  0
  -17.9789  -30.7857   24.8969 H   0  0  0  0  0  0
  -16.1276  -29.9385   23.4911 H   0  0  0  0  0  0
  -16.3142  -27.7009   22.5023 H   0  0  0  0  0  0
  -24.5310  -30.8095   25.6733 H   0  0  0  0  0  0
  -24.9237  -32.3097   26.4899 H   0  0  0  0  0  0
  -25.7560  -30.8261   26.9235 H   0  0  0  0  0  0
  -26.3680  -29.6685   24.1489 H   0  0  0  0  0  0
  -27.5342  -29.8381   25.4193 H   0  0  0  0  0  0
  -27.8613  -30.5242   23.8380 H   0  0  0  0  0  0
  -27.2398  -33.3898   26.1887 H   0  0  0  0  0  0
  -28.3775  -32.7158   25.0357 H   0  0  0  0  0  0
  -28.0280  -31.8698   26.5342 H   0  0  0  0  0  0
  -28.2553  -38.0307   24.7632 H   0  0  0  0  0  0
  -28.1144  -36.2863   24.6076 H   0  0  0  0  0  0
  -27.2390  -37.1368   25.8884 H   0  0  0  0  0  0
  -22.2999  -28.1436   21.1783 H   0  0  0  0  0  0
  -26.0138  -38.3089   24.1662 H   0  0  0  0  0  0
  -18.1743  -26.7750   19.8385 H   0  0  0  0  0  0
  -19.2951  -27.6752   19.2426 H   0  0  0  0  0  0
  -18.3306  -28.2610   20.6084 H   0  0  0  0  0  0
  -19.2467  -25.3260   24.7037 H   0  0  0  0  0  0
  -20.9916  -25.4490   24.8631 H   0  0  0  0  0  0
  -20.2252  -24.0569   24.1650 H   0  0  0  0  0  0
  -22.6977  -22.8877   23.2000 H   0  0  0  0  0  0
  -23.6309  -23.8260   22.1460 H   0  0  0  0  0  0
  -23.8814  -21.1623   20.4563 H   0  0  0  0  0  0
  -23.3309  -20.3965   21.8932 H   0  0  0  0  0  0
  -22.6443  -30.1137   24.5812 H   0  0  0  0  0  0
  -21.8198  -28.8542   25.2947 H   0  0  0  0  0  0
  -23.6582  -27.1693   25.2843 H   0  0  0  0  0  0
  -24.6315  -28.5287   25.2412 H   0  0  0  0  0  0
  -21.2549  -29.9132   22.0603 H   0  0  0  0  0  0
  -20.2093  -30.0219   23.0066 H   0  0  0  0  0  0
  -26.2615  -19.5520   22.4734 H   0  0  0  0  0  0
  -26.7502  -20.2145   20.9713 H   0  0  0  0  0  0
  -24.6181  -26.2978   22.8014 H   0  0  0  0  0  0
  -25.6982  -26.3849   24.0905 H   0  0  0  0  0  0
  -26.4090  -16.9616   20.9714 H   0  0  0  0  0  0
  1 25  1  0  0  0
  1 30  2  0  0  0
  1 85  1  0  0  0
  2  3  1  0  0  0
  2 25  1  0  0  0
  2 86  1  0  0  0
  2 87  1  0  0  0
  3  4  1  0  0  0
  3 88  1  0  0  0
  3 89  1  0  0  0
  4  5  1  0  0  0
  4 90  1  0  0  0
  4 91  1  0  0  0
  5  6  1  0  0  0
  5 26  1  0  0  0
  5 92  1  0  0  0
  6 25  1  0  0  0
  6 93  1  0  0  0
  6 94  1  0  0  0
  7  8  2  0  0  0
  7 26  1  0  0  0
  7 29  1  0  0  0
  8  9  1  0  0  0
  8 22  1  0  0  0
  9 10  1  0  0  0
  9 27  2  0  0  0
 10 11  2  0  0  0
 10 15  1  0  0  0
 11 12  1  0  0  0
 11 95  1  0  0  0
 12 13  2  0  0  0
 12 96  1  0  0  0
 13 14  1  0  0  0
 13 31  1  0  0  0
 14 15  2  0  0  0
 14 97  1  0  0  0
 15 98  1  0  0  0
 16 17  2  0  0  0
 16 21  1  0  0  0
 16 31  1  0  0  0
 17 18  1  0  0  0
 17 99  1  0  0  0
 18 19  2  0  0  0
 18100  1  0  0  0
 19 20  1  0  0  0
 19 24  1  0  0  0
 20 21  2  0  0  0
 20101  1  0  0  0
 21 23  1  0  0  0
 22 28  1  0  0  0
 22 32  2  0  0  0
 26 27  1  0  0  0
 28102  1  0  0  0
 28103  1  0  0  0
 29104  1  0  0  0
 29105  1  0  0  0
 33 34  1  0  0  0
 33 66  1  0  0  0
 33 70  2  0  0  0
 34 36  1  0  0  0
 34 59  1  0  0  0
 34106  1  0  0  0
 35 44  2  0  0  0
 35 45  1  0  0  0
 35 68  1  0  0  0
 36 56  1  0  0  0
 36107  1  0  0  0
 37 39  1  0  0  0
 37 47  1  0  0  0
 37 66  1  0  0  0
 37108  1  0  0  0
 38 43  2  0  0  0
 38 46  1  0  0  0
 38 47  1  0  0  0
 39 64  1  0  0  0
 39 67  2  0  0  0
 40 52  1  0  0  0
 40 53  2  0  0  0
 40 58  1  0  0  0
 41109  1  0  0  0
 41110  1  0  0  0
 41111  1  0  0  0
 41 48  1  0  0  0
 42 43  1  0  0  0
 42 66  1  0  0  0
 42112  1  0  0  0
 42113  1  0  0  0
 43 44  1  0  0  0
 44114  1  0  0  0
 45 46  2  0  0  0
 45115  1  0  0  0
 46116  1  0  0  0
 47117  1  0  0  0
 47118  1  0  0  0
 48 56  1  0  0  0
 48 65  1  0  0  0
 48119  1  0  0  0
 49 50  1  0  0  0
 49 53  1  0  0  0
 49 64  1  0  0  0
 49120  1  0  0  0
 50 51  1  0  0  0
 50121  1  0  0  0
 50122  1  0  0  0
 51 52  1  0  0  0
 51123  1  0  0  0
 51124  1  0  0  0
 52125  1  0  0  0
 52126  1  0  0  0
 53 54  1  0  0  0
 54 55  2  0  0  0
 54127  1  0  0  0
 55 57  1  0  0  0
 55128  1  0  0  0
 56 69  2  0  0  0
 57 58  2  0  0  0
 57129  1  0  0  0
 58130  1  0  0  0
 59 60  1  0  0  0
 59 61  1  0  0  0
 59 62  1  0  0  0
 60131  1  0  0  0
 60132  1  0  0  0
 60133  1  0  0  0
 61134  1  0  0  0
 61135  1  0  0  0
 61136  1  0  0  0
 62137  1  0  0  0
 62138  1  0  0  0
 62139  1  0  0  0
 63 65  1  0  0  0
 63140  1  0  0  0
 63141  1  0  0  0
 63142  1  0  0  0
 64143  1  0  0  0
 65144  1  0  0  0
 68 82  1  0  0  0
 71 72  1  0  0  0
 71 73  2  0  0  0
 71 76  1  0  0  0
 72 74  1  0  0  0
 72 83  2  0  0  0
 73 75  1  0  0  0
 73 84  1  0  0  0
 74145  1  0  0  0
 74146  1  0  0  0
 74147  1  0  0  0
 75148  1  0  0  0
 75149  1  0  0  0
 75150  1  0  0  0
 76 77  1  0  0  0
 76151  1  0  0  0
 76152  1  0  0  0
 77 81  1  0  0  0
 77153  1  0  0  0
 77154  1  0  0  0
 78 79  1  0  0  0
 78 80  1  0  0  0
 78155  1  0  0  0
 78156  1  0  0  0
 79 82  1  0  0  0
 79157  1  0  0  0
 79158  1  0  0  0
 80 84  1  0  0  0
 80159  1  0  0  0
 80160  1  0  0  0
 81 85  1  0  0  0
 81161  1  0  0  0
 81162  1  0  0  0
 82163  1  0  0  0
 82164  1  0  0  0
 83 84  1  0  0  0
 85165  1  0  0  0
M  ISO  4   1 100  68 101  82 101  85 100
M  END
> <chiral flag>
0

> <version>
0

> <s_m_source_file>
/data/baiqing/PycharmProjects/Reinvent-master-3.2/result/LINK_invent/BTK/process_docking_weight1_custom_sum_contain_oxygen_bond_distance_aromatic_linkinvent_7_9_3/rearranged_h_0037.sdf

> <i_m_source_file_index>
24

> <r_mmod_Potential_Energy-OPLS-2005>
28378.14453125

> <r_mmod_Stretch_Energy-OPLS-2005>
14022.517578125

> <r_mmod_Bend_Energy-OPLS-2005>
3155.2724609375

> <r_mmod_Torsional_Energy-OPLS-2005>
735.01611328125

> <r_mmod_Improper_Torsional_Energy-OPLS-2005>
119.392135620117

> <r_mmod_Van_der_Waal_Energy-OPLS-2005>
4238.337890625

> <r_mmod_Electrostatic_Energy-OPLS-2005>
-446.031463623047

> <r_mmod_Solvation_Energy-OPLS-2005>
-190.019805908203

> <b_mmod_Minimization_Converged-OPLS-2005>
0

> <r_mmod_RMS_Derivative-OPLS-2005>
5.13768148422241

$$$$
24
                    3D
 Structure written by MMmdl.
152160  0  0  1  0            999 V2000
  -30.5268  -14.9775   20.4301 C   0  0  0  0  0  0
  -30.4444  -12.6071   19.5082 C   0  0  0  0  0  0
  -29.5249  -12.5234   18.2664 C   0  0  0  0  0  0
  -28.0558  -12.3159   18.6817 C   0  0  0  0  0  0
  -27.6267  -13.2520   19.8417 C   0  0  2  0  0  0
  -28.6637  -13.2880   20.9818 C   0  0  0  0  0  0
  -25.2429  -13.8223   20.5765 C   0  0  0  0  0  0
  -24.1735  -13.0426   20.9248 C   0  0  0  0  0  0
  -24.6386  -11.6917   20.8750 C   0  0  0  0  0  0
  -23.9077  -10.4291   21.0412 C   0  0  0  0  0  0
  -24.3622   -9.4195   21.9190 C   0  0  0  0  0  0
  -23.6264   -8.2261   22.0780 C   0  0  0  0  0  0
  -22.4247   -8.0313   21.3573 C   0  0  0  0  0  0
  -21.9894   -9.0283   20.4679 C   0  0  0  0  0  0
  -22.7237  -10.2138   20.3067 C   0  0  0  0  0  0
  -21.6845   -6.0734   22.5271 C   0  0  0  0  0  0
  -21.4038   -6.5638   23.8209 C   0  0  0  0  0  0
  -21.3665   -5.6794   24.9171 C   0  0  0  0  0  0
  -21.6020   -4.3043   24.7216 C   0  0  0  0  0  0
  -21.8813   -3.8145   23.4334 C   0  0  0  0  0  0
  -21.9188   -4.6959   22.3392 C   0  0  0  0  0  0
  -22.7760  -13.5194   21.1893 C   0  0  0  0  0  0
  -22.1646   -4.2166   21.0954 F   0  0  0  0  0  0
  -21.5618   -3.4530   25.7722 F   0  0  0  0  0  0
  -29.9392  -13.7110   20.3824 N   0  0  0  0  0  0
  -26.2846  -12.9474   20.3234 N   0  0  0  0  0  0
  -25.9301  -11.6589   20.5705 N   0  0  0  0  0  0
  -22.0401  -12.8219   22.0457 N   0  0  0  0  0  0
  -25.4043  -15.1961   20.4225 N   0  0  0  0  0  0
  -31.7327  -15.0359   20.1635 O   0  0  0  0  0  0
  -21.6636   -6.8887   21.4238 O   0  0  0  0  0  0
  -22.3428  -14.5494   20.6706 O   0  0  0  0  0  0
  -24.6456  -31.8429   23.1854 C   0  0  0  0  0  0
  -25.9207  -32.4701   23.8255 C   0  0  1  0  0  0
  -27.1965  -27.0804   20.1807 C   0  0  0  0  0  0
  -25.5959  -33.8502   24.2170 N   0  0  0  0  0  0
  -23.4499  -30.4625   21.5314 C   0  0  2  0  0  0
  -24.9025  -28.8854   20.1084 C   0  0  0  0  0  0
  -22.7594  -29.4536   22.4833 C   0  0  0  0  0  0
  -18.0317  -28.1404   22.8485 C   0  0  0  0  0  0
  -24.1512  -36.7243   23.2637 C   0  0  0  0  0  0
  -26.0106  -30.6994   21.3971 C   0  0  0  0  0  0
  -26.0788  -29.3062   20.7415 C   0  0  0  0  0  0
  -27.2300  -28.4217   20.7560 C   0  0  0  0  0  0
  -25.9994  -26.7793   19.4986 C   0  0  0  0  0  0
  -24.8805  -27.6399   19.4643 C   0  0  0  0  0  0
  -23.6839  -29.7990   20.1477 C   0  0  0  0  0  0
  -25.4156  -36.3034   24.0306 C   0  0  1  0  0  0
  -20.5935  -28.3744   23.1260 C   0  0  2  0  0  0
  -20.6825  -26.9443   22.5434 C   0  0  0  0  0  0
  -19.5795  -26.6391   21.5250 C   0  0  0  0  0  0
  -18.1965  -26.7951   22.1633 C   0  0  0  0  0  0
  -19.1568  -28.8883   23.2873 C   0  0  0  0  0  0
  -18.9487  -30.1475   23.8917 C   0  0  0  0  0  0
  -17.6479  -30.6605   24.0562 C   0  0  0  0  0  0
  -25.9103  -34.9420   23.5059 C   0  0  0  0  0  0
  -16.5372  -29.9101   23.6328 C   0  0  0  0  0  0
  -16.7296  -28.6505   23.0374 C   0  0  0  0  0  0
  -26.4518  -31.6562   25.0700 C   0  0  0  0  0  0
  -25.3669  -31.3759   26.1373 C   0  0  0  0  0  0
  -27.0381  -30.2954   24.6286 C   0  0  0  0  0  0
  -27.6086  -32.4294   25.7471 C   0  0  0  0  0  0
  -27.5597  -37.1782   24.8459 C   0  0  0  0  0  0
  -21.4273  -29.3062   22.3598 N   0  0  0  0  0  0
  -26.4302  -37.3760   23.9403 N   0  0  0  0  0  0
  -24.7213  -31.0259   22.0926 N   0  0  0  0  0  0
  -23.4234  -28.8082   23.2991 O   0  0  0  0  0  0
  -28.2272  -26.0561   20.2290 O   0  0  0  0  0  0
  -26.5676  -34.8908   22.4638 O   0  0  0  0  0  0
  -23.5574  -32.1330   23.7077 O   0  0  0  0  0  0
  -27.2676  -20.0169   22.0447 C   0  0  0  0  0  0
  -27.5075  -21.3041   21.5133 C   0  0  0  0  0  0
  -28.0862  -18.9057   21.7252 C   0  0  0  0  0  0
  -28.5837  -21.5417   20.6437 C   0  0  0  0  0  0
  -29.1331  -19.0416   20.7798 C   0  0  0  0  0  0
  -27.8537  -17.6142   22.5028 C   0  0  0  0  0  0
  -28.8786  -23.1249   20.1767 C   0  0  0  0  0  0
  -30.0806  -17.7188   20.4022 C   0  0  0  0  0  0
  -27.9182  -24.5178   20.4730 C   0  0  0  0  0  0
  -29.3539  -20.3769   20.2920 N   0  0  0  0  0  0
  -29.7509  -16.1667   20.5664 N   0  0  0  0  0  0
  -31.4760  -12.7768   19.1883 H   0  0  0  0  0  0
  -30.4596  -11.6587   20.0475 H   0  0  0  0  0  0
  -29.8386  -11.7112   17.6084 H   0  0  0  0  0  0
  -29.6239  -13.4381   17.6802 H   0  0  0  0  0  0
  -27.9371  -11.2735   18.9824 H   0  0  0  0  0  0
  -27.4007  -12.4568   17.8223 H   0  0  0  0  0  0
  -27.5899  -14.2525   19.4129 H   0  0  0  0  0  0
  -28.7518  -12.3144   21.4624 H   0  0  0  0  0  0
  -28.3560  -13.9924   21.7569 H   0  0  0  0  0  0
  -25.2769   -9.5659   22.4757 H   0  0  0  0  0  0
  -23.9980   -7.4624   22.7465 H   0  0  0  0  0  0
  -21.0837   -8.8782   19.8961 H   0  0  0  0  0  0
  -22.3704  -10.9674   19.6176 H   0  0  0  0  0  0
  -21.2087   -7.6160   23.9719 H   0  0  0  0  0  0
  -21.1471   -6.0520   25.9067 H   0  0  0  0  0  0
  -22.0595   -2.7609   23.2808 H   0  0  0  0  0  0
  -22.3988  -11.9899   22.4933 H   0  0  0  0  0  0
  -21.1025  -13.1264   22.2633 H   0  0  0  0  0  0
  -24.6377  -15.8416   20.5886 H   0  0  0  0  0  0
  -26.2103  -15.6473   20.0136 H   0  0  0  0  0  0
  -26.7256  -32.5295   23.0965 H   0  0  0  0  0  0
  -25.0104  -33.9634   25.0308 H   0  0  0  0  0  0
  -22.7527  -31.2889   21.3815 H   0  0  0  0  0  0
  -23.3797  -35.9547   23.3302 H   0  0  0  0  0  0
  -24.3588  -36.8879   22.2050 H   0  0  0  0  0  0
  -23.7252  -37.6432   23.6680 H   0  0  0  0  0  0
  -26.1802  -31.4513   20.6248 H   0  0  0  0  0  0
  -26.8767  -30.7488   22.0447 H   0  0  0  0  0  0
  -28.1224  -28.7426   21.2741 H   0  0  0  0  0  0
  -25.9009  -25.8328   18.9879 H   0  0  0  0  0  0
  -23.9914  -27.3255   18.9351 H   0  0  0  0  0  0
  -23.8334  -30.5805   19.4026 H   0  0  0  0  0  0
  -22.7956  -29.2551   19.8231 H   0  0  0  0  0  0
  -25.1345  -36.1867   25.0791 H   0  0  0  0  0  0
  -21.0030  -28.3349   24.1383 H   0  0  0  0  0  0
  -20.5814  -26.2318   23.3636 H   0  0  0  0  0  0
  -21.6682  -26.7510   22.1172 H   0  0  0  0  0  0
  -19.6964  -25.6301   21.1293 H   0  0  0  0  0  0
  -19.6752  -27.3192   20.6775 H   0  0  0  0  0  0
  -17.4251  -26.6718   21.4026 H   0  0  0  0  0  0
  -18.0342  -26.0100   22.9024 H   0  0  0  0  0  0
  -19.7953  -30.7283   24.2344 H   0  0  0  0  0  0
  -17.5029  -31.6294   24.5135 H   0  0  0  0  0  0
  -15.5380  -30.3010   23.7658 H   0  0  0  0  0  0
  -15.8688  -28.0818   22.7138 H   0  0  0  0  0  0
  -24.5827  -30.7150   25.7647 H   0  0  0  0  0  0
  -24.8876  -32.2954   26.4759 H   0  0  0  0  0  0
  -25.7910  -30.8907   27.0171 H   0  0  0  0  0  0
  -26.2972  -29.6662   24.1321 H   0  0  0  0  0  0
  -27.4039  -29.7290   25.4867 H   0  0  0  0  0  0
  -27.8890  -30.4230   23.9580 H   0  0  0  0  0  0
  -27.2709  -33.3597   26.2056 H   0  0  0  0  0  0
  -28.3881  -32.6822   25.0262 H   0  0  0  0  0  0
  -28.0742  -31.8369   26.5365 H   0  0  0  0  0  0
  -28.2600  -38.0091   24.7532 H   0  0  0  0  0  0
  -28.1100  -36.2629   24.6259 H   0  0  0  0  0  0
  -27.2295  -37.1396   25.8848 H   0  0  0  0  0  0
  -20.9484  -29.8680   21.6690 H   0  0  0  0  0  0
  -26.0174  -38.2818   24.1422 H   0  0  0  0  0  0
  -26.4612  -19.9028   22.7556 H   0  0  0  0  0  0
  -26.8692  -22.1192   21.8180 H   0  0  0  0  0  0
  -27.0302  -17.7121   23.2111 H   0  0  0  0  0  0
  -28.7399  -17.3647   23.0904 H   0  0  0  0  0  0
  -27.6163  -16.7723   21.8581 H   0  0  0  0  0  0
  -29.0368  -23.0883   19.0985 H   0  0  0  0  0  0
  -29.8584  -23.3452   20.5959 H   0  0  0  0  0  0
  -31.0048  -17.8729   20.9591 H   0  0  0  0  0  0
  -30.3695  -17.8486   19.3613 H   0  0  0  0  0  0
  -27.7023  -24.4803   21.5409 H   0  0  0  0  0  0
  -26.9609  -24.2936   20.0092 H   0  0  0  0  0  0
  -28.7697  -15.9909   20.7058 H   0  0  0  0  0  0
  1 25  1  0  0  0
  1 30  2  0  0  0
  1 81  1  0  0  0
  2  3  1  0  0  0
  2 25  1  0  0  0
  2 82  1  0  0  0
  2 83  1  0  0  0
  3  4  1  0  0  0
  3 84  1  0  0  0
  3 85  1  0  0  0
  4  5  1  0  0  0
  4 86  1  0  0  0
  4 87  1  0  0  0
  5  6  1  0  0  0
  5 26  1  0  0  0
  5 88  1  0  0  0
  6 25  1  0  0  0
  6 89  1  0  0  0
  6 90  1  0  0  0
  7  8  2  0  0  0
  7 26  1  0  0  0
  7 29  1  0  0  0
  8  9  1  0  0  0
  8 22  1  0  0  0
  9 10  1  0  0  0
  9 27  2  0  0  0
 10 11  2  0  0  0
 10 15  1  0  0  0
 11 12  1  0  0  0
 11 91  1  0  0  0
 12 13  2  0  0  0
 12 92  1  0  0  0
 13 14  1  0  0  0
 13 31  1  0  0  0
 14 15  2  0  0  0
 14 93  1  0  0  0
 15 94  1  0  0  0
 16 17  2  0  0  0
 16 21  1  0  0  0
 16 31  1  0  0  0
 17 18  1  0  0  0
 17 95  1  0  0  0
 18 19  2  0  0  0
 18 96  1  0  0  0
 19 20  1  0  0  0
 19 24  1  0  0  0
 20 21  2  0  0  0
 20 97  1  0  0  0
 21 23  1  0  0  0
 22 28  1  0  0  0
 22 32  2  0  0  0
 26 27  1  0  0  0
 28 98  1  0  0  0
 28 99  1  0  0  0
 29100  1  0  0  0
 29101  1  0  0  0
 33 34  1  0  0  0
 33 66  1  0  0  0
 33 70  2  0  0  0
 34 36  1  0  0  0
 34 59  1  0  0  0
 34102  1  0  0  0
 35 44  2  0  0  0
 35 45  1  0  0  0
 35 68  1  0  0  0
 36 56  1  0  0  0
 36103  1  0  0  0
 37 39  1  0  0  0
 37 47  1  0  0  0
 37 66  1  0  0  0
 37104  1  0  0  0
 38 43  2  0  0  0
 38 46  1  0  0  0
 38 47  1  0  0  0
 39 64  1  0  0  0
 39 67  2  0  0  0
 40 52  1  0  0  0
 40 53  2  0  0  0
 40 58  1  0  0  0
 41105  1  0  0  0
 41106  1  0  0  0
 41107  1  0  0  0
 41 48  1  0  0  0
 42 43  1  0  0  0
 42 66  1  0  0  0
 42108  1  0  0  0
 42109  1  0  0  0
 43 44  1  0  0  0
 44110  1  0  0  0
 45 46  2  0  0  0
 45111  1  0  0  0
 46112  1  0  0  0
 47113  1  0  0  0
 47114  1  0  0  0
 48 56  1  0  0  0
 48 65  1  0  0  0
 48115  1  0  0  0
 49 50  1  0  0  0
 49 53  1  0  0  0
 49 64  1  0  0  0
 49116  1  0  0  0
 50 51  1  0  0  0
 50117  1  0  0  0
 50118  1  0  0  0
 51 52  1  0  0  0
 51119  1  0  0  0
 51120  1  0  0  0
 52121  1  0  0  0
 52122  1  0  0  0
 53 54  1  0  0  0
 54 55  2  0  0  0
 54123  1  0  0  0
 55 57  1  0  0  0
 55124  1  0  0  0
 56 69  2  0  0  0
 57 58  2  0  0  0
 57125  1  0  0  0
 58126  1  0  0  0
 59 60  1  0  0  0
 59 61  1  0  0  0
 59 62  1  0  0  0
 60127  1  0  0  0
 60128  1  0  0  0
 60129  1  0  0  0
 61130  1  0  0  0
 61131  1  0  0  0
 61132  1  0  0  0
 62133  1  0  0  0
 62134  1  0  0  0
 62135  1  0  0  0
 63 65  1  0  0  0
 63136  1  0  0  0
 63137  1  0  0  0
 63138  1  0  0  0
 64139  1  0  0  0
 65140  1  0  0  0
 68 79  1  0  0  0
 71 72  2  0  0  0
 71 73  1  0  0  0
 71141  1  0  0  0
 72 74  1  0  0  0
 72142  1  0  0  0
 73 75  2  0  0  0
 73 76  1  0  0  0
 74 77  1  0  0  0
 74 80  2  0  0  0
 75 78  1  0  0  0
 75 80  1  0  0  0
 76143  1  0  0  0
 76144  1  0  0  0
 76145  1  0  0  0
 77 79  1  0  0  0
 77146  1  0  0  0
 77147  1  0  0  0
 78 81  1  0  0  0
 78148  1  0  0  0
 78149  1  0  0  0
 79150  1  0  0  0
 79151  1  0  0  0
 81152  1  0  0  0
M  ISO  4   1 100  68 101  79 101  81 100
M  END
> <chiral flag>
0

> <version>
0

> <s_m_source_file>
/data/baiqing/PycharmProjects/Reinvent-master-3.2/result/LINK_invent/BTK/process_docking_weight1_custom_sum_contain_oxygen_bond_distance_aromatic_linkinvent_7_9_3/rearranged_h_0037.sdf

> <i_m_source_file_index>
25

> <r_mmod_Potential_Energy-OPLS-2005>
335.09912109375

> <r_mmod_Stretch_Energy-OPLS-2005>
312.887023925781

> <r_mmod_Bend_Energy-OPLS-2005>
273.576110839844

> <r_mmod_Torsional_Energy-OPLS-2005>
212.745208740234

> <r_mmod_Improper_Torsional_Energy-OPLS-2005>
4.99147796630859

> <r_mmod_Van_der_Waal_Energy-OPLS-2005>
128.714569091797

> <r_mmod_Electrostatic_Energy-OPLS-2005>
-594.191345214844

> <r_mmod_Solvation_Energy-OPLS-2005>
-232.317321777344

> <b_mmod_Minimization_Converged-OPLS-2005>
0

> <r_mmod_RMS_Derivative-OPLS-2005>
5.6415810585022

$$$$
25
                    3D
 Structure written by MMmdl.
171179  0  0  1  0            999 V2000
  -30.7257  -14.3825   20.5635 C   0  0  0  0  0  0
  -30.4250  -12.2551   19.3772 C   0  0  0  0  0  0
  -29.4905  -12.5125   18.1762 C   0  0  0  0  0  0
  -28.0091  -12.3917   18.5921 C   0  0  0  0  0  0
  -27.6742  -13.1892   19.8831 C   0  0  2  0  0  0
  -28.7229  -12.8925   20.9805 C   0  0  0  0  0  0
  -25.2731  -13.8047   20.5684 C   0  0  0  0  0  0
  -24.1941  -13.0414   20.9139 C   0  0  0  0  0  0
  -24.6440  -11.6854   20.8713 C   0  0  0  0  0  0
  -23.9091  -10.4269   21.0416 C   0  0  0  0  0  0
  -24.3642   -9.4175   21.9201 C   0  0  0  0  0  0
  -23.6295   -8.2229   22.0754 C   0  0  0  0  0  0
  -22.4281   -8.0294   21.3540 C   0  0  0  0  0  0
  -21.9941   -9.0273   20.4649 C   0  0  0  0  0  0
  -22.7268  -10.2137   20.3059 C   0  0  0  0  0  0
  -21.6860   -6.0763   22.5287 C   0  0  0  0  0  0
  -21.4007   -6.5667   23.8217 C   0  0  0  0  0  0
  -21.3650   -5.6817   24.9172 C   0  0  0  0  0  0
  -21.6038   -4.3086   24.7226 C   0  0  0  0  0  0
  -21.8811   -3.8184   23.4343 C   0  0  0  0  0  0
  -21.9177   -4.6993   22.3394 C   0  0  0  0  0  0
  -22.7967  -13.5254   21.1821 C   0  0  0  0  0  0
  -22.1665   -4.2194   21.0966 F   0  0  0  0  0  0
  -21.5627   -3.4553   25.7716 F   0  0  0  0  0  0
  -30.0517  -13.2113   20.4295 N   0  0  0  0  0  0
  -26.3131  -12.9201   20.3386 N   0  0  0  0  0  0
  -25.9357  -11.6379   20.5735 N   0  0  0  0  0  0
  -22.0596  -12.8263   22.0355 N   0  0  0  0  0  0
  -25.4574  -15.1752   20.4111 N   0  0  0  0  0  0
  -31.8640  -14.5688   20.1387 O   0  0  0  0  0  0
  -21.6625   -6.8910   21.4246 O   0  0  0  0  0  0
  -22.3681  -14.5611   20.6705 O   0  0  0  0  0  0
  -24.6124  -31.8752   23.2145 C   0  0  0  0  0  0
  -25.9073  -32.4812   23.8393 C   0  0  1  0  0  0
  -27.2029  -27.4660   20.1016 C   0  0  0  0  0  0
  -25.5926  -33.8604   24.2326 N   0  0  0  0  0  0
  -23.3859  -30.5060   21.5536 C   0  0  2  0  0  0
  -24.8262  -28.9791   20.0993 C   0  0  0  0  0  0
  -22.7303  -29.4774   22.5040 C   0  0  0  0  0  0
  -18.0248  -28.1410   22.8507 C   0  0  0  0  0  0
  -24.1480  -36.7305   23.2638 C   0  0  0  0  0  0
  -25.9094  -30.8532   21.3564 C   0  0  0  0  0  0
  -25.9839  -29.4969   20.6927 C   0  0  0  0  0  0
  -27.1751  -28.7494   20.6967 C   0  0  0  0  0  0
  -26.0535  -26.9813   19.4534 C   0  0  0  0  0  0
  -24.8540  -27.7178   19.4756 C   0  0  0  0  0  0
  -23.5855  -29.8403   20.1647 C   0  0  0  0  0  0
  -25.4076  -36.3056   24.0363 C   0  0  1  0  0  0
  -20.5820  -28.3629   23.1328 C   0  0  2  0  0  0
  -20.6716  -26.9371   22.5386 C   0  0  0  0  0  0
  -19.5641  -26.6356   21.5202 C   0  0  0  0  0  0
  -18.1831  -26.7954   22.1657 C   0  0  0  0  0  0
  -19.1501  -28.8821   23.2891 C   0  0  0  0  0  0
  -18.9473  -30.1464   23.8869 C   0  0  0  0  0  0
  -17.6499  -30.6649   24.0557 C   0  0  0  0  0  0
  -25.9021  -34.9446   23.5120 C   0  0  0  0  0  0
  -16.5367  -29.9143   23.6390 C   0  0  0  0  0  0
  -16.7262  -28.6574   23.0357 C   0  0  0  0  0  0
  -26.4492  -31.6559   25.0696 C   0  0  0  0  0  0
  -25.3823  -31.3682   26.1490 C   0  0  0  0  0  0
  -27.0302  -30.3003   24.6076 C   0  0  0  0  0  0
  -27.6027  -32.4285   25.7442 C   0  0  0  0  0  0
  -27.5552  -37.1799   24.8449 C   0  0  0  0  0  0
  -21.4051  -29.3057   22.3744 N   0  0  0  0  0  0
  -26.4243  -37.3744   23.9421 N   0  0  0  0  0  0
  -24.6539  -31.0896   22.1021 N   0  0  0  0  0  0
  -23.4089  -28.8365   23.3090 O   0  0  0  0  0  0
  -28.2681  -26.6189   20.2764 O   0  0  0  0  0  0
  -26.5566  -34.8919   22.4661 O   0  0  0  0  0  0
  -23.5374  -32.1560   23.7613 O   0  0  0  0  0  0
  -29.6198  -22.7492   21.8281 C   0  0  0  0  0  0
  -27.1146  -21.8939   22.5815 C   0  0  0  0  0  0
  -29.3756  -21.3629   21.9046 C   0  0  0  0  0  0
  -28.6491  -23.7376   22.1239 C   0  0  0  0  0  0
  -28.0897  -20.9191   22.3046 C   0  0  0  0  0  0
  -27.3363  -23.2893   22.4896 C   0  0  0  0  0  0
  -30.5366  -20.4453   21.5520 C   0  0  0  0  0  0
  -25.2535  -23.8160   23.9657 C   0  0  0  0  0  0
  -25.1705  -24.0519   21.4876 C   0  0  0  0  0  0
  -27.5751  -19.4721   22.3843 C   0  0  0  0  0  0
  -29.2338  -25.1732   22.1676 C   0  0  0  0  0  0
  -28.5038  -18.2891   22.7259 C   0  0  0  0  0  0
  -28.7033  -17.3288   21.5454 C   0  0  0  0  0  0
  -29.4639  -16.0521   21.9271 C   0  0  0  0  0  0
  -28.5231  -26.4569   21.6833 C   0  0  0  0  0  0
  -26.0872  -24.1639   22.7134 C   0  0  0  0  0  0
  -29.9470  -15.4580   20.6879 N   0  0  0  0  0  0
  -31.4685  -12.3481   19.0701 H   0  0  0  0  0  0
  -30.3108  -11.2288   19.7292 H   0  0  0  0  0  0
  -29.7088  -11.8104   17.3679 H   0  0  0  0  0  0
  -29.6761  -13.5093   17.7674 H   0  0  0  0  0  0
  -27.7945  -11.3354   18.7469 H   0  0  0  0  0  0
  -27.3617  -12.7193   17.7777 H   0  0  0  0  0  0
  -27.7387  -14.2466   19.6389 H   0  0  0  0  0  0
  -28.6850  -11.8324   21.2388 H   0  0  0  0  0  0
  -28.5095  -13.4107   21.9120 H   0  0  0  0  0  0
  -25.2784   -9.5642   22.4794 H   0  0  0  0  0  0
  -23.9983   -7.4615   22.7481 H   0  0  0  0  0  0
  -21.0868   -8.8827   19.8968 H   0  0  0  0  0  0
  -22.3747  -10.9706   19.6205 H   0  0  0  0  0  0
  -21.2001   -7.6179   23.9743 H   0  0  0  0  0  0
  -21.1486   -6.0534   25.9076 H   0  0  0  0  0  0
  -22.0591   -2.7654   23.2801 H   0  0  0  0  0  0
  -22.4217  -11.9876   22.4660 H   0  0  0  0  0  0
  -21.1241  -13.1372   22.2623 H   0  0  0  0  0  0
  -24.7130  -15.8488   20.5281 H   0  0  0  0  0  0
  -26.3260  -15.5866   20.0978 H   0  0  0  0  0  0
  -26.7171  -32.5550   23.1171 H   0  0  0  0  0  0
  -25.0059  -33.9708   25.0477 H   0  0  0  0  0  0
  -22.6757  -31.3259   21.4141 H   0  0  0  0  0  0
  -23.3711  -35.9666   23.3285 H   0  0  0  0  0  0
  -24.3552  -36.8923   22.2042 H   0  0  0  0  0  0
  -23.7319  -37.6554   23.6659 H   0  0  0  0  0  0
  -26.0269  -31.6224   20.5937 H   0  0  0  0  0  0
  -26.7966  -30.8910   21.9752 H   0  0  0  0  0  0
  -28.0470  -29.1377   21.2020 H   0  0  0  0  0  0
  -26.0734  -26.0152   18.9707 H   0  0  0  0  0  0
  -23.9621  -27.3172   19.0108 H   0  0  0  0  0  0
  -23.6857  -30.6134   19.4015 H   0  0  0  0  0  0
  -22.7053  -29.2575   19.8824 H   0  0  0  0  0  0
  -25.1273  -36.1862   25.0871 H   0  0  0  0  0  0
  -20.9924  -28.3206   24.1436 H   0  0  0  0  0  0
  -20.5609  -26.2267   23.3591 H   0  0  0  0  0  0
  -21.6578  -26.7404   22.1155 H   0  0  0  0  0  0
  -19.6782  -25.6273   21.1246 H   0  0  0  0  0  0
  -19.6582  -27.3128   20.6693 H   0  0  0  0  0  0
  -17.4060  -26.6674   21.4118 H   0  0  0  0  0  0
  -18.0193  -26.0154   22.9105 H   0  0  0  0  0  0
  -19.7983  -30.7184   24.2274 H   0  0  0  0  0  0
  -17.5112  -31.6373   24.5101 H   0  0  0  0  0  0
  -15.5369  -30.2980   23.7855 H   0  0  0  0  0  0
  -15.8645  -28.0926   22.7101 H   0  0  0  0  0  0
  -24.5951  -30.7031   25.7936 H   0  0  0  0  0  0
  -24.9105  -32.2856   26.5008 H   0  0  0  0  0  0
  -25.8287  -30.8883   27.0209 H   0  0  0  0  0  0
  -26.2873  -29.6779   24.1091 H   0  0  0  0  0  0
  -27.4021  -29.7221   25.4538 H   0  0  0  0  0  0
  -27.8715  -30.4288   23.9265 H   0  0  0  0  0  0
  -27.2597  -33.3558   26.2026 H   0  0  0  0  0  0
  -28.3843  -32.6884   25.0297 H   0  0  0  0  0  0
  -28.0670  -31.8428   26.5370 H   0  0  0  0  0  0
  -28.2566  -38.0087   24.7458 H   0  0  0  0  0  0
  -28.1070  -36.2640   24.6315 H   0  0  0  0  0  0
  -27.2271  -37.1472   25.8844 H   0  0  0  0  0  0
  -20.9157  -29.8741   21.6988 H   0  0  0  0  0  0
  -26.0136  -38.2830   24.1404 H   0  0  0  0  0  0
  -30.6148  -23.0636   21.5517 H   0  0  0  0  0  0
  -26.1287  -21.5382   22.8402 H   0  0  0  0  0  0
  -30.2577  -19.7064   20.8066 H   0  0  0  0  0  0
  -30.9282  -19.9604   22.4458 H   0  0  0  0  0  0
  -31.3670  -21.0121   21.1223 H   0  0  0  0  0  0
  -25.8558  -23.8609   24.8725 H   0  0  0  0  0  0
  -24.7734  -22.8381   23.8993 H   0  0  0  0  0  0
  -24.4385  -24.5283   24.0907 H   0  0  0  0  0  0
  -25.6004  -24.5712   20.6387 H   0  0  0  0  0  0
  -24.1740  -24.4603   21.6635 H   0  0  0  0  0  0
  -25.0441  -23.0120   21.1900 H   0  0  0  0  0  0
  -27.0429  -19.2774   21.4546 H   0  0  0  0  0  0
  -26.7933  -19.4609   23.1464 H   0  0  0  0  0  0
  -30.1794  -25.1773   21.6267 H   0  0  0  0  0  0
  -29.5104  -25.3348   23.2077 H   0  0  0  0  0  0
  -29.4383  -18.6008   23.1852 H   0  0  0  0  0  0
  -28.0160  -17.6891   23.4918 H   0  0  0  0  0  0
  -29.2249  -17.8450   20.7433 H   0  0  0  0  0  0
  -27.7338  -17.0426   21.1320 H   0  0  0  0  0  0
  -28.7951  -15.3959   22.4801 H   0  0  0  0  0  0
  -30.2999  -16.2726   22.5944 H   0  0  0  0  0  0
  -29.2028  -27.2731   21.9330 H   0  0  0  0  0  0
  -27.6525  -26.6659   22.3047 H   0  0  0  0  0  0
  -26.3646  -25.1990   22.8500 H   0  0  0  0  0  0
  -30.3286  -16.1808   20.0962 H   0  0  0  0  0  0
  1 25  1  0  0  0
  1 30  2  0  0  0
  1 87  1  0  0  0
  2  3  1  0  0  0
  2 25  1  0  0  0
  2 88  1  0  0  0
  2 89  1  0  0  0
  3  4  1  0  0  0
  3 90  1  0  0  0
  3 91  1  0  0  0
  4  5  1  0  0  0
  4 92  1  0  0  0
  4 93  1  0  0  0
  5  6  1  0  0  0
  5 26  1  0  0  0
  5 94  1  0  0  0
  6 25  1  0  0  0
  6 95  1  0  0  0
  6 96  1  0  0  0
  7  8  2  0  0  0
  7 26  1  0  0  0
  7 29  1  0  0  0
  8  9  1  0  0  0
  8 22  1  0  0  0
  9 10  1  0  0  0
  9 27  2  0  0  0
 10 11  2  0  0  0
 10 15  1  0  0  0
 11 12  1  0  0  0
 11 97  1  0  0  0
 12 13  2  0  0  0
 12 98  1  0  0  0
 13 14  1  0  0  0
 13 31  1  0  0  0
 14 15  2  0  0  0
 14 99  1  0  0  0
 15100  1  0  0  0
 16 17  2  0  0  0
 16 21  1  0  0  0
 16 31  1  0  0  0
 17 18  1  0  0  0
 17101  1  0  0  0
 18 19  2  0  0  0
 18102  1  0  0  0
 19 20  1  0  0  0
 19 24  1  0  0  0
 20 21  2  0  0  0
 20103  1  0  0  0
 21 23  1  0  0  0
 22 28  1  0  0  0
 22 32  2  0  0  0
 26 27  1  0  0  0
 28104  1  0  0  0
 28105  1  0  0  0
 29106  1  0  0  0
 29107  1  0  0  0
 33 34  1  0  0  0
 33 66  1  0  0  0
 33 70  2  0  0  0
 34 36  1  0  0  0
 34 59  1  0  0  0
 34108  1  0  0  0
 35 44  2  0  0  0
 35 45  1  0  0  0
 35 68  1  0  0  0
 36 56  1  0  0  0
 36109  1  0  0  0
 37 39  1  0  0  0
 37 47  1  0  0  0
 37 66  1  0  0  0
 37110  1  0  0  0
 38 43  2  0  0  0
 38 46  1  0  0  0
 38 47  1  0  0  0
 39 64  1  0  0  0
 39 67  2  0  0  0
 40 52  1  0  0  0
 40 53  2  0  0  0
 40 58  1  0  0  0
 41111  1  0  0  0
 41112  1  0  0  0
 41113  1  0  0  0
 41 48  1  0  0  0
 42 43  1  0  0  0
 42 66  1  0  0  0
 42114  1  0  0  0
 42115  1  0  0  0
 43 44  1  0  0  0
 44116  1  0  0  0
 45 46  2  0  0  0
 45117  1  0  0  0
 46118  1  0  0  0
 47119  1  0  0  0
 47120  1  0  0  0
 48 56  1  0  0  0
 48 65  1  0  0  0
 48121  1  0  0  0
 49 50  1  0  0  0
 49 53  1  0  0  0
 49 64  1  0  0  0
 49122  1  0  0  0
 50 51  1  0  0  0
 50123  1  0  0  0
 50124  1  0  0  0
 51 52  1  0  0  0
 51125  1  0  0  0
 51126  1  0  0  0
 52127  1  0  0  0
 52128  1  0  0  0
 53 54  1  0  0  0
 54 55  2  0  0  0
 54129  1  0  0  0
 55 57  1  0  0  0
 55130  1  0  0  0
 56 69  2  0  0  0
 57 58  2  0  0  0
 57131  1  0  0  0
 58132  1  0  0  0
 59 60  1  0  0  0
 59 61  1  0  0  0
 59 62  1  0  0  0
 60133  1  0  0  0
 60134  1  0  0  0
 60135  1  0  0  0
 61136  1  0  0  0
 61137  1  0  0  0
 61138  1  0  0  0
 62139  1  0  0  0
 62140  1  0  0  0
 62141  1  0  0  0
 63 65  1  0  0  0
 63142  1  0  0  0
 63143  1  0  0  0
 63144  1  0  0  0
 64145  1  0  0  0
 65146  1  0  0  0
 68 85  1  0  0  0
 71 73  2  0  0  0
 71 74  1  0  0  0
 71147  1  0  0  0
 72 75  2  0  0  0
 72 76  1  0  0  0
 72148  1  0  0  0
 73 75  1  0  0  0
 73 77  1  0  0  0
 74 76  2  0  0  0
 74 81  1  0  0  0
 75 80  1  0  0  0
 76 86  1  0  0  0
 77149  1  0  0  0
 77150  1  0  0  0
 77151  1  0  0  0
 78152  1  0  0  0
 78153  1  0  0  0
 78154  1  0  0  0
 78 86  1  0  0  0
 79 86  1  0  0  0
 79155  1  0  0  0
 79156  1  0  0  0
 79157  1  0  0  0
 80 82  1  0  0  0
 80158  1  0  0  0
 80159  1  0  0  0
 81 85  1  0  0  0
 81160  1  0  0  0
 81161  1  0  0  0
 82 83  1  0  0  0
 82162  1  0  0  0
 82163  1  0  0  0
 83 84  1  0  0  0
 83164  1  0  0  0
 83165  1  0  0  0
 84 87  1  0  0  0
 84166  1  0  0  0
 84167  1  0  0  0
 85168  1  0  0  0
 85169  1  0  0  0
 86170  1  0  0  0
 87171  1  0  0  0
M  ISO  4   1 100  68 101  85 101  87 100
M  END
> <chiral flag>
0

> <version>
0

> <s_m_source_file>
/data/baiqing/PycharmProjects/Reinvent-master-3.2/result/LINK_invent/BTK/process_docking_weight1_custom_sum_contain_oxygen_bond_distance_aromatic_linkinvent_7_9_3/rearranged_h_0037.sdf

> <i_m_source_file_index>
26

> <r_mmod_Potential_Energy-OPLS-2005>
115.704658508301

> <r_mmod_Stretch_Energy-OPLS-2005>
38.9001350402832

> <r_mmod_Bend_Energy-OPLS-2005>
183.354064941406

> <r_mmod_Torsional_Energy-OPLS-2005>
293.929443359375

> <r_mmod_Improper_Torsional_Energy-OPLS-2005>
22.5625743865967

> <r_mmod_Van_der_Waal_Energy-OPLS-2005>
159.760498046875

> <r_mmod_Electrostatic_Energy-OPLS-2005>
-409.444213867188

> <r_mmod_Solvation_Energy-OPLS-2005>
-195.256759643555

> <b_mmod_Minimization_Converged-OPLS-2005>
0

> <r_mmod_RMS_Derivative-OPLS-2005>
7.77648258209229

$$$$
26
                    3D
 Structure written by MMmdl.
162170  0  0  1  0            999 V2000
  -30.6198  -14.4187   20.6103 C   0  0  0  0  0  0
  -30.4322  -12.2917   19.3485 C   0  0  0  0  0  0
  -29.4824  -12.4980   18.1534 C   0  0  0  0  0  0
  -28.0051  -12.3570   18.5781 C   0  0  0  0  0  0
  -27.6598  -13.1675   19.8572 C   0  0  2  0  0  0
  -28.6892  -12.8718   20.9601 C   0  0  0  0  0  0
  -25.2654  -13.8099   20.5611 C   0  0  0  0  0  0
  -24.1889  -13.0424   20.9083 C   0  0  0  0  0  0
  -24.6399  -11.6876   20.8717 C   0  0  0  0  0  0
  -23.9104  -10.4290   21.0430 C   0  0  0  0  0  0
  -24.3647   -9.4196   21.9220 C   0  0  0  0  0  0
  -23.6300   -8.2234   22.0795 C   0  0  0  0  0  0
  -22.4290   -8.0278   21.3550 C   0  0  0  0  0  0
  -21.9901   -9.0282   20.4671 C   0  0  0  0  0  0
  -22.7255  -10.2150   20.3080 C   0  0  0  0  0  0
  -21.6879   -6.0715   22.5284 C   0  0  0  0  0  0
  -21.4036   -6.5608   23.8219 C   0  0  0  0  0  0
  -21.3654   -5.6772   24.9151 C   0  0  0  0  0  0
  -21.6044   -4.3060   24.7216 C   0  0  0  0  0  0
  -21.8838   -3.8117   23.4366 C   0  0  0  0  0  0
  -21.9214   -4.6931   22.3398 C   0  0  0  0  0  0
  -22.7960  -13.5270   21.1766 C   0  0  0  0  0  0
  -22.1689   -4.2131   21.0972 F   0  0  0  0  0  0
  -21.5607   -3.4509   25.7728 F   0  0  0  0  0  0
  -30.0162  -13.2229   20.4152 N   0  0  0  0  0  0
  -26.3058  -12.9187   20.3197 N   0  0  0  0  0  0
  -25.9306  -11.6423   20.5658 N   0  0  0  0  0  0
  -22.0553  -12.8342   22.0334 N   0  0  0  0  0  0
  -25.4411  -15.1810   20.4032 N   0  0  0  0  0  0
  -31.7149  -14.7367   20.1265 O   0  0  0  0  0  0
  -21.6645   -6.8866   21.4262 O   0  0  0  0  0  0
  -22.3689  -14.5595   20.6584 O   0  0  0  0  0  0
  -24.6093  -31.8728   23.2104 C   0  0  0  0  0  0
  -25.8996  -32.4844   23.8403 C   0  0  1  0  0  0
  -27.2502  -27.4780   20.1053 C   0  0  0  0  0  0
  -25.5887  -33.8642   24.2366 N   0  0  0  0  0  0
  -23.3979  -30.4939   21.5479 C   0  0  2  0  0  0
  -24.8484  -28.9501   20.1239 C   0  0  0  0  0  0
  -22.7389  -29.4683   22.4989 C   0  0  0  0  0  0
  -18.0277  -28.1372   22.8487 C   0  0  0  0  0  0
  -24.1483  -36.7336   23.2647 C   0  0  0  0  0  0
  -25.9199  -30.8474   21.3565 C   0  0  0  0  0  0
  -25.9983  -29.4788   20.7233 C   0  0  0  0  0  0
  -27.2030  -28.7452   20.7163 C   0  0  0  0  0  0
  -26.0940  -26.9586   19.4928 C   0  0  0  0  0  0
  -24.8837  -27.6836   19.5097 C   0  0  0  0  0  0
  -23.6078  -29.8164   20.1661 C   0  0  0  0  0  0
  -25.4093  -36.3127   24.0357 C   0  0  1  0  0  0
  -20.5862  -28.3662   23.1325 C   0  0  2  0  0  0
  -20.6747  -26.9395   22.5409 C   0  0  0  0  0  0
  -19.5739  -26.6369   21.5178 C   0  0  0  0  0  0
  -18.1924  -26.7925   22.1610 C   0  0  0  0  0  0
  -19.1520  -28.8810   23.2917 C   0  0  0  0  0  0
  -18.9489  -30.1420   23.8928 C   0  0  0  0  0  0
  -17.6499  -30.6580   24.0579 C   0  0  0  0  0  0
  -25.9015  -34.9499   23.5154 C   0  0  0  0  0  0
  -16.5375  -29.9109   23.6331 C   0  0  0  0  0  0
  -16.7273  -28.6534   23.0316 C   0  0  0  0  0  0
  -26.4468  -31.6581   25.0698 C   0  0  0  0  0  0
  -25.3766  -31.3662   26.1457 C   0  0  0  0  0  0
  -27.0256  -30.3015   24.5999 C   0  0  0  0  0  0
  -27.6049  -32.4256   25.7448 C   0  0  0  0  0  0
  -27.5576  -37.1826   24.8463 C   0  0  0  0  0  0
  -21.4110  -29.3022   22.3716 N   0  0  0  0  0  0
  -26.4298  -37.3797   23.9418 N   0  0  0  0  0  0
  -24.6586  -31.0866   22.0983 N   0  0  0  0  0  0
  -23.4167  -28.8211   23.3013 O   0  0  0  0  0  0
  -28.4195  -26.7651   20.0805 O   0  0  0  0  0  0
  -26.5571  -34.8966   22.4702 O   0  0  0  0  0  0
  -23.5301  -32.1382   23.7547 O   0  0  0  0  0  0
  -26.7657  -19.6935   21.9082 C   0  0  0  0  0  0
  -26.5657  -22.1097   21.6436 C   0  0  0  0  0  0
  -28.6343  -21.1469   22.4911 C   0  0  0  0  0  0
  -26.0073  -20.8233   21.5349 C   0  0  0  0  0  0
  -28.0908  -19.8509   22.3663 C   0  0  0  0  0  0
  -27.8810  -22.2839   22.1274 C   0  0  0  0  0  0
  -24.6035  -20.6716   20.9851 C   0  0  0  0  0  0
  -28.9462  -18.6443   22.7041 C   0  0  0  0  0  0
  -28.5050  -23.6703   22.2577 C   0  0  0  0  0  0
  -28.9804  -17.5752   21.5951 C   0  0  0  0  0  0
  -27.9677  -24.7059   21.2461 C   0  0  0  0  0  0
  -30.1305  -16.5794   21.8554 C   0  0  0  0  0  0
  -28.7023  -26.0516   21.2791 C   0  0  0  0  0  0
  -29.8494  -15.2617   21.3147 N   0  0  0  0  0  0
  -31.4643  -12.4463   19.0402 H   0  0  0  0  0  0
  -30.3847  -11.2635   19.7088 H   0  0  0  0  0  0
  -29.7070  -11.7807   17.3651 H   0  0  0  0  0  0
  -29.6484  -13.4922   17.7249 H   0  0  0  0  0  0
  -27.8142  -11.2988   18.7557 H   0  0  0  0  0  0
  -27.3451  -12.6632   17.7624 H   0  0  0  0  0  0
  -27.7333  -14.2250   19.6008 H   0  0  0  0  0  0
  -28.6745  -11.8179   21.2398 H   0  0  0  0  0  0
  -28.4333  -13.3816   21.8900 H   0  0  0  0  0  0
  -25.2799   -9.5666   22.4788 H   0  0  0  0  0  0
  -24.0030   -7.4609   22.7542 H   0  0  0  0  0  0
  -21.0787   -8.8805   19.8998 H   0  0  0  0  0  0
  -22.3738  -10.9686   19.6173 H   0  0  0  0  0  0
  -21.2072   -7.6134   23.9706 H   0  0  0  0  0  0
  -21.1435   -6.0487   25.9056 H   0  0  0  0  0  0
  -22.0638   -2.7588   23.2841 H   0  0  0  0  0  0
  -22.4142  -11.9996   22.4766 H   0  0  0  0  0  0
  -21.1191  -13.1456   22.2471 H   0  0  0  0  0  0
  -24.6715  -15.8257   20.5391 H   0  0  0  0  0  0
  -26.2783  -15.6351   20.0713 H   0  0  0  0  0  0
  -26.7052  -32.5588   23.1179 H   0  0  0  0  0  0
  -25.0034  -33.9754   25.0499 H   0  0  0  0  0  0
  -22.6800  -31.3062   21.4046 H   0  0  0  0  0  0
  -23.3734  -35.9677   23.3298 H   0  0  0  0  0  0
  -24.3601  -36.8925   22.2060 H   0  0  0  0  0  0
  -23.7209  -37.6559   23.6616 H   0  0  0  0  0  0
  -26.0122  -31.6068   20.5776 H   0  0  0  0  0  0
  -26.8120  -30.9164   21.9665 H   0  0  0  0  0  0
  -28.0945  -29.1528   21.1721 H   0  0  0  0  0  0
  -26.1294  -25.9877   19.0198 H   0  0  0  0  0  0
  -24.0009  -27.2648   19.0509 H   0  0  0  0  0  0
  -23.7270  -30.5826   19.4016 H   0  0  0  0  0  0
  -22.7334  -29.2396   19.8658 H   0  0  0  0  0  0
  -25.1259  -36.2036   25.0849 H   0  0  0  0  0  0
  -20.9958  -28.3234   24.1459 H   0  0  0  0  0  0
  -20.5584  -26.2313   23.3614 H   0  0  0  0  0  0
  -21.6639  -26.7374   22.1276 H   0  0  0  0  0  0
  -19.6901  -25.6281   21.1208 H   0  0  0  0  0  0
  -19.6700  -27.3198   20.6720 H   0  0  0  0  0  0
  -17.4200  -26.6621   21.4031 H   0  0  0  0  0  0
  -18.0385  -26.0064   22.9004 H   0  0  0  0  0  0
  -19.7972  -30.7221   24.2309 H   0  0  0  0  0  0
  -17.5077  -31.6250   24.5236 H   0  0  0  0  0  0
  -15.5380  -30.3049   23.7660 H   0  0  0  0  0  0
  -15.8657  -28.0890   22.7007 H   0  0  0  0  0  0
  -24.5958  -30.6966   25.7825 H   0  0  0  0  0  0
  -24.8959  -32.2822   26.4907 H   0  0  0  0  0  0
  -25.8195  -30.8862   27.0193 H   0  0  0  0  0  0
  -26.2763  -29.6791   24.1092 H   0  0  0  0  0  0
  -27.4066  -29.7230   25.4429 H   0  0  0  0  0  0
  -27.8593  -30.4307   23.9082 H   0  0  0  0  0  0
  -27.2670  -33.3539   26.2055 H   0  0  0  0  0  0
  -28.3876  -32.6804   25.0289 H   0  0  0  0  0  0
  -28.0677  -31.8331   26.5343 H   0  0  0  0  0  0
  -28.2629  -38.0100   24.7534 H   0  0  0  0  0  0
  -28.1070  -36.2659   24.6284 H   0  0  0  0  0  0
  -27.2341  -37.1455   25.8882 H   0  0  0  0  0  0
  -20.9240  -29.8916   21.7080 H   0  0  0  0  0  0
  -26.0222  -38.2910   24.1369 H   0  0  0  0  0  0
  -26.3371  -18.7052   21.8294 H   0  0  0  0  0  0
  -25.9652  -22.9564   21.3443 H   0  0  0  0  0  0
  -29.6481  -21.2741   22.8458 H   0  0  0  0  0  0
  -24.4209  -19.6585   20.6147 H   0  0  0  0  0  0
  -24.4560  -21.3638   20.1552 H   0  0  0  0  0  0
  -23.8607  -20.9007   21.7508 H   0  0  0  0  0  0
  -28.5777  -18.1932   23.6230 H   0  0  0  0  0  0
  -29.9635  -18.9770   22.9108 H   0  0  0  0  0  0
  -29.5811  -23.5592   22.1240 H   0  0  0  0  0  0
  -28.3734  -24.0198   23.2836 H   0  0  0  0  0  0
  -29.1405  -18.0421   20.6196 H   0  0  0  0  0  0
  -28.0180  -17.0619   21.5624 H   0  0  0  0  0  0
  -26.9091  -24.8939   21.4228 H   0  0  0  0  0  0
  -28.0540  -24.2882   20.2424 H   0  0  0  0  0  0
  -30.2366  -16.4587   22.9340 H   0  0  0  0  0  0
  -31.0841  -16.9703   21.5041 H   0  0  0  0  0  0
  -29.7804  -25.9029   21.3289 H   0  0  0  0  0  0
  -28.4235  -26.6280   22.1594 H   0  0  0  0  0  0
  -28.9501  -14.8554   21.5487 H   0  0  0  0  0  0
  1 25  1  0  0  0
  1 30  2  0  0  0
  1 84  1  0  0  0
  2  3  1  0  0  0
  2 25  1  0  0  0
  2 85  1  0  0  0
  2 86  1  0  0  0
  3  4  1  0  0  0
  3 87  1  0  0  0
  3 88  1  0  0  0
  4  5  1  0  0  0
  4 89  1  0  0  0
  4 90  1  0  0  0
  5  6  1  0  0  0
  5 26  1  0  0  0
  5 91  1  0  0  0
  6 25  1  0  0  0
  6 92  1  0  0  0
  6 93  1  0  0  0
  7  8  2  0  0  0
  7 26  1  0  0  0
  7 29  1  0  0  0
  8  9  1  0  0  0
  8 22  1  0  0  0
  9 10  1  0  0  0
  9 27  2  0  0  0
 10 11  2  0  0  0
 10 15  1  0  0  0
 11 12  1  0  0  0
 11 94  1  0  0  0
 12 13  2  0  0  0
 12 95  1  0  0  0
 13 14  1  0  0  0
 13 31  1  0  0  0
 14 15  2  0  0  0
 14 96  1  0  0  0
 15 97  1  0  0  0
 16 17  2  0  0  0
 16 21  1  0  0  0
 16 31  1  0  0  0
 17 18  1  0  0  0
 17 98  1  0  0  0
 18 19  2  0  0  0
 18 99  1  0  0  0
 19 20  1  0  0  0
 19 24  1  0  0  0
 20 21  2  0  0  0
 20100  1  0  0  0
 21 23  1  0  0  0
 22 28  1  0  0  0
 22 32  2  0  0  0
 26 27  1  0  0  0
 28101  1  0  0  0
 28102  1  0  0  0
 29103  1  0  0  0
 29104  1  0  0  0
 33 34  1  0  0  0
 33 66  1  0  0  0
 33 70  2  0  0  0
 34 36  1  0  0  0
 34 59  1  0  0  0
 34105  1  0  0  0
 35 44  2  0  0  0
 35 45  1  0  0  0
 35 68  1  0  0  0
 36 56  1  0  0  0
 36106  1  0  0  0
 37 39  1  0  0  0
 37 47  1  0  0  0
 37 66  1  0  0  0
 37107  1  0  0  0
 38 43  2  0  0  0
 38 46  1  0  0  0
 38 47  1  0  0  0
 39 64  1  0  0  0
 39 67  2  0  0  0
 40 52  1  0  0  0
 40 53  2  0  0  0
 40 58  1  0  0  0
 41108  1  0  0  0
 41109  1  0  0  0
 41110  1  0  0  0
 41 48  1  0  0  0
 42 43  1  0  0  0
 42 66  1  0  0  0
 42111  1  0  0  0
 42112  1  0  0  0
 43 44  1  0  0  0
 44113  1  0  0  0
 45 46  2  0  0  0
 45114  1  0  0  0
 46115  1  0  0  0
 47116  1  0  0  0
 47117  1  0  0  0
 48 56  1  0  0  0
 48 65  1  0  0  0
 48118  1  0  0  0
 49 50  1  0  0  0
 49 53  1  0  0  0
 49 64  1  0  0  0
 49119  1  0  0  0
 50 51  1  0  0  0
 50120  1  0  0  0
 50121  1  0  0  0
 51 52  1  0  0  0
 51122  1  0  0  0
 51123  1  0  0  0
 52124  1  0  0  0
 52125  1  0  0  0
 53 54  1  0  0  0
 54 55  2  0  0  0
 54126  1  0  0  0
 55 57  1  0  0  0
 55127  1  0  0  0
 56 69  2  0  0  0
 57 58  2  0  0  0
 57128  1  0  0  0
 58129  1  0  0  0
 59 60  1  0  0  0
 59 61  1  0  0  0
 59 62  1  0  0  0
 60130  1  0  0  0
 60131  1  0  0  0
 60132  1  0  0  0
 61133  1  0  0  0
 61134  1  0  0  0
 61135  1  0  0  0
 62136  1  0  0  0
 62137  1  0  0  0
 62138  1  0  0  0
 63 65  1  0  0  0
 63139  1  0  0  0
 63140  1  0  0  0
 63141  1  0  0  0
 64142  1  0  0  0
 65143  1  0  0  0
 68 83  1  0  0  0
 71 74  2  0  0  0
 71 75  1  0  0  0
 71144  1  0  0  0
 72 74  1  0  0  0
 72 76  2  0  0  0
 72145  1  0  0  0
 73 75  2  0  0  0
 73 76  1  0  0  0
 73146  1  0  0  0
 74 77  1  0  0  0
 75 78  1  0  0  0
 76 79  1  0  0  0
 77147  1  0  0  0
 77148  1  0  0  0
 77149  1  0  0  0
 78 80  1  0  0  0
 78150  1  0  0  0
 78151  1  0  0  0
 79 81  1  0  0  0
 79152  1  0  0  0
 79153  1  0  0  0
 80 82  1  0  0  0
 80154  1  0  0  0
 80155  1  0  0  0
 81 83  1  0  0  0
 81156  1  0  0  0
 81157  1  0  0  0
 82 84  1  0  0  0
 82158  1  0  0  0
 82159  1  0  0  0
 83160  1  0  0  0
 83161  1  0  0  0
 84162  1  0  0  0
M  ISO  4   1 100  68 101  83 101  84 100
M  END
> <chiral flag>
0

> <version>
0

> <s_m_source_file>
/data/baiqing/PycharmProjects/Reinvent-master-3.2/result/LINK_invent/BTK/process_docking_weight1_custom_sum_contain_oxygen_bond_distance_aromatic_linkinvent_7_9_3/rearranged_h_0037.sdf

> <i_m_source_file_index>
27

> <r_mmod_Potential_Energy-OPLS-2005>
-71.0256500244141

> <r_mmod_Stretch_Energy-OPLS-2005>
31.1354885101318

> <r_mmod_Bend_Energy-OPLS-2005>
91.9840240478516

> <r_mmod_Torsional_Energy-OPLS-2005>
222.883666992188

> <r_mmod_Improper_Torsional_Energy-OPLS-2005>
2.54316687583923

> <r_mmod_Van_der_Waal_Energy-OPLS-2005>
154.333648681641

> <r_mmod_Electrostatic_Energy-OPLS-2005>
-383.790466308594

> <r_mmod_Solvation_Energy-OPLS-2005>
-202.580078125

> <b_mmod_Minimization_Converged-OPLS-2005>
0

> <r_mmod_RMS_Derivative-OPLS-2005>
11.6739568710327

$$$$
27
                    3D
 Structure written by MMmdl.
161169  0  0  1  0            999 V2000
  -30.6235  -14.7024   20.4926 C   0  0  0  0  0  0
  -30.4367  -12.4444   19.4431 C   0  0  0  0  0  0
  -29.4991  -12.5024   18.2179 C   0  0  0  0  0  0
  -28.0279  -12.3286   18.6437 C   0  0  0  0  0  0
  -27.6431  -13.2243   19.8506 C   0  0  2  0  0  0
  -28.6926  -13.1388   20.9770 C   0  0  0  0  0  0
  -25.2524  -13.8167   20.5675 C   0  0  0  0  0  0
  -24.1802  -13.0429   20.9186 C   0  0  0  0  0  0
  -24.6392  -11.6914   20.8758 C   0  0  0  0  0  0
  -23.9068  -10.4285   21.0411 C   0  0  0  0  0  0
  -24.3602   -9.4200   21.9199 C   0  0  0  0  0  0
  -23.6264   -8.2251   22.0777 C   0  0  0  0  0  0
  -22.4252   -8.0291   21.3562 C   0  0  0  0  0  0
  -21.9897   -9.0265   20.4672 C   0  0  0  0  0  0
  -22.7240  -10.2137   20.3078 C   0  0  0  0  0  0
  -21.6856   -6.0729   22.5258 C   0  0  0  0  0  0
  -21.4031   -6.5632   23.8192 C   0  0  0  0  0  0
  -21.3647   -5.6789   24.9150 C   0  0  0  0  0  0
  -21.6034   -4.3050   24.7208 C   0  0  0  0  0  0
  -21.8820   -3.8139   23.4333 C   0  0  0  0  0  0
  -21.9190   -4.6955   22.3385 C   0  0  0  0  0  0
  -22.7827  -13.5239   21.1808 C   0  0  0  0  0  0
  -22.1665   -4.2137   21.0970 F   0  0  0  0  0  0
  -21.5607   -3.4543   25.7728 F   0  0  0  0  0  0
  -29.9893  -13.4914   20.3836 N   0  0  0  0  0  0
  -26.2949  -12.9370   20.3294 N   0  0  0  0  0  0
  -25.9319  -11.6518   20.5771 N   0  0  0  0  0  0
  -22.0458  -12.8268   22.0374 N   0  0  0  0  0  0
  -25.4213  -15.1878   20.4092 N   0  0  0  0  0  0
  -31.8306  -14.7930   20.2700 O   0  0  0  0  0  0
  -21.6643   -6.8878   21.4229 O   0  0  0  0  0  0
  -22.3540  -14.5546   20.6627 O   0  0  0  0  0  0
  -24.6301  -31.8553   23.2016 C   0  0  0  0  0  0
  -25.9125  -32.4782   23.8361 C   0  0  1  0  0  0
  -27.2313  -27.2799   20.1160 C   0  0  0  0  0  0
  -25.5915  -33.8577   24.2290 N   0  0  0  0  0  0
  -23.4279  -30.4750   21.5455 C   0  0  2  0  0  0
  -24.8770  -28.9275   20.1124 C   0  0  0  0  0  0
  -22.7489  -29.4567   22.4936 C   0  0  0  0  0  0
  -18.0262  -28.1406   22.8491 C   0  0  0  0  0  0
  -24.1453  -36.7252   23.2628 C   0  0  0  0  0  0
  -25.9725  -30.7734   21.3777 C   0  0  0  0  0  0
  -26.0485  -29.3966   20.7222 C   0  0  0  0  0  0
  -27.2278  -28.5847   20.7116 C   0  0  0  0  0  0
  -26.0334  -26.8813   19.4769 C   0  0  0  0  0  0
  -24.8747  -27.6786   19.4767 C   0  0  0  0  0  0
  -23.6466  -29.8092   20.1616 C   0  0  0  0  0  0
  -25.4087  -36.3078   24.0334 C   0  0  1  0  0  0
  -20.5865  -28.3684   23.1272 C   0  0  2  0  0  0
  -20.6732  -26.9401   22.5401 C   0  0  0  0  0  0
  -19.5724  -26.6396   21.5187 C   0  0  0  0  0  0
  -18.1912  -26.7952   22.1621 C   0  0  0  0  0  0
  -19.1517  -28.8866   23.2885 C   0  0  0  0  0  0
  -18.9453  -30.1460   23.8923 C   0  0  0  0  0  0
  -17.6462  -30.6618   24.0552 C   0  0  0  0  0  0
  -25.9044  -34.9451   23.5116 C   0  0  0  0  0  0
  -16.5345  -29.9129   23.6326 C   0  0  0  0  0  0
  -16.7250  -28.6526   23.0381 C   0  0  0  0  0  0
  -26.4506  -31.6616   25.0750 C   0  0  0  0  0  0
  -25.3760  -31.3757   26.1498 C   0  0  0  0  0  0
  -27.0319  -30.3034   24.6200 C   0  0  0  0  0  0
  -27.6066  -32.4336   25.7542 C   0  0  0  0  0  0
  -27.5560  -37.1781   24.8480 C   0  0  0  0  0  0
  -21.4191  -29.3026   22.3682 N   0  0  0  0  0  0
  -26.4254  -37.3781   23.9438 N   0  0  0  0  0  0
  -24.6965  -31.0509   22.0998 N   0  0  0  0  0  0
  -23.4185  -28.8090   23.3024 O   0  0  0  0  0  0
  -28.3318  -26.3906   20.1708 O   0  0  0  0  0  0
  -26.5598  -34.8920   22.4672 O   0  0  0  0  0  0
  -23.5438  -32.1347   23.7309 O   0  0  0  0  0  0
  -29.3469  -19.6705   20.6998 C   0  0  0  0  0  0
  -30.2830  -18.5714   20.5942 C   0  0  0  0  0  0
  -31.5293  -18.9067   19.9997 C   0  0  0  0  0  0
  -29.6648  -21.0062   20.2497 C   0  0  0  0  0  0
  -31.7828  -20.2542   19.6088 C   0  0  0  0  0  0
  -32.6001  -17.8342   19.8395 C   0  0  0  0  0  0
  -33.2639  -20.5124   17.5497 C   0  0  0  0  0  0
  -30.0821  -17.1628   21.3186 C   0  0  0  0  0  0
  -28.6549  -22.2302   20.2026 C   0  0  0  0  0  0
  -33.1318  -20.7187   19.0659 C   0  0  0  0  0  0
  -29.1447  -23.7666   20.3423 C   0  0  0  0  0  0
  -28.0697  -24.9205   20.0106 C   0  0  0  0  0  0
  -30.8689  -21.2466   19.6989 N   0  0  0  0  0  0
  -29.8274  -15.8153   20.6650 N   0  0  0  0  0  0
  -31.4737  -12.5850   19.1376 H   0  0  0  0  0  0
  -30.3955  -11.4631   19.9192 H   0  0  0  0  0  0
  -29.7666  -11.7272   17.4968 H   0  0  0  0  0  0
  -29.6201  -13.4554   17.7026 H   0  0  0  0  0  0
  -27.8842  -11.2780   18.9013 H   0  0  0  0  0  0
  -27.3650  -12.5281   17.8009 H   0  0  0  0  0  0
  -27.6435  -14.2498   19.4784 H   0  0  0  0  0  0
  -28.7259  -12.1355   21.4006 H   0  0  0  0  0  0
  -28.4384  -13.8080   21.8012 H   0  0  0  0  0  0
  -25.2751   -9.5658   22.4771 H   0  0  0  0  0  0
  -23.9941   -7.4649   22.7519 H   0  0  0  0  0  0
  -21.0816   -8.8788   19.8998 H   0  0  0  0  0  0
  -22.3687  -10.9665   19.6177 H   0  0  0  0  0  0
  -21.2062   -7.6149   23.9686 H   0  0  0  0  0  0
  -21.1459   -6.0533   25.9048 H   0  0  0  0  0  0
  -22.0616   -2.7606   23.2838 H   0  0  0  0  0  0
  -22.4082  -11.9929   22.4742 H   0  0  0  0  0  0
  -21.1093  -13.1334   22.2587 H   0  0  0  0  0  0
  -24.6511  -15.8389   20.5234 H   0  0  0  0  0  0
  -26.2578  -15.6275   20.0491 H   0  0  0  0  0  0
  -26.7191  -32.5458   23.1110 H   0  0  0  0  0  0
  -25.0088  -33.9734   25.0457 H   0  0  0  0  0  0
  -22.7245  -31.2972   21.3988 H   0  0  0  0  0  0
  -23.3739  -35.9558   23.3313 H   0  0  0  0  0  0
  -24.3493  -36.8845   22.2024 H   0  0  0  0  0  0
  -23.7189  -37.6445   23.6648 H   0  0  0  0  0  0
  -26.0981  -31.5311   20.6043 H   0  0  0  0  0  0
  -26.8554  -30.8323   22.0034 H   0  0  0  0  0  0
  -28.1246  -28.9353   21.2018 H   0  0  0  0  0  0
  -25.9597  -25.9299   18.9738 H   0  0  0  0  0  0
  -23.9832  -27.3176   18.9836 H   0  0  0  0  0  0
  -23.7723  -30.5869   19.4079 H   0  0  0  0  0  0
  -22.7706  -29.2374   19.8539 H   0  0  0  0  0  0
  -25.1265  -36.1895   25.0821 H   0  0  0  0  0  0
  -20.9949  -28.3248   24.1397 H   0  0  0  0  0  0
  -20.5563  -26.2301   23.3600 H   0  0  0  0  0  0
  -21.6616  -26.7403   22.1239 H   0  0  0  0  0  0
  -19.6869  -25.6301   21.1238 H   0  0  0  0  0  0
  -19.6681  -27.3189   20.6704 H   0  0  0  0  0  0
  -17.4158  -26.6650   21.4055 H   0  0  0  0  0  0
  -18.0361  -26.0106   22.9040 H   0  0  0  0  0  0
  -19.7923  -30.7243   24.2351 H   0  0  0  0  0  0
  -17.5023  -31.6309   24.5128 H   0  0  0  0  0  0
  -15.5354  -30.3050   23.7651 H   0  0  0  0  0  0
  -15.8630  -28.0842   22.7151 H   0  0  0  0  0  0
  -24.5957  -30.7058   25.7873 H   0  0  0  0  0  0
  -24.8928  -32.2919   26.4910 H   0  0  0  0  0  0
  -25.8124  -30.8988   27.0288 H   0  0  0  0  0  0
  -26.2902  -29.6860   24.1121 H   0  0  0  0  0  0
  -27.3888  -29.7223   25.4710 H   0  0  0  0  0  0
  -27.8837  -30.4299   23.9509 H   0  0  0  0  0  0
  -27.2694  -33.3643   26.2112 H   0  0  0  0  0  0
  -28.3920  -32.6872   25.0421 H   0  0  0  0  0  0
  -28.0694  -31.8459   26.5479 H   0  0  0  0  0  0
  -28.2605  -38.0056   24.7525 H   0  0  0  0  0  0
  -28.1044  -36.2595   24.6331 H   0  0  0  0  0  0
  -27.2285  -37.1461   25.8886 H   0  0  0  0  0  0
  -20.9373  -29.8769   21.6917 H   0  0  0  0  0  0
  -26.0130  -38.2835   24.1508 H   0  0  0  0  0  0
  -28.3788  -19.4944   21.1496 H   0  0  0  0  0  0
  -32.9235  -17.4554   20.8105 H   0  0  0  0  0  0
  -33.4892  -18.1597   19.3061 H   0  0  0  0  0  0
  -32.1997  -17.0107   19.2534 H   0  0  0  0  0  0
  -34.2021  -20.9296   17.1806 H   0  0  0  0  0  0
  -32.4476  -21.0055   17.0233 H   0  0  0  0  0  0
  -33.2361  -19.4558   17.2805 H   0  0  0  0  0  0
  -30.9174  -17.0295   22.0062 H   0  0  0  0  0  0
  -29.2338  -17.3000   21.9893 H   0  0  0  0  0  0
  -27.9039  -22.0500   20.9711 H   0  0  0  0  0  0
  -28.1224  -22.1390   19.2541 H   0  0  0  0  0  0
  -33.9518  -20.2352   19.5980 H   0  0  0  0  0  0
  -33.2586  -21.7804   19.2923 H   0  0  0  0  0  0
  -29.9904  -23.9073   19.6693 H   0  0  0  0  0  0
  -29.5371  -23.9219   21.3479 H   0  0  0  0  0  0
  -27.1832  -24.6815   20.5991 H   0  0  0  0  0  0
  -27.7914  -24.7598   18.9700 H   0  0  0  0  0  0
  -28.8475  -15.5880   20.6309 H   0  0  0  0  0  0
  1 25  1  0  0  0
  1 30  2  0  0  0
  1 84  1  0  0  0
  2  3  1  0  0  0
  2 25  1  0  0  0
  2 85  1  0  0  0
  2 86  1  0  0  0
  3  4  1  0  0  0
  3 87  1  0  0  0
  3 88  1  0  0  0
  4  5  1  0  0  0
  4 89  1  0  0  0
  4 90  1  0  0  0
  5  6  1  0  0  0
  5 26  1  0  0  0
  5 91  1  0  0  0
  6 25  1  0  0  0
  6 92  1  0  0  0
  6 93  1  0  0  0
  7  8  2  0  0  0
  7 26  1  0  0  0
  7 29  1  0  0  0
  8  9  1  0  0  0
  8 22  1  0  0  0
  9 10  1  0  0  0
  9 27  2  0  0  0
 10 11  2  0  0  0
 10 15  1  0  0  0
 11 12  1  0  0  0
 11 94  1  0  0  0
 12 13  2  0  0  0
 12 95  1  0  0  0
 13 14  1  0  0  0
 13 31  1  0  0  0
 14 15  2  0  0  0
 14 96  1  0  0  0
 15 97  1  0  0  0
 16 17  2  0  0  0
 16 21  1  0  0  0
 16 31  1  0  0  0
 17 18  1  0  0  0
 17 98  1  0  0  0
 18 19  2  0  0  0
 18 99  1  0  0  0
 19 20  1  0  0  0
 19 24  1  0  0  0
 20 21  2  0  0  0
 20100  1  0  0  0
 21 23  1  0  0  0
 22 28  1  0  0  0
 22 32  2  0  0  0
 26 27  1  0  0  0
 28101  1  0  0  0
 28102  1  0  0  0
 29103  1  0  0  0
 29104  1  0  0  0
 33 34  1  0  0  0
 33 66  1  0  0  0
 33 70  2  0  0  0
 34 36  1  0  0  0
 34 59  1  0  0  0
 34105  1  0  0  0
 35 44  2  0  0  0
 35 45  1  0  0  0
 35 68  1  0  0  0
 36 56  1  0  0  0
 36106  1  0  0  0
 37 39  1  0  0  0
 37 47  1  0  0  0
 37 66  1  0  0  0
 37107  1  0  0  0
 38 43  2  0  0  0
 38 46  1  0  0  0
 38 47  1  0  0  0
 39 64  1  0  0  0
 39 67  2  0  0  0
 40 52  1  0  0  0
 40 53  2  0  0  0
 40 58  1  0  0  0
 41108  1  0  0  0
 41109  1  0  0  0
 41110  1  0  0  0
 41 48  1  0  0  0
 42 43  1  0  0  0
 42 66  1  0  0  0
 42111  1  0  0  0
 42112  1  0  0  0
 43 44  1  0  0  0
 44113  1  0  0  0
 45 46  2  0  0  0
 45114  1  0  0  0
 46115  1  0  0  0
 47116  1  0  0  0
 47117  1  0  0  0
 48 56  1  0  0  0
 48 65  1  0  0  0
 48118  1  0  0  0
 49 50  1  0  0  0
 49 53  1  0  0  0
 49 64  1  0  0  0
 49119  1  0  0  0
 50 51  1  0  0  0
 50120  1  0  0  0
 50121  1  0  0  0
 51 52  1  0  0  0
 51122  1  0  0  0
 51123  1  0  0  0
 52124  1  0  0  0
 52125  1  0  0  0
 53 54  1  0  0  0
 54 55  2  0  0  0
 54126  1  0  0  0
 55 57  1  0  0  0
 55127  1  0  0  0
 56 69  2  0  0  0
 57 58  2  0  0  0
 57128  1  0  0  0
 58129  1  0  0  0
 59 60  1  0  0  0
 59 61  1  0  0  0
 59 62  1  0  0  0
 60130  1  0  0  0
 60131  1  0  0  0
 60132  1  0  0  0
 61133  1  0  0  0
 61134  1  0  0  0
 61135  1  0  0  0
 62136  1  0  0  0
 62137  1  0  0  0
 62138  1  0  0  0
 63 65  1  0  0  0
 63139  1  0  0  0
 63140  1  0  0  0
 63141  1  0  0  0
 64142  1  0  0  0
 65143  1  0  0  0
 68 82  1  0  0  0
 71 72  2  0  0  0
 71 74  1  0  0  0
 71144  1  0  0  0
 72 73  1  0  0  0
 72 78  1  0  0  0
 73 75  2  0  0  0
 73 76  1  0  0  0
 74 79  1  0  0  0
 74 83  2  0  0  0
 75 80  1  0  0  0
 75 83  1  0  0  0
 76145  1  0  0  0
 76146  1  0  0  0
 76147  1  0  0  0
 77 80  1  0  0  0
 77148  1  0  0  0
 77149  1  0  0  0
 77150  1  0  0  0
 78 84  1  0  0  0
 78151  1  0  0  0
 78152  1  0  0  0
 79 81  1  0  0  0
 79153  1  0  0  0
 79154  1  0  0  0
 80155  1  0  0  0
 80156  1  0  0  0
 81 82  1  0  0  0
 81157  1  0  0  0
 81158  1  0  0  0
 82159  1  0  0  0
 82160  1  0  0  0
 84161  1  0  0  0
M  ISO  4   1 100  68 101  82 101  84 100
M  END
> <chiral flag>
0

> <version>
0

> <s_m_source_file>
/data/baiqing/PycharmProjects/Reinvent-master-3.2/result/LINK_invent/BTK/process_docking_weight1_custom_sum_contain_oxygen_bond_distance_aromatic_linkinvent_7_9_3/rearranged_h_0037.sdf

> <i_m_source_file_index>
28

> <r_mmod_Potential_Energy-OPLS-2005>
-145.663635253906

> <r_mmod_Stretch_Energy-OPLS-2005>
109.600288391113

> <r_mmod_Bend_Energy-OPLS-2005>
171.748733520508

> <r_mmod_Torsional_Energy-OPLS-2005>
217.773544311523

> <r_mmod_Improper_Torsional_Energy-OPLS-2005>
7.10015201568604

> <r_mmod_Van_der_Waal_Energy-OPLS-2005>
145.895721435547

> <r_mmod_Electrostatic_Energy-OPLS-2005>
-648.495666503906

> <r_mmod_Solvation_Energy-OPLS-2005>
-224.604919433594

> <b_mmod_Minimization_Converged-OPLS-2005>
0

> <r_mmod_RMS_Derivative-OPLS-2005>
3.16172671318054

$$$$
28
                    3D
 Structure written by MMmdl.
180188  0  0  1  0            999 V2000
  -30.7050  -14.4560   20.6009 C   0  0  0  0  0  0
  -30.4179  -12.3061   19.4145 C   0  0  0  0  0  0
  -29.4889  -12.5052   18.1998 C   0  0  0  0  0  0
  -28.0108  -12.3636   18.6158 C   0  0  0  0  0  0
  -27.6589  -13.2038   19.8727 C   0  0  2  0  0  0
  -28.6987  -12.9770   20.9913 C   0  0  0  0  0  0
  -25.2596  -13.8134   20.5711 C   0  0  0  0  0  0
  -24.1835  -13.0426   20.9183 C   0  0  0  0  0  0
  -24.6381  -11.6890   20.8732 C   0  0  0  0  0  0
  -23.9048  -10.4282   21.0403 C   0  0  0  0  0  0
  -24.3604   -9.4206   21.9185 C   0  0  0  0  0  0
  -23.6283   -8.2242   22.0759 C   0  0  0  0  0  0
  -22.4268   -8.0275   21.3545 C   0  0  0  0  0  0
  -21.9894   -9.0246   20.4648 C   0  0  0  0  0  0
  -22.7224  -10.2126   20.3052 C   0  0  0  0  0  0
  -21.6848   -6.0733   22.5281 C   0  0  0  0  0  0
  -21.4012   -6.5640   23.8214 C   0  0  0  0  0  0
  -21.3657   -5.6795   24.9179 C   0  0  0  0  0  0
  -21.6039   -4.3054   24.7228 C   0  0  0  0  0  0
  -21.8820   -3.8147   23.4350 C   0  0  0  0  0  0
  -21.9192   -4.6965   22.3408 C   0  0  0  0  0  0
  -22.7862  -13.5237   21.1851 C   0  0  0  0  0  0
  -22.1659   -4.2149   21.0985 F   0  0  0  0  0  0
  -21.5628   -3.4536   25.7739 F   0  0  0  0  0  0
  -30.0283  -13.2873   20.4402 N   0  0  0  0  0  0
  -26.3008  -12.9299   20.3353 N   0  0  0  0  0  0
  -25.9301  -11.6461   20.5745 N   0  0  0  0  0  0
  -22.0487  -12.8226   22.0396 N   0  0  0  0  0  0
  -25.4364  -15.1834   20.4212 N   0  0  0  0  0  0
  -31.8169  -14.6553   20.1022 O   0  0  0  0  0  0
  -21.6631   -6.8873   21.4241 O   0  0  0  0  0  0
  -22.3553  -14.5553   20.6725 O   0  0  0  0  0  0
  -24.6187  -31.8675   23.2093 C   0  0  0  0  0  0
  -25.9069  -32.4816   23.8399 C   0  0  1  0  0  0
  -27.2183  -27.4056   20.0970 C   0  0  0  0  0  0
  -25.5925  -33.8610   24.2319 N   0  0  0  0  0  0
  -23.4050  -30.4937   21.5531 C   0  0  2  0  0  0
  -24.8457  -28.9667   20.1091 C   0  0  0  0  0  0
  -22.7441  -29.4653   22.4982 C   0  0  0  0  0  0
  -18.0277  -28.1381   22.8512 C   0  0  0  0  0  0
  -24.1487  -36.7303   23.2641 C   0  0  0  0  0  0
  -25.9376  -30.8252   21.3654 C   0  0  0  0  0  0
  -26.0108  -29.4609   20.7083 C   0  0  0  0  0  0
  -27.2004  -28.6893   20.6965 C   0  0  0  0  0  0
  -26.0282  -26.9434   19.4809 C   0  0  0  0  0  0
  -24.8518  -27.7095   19.4897 C   0  0  0  0  0  0
  -23.6112  -29.8372   20.1641 C   0  0  0  0  0  0
  -25.4102  -36.3082   24.0335 C   0  0  1  0  0  0
  -20.5881  -28.3659   23.1297 C   0  0  2  0  0  0
  -20.6767  -26.9387   22.5399 C   0  0  0  0  0  0
  -19.5729  -26.6376   21.5220 C   0  0  0  0  0  0
  -18.1912  -26.7918   22.1639 C   0  0  0  0  0  0
  -19.1535  -28.8836   23.2902 C   0  0  0  0  0  0
  -18.9461  -30.1461   23.8885 C   0  0  0  0  0  0
  -17.6467  -30.6584   24.0587 C   0  0  0  0  0  0
  -25.9033  -34.9465   23.5107 C   0  0  0  0  0  0
  -16.5358  -29.9087   23.6346 C   0  0  0  0  0  0
  -16.7262  -28.6520   23.0343 C   0  0  0  0  0  0
  -26.4463  -31.6601   25.0744 C   0  0  0  0  0  0
  -25.3728  -31.3746   26.1504 C   0  0  0  0  0  0
  -27.0306  -30.3040   24.6151 C   0  0  0  0  0  0
  -27.6037  -32.4337   25.7503 C   0  0  0  0  0  0
  -27.5569  -37.1797   24.8478 C   0  0  0  0  0  0
  -21.4159  -29.3030   22.3728 N   0  0  0  0  0  0
  -26.4283  -37.3773   23.9431 N   0  0  0  0  0  0
  -24.6722  -31.0768   22.1010 N   0  0  0  0  0  0
  -23.4205  -28.8172   23.3009 O   0  0  0  0  0  0
  -28.3684  -26.6277   20.1389 O   0  0  0  0  0  0
  -26.5597  -34.8925   22.4676 O   0  0  0  0  0  0
  -23.5371  -32.1439   23.7467 O   0  0  0  0  0  0
  -29.1931  -22.4909   18.5037 C   0  0  0  0  0  0
  -28.6782  -21.8361   20.7819 C   0  0  0  0  0  0
  -29.0896  -22.8322   19.8651 C   0  0  0  0  0  0
  -28.7684  -21.2301   18.0382 C   0  0  0  0  0  0
  -28.2739  -20.5460   20.3435 C   0  0  0  0  0  0
  -28.2504  -20.2690   18.9472 C   0  0  0  0  0  0
  -28.8369  -20.9566   16.5436 C   0  0  0  0  0  0
  -22.9101  -17.0197   17.9068 C   0  0  0  0  0  0
  -23.6449  -18.6227   16.0940 C   0  0  0  0  0  0
  -29.3551  -24.2831   20.2956 C   0  0  0  0  0  0
  -27.7295  -19.5558   21.3894 C   0  0  0  0  0  0
  -27.5683  -19.0094   18.4113 C   0  0  0  0  0  0
  -28.4292  -18.1749   21.6027 C   0  0  0  0  0  0
  -26.0723  -19.2657   18.1532 C   0  0  0  0  0  0
  -29.8612  -17.9709   21.0621 C   0  0  0  0  0  0
  -25.2642  -17.9754   17.9453 C   0  0  0  0  0  0
  -30.6035  -16.7395   21.6491 C   0  0  0  0  0  0
  -28.2005  -25.2187   19.8620 C   0  0  0  0  0  0
  -23.7907  -18.2345   17.5749 C   0  0  0  0  0  0
  -30.0526  -15.4266   21.2712 N   0  0  0  0  0  0
  -31.4625  -12.4044   19.1140 H   0  0  0  0  0  0
  -30.3179  -11.2933   19.8085 H   0  0  0  0  0  0
  -29.7268  -11.7800   17.4202 H   0  0  0  0  0  0
  -29.6557  -13.4908   17.7632 H   0  0  0  0  0  0
  -27.8242  -11.3072   18.8143 H   0  0  0  0  0  0
  -27.3572  -12.6342   17.7856 H   0  0  0  0  0  0
  -27.7053  -14.2523   19.5782 H   0  0  0  0  0  0
  -28.6761  -11.9371   21.3226 H   0  0  0  0  0  0
  -28.4558  -13.5655   21.8767 H   0  0  0  0  0  0
  -25.2744   -9.5683   22.4759 H   0  0  0  0  0  0
  -23.9990   -7.4630   22.7479 H   0  0  0  0  0  0
  -21.0824   -8.8764   19.8949 H   0  0  0  0  0  0
  -22.3686  -10.9664   19.6161 H   0  0  0  0  0  0
  -21.2005   -7.6145   23.9721 H   0  0  0  0  0  0
  -21.1476   -6.0520   25.9080 H   0  0  0  0  0  0
  -22.0601   -2.7606   23.2851 H   0  0  0  0  0  0
  -22.4075  -11.9866   22.4765 H   0  0  0  0  0  0
  -21.1114  -13.1279   22.2599 H   0  0  0  0  0  0
  -24.6680  -15.8366   20.5216 H   0  0  0  0  0  0
  -26.2874  -15.6137   20.0850 H   0  0  0  0  0  0
  -26.7142  -32.5510   23.1153 H   0  0  0  0  0  0
  -25.0106  -33.9793   25.0487 H   0  0  0  0  0  0
  -22.6946  -31.3115   21.4177 H   0  0  0  0  0  0
  -23.3740  -35.9644   23.3312 H   0  0  0  0  0  0
  -24.3556  -36.8892   22.2048 H   0  0  0  0  0  0
  -23.7235  -37.6514   23.6644 H   0  0  0  0  0  0
  -26.0537  -31.5912   20.5962 H   0  0  0  0  0  0
  -26.8233  -30.8733   21.9876 H   0  0  0  0  0  0
  -28.0959  -29.0666   21.1700 H   0  0  0  0  0  0
  -25.9715  -25.9834   18.9904 H   0  0  0  0  0  0
  -23.9571  -27.3234   19.0206 H   0  0  0  0  0  0
  -23.7210  -30.6187   19.4116 H   0  0  0  0  0  0
  -22.7311  -29.2643   19.8695 H   0  0  0  0  0  0
  -25.1256  -36.1934   25.0815 H   0  0  0  0  0  0
  -20.9985  -28.3211   24.1416 H   0  0  0  0  0  0
  -20.5685  -26.2267   23.3592 H   0  0  0  0  0  0
  -21.6624  -26.7423   22.1175 H   0  0  0  0  0  0
  -19.6900  -25.6298   21.1223 H   0  0  0  0  0  0
  -19.6658  -27.3230   20.6792 H   0  0  0  0  0  0
  -17.4181  -26.6693   21.4044 H   0  0  0  0  0  0
  -18.0292  -26.0041   22.9013 H   0  0  0  0  0  0
  -19.7943  -30.7302   24.2196 H   0  0  0  0  0  0
  -17.5023  -31.6252   24.5212 H   0  0  0  0  0  0
  -15.5367  -30.3009   23.7653 H   0  0  0  0  0  0
  -15.8660  -28.0871   22.7012 H   0  0  0  0  0  0
  -24.5875  -30.7098   25.7865 H   0  0  0  0  0  0
  -24.8968  -32.2942   26.4946 H   0  0  0  0  0  0
  -25.8073  -30.8921   27.0273 H   0  0  0  0  0  0
  -26.2878  -29.6810   24.1160 H   0  0  0  0  0  0
  -27.4014  -29.7238   25.4611 H   0  0  0  0  0  0
  -27.8721  -30.4332   23.9339 H   0  0  0  0  0  0
  -27.2634  -33.3625   26.2091 H   0  0  0  0  0  0
  -28.3836  -32.6920   25.0331 H   0  0  0  0  0  0
  -28.0737  -31.8475   26.5414 H   0  0  0  0  0  0
  -28.2581  -38.0099   24.7483 H   0  0  0  0  0  0
  -28.1029  -36.2610   24.6303 H   0  0  0  0  0  0
  -27.2283  -37.1458   25.8880 H   0  0  0  0  0  0
  -20.9321  -29.8771   21.6966 H   0  0  0  0  0  0
  -26.0154  -38.2829   24.1458 H   0  0  0  0  0  0
  -29.5464  -23.2305   17.7977 H   0  0  0  0  0  0
  -28.6138  -22.0862   21.8324 H   0  0  0  0  0  0
  -29.1511  -21.8409   15.9877 H   0  0  0  0  0  0
  -27.8647  -20.6565   16.1524 H   0  0  0  0  0  0
  -29.5577  -20.1650   16.3341 H   0  0  0  0  0  0
  -21.8675  -17.2063   17.6463 H   0  0  0  0  0  0
  -22.9376  -16.7930   18.9740 H   0  0  0  0  0  0
  -23.2332  -16.1266   17.3704 H   0  0  0  0  0  0
  -22.6045  -18.8289   15.8419 H   0  0  0  0  0  0
  -23.9913  -17.8227   15.4377 H   0  0  0  0  0  0
  -24.2173  -19.5191   15.8536 H   0  0  0  0  0  0
  -30.2941  -24.6227   19.8590 H   0  0  0  0  0  0
  -29.4822  -24.3311   21.3767 H   0  0  0  0  0  0
  -26.6719  -19.3849   21.1812 H   0  0  0  0  0  0
  -27.7277  -20.0690   22.3523 H   0  0  0  0  0  0
  -27.6766  -18.1810   19.1037 H   0  0  0  0  0  0
  -28.0509  -18.6555   17.5004 H   0  0  0  0  0  0
  -27.7970  -17.3924   21.1837 H   0  0  0  0  0  0
  -28.4244  -17.9717   22.6735 H   0  0  0  0  0  0
  -25.9557  -19.9416   17.3067 H   0  0  0  0  0  0
  -25.6480  -19.7904   19.0097 H   0  0  0  0  0  0
  -30.4462  -18.8589   21.3052 H   0  0  0  0  0  0
  -29.8532  -17.9177   19.9738 H   0  0  0  0  0  0
  -25.3098  -17.4111   18.8756 H   0  0  0  0  0  0
  -25.7377  -17.3460   17.1903 H   0  0  0  0  0  0
  -30.5977  -16.7984   22.7380 H   0  0  0  0  0  0
  -31.6552  -16.8072   21.3664 H   0  0  0  0  0  0
  -27.3052  -24.8468   20.3642 H   0  0  0  0  0  0
  -28.0425  -25.1069   18.7881 H   0  0  0  0  0  0
  -23.4250  -19.0660   18.1811 H   0  0  0  0  0  0
  -29.1353  -15.1897   21.6190 H   0  0  0  0  0  0
  1 25  1  0  0  0
  1 30  2  0  0  0
  1 90  1  0  0  0
  2  3  1  0  0  0
  2 25  1  0  0  0
  2 91  1  0  0  0
  2 92  1  0  0  0
  3  4  1  0  0  0
  3 93  1  0  0  0
  3 94  1  0  0  0
  4  5  1  0  0  0
  4 95  1  0  0  0
  4 96  1  0  0  0
  5  6  1  0  0  0
  5 26  1  0  0  0
  5 97  1  0  0  0
  6 25  1  0  0  0
  6 98  1  0  0  0
  6 99  1  0  0  0
  7  8  2  0  0  0
  7 26  1  0  0  0
  7 29  1  0  0  0
  8  9  1  0  0  0
  8 22  1  0  0  0
  9 10  1  0  0  0
  9 27  2  0  0  0
 10 11  2  0  0  0
 10 15  1  0  0  0
 11 12  1  0  0  0
 11100  1  0  0  0
 12 13  2  0  0  0
 12101  1  0  0  0
 13 14  1  0  0  0
 13 31  1  0  0  0
 14 15  2  0  0  0
 14102  1  0  0  0
 15103  1  0  0  0
 16 17  2  0  0  0
 16 21  1  0  0  0
 16 31  1  0  0  0
 17 18  1  0  0  0
 17104  1  0  0  0
 18 19  2  0  0  0
 18105  1  0  0  0
 19 20  1  0  0  0
 19 24  1  0  0  0
 20 21  2  0  0  0
 20106  1  0  0  0
 21 23  1  0  0  0
 22 28  1  0  0  0
 22 32  2  0  0  0
 26 27  1  0  0  0
 28107  1  0  0  0
 28108  1  0  0  0
 29109  1  0  0  0
 29110  1  0  0  0
 33 34  1  0  0  0
 33 66  1  0  0  0
 33 70  2  0  0  0
 34 36  1  0  0  0
 34 59  1  0  0  0
 34111  1  0  0  0
 35 44  2  0  0  0
 35 45  1  0  0  0
 35 68  1  0  0  0
 36 56  1  0  0  0
 36112  1  0  0  0
 37 39  1  0  0  0
 37 47  1  0  0  0
 37 66  1  0  0  0
 37113  1  0  0  0
 38 43  2  0  0  0
 38 46  1  0  0  0
 38 47  1  0  0  0
 39 64  1  0  0  0
 39 67  2  0  0  0
 40 52  1  0  0  0
 40 53  2  0  0  0
 40 58  1  0  0  0
 41114  1  0  0  0
 41115  1  0  0  0
 41116  1  0  0  0
 41 48  1  0  0  0
 42 43  1  0  0  0
 42 66  1  0  0  0
 42117  1  0  0  0
 42118  1  0  0  0
 43 44  1  0  0  0
 44119  1  0  0  0
 45 46  2  0  0  0
 45120  1  0  0  0
 46121  1  0  0  0
 47122  1  0  0  0
 47123  1  0  0  0
 48 56  1  0  0  0
 48 65  1  0  0  0
 48124  1  0  0  0
 49 50  1  0  0  0
 49 53  1  0  0  0
 49 64  1  0  0  0
 49125  1  0  0  0
 50 51  1  0  0  0
 50126  1  0  0  0
 50127  1  0  0  0
 51 52  1  0  0  0
 51128  1  0  0  0
 51129  1  0  0  0
 52130  1  0  0  0
 52131  1  0  0  0
 53 54  1  0  0  0
 54 55  2  0  0  0
 54132  1  0  0  0
 55 57  1  0  0  0
 55133  1  0  0  0
 56 69  2  0  0  0
 57 58  2  0  0  0
 57134  1  0  0  0
 58135  1  0  0  0
 59 60  1  0  0  0
 59 61  1  0  0  0
 59 62  1  0  0  0
 60136  1  0  0  0
 60137  1  0  0  0
 60138  1  0  0  0
 61139  1  0  0  0
 61140  1  0  0  0
 61141  1  0  0  0
 62142  1  0  0  0
 62143  1  0  0  0
 62144  1  0  0  0
 63 65  1  0  0  0
 63145  1  0  0  0
 63146  1  0  0  0
 63147  1  0  0  0
 64148  1  0  0  0
 65149  1  0  0  0
 68 88  1  0  0  0
 71 73  2  0  0  0
 71 74  1  0  0  0
 71150  1  0  0  0
 72 73  1  0  0  0
 72 75  2  0  0  0
 72151  1  0  0  0
 73 80  1  0  0  0
 74 76  2  0  0  0
 74 77  1  0  0  0
 75 76  1  0  0  0
 75 81  1  0  0  0
 76 82  1  0  0  0
 77152  1  0  0  0
 77153  1  0  0  0
 77154  1  0  0  0
 78155  1  0  0  0
 78156  1  0  0  0
 78157  1  0  0  0
 78 89  1  0  0  0
 79 89  1  0  0  0
 79158  1  0  0  0
 79159  1  0  0  0
 79160  1  0  0  0
 80 88  1  0  0  0
 80161  1  0  0  0
 80162  1  0  0  0
 81 83  1  0  0  0
 81163  1  0  0  0
 81164  1  0  0  0
 82 84  1  0  0  0
 82165  1  0  0  0
 82166  1  0  0  0
 83 85  1  0  0  0
 83167  1  0  0  0
 83168  1  0  0  0
 84 86  1  0  0  0
 84169  1  0  0  0
 84170  1  0  0  0
 85 87  1  0  0  0
 85171  1  0  0  0
 85172  1  0  0  0
 86 89  1  0  0  0
 86173  1  0  0  0
 86174  1  0  0  0
 87 90  1  0  0  0
 87175  1  0  0  0
 87176  1  0  0  0
 88177  1  0  0  0
 88178  1  0  0  0
 89179  1  0  0  0
 90180  1  0  0  0
M  ISO  4   1 100  68 101  88 101  90 100
M  END
> <chiral flag>
0

> <version>
0

> <s_m_source_file>
/data/baiqing/PycharmProjects/Reinvent-master-3.2/result/LINK_invent/BTK/process_docking_weight1_custom_sum_contain_oxygen_bond_distance_aromatic_linkinvent_7_9_3/rearranged_h_0037.sdf

> <i_m_source_file_index>
29

> <r_mmod_Potential_Energy-OPLS-2005>
-43.5026702880859

> <r_mmod_Stretch_Energy-OPLS-2005>
42.8357200622559

> <r_mmod_Bend_Energy-OPLS-2005>
111.134902954102

> <r_mmod_Torsional_Energy-OPLS-2005>
218.166854858398

> <r_mmod_Improper_Torsional_Energy-OPLS-2005>
3.36187696456909

> <r_mmod_Van_der_Waal_Energy-OPLS-2005>
149.08447265625

> <r_mmod_Electrostatic_Energy-OPLS-2005>
-392.462219238281

> <r_mmod_Solvation_Energy-OPLS-2005>
-190.910049438477

> <b_mmod_Minimization_Converged-OPLS-2005>
0

> <r_mmod_RMS_Derivative-OPLS-2005>
2.44161581993103

$$$$
29
                    3D
 Structure written by MMmdl.
152160  0  0  1  0            999 V2000
  -30.6323  -14.6973   20.4678 C   0  0  0  0  0  0
  -30.4291  -12.4338   19.4383 C   0  0  0  0  0  0
  -29.4935  -12.5140   18.2124 C   0  0  0  0  0  0
  -28.0213  -12.3448   18.6364 C   0  0  0  0  0  0
  -27.6426  -13.2305   19.8532 C   0  0  2  0  0  0
  -28.6961  -13.1396   20.9770 C   0  0  0  0  0  0
  -25.2524  -13.8195   20.5736 C   0  0  0  0  0  0
  -24.1816  -13.0440   20.9237 C   0  0  0  0  0  0
  -24.6409  -11.6924   20.8767 C   0  0  0  0  0  0
  -23.9085  -10.4302   21.0421 C   0  0  0  0  0  0
  -24.3634   -9.4214   21.9194 C   0  0  0  0  0  0
  -23.6314   -8.2245   22.0754 C   0  0  0  0  0  0
  -22.4288   -8.0289   21.3547 C   0  0  0  0  0  0
  -21.9932   -9.0267   20.4650 C   0  0  0  0  0  0
  -22.7259  -10.2152   20.3074 C   0  0  0  0  0  0
  -21.6859   -6.0754   22.5286 C   0  0  0  0  0  0
  -21.4013   -6.5658   23.8217 C   0  0  0  0  0  0
  -21.3658   -5.6803   24.9173 C   0  0  0  0  0  0
  -21.6044   -4.3067   24.7216 C   0  0  0  0  0  0
  -21.8818   -3.8162   23.4339 C   0  0  0  0  0  0
  -21.9193   -4.6979   22.3402 C   0  0  0  0  0  0
  -22.7837  -13.5214   21.1889 C   0  0  0  0  0  0
  -22.1665   -4.2170   21.0975 F   0  0  0  0  0  0
  -21.5622   -3.4546   25.7729 F   0  0  0  0  0  0
  -29.9955  -13.4834   20.3832 N   0  0  0  0  0  0
  -26.2956  -12.9401   20.3340 N   0  0  0  0  0  0
  -25.9337  -11.6548   20.5789 N   0  0  0  0  0  0
  -22.0500  -12.8197   22.0457 N   0  0  0  0  0  0
  -25.4204  -15.1917   20.4124 N   0  0  0  0  0  0
  -31.8317  -14.7936   20.1971 O   0  0  0  0  0  0
  -21.6648   -6.8892   21.4244 O   0  0  0  0  0  0
  -22.3522  -14.5521   20.6740 O   0  0  0  0  0  0
  -24.6323  -31.8576   23.2053 C   0  0  0  0  0  0
  -25.9144  -32.4771   23.8401 C   0  0  1  0  0  0
  -27.2193  -27.2850   20.1052 C   0  0  0  0  0  0
  -25.5937  -33.8571   24.2315 N   0  0  0  0  0  0
  -23.4275  -30.4835   21.5490 C   0  0  2  0  0  0
  -24.8725  -28.9413   20.1117 C   0  0  0  0  0  0
  -22.7507  -29.4602   22.4938 C   0  0  0  0  0  0
  -18.0288  -28.1362   22.8487 C   0  0  0  0  0  0
  -24.1499  -36.7305   23.2643 C   0  0  0  0  0  0
  -25.9750  -30.7765   21.3842 C   0  0  0  0  0  0
  -26.0464  -29.4034   20.7196 C   0  0  0  0  0  0
  -27.2232  -28.5879   20.7075 C   0  0  0  0  0  0
  -26.0165  -26.8925   19.4717 C   0  0  0  0  0  0
  -24.8604  -27.6917   19.4802 C   0  0  0  0  0  0
  -23.6438  -29.8260   20.1632 C   0  0  0  0  0  0
  -25.4121  -36.3081   24.0339 C   0  0  1  0  0  0
  -20.5896  -28.3678   23.1280 C   0  0  2  0  0  0
  -20.6764  -26.9396   22.5410 C   0  0  0  0  0  0
  -19.5744  -26.6371   21.5206 C   0  0  0  0  0  0
  -18.1928  -26.7907   22.1621 C   0  0  0  0  0  0
  -19.1541  -28.8836   23.2876 C   0  0  0  0  0  0
  -18.9453  -30.1437   23.8900 C   0  0  0  0  0  0
  -17.6447  -30.6565   24.0549 C   0  0  0  0  0  0
  -25.9054  -34.9441   23.5129 C   0  0  0  0  0  0
  -16.5343  -29.9059   23.6321 C   0  0  0  0  0  0
  -16.7269  -28.6467   23.0357 C   0  0  0  0  0  0
  -26.4506  -31.6583   25.0783 C   0  0  0  0  0  0
  -25.3734  -31.3712   26.1510 C   0  0  0  0  0  0
  -27.0355  -30.3002   24.6260 C   0  0  0  0  0  0
  -27.6075  -32.4315   25.7536 C   0  0  0  0  0  0
  -27.5590  -37.1825   24.8472 C   0  0  0  0  0  0
  -21.4213  -29.3043   22.3683 N   0  0  0  0  0  0
  -26.4312  -37.3771   23.9401 N   0  0  0  0  0  0
  -24.6972  -31.0568   22.1015 N   0  0  0  0  0  0
  -23.4209  -28.8119   23.3013 O   0  0  0  0  0  0
  -28.3175  -26.3934   20.1434 O   0  0  0  0  0  0
  -26.5612  -34.8891   22.4690 O   0  0  0  0  0  0
  -23.5479  -32.1370   23.7367 O   0  0  0  0  0  0
  -29.4382  -19.7632   20.7038 C   0  0  0  0  0  0
  -29.7468  -19.7350   18.0087 C   0  0  0  0  0  0
  -29.8743  -18.5126   20.1166 C   0  0  0  0  0  0
  -30.0219  -18.5380   18.7094 C   0  0  0  0  0  0
  -29.1842  -20.9470   19.9150 C   0  0  0  0  0  0
  -30.2952  -17.2462   20.9777 C   0  0  0  0  0  0
  -28.4849  -22.2704   20.4295 C   0  0  0  0  0  0
  -29.0879  -23.7465   20.1930 C   0  0  0  0  0  0
  -28.0184  -24.9317   20.0205 C   0  0  0  0  0  0
  -29.3401  -20.8958   18.5775 N   0  0  0  0  0  0
  -29.8623  -15.8202   20.6771 N   0  0  0  0  0  0
  -30.5678  -17.1625   17.8160 Cl  0  0  0  0  0  0
  -31.4653  -12.5608   19.1229 H   0  0  0  0  0  0
  -30.3723  -11.4472   19.9027 H   0  0  0  0  0  0
  -29.7594  -11.7520   17.4789 H   0  0  0  0  0  0
  -29.6263  -13.4759   17.7133 H   0  0  0  0  0  0
  -27.8666  -11.2935   18.8822 H   0  0  0  0  0  0
  -27.3591  -12.5600   17.7967 H   0  0  0  0  0  0
  -27.6428  -14.2582   19.4887 H   0  0  0  0  0  0
  -28.7265  -12.1362   21.4055 H   0  0  0  0  0  0
  -28.4482  -13.8147   21.7979 H   0  0  0  0  0  0
  -25.2767   -9.5685   22.4785 H   0  0  0  0  0  0
  -24.0019   -7.4630   22.7468 H   0  0  0  0  0  0
  -21.0863   -8.8788   19.8958 H   0  0  0  0  0  0
  -22.3705  -10.9700   19.6202 H   0  0  0  0  0  0
  -21.2017   -7.6163   23.9721 H   0  0  0  0  0  0
  -21.1478   -6.0538   25.9078 H   0  0  0  0  0  0
  -22.0600   -2.7630   23.2830 H   0  0  0  0  0  0
  -22.4116  -11.9836   22.4798 H   0  0  0  0  0  0
  -21.1139  -13.1234   22.2718 H   0  0  0  0  0  0
  -24.6468  -15.8398   20.5128 H   0  0  0  0  0  0
  -26.2571  -15.6305   20.0512 H   0  0  0  0  0  0
  -26.7212  -32.5408   23.1149 H   0  0  0  0  0  0
  -25.0070  -33.9715   25.0445 H   0  0  0  0  0  0
  -22.7248  -31.3071   21.4089 H   0  0  0  0  0  0
  -23.3751  -35.9651   23.3304 H   0  0  0  0  0  0
  -24.3597  -36.8923   22.2062 H   0  0  0  0  0  0
  -23.7257  -37.6513   23.6652 H   0  0  0  0  0  0
  -26.1216  -31.5425   20.6228 H   0  0  0  0  0  0
  -26.8503  -30.8183   22.0205 H   0  0  0  0  0  0
  -28.1217  -28.9366   21.1963 H   0  0  0  0  0  0
  -25.9215  -25.9487   18.9587 H   0  0  0  0  0  0
  -23.9632  -27.3360   18.9944 H   0  0  0  0  0  0
  -23.7650  -30.6050   19.4105 H   0  0  0  0  0  0
  -22.7628  -29.2602   19.8561 H   0  0  0  0  0  0
  -25.1303  -36.1962   25.0838 H   0  0  0  0  0  0
  -20.9982  -28.3236   24.1401 H   0  0  0  0  0  0
  -20.5638  -26.2291   23.3611 H   0  0  0  0  0  0
  -21.6634  -26.7394   22.1223 H   0  0  0  0  0  0
  -19.6903  -25.6285   21.1228 H   0  0  0  0  0  0
  -19.6669  -27.3183   20.6737 H   0  0  0  0  0  0
  -17.4192  -26.6652   21.4022 H   0  0  0  0  0  0
  -18.0322  -26.0040   22.9011 H   0  0  0  0  0  0
  -19.7923  -30.7243   24.2282 H   0  0  0  0  0  0
  -17.4994  -31.6242   24.5150 H   0  0  0  0  0  0
  -15.5342  -30.2949   23.7633 H   0  0  0  0  0  0
  -15.8671  -28.0764   22.7101 H   0  0  0  0  0  0
  -24.5916  -30.7053   25.7837 H   0  0  0  0  0  0
  -24.8907  -32.2859   26.4957 H   0  0  0  0  0  0
  -25.8059  -30.8877   27.0279 H   0  0  0  0  0  0
  -26.2943  -29.6765   24.1248 H   0  0  0  0  0  0
  -27.3998  -29.7256   25.4789 H   0  0  0  0  0  0
  -27.8838  -30.4296   23.9538 H   0  0  0  0  0  0
  -27.2706  -33.3618   26.2125 H   0  0  0  0  0  0
  -28.3864  -32.6872   25.0340 H   0  0  0  0  0  0
  -28.0764  -31.8430   26.5438 H   0  0  0  0  0  0
  -28.2624  -38.0103   24.7472 H   0  0  0  0  0  0
  -28.1060  -36.2629   24.6345 H   0  0  0  0  0  0
  -27.2299  -37.1542   25.8872 H   0  0  0  0  0  0
  -20.9404  -29.8801   21.6912 H   0  0  0  0  0  0
  -26.0200  -38.2865   24.1330 H   0  0  0  0  0  0
  -29.2842  -19.8119   21.7724 H   0  0  0  0  0  0
  -29.8613  -19.7665   16.9356 H   0  0  0  0  0  0
  -31.3845  -17.2631   21.0266 H   0  0  0  0  0  0
  -29.9722  -17.4449   21.9996 H   0  0  0  0  0  0
  -28.2771  -22.1528   21.4929 H   0  0  0  0  0  0
  -27.5001  -22.2560   19.9607 H   0  0  0  0  0  0
  -29.7072  -23.7276   19.2960 H   0  0  0  0  0  0
  -29.7657  -23.9803   21.0135 H   0  0  0  0  0  0
  -27.2032  -24.7231   20.7163 H   0  0  0  0  0  0
  -27.6157  -24.7699   19.0211 H   0  0  0  0  0  0
  -28.8724  -15.6543   20.7707 H   0  0  0  0  0  0
  1 25  1  0  0  0
  1 30  2  0  0  0
  1 81  1  0  0  0
  2  3  1  0  0  0
  2 25  1  0  0  0
  2 83  1  0  0  0
  2 84  1  0  0  0
  3  4  1  0  0  0
  3 85  1  0  0  0
  3 86  1  0  0  0
  4  5  1  0  0  0
  4 87  1  0  0  0
  4 88  1  0  0  0
  5  6  1  0  0  0
  5 26  1  0  0  0
  5 89  1  0  0  0
  6 25  1  0  0  0
  6 90  1  0  0  0
  6 91  1  0  0  0
  7  8  2  0  0  0
  7 26  1  0  0  0
  7 29  1  0  0  0
  8  9  1  0  0  0
  8 22  1  0  0  0
  9 10  1  0  0  0
  9 27  2  0  0  0
 10 11  2  0  0  0
 10 15  1  0  0  0
 11 12  1  0  0  0
 11 92  1  0  0  0
 12 13  2  0  0  0
 12 93  1  0  0  0
 13 14  1  0  0  0
 13 31  1  0  0  0
 14 15  2  0  0  0
 14 94  1  0  0  0
 15 95  1  0  0  0
 16 17  2  0  0  0
 16 21  1  0  0  0
 16 31  1  0  0  0
 17 18  1  0  0  0
 17 96  1  0  0  0
 18 19  2  0  0  0
 18 97  1  0  0  0
 19 20  1  0  0  0
 19 24  1  0  0  0
 20 21  2  0  0  0
 20 98  1  0  0  0
 21 23  1  0  0  0
 22 28  1  0  0  0
 22 32  2  0  0  0
 26 27  1  0  0  0
 28 99  1  0  0  0
 28100  1  0  0  0
 29101  1  0  0  0
 29102  1  0  0  0
 33 34  1  0  0  0
 33 66  1  0  0  0
 33 70  2  0  0  0
 34 36  1  0  0  0
 34 59  1  0  0  0
 34103  1  0  0  0
 35 44  2  0  0  0
 35 45  1  0  0  0
 35 68  1  0  0  0
 36 56  1  0  0  0
 36104  1  0  0  0
 37 39  1  0  0  0
 37 47  1  0  0  0
 37 66  1  0  0  0
 37105  1  0  0  0
 38 43  2  0  0  0
 38 46  1  0  0  0
 38 47  1  0  0  0
 39 64  1  0  0  0
 39 67  2  0  0  0
 40 52  1  0  0  0
 40 53  2  0  0  0
 40 58  1  0  0  0
 41106  1  0  0  0
 41107  1  0  0  0
 41108  1  0  0  0
 41 48  1  0  0  0
 42 43  1  0  0  0
 42 66  1  0  0  0
 42109  1  0  0  0
 42110  1  0  0  0
 43 44  1  0  0  0
 44111  1  0  0  0
 45 46  2  0  0  0
 45112  1  0  0  0
 46113  1  0  0  0
 47114  1  0  0  0
 47115  1  0  0  0
 48 56  1  0  0  0
 48 65  1  0  0  0
 48116  1  0  0  0
 49 50  1  0  0  0
 49 53  1  0  0  0
 49 64  1  0  0  0
 49117  1  0  0  0
 50 51  1  0  0  0
 50118  1  0  0  0
 50119  1  0  0  0
 51 52  1  0  0  0
 51120  1  0  0  0
 51121  1  0  0  0
 52122  1  0  0  0
 52123  1  0  0  0
 53 54  1  0  0  0
 54 55  2  0  0  0
 54124  1  0  0  0
 55 57  1  0  0  0
 55125  1  0  0  0
 56 69  2  0  0  0
 57 58  2  0  0  0
 57126  1  0  0  0
 58127  1  0  0  0
 59 60  1  0  0  0
 59 61  1  0  0  0
 59 62  1  0  0  0
 60128  1  0  0  0
 60129  1  0  0  0
 60130  1  0  0  0
 61131  1  0  0  0
 61132  1  0  0  0
 61133  1  0  0  0
 62134  1  0  0  0
 62135  1  0  0  0
 62136  1  0  0  0
 63 65  1  0  0  0
 63137  1  0  0  0
 63138  1  0  0  0
 63139  1  0  0  0
 64140  1  0  0  0
 65141  1  0  0  0
 68 79  1  0  0  0
 71 73  2  0  0  0
 71 75  1  0  0  0
 71142  1  0  0  0
 72 74  2  0  0  0
 72 80  1  0  0  0
 72143  1  0  0  0
 73 74  1  0  0  0
 73 76  1  0  0  0
 74 82  1  0  0  0
 75 77  1  0  0  0
 75 80  2  0  0  0
 76 81  1  0  0  0
 76144  1  0  0  0
 76145  1  0  0  0
 77 78  1  0  0  0
 77146  1  0  0  0
 77147  1  0  0  0
 78 79  1  0  0  0
 78148  1  0  0  0
 78149  1  0  0  0
 79150  1  0  0  0
 79151  1  0  0  0
 81152  1  0  0  0
M  ISO  4   1 100  68 101  79 101  81 100
M  END
> <chiral flag>
0

> <version>
0

> <s_m_source_file>
/data/baiqing/PycharmProjects/Reinvent-master-3.2/result/LINK_invent/BTK/process_docking_weight1_custom_sum_contain_oxygen_bond_distance_aromatic_linkinvent_7_9_3/rearranged_h_0037.sdf

> <i_m_source_file_index>
30

> <r_mmod_Potential_Energy-OPLS-2005>
-82.7034378051758

> <r_mmod_Stretch_Energy-OPLS-2005>
101.897117614746

> <r_mmod_Bend_Energy-OPLS-2005>
158.333648681641

> <r_mmod_Torsional_Energy-OPLS-2005>
208.85124206543

> <r_mmod_Improper_Torsional_Energy-OPLS-2005>
5.61234951019287

> <r_mmod_Van_der_Waal_Energy-OPLS-2005>
143.174575805664

> <r_mmod_Electrostatic_Energy-OPLS-2005>
-543.802490234375

> <r_mmod_Solvation_Energy-OPLS-2005>
-227.231231689453

> <b_mmod_Minimization_Converged-OPLS-2005>
0

> <r_mmod_RMS_Derivative-OPLS-2005>
2.42198204994202

$$$$
30
                    3D
 Structure written by MMmdl.
164172  0  0  1  0            999 V2000
  -30.7436  -14.4104   20.6431 C   0  0  0  0  0  0
  -30.4169  -12.3003   19.4043 C   0  0  0  0  0  0
  -29.4856  -12.5172   18.1965 C   0  0  0  0  0  0
  -28.0091  -12.3751   18.6128 C   0  0  0  0  0  0
  -27.6626  -13.2057   19.8768 C   0  0  2  0  0  0
  -28.7021  -12.9657   20.9934 C   0  0  0  0  0  0
  -25.2590  -13.8162   20.5678 C   0  0  0  0  0  0
  -24.1836  -13.0440   20.9168 C   0  0  0  0  0  0
  -24.6389  -11.6906   20.8729 C   0  0  0  0  0  0
  -23.9056  -10.4294   21.0403 C   0  0  0  0  0  0
  -24.3612   -9.4210   21.9183 C   0  0  0  0  0  0
  -23.6290   -8.2245   22.0753 C   0  0  0  0  0  0
  -22.4272   -8.0281   21.3545 C   0  0  0  0  0  0
  -21.9905   -9.0254   20.4647 C   0  0  0  0  0  0
  -22.7229  -10.2134   20.3054 C   0  0  0  0  0  0
  -21.6852   -6.0736   22.5280 C   0  0  0  0  0  0
  -21.4014   -6.5641   23.8213 C   0  0  0  0  0  0
  -21.3659   -5.6793   24.9176 C   0  0  0  0  0  0
  -21.6044   -4.3056   24.7226 C   0  0  0  0  0  0
  -21.8819   -3.8147   23.4348 C   0  0  0  0  0  0
  -21.9192   -4.6963   22.3403 C   0  0  0  0  0  0
  -22.7861  -13.5241   21.1836 C   0  0  0  0  0  0
  -22.1662   -4.2150   21.0980 F   0  0  0  0  0  0
  -21.5628   -3.4539   25.7739 F   0  0  0  0  0  0
  -30.0375  -13.2658   20.4468 N   0  0  0  0  0  0
  -26.3026  -12.9331   20.3373 N   0  0  0  0  0  0
  -25.9316  -11.6489   20.5761 N   0  0  0  0  0  0
  -22.0505  -12.8232   22.0398 N   0  0  0  0  0  0
  -25.4325  -15.1877   20.4099 N   0  0  0  0  0  0
  -31.8221  -14.6390   20.0882 O   0  0  0  0  0  0
  -21.6638   -6.8878   21.4241 O   0  0  0  0  0  0
  -22.3547  -14.5549   20.6690 O   0  0  0  0  0  0
  -24.6132  -31.8693   23.2109 C   0  0  0  0  0  0
  -25.9030  -32.4827   23.8398 C   0  0  1  0  0  0
  -27.2317  -27.4383   20.0845 C   0  0  0  0  0  0
  -25.5888  -33.8624   24.2332 N   0  0  0  0  0  0
  -23.3999  -30.4945   21.5518 C   0  0  2  0  0  0
  -24.8428  -28.9605   20.1164 C   0  0  0  0  0  0
  -22.7402  -29.4670   22.4991 C   0  0  0  0  0  0
  -18.0276  -28.1380   22.8497 C   0  0  0  0  0  0
  -24.1490  -36.7323   23.2637 C   0  0  0  0  0  0
  -25.9291  -30.8346   21.3637 C   0  0  0  0  0  0
  -26.0036  -29.4696   20.7097 C   0  0  0  0  0  0
  -27.1982  -28.7154   20.6907 C   0  0  0  0  0  0
  -26.0437  -26.9388   19.4980 C   0  0  0  0  0  0
  -24.8566  -27.6930   19.5114 C   0  0  0  0  0  0
  -23.6070  -29.8287   20.1658 C   0  0  0  0  0  0
  -25.4108  -36.3112   24.0338 C   0  0  1  0  0  0
  -20.5865  -28.3666   23.1323 C   0  0  2  0  0  0
  -20.6765  -26.9406   22.5416 C   0  0  0  0  0  0
  -19.5745  -26.6389   21.5213 C   0  0  0  0  0  0
  -18.1925  -26.7927   22.1628 C   0  0  0  0  0  0
  -19.1523  -28.8838   23.2911 C   0  0  0  0  0  0
  -18.9452  -30.1444   23.8922 C   0  0  0  0  0  0
  -17.6455  -30.6586   24.0569 C   0  0  0  0  0  0
  -25.9034  -34.9477   23.5134 C   0  0  0  0  0  0
  -16.5346  -29.9090   23.6323 C   0  0  0  0  0  0
  -16.7264  -28.6506   23.0343 C   0  0  0  0  0  0
  -26.4464  -31.6596   25.0717 C   0  0  0  0  0  0
  -25.3736  -31.3681   26.1468 C   0  0  0  0  0  0
  -27.0287  -30.3039   24.6076 C   0  0  0  0  0  0
  -27.6050  -32.4305   25.7472 C   0  0  0  0  0  0
  -27.5588  -37.1809   24.8463 C   0  0  0  0  0  0
  -21.4131  -29.3035   22.3726 N   0  0  0  0  0  0
  -26.4296  -37.3796   23.9413 N   0  0  0  0  0  0
  -24.6658  -31.0803   22.1006 N   0  0  0  0  0  0
  -23.4182  -28.8212   23.3025 O   0  0  0  0  0  0
  -28.4262  -26.7426   20.0873 O   0  0  0  0  0  0
  -26.5604  -34.8926   22.4699 O   0  0  0  0  0  0
  -23.5328  -32.1445   23.7510 O   0  0  0  0  0  0
  -26.5145  -22.5053   19.8144 C   0  0  0  0  0  0
  -28.8203  -22.0618   20.3730 C   0  0  0  0  0  0
  -27.7465  -22.9750   20.3070 C   0  0  0  0  0  0
  -26.4031  -21.1620   19.4119 C   0  0  0  0  0  0
  -28.6244  -20.7340   19.9343 C   0  0  0  0  0  0
  -25.0325  -20.6433   17.3442 C   0  0  0  0  0  0
  -27.8879  -24.4225   20.7654 C   0  0  0  0  0  0
  -25.0904  -20.6212   18.8761 C   0  0  0  0  0  0
  -29.7708  -19.7290   19.9146 C   0  0  0  0  0  0
  -29.6047  -18.5400   20.8884 C   0  0  0  0  0  0
  -30.8870  -17.6863   20.9760 C   0  0  0  0  0  0
  -30.8375  -16.5155   21.9838 C   0  0  0  0  0  0
  -28.4529  -25.3659   19.6805 C   0  0  0  0  0  0
  -27.4392  -20.2969   19.4560 N   0  0  0  0  0  0
  -30.1871  -15.3043   21.4755 N   0  0  0  0  0  0
  -31.4601  -12.4004   19.0988 H   0  0  0  0  0  0
  -30.3181  -11.2834   19.7870 H   0  0  0  0  0  0
  -29.7208  -11.8038   17.4057 H   0  0  0  0  0  0
  -29.6546  -13.5091   17.7747 H   0  0  0  0  0  0
  -27.8171  -11.3181   18.8006 H   0  0  0  0  0  0
  -27.3563  -12.6593   17.7868 H   0  0  0  0  0  0
  -27.7152  -14.2574   19.5938 H   0  0  0  0  0  0
  -28.6724  -11.9252   21.3199 H   0  0  0  0  0  0
  -28.4543  -13.5499   21.8799 H   0  0  0  0  0  0
  -25.2759   -9.5687   22.4753 H   0  0  0  0  0  0
  -24.0000   -7.4638   22.7473 H   0  0  0  0  0  0
  -21.0836   -8.8772   19.8954 H   0  0  0  0  0  0
  -22.3689  -10.9673   19.6162 H   0  0  0  0  0  0
  -21.2006   -7.6148   23.9717 H   0  0  0  0  0  0
  -21.1481   -6.0523   25.9080 H   0  0  0  0  0  0
  -22.0599   -2.7609   23.2847 H   0  0  0  0  0  0
  -22.4121  -11.9890   22.4779 H   0  0  0  0  0  0
  -21.1127  -13.1263   22.2614 H   0  0  0  0  0  0
  -24.6703  -15.8471   20.5216 H   0  0  0  0  0  0
  -26.2941  -15.6257   20.1079 H   0  0  0  0  0  0
  -26.7096  -32.5539   23.1157 H   0  0  0  0  0  0
  -25.0001  -33.9791   25.0450 H   0  0  0  0  0  0
  -22.6879  -31.3108   21.4144 H   0  0  0  0  0  0
  -23.3746  -35.9662   23.3293 H   0  0  0  0  0  0
  -24.3588  -36.8947   22.2053 H   0  0  0  0  0  0
  -23.7251  -37.6527   23.6661 H   0  0  0  0  0  0
  -26.0430  -31.6014   20.5962 H   0  0  0  0  0  0
  -26.8169  -30.8853   21.9823 H   0  0  0  0  0  0
  -28.0968  -29.1091   21.1452 H   0  0  0  0  0  0
  -26.0015  -25.9704   19.0239 H   0  0  0  0  0  0
  -23.9614  -27.2922   19.0559 H   0  0  0  0  0  0
  -23.7182  -30.6045   19.4077 H   0  0  0  0  0  0
  -22.7306  -29.2502   19.8685 H   0  0  0  0  0  0
  -25.1285  -36.1976   25.0831 H   0  0  0  0  0  0
  -20.9965  -28.3238   24.1441 H   0  0  0  0  0  0
  -20.5676  -26.2275   23.3599 H   0  0  0  0  0  0
  -21.6637  -26.7461   22.1207 H   0  0  0  0  0  0
  -19.6907  -25.6304   21.1231 H   0  0  0  0  0  0
  -19.6684  -27.3208   20.6750 H   0  0  0  0  0  0
  -17.4196  -26.6677   21.4027 H   0  0  0  0  0  0
  -18.0326  -26.0066   22.9020 H   0  0  0  0  0  0
  -19.7929  -30.7251   24.2304 H   0  0  0  0  0  0
  -17.5012  -31.6271   24.5165 H   0  0  0  0  0  0
  -15.5347  -30.2999   23.7631 H   0  0  0  0  0  0
  -15.8665  -28.0834   22.7042 H   0  0  0  0  0  0
  -24.5925  -30.7014   25.7798 H   0  0  0  0  0  0
  -24.8903  -32.2819   26.4930 H   0  0  0  0  0  0
  -25.8095  -30.8843   27.0218 H   0  0  0  0  0  0
  -26.2819  -29.6798   24.1154 H   0  0  0  0  0  0
  -27.4085  -29.7279   25.4525 H   0  0  0  0  0  0
  -27.8645  -30.4358   23.9200 H   0  0  0  0  0  0
  -27.2687  -33.3599   26.2079 H   0  0  0  0  0  0
  -28.3834  -32.6868   25.0274 H   0  0  0  0  0  0
  -28.0741  -31.8405   26.5356 H   0  0  0  0  0  0
  -28.2592  -38.0119   24.7528 H   0  0  0  0  0  0
  -28.1096  -36.2650   24.6259 H   0  0  0  0  0  0
  -27.2310  -37.1423   25.8866 H   0  0  0  0  0  0
  -20.9286  -29.8755   21.6950 H   0  0  0  0  0  0
  -26.0183  -38.2874   24.1415 H   0  0  0  0  0  0
  -25.6606  -23.1667   19.7471 H   0  0  0  0  0  0
  -29.7863  -22.3798   20.7419 H   0  0  0  0  0  0
  -24.0822  -20.2486   16.9849 H   0  0  0  0  0  0
  -25.8313  -20.0386   16.9146 H   0  0  0  0  0  0
  -25.1389  -21.6599   16.9648 H   0  0  0  0  0  0
  -28.5263  -24.4573   21.6483 H   0  0  0  0  0  0
  -26.9096  -24.7722   21.0953 H   0  0  0  0  0  0
  -24.2662  -21.2063   19.2858 H   0  0  0  0  0  0
  -24.9463  -19.6024   19.2380 H   0  0  0  0  0  0
  -30.6956  -20.2595   20.1440 H   0  0  0  0  0  0
  -29.8885  -19.3566   18.8960 H   0  0  0  0  0  0
  -28.7590  -17.9240   20.5804 H   0  0  0  0  0  0
  -29.3633  -18.9252   21.8796 H   0  0  0  0  0  0
  -31.7029  -18.3437   21.2810 H   0  0  0  0  0  0
  -31.1638  -17.3240   19.9849 H   0  0  0  0  0  0
  -30.3395  -16.8295   22.9020 H   0  0  0  0  0  0
  -31.8568  -16.2560   22.2779 H   0  0  0  0  0  0
  -27.9566  -25.2226   18.7209 H   0  0  0  0  0  0
  -29.4941  -25.0986   19.4978 H   0  0  0  0  0  0
  -29.2930  -15.0562   21.8732 H   0  0  0  0  0  0
  1 25  1  0  0  0
  1 30  2  0  0  0
  1 85  1  0  0  0
  2  3  1  0  0  0
  2 25  1  0  0  0
  2 86  1  0  0  0
  2 87  1  0  0  0
  3  4  1  0  0  0
  3 88  1  0  0  0
  3 89  1  0  0  0
  4  5  1  0  0  0
  4 90  1  0  0  0
  4 91  1  0  0  0
  5  6  1  0  0  0
  5 26  1  0  0  0
  5 92  1  0  0  0
  6 25  1  0  0  0
  6 93  1  0  0  0
  6 94  1  0  0  0
  7  8  2  0  0  0
  7 26  1  0  0  0
  7 29  1  0  0  0
  8  9  1  0  0  0
  8 22  1  0  0  0
  9 10  1  0  0  0
  9 27  2  0  0  0
 10 11  2  0  0  0
 10 15  1  0  0  0
 11 12  1  0  0  0
 11 95  1  0  0  0
 12 13  2  0  0  0
 12 96  1  0  0  0
 13 14  1  0  0  0
 13 31  1  0  0  0
 14 15  2  0  0  0
 14 97  1  0  0  0
 15 98  1  0  0  0
 16 17  2  0  0  0
 16 21  1  0  0  0
 16 31  1  0  0  0
 17 18  1  0  0  0
 17 99  1  0  0  0
 18 19  2  0  0  0
 18100  1  0  0  0
 19 20  1  0  0  0
 19 24  1  0  0  0
 20 21  2  0  0  0
 20101  1  0  0  0
 21 23  1  0  0  0
 22 28  1  0  0  0
 22 32  2  0  0  0
 26 27  1  0  0  0
 28102  1  0  0  0
 28103  1  0  0  0
 29104  1  0  0  0
 29105  1  0  0  0
 33 34  1  0  0  0
 33 66  1  0  0  0
 33 70  2  0  0  0
 34 36  1  0  0  0
 34 59  1  0  0  0
 34106  1  0  0  0
 35 44  2  0  0  0
 35 45  1  0  0  0
 35 68  1  0  0  0
 36 56  1  0  0  0
 36107  1  0  0  0
 37 39  1  0  0  0
 37 47  1  0  0  0
 37 66  1  0  0  0
 37108  1  0  0  0
 38 43  2  0  0  0
 38 46  1  0  0  0
 38 47  1  0  0  0
 39 64  1  0  0  0
 39 67  2  0  0  0
 40 52  1  0  0  0
 40 53  2  0  0  0
 40 58  1  0  0  0
 41109  1  0  0  0
 41110  1  0  0  0
 41111  1  0  0  0
 41 48  1  0  0  0
 42 43  1  0  0  0
 42 66  1  0  0  0
 42112  1  0  0  0
 42113  1  0  0  0
 43 44  1  0  0  0
 44114  1  0  0  0
 45 46  2  0  0  0
 45115  1  0  0  0
 46116  1  0  0  0
 47117  1  0  0  0
 47118  1  0  0  0
 48 56  1  0  0  0
 48 65  1  0  0  0
 48119  1  0  0  0
 49 50  1  0  0  0
 49 53  1  0  0  0
 49 64  1  0  0  0
 49120  1  0  0  0
 50 51  1  0  0  0
 50121  1  0  0  0
 50122  1  0  0  0
 51 52  1  0  0  0
 51123  1  0  0  0
 51124  1  0  0  0
 52125  1  0  0  0
 52126  1  0  0  0
 53 54  1  0  0  0
 54 55  2  0  0  0
 54127  1  0  0  0
 55 57  1  0  0  0
 55128  1  0  0  0
 56 69  2  0  0  0
 57 58  2  0  0  0
 57129  1  0  0  0
 58130  1  0  0  0
 59 60  1  0  0  0
 59 61  1  0  0  0
 59 62  1  0  0  0
 60131  1  0  0  0
 60132  1  0  0  0
 60133  1  0  0  0
 61134  1  0  0  0
 61135  1  0  0  0
 61136  1  0  0  0
 62137  1  0  0  0
 62138  1  0  0  0
 62139  1  0  0  0
 63 65  1  0  0  0
 63140  1  0  0  0
 63141  1  0  0  0
 63142  1  0  0  0
 64143  1  0  0  0
 65144  1  0  0  0
 68 83  1  0  0  0
 71 73  2  0  0  0
 71 74  1  0  0  0
 71145  1  0  0  0
 72 73  1  0  0  0
 72 75  2  0  0  0
 72146  1  0  0  0
 73 77  1  0  0  0
 74 78  1  0  0  0
 74 84  2  0  0  0
 75 79  1  0  0  0
 75 84  1  0  0  0
 76 78  1  0  0  0
 76147  1  0  0  0
 76148  1  0  0  0
 76149  1  0  0  0
 77 83  1  0  0  0
 77150  1  0  0  0
 77151  1  0  0  0
 78152  1  0  0  0
 78153  1  0  0  0
 79 80  1  0  0  0
 79154  1  0  0  0
 79155  1  0  0  0
 80 81  1  0  0  0
 80156  1  0  0  0
 80157  1  0  0  0
 81 82  1  0  0  0
 81158  1  0  0  0
 81159  1  0  0  0
 82 85  1  0  0  0
 82160  1  0  0  0
 82161  1  0  0  0
 83162  1  0  0  0
 83163  1  0  0  0
 85164  1  0  0  0
M  ISO  4   1 100  68 101  83 101  85 100
M  END
> <chiral flag>
0

> <version>
0

> <s_m_source_file>
/data/baiqing/PycharmProjects/Reinvent-master-3.2/result/LINK_invent/BTK/process_docking_weight1_custom_sum_contain_oxygen_bond_distance_aromatic_linkinvent_7_9_3/rearranged_h_0037.sdf

> <i_m_source_file_index>
31

> <r_mmod_Potential_Energy-OPLS-2005>
-264.892395019531

> <r_mmod_Stretch_Energy-OPLS-2005>
33.9290390014648

> <r_mmod_Bend_Energy-OPLS-2005>
95.8079147338867

> <r_mmod_Torsional_Energy-OPLS-2005>
175.201217651367

> <r_mmod_Improper_Torsional_Energy-OPLS-2005>
1.90476655960083

> <r_mmod_Van_der_Waal_Energy-OPLS-2005>
151.527069091797

> <r_mmod_Electrostatic_Energy-OPLS-2005>
-521.688720703125

> <r_mmod_Solvation_Energy-OPLS-2005>
-210.76318359375

> <b_mmod_Minimization_Converged-OPLS-2005>
0

> <r_mmod_RMS_Derivative-OPLS-2005>
0.535564601421356

$$$$
31
                    3D
 Structure written by MMmdl.
159167  0  0  1  0            999 V2000
  -30.6311  -14.6651   20.3967 C   0  0  0  0  0  0
  -30.4217  -12.3698   19.4783 C   0  0  0  0  0  0
  -29.4943  -12.3853   18.2438 C   0  0  0  0  0  0
  -28.0108  -12.3002   18.6552 C   0  0  0  0  0  0
  -27.6343  -13.2055   19.8607 C   0  0  2  0  0  0
  -28.6878  -13.1504   20.9859 C   0  0  0  0  0  0
  -25.2466  -13.8066   20.5842 C   0  0  0  0  0  0
  -24.1720  -13.0332   20.9249 C   0  0  0  0  0  0
  -24.6311  -11.6833   20.8809 C   0  0  0  0  0  0
  -23.9000  -10.4226   21.0445 C   0  0  0  0  0  0
  -24.3556   -9.4140   21.9220 C   0  0  0  0  0  0
  -23.6232   -8.2180   22.0768 C   0  0  0  0  0  0
  -22.4226   -8.0233   21.3539 C   0  0  0  0  0  0
  -21.9858   -9.0206   20.4652 C   0  0  0  0  0  0
  -22.7185  -10.2081   20.3079 C   0  0  0  0  0  0
  -21.6810   -6.0711   22.5279 C   0  0  0  0  0  0
  -21.3993   -6.5625   23.8212 C   0  0  0  0  0  0
  -21.3657   -5.6782   24.9175 C   0  0  0  0  0  0
  -21.6042   -4.3047   24.7231 C   0  0  0  0  0  0
  -21.8814   -3.8134   23.4354 C   0  0  0  0  0  0
  -21.9177   -4.6945   22.3407 C   0  0  0  0  0  0
  -22.7762  -13.5159   21.1877 C   0  0  0  0  0  0
  -22.1650   -4.2130   21.0986 F   0  0  0  0  0  0
  -21.5638   -3.4543   25.7751 F   0  0  0  0  0  0
  -29.9860  -13.4561   20.3772 N   0  0  0  0  0  0
  -26.2883  -12.9250   20.3446 N   0  0  0  0  0  0
  -25.9243  -11.6418   20.5905 N   0  0  0  0  0  0
  -22.0388  -12.8165   22.0439 N   0  0  0  0  0  0
  -25.4101  -15.1778   20.4446 N   0  0  0  0  0  0
  -31.8505  -14.7101   20.2132 O   0  0  0  0  0  0
  -21.6582   -6.8837   21.4235 O   0  0  0  0  0  0
  -22.3487  -14.5484   20.6741 O   0  0  0  0  0  0
  -24.6217  -31.8629   23.2067 C   0  0  0  0  0  0
  -25.9077  -32.4791   23.8371 C   0  0  1  0  0  0
  -27.2157  -27.3476   20.1287 C   0  0  0  0  0  0
  -25.5917  -33.8587   24.2301 N   0  0  0  0  0  0
  -23.4121  -30.4893   21.5492 C   0  0  2  0  0  0
  -24.8589  -28.9557   20.1046 C   0  0  0  0  0  0
  -22.7444  -29.4636   22.4956 C   0  0  0  0  0  0
  -18.0282  -28.1391   22.8495 C   0  0  0  0  0  0
  -24.1488  -36.7302   23.2637 C   0  0  0  0  0  0
  -25.9493  -30.8069   21.3698 C   0  0  0  0  0  0
  -26.0243  -29.4363   20.7155 C   0  0  0  0  0  0
  -27.2056  -28.6426   20.7218 C   0  0  0  0  0  0
  -26.0356  -26.9226   19.4736 C   0  0  0  0  0  0
  -24.8658  -27.7039   19.4736 C   0  0  0  0  0  0
  -23.6236  -29.8300   20.1605 C   0  0  0  0  0  0
  -25.4107  -36.3080   24.0328 C   0  0  1  0  0  0
  -20.5881  -28.3684   23.1302 C   0  0  2  0  0  0
  -20.6781  -26.9411   22.5418 C   0  0  0  0  0  0
  -19.5754  -26.6394   21.5225 C   0  0  0  0  0  0
  -18.1932  -26.7937   22.1629 C   0  0  0  0  0  0
  -19.1534  -28.8852   23.2894 C   0  0  0  0  0  0
  -18.9456  -30.1458   23.8905 C   0  0  0  0  0  0
  -17.6459  -30.6594   24.0567 C   0  0  0  0  0  0
  -25.9035  -34.9452   23.5111 C   0  0  0  0  0  0
  -16.5347  -29.9094   23.6334 C   0  0  0  0  0  0
  -16.7269  -28.6511   23.0347 C   0  0  0  0  0  0
  -26.4489  -31.6569   25.0709 C   0  0  0  0  0  0
  -25.3732  -31.3675   26.1444 C   0  0  0  0  0  0
  -27.0332  -30.3003   24.6118 C   0  0  0  0  0  0
  -27.6080  -32.4278   25.7472 C   0  0  0  0  0  0
  -27.5582  -37.1799   24.8466 C   0  0  0  0  0  0
  -21.4166  -29.3034   22.3690 N   0  0  0  0  0  0
  -26.4292  -37.3773   23.9405 N   0  0  0  0  0  0
  -24.6799  -31.0683   22.0997 N   0  0  0  0  0  0
  -23.4192  -28.8160   23.2998 O   0  0  0  0  0  0
  -28.3285  -26.5047   20.2231 O   0  0  0  0  0  0
  -26.5606  -34.8910   22.4679 O   0  0  0  0  0  0
  -23.5390  -32.1420   23.7425 O   0  0  0  0  0  0
  -28.6799  -19.3864   20.3895 C   0  0  0  0  0  0
  -30.6121  -19.1032   21.7640 C   0  0  0  0  0  0
  -29.6766  -19.9884   21.1760 C   0  0  0  0  0  0
  -28.6839  -17.9925   20.1030 C   0  0  0  0  0  0
  -29.7286  -17.1045   20.5630 C   0  0  0  0  0  0
  -30.6414  -17.7043   21.4955 C   0  0  0  0  0  0
  -27.5014  -17.5355   19.2628 C   0  0  0  0  0  0
  -29.8038  -15.7775   18.4865 C   0  0  0  0  0  0
  -29.7890  -21.5293   21.4110 C   0  0  0  0  0  0
  -28.7644  -22.5231   20.7354 C   0  0  0  0  0  0
  -29.0943  -24.0725   20.8416 C   0  0  0  0  0  0
  -28.0880  -25.0554   20.1301 C   0  0  0  0  0  0
  -29.8764  -15.7483   19.9689 N   0  0  0  0  0  0
  -31.8579  -16.8194   22.3488 Cl  0  0  0  0  0  0
  -31.4607  -12.4809   19.1667 H   0  0  0  0  0  0
  -30.3645  -11.4110   19.9955 H   0  0  0  0  0  0
  -29.7396  -11.5424   17.5953 H   0  0  0  0  0  0
  -29.6638  -13.2671   17.6336 H   0  0  0  0  0  0
  -27.8141  -11.2569   18.9061 H   0  0  0  0  0  0
  -27.3692  -12.5283   17.8027 H   0  0  0  0  0  0
  -27.6142  -14.2209   19.4819 H   0  0  0  0  0  0
  -28.7098  -12.1679   21.4614 H   0  0  0  0  0  0
  -28.4507  -13.8747   21.7679 H   0  0  0  0  0  0
  -25.2688   -9.5608   22.4809 H   0  0  0  0  0  0
  -23.9923   -7.4558   22.7478 H   0  0  0  0  0  0
  -21.0799   -8.8725   19.8950 H   0  0  0  0  0  0
  -22.3652  -10.9626   19.6203 H   0  0  0  0  0  0
  -21.1978   -7.6133   23.9707 H   0  0  0  0  0  0
  -21.1496   -6.0525   25.9074 H   0  0  0  0  0  0
  -22.0600   -2.7600   23.2862 H   0  0  0  0  0  0
  -22.3953  -11.9782   22.4764 H   0  0  0  0  0  0
  -21.1039  -13.1251   22.2696 H   0  0  0  0  0  0
  -24.6491  -15.8284   20.6045 H   0  0  0  0  0  0
  -26.2898  -15.6318   20.2418 H   0  0  0  0  0  0
  -26.7141  -32.5485   23.1120 H   0  0  0  0  0  0
  -25.0035  -33.9724   25.0429 H   0  0  0  0  0  0
  -22.7029  -31.3091   21.4111 H   0  0  0  0  0  0
  -23.3736  -35.9654   23.3301 H   0  0  0  0  0  0
  -24.3575  -36.8929   22.2051 H   0  0  0  0  0  0
  -23.7270  -37.6518   23.6656 H   0  0  0  0  0  0
  -26.0662  -31.5685   20.5978 H   0  0  0  0  0  0
  -26.8347  -30.8627   21.9908 H   0  0  0  0  0  0
  -28.0954  -29.0012   21.2192 H   0  0  0  0  0  0
  -25.9895  -25.9686   18.9689 H   0  0  0  0  0  0
  -23.9754  -27.3369   18.9814 H   0  0  0  0  0  0
  -23.7324  -30.6111   19.4073 H   0  0  0  0  0  0
  -22.7436  -29.2580   19.8611 H   0  0  0  0  0  0
  -25.1281  -36.1943   25.0824 H   0  0  0  0  0  0
  -20.9973  -28.3277   24.1433 H   0  0  0  0  0  0
  -20.5728  -26.2280   23.3609 H   0  0  0  0  0  0
  -21.6640  -26.7481   22.1181 H   0  0  0  0  0  0
  -19.6916  -25.6310   21.1245 H   0  0  0  0  0  0
  -19.6704  -27.3218   20.6768 H   0  0  0  0  0  0
  -17.4200  -26.6691   21.4024 H   0  0  0  0  0  0
  -18.0308  -26.0086   22.9027 H   0  0  0  0  0  0
  -19.7927  -30.7275   24.2279 H   0  0  0  0  0  0
  -17.5006  -31.6280   24.5163 H   0  0  0  0  0  0
  -15.5337  -30.2987   23.7676 H   0  0  0  0  0  0
  -15.8667  -28.0845   22.7045 H   0  0  0  0  0  0
  -24.5945  -30.6975   25.7767 H   0  0  0  0  0  0
  -24.8850  -32.2804   26.4850 H   0  0  0  0  0  0
  -25.8058  -30.8882   27.0229 H   0  0  0  0  0  0
  -26.2890  -29.6734   24.1189 H   0  0  0  0  0  0
  -27.4106  -29.7269   25.4593 H   0  0  0  0  0  0
  -27.8712  -30.4295   23.9272 H   0  0  0  0  0  0
  -27.2752  -33.3613   26.2017 H   0  0  0  0  0  0
  -28.3910  -32.6772   25.0297 H   0  0  0  0  0  0
  -28.0707  -31.8396   26.5405 H   0  0  0  0  0  0
  -28.2592  -38.0100   24.7504 H   0  0  0  0  0  0
  -28.1081  -36.2626   24.6302 H   0  0  0  0  0  0
  -27.2280  -37.1469   25.8864 H   0  0  0  0  0  0
  -20.9330  -29.8766   21.6927 H   0  0  0  0  0  0
  -26.0173  -38.2849   24.1413 H   0  0  0  0  0  0
  -27.8987  -20.0051   19.9708 H   0  0  0  0  0  0
  -31.3579  -19.5100   22.4299 H   0  0  0  0  0  0
  -26.5780  -17.9668   19.6530 H   0  0  0  0  0  0
  -27.3696  -16.4609   19.2704 H   0  0  0  0  0  0
  -27.6119  -17.8668   18.2295 H   0  0  0  0  0  0
  -28.8673  -15.3639   18.1171 H   0  0  0  0  0  0
  -30.6075  -15.2262   17.9941 H   0  0  0  0  0  0
  -29.8847  -16.7877   18.0860 H   0  0  0  0  0  0
  -30.7884  -21.8110   21.0781 H   0  0  0  0  0  0
  -29.7888  -21.6963   22.4897 H   0  0  0  0  0  0
  -27.7769  -22.3395   21.1619 H   0  0  0  0  0  0
  -28.6831  -22.2714   19.6795 H   0  0  0  0  0  0
  -30.0926  -24.2496   20.4358 H   0  0  0  0  0  0
  -29.1465  -24.3480   21.8961 H   0  0  0  0  0  0
  -27.1086  -24.8186   20.5476 H   0  0  0  0  0  0
  -28.0446  -24.7957   19.0720 H   0  0  0  0  0  0
  1 25  1  0  0  0
  1 30  2  0  0  0
  1 83  1  0  0  0
  2  3  1  0  0  0
  2 25  1  0  0  0
  2 85  1  0  0  0
  2 86  1  0  0  0
  3  4  1  0  0  0
  3 87  1  0  0  0
  3 88  1  0  0  0
  4  5  1  0  0  0
  4 89  1  0  0  0
  4 90  1  0  0  0
  5  6  1  0  0  0
  5 26  1  0  0  0
  5 91  1  0  0  0
  6 25  1  0  0  0
  6 92  1  0  0  0
  6 93  1  0  0  0
  7  8  2  0  0  0
  7 26  1  0  0  0
  7 29  1  0  0  0
  8  9  1  0  0  0
  8 22  1  0  0  0
  9 10  1  0  0  0
  9 27  2  0  0  0
 10 11  2  0  0  0
 10 15  1  0  0  0
 11 12  1  0  0  0
 11 94  1  0  0  0
 12 13  2  0  0  0
 12 95  1  0  0  0
 13 14  1  0  0  0
 13 31  1  0  0  0
 14 15  2  0  0  0
 14 96  1  0  0  0
 15 97  1  0  0  0
 16 17  2  0  0  0
 16 21  1  0  0  0
 16 31  1  0  0  0
 17 18  1  0  0  0
 17 98  1  0  0  0
 18 19  2  0  0  0
 18 99  1  0  0  0
 19 20  1  0  0  0
 19 24  1  0  0  0
 20 21  2  0  0  0
 20100  1  0  0  0
 21 23  1  0  0  0
 22 28  1  0  0  0
 22 32  2  0  0  0
 26 27  1  0  0  0
 28101  1  0  0  0
 28102  1  0  0  0
 29103  1  0  0  0
 29104  1  0  0  0
 33 34  1  0  0  0
 33 66  1  0  0  0
 33 70  2  0  0  0
 34 36  1  0  0  0
 34 59  1  0  0  0
 34105  1  0  0  0
 35 44  2  0  0  0
 35 45  1  0  0  0
 35 68  1  0  0  0
 36 56  1  0  0  0
 36106  1  0  0  0
 37 39  1  0  0  0
 37 47  1  0  0  0
 37 66  1  0  0  0
 37107  1  0  0  0
 38 43  2  0  0  0
 38 46  1  0  0  0
 38 47  1  0  0  0
 39 64  1  0  0  0
 39 67  2  0  0  0
 40 52  1  0  0  0
 40 53  2  0  0  0
 40 58  1  0  0  0
 41108  1  0  0  0
 41109  1  0  0  0
 41110  1  0  0  0
 41 48  1  0  0  0
 42 43  1  0  0  0
 42 66  1  0  0  0
 42111  1  0  0  0
 42112  1  0  0  0
 43 44  1  0  0  0
 44113  1  0  0  0
 45 46  2  0  0  0
 45114  1  0  0  0
 46115  1  0  0  0
 47116  1  0  0  0
 47117  1  0  0  0
 48 56  1  0  0  0
 48 65  1  0  0  0
 48118  1  0  0  0
 49 50  1  0  0  0
 49 53  1  0  0  0
 49 64  1  0  0  0
 49119  1  0  0  0
 50 51  1  0  0  0
 50120  1  0  0  0
 50121  1  0  0  0
 51 52  1  0  0  0
 51122  1  0  0  0
 51123  1  0  0  0
 52124  1  0  0  0
 52125  1  0  0  0
 53 54  1  0  0  0
 54 55  2  0  0  0
 54126  1  0  0  0
 55 57  1  0  0  0
 55127  1  0  0  0
 56 69  2  0  0  0
 57 58  2  0  0  0
 57128  1  0  0  0
 58129  1  0  0  0
 59 60  1  0  0  0
 59 61  1  0  0  0
 59 62  1  0  0  0
 60130  1  0  0  0
 60131  1  0  0  0
 60132  1  0  0  0
 61133  1  0  0  0
 61134  1  0  0  0
 61135  1  0  0  0
 62136  1  0  0  0
 62137  1  0  0  0
 62138  1  0  0  0
 63 65  1  0  0  0
 63139  1  0  0  0
 63140  1  0  0  0
 63141  1  0  0  0
 64142  1  0  0  0
 65143  1  0  0  0
 68 82  1  0  0  0
 71 73  2  0  0  0
 71 74  1  0  0  0
 71144  1  0  0  0
 72 73  1  0  0  0
 72 76  2  0  0  0
 72145  1  0  0  0
 73 79  1  0  0  0
 74 75  2  0  0  0
 74 77  1  0  0  0
 75 76  1  0  0  0
 75 83  1  0  0  0
 76 84  1  0  0  0
 77146  1  0  0  0
 77147  1  0  0  0
 77148  1  0  0  0
 78 83  1  0  0  0
 78149  1  0  0  0
 78150  1  0  0  0
 78151  1  0  0  0
 79 80  1  0  0  0
 79152  1  0  0  0
 79153  1  0  0  0
 80 81  1  0  0  0
 80154  1  0  0  0
 80155  1  0  0  0
 81 82  1  0  0  0
 81156  1  0  0  0
 81157  1  0  0  0
 82158  1  0  0  0
 82159  1  0  0  0
M  ISO  4   1 100  68 101  82 101  83 100
M  END
> <chiral flag>
0

> <version>
0

> <s_m_source_file>
/data/baiqing/PycharmProjects/Reinvent-master-3.2/result/LINK_invent/BTK/process_docking_weight1_custom_sum_contain_oxygen_bond_distance_aromatic_linkinvent_7_9_3/rearranged_h_0037.sdf

> <i_m_source_file_index>
32

> <r_mmod_Potential_Energy-OPLS-2005>
302.430816650391

> <r_mmod_Stretch_Energy-OPLS-2005>
80.3160247802734

> <r_mmod_Bend_Energy-OPLS-2005>
149.000305175781

> <r_mmod_Torsional_Energy-OPLS-2005>
312.40283203125

> <r_mmod_Improper_Torsional_Energy-OPLS-2005>
26.6356639862061

> <r_mmod_Van_der_Waal_Energy-OPLS-2005>
167.300582885742

> <r_mmod_Electrostatic_Energy-OPLS-2005>
-308.043334960938

> <r_mmod_Solvation_Energy-OPLS-2005>
-186.554290771484

> <b_mmod_Minimization_Converged-OPLS-2005>
0

> <r_mmod_RMS_Derivative-OPLS-2005>
3.02104735374451

$$$$
32
                    3D
 Structure written by MMmdl.
165173  0  0  1  0            999 V2000
  -30.7404  -14.4214   20.6181 C   0  0  0  0  0  0
  -30.4192  -12.2909   19.4175 C   0  0  0  0  0  0
  -29.4907  -12.4979   18.2059 C   0  0  0  0  0  0
  -28.0153  -12.3572   18.6260 C   0  0  0  0  0  0
  -27.6648  -13.2077   19.8760 C   0  0  2  0  0  0
  -28.7041  -12.9783   20.9961 C   0  0  0  0  0  0
  -25.2615  -13.8197   20.5718 C   0  0  0  0  0  0
  -24.1865  -13.0476   20.9207 C   0  0  0  0  0  0
  -24.6400  -11.6942   20.8711 C   0  0  0  0  0  0
  -23.9049  -10.4335   21.0350 C   0  0  0  0  0  0
  -24.3602   -9.4274   21.9140 C   0  0  0  0  0  0
  -23.6305   -8.2287   22.0698 C   0  0  0  0  0  0
  -22.4305   -8.0269   21.3481 C   0  0  0  0  0  0
  -21.9917   -9.0248   20.4607 C   0  0  0  0  0  0
  -22.7211  -10.2155   20.3019 C   0  0  0  0  0  0
  -21.6865   -6.0751   22.5272 C   0  0  0  0  0  0
  -21.4023   -6.5648   23.8205 C   0  0  0  0  0  0
  -21.3655   -5.6803   24.9161 C   0  0  0  0  0  0
  -21.6041   -4.3064   24.7218 C   0  0  0  0  0  0
  -21.8816   -3.8160   23.4336 C   0  0  0  0  0  0
  -21.9192   -4.6980   22.3407 C   0  0  0  0  0  0
  -22.7877  -13.5239   21.1840 C   0  0  0  0  0  0
  -22.1654   -4.2162   21.0982 F   0  0  0  0  0  0
  -21.5617   -3.4552   25.7748 F   0  0  0  0  0  0
  -30.0415  -13.2684   20.4481 N   0  0  0  0  0  0
  -26.3045  -12.9366   20.3383 N   0  0  0  0  0  0
  -25.9338  -11.6515   20.5758 N   0  0  0  0  0  0
  -22.0565  -12.8238   22.0414 N   0  0  0  0  0  0
  -25.4309  -15.1913   20.4116 N   0  0  0  0  0  0
  -31.8269  -14.6412   20.0769 O   0  0  0  0  0  0
  -21.6653   -6.8879   21.4214 O   0  0  0  0  0  0
  -22.3516  -14.5499   20.6648 O   0  0  0  0  0  0
  -24.6126  -31.8685   23.2105 C   0  0  0  0  0  0
  -25.9028  -32.4831   23.8403 C   0  0  1  0  0  0
  -27.2473  -27.4680   20.0801 C   0  0  0  0  0  0
  -25.5884  -33.8633   24.2338 N   0  0  0  0  0  0
  -23.4019  -30.4902   21.5492 C   0  0  2  0  0  0
  -24.8531  -28.9545   20.1173 C   0  0  0  0  0  0
  -22.7411  -29.4669   22.4983 C   0  0  0  0  0  0
  -18.0270  -28.1398   22.8487 C   0  0  0  0  0  0
  -24.1489  -36.7316   23.2639 C   0  0  0  0  0  0
  -25.9275  -30.8405   21.3623 C   0  0  0  0  0  0
  -26.0088  -29.4741   20.7158 C   0  0  0  0  0  0
  -27.2105  -28.7334   20.7045 C   0  0  0  0  0  0
  -26.0772  -26.9459   19.4950 C   0  0  0  0  0  0
  -24.8783  -27.6850   19.5110 C   0  0  0  0  0  0
  -23.6135  -29.8191   20.1647 C   0  0  0  0  0  0
  -25.4105  -36.3124   24.0344 C   0  0  1  0  0  0
  -20.5865  -28.3686   23.1316 C   0  0  2  0  0  0
  -20.6769  -26.9415   22.5424 C   0  0  0  0  0  0
  -19.5745  -26.6399   21.5218 C   0  0  0  0  0  0
  -18.1923  -26.7947   22.1628 C   0  0  0  0  0  0
  -19.1523  -28.8850   23.2909 C   0  0  0  0  0  0
  -18.9453  -30.1458   23.8919 C   0  0  0  0  0  0
  -17.6454  -30.6597   24.0577 C   0  0  0  0  0  0
  -25.9023  -34.9480   23.5138 C   0  0  0  0  0  0
  -16.5344  -29.9102   23.6332 C   0  0  0  0  0  0
  -16.7259  -28.6528   23.0332 C   0  0  0  0  0  0
  -26.4461  -31.6606   25.0724 C   0  0  0  0  0  0
  -25.3741  -31.3694   26.1482 C   0  0  0  0  0  0
  -27.0288  -30.3056   24.6081 C   0  0  0  0  0  0
  -27.6050  -32.4319   25.7471 C   0  0  0  0  0  0
  -27.5581  -37.1811   24.8465 C   0  0  0  0  0  0
  -21.4135  -29.3047   22.3720 N   0  0  0  0  0  0
  -26.4297  -37.3795   23.9408 N   0  0  0  0  0  0
  -24.6653  -31.0810   22.0998 N   0  0  0  0  0  0
  -23.4181  -28.8216   23.3041 O   0  0  0  0  0  0
  -28.4021  -26.7306   20.0412 O   0  0  0  0  0  0
  -26.5588  -34.8926   22.4705 O   0  0  0  0  0  0
  -23.5327  -32.1430   23.7504 O   0  0  0  0  0  0
  -28.6226  -21.8036   17.8339 C   0  0  0  0  0  0
  -28.5591  -24.2143   17.4711 C   0  0  0  0  0  0
  -30.1644  -23.2623   19.0372 C   0  0  0  0  0  0
  -28.0620  -22.9261   17.1939 C   0  0  0  0  0  0
  -29.6791  -21.9654   18.7525 C   0  0  0  0  0  0
  -29.6083  -24.3950   18.3983 C   0  0  0  0  0  0
  -26.9332  -22.7488   16.1999 C   0  0  0  0  0  0
  -30.2889  -20.7433   19.4248 C   0  0  0  0  0  0
  -30.1879  -25.7849   18.6565 C   0  0  0  0  0  0
  -29.5571  -20.3642   20.7242 C   0  0  0  0  0  0
  -30.2027  -19.1945   21.4923 C   0  0  0  0  0  0
  -29.9701  -17.7984   20.8750 C   0  0  0  0  0  0
  -30.6572  -16.6853   21.6965 C   0  0  0  0  0  0
  -29.1594  -26.9179   18.8513 C   0  0  0  0  0  0
  -30.1401  -15.3513   21.3769 N   0  0  0  0  0  0
  -31.4621  -12.3873   19.1125 H   0  0  0  0  0  0
  -30.3233  -11.2783   19.8118 H   0  0  0  0  0  0
  -29.7294  -11.7769   17.4204 H   0  0  0  0  0  0
  -29.6604  -13.4870   17.7749 H   0  0  0  0  0  0
  -27.8289  -11.3023   18.8361 H   0  0  0  0  0  0
  -27.3668  -12.6200   17.7924 H   0  0  0  0  0  0
  -27.7135  -14.2589   19.5811 H   0  0  0  0  0  0
  -28.6758  -11.9442   21.3417 H   0  0  0  0  0  0
  -28.4567  -13.5736   21.8744 H   0  0  0  0  0  0
  -25.2718   -9.5810   22.4723 H   0  0  0  0  0  0
  -24.0030   -7.4690   22.7425 H   0  0  0  0  0  0
  -21.0830   -8.8737   19.8923 H   0  0  0  0  0  0
  -22.3598  -10.9670   19.6136 H   0  0  0  0  0  0
  -21.2012   -7.6163   23.9725 H   0  0  0  0  0  0
  -21.1462   -6.0518   25.9063 H   0  0  0  0  0  0
  -22.0600   -2.7632   23.2819 H   0  0  0  0  0  0
  -22.4196  -11.9907   22.4831 H   0  0  0  0  0  0
  -21.1145  -13.1188   22.2551 H   0  0  0  0  0  0
  -24.6601  -15.8398   20.5150 H   0  0  0  0  0  0
  -26.2784  -15.6300   20.0734 H   0  0  0  0  0  0
  -26.7108  -32.5558   23.1182 H   0  0  0  0  0  0
  -25.0054  -33.9799   25.0496 H   0  0  0  0  0  0
  -22.6909  -31.3066   21.4057 H   0  0  0  0  0  0
  -23.3745  -35.9659   23.3328 H   0  0  0  0  0  0
  -24.3580  -36.8898   22.2051 H   0  0  0  0  0  0
  -23.7252  -37.6534   23.6629 H   0  0  0  0  0  0
  -26.0355  -31.6045   20.5916 H   0  0  0  0  0  0
  -26.8168  -30.8992   21.9779 H   0  0  0  0  0  0
  -28.1060  -29.1298   21.1633 H   0  0  0  0  0  0
  -26.1014  -25.9729   19.0251 H   0  0  0  0  0  0
  -23.9901  -27.2753   19.0517 H   0  0  0  0  0  0
  -23.7232  -30.5917   19.4025 H   0  0  0  0  0  0
  -22.7398  -29.2364   19.8685 H   0  0  0  0  0  0
  -25.1286  -36.1991   25.0838 H   0  0  0  0  0  0
  -20.9959  -28.3257   24.1434 H   0  0  0  0  0  0
  -20.5687  -26.2289   23.3614 H   0  0  0  0  0  0
  -21.6643  -26.7471   22.1206 H   0  0  0  0  0  0
  -19.6912  -25.6313   21.1239 H   0  0  0  0  0  0
  -19.6694  -27.3223   20.6758 H   0  0  0  0  0  0
  -17.4202  -26.6701   21.4021 H   0  0  0  0  0  0
  -18.0314  -26.0082   22.9018 H   0  0  0  0  0  0
  -19.7926  -30.7272   24.2303 H   0  0  0  0  0  0
  -17.5006  -31.6269   24.5188 H   0  0  0  0  0  0
  -15.5352  -30.3013   23.7633 H   0  0  0  0  0  0
  -15.8666  -28.0863   22.7019 H   0  0  0  0  0  0
  -24.5920  -30.7034   25.7813 H   0  0  0  0  0  0
  -24.8927  -32.2845   26.4942 H   0  0  0  0  0  0
  -25.8113  -30.8856   27.0228 H   0  0  0  0  0  0
  -26.2824  -29.6815   24.1157 H   0  0  0  0  0  0
  -27.4092  -29.7285   25.4517 H   0  0  0  0  0  0
  -27.8637  -30.4377   23.9200 H   0  0  0  0  0  0
  -27.2686  -33.3611   26.2075 H   0  0  0  0  0  0
  -28.3833  -32.6892   25.0279 H   0  0  0  0  0  0
  -28.0747  -31.8432   26.5357 H   0  0  0  0  0  0
  -28.2613  -38.0093   24.7504 H   0  0  0  0  0  0
  -28.1065  -36.2630   24.6308 H   0  0  0  0  0  0
  -27.2302  -37.1486   25.8868 H   0  0  0  0  0  0
  -20.9300  -29.8753   21.6925 H   0  0  0  0  0  0
  -26.0194  -38.2879   24.1396 H   0  0  0  0  0  0
  -28.2461  -20.8142   17.6109 H   0  0  0  0  0  0
  -28.1354  -25.0642   16.9552 H   0  0  0  0  0  0
  -30.9812  -23.3808   19.7383 H   0  0  0  0  0  0
  -26.2696  -21.9401   16.5074 H   0  0  0  0  0  0
  -27.3343  -22.5099   15.2153 H   0  0  0  0  0  0
  -26.3366  -23.6574   16.1130 H   0  0  0  0  0  0
  -31.3423  -20.9376   19.6341 H   0  0  0  0  0  0
  -30.2703  -19.9040   18.7278 H   0  0  0  0  0  0
  -30.8242  -26.0341   17.8064 H   0  0  0  0  0  0
  -30.8484  -25.7493   19.5237 H   0  0  0  0  0  0
  -28.5082  -20.1421   20.5185 H   0  0  0  0  0  0
  -29.5511  -21.2357   21.3795 H   0  0  0  0  0  0
  -31.2718  -19.3744   21.6187 H   0  0  0  0  0  0
  -29.7850  -19.2028   22.5002 H   0  0  0  0  0  0
  -30.3522  -17.7705   19.8543 H   0  0  0  0  0  0
  -28.8966  -17.6119   20.8066 H   0  0  0  0  0  0
  -30.4917  -16.8525   22.7627 H   0  0  0  0  0  0
  -31.7387  -16.7392   21.5537 H   0  0  0  0  0  0
  -28.5124  -27.0042   17.9765 H   0  0  0  0  0  0
  -29.6851  -27.8700   18.9286 H   0  0  0  0  0  0
  -29.2587  -15.0913   21.7917 H   0  0  0  0  0  0
  1 25  1  0  0  0
  1 30  2  0  0  0
  1 85  1  0  0  0
  2  3  1  0  0  0
  2 25  1  0  0  0
  2 86  1  0  0  0
  2 87  1  0  0  0
  3  4  1  0  0  0
  3 88  1  0  0  0
  3 89  1  0  0  0
  4  5  1  0  0  0
  4 90  1  0  0  0
  4 91  1  0  0  0
  5  6  1  0  0  0
  5 26  1  0  0  0
  5 92  1  0  0  0
  6 25  1  0  0  0
  6 93  1  0  0  0
  6 94  1  0  0  0
  7  8  2  0  0  0
  7 26  1  0  0  0
  7 29  1  0  0  0
  8  9  1  0  0  0
  8 22  1  0  0  0
  9 10  1  0  0  0
  9 27  2  0  0  0
 10 11  2  0  0  0
 10 15  1  0  0  0
 11 12  1  0  0  0
 11 95  1  0  0  0
 12 13  2  0  0  0
 12 96  1  0  0  0
 13 14  1  0  0  0
 13 31  1  0  0  0
 14 15  2  0  0  0
 14 97  1  0  0  0
 15 98  1  0  0  0
 16 17  2  0  0  0
 16 21  1  0  0  0
 16 31  1  0  0  0
 17 18  1  0  0  0
 17 99  1  0  0  0
 18 19  2  0  0  0
 18100  1  0  0  0
 19 20  1  0  0  0
 19 24  1  0  0  0
 20 21  2  0  0  0
 20101  1  0  0  0
 21 23  1  0  0  0
 22 28  1  0  0  0
 22 32  2  0  0  0
 26 27  1  0  0  0
 28102  1  0  0  0
 28103  1  0  0  0
 29104  1  0  0  0
 29105  1  0  0  0
 33 34  1  0  0  0
 33 66  1  0  0  0
 33 70  2  0  0  0
 34 36  1  0  0  0
 34 59  1  0  0  0
 34106  1  0  0  0
 35 44  2  0  0  0
 35 45  1  0  0  0
 35 68  1  0  0  0
 36 56  1  0  0  0
 36107  1  0  0  0
 37 39  1  0  0  0
 37 47  1  0  0  0
 37 66  1  0  0  0
 37108  1  0  0  0
 38 43  2  0  0  0
 38 46  1  0  0  0
 38 47  1  0  0  0
 39 64  1  0  0  0
 39 67  2  0  0  0
 40 52  1  0  0  0
 40 53  2  0  0  0
 40 58  1  0  0  0
 41109  1  0  0  0
 41110  1  0  0  0
 41111  1  0  0  0
 41 48  1  0  0  0
 42 43  1  0  0  0
 42 66  1  0  0  0
 42112  1  0  0  0
 42113  1  0  0  0
 43 44  1  0  0  0
 44114  1  0  0  0
 45 46  2  0  0  0
 45115  1  0  0  0
 46116  1  0  0  0
 47117  1  0  0  0
 47118  1  0  0  0
 48 56  1  0  0  0
 48 65  1  0  0  0
 48119  1  0  0  0
 49 50  1  0  0  0
 49 53  1  0  0  0
 49 64  1  0  0  0
 49120  1  0  0  0
 50 51  1  0  0  0
 50121  1  0  0  0
 50122  1  0  0  0
 51 52  1  0  0  0
 51123  1  0  0  0
 51124  1  0  0  0
 52125  1  0  0  0
 52126  1  0  0  0
 53 54  1  0  0  0
 54 55  2  0  0  0
 54127  1  0  0  0
 55 57  1  0  0  0
 55128  1  0  0  0
 56 69  2  0  0  0
 57 58  2  0  0  0
 57129  1  0  0  0
 58130  1  0  0  0
 59 60  1  0  0  0
 59 61  1  0  0  0
 59 62  1  0  0  0
 60131  1  0  0  0
 60132  1  0  0  0
 60133  1  0  0  0
 61134  1  0  0  0
 61135  1  0  0  0
 61136  1  0  0  0
 62137  1  0  0  0
 62138  1  0  0  0
 62139  1  0  0  0
 63 65  1  0  0  0
 63140  1  0  0  0
 63141  1  0  0  0
 63142  1  0  0  0
 64143  1  0  0  0
 65144  1  0  0  0
 68 84  1  0  0  0
 71 74  2  0  0  0
 71 75  1  0  0  0
 71145  1  0  0  0
 72 74  1  0  0  0
 72 76  2  0  0  0
 72146  1  0  0  0
 73 75  2  0  0  0
 73 76  1  0  0  0
 73147  1  0  0  0
 74 77  1  0  0  0
 75 78  1  0  0  0
 76 79  1  0  0  0
 77148  1  0  0  0
 77149  1  0  0  0
 77150  1  0  0  0
 78 80  1  0  0  0
 78151  1  0  0  0
 78152  1  0  0  0
 79 84  1  0  0  0
 79153  1  0  0  0
 79154  1  0  0  0
 80 81  1  0  0  0
 80155  1  0  0  0
 80156  1  0  0  0
 81 82  1  0  0  0
 81157  1  0  0  0
 81158  1  0  0  0
 82 83  1  0  0  0
 82159  1  0  0  0
 82160  1  0  0  0
 83 85  1  0  0  0
 83161  1  0  0  0
 83162  1  0  0  0
 84163  1  0  0  0
 84164  1  0  0  0
 85165  1  0  0  0
M  ISO  4   1 100  68 101  84 101  85 100
M  END
> <chiral flag>
0

> <version>
0

> <s_m_source_file>
/data/baiqing/PycharmProjects/Reinvent-master-3.2/result/LINK_invent/BTK/process_docking_weight1_custom_sum_contain_oxygen_bond_distance_aromatic_linkinvent_7_9_3/rearranged_h_0037.sdf

> <i_m_source_file_index>
33

> <r_mmod_Potential_Energy-OPLS-2005>
-79.6999588012695

> <r_mmod_Stretch_Energy-OPLS-2005>
32.3617134094238

> <r_mmod_Bend_Energy-OPLS-2005>
85.863899230957

> <r_mmod_Torsional_Energy-OPLS-2005>
216.631927490234

> <r_mmod_Improper_Torsional_Energy-OPLS-2005>
2.16635513305664

> <r_mmod_Van_der_Waal_Energy-OPLS-2005>
144.048751831055

> <r_mmod_Electrostatic_Energy-OPLS-2005>
-364.019439697266

> <r_mmod_Solvation_Energy-OPLS-2005>
-204.972640991211

> <b_mmod_Minimization_Converged-OPLS-2005>
0

> <r_mmod_RMS_Derivative-OPLS-2005>
3.91721534729004

$$$$
33
                    3D
 Structure written by MMmdl.
162170  0  0  1  0            999 V2000
  -30.8379  -14.1899   20.8244 C   0  0  0  0  0  0
  -30.4091  -12.2528   19.3724 C   0  0  0  0  0  0
  -29.4789  -12.5567   18.1929 C   0  0  0  0  0  0
  -28.0118  -12.3748   18.6159 C   0  0  0  0  0  0
  -27.6708  -13.1953   19.8853 C   0  0  2  0  0  0
  -28.6906  -12.9363   21.0100 C   0  0  0  0  0  0
  -25.2636  -13.8181   20.5618 C   0  0  0  0  0  0
  -24.1880  -13.0469   20.9135 C   0  0  0  0  0  0
  -24.6410  -11.6948   20.8702 C   0  0  0  0  0  0
  -23.9120  -10.4306   21.0430 C   0  0  0  0  0  0
  -24.3666   -9.4228   21.9202 C   0  0  0  0  0  0
  -23.6326   -8.2264   22.0775 C   0  0  0  0  0  0
  -22.4318   -8.0305   21.3572 C   0  0  0  0  0  0
  -21.9968   -9.0284   20.4692 C   0  0  0  0  0  0
  -22.7314  -10.2149   20.3093 C   0  0  0  0  0  0
  -21.6803   -6.0791   22.5290 C   0  0  0  0  0  0
  -21.4008   -6.5670   23.8250 C   0  0  0  0  0  0
  -21.3669   -5.6830   24.9199 C   0  0  0  0  0  0
  -21.6046   -4.3088   24.7237 C   0  0  0  0  0  0
  -21.8813   -3.8201   23.4336 C   0  0  0  0  0  0
  -21.9200   -4.7022   22.3424 C   0  0  0  0  0  0
  -22.7919  -13.5304   21.1819 C   0  0  0  0  0  0
  -22.1660   -4.2209   21.0973 F   0  0  0  0  0  0
  -21.5624   -3.4579   25.7737 F   0  0  0  0  0  0
  -30.0629  -13.1364   20.4905 N   0  0  0  0  0  0
  -26.3066  -12.9314   20.3369 N   0  0  0  0  0  0
  -25.9329  -11.6485   20.5698 N   0  0  0  0  0  0
  -22.0577  -12.8225   22.0354 N   0  0  0  0  0  0
  -25.4418  -15.1860   20.3924 N   0  0  0  0  0  0
  -31.6986  -14.6899   20.0892 O   0  0  0  0  0  0
  -21.6645   -6.8920   21.4267 O   0  0  0  0  0  0
  -22.3628  -14.5643   20.6776 O   0  0  0  0  0  0
  -24.6120  -31.8737   23.2292 C   0  0  0  0  0  0
  -25.9051  -32.4844   23.8538 C   0  0  1  0  0  0
  -27.2143  -27.4639   20.0388 C   0  0  0  0  0  0
  -25.5931  -33.8649   24.2473 N   0  0  0  0  0  0
  -23.3934  -30.5035   21.5755 C   0  0  2  0  0  0
  -24.8231  -28.9785   20.1168 C   0  0  0  0  0  0
  -22.7446  -29.4675   22.5185 C   0  0  0  0  0  0
  -18.0240  -28.1358   22.8476 C   0  0  0  0  0  0
  -24.1456  -36.7338   23.2646 C   0  0  0  0  0  0
  -25.9253  -30.8245   21.3868 C   0  0  0  0  0  0
  -25.9893  -29.4680   20.7211 C   0  0  0  0  0  0
  -27.1811  -28.7160   20.6944 C   0  0  0  0  0  0
  -26.0255  -26.9926   19.4195 C   0  0  0  0  0  0
  -24.8405  -27.7338   19.4681 C   0  0  0  0  0  0
  -23.5963  -29.8614   20.1798 C   0  0  0  0  0  0
  -25.4077  -36.3164   24.0380 C   0  0  1  0  0  0
  -20.5822  -28.3650   23.1301 C   0  0  2  0  0  0
  -20.6784  -26.9417   22.5360 C   0  0  0  0  0  0
  -19.5732  -26.6360   21.5196 C   0  0  0  0  0  0
  -18.1895  -26.7897   22.1583 C   0  0  0  0  0  0
  -19.1475  -28.8838   23.2861 C   0  0  0  0  0  0
  -18.9403  -30.1432   23.8922 C   0  0  0  0  0  0
  -17.6405  -30.6567   24.0571 C   0  0  0  0  0  0
  -25.9036  -34.9505   23.5226 C   0  0  0  0  0  0
  -16.5325  -29.9083   23.6271 C   0  0  0  0  0  0
  -16.7242  -28.6481   23.0361 C   0  0  0  0  0  0
  -26.4504  -31.6580   25.0820 C   0  0  0  0  0  0
  -25.3851  -31.3574   26.1623 C   0  0  0  0  0  0
  -27.0307  -30.3062   24.6070 C   0  0  0  0  0  0
  -27.6114  -32.4317   25.7513 C   0  0  0  0  0  0
  -27.5587  -37.1838   24.8488 C   0  0  0  0  0  0
  -21.4188  -29.2991   22.3802 N   0  0  0  0  0  0
  -26.4308  -37.3836   23.9422 N   0  0  0  0  0  0
  -24.6617  -31.0862   22.1196 N   0  0  0  0  0  0
  -23.4256  -28.8268   23.3221 O   0  0  0  0  0  0
  -28.3970  -26.7563   20.0299 O   0  0  0  0  0  0
  -26.5620  -34.8963   22.4818 O   0  0  0  0  0  0
  -23.5319  -32.1546   23.7669 O   0  0  0  0  0  0
  -28.1609  -18.7134   21.0572 C   0  0  0  0  0  0
  -27.9629  -19.9006   20.3243 C   0  0  0  0  0  0
  -28.7835  -20.0314   23.0036 C   0  0  0  0  0  0
  -28.6553  -18.7801   22.3721 C   0  0  0  0  0  0
  -28.2551  -21.1556   20.8974 C   0  0  0  0  0  0
  -28.6039  -21.2161   22.2708 C   0  0  0  0  0  0
  -29.2259  -17.5353   23.0335 C   0  0  0  0  0  0
  -28.1485  -22.4295   20.0639 C   0  0  0  0  0  0
  -30.3892  -17.0052   22.1661 C   0  0  0  0  0  0
  -29.4975  -23.1195   19.6673 C   0  0  0  0  0  0
  -29.5505  -24.6199   20.0319 C   0  0  0  0  0  0
  -31.1324  -15.7779   22.7424 C   0  0  0  0  0  0
  -28.3665  -25.4366   19.4904 C   0  0  0  0  0  0
  -30.6831  -14.5460   22.1080 N   0  0  0  0  0  0
  -28.8598  -22.7284   23.0668 Cl  0  0  0  0  0  0
  -31.4540  -12.3640   19.0717 H   0  0  0  0  0  0
  -30.3022  -11.2139   19.6863 H   0  0  0  0  0  0
  -29.7184  -11.9064   17.3532 H   0  0  0  0  0  0
  -29.6429  -13.5812   17.8521 H   0  0  0  0  0  0
  -27.8448  -11.3133   18.8052 H   0  0  0  0  0  0
  -27.3473  -12.6430   17.7968 H   0  0  0  0  0  0
  -27.7402  -14.2517   19.6188 H   0  0  0  0  0  0
  -28.5756  -11.9338   21.4235 H   0  0  0  0  0  0
  -28.4367  -13.6045   21.8328 H   0  0  0  0  0  0
  -25.2794   -9.5667   22.4786 H   0  0  0  0  0  0
  -24.0047   -7.4645   22.7464 H   0  0  0  0  0  0
  -21.0919   -8.8846   19.8933 H   0  0  0  0  0  0
  -22.3817  -10.9731   19.6210 H   0  0  0  0  0  0
  -21.1981   -7.6175   23.9762 H   0  0  0  0  0  0
  -21.1487   -6.0538   25.9095 H   0  0  0  0  0  0
  -22.0572   -2.7654   23.2816 H   0  0  0  0  0  0
  -22.4145  -11.9842   22.4685 H   0  0  0  0  0  0
  -21.1242  -13.1274   22.2653 H   0  0  0  0  0  0
  -24.6876  -15.8553   20.5023 H   0  0  0  0  0  0
  -26.3198  -15.6084   20.1117 H   0  0  0  0  0  0
  -26.7130  -32.5556   23.1295 H   0  0  0  0  0  0
  -25.0072  -33.9835   25.0603 H   0  0  0  0  0  0
  -22.6658  -31.3100   21.4565 H   0  0  0  0  0  0
  -23.3730  -35.9659   23.3340 H   0  0  0  0  0  0
  -24.3556  -36.8915   22.2055 H   0  0  0  0  0  0
  -23.7176  -37.6548   23.6630 H   0  0  0  0  0  0
  -26.0682  -31.5696   20.6052 H   0  0  0  0  0  0
  -26.8093  -30.8616   22.0127 H   0  0  0  0  0  0
  -28.0770  -29.0924   21.1697 H   0  0  0  0  0  0
  -25.9595  -26.0600   18.8771 H   0  0  0  0  0  0
  -23.9625  -27.3413   18.9760 H   0  0  0  0  0  0
  -23.7405  -30.6544   19.4449 H   0  0  0  0  0  0
  -22.7018  -29.3231   19.8647 H   0  0  0  0  0  0
  -25.1211  -36.2098   25.0875 H   0  0  0  0  0  0
  -20.9813  -28.3139   24.1468 H   0  0  0  0  0  0
  -20.5793  -26.2284   23.3528 H   0  0  0  0  0  0
  -21.6675  -26.7568   22.1124 H   0  0  0  0  0  0
  -19.6979  -25.6282   21.1162 H   0  0  0  0  0  0
  -19.6581  -27.3181   20.6723 H   0  0  0  0  0  0
  -17.4197  -26.6597   21.3975 H   0  0  0  0  0  0
  -18.0242  -26.0083   22.9002 H   0  0  0  0  0  0
  -19.7919  -30.7181   24.2319 H   0  0  0  0  0  0
  -17.4926  -31.6250   24.5109 H   0  0  0  0  0  0
  -15.5318  -30.2989   23.7479 H   0  0  0  0  0  0
  -15.8627  -28.0828   22.7091 H   0  0  0  0  0  0
  -24.5996  -30.6952   25.7987 H   0  0  0  0  0  0
  -24.9068  -32.2641   26.5334 H   0  0  0  0  0  0
  -25.8305  -30.8585   27.0245 H   0  0  0  0  0  0
  -26.2791  -29.6858   24.1177 H   0  0  0  0  0  0
  -27.4207  -29.7250   25.4433 H   0  0  0  0  0  0
  -27.8602  -30.4450   23.9140 H   0  0  0  0  0  0
  -27.2763  -33.3591   26.2192 H   0  0  0  0  0  0
  -28.3818  -32.6955   25.0252 H   0  0  0  0  0  0
  -28.0935  -31.8422   26.5315 H   0  0  0  0  0  0
  -28.2651  -38.0094   24.7524 H   0  0  0  0  0  0
  -28.1059  -36.2654   24.6319 H   0  0  0  0  0  0
  -27.2367  -37.1505   25.8917 H   0  0  0  0  0  0
  -20.9482  -29.8653   21.6883 H   0  0  0  0  0  0
  -26.0218  -38.2949   24.1382 H   0  0  0  0  0  0
  -28.0124  -17.7549   20.5726 H   0  0  0  0  0  0
  -27.6405  -19.8180   19.2998 H   0  0  0  0  0  0
  -29.0914  -20.1004   24.0373 H   0  0  0  0  0  0
  -28.4365  -16.7999   23.1763 H   0  0  0  0  0  0
  -29.5958  -17.7946   24.0291 H   0  0  0  0  0  0
  -27.5357  -23.0877   20.6779 H   0  0  0  0  0  0
  -27.5525  -22.2466   19.1685 H   0  0  0  0  0  0
  -30.0246  -16.7922   21.1545 H   0  0  0  0  0  0
  -31.1074  -17.8172   22.0167 H   0  0  0  0  0  0
  -29.7176  -23.0163   18.5996 H   0  0  0  0  0  0
  -30.3321  -22.6176   20.1615 H   0  0  0  0  0  0
  -30.4813  -25.0659   19.6739 H   0  0  0  0  0  0
  -29.5747  -24.6952   21.1198 H   0  0  0  0  0  0
  -30.9638  -15.6843   23.8156 H   0  0  0  0  0  0
  -32.2122  -15.8731   22.6295 H   0  0  0  0  0  0
  -27.4413  -24.9523   19.7905 H   0  0  0  0  0  0
  -28.3604  -25.4639   18.4008 H   0  0  0  0  0  0
  -30.1265  -13.9184   22.6737 H   0  0  0  0  0  0
  1 25  1  0  0  0
  1 30  2  0  0  0
  1 84  1  0  0  0
  2  3  1  0  0  0
  2 25  1  0  0  0
  2 86  1  0  0  0
  2 87  1  0  0  0
  3  4  1  0  0  0
  3 88  1  0  0  0
  3 89  1  0  0  0
  4  5  1  0  0  0
  4 90  1  0  0  0
  4 91  1  0  0  0
  5  6  1  0  0  0
  5 26  1  0  0  0
  5 92  1  0  0  0
  6 25  1  0  0  0
  6 93  1  0  0  0
  6 94  1  0  0  0
  7  8  2  0  0  0
  7 26  1  0  0  0
  7 29  1  0  0  0
  8  9  1  0  0  0
  8 22  1  0  0  0
  9 10  1  0  0  0
  9 27  2  0  0  0
 10 11  2  0  0  0
 10 15  1  0  0  0
 11 12  1  0  0  0
 11 95  1  0  0  0
 12 13  2  0  0  0
 12 96  1  0  0  0
 13 14  1  0  0  0
 13 31  1  0  0  0
 14 15  2  0  0  0
 14 97  1  0  0  0
 15 98  1  0  0  0
 16 17  2  0  0  0
 16 21  1  0  0  0
 16 31  1  0  0  0
 17 18  1  0  0  0
 17 99  1  0  0  0
 18 19  2  0  0  0
 18100  1  0  0  0
 19 20  1  0  0  0
 19 24  1  0  0  0
 20 21  2  0  0  0
 20101  1  0  0  0
 21 23  1  0  0  0
 22 28  1  0  0  0
 22 32  2  0  0  0
 26 27  1  0  0  0
 28102  1  0  0  0
 28103  1  0  0  0
 29104  1  0  0  0
 29105  1  0  0  0
 33 34  1  0  0  0
 33 66  1  0  0  0
 33 70  2  0  0  0
 34 36  1  0  0  0
 34 59  1  0  0  0
 34106  1  0  0  0
 35 44  2  0  0  0
 35 45  1  0  0  0
 35 68  1  0  0  0
 36 56  1  0  0  0
 36107  1  0  0  0
 37 39  1  0  0  0
 37 47  1  0  0  0
 37 66  1  0  0  0
 37108  1  0  0  0
 38 43  2  0  0  0
 38 46  1  0  0  0
 38 47  1  0  0  0
 39 64  1  0  0  0
 39 67  2  0  0  0
 40 52  1  0  0  0
 40 53  2  0  0  0
 40 58  1  0  0  0
 41109  1  0  0  0
 41110  1  0  0  0
 41111  1  0  0  0
 41 48  1  0  0  0
 42 43  1  0  0  0
 42 66  1  0  0  0
 42112  1  0  0  0
 42113  1  0  0  0
 43 44  1  0  0  0
 44114  1  0  0  0
 45 46  2  0  0  0
 45115  1  0  0  0
 46116  1  0  0  0
 47117  1  0  0  0
 47118  1  0  0  0
 48 56  1  0  0  0
 48 65  1  0  0  0
 48119  1  0  0  0
 49 50  1  0  0  0
 49 53  1  0  0  0
 49 64  1  0  0  0
 49120  1  0  0  0
 50 51  1  0  0  0
 50121  1  0  0  0
 50122  1  0  0  0
 51 52  1  0  0  0
 51123  1  0  0  0
 51124  1  0  0  0
 52125  1  0  0  0
 52126  1  0  0  0
 53 54  1  0  0  0
 54 55  2  0  0  0
 54127  1  0  0  0
 55 57  1  0  0  0
 55128  1  0  0  0
 56 69  2  0  0  0
 57 58  2  0  0  0
 57129  1  0  0  0
 58130  1  0  0  0
 59 60  1  0  0  0
 59 61  1  0  0  0
 59 62  1  0  0  0
 60131  1  0  0  0
 60132  1  0  0  0
 60133  1  0  0  0
 61134  1  0  0  0
 61135  1  0  0  0
 61136  1  0  0  0
 62137  1  0  0  0
 62138  1  0  0  0
 62139  1  0  0  0
 63 65  1  0  0  0
 63140  1  0  0  0
 63141  1  0  0  0
 63142  1  0  0  0
 64143  1  0  0  0
 65144  1  0  0  0
 68 83  1  0  0  0
 71 72  2  0  0  0
 71 74  1  0  0  0
 71145  1  0  0  0
 72 75  1  0  0  0
 72146  1  0  0  0
 73 74  2  0  0  0
 73 76  1  0  0  0
 73147  1  0  0  0
 74 77  1  0  0  0
 75 76  2  0  0  0
 75 78  1  0  0  0
 76 85  1  0  0  0
 77 79  1  0  0  0
 77148  1  0  0  0
 77149  1  0  0  0
 78 80  1  0  0  0
 78150  1  0  0  0
 78151  1  0  0  0
 79 82  1  0  0  0
 79152  1  0  0  0
 79153  1  0  0  0
 80 81  1  0  0  0
 80154  1  0  0  0
 80155  1  0  0  0
 81 83  1  0  0  0
 81156  1  0  0  0
 81157  1  0  0  0
 82 84  1  0  0  0
 82158  1  0  0  0
 82159  1  0  0  0
 83160  1  0  0  0
 83161  1  0  0  0
 84162  1  0  0  0
M  ISO  4   1 100  68 101  83 101  84 100
M  END
> <chiral flag>
0

> <version>
0

> <s_m_source_file>
/data/baiqing/PycharmProjects/Reinvent-master-3.2/result/LINK_invent/BTK/process_docking_weight1_custom_sum_contain_oxygen_bond_distance_aromatic_linkinvent_7_9_3/rearranged_h_0037.sdf

> <i_m_source_file_index>
34

> <r_mmod_Potential_Energy-OPLS-2005>
-10.7095212936401

> <r_mmod_Stretch_Energy-OPLS-2005>
33.1013374328613

> <r_mmod_Bend_Energy-OPLS-2005>
93.5306015014648

> <r_mmod_Torsional_Energy-OPLS-2005>
236.174880981445

> <r_mmod_Improper_Torsional_Energy-OPLS-2005>
3.9323513507843

> <r_mmod_Van_der_Waal_Energy-OPLS-2005>
165.931198120117

> <r_mmod_Electrostatic_Energy-OPLS-2005>
-355.845306396484

> <r_mmod_Solvation_Energy-OPLS-2005>
-204.907730102539

> <b_mmod_Minimization_Converged-OPLS-2005>
0

> <r_mmod_RMS_Derivative-OPLS-2005>
9.26670932769775

$$$$
34
                    3D
 Structure written by MMmdl.
149157  0  0  1  0            999 V2000
  -30.5077  -14.9949   20.3984 C   0  0  0  0  0  0
  -30.4400  -12.6092   19.5238 C   0  0  0  0  0  0
  -29.5294  -12.5401   18.2739 C   0  0  0  0  0  0
  -28.0618  -12.3201   18.6840 C   0  0  0  0  0  0
  -27.6308  -13.2527   19.8458 C   0  0  2  0  0  0
  -28.6674  -13.2901   20.9908 C   0  0  0  0  0  0
  -25.2455  -13.8223   20.5718 C   0  0  0  0  0  0
  -24.1773  -13.0440   20.9226 C   0  0  0  0  0  0
  -24.6395  -11.6927   20.8751 C   0  0  0  0  0  0
  -23.9082  -10.4294   21.0405 C   0  0  0  0  0  0
  -24.3629   -9.4208   21.9183 C   0  0  0  0  0  0
  -23.6300   -8.2245   22.0753 C   0  0  0  0  0  0
  -22.4281   -8.0283   21.3544 C   0  0  0  0  0  0
  -21.9920   -9.0257   20.4646 C   0  0  0  0  0  0
  -22.7252  -10.2135   20.3054 C   0  0  0  0  0  0
  -21.6856   -6.0737   22.5279 C   0  0  0  0  0  0
  -21.4016   -6.5641   23.8212 C   0  0  0  0  0  0
  -21.3660   -5.6793   24.9174 C   0  0  0  0  0  0
  -21.6044   -4.3056   24.7225 C   0  0  0  0  0  0
  -21.8819   -3.8147   23.4346 C   0  0  0  0  0  0
  -21.9193   -4.6964   22.3402 C   0  0  0  0  0  0
  -22.7793  -13.5208   21.1880 C   0  0  0  0  0  0
  -22.1662   -4.2150   21.0980 F   0  0  0  0  0  0
  -21.5628   -3.4539   25.7737 F   0  0  0  0  0  0
  -29.9453  -13.7133   20.4038 N   0  0  0  0  0  0
  -26.2886  -12.9464   20.3265 N   0  0  0  0  0  0
  -25.9331  -11.6588   20.5745 N   0  0  0  0  0  0
  -22.0447  -12.8193   22.0437 N   0  0  0  0  0  0
  -25.4118  -15.1953   20.4146 N   0  0  0  0  0  0
  -31.6867  -15.0726   20.0357 O   0  0  0  0  0  0
  -21.6643   -6.8881   21.4241 O   0  0  0  0  0  0
  -22.3474  -14.5511   20.6725 O   0  0  0  0  0  0
  -24.6446  -31.8386   23.1821 C   0  0  0  0  0  0
  -25.9205  -32.4663   23.8229 C   0  0  1  0  0  0
  -27.2272  -27.1046   20.1591 C   0  0  0  0  0  0
  -25.5941  -33.8472   24.2148 N   0  0  0  0  0  0
  -23.4508  -30.4525   21.5267 C   0  0  2  0  0  0
  -24.9031  -28.8663   20.1039 C   0  0  0  0  0  0
  -22.7574  -29.4509   22.4837 C   0  0  0  0  0  0
  -18.0304  -28.1397   22.8476 C   0  0  0  0  0  0
  -24.1491  -36.7244   23.2645 C   0  0  0  0  0  0
  -26.0052  -30.7013   21.3845 C   0  0  0  0  0  0
  -26.0753  -29.3080   20.7281 C   0  0  0  0  0  0
  -27.2312  -28.4404   20.7401 C   0  0  0  0  0  0
  -26.0333  -26.7635   19.4906 C   0  0  0  0  0  0
  -24.8966  -27.6101   19.4696 C   0  0  0  0  0  0
  -23.6788  -29.7716   20.1478 C   0  0  0  0  0  0
  -25.4126  -36.3015   24.0311 C   0  0  1  0  0  0
  -20.5917  -28.3722   23.1233 C   0  0  2  0  0  0
  -20.6784  -26.9421   22.5410 C   0  0  0  0  0  0
  -19.5761  -26.6379   21.5215 C   0  0  0  0  0  0
  -18.1942  -26.7935   22.1623 C   0  0  0  0  0  0
  -19.1561  -28.8878   23.2846 C   0  0  0  0  0  0
  -18.9478  -30.1474   23.8872 C   0  0  0  0  0  0
  -17.6475  -30.6593   24.0559 C   0  0  0  0  0  0
  -25.9077  -34.9392   23.5046 C   0  0  0  0  0  0
  -16.5365  -29.9085   23.6337 C   0  0  0  0  0  0
  -16.7289  -28.6504   23.0357 C   0  0  0  0  0  0
  -26.4524  -31.6555   25.0692 C   0  0  0  0  0  0
  -25.3702  -31.3754   26.1384 C   0  0  0  0  0  0
  -27.0401  -30.2949   24.6301 C   0  0  0  0  0  0
  -27.6043  -32.4336   25.7482 C   0  0  0  0  0  0
  -27.5574  -37.1778   24.8466 C   0  0  0  0  0  0
  -21.4262  -29.3036   22.3595 N   0  0  0  0  0  0
  -26.4285  -37.3733   23.9407 N   0  0  0  0  0  0
  -24.7199  -31.0208   22.0863 N   0  0  0  0  0  0
  -23.4202  -28.8078   23.3016 O   0  0  0  0  0  0
  -28.3005  -26.1452   20.2988 O   0  0  0  0  0  0
  -26.5677  -34.8901   22.4634 O   0  0  0  0  0  0
  -23.5560  -32.1278   23.7026 O   0  0  0  0  0  0
  -28.8559  -20.3541   20.1164 C   0  0  0  0  0  0
  -30.8288  -20.8645   21.8659 C   0  0  0  0  0  0
  -29.6669  -19.1615   20.5308 C   0  0  0  0  0  0
  -30.6701  -19.5158   21.4610 C   0  0  0  0  0  0
  -29.0696  -21.7604   20.5822 C   0  0  0  0  0  0
  -29.6634  -17.6117   19.9117 C   0  0  0  0  0  0
  -28.1239  -23.1369   20.4649 C   0  0  0  0  0  0
  -28.4536  -24.6646   19.7812 C   0  0  0  0  0  0
  -30.0855  -21.9274   21.4559 N   0  0  0  0  0  0
  -29.7109  -16.1671   20.5931 N   0  0  0  0  0  0
  -31.7640  -18.3307   22.0845 Cl  0  0  0  0  0  0
  -31.4761  -12.7624   19.2183 H   0  0  0  0  0  0
  -30.4312  -11.6591   20.0603 H   0  0  0  0  0  0
  -29.8571  -11.7403   17.6085 H   0  0  0  0  0  0
  -29.6165  -13.4675   17.7057 H   0  0  0  0  0  0
  -27.9603  -11.2789   18.9923 H   0  0  0  0  0  0
  -27.4020  -12.4494   17.8253 H   0  0  0  0  0  0
  -27.5925  -14.2538   19.4153 H   0  0  0  0  0  0
  -28.7578  -12.3157   21.4731 H   0  0  0  0  0  0
  -28.3561  -13.9904   21.7673 H   0  0  0  0  0  0
  -25.2772   -9.5685   22.4761 H   0  0  0  0  0  0
  -24.0007   -7.4637   22.7475 H   0  0  0  0  0  0
  -21.0850   -8.8779   19.8952 H   0  0  0  0  0  0
  -22.3710  -10.9675   19.6165 H   0  0  0  0  0  0
  -21.2010   -7.6149   23.9716 H   0  0  0  0  0  0
  -21.1482   -6.0523   25.9077 H   0  0  0  0  0  0
  -22.0597   -2.7610   23.2846 H   0  0  0  0  0  0
  -22.4074  -11.9860   22.4827 H   0  0  0  0  0  0
  -21.1061  -13.1207   22.2643 H   0  0  0  0  0  0
  -24.6406  -15.8450   20.5236 H   0  0  0  0  0  0
  -26.2520  -15.6361   20.0637 H   0  0  0  0  0  0
  -26.7268  -32.5257   23.0950 H   0  0  0  0  0  0
  -25.0050  -33.9577   25.0271 H   0  0  0  0  0  0
  -22.7550  -31.2787   21.3663 H   0  0  0  0  0  0
  -23.3759  -35.9570   23.3291 H   0  0  0  0  0  0
  -24.3572  -36.8899   22.2063 H   0  0  0  0  0  0
  -23.7242  -37.6431   23.6700 H   0  0  0  0  0  0
  -26.1638  -31.4528   20.6099 H   0  0  0  0  0  0
  -26.8742  -30.7539   22.0289 H   0  0  0  0  0  0
  -28.1214  -28.7697   21.2576 H   0  0  0  0  0  0
  -25.9514  -25.7941   19.0206 H   0  0  0  0  0  0
  -23.9996  -27.2668   18.9726 H   0  0  0  0  0  0
  -23.8143  -30.5419   19.3878 H   0  0  0  0  0  0
  -22.7937  -29.2118   19.8407 H   0  0  0  0  0  0
  -25.1318  -36.1833   25.0804 H   0  0  0  0  0  0
  -21.0010  -28.3318   24.1355 H   0  0  0  0  0  0
  -20.5670  -26.2336   23.3633 H   0  0  0  0  0  0
  -21.6651  -26.7418   22.1214 H   0  0  0  0  0  0
  -19.6921  -25.6283   21.1261 H   0  0  0  0  0  0
  -19.6702  -27.3175   20.6734 H   0  0  0  0  0  0
  -17.4212  -26.6681   21.4025 H   0  0  0  0  0  0
  -18.0338  -26.0083   22.9025 H   0  0  0  0  0  0
  -19.7954  -30.7297   24.2230 H   0  0  0  0  0  0
  -17.5028  -31.6270   24.5165 H   0  0  0  0  0  0
  -15.5365  -30.2980   23.7675 H   0  0  0  0  0  0
  -15.8689  -28.0815   22.7086 H   0  0  0  0  0  0
  -24.5889  -30.7093   25.7704 H   0  0  0  0  0  0
  -24.8882  -32.2939   26.4742 H   0  0  0  0  0  0
  -25.7979  -30.8972   27.0204 H   0  0  0  0  0  0
  -26.3027  -29.6655   24.1306 H   0  0  0  0  0  0
  -27.4002  -29.7268   25.4888 H   0  0  0  0  0  0
  -27.8936  -30.4179   23.9630 H   0  0  0  0  0  0
  -27.2625  -33.3659   26.1990 H   0  0  0  0  0  0
  -28.3889  -32.6862   25.0338 H   0  0  0  0  0  0
  -28.0672  -31.8510   26.5457 H   0  0  0  0  0  0
  -28.2582  -38.0083   24.7511 H   0  0  0  0  0  0
  -28.1079  -36.2610   24.6296 H   0  0  0  0  0  0
  -27.2290  -37.1427   25.8868 H   0  0  0  0  0  0
  -20.9482  -29.8730   21.6752 H   0  0  0  0  0  0
  -26.0147  -38.2799   24.1410 H   0  0  0  0  0  0
  -28.0433  -20.1825   19.4236 H   0  0  0  0  0  0
  -31.6147  -21.1100   22.5651 H   0  0  0  0  0  0
  -30.4950  -17.6090   19.2062 H   0  0  0  0  0  0
  -28.7809  -17.5780   19.2732 H   0  0  0  0  0  0
  -27.8474  -23.3492   21.4975 H   0  0  0  0  0  0
  -27.1867  -22.8019   20.0210 H   0  0  0  0  0  0
  -28.0481  -24.6493   18.7695 H   0  0  0  0  0  0
  -29.5288  -24.6197   19.6083 H   0  0  0  0  0  0
  -28.8291  -15.9423   21.0277 H   0  0  0  0  0  0
  1 25  1  0  0  0
  1 30  2  0  0  0
  1 80  1  0  0  0
  2  3  1  0  0  0
  2 25  1  0  0  0
  2 82  1  0  0  0
  2 83  1  0  0  0
  3  4  1  0  0  0
  3 84  1  0  0  0
  3 85  1  0  0  0
  4  5  1  0  0  0
  4 86  1  0  0  0
  4 87  1  0  0  0
  5  6  1  0  0  0
  5 26  1  0  0  0
  5 88  1  0  0  0
  6 25  1  0  0  0
  6 89  1  0  0  0
  6 90  1  0  0  0
  7  8  2  0  0  0
  7 26  1  0  0  0
  7 29  1  0  0  0
  8  9  1  0  0  0
  8 22  1  0  0  0
  9 10  1  0  0  0
  9 27  2  0  0  0
 10 11  2  0  0  0
 10 15  1  0  0  0
 11 12  1  0  0  0
 11 91  1  0  0  0
 12 13  2  0  0  0
 12 92  1  0  0  0
 13 14  1  0  0  0
 13 31  1  0  0  0
 14 15  2  0  0  0
 14 93  1  0  0  0
 15 94  1  0  0  0
 16 17  2  0  0  0
 16 21  1  0  0  0
 16 31  1  0  0  0
 17 18  1  0  0  0
 17 95  1  0  0  0
 18 19  2  0  0  0
 18 96  1  0  0  0
 19 20  1  0  0  0
 19 24  1  0  0  0
 20 21  2  0  0  0
 20 97  1  0  0  0
 21 23  1  0  0  0
 22 28  1  0  0  0
 22 32  2  0  0  0
 26 27  1  0  0  0
 28 98  1  0  0  0
 28 99  1  0  0  0
 29100  1  0  0  0
 29101  1  0  0  0
 33 34  1  0  0  0
 33 66  1  0  0  0
 33 70  2  0  0  0
 34 36  1  0  0  0
 34 59  1  0  0  0
 34102  1  0  0  0
 35 44  2  0  0  0
 35 45  1  0  0  0
 35 68  1  0  0  0
 36 56  1  0  0  0
 36103  1  0  0  0
 37 39  1  0  0  0
 37 47  1  0  0  0
 37 66  1  0  0  0
 37104  1  0  0  0
 38 43  2  0  0  0
 38 46  1  0  0  0
 38 47  1  0  0  0
 39 64  1  0  0  0
 39 67  2  0  0  0
 40 52  1  0  0  0
 40 53  2  0  0  0
 40 58  1  0  0  0
 41105  1  0  0  0
 41106  1  0  0  0
 41107  1  0  0  0
 41 48  1  0  0  0
 42 43  1  0  0  0
 42 66  1  0  0  0
 42108  1  0  0  0
 42109  1  0  0  0
 43 44  1  0  0  0
 44110  1  0  0  0
 45 46  2  0  0  0
 45111  1  0  0  0
 46112  1  0  0  0
 47113  1  0  0  0
 47114  1  0  0  0
 48 56  1  0  0  0
 48 65  1  0  0  0
 48115  1  0  0  0
 49 50  1  0  0  0
 49 53  1  0  0  0
 49 64  1  0  0  0
 49116  1  0  0  0
 50 51  1  0  0  0
 50117  1  0  0  0
 50118  1  0  0  0
 51 52  1  0  0  0
 51119  1  0  0  0
 51120  1  0  0  0
 52121  1  0  0  0
 52122  1  0  0  0
 53 54  1  0  0  0
 54 55  2  0  0  0
 54123  1  0  0  0
 55 57  1  0  0  0
 55124  1  0  0  0
 56 69  2  0  0  0
 57 58  2  0  0  0
 57125  1  0  0  0
 58126  1  0  0  0
 59 60  1  0  0  0
 59 61  1  0  0  0
 59 62  1  0  0  0
 60127  1  0  0  0
 60128  1  0  0  0
 60129  1  0  0  0
 61130  1  0  0  0
 61131  1  0  0  0
 61132  1  0  0  0
 62133  1  0  0  0
 62134  1  0  0  0
 62135  1  0  0  0
 63 65  1  0  0  0
 63136  1  0  0  0
 63137  1  0  0  0
 63138  1  0  0  0
 64139  1  0  0  0
 65140  1  0  0  0
 68 78  1  0  0  0
 71 73  2  0  0  0
 71 75  1  0  0  0
 71141  1  0  0  0
 72 74  2  0  0  0
 72 79  1  0  0  0
 72142  1  0  0  0
 73 74  1  0  0  0
 73 76  1  0  0  0
 74 81  1  0  0  0
 75 77  1  0  0  0
 75 79  2  0  0  0
 76 80  1  0  0  0
 76143  1  0  0  0
 76144  1  0  0  0
 77 78  1  0  0  0
 77145  1  0  0  0
 77146  1  0  0  0
 78147  1  0  0  0
 78148  1  0  0  0
 80149  1  0  0  0
M  ISO  4   1 100  68 101  78 101  80 100
M  END
> <chiral flag>
0

> <version>
0

> <s_m_source_file>
/data/baiqing/PycharmProjects/Reinvent-master-3.2/result/LINK_invent/BTK/process_docking_weight1_custom_sum_contain_oxygen_bond_distance_aromatic_linkinvent_7_9_3/rearranged_h_0037.sdf

> <i_m_source_file_index>
35

> <r_mmod_Potential_Energy-OPLS-2005>
477.233154296875

> <r_mmod_Stretch_Energy-OPLS-2005>
298.069366455078

> <r_mmod_Bend_Energy-OPLS-2005>
332.51123046875

> <r_mmod_Torsional_Energy-OPLS-2005>
220.286270141602

> <r_mmod_Improper_Torsional_Energy-OPLS-2005>
8.1037073135376

> <r_mmod_Van_der_Waal_Energy-OPLS-2005>
125.77214050293

> <r_mmod_Electrostatic_Energy-OPLS-2005>
-492.469635009766

> <r_mmod_Solvation_Energy-OPLS-2005>
-238.383636474609

> <b_mmod_Minimization_Converged-OPLS-2005>
1

> <r_mmod_RMS_Derivative-OPLS-2005>
0.0472378619015217

$$$$
35
                    3D
 Structure written by MMmdl.
167175  0  0  1  0            999 V2000
  -30.7921  -14.2996   20.7385 C   0  0  0  0  0  0
  -30.4337  -12.2652   19.3925 C   0  0  0  0  0  0
  -29.4959  -12.5201   18.1986 C   0  0  0  0  0  0
  -28.0210  -12.3723   18.6178 C   0  0  0  0  0  0
  -27.6802  -13.1919   19.8864 C   0  0  2  0  0  0
  -28.7153  -12.9130   21.0016 C   0  0  0  0  0  0
  -25.2662  -13.8137   20.5680 C   0  0  0  0  0  0
  -24.1898  -13.0449   20.9167 C   0  0  0  0  0  0
  -24.6416  -11.6881   20.8743 C   0  0  0  0  0  0
  -23.9051  -10.4293   21.0413 C   0  0  0  0  0  0
  -24.3592   -9.4205   21.9199 C   0  0  0  0  0  0
  -23.6271   -8.2246   22.0759 C   0  0  0  0  0  0
  -22.4259   -8.0288   21.3544 C   0  0  0  0  0  0
  -21.9894   -9.0271   20.4648 C   0  0  0  0  0  0
  -22.7218  -10.2140   20.3060 C   0  0  0  0  0  0
  -21.6845   -6.0721   22.5279 C   0  0  0  0  0  0
  -21.4022   -6.5623   23.8223 C   0  0  0  0  0  0
  -21.3667   -5.6772   24.9185 C   0  0  0  0  0  0
  -21.6051   -4.3045   24.7234 C   0  0  0  0  0  0
  -21.8811   -3.8124   23.4363 C   0  0  0  0  0  0
  -21.9189   -4.6943   22.3409 C   0  0  0  0  0  0
  -22.7919  -13.5283   21.1848 C   0  0  0  0  0  0
  -22.1654   -4.2129   21.0994 F   0  0  0  0  0  0
  -21.5625   -3.4531   25.7754 F   0  0  0  0  0  0
  -30.0778  -13.1773   20.4858 N   0  0  0  0  0  0
  -26.3122  -12.9281   20.3399 N   0  0  0  0  0  0
  -25.9344  -11.6453   20.5768 N   0  0  0  0  0  0
  -22.0507  -12.8294   22.0361 N   0  0  0  0  0  0
  -25.4411  -15.1847   20.4045 N   0  0  0  0  0  0
  -31.7078  -14.7154   20.0217 O   0  0  0  0  0  0
  -21.6626   -6.8870   21.4241 O   0  0  0  0  0  0
  -22.3621  -14.5611   20.6693 O   0  0  0  0  0  0
  -24.6166  -31.8702   23.2132 C   0  0  0  0  0  0
  -25.9062  -32.4815   23.8443 C   0  0  1  0  0  0
  -27.2322  -27.4625   20.0884 C   0  0  0  0  0  0
  -25.5957  -33.8616   24.2371 N   0  0  0  0  0  0
  -23.4044  -30.4916   21.5532 C   0  0  2  0  0  0
  -24.8514  -28.9709   20.1064 C   0  0  0  0  0  0
  -22.7430  -29.4649   22.4981 C   0  0  0  0  0  0
  -18.0323  -28.1421   22.8393 C   0  0  0  0  0  0
  -24.1498  -36.7301   23.2631 C   0  0  0  0  0  0
  -25.9284  -30.8393   21.3655 C   0  0  0  0  0  0
  -26.0047  -29.4713   20.7280 C   0  0  0  0  0  0
  -27.1959  -28.7140   20.7390 C   0  0  0  0  0  0
  -26.0866  -26.9946   19.4185 C   0  0  0  0  0  0
  -24.8895  -27.7304   19.4462 C   0  0  0  0  0  0
  -23.6106  -29.8295   20.1639 C   0  0  0  0  0  0
  -25.4111  -36.3092   24.0326 C   0  0  1  0  0  0
  -20.5872  -28.3718   23.1356 C   0  0  2  0  0  0
  -20.6820  -26.9426   22.5592 C   0  0  0  0  0  0
  -19.5951  -26.6393   21.5247 C   0  0  0  0  0  0
  -18.1996  -26.8047   22.1363 C   0  0  0  0  0  0
  -19.1538  -28.8884   23.2880 C   0  0  0  0  0  0
  -18.9428  -30.1452   23.8924 C   0  0  0  0  0  0
  -17.6400  -30.6543   24.0602 C   0  0  0  0  0  0
  -25.9040  -34.9451   23.5129 C   0  0  0  0  0  0
  -16.5322  -29.9032   23.6306 C   0  0  0  0  0  0
  -16.7294  -28.6502   23.0247 C   0  0  0  0  0  0
  -26.4526  -31.6567   25.0743 C   0  0  0  0  0  0
  -25.3831  -31.3644   26.1521 C   0  0  0  0  0  0
  -27.0331  -30.3027   24.6016 C   0  0  0  0  0  0
  -27.6148  -32.4271   25.7456 C   0  0  0  0  0  0
  -27.5582  -37.1804   24.8473 C   0  0  0  0  0  0
  -21.4165  -29.3042   22.3709 N   0  0  0  0  0  0
  -26.4305  -37.3773   23.9413 N   0  0  0  0  0  0
  -24.6687  -31.0784   22.1050 N   0  0  0  0  0  0
  -23.4171  -28.8234   23.3072 O   0  0  0  0  0  0
  -28.3649  -26.6941   20.0814 O   0  0  0  0  0  0
  -26.5574  -34.8909   22.4680 O   0  0  0  0  0  0
  -23.5358  -32.1475   23.7516 O   0  0  0  0  0  0
  -27.2068  -22.0347   19.9415 C   0  0  0  0  0  0
  -27.3045  -20.6381   19.9067 C   0  0  0  0  0  0
  -26.6628  -22.6548   21.0829 C   0  0  0  0  0  0
  -26.8300  -19.9072   21.0050 C   0  0  0  0  0  0
  -26.0836  -21.8308   22.0771 C   0  0  0  0  0  0
  -26.2091  -22.8282   24.4115 C   0  0  0  0  0  0
  -26.8113  -24.1665   21.2095 C   0  0  0  0  0  0
  -27.0782  -18.4173   21.0871 C   0  0  0  0  0  0
  -25.3031  -22.3903   23.2561 C   0  0  0  0  0  0
  -28.3086  -24.5527   21.3021 C   0  0  0  0  0  0
  -28.3501  -18.0836   21.8856 C   0  0  0  0  0  0
  -28.7818  -16.6298   21.6740 C   0  0  0  0  0  0
  -30.2530  -16.3348   22.0225 C   0  0  0  0  0  0
  -28.6414  -26.0582   21.3342 C   0  0  0  0  0  0
  -26.2007  -20.4849   22.0493 N   0  0  0  0  0  0
  -30.4513  -14.9014   21.8809 N   0  0  0  0  0  0
  -31.4751  -12.3802   19.0888 H   0  0  0  0  0  0
  -30.3392  -11.2366   19.7404 H   0  0  0  0  0  0
  -29.7242  -11.8255   17.3900 H   0  0  0  0  0  0
  -29.6680  -13.5222   17.8017 H   0  0  0  0  0  0
  -27.8351  -11.3124   18.8062 H   0  0  0  0  0  0
  -27.3631  -12.6528   17.7940 H   0  0  0  0  0  0
  -27.7461  -14.2479   19.6185 H   0  0  0  0  0  0
  -28.6528  -11.8718   21.3229 H   0  0  0  0  0  0
  -28.4518  -13.4954   21.8839 H   0  0  0  0  0  0
  -25.2736   -9.5679   22.4776 H   0  0  0  0  0  0
  -23.9968   -7.4632   22.7483 H   0  0  0  0  0  0
  -21.0819   -8.8805   19.8959 H   0  0  0  0  0  0
  -22.3701  -10.9686   19.6172 H   0  0  0  0  0  0
  -21.2019   -7.6136   23.9727 H   0  0  0  0  0  0
  -21.1501   -6.0509   25.9093 H   0  0  0  0  0  0
  -22.0581   -2.7587   23.2878 H   0  0  0  0  0  0
  -22.4051  -11.9949   22.4806 H   0  0  0  0  0  0
  -21.1148  -13.1405   22.2550 H   0  0  0  0  0  0
  -24.6765  -15.8403   20.5087 H   0  0  0  0  0  0
  -26.3012  -15.6142   20.0940 H   0  0  0  0  0  0
  -26.7135  -32.5541   23.1228 H   0  0  0  0  0  0
  -25.0254  -33.9786   25.0601 H   0  0  0  0  0  0
  -22.6967  -31.3120   21.4156 H   0  0  0  0  0  0
  -23.3734  -35.9678   23.3339 H   0  0  0  0  0  0
  -24.3599  -36.8851   22.2047 H   0  0  0  0  0  0
  -23.7285  -37.6522   23.6612 H   0  0  0  0  0  0
  -26.0233  -31.5884   20.5801 H   0  0  0  0  0  0
  -26.8257  -30.9147   21.9616 H   0  0  0  0  0  0
  -28.0822  -29.0888   21.2355 H   0  0  0  0  0  0
  -26.1169  -26.0704   18.8568 H   0  0  0  0  0  0
  -24.0192  -27.3521   18.9281 H   0  0  0  0  0  0
  -23.7038  -30.6046   19.4046 H   0  0  0  0  0  0
  -22.7436  -29.2365   19.8734 H   0  0  0  0  0  0
  -25.1288  -36.1974   25.0817 H   0  0  0  0  0  0
  -20.9947  -28.3421   24.1490 H   0  0  0  0  0  0
  -20.5589  -26.2390   23.3826 H   0  0  0  0  0  0
  -21.6750  -26.7436   22.1562 H   0  0  0  0  0  0
  -19.7164  -25.6272   21.1384 H   0  0  0  0  0  0
  -19.7115  -27.3139   20.6734 H   0  0  0  0  0  0
  -17.4516  -26.7067   21.3527 H   0  0  0  0  0  0
  -18.0099  -26.0068   22.8566 H   0  0  0  0  0  0
  -19.7850  -30.7283   24.2356 H   0  0  0  0  0  0
  -17.4883  -31.6181   24.5278 H   0  0  0  0  0  0
  -15.5302  -30.2881   23.7599 H   0  0  0  0  0  0
  -15.8710  -28.0812   22.6855 H   0  0  0  0  0  0
  -24.6043  -30.6939   25.7886 H   0  0  0  0  0  0
  -24.9002  -32.2779   26.4991 H   0  0  0  0  0  0
  -25.8265  -30.8836   27.0258 H   0  0  0  0  0  0
  -26.2819  -29.6750   24.1231 H   0  0  0  0  0  0
  -27.4333  -29.7284   25.4381 H   0  0  0  0  0  0
  -27.8552  -30.4366   23.8988 H   0  0  0  0  0  0
  -27.2812  -33.3560   26.2095 H   0  0  0  0  0  0
  -28.3899  -32.6850   25.0224 H   0  0  0  0  0  0
  -28.0898  -31.8373   26.5282 H   0  0  0  0  0  0
  -28.2621  -38.0073   24.7471 H   0  0  0  0  0  0
  -28.1053  -36.2610   24.6363 H   0  0  0  0  0  0
  -27.2318  -37.1529   25.8878 H   0  0  0  0  0  0
  -20.9346  -29.8669   21.6825 H   0  0  0  0  0  0
  -26.0184  -38.2864   24.1376 H   0  0  0  0  0  0
  -27.5994  -22.6233   19.1232 H   0  0  0  0  0  0
  -27.7843  -20.1452   19.0707 H   0  0  0  0  0  0
  -25.6161  -23.2267   25.2370 H   0  0  0  0  0  0
  -26.9071  -23.6006   24.0857 H   0  0  0  0  0  0
  -26.7933  -21.9878   24.7889 H   0  0  0  0  0  0
  -26.2593  -24.5831   22.0515 H   0  0  0  0  0  0
  -26.3541  -24.5821   20.3207 H   0  0  0  0  0  0
  -27.1724  -18.0455   20.0673 H   0  0  0  0  0  0
  -26.2115  -17.9137   21.5219 H   0  0  0  0  0  0
  -24.6061  -21.6282   23.6082 H   0  0  0  0  0  0
  -24.6766  -23.2180   22.9218 H   0  0  0  0  0  0
  -28.8656  -24.1043   20.4752 H   0  0  0  0  0  0
  -28.7198  -24.0971   22.2033 H   0  0  0  0  0  0
  -28.1888  -18.2811   22.9473 H   0  0  0  0  0  0
  -29.1526  -18.7485   21.5644 H   0  0  0  0  0  0
  -28.6254  -16.3638   20.6271 H   0  0  0  0  0  0
  -28.1164  -15.9867   22.2523 H   0  0  0  0  0  0
  -30.4786  -16.6366   23.0456 H   0  0  0  0  0  0
  -30.9262  -16.8933   21.3681 H   0  0  0  0  0  0
  -28.1377  -26.5269   22.1799 H   0  0  0  0  0  0
  -29.7126  -26.1738   21.5164 H   0  0  0  0  0  0
  -29.9025  -14.3302   22.5074 H   0  0  0  0  0  0
  1 25  1  0  0  0
  1 30  2  0  0  0
  1 86  1  0  0  0
  2  3  1  0  0  0
  2 25  1  0  0  0
  2 87  1  0  0  0
  2 88  1  0  0  0
  3  4  1  0  0  0
  3 89  1  0  0  0
  3 90  1  0  0  0
  4  5  1  0  0  0
  4 91  1  0  0  0
  4 92  1  0  0  0
  5  6  1  0  0  0
  5 26  1  0  0  0
  5 93  1  0  0  0
  6 25  1  0  0  0
  6 94  1  0  0  0
  6 95  1  0  0  0
  7  8  2  0  0  0
  7 26  1  0  0  0
  7 29  1  0  0  0
  8  9  1  0  0  0
  8 22  1  0  0  0
  9 10  1  0  0  0
  9 27  2  0  0  0
 10 11  2  0  0  0
 10 15  1  0  0  0
 11 12  1  0  0  0
 11 96  1  0  0  0
 12 13  2  0  0  0
 12 97  1  0  0  0
 13 14  1  0  0  0
 13 31  1  0  0  0
 14 15  2  0  0  0
 14 98  1  0  0  0
 15 99  1  0  0  0
 16 17  2  0  0  0
 16 21  1  0  0  0
 16 31  1  0  0  0
 17 18  1  0  0  0
 17100  1  0  0  0
 18 19  2  0  0  0
 18101  1  0  0  0
 19 20  1  0  0  0
 19 24  1  0  0  0
 20 21  2  0  0  0
 20102  1  0  0  0
 21 23  1  0  0  0
 22 28  1  0  0  0
 22 32  2  0  0  0
 26 27  1  0  0  0
 28103  1  0  0  0
 28104  1  0  0  0
 29105  1  0  0  0
 29106  1  0  0  0
 33 34  1  0  0  0
 33 66  1  0  0  0
 33 70  2  0  0  0
 34 36  1  0  0  0
 34 59  1  0  0  0
 34107  1  0  0  0
 35 44  2  0  0  0
 35 45  1  0  0  0
 35 68  1  0  0  0
 36 56  1  0  0  0
 36108  1  0  0  0
 37 39  1  0  0  0
 37 47  1  0  0  0
 37 66  1  0  0  0
 37109  1  0  0  0
 38 43  2  0  0  0
 38 46  1  0  0  0
 38 47  1  0  0  0
 39 64  1  0  0  0
 39 67  2  0  0  0
 40 52  1  0  0  0
 40 53  2  0  0  0
 40 58  1  0  0  0
 41110  1  0  0  0
 41111  1  0  0  0
 41112  1  0  0  0
 41 48  1  0  0  0
 42 43  1  0  0  0
 42 66  1  0  0  0
 42113  1  0  0  0
 42114  1  0  0  0
 43 44  1  0  0  0
 44115  1  0  0  0
 45 46  2  0  0  0
 45116  1  0  0  0
 46117  1  0  0  0
 47118  1  0  0  0
 47119  1  0  0  0
 48 56  1  0  0  0
 48 65  1  0  0  0
 48120  1  0  0  0
 49 50  1  0  0  0
 49 53  1  0  0  0
 49 64  1  0  0  0
 49121  1  0  0  0
 50 51  1  0  0  0
 50122  1  0  0  0
 50123  1  0  0  0
 51 52  1  0  0  0
 51124  1  0  0  0
 51125  1  0  0  0
 52126  1  0  0  0
 52127  1  0  0  0
 53 54  1  0  0  0
 54 55  2  0  0  0
 54128  1  0  0  0
 55 57  1  0  0  0
 55129  1  0  0  0
 56 69  2  0  0  0
 57 58  2  0  0  0
 57130  1  0  0  0
 58131  1  0  0  0
 59 60  1  0  0  0
 59 61  1  0  0  0
 59 62  1  0  0  0
 60132  1  0  0  0
 60133  1  0  0  0
 60134  1  0  0  0
 61135  1  0  0  0
 61136  1  0  0  0
 61137  1  0  0  0
 62138  1  0  0  0
 62139  1  0  0  0
 62140  1  0  0  0
 63 65  1  0  0  0
 63141  1  0  0  0
 63142  1  0  0  0
 63143  1  0  0  0
 64144  1  0  0  0
 65145  1  0  0  0
 68 84  1  0  0  0
 71 72  2  0  0  0
 71 73  1  0  0  0
 71146  1  0  0  0
 72 74  1  0  0  0
 72147  1  0  0  0
 73 75  2  0  0  0
 73 77  1  0  0  0
 74 78  1  0  0  0
 74 85  2  0  0  0
 75 79  1  0  0  0
 75 85  1  0  0  0
 76 79  1  0  0  0
 76148  1  0  0  0
 76149  1  0  0  0
 76150  1  0  0  0
 77 80  1  0  0  0
 77151  1  0  0  0
 77152  1  0  0  0
 78 81  1  0  0  0
 78153  1  0  0  0
 78154  1  0  0  0
 79155  1  0  0  0
 79156  1  0  0  0
 80 84  1  0  0  0
 80157  1  0  0  0
 80158  1  0  0  0
 81 82  1  0  0  0
 81159  1  0  0  0
 81160  1  0  0  0
 82 83  1  0  0  0
 82161  1  0  0  0
 82162  1  0  0  0
 83 86  1  0  0  0
 83163  1  0  0  0
 83164  1  0  0  0
 84165  1  0  0  0
 84166  1  0  0  0
 86167  1  0  0  0
M  ISO  4   1 100  68 101  84 101  86 100
M  END
> <chiral flag>
0

> <version>
0

> <s_m_source_file>
/data/baiqing/PycharmProjects/Reinvent-master-3.2/result/LINK_invent/BTK/process_docking_weight1_custom_sum_contain_oxygen_bond_distance_aromatic_linkinvent_7_9_3/rearranged_h_0037.sdf

> <i_m_source_file_index>
36

> <r_mmod_Potential_Energy-OPLS-2005>
-226.176055908203

> <r_mmod_Stretch_Energy-OPLS-2005>
31.5699195861816

> <r_mmod_Bend_Energy-OPLS-2005>
90.671760559082

> <r_mmod_Torsional_Energy-OPLS-2005>
240.666549682617

> <r_mmod_Improper_Torsional_Energy-OPLS-2005>
4.27248191833496

> <r_mmod_Van_der_Waal_Energy-OPLS-2005>
145.168914794922

> <r_mmod_Electrostatic_Energy-OPLS-2005>
-534.136901855469

> <r_mmod_Solvation_Energy-OPLS-2005>
-215.887054443359

> <b_mmod_Minimization_Converged-OPLS-2005>
0

> <r_mmod_RMS_Derivative-OPLS-2005>
5.86921072006226

$$$$
36
                    3D
 Structure written by MMmdl.
162170  0  0  1  0            999 V2000
  -30.7152  -14.4418   20.5951 C   0  0  0  0  0  0
  -30.4349  -12.3026   19.4063 C   0  0  0  0  0  0
  -29.4956  -12.5163   18.1982 C   0  0  0  0  0  0
  -28.0186  -12.3728   18.6153 C   0  0  0  0  0  0
  -27.6701  -13.2016   19.8805 C   0  0  2  0  0  0
  -28.7145  -12.9525   20.9935 C   0  0  0  0  0  0
  -25.2632  -13.8165   20.5703 C   0  0  0  0  0  0
  -24.1866  -13.0474   20.9188 C   0  0  0  0  0  0
  -24.6383  -11.6916   20.8718 C   0  0  0  0  0  0
  -23.9052  -10.4311   21.0412 C   0  0  0  0  0  0
  -24.3604   -9.4232   21.9185 C   0  0  0  0  0  0
  -23.6296   -8.2260   22.0751 C   0  0  0  0  0  0
  -22.4275   -8.0284   21.3553 C   0  0  0  0  0  0
  -21.9917   -9.0252   20.4653 C   0  0  0  0  0  0
  -22.7231  -10.2132   20.3073 C   0  0  0  0  0  0
  -21.6862   -6.0741   22.5294 C   0  0  0  0  0  0
  -21.4008   -6.5642   23.8223 C   0  0  0  0  0  0
  -21.3665   -5.6796   24.9182 C   0  0  0  0  0  0
  -21.6056   -4.3058   24.7238 C   0  0  0  0  0  0
  -21.8819   -3.8155   23.4352 C   0  0  0  0  0  0
  -21.9191   -4.6975   22.3405 C   0  0  0  0  0  0
  -22.7872  -13.5260   21.1857 C   0  0  0  0  0  0
  -22.1666   -4.2166   21.0985 F   0  0  0  0  0  0
  -21.5630   -3.4536   25.7747 F   0  0  0  0  0  0
  -30.0515  -13.2623   20.4536 N   0  0  0  0  0  0
  -26.3071  -12.9330   20.3390 N   0  0  0  0  0  0
  -25.9300  -11.6494   20.5725 N   0  0  0  0  0  0
  -22.0497  -12.8256   22.0402 N   0  0  0  0  0  0
  -25.4393  -15.1888   20.4074 N   0  0  0  0  0  0
  -31.8081  -14.6724   20.0737 O   0  0  0  0  0  0
  -21.6643   -6.8882   21.4250 O   0  0  0  0  0  0
  -22.3571  -14.5593   20.6740 O   0  0  0  0  0  0
  -24.6129  -31.8664   23.2092 C   0  0  0  0  0  0
  -25.9022  -32.4827   23.8381 C   0  0  1  0  0  0
  -27.2552  -27.4520   20.1126 C   0  0  0  0  0  0
  -25.5870  -33.8622   24.2318 N   0  0  0  0  0  0
  -23.4015  -30.4852   21.5504 C   0  0  2  0  0  0
  -24.8559  -28.9461   20.1238 C   0  0  0  0  0  0
  -22.7397  -29.4644   22.5025 C   0  0  0  0  0  0
  -18.0265  -28.1366   22.8495 C   0  0  0  0  0  0
  -24.1493  -36.7334   23.2641 C   0  0  0  0  0  0
  -25.9240  -30.8399   21.3565 C   0  0  0  0  0  0
  -26.0095  -29.4660   20.7262 C   0  0  0  0  0  0
  -27.2123  -28.7220   20.7289 C   0  0  0  0  0  0
  -26.0933  -26.9442   19.4992 C   0  0  0  0  0  0
  -24.8899  -27.6799   19.5109 C   0  0  0  0  0  0
  -23.6120  -29.8072   20.1681 C   0  0  0  0  0  0
  -25.4105  -36.3117   24.0340 C   0  0  1  0  0  0
  -20.5850  -28.3640   23.1327 C   0  0  2  0  0  0
  -20.6754  -26.9391   22.5409 C   0  0  0  0  0  0
  -19.5731  -26.6388   21.5199 C   0  0  0  0  0  0
  -18.1899  -26.7910   22.1609 C   0  0  0  0  0  0
  -19.1514  -28.8824   23.2910 C   0  0  0  0  0  0
  -18.9443  -30.1441   23.8920 C   0  0  0  0  0  0
  -17.6448  -30.6581   24.0569 C   0  0  0  0  0  0
  -25.9027  -34.9482   23.5118 C   0  0  0  0  0  0
  -16.5337  -29.9079   23.6317 C   0  0  0  0  0  0
  -16.7251  -28.6501   23.0335 C   0  0  0  0  0  0
  -26.4451  -31.6586   25.0684 C   0  0  0  0  0  0
  -25.3720  -31.3665   26.1432 C   0  0  0  0  0  0
  -27.0248  -30.3041   24.5983 C   0  0  0  0  0  0
  -27.6039  -32.4273   25.7441 C   0  0  0  0  0  0
  -27.5583  -37.1824   24.8468 C   0  0  0  0  0  0
  -21.4129  -29.3009   22.3750 N   0  0  0  0  0  0
  -26.4295  -37.3799   23.9399 N   0  0  0  0  0  0
  -24.6643  -31.0771   22.0995 N   0  0  0  0  0  0
  -23.4162  -28.8198   23.3067 O   0  0  0  0  0  0
  -28.4309  -26.7485   19.9873 O   0  0  0  0  0  0
  -26.5607  -34.8938   22.4689 O   0  0  0  0  0  0
  -23.5322  -32.1411   23.7497 O   0  0  0  0  0  0
  -30.0175  -22.5617   21.8985 C   0  0  0  0  0  0
  -29.2132  -23.7116   22.1528 C   0  0  0  0  0  0
  -30.3224  -22.0512   23.1322 C   0  0  0  0  0  0
  -29.7524  -22.8297   25.5092 C   0  0  0  0  0  0
  -28.5152  -24.5997   21.1398 C   0  0  0  0  0  0
  -31.1269  -20.8397   23.5427 C   0  0  0  0  0  0
  -31.8536  -20.0862   22.4016 C   0  0  0  0  0  0
  -30.9609  -19.1685   21.5333 C   0  0  0  0  0  0
  -31.0248  -17.6566   21.8656 C   0  0  0  0  0  0
  -30.1228  -16.8465   20.9087 C   0  0  0  0  0  0
  -28.9442  -26.0859   21.1484 C   0  0  0  0  0  0
  -29.0388  -23.8978   23.4553 N   0  0  0  0  0  0
  -29.7233  -22.8952   24.0566 N   0  0  0  0  0  0
  -30.0175  -15.4130   21.2030 N   0  0  0  0  0  0
  -31.4764  -12.4128   19.0971 H   0  0  0  0  0  0
  -30.3501  -11.2820   19.7825 H   0  0  0  0  0  0
  -29.7269  -11.7992   17.4083 H   0  0  0  0  0  0
  -29.6594  -13.5052   17.7656 H   0  0  0  0  0  0
  -27.8310  -11.3145   18.8007 H   0  0  0  0  0  0
  -27.3652  -12.6525   17.7901 H   0  0  0  0  0  0
  -27.7262  -14.2537   19.5992 H   0  0  0  0  0  0
  -28.6938  -11.9080   21.3058 H   0  0  0  0  0  0
  -28.4776  -13.5245   21.8918 H   0  0  0  0  0  0
  -25.2742   -9.5721   22.4747 H   0  0  0  0  0  0
  -24.0046   -7.4647   22.7429 H   0  0  0  0  0  0
  -21.0877   -8.8742   19.8917 H   0  0  0  0  0  0
  -22.3705  -10.9651   19.6165 H   0  0  0  0  0  0
  -21.1996   -7.6149   23.9741 H   0  0  0  0  0  0
  -21.1490   -6.0509   25.9087 H   0  0  0  0  0  0
  -22.0594   -2.7626   23.2835 H   0  0  0  0  0  0
  -22.4107  -11.9941   22.4847 H   0  0  0  0  0  0
  -21.1081  -13.1240   22.2526 H   0  0  0  0  0  0
  -24.6841  -15.8544   20.5281 H   0  0  0  0  0  0
  -26.3003  -15.6143   20.0870 H   0  0  0  0  0  0
  -26.7105  -32.5573   23.1161 H   0  0  0  0  0  0
  -24.9978  -33.9770   25.0450 H   0  0  0  0  0  0
  -22.6957  -31.3060   21.4066 H   0  0  0  0  0  0
  -23.3734  -35.9687   23.3307 H   0  0  0  0  0  0
  -24.3615  -36.8936   22.2061 H   0  0  0  0  0  0
  -23.7244  -37.6548   23.6638 H   0  0  0  0  0  0
  -26.0120  -31.5935   20.5705 H   0  0  0  0  0  0
  -26.8223  -30.9205   21.9555 H   0  0  0  0  0  0
  -28.1062  -29.1327   21.1788 H   0  0  0  0  0  0
  -26.1316  -25.9869   18.9989 H   0  0  0  0  0  0
  -24.0096  -27.2751   19.0291 H   0  0  0  0  0  0
  -23.7165  -30.5764   19.4005 H   0  0  0  0  0  0
  -22.7379  -29.2186   19.8781 H   0  0  0  0  0  0
  -25.1282  -36.1994   25.0832 H   0  0  0  0  0  0
  -20.9966  -28.3186   24.1437 H   0  0  0  0  0  0
  -20.5648  -26.2253   23.3583 H   0  0  0  0  0  0
  -21.6623  -26.7431   22.1208 H   0  0  0  0  0  0
  -19.6902  -25.6312   21.1183 H   0  0  0  0  0  0
  -19.6653  -27.3258   20.6770 H   0  0  0  0  0  0
  -17.4177  -26.6667   21.4008 H   0  0  0  0  0  0
  -18.0304  -26.0052   22.9005 H   0  0  0  0  0  0
  -19.7933  -30.7240   24.2305 H   0  0  0  0  0  0
  -17.5005  -31.6270   24.5162 H   0  0  0  0  0  0
  -15.5341  -30.2992   23.7657 H   0  0  0  0  0  0
  -15.8638  -28.0850   22.7022 H   0  0  0  0  0  0
  -24.5966  -30.6906   25.7783 H   0  0  0  0  0  0
  -24.8812  -32.2804   26.4803 H   0  0  0  0  0  0
  -25.8114  -30.8929   27.0222 H   0  0  0  0  0  0
  -26.2737  -29.6805   24.1101 H   0  0  0  0  0  0
  -27.4132  -29.7252   25.4371 H   0  0  0  0  0  0
  -27.8525  -30.4381   23.9002 H   0  0  0  0  0  0
  -27.2695  -33.3611   26.1960 H   0  0  0  0  0  0
  -28.3883  -32.6738   25.0275 H   0  0  0  0  0  0
  -28.0629  -31.8393   26.5392 H   0  0  0  0  0  0
  -28.2617  -38.0116   24.7523 H   0  0  0  0  0  0
  -28.1069  -36.2646   24.6286 H   0  0  0  0  0  0
  -27.2313  -37.1477   25.8882 H   0  0  0  0  0  0
  -20.9300  -29.8748   21.6991 H   0  0  0  0  0  0
  -26.0197  -38.2883   24.1386 H   0  0  0  0  0  0
  -30.3155  -22.1566   20.9403 H   0  0  0  0  0  0
  -30.7778  -22.9421   25.8634 H   0  0  0  0  0  0
  -29.3706  -21.8669   25.8518 H   0  0  0  0  0  0
  -29.1457  -23.6252   25.9486 H   0  0  0  0  0  0
  -27.4345  -24.5383   21.2738 H   0  0  0  0  0  0
  -28.7135  -24.1990   20.1450 H   0  0  0  0  0  0
  -30.4898  -20.1403   24.0855 H   0  0  0  0  0  0
  -31.8827  -21.1660   24.2591 H   0  0  0  0  0  0
  -32.6567  -19.4826   22.8244 H   0  0  0  0  0  0
  -32.3602  -20.8176   21.7682 H   0  0  0  0  0  0
  -31.2679  -19.2986   20.4940 H   0  0  0  0  0  0
  -29.9242  -19.5073   21.5760 H   0  0  0  0  0  0
  -30.7205  -17.4957   22.9001 H   0  0  0  0  0  0
  -32.0542  -17.3009   21.7779 H   0  0  0  0  0  0
  -30.4553  -16.9884   19.8792 H   0  0  0  0  0  0
  -29.1101  -17.2507   20.9466 H   0  0  0  0  0  0
  -30.0328  -26.1420   21.0924 H   0  0  0  0  0  0
  -28.6534  -26.5858   22.0745 H   0  0  0  0  0  0
  -29.1554  -15.1109   21.6289 H   0  0  0  0  0  0
  1 25  1  0  0  0
  1 30  2  0  0  0
  1 84  1  0  0  0
  2  3  1  0  0  0
  2 25  1  0  0  0
  2 85  1  0  0  0
  2 86  1  0  0  0
  3  4  1  0  0  0
  3 87  1  0  0  0
  3 88  1  0  0  0
  4  5  1  0  0  0
  4 89  1  0  0  0
  4 90  1  0  0  0
  5  6  1  0  0  0
  5 26  1  0  0  0
  5 91  1  0  0  0
  6 25  1  0  0  0
  6 92  1  0  0  0
  6 93  1  0  0  0
  7  8  2  0  0  0
  7 26  1  0  0  0
  7 29  1  0  0  0
  8  9  1  0  0  0
  8 22  1  0  0  0
  9 10  1  0  0  0
  9 27  2  0  0  0
 10 11  2  0  0  0
 10 15  1  0  0  0
 11 12  1  0  0  0
 11 94  1  0  0  0
 12 13  2  0  0  0
 12 95  1  0  0  0
 13 14  1  0  0  0
 13 31  1  0  0  0
 14 15  2  0  0  0
 14 96  1  0  0  0
 15 97  1  0  0  0
 16 17  2  0  0  0
 16 21  1  0  0  0
 16 31  1  0  0  0
 17 18  1  0  0  0
 17 98  1  0  0  0
 18 19  2  0  0  0
 18 99  1  0  0  0
 19 20  1  0  0  0
 19 24  1  0  0  0
 20 21  2  0  0  0
 20100  1  0  0  0
 21 23  1  0  0  0
 22 28  1  0  0  0
 22 32  2  0  0  0
 26 27  1  0  0  0
 28101  1  0  0  0
 28102  1  0  0  0
 29103  1  0  0  0
 29104  1  0  0  0
 33 34  1  0  0  0
 33 66  1  0  0  0
 33 70  2  0  0  0
 34 36  1  0  0  0
 34 59  1  0  0  0
 34105  1  0  0  0
 35 44  2  0  0  0
 35 45  1  0  0  0
 35 68  1  0  0  0
 36 56  1  0  0  0
 36106  1  0  0  0
 37 39  1  0  0  0
 37 47  1  0  0  0
 37 66  1  0  0  0
 37107  1  0  0  0
 38 43  2  0  0  0
 38 46  1  0  0  0
 38 47  1  0  0  0
 39 64  1  0  0  0
 39 67  2  0  0  0
 40 52  1  0  0  0
 40 53  2  0  0  0
 40 58  1  0  0  0
 41108  1  0  0  0
 41109  1  0  0  0
 41110  1  0  0  0
 41 48  1  0  0  0
 42 43  1  0  0  0
 42 66  1  0  0  0
 42111  1  0  0  0
 42112  1  0  0  0
 43 44  1  0  0  0
 44113  1  0  0  0
 45 46  2  0  0  0
 45114  1  0  0  0
 46115  1  0  0  0
 47116  1  0  0  0
 47117  1  0  0  0
 48 56  1  0  0  0
 48 65  1  0  0  0
 48118  1  0  0  0
 49 50  1  0  0  0
 49 53  1  0  0  0
 49 64  1  0  0  0
 49119  1  0  0  0
 50 51  1  0  0  0
 50120  1  0  0  0
 50121  1  0  0  0
 51 52  1  0  0  0
 51122  1  0  0  0
 51123  1  0  0  0
 52124  1  0  0  0
 52125  1  0  0  0
 53 54  1  0  0  0
 54 55  2  0  0  0
 54126  1  0  0  0
 55 57  1  0  0  0
 55127  1  0  0  0
 56 69  2  0  0  0
 57 58  2  0  0  0
 57128  1  0  0  0
 58129  1  0  0  0
 59 60  1  0  0  0
 59 61  1  0  0  0
 59 62  1  0  0  0
 60130  1  0  0  0
 60131  1  0  0  0
 60132  1  0  0  0
 61133  1  0  0  0
 61134  1  0  0  0
 61135  1  0  0  0
 62136  1  0  0  0
 62137  1  0  0  0
 62138  1  0  0  0
 63 65  1  0  0  0
 63139  1  0  0  0
 63140  1  0  0  0
 63141  1  0  0  0
 64142  1  0  0  0
 65143  1  0  0  0
 68 81  1  0  0  0
 71 72  1  0  0  0
 71 73  2  0  0  0
 71144  1  0  0  0
 72 75  1  0  0  0
 72 82  2  0  0  0
 73 76  1  0  0  0
 73 83  1  0  0  0
 74 83  1  0  0  0
 74145  1  0  0  0
 74146  1  0  0  0
 74147  1  0  0  0
 75 81  1  0  0  0
 75148  1  0  0  0
 75149  1  0  0  0
 76 77  1  0  0  0
 76150  1  0  0  0
 76151  1  0  0  0
 77 78  1  0  0  0
 77152  1  0  0  0
 77153  1  0  0  0
 78 79  1  0  0  0
 78154  1  0  0  0
 78155  1  0  0  0
 79 80  1  0  0  0
 79156  1  0  0  0
 79157  1  0  0  0
 80 84  1  0  0  0
 80158  1  0  0  0
 80159  1  0  0  0
 81160  1  0  0  0
 81161  1  0  0  0
 82 83  1  0  0  0
 84162  1  0  0  0
M  ISO  4   1 100  68 101  81 101  84 100
M  END
> <chiral flag>
0

> <version>
0

> <s_m_source_file>
/data/baiqing/PycharmProjects/Reinvent-master-3.2/result/LINK_invent/BTK/process_docking_weight1_custom_sum_contain_oxygen_bond_distance_aromatic_linkinvent_7_9_3/rearranged_h_0037.sdf

> <i_m_source_file_index>
37

> <r_mmod_Potential_Energy-OPLS-2005>
-115.751266479492

> <r_mmod_Stretch_Energy-OPLS-2005>
34.1585578918457

> <r_mmod_Bend_Energy-OPLS-2005>
97.1513671875

> <r_mmod_Torsional_Energy-OPLS-2005>
230.356475830078

> <r_mmod_Improper_Torsional_Energy-OPLS-2005>
5.68237590789795

> <r_mmod_Van_der_Waal_Energy-OPLS-2005>
119.025260925293

> <r_mmod_Electrostatic_Energy-OPLS-2005>
-389.132720947266

> <r_mmod_Solvation_Energy-OPLS-2005>
-221.357528686523

> <b_mmod_Minimization_Converged-OPLS-2005>
0

> <r_mmod_RMS_Derivative-OPLS-2005>
4.06445837020874

$$$$
37
                    3D
 Structure written by MMmdl.
159167  0  0  1  0            999 V2000
  -30.6028  -14.7132   20.4674 C   0  0  0  0  0  0
  -30.4297  -12.4373   19.4651 C   0  0  0  0  0  0
  -29.5020  -12.5006   18.2321 C   0  0  0  0  0  0
  -28.0271  -12.3329   18.6460 C   0  0  0  0  0  0
  -27.6395  -13.2270   19.8530 C   0  0  2  0  0  0
  -28.6829  -13.1382   20.9866 C   0  0  0  0  0  0
  -25.2480  -13.8197   20.5690 C   0  0  0  0  0  0
  -24.1767  -13.0443   20.9207 C   0  0  0  0  0  0
  -24.6363  -11.6925   20.8756 C   0  0  0  0  0  0
  -23.9052  -10.4299   21.0416 C   0  0  0  0  0  0
  -24.3615   -9.4210   21.9182 C   0  0  0  0  0  0
  -23.6300   -8.2237   22.0749 C   0  0  0  0  0  0
  -22.4278   -8.0275   21.3552 C   0  0  0  0  0  0
  -21.9910   -9.0239   20.4646 C   0  0  0  0  0  0
  -22.7227  -10.2127   20.3059 C   0  0  0  0  0  0
  -21.6847   -6.0727   22.5282 C   0  0  0  0  0  0
  -21.3996   -6.5635   23.8206 C   0  0  0  0  0  0
  -21.3667   -5.6798   24.9176 C   0  0  0  0  0  0
  -21.6057   -4.3061   24.7236 C   0  0  0  0  0  0
  -21.8816   -3.8143   23.4355 C   0  0  0  0  0  0
  -21.9189   -4.6955   22.3407 C   0  0  0  0  0  0
  -22.7791  -13.5205   21.1887 C   0  0  0  0  0  0
  -22.1657   -4.2136   21.0988 F   0  0  0  0  0  0
  -21.5652   -3.4551   25.7755 F   0  0  0  0  0  0
  -29.9848  -13.4885   20.4063 N   0  0  0  0  0  0
  -26.2908  -12.9396   20.3296 N   0  0  0  0  0  0
  -25.9290  -11.6546   20.5754 N   0  0  0  0  0  0
  -22.0469  -12.8184   22.0457 N   0  0  0  0  0  0
  -25.4201  -15.1917   20.4099 N   0  0  0  0  0  0
  -31.7911  -14.8229   20.1534 O   0  0  0  0  0  0
  -21.6647   -6.8869   21.4241 O   0  0  0  0  0  0
  -22.3483  -14.5526   20.6759 O   0  0  0  0  0  0
  -24.6286  -31.8557   23.1972 C   0  0  0  0  0  0
  -25.9133  -32.4735   23.8329 C   0  0  1  0  0  0
  -27.2262  -27.2830   20.1347 C   0  0  0  0  0  0
  -25.5923  -33.8539   24.2251 N   0  0  0  0  0  0
  -23.4248  -30.4779   21.5397 C   0  0  2  0  0  0
  -24.8716  -28.9109   20.1213 C   0  0  0  0  0  0
  -22.7472  -29.4633   22.4925 C   0  0  0  0  0  0
  -18.0285  -28.1387   22.8488 C   0  0  0  0  0  0
  -24.1470  -36.7288   23.2649 C   0  0  0  0  0  0
  -25.9660  -30.7766   21.3704 C   0  0  0  0  0  0
  -26.0425  -29.3954   20.7214 C   0  0  0  0  0  0
  -27.2248  -28.5940   20.7132 C   0  0  0  0  0  0
  -26.0349  -26.8445   19.5268 C   0  0  0  0  0  0
  -24.8699  -27.6410   19.5183 C   0  0  0  0  0  0
  -23.6426  -29.7992   20.1621 C   0  0  0  0  0  0
  -25.4099  -36.3055   24.0324 C   0  0  1  0  0  0
  -20.5876  -28.3727   23.1247 C   0  0  2  0  0  0
  -20.6760  -26.9443   22.5397 C   0  0  0  0  0  0
  -19.5743  -26.6392   21.5198 C   0  0  0  0  0  0
  -18.1918  -26.7928   22.1621 C   0  0  0  0  0  0
  -19.1530  -28.8872   23.2861 C   0  0  0  0  0  0
  -18.9473  -30.1458   23.8904 C   0  0  0  0  0  0
  -17.6480  -30.6591   24.0561 C   0  0  0  0  0  0
  -25.9050  -34.9429   23.5087 C   0  0  0  0  0  0
  -16.5365  -29.9104   23.6322 C   0  0  0  0  0  0
  -16.7277  -28.6514   23.0362 C   0  0  0  0  0  0
  -26.4494  -31.6579   25.0736 C   0  0  0  0  0  0
  -25.3707  -31.3763   26.1473 C   0  0  0  0  0  0
  -27.0356  -30.2990   24.6230 C   0  0  0  0  0  0
  -27.6039  -32.4351   25.7503 C   0  0  0  0  0  0
  -27.5564  -37.1775   24.8456 C   0  0  0  0  0  0
  -21.4185  -29.3081   22.3647 N   0  0  0  0  0  0
  -26.4264  -37.3759   23.9422 N   0  0  0  0  0  0
  -24.6925  -31.0542   22.0926 N   0  0  0  0  0  0
  -23.4164  -28.8191   23.3049 O   0  0  0  0  0  0
  -28.3559  -26.4537   20.0793 O   0  0  0  0  0  0
  -26.5617  -34.8926   22.4660 O   0  0  0  0  0  0
  -23.5452  -32.1387   23.7285 O   0  0  0  0  0  0
  -30.2816  -22.7702   19.3984 C   0  0  0  0  0  0
  -28.7207  -21.1013   20.2146 C   0  0  0  0  0  0
  -29.0102  -22.4957   19.9238 C   0  0  0  0  0  0
  -31.1910  -21.7406   19.0879 C   0  0  0  0  0  0
  -29.6331  -20.0006   19.9289 C   0  0  0  0  0  0
  -30.8585  -20.3705   19.2921 C   0  0  0  0  0  0
  -32.5234  -22.1535   18.4771 C   0  0  0  0  0  0
  -31.8101  -19.3139   18.7446 C   0  0  0  0  0  0
  -27.9876  -23.7111   19.9936 C   0  0  0  0  0  0
  -29.2235  -18.4598   20.1396 C   0  0  0  0  0  0
  -30.2405  -17.3068   20.6763 C   0  0  0  0  0  0
  -28.3618  -25.1033   20.7205 C   0  0  0  0  0  0
  -29.8213  -15.8372   20.6801 N   0  0  0  0  0  0
  -31.4675  -12.5702   19.1560 H   0  0  0  0  0  0
  -30.3826  -11.4565   19.9396 H   0  0  0  0  0  0
  -29.7761  -11.7293   17.5107 H   0  0  0  0  0  0
  -29.6301  -13.4578   17.7242 H   0  0  0  0  0  0
  -27.8734  -11.2836   18.9001 H   0  0  0  0  0  0
  -27.3709  -12.5393   17.7999 H   0  0  0  0  0  0
  -27.6397  -14.2518   19.4819 H   0  0  0  0  0  0
  -28.7100  -12.1330   21.4095 H   0  0  0  0  0  0
  -28.4229  -13.8069   21.8091 H   0  0  0  0  0  0
  -25.2758   -9.5691   22.4752 H   0  0  0  0  0  0
  -24.0015   -7.4630   22.7462 H   0  0  0  0  0  0
  -21.0846   -8.8756   19.8944 H   0  0  0  0  0  0
  -22.3684  -10.9667   19.6172 H   0  0  0  0  0  0
  -21.1963   -7.6142   23.9700 H   0  0  0  0  0  0
  -21.1503   -6.0539   25.9083 H   0  0  0  0  0  0
  -22.0588   -2.7605   23.2869 H   0  0  0  0  0  0
  -22.4120  -11.9841   22.4810 H   0  0  0  0  0  0
  -21.1081  -13.1172   22.2694 H   0  0  0  0  0  0
  -24.6580  -15.8501   20.5291 H   0  0  0  0  0  0
  -26.2689  -15.6278   20.0749 H   0  0  0  0  0  0
  -26.7226  -32.5390   23.1105 H   0  0  0  0  0  0
  -25.0020  -33.9675   25.0358 H   0  0  0  0  0  0
  -22.7251  -31.3013   21.3859 H   0  0  0  0  0  0
  -23.3720  -35.9623   23.3286 H   0  0  0  0  0  0
  -24.3576  -36.8962   22.2075 H   0  0  0  0  0  0
  -23.7250  -37.6498   23.6691 H   0  0  0  0  0  0
  -26.0949  -31.5345   20.5973 H   0  0  0  0  0  0
  -26.8472  -30.8342   21.9979 H   0  0  0  0  0  0
  -28.1290  -28.9660   21.1744 H   0  0  0  0  0  0
  -26.0069  -25.8721   19.0527 H   0  0  0  0  0  0
  -23.9706  -27.2631   19.0506 H   0  0  0  0  0  0
  -23.7669  -30.5678   19.3987 H   0  0  0  0  0  0
  -22.7605  -29.2319   19.8604 H   0  0  0  0  0  0
  -25.1258  -36.1893   25.0802 H   0  0  0  0  0  0
  -20.9973  -28.3329   24.1368 H   0  0  0  0  0  0
  -20.5637  -26.2356   23.3619 H   0  0  0  0  0  0
  -21.6627  -26.7447   22.1212 H   0  0  0  0  0  0
  -19.6917  -25.6293   21.1262 H   0  0  0  0  0  0
  -19.6665  -27.3158   20.6686 H   0  0  0  0  0  0
  -17.4174  -26.6667   21.4028 H   0  0  0  0  0  0
  -18.0346  -26.0044   22.9003 H   0  0  0  0  0  0
  -19.7954  -30.7239   24.2286 H   0  0  0  0  0  0
  -17.5051  -31.6268   24.5168 H   0  0  0  0  0  0
  -15.5369  -30.3020   23.7645 H   0  0  0  0  0  0
  -15.8670  -28.0837   22.7100 H   0  0  0  0  0  0
  -24.5834  -30.7159   25.7814 H   0  0  0  0  0  0
  -24.8939  -32.2949   26.4893 H   0  0  0  0  0  0
  -25.8010  -30.8944   27.0259 H   0  0  0  0  0  0
  -26.2949  -29.6722   24.1251 H   0  0  0  0  0  0
  -27.4050  -29.7272   25.4752 H   0  0  0  0  0  0
  -27.8796  -30.4270   23.9455 H   0  0  0  0  0  0
  -27.2629  -33.3668   26.2041 H   0  0  0  0  0  0
  -28.3855  -32.6929   25.0334 H   0  0  0  0  0  0
  -28.0687  -31.8520   26.5471 H   0  0  0  0  0  0
  -28.2536  -38.0105   24.7519 H   0  0  0  0  0  0
  -28.1098  -36.2640   24.6227 H   0  0  0  0  0  0
  -27.2295  -37.1367   25.8859 H   0  0  0  0  0  0
  -20.9385  -29.8846   21.6884 H   0  0  0  0  0  0
  -26.0140  -38.2818   24.1457 H   0  0  0  0  0  0
  -30.5463  -23.7943   19.1717 H   0  0  0  0  0  0
  -27.7448  -20.8582   20.6142 H   0  0  0  0  0  0
  -32.6748  -23.2325   18.5267 H   0  0  0  0  0  0
  -32.5704  -21.8694   17.4255 H   0  0  0  0  0  0
  -33.3529  -21.6800   19.0046 H   0  0  0  0  0  0
  -32.4492  -19.6839   17.9470 H   0  0  0  0  0  0
  -31.2597  -18.4907   18.2902 H   0  0  0  0  0  0
  -32.4660  -18.9416   19.5315 H   0  0  0  0  0  0
  -27.0758  -23.3283   20.4547 H   0  0  0  0  0  0
  -27.6983  -23.9365   18.9657 H   0  0  0  0  0  0
  -28.8239  -18.1287   19.1806 H   0  0  0  0  0  0
  -28.3651  -18.4637   20.8120 H   0  0  0  0  0  0
  -30.5258  -17.5691   21.6955 H   0  0  0  0  0  0
  -31.1696  -17.3192   20.1220 H   0  0  0  0  0  0
  -29.3788  -24.9896   21.0993 H   0  0  0  0  0  0
  -27.7560  -25.1742   21.6243 H   0  0  0  0  0  0
  -28.8495  -15.6531   20.8787 H   0  0  0  0  0  0
  1 25  1  0  0  0
  1 30  2  0  0  0
  1 83  1  0  0  0
  2  3  1  0  0  0
  2 25  1  0  0  0
  2 84  1  0  0  0
  2 85  1  0  0  0
  3  4  1  0  0  0
  3 86  1  0  0  0
  3 87  1  0  0  0
  4  5  1  0  0  0
  4 88  1  0  0  0
  4 89  1  0  0  0
  5  6  1  0  0  0
  5 26  1  0  0  0
  5 90  1  0  0  0
  6 25  1  0  0  0
  6 91  1  0  0  0
  6 92  1  0  0  0
  7  8  2  0  0  0
  7 26  1  0  0  0
  7 29  1  0  0  0
  8  9  1  0  0  0
  8 22  1  0  0  0
  9 10  1  0  0  0
  9 27  2  0  0  0
 10 11  2  0  0  0
 10 15  1  0  0  0
 11 12  1  0  0  0
 11 93  1  0  0  0
 12 13  2  0  0  0
 12 94  1  0  0  0
 13 14  1  0  0  0
 13 31  1  0  0  0
 14 15  2  0  0  0
 14 95  1  0  0  0
 15 96  1  0  0  0
 16 17  2  0  0  0
 16 21  1  0  0  0
 16 31  1  0  0  0
 17 18  1  0  0  0
 17 97  1  0  0  0
 18 19  2  0  0  0
 18 98  1  0  0  0
 19 20  1  0  0  0
 19 24  1  0  0  0
 20 21  2  0  0  0
 20 99  1  0  0  0
 21 23  1  0  0  0
 22 28  1  0  0  0
 22 32  2  0  0  0
 26 27  1  0  0  0
 28100  1  0  0  0
 28101  1  0  0  0
 29102  1  0  0  0
 29103  1  0  0  0
 33 34  1  0  0  0
 33 66  1  0  0  0
 33 70  2  0  0  0
 34 36  1  0  0  0
 34 59  1  0  0  0
 34104  1  0  0  0
 35 44  2  0  0  0
 35 45  1  0  0  0
 35 68  1  0  0  0
 36 56  1  0  0  0
 36105  1  0  0  0
 37 39  1  0  0  0
 37 47  1  0  0  0
 37 66  1  0  0  0
 37106  1  0  0  0
 38 43  2  0  0  0
 38 46  1  0  0  0
 38 47  1  0  0  0
 39 64  1  0  0  0
 39 67  2  0  0  0
 40 52  1  0  0  0
 40 53  2  0  0  0
 40 58  1  0  0  0
 41107  1  0  0  0
 41108  1  0  0  0
 41109  1  0  0  0
 41 48  1  0  0  0
 42 43  1  0  0  0
 42 66  1  0  0  0
 42110  1  0  0  0
 42111  1  0  0  0
 43 44  1  0  0  0
 44112  1  0  0  0
 45 46  2  0  0  0
 45113  1  0  0  0
 46114  1  0  0  0
 47115  1  0  0  0
 47116  1  0  0  0
 48 56  1  0  0  0
 48 65  1  0  0  0
 48117  1  0  0  0
 49 50  1  0  0  0
 49 53  1  0  0  0
 49 64  1  0  0  0
 49118  1  0  0  0
 50 51  1  0  0  0
 50119  1  0  0  0
 50120  1  0  0  0
 51 52  1  0  0  0
 51121  1  0  0  0
 51122  1  0  0  0
 52123  1  0  0  0
 52124  1  0  0  0
 53 54  1  0  0  0
 54 55  2  0  0  0
 54125  1  0  0  0
 55 57  1  0  0  0
 55126  1  0  0  0
 56 69  2  0  0  0
 57 58  2  0  0  0
 57127  1  0  0  0
 58128  1  0  0  0
 59 60  1  0  0  0
 59 61  1  0  0  0
 59 62  1  0  0  0
 60129  1  0  0  0
 60130  1  0  0  0
 60131  1  0  0  0
 61132  1  0  0  0
 61133  1  0  0  0
 61134  1  0  0  0
 62135  1  0  0  0
 62136  1  0  0  0
 62137  1  0  0  0
 63 65  1  0  0  0
 63138  1  0  0  0
 63139  1  0  0  0
 63140  1  0  0  0
 64141  1  0  0  0
 65142  1  0  0  0
 68 82  1  0  0  0
 71 73  2  0  0  0
 71 74  1  0  0  0
 71143  1  0  0  0
 72 73  1  0  0  0
 72 75  2  0  0  0
 72144  1  0  0  0
 73 79  1  0  0  0
 74 76  2  0  0  0
 74 77  1  0  0  0
 75 76  1  0  0  0
 75 80  1  0  0  0
 76 78  1  0  0  0
 77145  1  0  0  0
 77146  1  0  0  0
 77147  1  0  0  0
 78148  1  0  0  0
 78149  1  0  0  0
 78150  1  0  0  0
 79 82  1  0  0  0
 79151  1  0  0  0
 79152  1  0  0  0
 80 81  1  0  0  0
 80153  1  0  0  0
 80154  1  0  0  0
 81 83  1  0  0  0
 81155  1  0  0  0
 81156  1  0  0  0
 82157  1  0  0  0
 82158  1  0  0  0
 83159  1  0  0  0
M  ISO  4   1 100  68 101  82 101  83 100
M  END
> <chiral flag>
0

> <version>
0

> <s_m_source_file>
/data/baiqing/PycharmProjects/Reinvent-master-3.2/result/LINK_invent/BTK/process_docking_weight1_custom_sum_contain_oxygen_bond_distance_aromatic_linkinvent_7_9_3/rearranged_h_0037.sdf

> <i_m_source_file_index>
38

> <r_mmod_Potential_Energy-OPLS-2005>
144.016372680664

> <r_mmod_Stretch_Energy-OPLS-2005>
118.457305908203

> <r_mmod_Bend_Energy-OPLS-2005>
171.307907104492

> <r_mmod_Torsional_Energy-OPLS-2005>
237.394515991211

> <r_mmod_Improper_Torsional_Energy-OPLS-2005>
5.95360803604126

> <r_mmod_Van_der_Waal_Energy-OPLS-2005>
144.220794677734

> <r_mmod_Electrostatic_Energy-OPLS-2005>
-391.878662109375

> <r_mmod_Solvation_Energy-OPLS-2005>
-209.603988647461

> <b_mmod_Minimization_Converged-OPLS-2005>
0

> <r_mmod_RMS_Derivative-OPLS-2005>
2.73201584815979

$$$$
38
                    3D
 Structure written by MMmdl.
171179  0  0  1  0            999 V2000
  -30.7085  -14.4298   20.6016 C   0  0  0  0  0  0
  -30.4212  -12.2906   19.4127 C   0  0  0  0  0  0
  -29.4901  -12.5064   18.2018 C   0  0  0  0  0  0
  -28.0118  -12.3692   18.6152 C   0  0  0  0  0  0
  -27.6633  -13.2005   19.8783 C   0  0  2  0  0  0
  -28.7023  -12.9563   20.9964 C   0  0  0  0  0  0
  -25.2596  -13.8149   20.5675 C   0  0  0  0  0  0
  -24.1841  -13.0439   20.9172 C   0  0  0  0  0  0
  -24.6385  -11.6899   20.8727 C   0  0  0  0  0  0
  -23.9051  -10.4289   21.0403 C   0  0  0  0  0  0
  -24.3605   -9.4211   21.9184 C   0  0  0  0  0  0
  -23.6285   -8.2243   22.0756 C   0  0  0  0  0  0
  -22.4270   -8.0274   21.3544 C   0  0  0  0  0  0
  -21.9902   -9.0247   20.4645 C   0  0  0  0  0  0
  -22.7225  -10.2130   20.3053 C   0  0  0  0  0  0
  -21.6849   -6.0733   22.5279 C   0  0  0  0  0  0
  -21.4014   -6.5640   23.8212 C   0  0  0  0  0  0
  -21.3659   -5.6793   24.9172 C   0  0  0  0  0  0
  -21.6042   -4.3053   24.7223 C   0  0  0  0  0  0
  -21.8820   -3.8149   23.4345 C   0  0  0  0  0  0
  -21.9194   -4.6965   22.3401 C   0  0  0  0  0  0
  -22.7868  -13.5244   21.1838 C   0  0  0  0  0  0
  -22.1661   -4.2151   21.0978 F   0  0  0  0  0  0
  -21.5631   -3.4540   25.7739 F   0  0  0  0  0  0
  -30.0371  -13.2589   20.4510 N   0  0  0  0  0  0
  -26.3026  -12.9305   20.3375 N   0  0  0  0  0  0
  -25.9307  -11.6470   20.5762 N   0  0  0  0  0  0
  -22.0502  -12.8233   22.0385 N   0  0  0  0  0  0
  -25.4349  -15.1862   20.4092 N   0  0  0  0  0  0
  -31.8145  -14.6418   20.0960 O   0  0  0  0  0  0
  -21.6634   -6.8873   21.4239 O   0  0  0  0  0  0
  -22.3554  -14.5554   20.6690 O   0  0  0  0  0  0
  -24.6120  -31.8694   23.2116 C   0  0  0  0  0  0
  -25.9022  -32.4827   23.8401 C   0  0  1  0  0  0
  -27.2321  -27.4527   20.0970 C   0  0  0  0  0  0
  -25.5890  -33.8625   24.2335 N   0  0  0  0  0  0
  -23.3986  -30.4934   21.5524 C   0  0  2  0  0  0
  -24.8437  -28.9623   20.1117 C   0  0  0  0  0  0
  -22.7399  -29.4668   22.5012 C   0  0  0  0  0  0
  -18.0266  -28.1363   22.8510 C   0  0  0  0  0  0
  -24.1482  -36.7313   23.2639 C   0  0  0  0  0  0
  -25.9252  -30.8407   21.3615 C   0  0  0  0  0  0
  -26.0017  -29.4788   20.7049 C   0  0  0  0  0  0
  -27.1986  -28.7316   20.6909 C   0  0  0  0  0  0
  -26.0595  -26.9466   19.4921 C   0  0  0  0  0  0
  -24.8671  -27.6955   19.5016 C   0  0  0  0  0  0
  -23.6038  -29.8256   20.1661 C   0  0  0  0  0  0
  -25.4108  -36.3120   24.0343 C   0  0  1  0  0  0
  -20.5864  -28.3647   23.1340 C   0  0  2  0  0  0
  -20.6762  -26.9385   22.5431 C   0  0  0  0  0  0
  -19.5736  -26.6378   21.5225 C   0  0  0  0  0  0
  -18.1913  -26.7910   22.1633 C   0  0  0  0  0  0
  -19.1518  -28.8820   23.2918 C   0  0  0  0  0  0
  -18.9453  -30.1430   23.8919 C   0  0  0  0  0  0
  -17.6459  -30.6574   24.0568 C   0  0  0  0  0  0
  -25.9046  -34.9480   23.5144 C   0  0  0  0  0  0
  -16.5349  -29.9082   23.6331 C   0  0  0  0  0  0
  -16.7259  -28.6497   23.0357 C   0  0  0  0  0  0
  -26.4463  -31.6600   25.0719 C   0  0  0  0  0  0
  -25.3731  -31.3684   26.1473 C   0  0  0  0  0  0
  -27.0302  -30.3052   24.6071 C   0  0  0  0  0  0
  -27.6044  -32.4319   25.7474 C   0  0  0  0  0  0
  -27.5583  -37.1807   24.8466 C   0  0  0  0  0  0
  -21.4129  -29.3019   22.3745 N   0  0  0  0  0  0
  -26.4298  -37.3806   23.9412 N   0  0  0  0  0  0
  -24.6631  -31.0815   22.1009 N   0  0  0  0  0  0
  -23.4178  -28.8219   23.3054 O   0  0  0  0  0  0
  -28.4049  -26.7319   20.1538 O   0  0  0  0  0  0
  -26.5609  -34.8925   22.4709 O   0  0  0  0  0  0
  -23.5319  -32.1441   23.7531 O   0  0  0  0  0  0
  -28.4473  -24.3661   23.7508 C   0  0  0  0  0  0
  -28.2987  -22.5260   22.1528 C   0  0  0  0  0  0
  -28.0939  -23.8895   22.4713 C   0  0  0  0  0  0
  -28.9713  -23.4882   24.7190 C   0  0  0  0  0  0
  -28.8365  -21.6404   23.1177 C   0  0  0  0  0  0
  -29.1615  -22.1292   24.4030 C   0  0  0  0  0  0
  -29.3172  -23.9957   26.1051 C   0  0  0  0  0  0
  -32.6854  -18.6408   22.3817 C   0  0  0  0  0  0
  -31.4029  -18.9134   24.4795 C   0  0  0  0  0  0
  -27.4341  -24.8452   21.4849 C   0  0  0  0  0  0
  -29.0572  -20.1646   22.7951 C   0  0  0  0  0  0
  -30.4942  -19.8662   22.3012 C   0  0  0  0  0  0
  -30.5631  -17.2980   22.7515 C   0  0  0  0  0  0
  -30.4015  -16.8175   21.2943 C   0  0  0  0  0  0
  -28.3253  -25.3060   20.3022 C   0  0  0  0  0  0
  -31.2538  -18.6769   22.9613 C   0  0  0  0  0  0
  -30.0266  -15.4006   21.2331 N   0  0  0  0  0  0
  -29.6534  -21.2931   25.3478 F   0  0  0  0  0  0
  -31.4651  -12.3915   19.1108 H   0  0  0  0  0  0
  -30.3212  -11.2735   19.7956 H   0  0  0  0  0  0
  -29.7247  -11.7899   17.4137 H   0  0  0  0  0  0
  -29.6618  -13.4965   17.7757 H   0  0  0  0  0  0
  -27.8181  -11.3126   18.8033 H   0  0  0  0  0  0
  -27.3609  -12.6528   17.7874 H   0  0  0  0  0  0
  -27.7168  -14.2517   19.5940 H   0  0  0  0  0  0
  -28.6702  -11.9144   21.3184 H   0  0  0  0  0  0
  -28.4620  -13.5383   21.8871 H   0  0  0  0  0  0
  -25.2752   -9.5689   22.4757 H   0  0  0  0  0  0
  -23.9996   -7.4637   22.7475 H   0  0  0  0  0  0
  -21.0837   -8.8758   19.8947 H   0  0  0  0  0  0
  -22.3682  -10.9667   19.6158 H   0  0  0  0  0  0
  -21.2001   -7.6149   23.9714 H   0  0  0  0  0  0
  -21.1481   -6.0524   25.9074 H   0  0  0  0  0  0
  -22.0599   -2.7613   23.2844 H   0  0  0  0  0  0
  -22.4112  -11.9887   22.4770 H   0  0  0  0  0  0
  -21.1119  -13.1257   22.2587 H   0  0  0  0  0  0
  -24.6732  -15.8464   20.5190 H   0  0  0  0  0  0
  -26.2924  -15.6218   20.0938 H   0  0  0  0  0  0
  -26.7095  -32.5552   23.1167 H   0  0  0  0  0  0
  -25.0027  -33.9799   25.0470 H   0  0  0  0  0  0
  -22.6864  -31.3096   21.4151 H   0  0  0  0  0  0
  -23.3754  -35.9635   23.3317 H   0  0  0  0  0  0
  -24.3565  -36.8924   22.2052 H   0  0  0  0  0  0
  -23.7230  -37.6516   23.6649 H   0  0  0  0  0  0
  -26.0362  -31.6091   20.5957 H   0  0  0  0  0  0
  -26.8124  -30.8916   21.9807 H   0  0  0  0  0  0
  -28.0919  -29.1213   21.1600 H   0  0  0  0  0  0
  -26.0551  -25.9768   19.0172 H   0  0  0  0  0  0
  -23.9758  -27.2932   19.0403 H   0  0  0  0  0  0
  -23.7034  -30.6010   19.4059 H   0  0  0  0  0  0
  -22.7272  -29.2435   19.8752 H   0  0  0  0  0  0
  -25.1281  -36.1996   25.0837 H   0  0  0  0  0  0
  -20.9958  -28.3211   24.1461 H   0  0  0  0  0  0
  -20.5698  -26.2247   23.3613 H   0  0  0  0  0  0
  -21.6624  -26.7445   22.1200 H   0  0  0  0  0  0
  -19.6908  -25.6299   21.1228 H   0  0  0  0  0  0
  -19.6674  -27.3213   20.6780 H   0  0  0  0  0  0
  -17.4191  -26.6690   21.4022 H   0  0  0  0  0  0
  -18.0288  -26.0027   22.9004 H   0  0  0  0  0  0
  -19.7929  -30.7238   24.2288 H   0  0  0  0  0  0
  -17.5013  -31.6258   24.5156 H   0  0  0  0  0  0
  -15.5351  -30.2987   23.7633 H   0  0  0  0  0  0
  -15.8662  -28.0820   22.7057 H   0  0  0  0  0  0
  -24.5900  -30.7042   25.7802 H   0  0  0  0  0  0
  -24.8913  -32.2824   26.4951 H   0  0  0  0  0  0
  -25.8077  -30.8826   27.0217 H   0  0  0  0  0  0
  -26.2838  -29.6808   24.1144 H   0  0  0  0  0  0
  -27.4127  -29.7294   25.4511 H   0  0  0  0  0  0
  -27.8645  -30.4398   23.9181 H   0  0  0  0  0  0
  -27.2668  -33.3614   26.2069 H   0  0  0  0  0  0
  -28.3828  -32.6896   25.0277 H   0  0  0  0  0  0
  -28.0729  -31.8428   26.5369 H   0  0  0  0  0  0
  -28.2607  -38.0098   24.7529 H   0  0  0  0  0  0
  -28.1078  -36.2640   24.6281 H   0  0  0  0  0  0
  -27.2295  -37.1447   25.8865 H   0  0  0  0  0  0
  -20.9280  -29.8738   21.6972 H   0  0  0  0  0  0
  -26.0200  -38.2892   24.1405 H   0  0  0  0  0  0
  -28.2914  -25.4069   24.0004 H   0  0  0  0  0  0
  -28.0296  -22.1569   21.1730 H   0  0  0  0  0  0
  -28.9841  -25.0237   26.2516 H   0  0  0  0  0  0
  -30.3949  -23.9579   26.2637 H   0  0  0  0  0  0
  -28.8418  -23.3765   26.8667 H   0  0  0  0  0  0
  -33.2570  -19.5220   22.6766 H   0  0  0  0  0  0
  -32.6933  -18.6202   21.2921 H   0  0  0  0  0  0
  -33.2385  -17.7679   22.7312 H   0  0  0  0  0  0
  -31.8586  -19.8813   24.6915 H   0  0  0  0  0  0
  -32.0332  -18.1526   24.9420 H   0  0  0  0  0  0
  -30.4472  -18.8805   25.0009 H   0  0  0  0  0  0
  -27.0816  -25.7087   22.0498 H   0  0  0  0  0  0
  -26.5301  -24.3744   21.0962 H   0  0  0  0  0  0
  -28.3368  -19.8464   22.0400 H   0  0  0  0  0  0
  -28.8091  -19.5817   23.6815 H   0  0  0  0  0  0
  -31.0983  -20.7625   22.4542 H   0  0  0  0  0  0
  -30.4699  -19.7430   21.2176 H   0  0  0  0  0  0
  -31.1419  -16.5469   23.2921 H   0  0  0  0  0  0
  -29.5826  -17.3030   23.2299 H   0  0  0  0  0  0
  -31.3149  -16.9898   20.7273 H   0  0  0  0  0  0
  -29.6281  -17.4022   20.7949 H   0  0  0  0  0  0
  -28.0068  -24.8353   19.3714 H   0  0  0  0  0  0
  -29.3472  -24.9621   20.4663 H   0  0  0  0  0  0
  -29.1226  -15.1443   21.6012 H   0  0  0  0  0  0
  1 25  1  0  0  0
  1 30  2  0  0  0
  1 87  1  0  0  0
  2  3  1  0  0  0
  2 25  1  0  0  0
  2 89  1  0  0  0
  2 90  1  0  0  0
  3  4  1  0  0  0
  3 91  1  0  0  0
  3 92  1  0  0  0
  4  5  1  0  0  0
  4 93  1  0  0  0
  4 94  1  0  0  0
  5  6  1  0  0  0
  5 26  1  0  0  0
  5 95  1  0  0  0
  6 25  1  0  0  0
  6 96  1  0  0  0
  6 97  1  0  0  0
  7  8  2  0  0  0
  7 26  1  0  0  0
  7 29  1  0  0  0
  8  9  1  0  0  0
  8 22  1  0  0  0
  9 10  1  0  0  0
  9 27  2  0  0  0
 10 11  2  0  0  0
 10 15  1  0  0  0
 11 12  1  0  0  0
 11 98  1  0  0  0
 12 13  2  0  0  0
 12 99  1  0  0  0
 13 14  1  0  0  0
 13 31  1  0  0  0
 14 15  2  0  0  0
 14100  1  0  0  0
 15101  1  0  0  0
 16 17  2  0  0  0
 16 21  1  0  0  0
 16 31  1  0  0  0
 17 18  1  0  0  0
 17102  1  0  0  0
 18 19  2  0  0  0
 18103  1  0  0  0
 19 20  1  0  0  0
 19 24  1  0  0  0
 20 21  2  0  0  0
 20104  1  0  0  0
 21 23  1  0  0  0
 22 28  1  0  0  0
 22 32  2  0  0  0
 26 27  1  0  0  0
 28105  1  0  0  0
 28106  1  0  0  0
 29107  1  0  0  0
 29108  1  0  0  0
 33 34  1  0  0  0
 33 66  1  0  0  0
 33 70  2  0  0  0
 34 36  1  0  0  0
 34 59  1  0  0  0
 34109  1  0  0  0
 35 44  2  0  0  0
 35 45  1  0  0  0
 35 68  1  0  0  0
 36 56  1  0  0  0
 36110  1  0  0  0
 37 39  1  0  0  0
 37 47  1  0  0  0
 37 66  1  0  0  0
 37111  1  0  0  0
 38 43  2  0  0  0
 38 46  1  0  0  0
 38 47  1  0  0  0
 39 64  1  0  0  0
 39 67  2  0  0  0
 40 52  1  0  0  0
 40 53  2  0  0  0
 40 58  1  0  0  0
 41112  1  0  0  0
 41113  1  0  0  0
 41114  1  0  0  0
 41 48  1  0  0  0
 42 43  1  0  0  0
 42 66  1  0  0  0
 42115  1  0  0  0
 42116  1  0  0  0
 43 44  1  0  0  0
 44117  1  0  0  0
 45 46  2  0  0  0
 45118  1  0  0  0
 46119  1  0  0  0
 47120  1  0  0  0
 47121  1  0  0  0
 48 56  1  0  0  0
 48 65  1  0  0  0
 48122  1  0  0  0
 49 50  1  0  0  0
 49 53  1  0  0  0
 49 64  1  0  0  0
 49123  1  0  0  0
 50 51  1  0  0  0
 50124  1  0  0  0
 50125  1  0  0  0
 51 52  1  0  0  0
 51126  1  0  0  0
 51127  1  0  0  0
 52128  1  0  0  0
 52129  1  0  0  0
 53 54  1  0  0  0
 54 55  2  0  0  0
 54130  1  0  0  0
 55 57  1  0  0  0
 55131  1  0  0  0
 56 69  2  0  0  0
 57 58  2  0  0  0
 57132  1  0  0  0
 58133  1  0  0  0
 59 60  1  0  0  0
 59 61  1  0  0  0
 59 62  1  0  0  0
 60134  1  0  0  0
 60135  1  0  0  0
 60136  1  0  0  0
 61137  1  0  0  0
 61138  1  0  0  0
 61139  1  0  0  0
 62140  1  0  0  0
 62141  1  0  0  0
 62142  1  0  0  0
 63 65  1  0  0  0
 63143  1  0  0  0
 63144  1  0  0  0
 63145  1  0  0  0
 64146  1  0  0  0
 65147  1  0  0  0
 68 85  1  0  0  0
 71 73  2  0  0  0
 71 74  1  0  0  0
 71148  1  0  0  0
 72 73  1  0  0  0
 72 75  2  0  0  0
 72149  1  0  0  0
 73 80  1  0  0  0
 74 76  2  0  0  0
 74 77  1  0  0  0
 75 76  1  0  0  0
 75 81  1  0  0  0
 76 88  1  0  0  0
 77150  1  0  0  0
 77151  1  0  0  0
 77152  1  0  0  0
 78153  1  0  0  0
 78154  1  0  0  0
 78155  1  0  0  0
 78 86  1  0  0  0
 79 86  1  0  0  0
 79156  1  0  0  0
 79157  1  0  0  0
 79158  1  0  0  0
 80 85  1  0  0  0
 80159  1  0  0  0
 80160  1  0  0  0
 81 82  1  0  0  0
 81161  1  0  0  0
 81162  1  0  0  0
 82 86  1  0  0  0
 82163  1  0  0  0
 82164  1  0  0  0
 83 84  1  0  0  0
 83 86  1  0  0  0
 83165  1  0  0  0
 83166  1  0  0  0
 84 87  1  0  0  0
 84167  1  0  0  0
 84168  1  0  0  0
 85169  1  0  0  0
 85170  1  0  0  0
 87171  1  0  0  0
M  ISO  4   1 100  68 101  85 101  87 100
M  END
> <chiral flag>
0

> <version>
0

> <s_m_source_file>
/data/baiqing/PycharmProjects/Reinvent-master-3.2/result/LINK_invent/BTK/process_docking_weight1_custom_sum_contain_oxygen_bond_distance_aromatic_linkinvent_7_9_3/rearranged_h_0037.sdf

> <i_m_source_file_index>
39

> <r_mmod_Potential_Energy-OPLS-2005>
-16.9671077728271

> <r_mmod_Stretch_Energy-OPLS-2005>
36.1571846008301

> <r_mmod_Bend_Energy-OPLS-2005>
102.394828796387

> <r_mmod_Torsional_Energy-OPLS-2005>
233.36003112793

> <r_mmod_Improper_Torsional_Energy-OPLS-2005>
3.19983911514282

> <r_mmod_Van_der_Waal_Energy-OPLS-2005>
157.691696166992

> <r_mmod_Electrostatic_Energy-OPLS-2005>
-368.769683837891

> <r_mmod_Solvation_Energy-OPLS-2005>
-191.593017578125

> <b_mmod_Minimization_Converged-OPLS-2005>
0

> <r_mmod_RMS_Derivative-OPLS-2005>
1.30924820899963

$$$$
39
                    3D
 Structure written by MMmdl.
177185  0  0  1  0            999 V2000
  -30.7874  -14.3562   20.6636 C   0  0  0  0  0  0
  -30.4080  -12.2752   19.4003 C   0  0  0  0  0  0
  -29.4827  -12.5174   18.1949 C   0  0  0  0  0  0
  -28.0084  -12.3754   18.6148 C   0  0  0  0  0  0
  -27.6665  -13.2060   19.8803 C   0  0  2  0  0  0
  -28.7054  -12.9646   20.9995 C   0  0  0  0  0  0
  -25.2616  -13.8182   20.5701 C   0  0  0  0  0  0
  -24.1855  -13.0454   20.9187 C   0  0  0  0  0  0
  -24.6398  -11.6922   20.8749 C   0  0  0  0  0  0
  -23.9068  -10.4301   21.0410 C   0  0  0  0  0  0
  -24.3612   -9.4223   21.9190 C   0  0  0  0  0  0
  -23.6292   -8.2258   22.0758 C   0  0  0  0  0  0
  -22.4277   -8.0291   21.3548 C   0  0  0  0  0  0
  -21.9915   -9.0263   20.4652 C   0  0  0  0  0  0
  -22.7239  -10.2149   20.3062 C   0  0  0  0  0  0
  -21.6854   -6.0744   22.5281 C   0  0  0  0  0  0
  -21.4015   -6.5644   23.8217 C   0  0  0  0  0  0
  -21.3666   -5.6795   24.9181 C   0  0  0  0  0  0
  -21.6039   -4.3054   24.7224 C   0  0  0  0  0  0
  -21.8821   -3.8154   23.4342 C   0  0  0  0  0  0
  -21.9188   -4.6972   22.3400 C   0  0  0  0  0  0
  -22.7888  -13.5267   21.1856 C   0  0  0  0  0  0
  -22.1658   -4.2153   21.0978 F   0  0  0  0  0  0
  -21.5632   -3.4538   25.7739 F   0  0  0  0  0  0
  -30.0510  -13.2338   20.4568 N   0  0  0  0  0  0
  -26.3049  -12.9342   20.3396 N   0  0  0  0  0  0
  -25.9323  -11.6497   20.5769 N   0  0  0  0  0  0
  -22.0518  -12.8253   22.0400 N   0  0  0  0  0  0
  -25.4360  -15.1883   20.4092 N   0  0  0  0  0  0
  -31.8121  -14.6192   20.0280 O   0  0  0  0  0  0
  -21.6641   -6.8887   21.4239 O   0  0  0  0  0  0
  -22.3569  -14.5564   20.6694 O   0  0  0  0  0  0
  -24.6109  -31.8709   23.2120 C   0  0  0  0  0  0
  -25.9011  -32.4847   23.8412 C   0  0  1  0  0  0
  -27.2379  -27.4530   20.0979 C   0  0  0  0  0  0
  -25.5878  -33.8636   24.2355 N   0  0  0  0  0  0
  -23.3983  -30.4919   21.5518 C   0  0  2  0  0  0
  -24.8462  -28.9562   20.1187 C   0  0  0  0  0  0
  -22.7402  -29.4648   22.4996 C   0  0  0  0  0  0
  -18.0277  -28.1340   22.8488 C   0  0  0  0  0  0
  -24.1499  -36.7332   23.2638 C   0  0  0  0  0  0
  -25.9233  -30.8427   21.3603 C   0  0  0  0  0  0
  -26.0032  -29.4766   20.7105 C   0  0  0  0  0  0
  -27.2014  -28.7306   20.6962 C   0  0  0  0  0  0
  -26.0629  -26.9401   19.5026 C   0  0  0  0  0  0
  -24.8695  -27.6875   19.5122 C   0  0  0  0  0  0
  -23.6081  -29.8219   20.1670 C   0  0  0  0  0  0
  -25.4116  -36.3127   24.0334 C   0  0  1  0  0  0
  -20.5860  -28.3633   23.1330 C   0  0  2  0  0  0
  -20.6771  -26.9371   22.5417 C   0  0  0  0  0  0
  -19.5749  -26.6360   21.5204 C   0  0  0  0  0  0
  -18.1928  -26.7894   22.1611 C   0  0  0  0  0  0
  -19.1515  -28.8797   23.2922 C   0  0  0  0  0  0
  -18.9448  -30.1401   23.8939 C   0  0  0  0  0  0
  -17.6452  -30.6564   24.0536 C   0  0  0  0  0  0
  -25.9012  -34.9486   23.5139 C   0  0  0  0  0  0
  -16.5341  -29.9064   23.6292 C   0  0  0  0  0  0
  -16.7265  -28.6461   23.0348 C   0  0  0  0  0  0
  -26.4466  -31.6606   25.0716 C   0  0  0  0  0  0
  -25.3760  -31.3647   26.1482 C   0  0  0  0  0  0
  -27.0292  -30.3068   24.6020 C   0  0  0  0  0  0
  -27.6057  -32.4310   25.7477 C   0  0  0  0  0  0
  -27.5600  -37.1828   24.8464 C   0  0  0  0  0  0
  -21.4126  -29.3022   22.3756 N   0  0  0  0  0  0
  -26.4323  -37.3795   23.9380 N   0  0  0  0  0  0
  -24.6619  -31.0826   22.1012 N   0  0  0  0  0  0
  -23.4196  -28.8173   23.3005 O   0  0  0  0  0  0
  -28.4345  -26.7723   20.0910 O   0  0  0  0  0  0
  -26.5584  -34.8927   22.4710 O   0  0  0  0  0  0
  -23.5308  -32.1435   23.7527 O   0  0  0  0  0  0
  -29.0255  -20.0306   22.5533 C   0  0  0  0  0  0
  -27.9392  -19.7260   24.7147 C   0  0  0  0  0  0
  -28.1900  -17.8312   23.2039 C   0  0  0  0  0  0
  -28.5833  -20.5679   23.7812 C   0  0  0  0  0  0
  -28.8322  -18.6625   22.2642 C   0  0  0  0  0  0
  -27.7561  -18.3540   24.4383 C   0  0  0  0  0  0
  -25.1743  -16.4285   24.2351 C   0  0  0  0  0  0
  -25.0683  -16.7418   26.7445 C   0  0  0  0  0  0
  -28.8847  -22.0155   24.1521 C   0  0  0  0  0  0
  -29.3576  -18.0697   20.9683 C   0  0  0  0  0  0
  -27.1621  -17.4297   25.4919 C   0  0  0  0  0  0
  -28.0045  -23.0826   23.4653 C   0  0  0  0  0  0
  -30.8126  -17.5776   21.0884 C   0  0  0  0  0  0
  -28.4868  -23.5203   22.0687 C   0  0  0  0  0  0
  -28.0306  -24.9472   21.6908 C   0  0  0  0  0  0
  -31.0352  -16.3947   22.0586 C   0  0  0  0  0  0
  -28.4265  -25.3517   20.2570 C   0  0  0  0  0  0
  -25.6280  -17.2943   25.4229 C   0  0  0  0  0  0
  -30.3553  -15.1689   21.6338 N   0  0  0  0  0  0
  -31.4534  -12.3537   19.0970 H   0  0  0  0  0  0
  -30.2873  -11.2567   19.7732 H   0  0  0  0  0  0
  -29.7125  -11.8124   17.3954 H   0  0  0  0  0  0
  -29.6581  -13.5141   17.7859 H   0  0  0  0  0  0
  -27.8184  -11.3182   18.8039 H   0  0  0  0  0  0
  -27.3525  -12.6592   17.7906 H   0  0  0  0  0  0
  -27.7227  -14.2581   19.5984 H   0  0  0  0  0  0
  -28.6585  -11.9301   21.3443 H   0  0  0  0  0  0
  -28.4577  -13.5692   21.8725 H   0  0  0  0  0  0
  -25.2758   -9.5702   22.4772 H   0  0  0  0  0  0
  -24.0001   -7.4654   22.7480 H   0  0  0  0  0  0
  -21.0851   -8.8788   19.8957 H   0  0  0  0  0  0
  -22.3697  -10.9691   19.6176 H   0  0  0  0  0  0
  -21.2014   -7.6153   23.9724 H   0  0  0  0  0  0
  -21.1485   -6.0525   25.9084 H   0  0  0  0  0  0
  -22.0593   -2.7614   23.2842 H   0  0  0  0  0  0
  -22.4125  -11.9901   22.4782 H   0  0  0  0  0  0
  -21.1144  -13.1290   22.2607 H   0  0  0  0  0  0
  -24.6780  -15.8498   20.5334 H   0  0  0  0  0  0
  -26.2976  -15.6248   20.1073 H   0  0  0  0  0  0
  -26.7088  -32.5575   23.1185 H   0  0  0  0  0  0
  -25.0062  -33.9795   25.0530 H   0  0  0  0  0  0
  -22.6846  -31.3069   21.4128 H   0  0  0  0  0  0
  -23.3755  -35.9675   23.3297 H   0  0  0  0  0  0
  -24.3605  -36.8942   22.2056 H   0  0  0  0  0  0
  -23.7256  -37.6536   23.6663 H   0  0  0  0  0  0
  -26.0308  -31.6096   20.5922 H   0  0  0  0  0  0
  -26.8140  -30.9016   21.9751 H   0  0  0  0  0  0
  -28.0986  -29.1273   21.1525 H   0  0  0  0  0  0
  -26.0581  -25.9772   19.0152 H   0  0  0  0  0  0
  -23.9786  -27.2841   19.0484 H   0  0  0  0  0  0
  -23.7168  -30.5973   19.4079 H   0  0  0  0  0  0
  -22.7331  -29.2413   19.8718 H   0  0  0  0  0  0
  -25.1299  -36.2015   25.0829 H   0  0  0  0  0  0
  -20.9951  -28.3205   24.1448 H   0  0  0  0  0  0
  -20.5663  -26.2237   23.3599 H   0  0  0  0  0  0
  -21.6655  -26.7420   22.1222 H   0  0  0  0  0  0
  -19.6914  -25.6279   21.1222 H   0  0  0  0  0  0
  -19.6696  -27.3177   20.6743 H   0  0  0  0  0  0
  -17.4207  -26.6644   21.4009 H   0  0  0  0  0  0
  -18.0312  -26.0023   22.8989 H   0  0  0  0  0  0
  -19.7927  -30.7181   24.2366 H   0  0  0  0  0  0
  -17.5014  -31.6252   24.5129 H   0  0  0  0  0  0
  -15.5343  -30.2983   23.7573 H   0  0  0  0  0  0
  -15.8668  -28.0777   22.7068 H   0  0  0  0  0  0
  -24.5944  -30.6987   25.7803 H   0  0  0  0  0  0
  -24.8941  -32.2770   26.5006 H   0  0  0  0  0  0
  -25.8150  -30.8773   27.0197 H   0  0  0  0  0  0
  -26.2799  -29.6823   24.1144 H   0  0  0  0  0  0
  -27.4171  -29.7296   25.4423 H   0  0  0  0  0  0
  -27.8590  -30.4405   23.9071 H   0  0  0  0  0  0
  -27.2698  -33.3596   26.2102 H   0  0  0  0  0  0
  -28.3854  -32.6886   25.0296 H   0  0  0  0  0  0
  -28.0756  -31.8405   26.5351 H   0  0  0  0  0  0
  -28.2622  -38.0132   24.7525 H   0  0  0  0  0  0
  -28.1098  -36.2656   24.6296 H   0  0  0  0  0  0
  -27.2310  -37.1472   25.8870 H   0  0  0  0  0  0
  -20.9269  -29.8796   21.7041 H   0  0  0  0  0  0
  -26.0219  -38.2878   24.1375 H   0  0  0  0  0  0
  -29.5413  -20.6617   21.8425 H   0  0  0  0  0  0
  -27.6224  -20.1255   25.6690 H   0  0  0  0  0  0
  -28.0614  -16.7789   22.9887 H   0  0  0  0  0  0
  -24.0868  -16.3726   24.1756 H   0  0  0  0  0  0
  -25.5546  -15.4087   24.3145 H   0  0  0  0  0  0
  -25.5265  -16.8378   23.2886 H   0  0  0  0  0  0
  -23.9799  -16.6934   26.7268 H   0  0  0  0  0  0
  -25.3480  -17.3733   27.5881 H   0  0  0  0  0  0
  -25.4395  -15.7373   26.9521 H   0  0  0  0  0  0
  -29.9408  -22.2196   23.9724 H   0  0  0  0  0  0
  -28.7606  -22.1143   25.2315 H   0  0  0  0  0  0
  -29.2991  -18.8286   20.1871 H   0  0  0  0  0  0
  -28.7063  -17.2569   20.6416 H   0  0  0  0  0  0
  -27.4533  -17.8204   26.4676 H   0  0  0  0  0  0
  -27.6316  -16.4465   25.4205 H   0  0  0  0  0  0
  -28.0250  -23.9612   24.1118 H   0  0  0  0  0  0
  -26.9609  -22.7644   23.4379 H   0  0  0  0  0  0
  -31.4426  -18.4115   21.4018 H   0  0  0  0  0  0
  -31.1729  -17.3010   20.0970 H   0  0  0  0  0  0
  -28.1409  -22.8036   21.3225 H   0  0  0  0  0  0
  -29.5770  -23.4962   22.0366 H   0  0  0  0  0  0
  -28.4797  -25.6537   22.3917 H   0  0  0  0  0  0
  -26.9529  -25.0453   21.8147 H   0  0  0  0  0  0
  -30.7050  -16.6534   23.0646 H   0  0  0  0  0  0
  -32.1061  -16.1968   22.1465 H   0  0  0  0  0  0
  -27.8123  -24.8383   19.5181 H   0  0  0  0  0  0
  -29.4476  -25.0217   20.0661 H   0  0  0  0  0  0
  -25.2074  -18.2931   25.2979 H   0  0  0  0  0  0
  -29.5314  -14.8829   22.1412 H   0  0  0  0  0  0
  1 25  1  0  0  0
  1 30  2  0  0  0
  1 89  1  0  0  0
  2  3  1  0  0  0
  2 25  1  0  0  0
  2 90  1  0  0  0
  2 91  1  0  0  0
  3  4  1  0  0  0
  3 92  1  0  0  0
  3 93  1  0  0  0
  4  5  1  0  0  0
  4 94  1  0  0  0
  4 95  1  0  0  0
  5  6  1  0  0  0
  5 26  1  0  0  0
  5 96  1  0  0  0
  6 25  1  0  0  0
  6 97  1  0  0  0
  6 98  1  0  0  0
  7  8  2  0  0  0
  7 26  1  0  0  0
  7 29  1  0  0  0
  8  9  1  0  0  0
  8 22  1  0  0  0
  9 10  1  0  0  0
  9 27  2  0  0  0
 10 11  2  0  0  0
 10 15  1  0  0  0
 11 12  1  0  0  0
 11 99  1  0  0  0
 12 13  2  0  0  0
 12100  1  0  0  0
 13 14  1  0  0  0
 13 31  1  0  0  0
 14 15  2  0  0  0
 14101  1  0  0  0
 15102  1  0  0  0
 16 17  2  0  0  0
 16 21  1  0  0  0
 16 31  1  0  0  0
 17 18  1  0  0  0
 17103  1  0  0  0
 18 19  2  0  0  0
 18104  1  0  0  0
 19 20  1  0  0  0
 19 24  1  0  0  0
 20 21  2  0  0  0
 20105  1  0  0  0
 21 23  1  0  0  0
 22 28  1  0  0  0
 22 32  2  0  0  0
 26 27  1  0  0  0
 28106  1  0  0  0
 28107  1  0  0  0
 29108  1  0  0  0
 29109  1  0  0  0
 33 34  1  0  0  0
 33 66  1  0  0  0
 33 70  2  0  0  0
 34 36  1  0  0  0
 34 59  1  0  0  0
 34110  1  0  0  0
 35 44  2  0  0  0
 35 45  1  0  0  0
 35 68  1  0  0  0
 36 56  1  0  0  0
 36111  1  0  0  0
 37 39  1  0  0  0
 37 47  1  0  0  0
 37 66  1  0  0  0
 37112  1  0  0  0
 38 43  2  0  0  0
 38 46  1  0  0  0
 38 47  1  0  0  0
 39 64  1  0  0  0
 39 67  2  0  0  0
 40 52  1  0  0  0
 40 53  2  0  0  0
 40 58  1  0  0  0
 41113  1  0  0  0
 41114  1  0  0  0
 41115  1  0  0  0
 41 48  1  0  0  0
 42 43  1  0  0  0
 42 66  1  0  0  0
 42116  1  0  0  0
 42117  1  0  0  0
 43 44  1  0  0  0
 44118  1  0  0  0
 45 46  2  0  0  0
 45119  1  0  0  0
 46120  1  0  0  0
 47121  1  0  0  0
 47122  1  0  0  0
 48 56  1  0  0  0
 48 65  1  0  0  0
 48123  1  0  0  0
 49 50  1  0  0  0
 49 53  1  0  0  0
 49 64  1  0  0  0
 49124  1  0  0  0
 50 51  1  0  0  0
 50125  1  0  0  0
 50126  1  0  0  0
 51 52  1  0  0  0
 51127  1  0  0  0
 51128  1  0  0  0
 52129  1  0  0  0
 52130  1  0  0  0
 53 54  1  0  0  0
 54 55  2  0  0  0
 54131  1  0  0  0
 55 57  1  0  0  0
 55132  1  0  0  0
 56 69  2  0  0  0
 57 58  2  0  0  0
 57133  1  0  0  0
 58134  1  0  0  0
 59 60  1  0  0  0
 59 61  1  0  0  0
 59 62  1  0  0  0
 60135  1  0  0  0
 60136  1  0  0  0
 60137  1  0  0  0
 61138  1  0  0  0
 61139  1  0  0  0
 61140  1  0  0  0
 62141  1  0  0  0
 62142  1  0  0  0
 62143  1  0  0  0
 63 65  1  0  0  0
 63144  1  0  0  0
 63145  1  0  0  0
 63146  1  0  0  0
 64147  1  0  0  0
 65148  1  0  0  0
 68 87  1  0  0  0
 71 74  2  0  0  0
 71 75  1  0  0  0
 71149  1  0  0  0
 72 74  1  0  0  0
 72 76  2  0  0  0
 72150  1  0  0  0
 73 75  2  0  0  0
 73 76  1  0  0  0
 73151  1  0  0  0
 74 79  1  0  0  0
 75 80  1  0  0  0
 76 81  1  0  0  0
 77152  1  0  0  0
 77153  1  0  0  0
 77154  1  0  0  0
 77 88  1  0  0  0
 78 88  1  0  0  0
 78155  1  0  0  0
 78156  1  0  0  0
 78157  1  0  0  0
 79 82  1  0  0  0
 79158  1  0  0  0
 79159  1  0  0  0
 80 83  1  0  0  0
 80160  1  0  0  0
 80161  1  0  0  0
 81 88  1  0  0  0
 81162  1  0  0  0
 81163  1  0  0  0
 82 84  1  0  0  0
 82164  1  0  0  0
 82165  1  0  0  0
 83 86  1  0  0  0
 83166  1  0  0  0
 83167  1  0  0  0
 84 85  1  0  0  0
 84168  1  0  0  0
 84169  1  0  0  0
 85 87  1  0  0  0
 85170  1  0  0  0
 85171  1  0  0  0
 86 89  1  0  0  0
 86172  1  0  0  0
 86173  1  0  0  0
 87174  1  0  0  0
 87175  1  0  0  0
 88176  1  0  0  0
 89177  1  0  0  0
M  ISO  4   1 100  68 101  87 101  89 100
M  END
> <chiral flag>
0

> <version>
0

> <s_m_source_file>
/data/baiqing/PycharmProjects/Reinvent-master-3.2/result/LINK_invent/BTK/process_docking_weight1_custom_sum_contain_oxygen_bond_distance_aromatic_linkinvent_7_9_3/rearranged_h_0037.sdf

> <i_m_source_file_index>
40

> <r_mmod_Potential_Energy-OPLS-2005>
-66.2339477539062

> <r_mmod_Stretch_Energy-OPLS-2005>
33.6842002868652

> <r_mmod_Bend_Energy-OPLS-2005>
97.5084075927734

> <r_mmod_Torsional_Energy-OPLS-2005>
213.251434326172

> <r_mmod_Improper_Torsional_Energy-OPLS-2005>
2.11083817481995

> <r_mmod_Van_der_Waal_Energy-OPLS-2005>
136.673858642578

> <r_mmod_Electrostatic_Energy-OPLS-2005>
-367.020782470703

> <r_mmod_Solvation_Energy-OPLS-2005>
-190.05778503418

> <b_mmod_Minimization_Converged-OPLS-2005>
0

> <r_mmod_RMS_Derivative-OPLS-2005>
2.26699113845825

$$$$
40
                    3D
 Structure written by MMmdl.
177185  0  0  1  0            999 V2000
  -30.2096  -15.3255   20.0144 C   0  0  0  0  0  0
  -30.4213  -12.7969   19.4722 C   0  0  0  0  0  0
  -29.5092  -12.4949   18.2617 C   0  0  0  0  0  0
  -28.0637  -12.2237   18.7193 C   0  0  0  0  0  0
  -27.5869  -13.2412   19.7849 C   0  0  2  0  0  0
  -28.6285  -13.4562   20.8915 C   0  0  0  0  0  0
  -25.2386  -13.8225   20.5740 C   0  0  0  0  0  0
  -24.1672  -13.0393   20.9281 C   0  0  0  0  0  0
  -24.6281  -11.6903   20.8806 C   0  0  0  0  0  0
  -23.8977  -10.4244   21.0420 C   0  0  0  0  0  0
  -24.3572   -9.4184   21.9196 C   0  0  0  0  0  0
  -23.6267   -8.2216   22.0746 C   0  0  0  0  0  0
  -22.4250   -8.0242   21.3538 C   0  0  0  0  0  0
  -21.9875   -9.0208   20.4648 C   0  0  0  0  0  0
  -22.7163  -10.2090   20.3068 C   0  0  0  0  0  0
  -21.6855   -6.0708   22.5282 C   0  0  0  0  0  0
  -21.4012   -6.5633   23.8197 C   0  0  0  0  0  0
  -21.3647   -5.6784   24.9181 C   0  0  0  0  0  0
  -21.6053   -4.3055   24.7227 C   0  0  0  0  0  0
  -21.8820   -3.8127   23.4365 C   0  0  0  0  0  0
  -21.9190   -4.6948   22.3403 C   0  0  0  0  0  0
  -22.7740  -13.5197   21.1935 C   0  0  0  0  0  0
  -22.1667   -4.2130   21.0995 F   0  0  0  0  0  0
  -21.5621   -3.4543   25.7751 F   0  0  0  0  0  0
  -29.8223  -13.9643   20.2053 N   0  0  0  0  0  0
  -26.2680  -12.9362   20.3130 N   0  0  0  0  0  0
  -25.9194  -11.6507   20.5745 N   0  0  0  0  0  0
  -22.0402  -12.8135   22.0523 N   0  0  0  0  0  0
  -25.4084  -15.1898   20.4207 N   0  0  0  0  0  0
  -31.4476  -15.3971   19.8825 O   0  0  0  0  0  0
  -21.6634   -6.8844   21.4214 O   0  0  0  0  0  0
  -22.3425  -14.5475   20.6797 O   0  0  0  0  0  0
  -25.1418  -31.9403   22.6843 C   0  0  0  0  0  0
  -26.3123  -32.4686   23.6500 C   0  0  1  0  0  0
  -26.5235  -28.0198   21.7909 C   0  0  0  0  0  0
  -25.9990  -33.8468   24.1862 N   0  0  0  0  0  0
  -23.9347  -29.4056   21.2698 C   0  0  2  0  0  0
  -25.3308  -28.5740   19.7859 C   0  0  0  0  0  0
  -22.8142  -28.3795   22.0508 C   0  0  0  0  0  0
  -17.9866  -28.1412   22.7880 C   0  0  0  0  0  0
  -24.2402  -36.6450   23.2651 C   0  0  0  0  0  0
  -26.0128  -30.9295   20.6994 C   0  0  0  0  0  0
  -26.3123  -29.5053   20.2874 C   0  0  0  0  0  0
  -27.2881  -28.8983   21.0524 C   0  0  0  0  0  0
  -26.1826  -26.8751   21.0121 C   0  0  0  0  0  0
  -25.5134  -27.1925   19.8843 C   0  0  0  0  0  0
  -23.9301  -28.7296   19.9914 C   0  0  0  0  0  0
  -25.4993  -36.2656   24.0513 C   0  0  1  0  0  0
  -20.5547  -28.1123   23.1098 C   0  0  2  0  0  0
  -20.4153  -26.6348   22.7397 C   0  0  0  0  0  0
  -19.4466  -26.4661   21.5721 C   0  0  0  0  0  0
  -18.0538  -26.7985   22.0895 C   0  0  0  0  0  0
  -19.1620  -28.8047   23.2325 C   0  0  0  0  0  0
  -19.0129  -30.0677   23.8527 C   0  0  0  0  0  0
  -17.7339  -30.6389   24.0482 C   0  0  0  0  0  0
  -26.0476  -34.9590   23.4556 C   0  0  0  0  0  0
  -16.5807  -29.9511   23.6298 C   0  0  0  0  0  0
  -16.7136  -28.7015   23.0056 C   0  0  0  0  0  0
  -26.6544  -31.7069   25.0186 C   0  0  0  0  0  0
  -25.5437  -31.6099   26.1216 C   0  0  0  0  0  0
  -27.2358  -30.3287   24.7080 C   0  0  0  0  0  0
  -27.8189  -32.4416   25.7440 C   0  0  0  0  0  0
  -27.5936  -37.2192   24.8933 C   0  0  0  0  0  0
  -21.4663  -28.6060   22.0981 N   0  0  0  0  0  0
  -26.4566  -37.3899   23.9947 N   0  0  0  0  0  0
  -24.9481  -30.8651   21.6371 N   0  0  0  0  0  0
  -23.2618  -27.5659   22.8474 O   0  0  0  0  0  0
  -25.7344  -28.6272   22.9224 O   0  0  0  0  0  0
  -26.5434  -34.9495   22.3325 O   0  0  0  0  0  0
  -24.2632  -32.6350   23.1388 O   0  0  0  0  0  0
  -21.9056  -32.0421   23.3489 C   0  0  0  0  0  0
  -21.7755  -33.1384   22.3274 C   0  0  0  0  0  0
  -22.2643  -32.9457   20.9164 C   0  0  0  0  0  0
  -22.6429  -30.8374   22.9448 C   0  0  0  0  0  0
  -22.5744  -31.6276   20.3924 C   0  0  0  0  0  0
  -21.1269  -34.4369   22.7520 C   0  0  0  0  0  0
  -22.4445  -34.0931   19.9344 C   0  0  0  0  0  0
  -23.0819  -30.9685   18.6962 C   0  0  0  0  0  0
  -24.2314  -29.6991   23.7008 C   0  0  0  0  0  0
  -29.1677  -16.7921   19.8604 C   0  0  0  0  0  0
  -24.3571  -29.8298   17.6827 C   0  0  0  0  0  0
  -29.1099  -18.4169   18.9657 C   0  0  0  0  0  0
  -24.7641  -27.9434   17.2552 C   0  0  0  0  0  0
  -28.1753  -20.0242   19.1315 C   0  0  0  0  0  0
  -26.1095  -26.5719   17.3516 C   0  0  0  0  0  0
  -27.7343  -21.5003   18.0732 C   0  0  0  0  0  0
  -26.2039  -24.6929   17.5750 C   0  0  0  0  0  0
  -27.4118  -23.3654   18.1532 C   0  0  0  0  0  0
  -22.0742  -30.9525   21.5600 N   0  0  0  0  0  0
  -31.4276  -13.0126   19.1199 H   0  0  0  0  0  0
  -30.5200  -11.9216   20.1155 H   0  0  0  0  0  0
  -29.8823  -11.6380   17.7017 H   0  0  0  0  0  0
  -29.5166  -13.3385   17.5733 H   0  0  0  0  0  0
  -28.0422  -11.2225   19.1507 H   0  0  0  0  0  0
  -27.3763  -12.2001   17.8702 H   0  0  0  0  0  0
  -27.4824  -14.1815   19.2443 H   0  0  0  0  0  0
  -28.8204  -12.5413   21.4586 H   0  0  0  0  0  0
  -28.2806  -14.2027   21.6088 H   0  0  0  0  0  0
  -25.2712   -9.5691   22.4786 H   0  0  0  0  0  0
  -23.9990   -7.4610   22.7464 H   0  0  0  0  0  0
  -21.0825   -8.8702   19.8974 H   0  0  0  0  0  0
  -22.3599  -10.9634   19.6208 H   0  0  0  0  0  0
  -21.2006   -7.6147   23.9701 H   0  0  0  0  0  0
  -21.1474   -6.0535   25.9079 H   0  0  0  0  0  0
  -22.0609   -2.7597   23.2873 H   0  0  0  0  0  0
  -22.4073  -11.9795   22.4827 H   0  0  0  0  0  0
  -21.1044  -13.1165   22.2815 H   0  0  0  0  0  0
  -24.6506  -15.8484   20.5546 H   0  0  0  0  0  0
  -26.2651  -15.6276   20.1076 H   0  0  0  0  0  0
  -27.1980  -32.5617   23.0268 H   0  0  0  0  0  0
  -25.6704  -33.9206   25.1390 H   0  0  0  0  0  0
  -23.3061  -29.6418   20.5579 H   0  0  0  0  0  0
  -23.7147  -35.7316   22.9949 H   0  0  0  0  0  0
  -24.4854  -37.1758   22.3406 H   0  0  0  0  0  0
  -23.5529  -37.2562   23.8462 H   0  0  0  0  0  0
  -25.6651  -31.5287   19.8455 H   0  0  0  0  0  0
  -26.9317  -31.3913   21.0838 H   0  0  0  0  0  0
  -27.9053  -29.5189   21.6857 H   0  0  0  0  0  0
  -25.9591  -25.9419   21.5089 H   0  0  0  0  0  0
  -24.8839  -26.3731   19.5269 H   0  0  0  0  0  0
  -23.1637  -28.6498   19.1689 H   0  0  0  0  0  0
  -23.4674  -27.7279   20.0843 H   0  0  0  0  0  0
  -25.2205  -36.0796   25.0930 H   0  0  0  0  0  0
  -21.0365  -28.2126   24.0863 H   0  0  0  0  0  0
  -20.0205  -26.1046   23.6116 H   0  0  0  0  0  0
  -21.3480  -26.1146   22.5204 H   0  0  0  0  0  0
  -19.4709  -25.4363   21.2078 H   0  0  0  0  0  0
  -19.7141  -27.1033   20.7240 H   0  0  0  0  0  0
  -17.3412  -26.7800   21.2677 H   0  0  0  0  0  0
  -17.7323  -26.0394   22.7999 H   0  0  0  0  0  0
  -19.8779  -30.5982   24.2203 H   0  0  0  0  0  0
  -17.6401  -31.5948   24.5387 H   0  0  0  0  0  0
  -15.6015  -30.3865   23.7796 H   0  0  0  0  0  0
  -15.8267  -28.1707   22.6920 H   0  0  0  0  0  0
  -24.6344  -32.1426   25.8338 H   0  0  0  0  0  0
  -25.8712  -32.0859   27.0511 H   0  0  0  0  0  0
  -25.2984  -30.5827   26.4056 H   0  0  0  0  0  0
  -26.5564  -29.5242   24.9591 H   0  0  0  0  0  0
  -28.0913  -30.1077   25.3456 H   0  0  0  0  0  0
  -27.6011  -30.2609   23.6807 H   0  0  0  0  0  0
  -27.5752  -33.4280   26.1406 H   0  0  0  0  0  0
  -28.7067  -32.5666   25.1186 H   0  0  0  0  0  0
  -28.1280  -31.8840   26.6284 H   0  0  0  0  0  0
  -28.2145  -38.1153   24.8949 H   0  0  0  0  0  0
  -28.2214  -36.3752   24.6101 H   0  0  0  0  0  0
  -27.2621  -37.0772   25.9203 H   0  0  0  0  0  0
  -21.2256  -29.5044   21.6630 H   0  0  0  0  0  0
  -25.9963  -38.2648   24.2328 H   0  0  0  0  0  0
  -21.8213  -32.3161   24.3861 H   0  0  0  0  0  0
  -20.8830  -34.4234   23.8136 H   0  0  0  0  0  0
  -20.2072  -34.5695   22.1736 H   0  0  0  0  0  0
  -21.7887  -35.2785   22.5990 H   0  0  0  0  0  0
  -23.4545  -34.0448   19.5260 H   0  0  0  0  0  0
  -22.3057  -35.1132   20.2993 H   0  0  0  0  0  0
  -21.7640  -33.9440   19.0992 H   0  0  0  0  0  0
  -23.2148  -31.9485   18.2267 H   0  0  0  0  0  0
  -22.1430  -30.6811   18.2153 H   0  0  0  0  0  0
  -23.7754  -29.0734   24.4747 H   0  0  0  0  0  0
  -24.6072  -30.3291   24.4498 H   0  0  0  0  0  0
  -28.2252  -16.3326   19.5646 H   0  0  0  0  0  0
  -29.0141  -17.0495   20.9074 H   0  0  0  0  0  0
  -25.3428  -30.2630   17.8554 H   0  0  0  0  0  0
  -24.1825  -30.2087   16.6670 H   0  0  0  0  0  0
  -28.9147  -18.1122   17.9357 H   0  0  0  0  0  0
  -30.1552  -18.7286   18.9302 H   0  0  0  0  0  0
  -23.8836  -27.3530   17.5016 H   0  0  0  0  0  0
  -24.7238  -27.9739   16.1697 H   0  0  0  0  0  0
  -28.5981  -20.4453   20.0466 H   0  0  0  0  0  0
  -27.1959  -19.6697   19.4613 H   0  0  0  0  0  0
  -26.9217  -26.9419   17.9811 H   0  0  0  0  0  0
  -26.6169  -26.6852   16.3890 H   0  0  0  0  0  0
  -27.0092  -21.1033   17.3598 H   0  0  0  0  0  0
  -28.6440  -21.5047   17.4706 H   0  0  0  0  0  0
  -25.9955  -24.3630   16.5520 H   0  0  0  0  0  0
  -25.2966  -24.4716   18.1376 H   0  0  0  0  0  0
  -28.2698  -23.6651   17.5386 H   0  0  0  0  0  0
  -27.7062  -23.6866   19.1525 H   0  0  0  0  0  0
  1 25  1  0  0  0
  1 30  2  0  0  0
  1 80  1  0  0  0
  2  3  1  0  0  0
  2 25  1  0  0  0
  2 90  1  0  0  0
  2 91  1  0  0  0
  3  4  1  0  0  0
  3 92  1  0  0  0
  3 93  1  0  0  0
  4  5  1  0  0  0
  4 94  1  0  0  0
  4 95  1  0  0  0
  5  6  1  0  0  0
  5 26  1  0  0  0
  5 96  1  0  0  0
  6 25  1  0  0  0
  6 97  1  0  0  0
  6 98  1  0  0  0
  7  8  2  0  0  0
  7 26  1  0  0  0
  7 29  1  0  0  0
  8  9  1  0  0  0
  8 22  1  0  0  0
  9 10  1  0  0  0
  9 27  2  0  0  0
 10 11  2  0  0  0
 10 15  1  0  0  0
 11 12  1  0  0  0
 11 99  1  0  0  0
 12 13  2  0  0  0
 12100  1  0  0  0
 13 14  1  0  0  0
 13 31  1  0  0  0
 14 15  2  0  0  0
 14101  1  0  0  0
 15102  1  0  0  0
 16 17  2  0  0  0
 16 21  1  0  0  0
 16 31  1  0  0  0
 17 18  1  0  0  0
 17103  1  0  0  0
 18 19  2  0  0  0
 18104  1  0  0  0
 19 20  1  0  0  0
 19 24  1  0  0  0
 20 21  2  0  0  0
 20105  1  0  0  0
 21 23  1  0  0  0
 22 28  1  0  0  0
 22 32  2  0  0  0
 26 27  1  0  0  0
 28106  1  0  0  0
 28107  1  0  0  0
 29108  1  0  0  0
 29109  1  0  0  0
 33 34  1  0  0  0
 33 66  1  0  0  0
 33 70  2  0  0  0
 34 36  1  0  0  0
 34 59  1  0  0  0
 34110  1  0  0  0
 35 44  2  0  0  0
 35 45  1  0  0  0
 35 68  1  0  0  0
 36 56  1  0  0  0
 36111  1  0  0  0
 37 39  1  0  0  0
 37 47  1  0  0  0
 37 66  1  0  0  0
 37112  1  0  0  0
 38 43  2  0  0  0
 38 46  1  0  0  0
 38 47  1  0  0  0
 39 64  1  0  0  0
 39 67  2  0  0  0
 40 52  1  0  0  0
 40 53  2  0  0  0
 40 58  1  0  0  0
 41113  1  0  0  0
 41114  1  0  0  0
 41115  1  0  0  0
 41 48  1  0  0  0
 42 43  1  0  0  0
 42 66  1  0  0  0
 42116  1  0  0  0
 42117  1  0  0  0
 43 44  1  0  0  0
 44118  1  0  0  0
 45 46  2  0  0  0
 45119  1  0  0  0
 46120  1  0  0  0
 47121  1  0  0  0
 47122  1  0  0  0
 48 56  1  0  0  0
 48 65  1  0  0  0
 48123  1  0  0  0
 49 50  1  0  0  0
 49 53  1  0  0  0
 49 64  1  0  0  0
 49124  1  0  0  0
 50 51  1  0  0  0
 50125  1  0  0  0
 50126  1  0  0  0
 51 52  1  0  0  0
 51127  1  0  0  0
 51128  1  0  0  0
 52129  1  0  0  0
 52130  1  0  0  0
 53 54  1  0  0  0
 54 55  2  0  0  0
 54131  1  0  0  0
 55 57  1  0  0  0
 55132  1  0  0  0
 56 69  2  0  0  0
 57 58  2  0  0  0
 57133  1  0  0  0
 58134  1  0  0  0
 59 60  1  0  0  0
 59 61  1  0  0  0
 59 62  1  0  0  0
 60135  1  0  0  0
 60136  1  0  0  0
 60137  1  0  0  0
 61138  1  0  0  0
 61139  1  0  0  0
 61140  1  0  0  0
 62141  1  0  0  0
 62142  1  0  0  0
 62143  1  0  0  0
 63 65  1  0  0  0
 63144  1  0  0  0
 63145  1  0  0  0
 63146  1  0  0  0
 64147  1  0  0  0
 65148  1  0  0  0
 68 79  1  0  0  0
 71 72  2  0  0  0
 71 74  1  0  0  0
 71149  1  0  0  0
 72 73  1  0  0  0
 72 76  1  0  0  0
 73 75  2  0  0  0
 73 77  1  0  0  0
 74 79  1  0  0  0
 74 89  2  0  0  0
 75 78  1  0  0  0
 75 89  1  0  0  0
 76150  1  0  0  0
 76151  1  0  0  0
 76152  1  0  0  0
 77153  1  0  0  0
 77154  1  0  0  0
 77155  1  0  0  0
 78 81  1  0  0  0
 78156  1  0  0  0
 78157  1  0  0  0
 79158  1  0  0  0
 79159  1  0  0  0
 80 82  1  0  0  0
 80160  1  0  0  0
 80161  1  0  0  0
 81 83  1  0  0  0
 81162  1  0  0  0
 81163  1  0  0  0
 82 84  1  0  0  0
 82164  1  0  0  0
 82165  1  0  0  0
 83 85  1  0  0  0
 83166  1  0  0  0
 83167  1  0  0  0
 84 86  1  0  0  0
 84168  1  0  0  0
 84169  1  0  0  0
 85 87  1  0  0  0
 85170  1  0  0  0
 85171  1  0  0  0
 86 88  1  0  0  0
 86172  1  0  0  0
 86173  1  0  0  0
 87 88  1  0  0  0
 87174  1  0  0  0
 87175  1  0  0  0
 88176  1  0  0  0
 88177  1  0  0  0
M  ISO  4   1 100  68 101  79 101  80 100
M  END
> <chiral flag>
0

> <version>
0

> <s_m_source_file>
/data/baiqing/PycharmProjects/Reinvent-master-3.2/result/LINK_invent/BTK/process_docking_weight1_custom_sum_contain_oxygen_bond_distance_aromatic_linkinvent_7_9_3/rearranged_h_0037.sdf

> <i_m_source_file_index>
41

> <r_mmod_Potential_Energy-OPLS-2005>
11231.4267578125

> <r_mmod_Stretch_Energy-OPLS-2005>
3262.9716796875

> <r_mmod_Bend_Energy-OPLS-2005>
2131.79296875

> <r_mmod_Torsional_Energy-OPLS-2005>
811.639282226562

> <r_mmod_Improper_Torsional_Energy-OPLS-2005>
60.4516944885254

> <r_mmod_Van_der_Waal_Energy-OPLS-2005>
1539.83984375

> <r_mmod_Electrostatic_Energy-OPLS-2005>
-469.251800537109

> <r_mmod_Solvation_Energy-OPLS-2005>
-171.770431518555

> <b_mmod_Minimization_Converged-OPLS-2005>
0

> <r_mmod_RMS_Derivative-OPLS-2005>
20.3003368377686

$$$$
41
                    3D
 Structure written by MMmdl.
169177  0  0  1  0            999 V2000
  -30.6894  -14.6293   20.5103 C   0  0  0  0  0  0
  -30.4294  -12.3925   19.4516 C   0  0  0  0  0  0
  -29.5094  -12.5151   18.2192 C   0  0  0  0  0  0
  -28.0300  -12.3668   18.6232 C   0  0  0  0  0  0
  -27.6564  -13.2353   19.8572 C   0  0  2  0  0  0
  -28.7032  -13.1126   20.9877 C   0  0  0  0  0  0
  -25.2587  -13.8216   20.5628 C   0  0  0  0  0  0
  -24.1847  -13.0446   20.9093 C   0  0  0  0  0  0
  -24.6448  -11.6943   20.8681 C   0  0  0  0  0  0
  -23.9121  -10.4322   21.0409 C   0  0  0  0  0  0
  -24.3653   -9.4231   21.9192 C   0  0  0  0  0  0
  -23.6330   -8.2257   22.0768 C   0  0  0  0  0  0
  -22.4324   -8.0288   21.3540 C   0  0  0  0  0  0
  -21.9946   -9.0266   20.4656 C   0  0  0  0  0  0
  -22.7279  -10.2156   20.3075 C   0  0  0  0  0  0
  -21.6872   -6.0757   22.5272 C   0  0  0  0  0  0
  -21.4028   -6.5647   23.8203 C   0  0  0  0  0  0
  -21.3648   -5.6795   24.9146 C   0  0  0  0  0  0
  -21.6043   -4.3054   24.7205 C   0  0  0  0  0  0
  -21.8815   -3.8152   23.4319 C   0  0  0  0  0  0
  -21.9205   -4.6986   22.3391 C   0  0  0  0  0  0
  -22.7876  -13.5258   21.1735 C   0  0  0  0  0  0
  -22.1670   -4.2176   21.0971 F   0  0  0  0  0  0
  -21.5619   -3.4528   25.7713 F   0  0  0  0  0  0
  -30.0239  -13.4307   20.4224 N   0  0  0  0  0  0
  -26.3031  -12.9435   20.3279 N   0  0  0  0  0  0
  -25.9389  -11.6566   20.5691 N   0  0  0  0  0  0
  -22.0508  -12.8277   22.0317 N   0  0  0  0  0  0
  -25.4320  -15.1924   20.4083 N   0  0  0  0  0  0
  -31.8304  -14.7344   20.0532 O   0  0  0  0  0  0
  -21.6661   -6.8900   21.4239 O   0  0  0  0  0  0
  -22.3555  -14.5539   20.6567 O   0  0  0  0  0  0
  -24.6289  -31.8602   23.2027 C   0  0  0  0  0  0
  -25.9144  -32.4786   23.8344 C   0  0  1  0  0  0
  -27.2443  -27.3387   20.1072 C   0  0  0  0  0  0
  -25.5975  -33.8581   24.2291 N   0  0  0  0  0  0
  -23.4251  -30.4841   21.5402 C   0  0  2  0  0  0
  -24.8768  -28.9461   20.1022 C   0  0  0  0  0  0
  -22.7515  -29.4630   22.4888 C   0  0  0  0  0  0
  -18.0298  -28.1427   22.8507 C   0  0  0  0  0  0
  -24.1466  -36.7270   23.2639 C   0  0  0  0  0  0
  -25.9635  -30.7983   21.3703 C   0  0  0  0  0  0
  -26.0419  -29.4252   20.7156 C   0  0  0  0  0  0
  -27.2251  -28.6331   20.7101 C   0  0  0  0  0  0
  -26.0546  -26.9122   19.4649 C   0  0  0  0  0  0
  -24.8882  -27.6986   19.4618 C   0  0  0  0  0  0
  -23.6423  -29.8207   20.1525 C   0  0  0  0  0  0
  -25.4093  -36.3082   24.0341 C   0  0  1  0  0  0
  -20.5910  -28.3720   23.1290 C   0  0  2  0  0  0
  -20.6780  -26.9436   22.5433 C   0  0  0  0  0  0
  -19.5733  -26.6429   21.5247 C   0  0  0  0  0  0
  -18.1922  -26.7978   22.1659 C   0  0  0  0  0  0
  -19.1554  -28.8891   23.2904 C   0  0  0  0  0  0
  -18.9459  -30.1485   23.8933 C   0  0  0  0  0  0
  -17.6455  -30.6620   24.0575 C   0  0  0  0  0  0
  -25.9044  -34.9458   23.5100 C   0  0  0  0  0  0
  -16.5347  -29.9125   23.6325 C   0  0  0  0  0  0
  -16.7289  -28.6547   23.0348 C   0  0  0  0  0  0
  -26.4533  -31.6597   25.0704 C   0  0  0  0  0  0
  -25.3770  -31.3723   26.1422 C   0  0  0  0  0  0
  -27.0383  -30.3035   24.6153 C   0  0  0  0  0  0
  -27.6114  -32.4317   25.7478 C   0  0  0  0  0  0
  -27.5557  -37.1795   24.8473 C   0  0  0  0  0  0
  -21.4225  -29.3082   22.3687 N   0  0  0  0  0  0
  -26.4262  -37.3794   23.9431 N   0  0  0  0  0  0
  -24.6918  -31.0610   22.0978 N   0  0  0  0  0  0
  -23.4235  -28.8133   23.2943 O   0  0  0  0  0  0
  -28.3735  -26.5073   20.1632 O   0  0  0  0  0  0
  -26.5573  -34.8944   22.4638 O   0  0  0  0  0  0
  -23.5455  -32.1393   23.7367 O   0  0  0  0  0  0
  -30.9217  -22.5245   24.9946 C   0  0  0  0  0  0
  -32.0169  -22.1837   23.9700 C   0  0  0  0  0  0
  -29.6229  -21.7370   24.7471 C   0  0  0  0  0  0
  -31.4989  -22.3157   22.5252 C   0  0  0  0  0  0
  -29.1184  -21.8945   23.2983 C   0  0  0  0  0  0
  -30.2253  -21.4695   22.3080 C   0  0  0  0  0  0
  -30.0560  -15.9467   21.1068 C   0  0  0  0  0  0
  -30.1526  -17.3040   20.2702 C   0  0  0  0  0  0
  -30.0354  -18.6715   21.0736 C   0  0  0  0  0  0
  -29.2675  -24.0259   20.4740 C   0  0  0  0  0  0
  -29.4696  -19.9856   20.3479 C   0  0  0  0  0  0
  -28.8658  -22.4826   20.3698 C   0  0  0  0  0  0
  -28.1826  -25.0594   19.9461 C   0  0  0  0  0  0
  -29.8233  -21.3915   20.8601 N   0  3  1  0  0  0
  -31.4733  -12.4818   19.1491 H   0  0  0  0  0  0
  -30.3394  -11.4024   19.9012 H   0  0  0  0  0  0
  -29.7687  -11.7569   17.4795 H   0  0  0  0  0  0
  -29.6634  -13.4813   17.7331 H   0  0  0  0  0  0
  -27.8405  -11.3129   18.8294 H   0  0  0  0  0  0
  -27.3896  -12.6221   17.7782 H   0  0  0  0  0  0
  -27.6700  -14.2707   19.5148 H   0  0  0  0  0  0
  -28.7066  -12.1008   21.3952 H   0  0  0  0  0  0
  -28.4481  -13.7671   21.8216 H   0  0  0  0  0  0
  -25.2813   -9.5676   22.4751 H   0  0  0  0  0  0
  -24.0021   -7.4662   22.7519 H   0  0  0  0  0  0
  -21.0847   -8.8780   19.8998 H   0  0  0  0  0  0
  -22.3730  -10.9670   19.6160 H   0  0  0  0  0  0
  -21.2026   -7.6167   23.9704 H   0  0  0  0  0  0
  -21.1479   -6.0524   25.9045 H   0  0  0  0  0  0
  -22.0624   -2.7633   23.2800 H   0  0  0  0  0  0
  -22.4110  -11.9987   22.4781 H   0  0  0  0  0  0
  -21.1120  -13.1315   22.2488 H   0  0  0  0  0  0
  -24.6708  -15.8533   20.5243 H   0  0  0  0  0  0
  -26.3003  -15.6334   20.1272 H   0  0  0  0  0  0
  -26.7228  -32.5468   23.1112 H   0  0  0  0  0  0
  -25.0250  -33.9714   25.0527 H   0  0  0  0  0  0
  -22.7222  -31.3066   21.3949 H   0  0  0  0  0  0
  -23.3745  -35.9581   23.3309 H   0  0  0  0  0  0
  -24.3561  -36.8881   22.2057 H   0  0  0  0  0  0
  -23.7225  -37.6492   23.6621 H   0  0  0  0  0  0
  -26.0801  -31.5602   20.5962 H   0  0  0  0  0  0
  -26.8523  -30.8607   21.9868 H   0  0  0  0  0  0
  -28.1187  -28.9927   21.2015 H   0  0  0  0  0  0
  -25.9938  -25.9588   18.9614 H   0  0  0  0  0  0
  -24.0069  -27.3368   18.9504 H   0  0  0  0  0  0
  -23.7646  -30.5985   19.3988 H   0  0  0  0  0  0
  -22.7653  -29.2494   19.8411 H   0  0  0  0  0  0
  -25.1274  -36.1927   25.0840 H   0  0  0  0  0  0
  -21.0005  -28.3291   24.1404 H   0  0  0  0  0  0
  -20.5725  -26.2316   23.3637 H   0  0  0  0  0  0
  -21.6630  -26.7501   22.1170 H   0  0  0  0  0  0
  -19.6868  -25.6346   21.1260 H   0  0  0  0  0  0
  -19.6640  -27.3260   20.6779 H   0  0  0  0  0  0
  -17.4191  -26.6767   21.4062 H   0  0  0  0  0  0
  -18.0264  -26.0136   22.9056 H   0  0  0  0  0  0
  -19.7924  -30.7301   24.2330 H   0  0  0  0  0  0
  -17.5001  -31.6291   24.5183 H   0  0  0  0  0  0
  -15.5346  -30.3019   23.7646 H   0  0  0  0  0  0
  -15.8692  -28.0877   22.7021 H   0  0  0  0  0  0
  -24.5950  -30.7074   25.7730 H   0  0  0  0  0  0
  -24.8936  -32.2879   26.4838 H   0  0  0  0  0  0
  -25.8098  -30.8915   27.0205 H   0  0  0  0  0  0
  -26.2953  -29.6772   24.1206 H   0  0  0  0  0  0
  -27.4142  -29.7305   25.4643 H   0  0  0  0  0  0
  -27.8779  -30.4341   23.9323 H   0  0  0  0  0  0
  -27.2764  -33.3630   26.2051 H   0  0  0  0  0  0
  -28.3935  -32.6876   25.0308 H   0  0  0  0  0  0
  -28.0762  -31.8447   26.5414 H   0  0  0  0  0  0
  -28.2599  -38.0072   24.7525 H   0  0  0  0  0  0
  -28.1038  -36.2621   24.6272 H   0  0  0  0  0  0
  -27.2277  -37.1419   25.8878 H   0  0  0  0  0  0
  -20.9407  -29.8801   21.6892 H   0  0  0  0  0  0
  -26.0136  -38.2863   24.1474 H   0  0  0  0  0  0
  -30.7114  -23.5929   24.9492 H   0  0  0  0  0  0
  -31.2933  -22.3275   26.0025 H   0  0  0  0  0  0
  -32.3881  -21.1717   24.1421 H   0  0  0  0  0  0
  -32.8700  -22.8462   24.1173 H   0  0  0  0  0  0
  -28.8535  -22.0591   25.4495 H   0  0  0  0  0  0
  -29.8006  -20.6813   24.9559 H   0  0  0  0  0  0
  -32.2849  -22.0129   21.8324 H   0  0  0  0  0  0
  -31.3047  -23.3675   22.3260 H   0  0  0  0  0  0
  -28.8278  -22.9316   23.1423 H   0  0  0  0  0  0
  -28.2272  -21.2855   23.1503 H   0  0  0  0  0  0
  -30.5178  -20.4853   22.6487 H   0  0  0  0  0  0
  -29.0108  -15.7997   21.3587 H   0  0  0  0  0  0
  -30.5751  -16.0951   22.0536 H   0  0  0  0  0  0
  -31.0991  -17.3257   19.7267 H   0  0  0  0  0  0
  -29.3867  -17.2854   19.4952 H   0  0  0  0  0  0
  -31.0393  -18.8532   21.4549 H   0  0  0  0  0  0
  -29.4047  -18.4961   21.9474 H   0  0  0  0  0  0
  -29.4613  -24.2862   21.5115 H   0  0  0  0  0  0
  -30.2068  -24.1826   19.9440 H   0  0  0  0  0  0
  -28.3810  -19.9030   20.3328 H   0  0  0  0  0  0
  -29.7754  -19.9527   19.3021 H   0  0  0  0  0  0
  -28.6555  -22.2731   19.3185 H   0  0  0  0  0  0
  -27.9118  -22.3483   20.8785 H   0  0  0  0  0  0
  -27.2413  -24.7647   20.4109 H   0  0  0  0  0  0
  -28.0472  -24.8974   18.8747 H   0  0  0  0  0  0
  -30.6879  -21.5647   20.3668 H   0  0  0  0  0  0
  1 25  1  0  0  0
  1 30  2  0  0  0
  1 77  1  0  0  0
  2  3  1  0  0  0
  2 25  1  0  0  0
  2 85  1  0  0  0
  2 86  1  0  0  0
  3  4  1  0  0  0
  3 87  1  0  0  0
  3 88  1  0  0  0
  4  5  1  0  0  0
  4 89  1  0  0  0
  4 90  1  0  0  0
  5  6  1  0  0  0
  5 26  1  0  0  0
  5 91  1  0  0  0
  6 25  1  0  0  0
  6 92  1  0  0  0
  6 93  1  0  0  0
  7  8  2  0  0  0
  7 26  1  0  0  0
  7 29  1  0  0  0
  8  9  1  0  0  0
  8 22  1  0  0  0
  9 10  1  0  0  0
  9 27  2  0  0  0
 10 11  2  0  0  0
 10 15  1  0  0  0
 11 12  1  0  0  0
 11 94  1  0  0  0
 12 13  2  0  0  0
 12 95  1  0  0  0
 13 14  1  0  0  0
 13 31  1  0  0  0
 14 15  2  0  0  0
 14 96  1  0  0  0
 15 97  1  0  0  0
 16 17  2  0  0  0
 16 21  1  0  0  0
 16 31  1  0  0  0
 17 18  1  0  0  0
 17 98  1  0  0  0
 18 19  2  0  0  0
 18 99  1  0  0  0
 19 20  1  0  0  0
 19 24  1  0  0  0
 20 21  2  0  0  0
 20100  1  0  0  0
 21 23  1  0  0  0
 22 28  1  0  0  0
 22 32  2  0  0  0
 26 27  1  0  0  0
 28101  1  0  0  0
 28102  1  0  0  0
 29103  1  0  0  0
 29104  1  0  0  0
 33 34  1  0  0  0
 33 66  1  0  0  0
 33 70  2  0  0  0
 34 36  1  0  0  0
 34 59  1  0  0  0
 34105  1  0  0  0
 35 44  2  0  0  0
 35 45  1  0  0  0
 35 68  1  0  0  0
 36 56  1  0  0  0
 36106  1  0  0  0
 37 39  1  0  0  0
 37 47  1  0  0  0
 37 66  1  0  0  0
 37107  1  0  0  0
 38 43  2  0  0  0
 38 46  1  0  0  0
 38 47  1  0  0  0
 39 64  1  0  0  0
 39 67  2  0  0  0
 40 52  1  0  0  0
 40 53  2  0  0  0
 40 58  1  0  0  0
 41108  1  0  0  0
 41109  1  0  0  0
 41110  1  0  0  0
 41 48  1  0  0  0
 42 43  1  0  0  0
 42 66  1  0  0  0
 42111  1  0  0  0
 42112  1  0  0  0
 43 44  1  0  0  0
 44113  1  0  0  0
 45 46  2  0  0  0
 45114  1  0  0  0
 46115  1  0  0  0
 47116  1  0  0  0
 47117  1  0  0  0
 48 56  1  0  0  0
 48 65  1  0  0  0
 48118  1  0  0  0
 49 50  1  0  0  0
 49 53  1  0  0  0
 49 64  1  0  0  0
 49119  1  0  0  0
 50 51  1  0  0  0
 50120  1  0  0  0
 50121  1  0  0  0
 51 52  1  0  0  0
 51122  1  0  0  0
 51123  1  0  0  0
 52124  1  0  0  0
 52125  1  0  0  0
 53 54  1  0  0  0
 54 55  2  0  0  0
 54126  1  0  0  0
 55 57  1  0  0  0
 55127  1  0  0  0
 56 69  2  0  0  0
 57 58  2  0  0  0
 57128  1  0  0  0
 58129  1  0  0  0
 59 60  1  0  0  0
 59 61  1  0  0  0
 59 62  1  0  0  0
 60130  1  0  0  0
 60131  1  0  0  0
 60132  1  0  0  0
 61133  1  0  0  0
 61134  1  0  0  0
 61135  1  0  0  0
 62136  1  0  0  0
 62137  1  0  0  0
 62138  1  0  0  0
 63 65  1  0  0  0
 63139  1  0  0  0
 63140  1  0  0  0
 63141  1  0  0  0
 64142  1  0  0  0
 65143  1  0  0  0
 68 83  1  0  0  0
 71 72  1  0  0  0
 71 73  1  0  0  0
 71144  1  0  0  0
 71145  1  0  0  0
 72 74  1  0  0  0
 72146  1  0  0  0
 72147  1  0  0  0
 73 75  1  0  0  0
 73148  1  0  0  0
 73149  1  0  0  0
 74150  1  0  0  0
 74151  1  0  0  0
 74 76  1  0  0  0
 75 76  1  0  0  0
 75152  1  0  0  0
 75153  1  0  0  0
 76 84  1  0  0  0
 76154  1  0  0  0
 77 78  1  0  0  0
 77155  1  0  0  0
 77156  1  0  0  0
 78 79  1  0  0  0
 78157  1  0  0  0
 78158  1  0  0  0
 79 81  1  0  0  0
 79159  1  0  0  0
 79160  1  0  0  0
 80 82  1  0  0  0
 80 83  1  0  0  0
 80161  1  0  0  0
 80162  1  0  0  0
 81163  1  0  0  0
 81164  1  0  0  0
 81 84  1  0  0  0
 82 84  1  0  0  0
 82165  1  0  0  0
 82166  1  0  0  0
 83167  1  0  0  0
 83168  1  0  0  0
 84169  1  0  0  0
M  CHG  1  84   1
M  ISO  4   1 100  68 101  77 100  83 101
M  END
> <chiral flag>
0

> <version>
0

> <s_m_source_file>
/data/baiqing/PycharmProjects/Reinvent-master-3.2/result/LINK_invent/BTK/process_docking_weight1_custom_sum_contain_oxygen_bond_distance_aromatic_linkinvent_7_9_3/rearranged_h_0037.sdf

> <i_m_source_file_index>
42

> <r_mmod_Potential_Energy-OPLS-2005>
70.3092803955078

> <r_mmod_Stretch_Energy-OPLS-2005>
88.9055023193359

> <r_mmod_Bend_Energy-OPLS-2005>
159.346176147461

> <r_mmod_Torsional_Energy-OPLS-2005>
223.065277099609

> <r_mmod_Improper_Torsional_Energy-OPLS-2005>
1.90221798419952

> <r_mmod_Van_der_Waal_Energy-OPLS-2005>
136.221038818359

> <r_mmod_Electrostatic_Energy-OPLS-2005>
-161.880584716797

> <r_mmod_Solvation_Energy-OPLS-2005>
-420.462585449219

> <b_mmod_Minimization_Converged-OPLS-2005>
0

> <r_mmod_RMS_Derivative-OPLS-2005>
4.67364549636841

$$$$
42
                    3D
 Structure written by MMmdl.
159167  0  0  1  0            999 V2000
  -30.7363  -14.4673   20.5458 C   0  0  0  0  0  0
  -30.4143  -12.2941   19.4403 C   0  0  0  0  0  0
  -29.4990  -12.4907   18.2155 C   0  0  0  0  0  0
  -28.0188  -12.3625   18.6222 C   0  0  0  0  0  0
  -27.6610  -13.2168   19.8681 C   0  0  2  0  0  0
  -28.7027  -13.0304   20.9973 C   0  0  0  0  0  0
  -25.2579  -13.8195   20.5691 C   0  0  0  0  0  0
  -24.1838  -13.0460   20.9194 C   0  0  0  0  0  0
  -24.6402  -11.6929   20.8748 C   0  0  0  0  0  0
  -23.9061  -10.4312   21.0438 C   0  0  0  0  0  0
  -24.3605   -9.4230   21.9215 C   0  0  0  0  0  0
  -23.6275   -8.2266   22.0780 C   0  0  0  0  0  0
  -22.4266   -8.0297   21.3560 C   0  0  0  0  0  0
  -21.9904   -9.0287   20.4671 C   0  0  0  0  0  0
  -22.7240  -10.2162   20.3087 C   0  0  0  0  0  0
  -21.6847   -6.0743   22.5286 C   0  0  0  0  0  0
  -21.4014   -6.5639   23.8223 C   0  0  0  0  0  0
  -21.3667   -5.6786   24.9178 C   0  0  0  0  0  0
  -21.6047   -4.3051   24.7226 C   0  0  0  0  0  0
  -21.8810   -3.8143   23.4345 C   0  0  0  0  0  0
  -21.9177   -4.6965   22.3400 C   0  0  0  0  0  0
  -22.7865  -13.5282   21.1832 C   0  0  0  0  0  0
  -22.1652   -4.2152   21.0982 F   0  0  0  0  0  0
  -21.5629   -3.4533   25.7739 F   0  0  0  0  0  0
  -30.0364  -13.3064   20.4401 N   0  0  0  0  0  0
  -26.3021  -12.9387   20.3328 N   0  0  0  0  0  0
  -25.9334  -11.6540   20.5768 N   0  0  0  0  0  0
  -22.0462  -12.8319   22.0393 N   0  0  0  0  0  0
  -25.4270  -15.1920   20.4121 N   0  0  0  0  0  0
  -31.8718  -14.6030   20.0852 O   0  0  0  0  0  0
  -21.6633   -6.8891   21.4255 O   0  0  0  0  0  0
  -22.3566  -14.5583   20.6657 O   0  0  0  0  0  0
  -24.6174  -31.8695   23.2129 C   0  0  0  0  0  0
  -25.9062  -32.4829   23.8419 C   0  0  1  0  0  0
  -27.2166  -27.4182   20.0859 C   0  0  0  0  0  0
  -25.5916  -33.8631   24.2342 N   0  0  0  0  0  0
  -23.4035  -30.4967   21.5566 C   0  0  2  0  0  0
  -24.8445  -28.9719   20.1094 C   0  0  0  0  0  0
  -22.7417  -29.4670   22.5017 C   0  0  0  0  0  0
  -18.0270  -28.1369   22.8498 C   0  0  0  0  0  0
  -24.1488  -36.7298   23.2637 C   0  0  0  0  0  0
  -25.9374  -30.8300   21.3679 C   0  0  0  0  0  0
  -26.0107  -29.4686   20.7042 C   0  0  0  0  0  0
  -27.2022  -28.7023   20.6842 C   0  0  0  0  0  0
  -26.0296  -26.9548   19.4679 C   0  0  0  0  0  0
  -24.8493  -27.7159   19.4867 C   0  0  0  0  0  0
  -23.6083  -29.8399   20.1682 C   0  0  0  0  0  0
  -25.4115  -36.3111   24.0335 C   0  0  1  0  0  0
  -20.5862  -28.3657   23.1320 C   0  0  2  0  0  0
  -20.6764  -26.9397   22.5409 C   0  0  0  0  0  0
  -19.5746  -26.6390   21.5203 C   0  0  0  0  0  0
  -18.1928  -26.7924   22.1618 C   0  0  0  0  0  0
  -19.1520  -28.8833   23.2901 C   0  0  0  0  0  0
  -18.9446  -30.1441   23.8907 C   0  0  0  0  0  0
  -17.6446  -30.6578   24.0560 C   0  0  0  0  0  0
  -25.9044  -34.9480   23.5132 C   0  0  0  0  0  0
  -16.5335  -29.9074   23.6331 C   0  0  0  0  0  0
  -16.7256  -28.6486   23.0364 C   0  0  0  0  0  0
  -26.4489  -31.6611   25.0746 C   0  0  0  0  0  0
  -25.3741  -31.3721   26.1476 C   0  0  0  0  0  0
  -27.0314  -30.3054   24.6125 C   0  0  0  0  0  0
  -27.6068  -32.4337   25.7491 C   0  0  0  0  0  0
  -27.5583  -37.1806   24.8472 C   0  0  0  0  0  0
  -21.4150  -29.3018   22.3728 N   0  0  0  0  0  0
  -26.4305  -37.3796   23.9405 N   0  0  0  0  0  0
  -24.6722  -31.0784   22.1037 N   0  0  0  0  0  0
  -23.4190  -28.8223   23.3065 O   0  0  0  0  0  0
  -28.3550  -26.6274   20.1354 O   0  0  0  0  0  0
  -26.5599  -34.8931   22.4690 O   0  0  0  0  0  0
  -23.5359  -32.1465   23.7511 O   0  0  0  0  0  0
  -27.6492  -22.8848   22.2218 C   0  0  0  0  0  0
  -27.0969  -21.6506   22.5863 C   0  0  0  0  0  0
  -29.2251  -21.7414   20.7626 C   0  0  0  0  0  0
  -28.6904  -22.9546   21.2767 C   0  0  0  0  0  0
  -27.5835  -20.4490   22.0345 C   0  0  0  0  0  0
  -28.6947  -20.4730   21.1466 C   0  0  0  0  0  0
  -26.8473  -19.1767   22.4122 C   0  0  0  0  0  0
  -29.1969  -24.3448   20.8590 C   0  0  0  0  0  0
  -29.2782  -19.1823   20.5247 C   0  0  0  0  0  0
  -29.7342  -18.0464   21.4928 C   0  0  0  0  0  0
  -30.5633  -16.9233   20.8057 C   0  0  0  0  0  0
  -28.1094  -25.2011   20.1599 C   0  0  0  0  0  0
  -30.0688  -15.5447   21.0081 N   0  0  0  0  0  0
  -31.4637  -12.3616   19.1476 H   0  0  0  0  0  0
  -30.2935  -11.2939   19.8601 H   0  0  0  0  0  0
  -29.7408  -11.7592   17.4429 H   0  0  0  0  0  0
  -29.6788  -13.4720   17.7727 H   0  0  0  0  0  0
  -27.8216  -11.3111   18.8307 H   0  0  0  0  0  0
  -27.3745  -12.6295   17.7852 H   0  0  0  0  0  0
  -27.6978  -14.2602   19.5531 H   0  0  0  0  0  0
  -28.6699  -12.0122   21.3860 H   0  0  0  0  0  0
  -28.4736  -13.6731   21.8481 H   0  0  0  0  0  0
  -25.2756   -9.5705   22.4787 H   0  0  0  0  0  0
  -23.9967   -7.4661   22.7516 H   0  0  0  0  0  0
  -21.0815   -8.8820   19.8986 H   0  0  0  0  0  0
  -22.3705  -10.9697   19.6187 H   0  0  0  0  0  0
  -21.2024   -7.6145   23.9737 H   0  0  0  0  0  0
  -21.1496   -6.0512   25.9081 H   0  0  0  0  0  0
  -22.0576   -2.7607   23.2839 H   0  0  0  0  0  0
  -22.3978  -11.9925   22.4765 H   0  0  0  0  0  0
  -21.1107  -13.1440   22.2602 H   0  0  0  0  0  0
  -24.6628  -15.8462   20.5442 H   0  0  0  0  0  0
  -26.2673  -15.6334   20.0604 H   0  0  0  0  0  0
  -26.7128  -32.5535   23.1172 H   0  0  0  0  0  0
  -25.0078  -33.9799   25.0494 H   0  0  0  0  0  0
  -22.6915  -31.3144   21.4253 H   0  0  0  0  0  0
  -23.3758  -35.9624   23.3330 H   0  0  0  0  0  0
  -24.3579  -36.8883   22.2045 H   0  0  0  0  0  0
  -23.7231  -37.6511   23.6631 H   0  0  0  0  0  0
  -26.0578  -31.6023   20.6075 H   0  0  0  0  0  0
  -26.8210  -30.8733   21.9924 H   0  0  0  0  0  0
  -28.1008  -29.0798   21.1521 H   0  0  0  0  0  0
  -25.9869  -25.9942   18.9747 H   0  0  0  0  0  0
  -23.9519  -27.3323   19.0219 H   0  0  0  0  0  0
  -23.7139  -30.6206   19.4141 H   0  0  0  0  0  0
  -22.7300  -29.2616   19.8741 H   0  0  0  0  0  0
  -25.1295  -36.1990   25.0831 H   0  0  0  0  0  0
  -20.9947  -28.3203   24.1442 H   0  0  0  0  0  0
  -20.5683  -26.2248   23.3585 H   0  0  0  0  0  0
  -21.6638  -26.7456   22.1194 H   0  0  0  0  0  0
  -19.6911  -25.6312   21.1210 H   0  0  0  0  0  0
  -19.6688  -27.3217   20.6755 H   0  0  0  0  0  0
  -17.4200  -26.6683   21.4010 H   0  0  0  0  0  0
  -18.0322  -26.0048   22.9000 H   0  0  0  0  0  0
  -19.7918  -30.7255   24.2287 H   0  0  0  0  0  0
  -17.4997  -31.6270   24.5143 H   0  0  0  0  0  0
  -15.5339  -30.2972   23.7654 H   0  0  0  0  0  0
  -15.8659  -28.0796   22.7093 H   0  0  0  0  0  0
  -24.5908  -30.7080   25.7799 H   0  0  0  0  0  0
  -24.8927  -32.2870   26.4943 H   0  0  0  0  0  0
  -25.8067  -30.8868   27.0229 H   0  0  0  0  0  0
  -26.2852  -29.6815   24.1178 H   0  0  0  0  0  0
  -27.4084  -29.7302   25.4594 H   0  0  0  0  0  0
  -27.8699  -30.4386   23.9281 H   0  0  0  0  0  0
  -27.2701  -33.3636   26.2100 H   0  0  0  0  0  0
  -28.3845  -32.6910   25.0281 H   0  0  0  0  0  0
  -28.0773  -31.8443   26.5375 H   0  0  0  0  0  0
  -28.2630  -38.0077   24.7509 H   0  0  0  0  0  0
  -28.1052  -36.2610   24.6323 H   0  0  0  0  0  0
  -27.2292  -37.1486   25.8875 H   0  0  0  0  0  0
  -20.9317  -29.8708   21.6916 H   0  0  0  0  0  0
  -26.0199  -38.2881   24.1404 H   0  0  0  0  0  0
  -27.2409  -23.7878   22.6537 H   0  0  0  0  0  0
  -26.2677  -21.6335   23.2807 H   0  0  0  0  0  0
  -30.0352  -21.7888   20.0475 H   0  0  0  0  0  0
  -27.2888  -18.7378   23.3062 H   0  0  0  0  0  0
  -26.8449  -18.4439   21.6063 H   0  0  0  0  0  0
  -25.8013  -19.3936   22.6332 H   0  0  0  0  0  0
  -30.0802  -24.2626   20.2248 H   0  0  0  0  0  0
  -29.5133  -24.8606   21.7668 H   0  0  0  0  0  0
  -30.1343  -19.4636   19.9112 H   0  0  0  0  0  0
  -28.5424  -18.7790   19.8270 H   0  0  0  0  0  0
  -28.8938  -17.6021   22.0191 H   0  0  0  0  0  0
  -30.3562  -18.4900   22.2717 H   0  0  0  0  0  0
  -31.5885  -16.9825   21.1765 H   0  0  0  0  0  0
  -30.6326  -17.1026   19.7300 H   0  0  0  0  0  0
  -27.1819  -25.0305   20.7090 H   0  0  0  0  0  0
  -27.9458  -24.8277   19.1474 H   0  0  0  0  0  0
  -29.1270  -15.4073   21.3428 H   0  0  0  0  0  0
  1 25  1  0  0  0
  1 30  2  0  0  0
  1 83  1  0  0  0
  2  3  1  0  0  0
  2 25  1  0  0  0
  2 84  1  0  0  0
  2 85  1  0  0  0
  3  4  1  0  0  0
  3 86  1  0  0  0
  3 87  1  0  0  0
  4  5  1  0  0  0
  4 88  1  0  0  0
  4 89  1  0  0  0
  5  6  1  0  0  0
  5 26  1  0  0  0
  5 90  1  0  0  0
  6 25  1  0  0  0
  6 91  1  0  0  0
  6 92  1  0  0  0
  7  8  2  0  0  0
  7 26  1  0  0  0
  7 29  1  0  0  0
  8  9  1  0  0  0
  8 22  1  0  0  0
  9 10  1  0  0  0
  9 27  2  0  0  0
 10 11  2  0  0  0
 10 15  1  0  0  0
 11 12  1  0  0  0
 11 93  1  0  0  0
 12 13  2  0  0  0
 12 94  1  0  0  0
 13 14  1  0  0  0
 13 31  1  0  0  0
 14 15  2  0  0  0
 14 95  1  0  0  0
 15 96  1  0  0  0
 16 17  2  0  0  0
 16 21  1  0  0  0
 16 31  1  0  0  0
 17 18  1  0  0  0
 17 97  1  0  0  0
 18 19  2  0  0  0
 18 98  1  0  0  0
 19 20  1  0  0  0
 19 24  1  0  0  0
 20 21  2  0  0  0
 20 99  1  0  0  0
 21 23  1  0  0  0
 22 28  1  0  0  0
 22 32  2  0  0  0
 26 27  1  0  0  0
 28100  1  0  0  0
 28101  1  0  0  0
 29102  1  0  0  0
 29103  1  0  0  0
 33 34  1  0  0  0
 33 66  1  0  0  0
 33 70  2  0  0  0
 34 36  1  0  0  0
 34 59  1  0  0  0
 34104  1  0  0  0
 35 44  2  0  0  0
 35 45  1  0  0  0
 35 68  1  0  0  0
 36 56  1  0  0  0
 36105  1  0  0  0
 37 39  1  0  0  0
 37 47  1  0  0  0
 37 66  1  0  0  0
 37106  1  0  0  0
 38 43  2  0  0  0
 38 46  1  0  0  0
 38 47  1  0  0  0
 39 64  1  0  0  0
 39 67  2  0  0  0
 40 52  1  0  0  0
 40 53  2  0  0  0
 40 58  1  0  0  0
 41107  1  0  0  0
 41108  1  0  0  0
 41109  1  0  0  0
 41 48  1  0  0  0
 42 43  1  0  0  0
 42 66  1  0  0  0
 42110  1  0  0  0
 42111  1  0  0  0
 43 44  1  0  0  0
 44112  1  0  0  0
 45 46  2  0  0  0
 45113  1  0  0  0
 46114  1  0  0  0
 47115  1  0  0  0
 47116  1  0  0  0
 48 56  1  0  0  0
 48 65  1  0  0  0
 48117  1  0  0  0
 49 50  1  0  0  0
 49 53  1  0  0  0
 49 64  1  0  0  0
 49118  1  0  0  0
 50 51  1  0  0  0
 50119  1  0  0  0
 50120  1  0  0  0
 51 52  1  0  0  0
 51121  1  0  0  0
 51122  1  0  0  0
 52123  1  0  0  0
 52124  1  0  0  0
 53 54  1  0  0  0
 54 55  2  0  0  0
 54125  1  0  0  0
 55 57  1  0  0  0
 55126  1  0  0  0
 56 69  2  0  0  0
 57 58  2  0  0  0
 57127  1  0  0  0
 58128  1  0  0  0
 59 60  1  0  0  0
 59 61  1  0  0  0
 59 62  1  0  0  0
 60129  1  0  0  0
 60130  1  0  0  0
 60131  1  0  0  0
 61132  1  0  0  0
 61133  1  0  0  0
 61134  1  0  0  0
 62135  1  0  0  0
 62136  1  0  0  0
 62137  1  0  0  0
 63 65  1  0  0  0
 63138  1  0  0  0
 63139  1  0  0  0
 63140  1  0  0  0
 64141  1  0  0  0
 65142  1  0  0  0
 68 82  1  0  0  0
 71 72  2  0  0  0
 71 74  1  0  0  0
 71143  1  0  0  0
 72 75  1  0  0  0
 72144  1  0  0  0
 73 74  2  0  0  0
 73 76  1  0  0  0
 73145  1  0  0  0
 74 78  1  0  0  0
 75 76  2  0  0  0
 75 77  1  0  0  0
 76 79  1  0  0  0
 77146  1  0  0  0
 77147  1  0  0  0
 77148  1  0  0  0
 78 82  1  0  0  0
 78149  1  0  0  0
 78150  1  0  0  0
 79 80  1  0  0  0
 79151  1  0  0  0
 79152  1  0  0  0
 80 81  1  0  0  0
 80153  1  0  0  0
 80154  1  0  0  0
 81 83  1  0  0  0
 81155  1  0  0  0
 81156  1  0  0  0
 82157  1  0  0  0
 82158  1  0  0  0
 83159  1  0  0  0
M  ISO  4   1 100  68 101  82 101  83 100
M  END
> <chiral flag>
0

> <version>
0

> <s_m_source_file>
/data/baiqing/PycharmProjects/Reinvent-master-3.2/result/LINK_invent/BTK/process_docking_weight1_custom_sum_contain_oxygen_bond_distance_aromatic_linkinvent_7_9_3/rearranged_h_0037.sdf

> <i_m_source_file_index>
43

> <r_mmod_Potential_Energy-OPLS-2005>
-35.4408378601074

> <r_mmod_Stretch_Energy-OPLS-2005>
43.1815032958984

> <r_mmod_Bend_Energy-OPLS-2005>
98.396110534668

> <r_mmod_Torsional_Energy-OPLS-2005>
218.798202514648

> <r_mmod_Improper_Torsional_Energy-OPLS-2005>
4.64560222625732

> <r_mmod_Van_der_Waal_Energy-OPLS-2005>
161.918823242188

> <r_mmod_Electrostatic_Energy-OPLS-2005>
-375.557922363281

> <r_mmod_Solvation_Energy-OPLS-2005>
-204.887481689453

> <b_mmod_Minimization_Converged-OPLS-2005>
0

> <r_mmod_RMS_Derivative-OPLS-2005>
2.59555768966675

$$$$
43
                    3D
 Structure written by MMmdl.
162170  0  0  1  0            999 V2000
  -30.7133  -14.4386   20.5176 C   0  0  0  0  0  0
  -30.4120  -12.2687   19.4290 C   0  0  0  0  0  0
  -29.4903  -12.4818   18.2113 C   0  0  0  0  0  0
  -28.0107  -12.3620   18.6245 C   0  0  0  0  0  0
  -27.6617  -13.2050   19.8810 C   0  0  2  0  0  0
  -28.7055  -12.9979   21.0042 C   0  0  0  0  0  0
  -25.2591  -13.8174   20.5701 C   0  0  0  0  0  0
  -24.1840  -13.0452   20.9196 C   0  0  0  0  0  0
  -24.6386  -11.6913   20.8758 C   0  0  0  0  0  0
  -23.9047  -10.4296   21.0418 C   0  0  0  0  0  0
  -24.3608   -9.4213   21.9194 C   0  0  0  0  0  0
  -23.6300   -8.2240   22.0749 C   0  0  0  0  0  0
  -22.4285   -8.0277   21.3539 C   0  0  0  0  0  0
  -21.9911   -9.0242   20.4640 C   0  0  0  0  0  0
  -22.7220  -10.2132   20.3066 C   0  0  0  0  0  0
  -21.6855   -6.0745   22.5284 C   0  0  0  0  0  0
  -21.4002   -6.5644   23.8209 C   0  0  0  0  0  0
  -21.3661   -5.6795   24.9172 C   0  0  0  0  0  0
  -21.6054   -4.3057   24.7222 C   0  0  0  0  0  0
  -21.8817   -3.8156   23.4343 C   0  0  0  0  0  0
  -21.9193   -4.6975   22.3403 C   0  0  0  0  0  0
  -22.7866  -13.5238   21.1853 C   0  0  0  0  0  0
  -22.1658   -4.2164   21.0977 F   0  0  0  0  0  0
  -21.5645   -3.4536   25.7730 F   0  0  0  0  0  0
  -30.0377  -13.2657   20.4422 N   0  0  0  0  0  0
  -26.3025  -12.9331   20.3418 N   0  0  0  0  0  0
  -25.9309  -11.6490   20.5795 N   0  0  0  0  0  0
  -22.0519  -12.8217   22.0414 N   0  0  0  0  0  0
  -25.4317  -15.1891   20.4061 N   0  0  0  0  0  0
  -31.8690  -14.5794   20.1091 O   0  0  0  0  0  0
  -21.6650   -6.8880   21.4241 O   0  0  0  0  0  0
  -22.3536  -14.5532   20.6688 O   0  0  0  0  0  0
  -24.6122  -31.8690   23.2109 C   0  0  0  0  0  0
  -25.9019  -32.4837   23.8398 C   0  0  1  0  0  0
  -27.2330  -27.4538   20.0905 C   0  0  0  0  0  0
  -25.5876  -33.8633   24.2329 N   0  0  0  0  0  0
  -23.3982  -30.4925   21.5524 C   0  0  2  0  0  0
  -24.8418  -28.9607   20.1146 C   0  0  0  0  0  0
  -22.7399  -29.4656   22.5009 C   0  0  0  0  0  0
  -18.0265  -28.1369   22.8500 C   0  0  0  0  0  0
  -24.1483  -36.7319   23.2642 C   0  0  0  0  0  0
  -25.9238  -30.8422   21.3583 C   0  0  0  0  0  0
  -26.0007  -29.4778   20.7057 C   0  0  0  0  0  0
  -27.1993  -28.7335   20.6854 C   0  0  0  0  0  0
  -26.0551  -26.9430   19.4980 C   0  0  0  0  0  0
  -24.8634  -27.6929   19.5073 C   0  0  0  0  0  0
  -23.6027  -29.8247   20.1664 C   0  0  0  0  0  0
  -25.4106  -36.3122   24.0343 C   0  0  1  0  0  0
  -20.5853  -28.3642   23.1339 C   0  0  2  0  0  0
  -20.6750  -26.9383   22.5424 C   0  0  0  0  0  0
  -19.5728  -26.6378   21.5217 C   0  0  0  0  0  0
  -18.1909  -26.7917   22.1631 C   0  0  0  0  0  0
  -19.1515  -28.8825   23.2917 C   0  0  0  0  0  0
  -18.9443  -30.1435   23.8921 C   0  0  0  0  0  0
  -17.6448  -30.6580   24.0565 C   0  0  0  0  0  0
  -25.9029  -34.9486   23.5136 C   0  0  0  0  0  0
  -16.5337  -29.9084   23.6327 C   0  0  0  0  0  0
  -16.7257  -28.6498   23.0352 C   0  0  0  0  0  0
  -26.4451  -31.6615   25.0721 C   0  0  0  0  0  0
  -25.3726  -31.3711   26.1480 C   0  0  0  0  0  0
  -27.0275  -30.3067   24.6070 C   0  0  0  0  0  0
  -27.6037  -32.4329   25.7472 C   0  0  0  0  0  0
  -27.5577  -37.1821   24.8474 C   0  0  0  0  0  0
  -21.4129  -29.3021   22.3760 N   0  0  0  0  0  0
  -26.4299  -37.3797   23.9404 N   0  0  0  0  0  0
  -24.6634  -31.0814   22.0994 N   0  0  0  0  0  0
  -23.4190  -28.8202   23.3042 O   0  0  0  0  0  0
  -28.4188  -26.7552   20.0977 O   0  0  0  0  0  0
  -26.5597  -34.8927   22.4702 O   0  0  0  0  0  0
  -23.5326  -32.1421   23.7529 O   0  0  0  0  0  0
  -30.5661  -22.5319   20.0051 C   0  0  0  0  0  0
  -28.9822  -22.6182   21.8443 C   0  0  0  0  0  0
  -29.7198  -23.2810   20.8442 C   0  0  0  0  0  0
  -30.7282  -21.1437   20.1975 C   0  0  0  0  0  0
  -29.1273  -21.2286   22.0476 C   0  0  0  0  0  0
  -30.0368  -20.4850   21.2509 C   0  0  0  0  0  0
  -31.6797  -20.3982   19.2733 C   0  0  0  0  0  0
  -28.3135  -20.5705   23.1505 C   0  0  0  0  0  0
  -29.6548  -24.7969   20.7113 C   0  0  0  0  0  0
  -30.3211  -19.0102   21.5555 C   0  0  0  0  0  0
  -29.4663  -18.0135   20.7402 C   0  0  0  0  0  0
  -30.2758  -16.8200   20.1874 C   0  0  0  0  0  0
  -28.3483  -25.3282   20.1051 C   0  0  0  0  0  0
  -29.9582  -15.5171   20.7823 N   0  0  0  0  0  0
  -31.4582  -12.3435   19.1287 H   0  0  0  0  0  0
  -30.2892  -11.2623   19.8319 H   0  0  0  0  0  0
  -29.7172  -11.7514   17.4339 H   0  0  0  0  0  0
  -29.6754  -13.4639   17.7728 H   0  0  0  0  0  0
  -27.8122  -11.3081   18.8197 H   0  0  0  0  0  0
  -27.3635  -12.6443   17.7931 H   0  0  0  0  0  0
  -27.7024  -14.2507   19.5783 H   0  0  0  0  0  0
  -28.6663  -11.9748   21.3809 H   0  0  0  0  0  0
  -28.4920  -13.6368   21.8626 H   0  0  0  0  0  0
  -25.2750   -9.5702   22.4768 H   0  0  0  0  0  0
  -24.0038   -7.4620   22.7442 H   0  0  0  0  0  0
  -21.0862   -8.8727   19.8927 H   0  0  0  0  0  0
  -22.3663  -10.9673   19.6185 H   0  0  0  0  0  0
  -21.1965   -7.6143   23.9714 H   0  0  0  0  0  0
  -21.1499   -6.0523   25.9070 H   0  0  0  0  0  0
  -22.0598   -2.7623   23.2830 H   0  0  0  0  0  0
  -22.4149  -11.9870   22.4781 H   0  0  0  0  0  0
  -21.1127  -13.1217   22.2610 H   0  0  0  0  0  0
  -24.6657  -15.8474   20.4975 H   0  0  0  0  0  0
  -26.2824  -15.6222   20.0690 H   0  0  0  0  0  0
  -26.7095  -32.5549   23.1169 H   0  0  0  0  0  0
  -25.0027  -33.9796   25.0474 H   0  0  0  0  0  0
  -22.6857  -31.3082   21.4164 H   0  0  0  0  0  0
  -23.3732  -35.9668   23.3352 H   0  0  0  0  0  0
  -24.3565  -36.8880   22.2047 H   0  0  0  0  0  0
  -23.7251  -37.6546   23.6621 H   0  0  0  0  0  0
  -26.0302  -31.6099   20.5909 H   0  0  0  0  0  0
  -26.8144  -30.8970   21.9726 H   0  0  0  0  0  0
  -28.0974  -29.1322   21.1366 H   0  0  0  0  0  0
  -26.0463  -25.9745   19.0189 H   0  0  0  0  0  0
  -23.9732  -27.2915   19.0427 H   0  0  0  0  0  0
  -23.7050  -30.5988   19.4052 H   0  0  0  0  0  0
  -22.7275  -29.2417   19.8752 H   0  0  0  0  0  0
  -25.1286  -36.1998   25.0839 H   0  0  0  0  0  0
  -20.9941  -28.3188   24.1459 H   0  0  0  0  0  0
  -20.5645  -26.2245   23.3603 H   0  0  0  0  0  0
  -21.6624  -26.7423   22.1216 H   0  0  0  0  0  0
  -19.6887  -25.6294   21.1231 H   0  0  0  0  0  0
  -19.6671  -27.3205   20.6760 H   0  0  0  0  0  0
  -17.4178  -26.6673   21.4032 H   0  0  0  0  0  0
  -18.0306  -26.0050   22.9018 H   0  0  0  0  0  0
  -19.7918  -30.7243   24.2301 H   0  0  0  0  0  0
  -17.5000  -31.6265   24.5154 H   0  0  0  0  0  0
  -15.5338  -30.2994   23.7632 H   0  0  0  0  0  0
  -15.8652  -28.0824   22.7059 H   0  0  0  0  0  0
  -24.5885  -30.7077   25.7810 H   0  0  0  0  0  0
  -24.8934  -32.2870   26.4956 H   0  0  0  0  0  0
  -25.8082  -30.8852   27.0222 H   0  0  0  0  0  0
  -26.2809  -29.6846   24.1123 H   0  0  0  0  0  0
  -27.4064  -29.7281   25.4503 H   0  0  0  0  0  0
  -27.8630  -30.4403   23.9194 H   0  0  0  0  0  0
  -27.2663  -33.3612   26.2092 H   0  0  0  0  0  0
  -28.3815  -32.6921   25.0276 H   0  0  0  0  0  0
  -28.0745  -31.8434   26.5350 H   0  0  0  0  0  0
  -28.2634  -38.0076   24.7477 H   0  0  0  0  0  0
  -28.1030  -36.2611   24.6360 H   0  0  0  0  0  0
  -27.2290  -37.1550   25.8876 H   0  0  0  0  0  0
  -20.9281  -29.8754   21.6998 H   0  0  0  0  0  0
  -26.0198  -38.2887   24.1370 H   0  0  0  0  0  0
  -31.1253  -23.0337   19.2260 H   0  0  0  0  0  0
  -28.3202  -23.1872   22.4826 H   0  0  0  0  0  0
  -31.8948  -20.9765   18.3737 H   0  0  0  0  0  0
  -31.2533  -19.4509   18.9454 H   0  0  0  0  0  0
  -32.6269  -20.1981   19.7745 H   0  0  0  0  0  0
  -28.9211  -20.4358   24.0457 H   0  0  0  0  0  0
  -27.9374  -19.5959   22.8388 H   0  0  0  0  0  0
  -27.4478  -21.1761   23.4195 H   0  0  0  0  0  0
  -30.4992  -25.1459   20.1169 H   0  0  0  0  0  0
  -29.7921  -25.2285   21.7035 H   0  0  0  0  0  0
  -30.1989  -18.8050   22.6180 H   0  0  0  0  0  0
  -31.3846  -18.8435   21.3892 H   0  0  0  0  0  0
  -29.0556  -18.5439   19.8786 H   0  0  0  0  0  0
  -28.5957  -17.6932   21.3129 H   0  0  0  0  0  0
  -31.3471  -17.0165   20.2450 H   0  0  0  0  0  0
  -30.0665  -16.7296   19.1189 H   0  0  0  0  0  0
  -27.5069  -24.9805   20.7075 H   0  0  0  0  0  0
  -28.2163  -24.9524   19.0901 H   0  0  0  0  0  0
  -29.0129  -15.3517   21.0954 H   0  0  0  0  0  0
  1 25  1  0  0  0
  1 30  2  0  0  0
  1 84  1  0  0  0
  2  3  1  0  0  0
  2 25  1  0  0  0
  2 85  1  0  0  0
  2 86  1  0  0  0
  3  4  1  0  0  0
  3 87  1  0  0  0
  3 88  1  0  0  0
  4  5  1  0  0  0
  4 89  1  0  0  0
  4 90  1  0  0  0
  5  6  1  0  0  0
  5 26  1  0  0  0
  5 91  1  0  0  0
  6 25  1  0  0  0
  6 92  1  0  0  0
  6 93  1  0  0  0
  7  8  2  0  0  0
  7 26  1  0  0  0
  7 29  1  0  0  0
  8  9  1  0  0  0
  8 22  1  0  0  0
  9 10  1  0  0  0
  9 27  2  0  0  0
 10 11  2  0  0  0
 10 15  1  0  0  0
 11 12  1  0  0  0
 11 94  1  0  0  0
 12 13  2  0  0  0
 12 95  1  0  0  0
 13 14  1  0  0  0
 13 31  1  0  0  0
 14 15  2  0  0  0
 14 96  1  0  0  0
 15 97  1  0  0  0
 16 17  2  0  0  0
 16 21  1  0  0  0
 16 31  1  0  0  0
 17 18  1  0  0  0
 17 98  1  0  0  0
 18 19  2  0  0  0
 18 99  1  0  0  0
 19 20  1  0  0  0
 19 24  1  0  0  0
 20 21  2  0  0  0
 20100  1  0  0  0
 21 23  1  0  0  0
 22 28  1  0  0  0
 22 32  2  0  0  0
 26 27  1  0  0  0
 28101  1  0  0  0
 28102  1  0  0  0
 29103  1  0  0  0
 29104  1  0  0  0
 33 34  1  0  0  0
 33 66  1  0  0  0
 33 70  2  0  0  0
 34 36  1  0  0  0
 34 59  1  0  0  0
 34105  1  0  0  0
 35 44  2  0  0  0
 35 45  1  0  0  0
 35 68  1  0  0  0
 36 56  1  0  0  0
 36106  1  0  0  0
 37 39  1  0  0  0
 37 47  1  0  0  0
 37 66  1  0  0  0
 37107  1  0  0  0
 38 43  2  0  0  0
 38 46  1  0  0  0
 38 47  1  0  0  0
 39 64  1  0  0  0
 39 67  2  0  0  0
 40 52  1  0  0  0
 40 53  2  0  0  0
 40 58  1  0  0  0
 41108  1  0  0  0
 41109  1  0  0  0
 41110  1  0  0  0
 41 48  1  0  0  0
 42 43  1  0  0  0
 42 66  1  0  0  0
 42111  1  0  0  0
 42112  1  0  0  0
 43 44  1  0  0  0
 44113  1  0  0  0
 45 46  2  0  0  0
 45114  1  0  0  0
 46115  1  0  0  0
 47116  1  0  0  0
 47117  1  0  0  0
 48 56  1  0  0  0
 48 65  1  0  0  0
 48118  1  0  0  0
 49 50  1  0  0  0
 49 53  1  0  0  0
 49 64  1  0  0  0
 49119  1  0  0  0
 50 51  1  0  0  0
 50120  1  0  0  0
 50121  1  0  0  0
 51 52  1  0  0  0
 51122  1  0  0  0
 51123  1  0  0  0
 52124  1  0  0  0
 52125  1  0  0  0
 53 54  1  0  0  0
 54 55  2  0  0  0
 54126  1  0  0  0
 55 57  1  0  0  0
 55127  1  0  0  0
 56 69  2  0  0  0
 57 58  2  0  0  0
 57128  1  0  0  0
 58129  1  0  0  0
 59 60  1  0  0  0
 59 61  1  0  0  0
 59 62  1  0  0  0
 60130  1  0  0  0
 60131  1  0  0  0
 60132  1  0  0  0
 61133  1  0  0  0
 61134  1  0  0  0
 61135  1  0  0  0
 62136  1  0  0  0
 62137  1  0  0  0
 62138  1  0  0  0
 63 65  1  0  0  0
 63139  1  0  0  0
 63140  1  0  0  0
 63141  1  0  0  0
 64142  1  0  0  0
 65143  1  0  0  0
 68 83  1  0  0  0
 71 73  2  0  0  0
 71 74  1  0  0  0
 71144  1  0  0  0
 72 73  1  0  0  0
 72 75  2  0  0  0
 72145  1  0  0  0
 73 79  1  0  0  0
 74 76  2  0  0  0
 74 77  1  0  0  0
 75 76  1  0  0  0
 75 78  1  0  0  0
 76 80  1  0  0  0
 77146  1  0  0  0
 77147  1  0  0  0
 77148  1  0  0  0
 78149  1  0  0  0
 78150  1  0  0  0
 78151  1  0  0  0
 79 83  1  0  0  0
 79152  1  0  0  0
 79153  1  0  0  0
 80 81  1  0  0  0
 80154  1  0  0  0
 80155  1  0  0  0
 81 82  1  0  0  0
 81156  1  0  0  0
 81157  1  0  0  0
 82 84  1  0  0  0
 82158  1  0  0  0
 82159  1  0  0  0
 83160  1  0  0  0
 83161  1  0  0  0
 84162  1  0  0  0
M  ISO  4   1 100  68 101  83 101  84 100
M  END
> <chiral flag>
0

> <version>
0

> <s_m_source_file>
/data/baiqing/PycharmProjects/Reinvent-master-3.2/result/LINK_invent/BTK/process_docking_weight1_custom_sum_contain_oxygen_bond_distance_aromatic_linkinvent_7_9_3/rearranged_h_0037.sdf

> <i_m_source_file_index>
44

> <r_mmod_Potential_Energy-OPLS-2005>
-52.8126182556152

> <r_mmod_Stretch_Energy-OPLS-2005>
33.5601005554199

> <r_mmod_Bend_Energy-OPLS-2005>
91.4394989013672

> <r_mmod_Torsional_Energy-OPLS-2005>
234.776657104492

> <r_mmod_Improper_Torsional_Energy-OPLS-2005>
8.76174831390381

> <r_mmod_Van_der_Waal_Energy-OPLS-2005>
159.738006591797

> <r_mmod_Electrostatic_Energy-OPLS-2005>
-390.154998779297

> <r_mmod_Solvation_Energy-OPLS-2005>
-204.221878051758

> <b_mmod_Minimization_Converged-OPLS-2005>
0

> <r_mmod_RMS_Derivative-OPLS-2005>
1.57102370262146

$$$$
44
                    3D
 Structure written by MMmdl.
165173  0  0  1  0            999 V2000
  -30.7025  -14.4016   20.6122 C   0  0  0  0  0  0
  -30.4159  -12.2768   19.4053 C   0  0  0  0  0  0
  -29.4917  -12.5262   18.1966 C   0  0  0  0  0  0
  -28.0137  -12.3811   18.6068 C   0  0  0  0  0  0
  -27.6660  -13.1976   19.8797 C   0  0  2  0  0  0
  -28.6990  -12.9260   20.9949 C   0  0  0  0  0  0
  -25.2619  -13.8142   20.5656 C   0  0  0  0  0  0
  -24.1850  -13.0426   20.9160 C   0  0  0  0  0  0
  -24.6381  -11.6893   20.8691 C   0  0  0  0  0  0
  -23.9034  -10.4289   21.0366 C   0  0  0  0  0  0
  -24.3593   -9.4211   21.9145 C   0  0  0  0  0  0
  -23.6278   -8.2248   22.0722 C   0  0  0  0  0  0
  -22.4252   -8.0284   21.3517 C   0  0  0  0  0  0
  -21.9876   -9.0252   20.4619 C   0  0  0  0  0  0
  -22.7204  -10.2133   20.3025 C   0  0  0  0  0  0
  -21.6853   -6.0743   22.5279 C   0  0  0  0  0  0
  -21.4030   -6.5651   23.8216 C   0  0  0  0  0  0
  -21.3656   -5.6795   24.9170 C   0  0  0  0  0  0
  -21.6047   -4.3055   24.7222 C   0  0  0  0  0  0
  -21.8822   -3.8147   23.4344 C   0  0  0  0  0  0
  -21.9190   -4.6967   22.3400 C   0  0  0  0  0  0
  -22.7887  -13.5247   21.1854 C   0  0  0  0  0  0
  -22.1641   -4.2156   21.0968 F   0  0  0  0  0  0
  -21.5618   -3.4540   25.7731 F   0  0  0  0  0  0
  -30.0383  -13.2278   20.4590 N   0  0  0  0  0  0
  -26.3027  -12.9285   20.3329 N   0  0  0  0  0  0
  -25.9298  -11.6454   20.5700 N   0  0  0  0  0  0
  -22.0512  -12.8225   22.0393 N   0  0  0  0  0  0
  -25.4410  -15.1848   20.4102 N   0  0  0  0  0  0
  -31.7899  -14.6425   20.0775 O   0  0  0  0  0  0
  -21.6620   -6.8878   21.4234 O   0  0  0  0  0  0
  -22.3570  -14.5554   20.6718 O   0  0  0  0  0  0
  -24.6131  -31.8701   23.2115 C   0  0  0  0  0  0
  -25.9038  -32.4836   23.8417 C   0  0  1  0  0  0
  -27.2284  -27.4493   20.0904 C   0  0  0  0  0  0
  -25.5926  -33.8638   24.2359 N   0  0  0  0  0  0
  -23.4007  -30.4931   21.5519 C   0  0  2  0  0  0
  -24.8453  -28.9584   20.1149 C   0  0  0  0  0  0
  -22.7402  -29.4670   22.5003 C   0  0  0  0  0  0
  -18.0270  -28.1394   22.8514 C   0  0  0  0  0  0
  -24.1482  -36.7304   23.2631 C   0  0  0  0  0  0
  -25.9267  -30.8381   21.3625 C   0  0  0  0  0  0
  -26.0033  -29.4716   20.7143 C   0  0  0  0  0  0
  -27.1994  -28.7218   20.7022 C   0  0  0  0  0  0
  -26.0608  -26.9479   19.4810 C   0  0  0  0  0  0
  -24.8683  -27.6963   19.4936 C   0  0  0  0  0  0
  -23.6066  -29.8241   20.1653 C   0  0  0  0  0  0
  -25.4105  -36.3123   24.0339 C   0  0  1  0  0  0
  -20.5864  -28.3671   23.1337 C   0  0  2  0  0  0
  -20.6767  -26.9415   22.5426 C   0  0  0  0  0  0
  -19.5740  -26.6398   21.5233 C   0  0  0  0  0  0
  -18.1915  -26.7947   22.1640 C   0  0  0  0  0  0
  -19.1522  -28.8848   23.2927 C   0  0  0  0  0  0
  -18.9451  -30.1460   23.8929 C   0  0  0  0  0  0
  -17.6454  -30.6598   24.0579 C   0  0  0  0  0  0
  -25.9029  -34.9486   23.5133 C   0  0  0  0  0  0
  -16.5344  -29.9110   23.6325 C   0  0  0  0  0  0
  -16.7261  -28.6525   23.0349 C   0  0  0  0  0  0
  -26.4468  -31.6609   25.0742 C   0  0  0  0  0  0
  -25.3728  -31.3720   26.1485 C   0  0  0  0  0  0
  -27.0287  -30.3056   24.6099 C   0  0  0  0  0  0
  -27.6059  -32.4316   25.7501 C   0  0  0  0  0  0
  -27.5571  -37.1814   24.8468 C   0  0  0  0  0  0
  -21.4130  -29.3048   22.3746 N   0  0  0  0  0  0
  -26.4291  -37.3815   23.9403 N   0  0  0  0  0  0
  -24.6653  -31.0816   22.1007 N   0  0  0  0  0  0
  -23.4171  -28.8195   23.3034 O   0  0  0  0  0  0
  -28.3854  -26.7101   20.0726 O   0  0  0  0  0  0
  -26.5581  -34.8933   22.4688 O   0  0  0  0  0  0
  -23.5325  -32.1449   23.7515 O   0  0  0  0  0  0
  -27.0386  -23.5742   20.0776 C   0  0  0  0  0  0
  -29.3702  -22.2671   19.2394 C   0  0  0  0  0  0
  -26.9508  -22.2822   19.5115 C   0  0  0  0  0  0
  -28.2834  -24.2202   20.2324 C   0  0  0  0  0  0
  -28.1291  -21.6007   19.1039 C   0  0  0  0  0  0
  -29.4503  -23.5586   19.7960 C   0  0  0  0  0  0
  -25.1525  -20.9626   20.6984 C   0  0  0  0  0  0
  -25.5728  -21.6444   19.3921 C   0  0  0  0  0  0
  -28.0429  -20.1852   18.5113 C   0  0  0  0  0  0
  -28.3739  -25.5695   20.9397 C   0  0  0  0  0  0
  -29.3587  -19.3906   18.3645 C   0  0  0  0  0  0
  -29.9573  -18.8522   19.6825 C   0  0  0  0  0  0
  -29.5450  -17.4002   19.9891 C   0  0  0  0  0  0
  -30.2892  -16.7837   21.1923 C   0  0  0  0  0  0
  -30.0208  -15.3485   21.2724 N   0  0  0  0  0  0
  -30.6634  -24.1477   19.9289 F   0  0  0  0  0  0
  -31.4633  -12.3652   19.1143 H   0  0  0  0  0  0
  -30.2923  -11.2549   19.7669 H   0  0  0  0  0  0
  -29.7276  -11.8299   17.3902 H   0  0  0  0  0  0
  -29.6653  -13.5259   17.7932 H   0  0  0  0  0  0
  -27.8210  -11.3217   18.7806 H   0  0  0  0  0  0
  -27.3622  -12.6754   17.7830 H   0  0  0  0  0  0
  -27.7305  -14.2538   19.6155 H   0  0  0  0  0  0
  -28.6610  -11.8753   21.2886 H   0  0  0  0  0  0
  -28.4568  -13.4849   21.8996 H   0  0  0  0  0  0
  -25.2731   -9.5695   22.4736 H   0  0  0  0  0  0
  -23.9995   -7.4648   22.7440 H   0  0  0  0  0  0
  -21.0811   -8.8778   19.8920 H   0  0  0  0  0  0
  -22.3654  -10.9688   19.6149 H   0  0  0  0  0  0
  -21.2031   -7.6161   23.9730 H   0  0  0  0  0  0
  -21.1456   -6.0505   25.9080 H   0  0  0  0  0  0
  -22.0595   -2.7611   23.2839 H   0  0  0  0  0  0
  -22.4124  -11.9896   22.4797 H   0  0  0  0  0  0
  -21.1130  -13.1273   22.2577 H   0  0  0  0  0  0
  -24.6892  -15.8515   20.5488 H   0  0  0  0  0  0
  -26.3036  -15.6159   20.0994 H   0  0  0  0  0  0
  -26.7102  -32.5560   23.1174 H   0  0  0  0  0  0
  -25.0181  -33.9827   25.0574 H   0  0  0  0  0  0
  -22.6894  -31.3103   21.4137 H   0  0  0  0  0  0
  -23.3767  -35.9617   23.3325 H   0  0  0  0  0  0
  -24.3567  -36.8885   22.2038 H   0  0  0  0  0  0
  -23.7214  -37.6509   23.6620 H   0  0  0  0  0  0
  -26.0328  -31.6003   20.5890 H   0  0  0  0  0  0
  -26.8169  -30.8971   21.9776 H   0  0  0  0  0  0
  -28.0962  -29.1117   21.1634 H   0  0  0  0  0  0
  -26.0775  -25.9864   18.9868 H   0  0  0  0  0  0
  -23.9802  -27.3053   19.0154 H   0  0  0  0  0  0
  -23.7119  -30.5995   19.4053 H   0  0  0  0  0  0
  -22.7325  -29.2399   19.8709 H   0  0  0  0  0  0
  -25.1281  -36.2004   25.0839 H   0  0  0  0  0  0
  -20.9960  -28.3236   24.1459 H   0  0  0  0  0  0
  -20.5707  -26.2273   23.3614 H   0  0  0  0  0  0
  -21.6629  -26.7481   22.1196 H   0  0  0  0  0  0
  -19.6896  -25.6313   21.1253 H   0  0  0  0  0  0
  -19.6679  -27.3220   20.6774 H   0  0  0  0  0  0
  -17.4195  -26.6730   21.4027 H   0  0  0  0  0  0
  -18.0289  -26.0080   22.9018 H   0  0  0  0  0  0
  -19.7917  -30.7280   24.2303 H   0  0  0  0  0  0
  -17.5001  -31.6277   24.5186 H   0  0  0  0  0  0
  -15.5345  -30.3023   23.7627 H   0  0  0  0  0  0
  -15.8663  -28.0852   22.7042 H   0  0  0  0  0  0
  -24.5921  -30.7050   25.7818 H   0  0  0  0  0  0
  -24.8900  -32.2880   26.4909 H   0  0  0  0  0  0
  -25.8079  -30.8908   27.0260 H   0  0  0  0  0  0
  -26.2827  -29.6852   24.1118 H   0  0  0  0  0  0
  -27.4032  -29.7256   25.4546 H   0  0  0  0  0  0
  -27.8673  -30.4393   23.9259 H   0  0  0  0  0  0
  -27.2698  -33.3614   26.2101 H   0  0  0  0  0  0
  -28.3857  -32.6875   25.0316 H   0  0  0  0  0  0
  -28.0736  -31.8428   26.5402 H   0  0  0  0  0  0
  -28.2621  -38.0083   24.7517 H   0  0  0  0  0  0
  -28.1038  -36.2626   24.6304 H   0  0  0  0  0  0
  -27.2289  -37.1474   25.8872 H   0  0  0  0  0  0
  -20.9276  -29.8759   21.6972 H   0  0  0  0  0  0
  -26.0188  -38.2896   24.1431 H   0  0  0  0  0  0
  -26.1377  -24.0661   20.4174 H   0  0  0  0  0  0
  -30.2931  -21.8013   18.9345 H   0  0  0  0  0  0
  -25.8744  -20.2023   21.0003 H   0  0  0  0  0  0
  -24.1818  -20.4802   20.5951 H   0  0  0  0  0  0
  -25.0745  -21.6886   21.5080 H   0  0  0  0  0  0
  -25.5306  -20.9343   18.5659 H   0  0  0  0  0  0
  -24.8459  -22.4152   19.1354 H   0  0  0  0  0  0
  -27.5968  -20.2825   17.5208 H   0  0  0  0  0  0
  -27.3474  -19.5841   19.0982 H   0  0  0  0  0  0
  -29.2969  -25.5909   21.5198 H   0  0  0  0  0  0
  -27.5716  -25.6327   21.6796 H   0  0  0  0  0  0
  -30.0959  -19.9813   17.8220 H   0  0  0  0  0  0
  -29.1655  -18.5449   17.7037 H   0  0  0  0  0  0
  -29.7099  -19.5060   20.5188 H   0  0  0  0  0  0
  -31.0442  -18.8811   19.5924 H   0  0  0  0  0  0
  -29.7462  -16.7924   19.1062 H   0  0  0  0  0  0
  -28.4676  -17.3456   20.1534 H   0  0  0  0  0  0
  -29.9696  -17.2614   22.1186 H   0  0  0  0  0  0
  -31.3640  -16.9583   21.1148 H   0  0  0  0  0  0
  -29.1574  -15.0608   21.7085 H   0  0  0  0  0  0
  1 25  1  0  0  0
  1 30  2  0  0  0
  1 85  1  0  0  0
  2  3  1  0  0  0
  2 25  1  0  0  0
  2 87  1  0  0  0
  2 88  1  0  0  0
  3  4  1  0  0  0
  3 89  1  0  0  0
  3 90  1  0  0  0
  4  5  1  0  0  0
  4 91  1  0  0  0
  4 92  1  0  0  0
  5  6  1  0  0  0
  5 26  1  0  0  0
  5 93  1  0  0  0
  6 25  1  0  0  0
  6 94  1  0  0  0
  6 95  1  0  0  0
  7  8  2  0  0  0
  7 26  1  0  0  0
  7 29  1  0  0  0
  8  9  1  0  0  0
  8 22  1  0  0  0
  9 10  1  0  0  0
  9 27  2  0  0  0
 10 11  2  0  0  0
 10 15  1  0  0  0
 11 12  1  0  0  0
 11 96  1  0  0  0
 12 13  2  0  0  0
 12 97  1  0  0  0
 13 14  1  0  0  0
 13 31  1  0  0  0
 14 15  2  0  0  0
 14 98  1  0  0  0
 15 99  1  0  0  0
 16 17  2  0  0  0
 16 21  1  0  0  0
 16 31  1  0  0  0
 17 18  1  0  0  0
 17100  1  0  0  0
 18 19  2  0  0  0
 18101  1  0  0  0
 19 20  1  0  0  0
 19 24  1  0  0  0
 20 21  2  0  0  0
 20102  1  0  0  0
 21 23  1  0  0  0
 22 28  1  0  0  0
 22 32  2  0  0  0
 26 27  1  0  0  0
 28103  1  0  0  0
 28104  1  0  0  0
 29105  1  0  0  0
 29106  1  0  0  0
 33 34  1  0  0  0
 33 66  1  0  0  0
 33 70  2  0  0  0
 34 36  1  0  0  0
 34 59  1  0  0  0
 34107  1  0  0  0
 35 44  2  0  0  0
 35 45  1  0  0  0
 35 68  1  0  0  0
 36 56  1  0  0  0
 36108  1  0  0  0
 37 39  1  0  0  0
 37 47  1  0  0  0
 37 66  1  0  0  0
 37109  1  0  0  0
 38 43  2  0  0  0
 38 46  1  0  0  0
 38 47  1  0  0  0
 39 64  1  0  0  0
 39 67  2  0  0  0
 40 52  1  0  0  0
 40 53  2  0  0  0
 40 58  1  0  0  0
 41110  1  0  0  0
 41111  1  0  0  0
 41112  1  0  0  0
 41 48  1  0  0  0
 42 43  1  0  0  0
 42 66  1  0  0  0
 42113  1  0  0  0
 42114  1  0  0  0
 43 44  1  0  0  0
 44115  1  0  0  0
 45 46  2  0  0  0
 45116  1  0  0  0
 46117  1  0  0  0
 47118  1  0  0  0
 47119  1  0  0  0
 48 56  1  0  0  0
 48 65  1  0  0  0
 48120  1  0  0  0
 49 50  1  0  0  0
 49 53  1  0  0  0
 49 64  1  0  0  0
 49121  1  0  0  0
 50 51  1  0  0  0
 50122  1  0  0  0
 50123  1  0  0  0
 51 52  1  0  0  0
 51124  1  0  0  0
 51125  1  0  0  0
 52126  1  0  0  0
 52127  1  0  0  0
 53 54  1  0  0  0
 54 55  2  0  0  0
 54128  1  0  0  0
 55 57  1  0  0  0
 55129  1  0  0  0
 56 69  2  0  0  0
 57 58  2  0  0  0
 57130  1  0  0  0
 58131  1  0  0  0
 59 60  1  0  0  0
 59 61  1  0  0  0
 59 62  1  0  0  0
 60132  1  0  0  0
 60133  1  0  0  0
 60134  1  0  0  0
 61135  1  0  0  0
 61136  1  0  0  0
 61137  1  0  0  0
 62138  1  0  0  0
 62139  1  0  0  0
 62140  1  0  0  0
 63 65  1  0  0  0
 63141  1  0  0  0
 63142  1  0  0  0
 63143  1  0  0  0
 64144  1  0  0  0
 65145  1  0  0  0
 68 80  1  0  0  0
 71 73  2  0  0  0
 71 74  1  0  0  0
 71146  1  0  0  0
 72 75  2  0  0  0
 72 76  1  0  0  0
 72147  1  0  0  0
 73 75  1  0  0  0
 73 78  1  0  0  0
 74 76  2  0  0  0
 74 80  1  0  0  0
 75 79  1  0  0  0
 76 86  1  0  0  0
 77 78  1  0  0  0
 77148  1  0  0  0
 77149  1  0  0  0
 77150  1  0  0  0
 78151  1  0  0  0
 78152  1  0  0  0
 79 81  1  0  0  0
 79153  1  0  0  0
 79154  1  0  0  0
 80155  1  0  0  0
 80156  1  0  0  0
 81 82  1  0  0  0
 81157  1  0  0  0
 81158  1  0  0  0
 82 83  1  0  0  0
 82159  1  0  0  0
 82160  1  0  0  0
 83 84  1  0  0  0
 83161  1  0  0  0
 83162  1  0  0  0
 84 85  1  0  0  0
 84163  1  0  0  0
 84164  1  0  0  0
 85165  1  0  0  0
M  ISO  4   1 100  68 101  80 101  85 100
M  END
> <chiral flag>
0

> <version>
0

> <s_m_source_file>
/data/baiqing/PycharmProjects/Reinvent-master-3.2/result/LINK_invent/BTK/process_docking_weight1_custom_sum_contain_oxygen_bond_distance_aromatic_linkinvent_7_9_3/rearranged_h_0037.sdf

> <i_m_source_file_index>
45

> <r_mmod_Potential_Energy-OPLS-2005>
-32.3169250488281

> <r_mmod_Stretch_Energy-OPLS-2005>
34.3011703491211

> <r_mmod_Bend_Energy-OPLS-2005>
89.321647644043

> <r_mmod_Torsional_Energy-OPLS-2005>
241.443710327148

> <r_mmod_Improper_Torsional_Energy-OPLS-2005>
3.79741477966309

> <r_mmod_Van_der_Waal_Energy-OPLS-2005>
149.392333984375

> <r_mmod_Electrostatic_Energy-OPLS-2005>
-360.559814453125

> <r_mmod_Solvation_Energy-OPLS-2005>
-198.435256958008

> <b_mmod_Minimization_Converged-OPLS-2005>
0

> <r_mmod_RMS_Derivative-OPLS-2005>
2.38770890235901

$$$$
45
                    3D
 Structure written by MMmdl.
153161  0  0  1  0            999 V2000
  -30.7761  -14.5811   20.5078 C   0  0  0  0  0  0
  -30.4082  -12.3694   19.4481 C   0  0  0  0  0  0
  -29.4986  -12.5248   18.2167 C   0  0  0  0  0  0
  -28.0250  -12.3627   18.6324 C   0  0  0  0  0  0
  -27.6533  -13.2440   19.8601 C   0  0  2  0  0  0
  -28.7092  -13.1471   20.9870 C   0  0  0  0  0  0
  -25.2570  -13.8224   20.5752 C   0  0  0  0  0  0
  -24.1846  -13.0443   20.9223 C   0  0  0  0  0  0
  -24.6478  -11.6929   20.8789 C   0  0  0  0  0  0
  -23.9155  -10.4298   21.0416 C   0  0  0  0  0  0
  -24.3671   -9.4206   21.9208 C   0  0  0  0  0  0
  -23.6322   -8.2248   22.0769 C   0  0  0  0  0  0
  -22.4311   -8.0307   21.3551 C   0  0  0  0  0  0
  -21.9970   -9.0296   20.4663 C   0  0  0  0  0  0
  -22.7321  -10.2163   20.3074 C   0  0  0  0  0  0
  -21.6841   -6.0776   22.5313 C   0  0  0  0  0  0
  -21.4002   -6.5662   23.8260 C   0  0  0  0  0  0
  -21.3665   -5.6804   24.9213 C   0  0  0  0  0  0
  -21.6030   -4.3066   24.7241 C   0  0  0  0  0  0
  -21.8803   -3.8175   23.4353 C   0  0  0  0  0  0
  -21.9180   -4.7004   22.3425 C   0  0  0  0  0  0
  -22.7871  -13.5220   21.1842 C   0  0  0  0  0  0
  -22.1648   -4.2205   21.0994 F   0  0  0  0  0  0
  -21.5629   -3.4546   25.7737 F   0  0  0  0  0  0
  -30.0268  -13.4359   20.4015 N   0  0  0  0  0  0
  -26.3027  -12.9475   20.3377 N   0  0  0  0  0  0
  -25.9423  -11.6596   20.5794 N   0  0  0  0  0  0
  -22.0483  -12.8241   22.0395 N   0  0  0  0  0  0
  -25.4164  -15.1943   20.4180 N   0  0  0  0  0  0
  -31.9452  -14.6002   20.1340 O   0  0  0  0  0  0
  -21.6650   -6.8915   21.4264 O   0  0  0  0  0  0
  -22.3566  -14.5525   20.6690 O   0  0  0  0  0  0
  -24.6289  -31.8631   23.2025 C   0  0  0  0  0  0
  -25.9134  -32.4800   23.8362 C   0  0  1  0  0  0
  -27.2119  -27.3280   20.0974 C   0  0  0  0  0  0
  -25.5935  -33.8605   24.2282 N   0  0  0  0  0  0
  -23.4199  -30.4899   21.5473 C   0  0  2  0  0  0
  -24.8596  -28.9598   20.1052 C   0  0  0  0  0  0
  -22.7515  -29.4613   22.4919 C   0  0  0  0  0  0
  -18.0276  -28.1426   22.8510 C   0  0  0  0  0  0
  -24.1476  -36.7260   23.2639 C   0  0  0  0  0  0
  -25.9644  -30.7945   21.3791 C   0  0  0  0  0  0
  -26.0314  -29.4257   20.7156 C   0  0  0  0  0  0
  -27.2086  -28.6190   20.7068 C   0  0  0  0  0  0
  -26.0146  -26.9263   19.4514 C   0  0  0  0  0  0
  -24.8565  -27.7183   19.4569 C   0  0  0  0  0  0
  -23.6319  -29.8413   20.1555 C   0  0  0  0  0  0
  -25.4117  -36.3104   24.0341 C   0  0  1  0  0  0
  -20.5906  -28.3715   23.1310 C   0  0  2  0  0  0
  -20.6767  -26.9441   22.5422 C   0  0  0  0  0  0
  -19.5734  -26.6413   21.5238 C   0  0  0  0  0  0
  -18.1907  -26.7951   22.1655 C   0  0  0  0  0  0
  -19.1546  -28.8901   23.2883 C   0  0  0  0  0  0
  -18.9475  -30.1502   23.8890 C   0  0  0  0  0  0
  -17.6485  -30.6618   24.0604 C   0  0  0  0  0  0
  -25.9092  -34.9468   23.5130 C   0  0  0  0  0  0
  -16.5369  -29.9145   23.6338 C   0  0  0  0  0  0
  -16.7271  -28.6569   23.0349 C   0  0  0  0  0  0
  -26.4454  -31.6613   25.0773 C   0  0  0  0  0  0
  -25.3607  -31.3826   26.1462 C   0  0  0  0  0  0
  -27.0265  -30.3009   24.6246 C   0  0  0  0  0  0
  -27.6031  -32.4332   25.7510 C   0  0  0  0  0  0
  -27.5582  -37.1787   24.8483 C   0  0  0  0  0  0
  -21.4223  -29.3046   22.3736 N   0  0  0  0  0  0
  -26.4286  -37.3806   23.9445 N   0  0  0  0  0  0
  -24.6894  -31.0667   22.0971 N   0  0  0  0  0  0
  -23.4239  -28.8132   23.2983 O   0  0  0  0  0  0
  -28.3151  -26.4594   20.1427 O   0  0  0  0  0  0
  -26.5681  -34.8933   22.4714 O   0  0  0  0  0  0
  -23.5452  -32.1416   23.7348 O   0  0  0  0  0  0
  -28.3435  -19.9754   20.9361 C   0  0  0  0  0  0
  -28.9346  -18.6953   21.0979 C   0  0  0  0  0  0
  -30.4033  -20.8525   20.0534 C   0  0  0  0  0  0
  -29.0580  -21.0897   20.4229 C   0  0  0  0  0  0
  -30.2759  -18.4495   20.7339 C   0  0  0  0  0  0
  -31.0043  -19.5692   20.2171 C   0  0  0  0  0  0
  -28.3080  -22.4445   20.2186 C   0  0  0  0  0  0
  -30.9476  -17.0571   20.9948 C   0  0  0  0  0  0
  -29.0208  -23.8606   20.2827 C   0  0  0  0  0  0
  -28.0209  -25.0297   19.9229 C   0  0  0  0  0  0
  -30.1876  -15.7651   20.8592 N   0  0  0  0  0  0
  -32.6693  -19.4212   19.7835 Cl  0  0  0  0  0  0
  -31.4560  -12.4055   19.1461 H   0  0  0  0  0  0
  -30.2605  -11.3850   19.8931 H   0  0  0  0  0  0
  -29.7585  -11.7952   17.4499 H   0  0  0  0  0  0
  -29.6532  -13.5084   17.7672 H   0  0  0  0  0  0
  -27.8651  -11.3070   18.8610 H   0  0  0  0  0  0
  -27.3666  -12.5890   17.7909 H   0  0  0  0  0  0
  -27.6544  -14.2814   19.5177 H   0  0  0  0  0  0
  -28.7095  -12.1463   21.4162 H   0  0  0  0  0  0
  -28.4783  -13.8283   21.8067 H   0  0  0  0  0  0
  -25.2796   -9.5667   22.4818 H   0  0  0  0  0  0
  -24.0022   -7.4632   22.7479 H   0  0  0  0  0  0
  -21.0901   -8.8801   19.8993 H   0  0  0  0  0  0
  -22.3747  -10.9705   19.6200 H   0  0  0  0  0  0
  -21.1981   -7.6183   23.9763 H   0  0  0  0  0  0
  -21.1507   -6.0551   25.9116 H   0  0  0  0  0  0
  -22.0573   -2.7643   23.2843 H   0  0  0  0  0  0
  -22.4032  -11.9892   22.4818 H   0  0  0  0  0  0
  -21.1114  -13.1313   22.2576 H   0  0  0  0  0  0
  -24.6404  -15.8365   20.5347 H   0  0  0  0  0  0
  -26.2588  -15.6493   20.0890 H   0  0  0  0  0  0
  -26.7234  -32.5441   23.1137 H   0  0  0  0  0  0
  -25.0035  -33.9735   25.0393 H   0  0  0  0  0  0
  -22.7109  -31.3100   21.4161 H   0  0  0  0  0  0
  -23.3764  -35.9573   23.3340 H   0  0  0  0  0  0
  -24.3569  -36.8821   22.2042 H   0  0  0  0  0  0
  -23.7144  -37.6442   23.6625 H   0  0  0  0  0  0
  -26.1195  -31.5619   20.6195 H   0  0  0  0  0  0
  -26.8356  -30.8218   22.0213 H   0  0  0  0  0  0
  -28.1040  -28.9693   21.1995 H   0  0  0  0  0  0
  -25.9313  -25.9856   18.9263 H   0  0  0  0  0  0
  -23.9681  -27.3679   18.9495 H   0  0  0  0  0  0
  -23.7596  -30.6285   19.4122 H   0  0  0  0  0  0
  -22.7479  -29.2860   19.8355 H   0  0  0  0  0  0
  -25.1259  -36.1967   25.0826 H   0  0  0  0  0  0
  -20.9984  -28.3266   24.1449 H   0  0  0  0  0  0
  -20.5691  -26.2322   23.3621 H   0  0  0  0  0  0
  -21.6619  -26.7445   22.1215 H   0  0  0  0  0  0
  -19.6869  -25.6319   21.1270 H   0  0  0  0  0  0
  -19.6661  -27.3242   20.6788 H   0  0  0  0  0  0
  -17.4165  -26.6742   21.4052 H   0  0  0  0  0  0
  -18.0272  -26.0094   22.9060 H   0  0  0  0  0  0
  -19.7963  -30.7325   24.2235 H   0  0  0  0  0  0
  -17.5044  -31.6278   24.5246 H   0  0  0  0  0  0
  -15.5377  -30.3076   23.7649 H   0  0  0  0  0  0
  -15.8659  -28.0907   22.7064 H   0  0  0  0  0  0
  -24.5871  -30.7059   25.7796 H   0  0  0  0  0  0
  -24.8688  -32.3025   26.4650 H   0  0  0  0  0  0
  -25.7873  -30.9184   27.0362 H   0  0  0  0  0  0
  -26.2852  -29.6819   24.1176 H   0  0  0  0  0  0
  -27.3833  -29.7228   25.4770 H   0  0  0  0  0  0
  -27.8778  -30.4266   23.9550 H   0  0  0  0  0  0
  -27.2679  -33.3702   26.1962 H   0  0  0  0  0  0
  -28.3861  -32.6757   25.0315 H   0  0  0  0  0  0
  -28.0645  -31.8505   26.5477 H   0  0  0  0  0  0
  -28.2612  -38.0075   24.7579 H   0  0  0  0  0  0
  -28.1056  -36.2621   24.6244 H   0  0  0  0  0  0
  -27.2339  -37.1345   25.8893 H   0  0  0  0  0  0
  -20.9435  -29.8852   21.7026 H   0  0  0  0  0  0
  -26.0175  -38.2890   24.1464 H   0  0  0  0  0  0
  -27.3039  -20.0798   21.2090 H   0  0  0  0  0  0
  -28.3465  -17.8954   21.5281 H   0  0  0  0  0  0
  -30.9983  -21.6554   19.6431 H   0  0  0  0  0  0
  -27.5280  -22.4641   20.9794 H   0  0  0  0  0  0
  -27.7813  -22.3543   19.2648 H   0  0  0  0  0  0
  -31.3245  -17.0765   22.0206 H   0  0  0  0  0  0
  -31.8477  -17.0084   20.3821 H   0  0  0  0  0  0
  -29.8595  -23.9007   19.5874 H   0  0  0  0  0  0
  -29.4257  -24.0051   21.2826 H   0  0  0  0  0  0
  -27.1019  -24.7896   20.4627 H   0  0  0  0  0  0
  -27.7959  -24.9099   18.8610 H   0  0  0  0  0  0
  -29.1971  -15.7744   21.0345 H   0  0  0  0  0  0
  1 25  1  0  0  0
  1 30  2  0  0  0
  1 81  1  0  0  0
  2  3  1  0  0  0
  2 25  1  0  0  0
  2 83  1  0  0  0
  2 84  1  0  0  0
  3  4  1  0  0  0
  3 85  1  0  0  0
  3 86  1  0  0  0
  4  5  1  0  0  0
  4 87  1  0  0  0
  4 88  1  0  0  0
  5  6  1  0  0  0
  5 26  1  0  0  0
  5 89  1  0  0  0
  6 25  1  0  0  0
  6 90  1  0  0  0
  6 91  1  0  0  0
  7  8  2  0  0  0
  7 26  1  0  0  0
  7 29  1  0  0  0
  8  9  1  0  0  0
  8 22  1  0  0  0
  9 10  1  0  0  0
  9 27  2  0  0  0
 10 11  2  0  0  0
 10 15  1  0  0  0
 11 12  1  0  0  0
 11 92  1  0  0  0
 12 13  2  0  0  0
 12 93  1  0  0  0
 13 14  1  0  0  0
 13 31  1  0  0  0
 14 15  2  0  0  0
 14 94  1  0  0  0
 15 95  1  0  0  0
 16 17  2  0  0  0
 16 21  1  0  0  0
 16 31  1  0  0  0
 17 18  1  0  0  0
 17 96  1  0  0  0
 18 19  2  0  0  0
 18 97  1  0  0  0
 19 20  1  0  0  0
 19 24  1  0  0  0
 20 21  2  0  0  0
 20 98  1  0  0  0
 21 23  1  0  0  0
 22 28  1  0  0  0
 22 32  2  0  0  0
 26 27  1  0  0  0
 28 99  1  0  0  0
 28100  1  0  0  0
 29101  1  0  0  0
 29102  1  0  0  0
 33 34  1  0  0  0
 33 66  1  0  0  0
 33 70  2  0  0  0
 34 36  1  0  0  0
 34 59  1  0  0  0
 34103  1  0  0  0
 35 44  2  0  0  0
 35 45  1  0  0  0
 35 68  1  0  0  0
 36 56  1  0  0  0
 36104  1  0  0  0
 37 39  1  0  0  0
 37 47  1  0  0  0
 37 66  1  0  0  0
 37105  1  0  0  0
 38 43  2  0  0  0
 38 46  1  0  0  0
 38 47  1  0  0  0
 39 64  1  0  0  0
 39 67  2  0  0  0
 40 52  1  0  0  0
 40 53  2  0  0  0
 40 58  1  0  0  0
 41106  1  0  0  0
 41107  1  0  0  0
 41108  1  0  0  0
 41 48  1  0  0  0
 42 43  1  0  0  0
 42 66  1  0  0  0
 42109  1  0  0  0
 42110  1  0  0  0
 43 44  1  0  0  0
 44111  1  0  0  0
 45 46  2  0  0  0
 45112  1  0  0  0
 46113  1  0  0  0
 47114  1  0  0  0
 47115  1  0  0  0
 48 56  1  0  0  0
 48 65  1  0  0  0
 48116  1  0  0  0
 49 50  1  0  0  0
 49 53  1  0  0  0
 49 64  1  0  0  0
 49117  1  0  0  0
 50 51  1  0  0  0
 50118  1  0  0  0
 50119  1  0  0  0
 51 52  1  0  0  0
 51120  1  0  0  0
 51121  1  0  0  0
 52122  1  0  0  0
 52123  1  0  0  0
 53 54  1  0  0  0
 54 55  2  0  0  0
 54124  1  0  0  0
 55 57  1  0  0  0
 55125  1  0  0  0
 56 69  2  0  0  0
 57 58  2  0  0  0
 57126  1  0  0  0
 58127  1  0  0  0
 59 60  1  0  0  0
 59 61  1  0  0  0
 59 62  1  0  0  0
 60128  1  0  0  0
 60129  1  0  0  0
 60130  1  0  0  0
 61131  1  0  0  0
 61132  1  0  0  0
 61133  1  0  0  0
 62134  1  0  0  0
 62135  1  0  0  0
 62136  1  0  0  0
 63 65  1  0  0  0
 63137  1  0  0  0
 63138  1  0  0  0
 63139  1  0  0  0
 64140  1  0  0  0
 65141  1  0  0  0
 68 80  1  0  0  0
 71 72  2  0  0  0
 71 74  1  0  0  0
 71142  1  0  0  0
 72 75  1  0  0  0
 72143  1  0  0  0
 73 74  2  0  0  0
 73 76  1  0  0  0
 73144  1  0  0  0
 74 77  1  0  0  0
 75 76  2  0  0  0
 75 78  1  0  0  0
 76 82  1  0  0  0
 77 79  1  0  0  0
 77145  1  0  0  0
 77146  1  0  0  0
 78 81  1  0  0  0
 78147  1  0  0  0
 78148  1  0  0  0
 79 80  1  0  0  0
 79149  1  0  0  0
 79150  1  0  0  0
 80151  1  0  0  0
 80152  1  0  0  0
 81153  1  0  0  0
M  ISO  4   1 100  68 101  80 101  81 100
M  END
> <chiral flag>
0

> <version>
0

> <s_m_source_file>
/data/baiqing/PycharmProjects/Reinvent-master-3.2/result/LINK_invent/BTK/process_docking_weight1_custom_sum_contain_oxygen_bond_distance_aromatic_linkinvent_7_9_3/rearranged_h_0037.sdf

> <i_m_source_file_index>
46

> <r_mmod_Potential_Energy-OPLS-2005>
24.9444370269775

> <r_mmod_Stretch_Energy-OPLS-2005>
71.1998901367188

> <r_mmod_Bend_Energy-OPLS-2005>
145.390655517578

> <r_mmod_Torsional_Energy-OPLS-2005>
196.074768066406

> <r_mmod_Improper_Torsional_Energy-OPLS-2005>
3.97757863998413

> <r_mmod_Van_der_Waal_Energy-OPLS-2005>
155.782791137695

> <r_mmod_Electrostatic_Energy-OPLS-2005>
-387.659301757812

> <r_mmod_Solvation_Energy-OPLS-2005>
-208.590042114258

> <b_mmod_Minimization_Converged-OPLS-2005>
0

> <r_mmod_RMS_Derivative-OPLS-2005>
6.3945689201355

$$$$
46
                    3D
 Structure written by MMmdl.
166174  0  0  1  0            999 V2000
  -30.7249  -14.4318   20.6504 C   0  0  0  0  0  0
  -30.4251  -12.3206   19.4019 C   0  0  0  0  0  0
  -29.4835  -12.5331   18.2001 C   0  0  0  0  0  0
  -28.0039  -12.4007   18.6113 C   0  0  0  0  0  0
  -27.6637  -13.2135   19.8883 C   0  0  2  0  0  0
  -28.7069  -12.9589   20.9995 C   0  0  0  0  0  0
  -25.2564  -13.8198   20.5678 C   0  0  0  0  0  0
  -24.1827  -13.0458   20.9146 C   0  0  0  0  0  0
  -24.6392  -11.6927   20.8700 C   0  0  0  0  0  0
  -23.9064  -10.4306   21.0387 C   0  0  0  0  0  0
  -24.3624   -9.4234   21.9165 C   0  0  0  0  0  0
  -23.6301   -8.2266   22.0743 C   0  0  0  0  0  0
  -22.4274   -8.0298   21.3514 C   0  0  0  0  0  0
  -21.9902   -9.0272   20.4627 C   0  0  0  0  0  0
  -22.7221  -10.2156   20.3043 C   0  0  0  0  0  0
  -21.6857   -6.0763   22.5271 C   0  0  0  0  0  0
  -21.4023   -6.5642   23.8218 C   0  0  0  0  0  0
  -21.3648   -5.6779   24.9147 C   0  0  0  0  0  0
  -21.6048   -4.3053   24.7197 C   0  0  0  0  0  0
  -21.8820   -3.8165   23.4307 C   0  0  0  0  0  0
  -21.9185   -4.6992   22.3377 C   0  0  0  0  0  0
  -22.7829  -13.5235   21.1778 C   0  0  0  0  0  0
  -22.1645   -4.2191   21.0954 F   0  0  0  0  0  0
  -21.5626   -3.4525   25.7705 F   0  0  0  0  0  0
  -30.0413  -13.2734   20.4568 N   0  0  0  0  0  0
  -26.3032  -12.9385   20.3443 N   0  0  0  0  0  0
  -25.9335  -11.6532   20.5788 N   0  0  0  0  0  0
  -22.0477  -12.8270   22.0386 N   0  0  0  0  0  0
  -25.4258  -15.1915   20.4006 N   0  0  0  0  0  0
  -31.7999  -14.6771   20.0939 O   0  0  0  0  0  0
  -21.6635   -6.8902   21.4233 O   0  0  0  0  0  0
  -22.3495  -14.5513   20.6557 O   0  0  0  0  0  0
  -24.6141  -31.8689   23.2128 C   0  0  0  0  0  0
  -25.9060  -32.4815   23.8383 C   0  0  1  0  0  0
  -27.2294  -27.4447   20.0598 C   0  0  0  0  0  0
  -25.5923  -33.8617   24.2316 N   0  0  0  0  0  0
  -23.3991  -30.4975   21.5520 C   0  0  2  0  0  0
  -24.8404  -28.9647   20.1131 C   0  0  0  0  0  0
  -22.7389  -29.4696   22.4982 C   0  0  0  0  0  0
  -18.0276  -28.1385   22.8497 C   0  0  0  0  0  0
  -24.1490  -36.7311   23.2636 C   0  0  0  0  0  0
  -25.9310  -30.8310   21.3697 C   0  0  0  0  0  0
  -26.0042  -29.4688   20.7090 C   0  0  0  0  0  0
  -27.2006  -28.7169   20.6780 C   0  0  0  0  0  0
  -26.0422  -26.9554   19.4691 C   0  0  0  0  0  0
  -24.8555  -27.7053   19.4937 C   0  0  0  0  0  0
  -23.6047  -29.8337   20.1651 C   0  0  0  0  0  0
  -25.4116  -36.3100   24.0325 C   0  0  1  0  0  0
  -20.5864  -28.3685   23.1318 C   0  0  2  0  0  0
  -20.6776  -26.9427   22.5422 C   0  0  0  0  0  0
  -19.5754  -26.6399   21.5228 C   0  0  0  0  0  0
  -18.1926  -26.7936   22.1629 C   0  0  0  0  0  0
  -19.1516  -28.8845   23.2916 C   0  0  0  0  0  0
  -18.9452  -30.1448   23.8929 C   0  0  0  0  0  0
  -17.6458  -30.6595   24.0581 C   0  0  0  0  0  0
  -25.9040  -34.9462   23.5114 C   0  0  0  0  0  0
  -16.5347  -29.9110   23.6325 C   0  0  0  0  0  0
  -16.7259  -28.6518   23.0346 C   0  0  0  0  0  0
  -26.4495  -31.6585   25.0710 C   0  0  0  0  0  0
  -25.3772  -31.3719   26.1468 C   0  0  0  0  0  0
  -27.0315  -30.3003   24.6125 C   0  0  0  0  0  0
  -27.6054  -32.4319   25.7478 C   0  0  0  0  0  0
  -27.5586  -37.1809   24.8458 C   0  0  0  0  0  0
  -21.4105  -29.3059   22.3703 N   0  0  0  0  0  0
  -26.4299  -37.3792   23.9399 N   0  0  0  0  0  0
  -24.6665  -31.0796   22.1026 N   0  0  0  0  0  0
  -23.4159  -28.8229   23.3021 O   0  0  0  0  0  0
  -28.4102  -26.7314   20.0199 O   0  0  0  0  0  0
  -26.5607  -34.8924   22.4678 O   0  0  0  0  0  0
  -23.5344  -32.1432   23.7539 O   0  0  0  0  0  0
  -28.0178  -21.0257   19.0308 C   0  0  0  0  0  0
  -29.2714  -20.3844   18.9989 C   0  0  0  0  0  0
  -30.3863  -21.2548   18.9814 C   0  0  0  0  0  0
  -28.9946  -23.0886   18.8926 C   0  0  0  0  0  0
  -32.2702  -20.3069   17.5696 C   0  0  0  0  0  0
  -28.0587  -24.9402   17.4312 C   0  0  0  0  0  0
  -29.2980  -18.8559   18.7894 C   0  0  0  0  0  0
  -31.8326  -20.8001   18.9519 C   0  0  0  0  0  0
  -30.2303  -17.9294   19.6142 C   0  0  0  0  0  0
  -29.9238  -17.8259   21.1184 C   0  0  0  0  0  0
  -30.6480  -16.6564   21.8311 C   0  0  0  0  0  0
  -28.3409  -25.2913   20.0116 C   0  0  0  0  0  0
  -28.8467  -24.6078   18.7154 C   0  0  1  0  0  0
  -27.8850  -22.3653   18.9862 N   0  0  0  0  0  0
  -30.2271  -22.5924   18.9048 N   0  0  0  0  0  0
  -30.1328  -15.3319   21.4554 N   0  0  0  0  0  0
  -31.4609  -12.4487   19.0802 H   0  0  0  0  0  0
  -30.3598  -11.2986   19.7747 H   0  0  0  0  0  0
  -29.7178  -11.8261   17.4049 H   0  0  0  0  0  0
  -29.6582  -13.5256   17.7846 H   0  0  0  0  0  0
  -27.7852  -11.3442   18.7728 H   0  0  0  0  0  0
  -27.3603  -12.7219   17.7906 H   0  0  0  0  0  0
  -27.7187  -14.2689   19.6218 H   0  0  0  0  0  0
  -28.6888  -11.9135   21.3092 H   0  0  0  0  0  0
  -28.4586  -13.5243   21.8975 H   0  0  0  0  0  0
  -25.2784   -9.5722   22.4720 H   0  0  0  0  0  0
  -24.0022   -7.4671   22.7462 H   0  0  0  0  0  0
  -21.0829   -8.8773   19.8937 H   0  0  0  0  0  0
  -22.3671  -10.9691   19.6153 H   0  0  0  0  0  0
  -21.2038   -7.6157   23.9721 H   0  0  0  0  0  0
  -21.1455   -6.0504   25.9049 H   0  0  0  0  0  0
  -22.0621   -2.7639   23.2771 H   0  0  0  0  0  0
  -22.4056  -11.9956   22.4853 H   0  0  0  0  0  0
  -21.1083  -13.1314   22.2535 H   0  0  0  0  0  0
  -24.6601  -15.8488   20.5138 H   0  0  0  0  0  0
  -26.2817  -15.6357   20.0914 H   0  0  0  0  0  0
  -26.7128  -32.5516   23.1130 H   0  0  0  0  0  0
  -25.0068  -33.9781   25.0459 H   0  0  0  0  0  0
  -22.6884  -31.3163   21.4173 H   0  0  0  0  0  0
  -23.3752  -35.9643   23.3280 H   0  0  0  0  0  0
  -24.3592  -36.8953   22.2056 H   0  0  0  0  0  0
  -23.7245  -37.6507   23.6673 H   0  0  0  0  0  0
  -26.0575  -31.6051   20.6108 H   0  0  0  0  0  0
  -26.8138  -30.8696   21.9970 H   0  0  0  0  0  0
  -28.1004  -29.1087   21.1330 H   0  0  0  0  0  0
  -26.0175  -26.0042   18.9632 H   0  0  0  0  0  0
  -23.9645  -27.3168   19.0204 H   0  0  0  0  0  0
  -23.7128  -30.6118   19.4075 H   0  0  0  0  0  0
  -22.7261  -29.2560   19.8695 H   0  0  0  0  0  0
  -25.1301  -36.1949   25.0820 H   0  0  0  0  0  0
  -20.9982  -28.3286   24.1432 H   0  0  0  0  0  0
  -20.5729  -26.2303   23.3616 H   0  0  0  0  0  0
  -21.6643  -26.7503   22.1193 H   0  0  0  0  0  0
  -19.6928  -25.6321   21.1246 H   0  0  0  0  0  0
  -19.6693  -27.3221   20.6771 H   0  0  0  0  0  0
  -17.4208  -26.6698   21.4019 H   0  0  0  0  0  0
  -18.0315  -26.0067   22.9010 H   0  0  0  0  0  0
  -19.7930  -30.7259   24.2313 H   0  0  0  0  0  0
  -17.5018  -31.6281   24.5177 H   0  0  0  0  0  0
  -15.5355  -30.3031   23.7630 H   0  0  0  0  0  0
  -15.8660  -28.0868   22.7039 H   0  0  0  0  0  0
  -24.5922  -30.7096   25.7810 H   0  0  0  0  0  0
  -24.9018  -32.2899   26.4924 H   0  0  0  0  0  0
  -25.8137  -30.8868   27.0201 H   0  0  0  0  0  0
  -26.2856  -29.6759   24.1198 H   0  0  0  0  0  0
  -27.4053  -29.7261   25.4607 H   0  0  0  0  0  0
  -27.8711  -30.4262   23.9290 H   0  0  0  0  0  0
  -27.2645  -33.3604   26.2059 H   0  0  0  0  0  0
  -28.3866  -32.6898   25.0322 H   0  0  0  0  0  0
  -28.0708  -31.8447   26.5396 H   0  0  0  0  0  0
  -28.2592  -38.0114   24.7513 H   0  0  0  0  0  0
  -28.1088  -36.2648   24.6261 H   0  0  0  0  0  0
  -27.2304  -37.1432   25.8859 H   0  0  0  0  0  0
  -20.9246  -29.8761   21.6917 H   0  0  0  0  0  0
  -26.0171  -38.2861   24.1413 H   0  0  0  0  0  0
  -27.0967  -20.4596   19.0169 H   0  0  0  0  0  0
  -33.2861  -19.9175   17.6045 H   0  0  0  0  0  0
  -32.2430  -21.1159   16.8385 H   0  0  0  0  0  0
  -31.6168  -19.5129   17.2128 H   0  0  0  0  0  0
  -28.5277  -24.4738   16.5648 H   0  0  0  0  0  0
  -28.0222  -26.0142   17.2475 H   0  0  0  0  0  0
  -27.0358  -24.5687   17.4762 H   0  0  0  0  0  0
  -29.5167  -18.6885   17.7350 H   0  0  0  0  0  0
  -28.2789  -18.4836   18.9133 H   0  0  0  0  0  0
  -32.0052  -20.0669   19.7330 H   0  0  0  0  0  0
  -32.4742  -21.6361   19.2309 H   0  0  0  0  0  0
  -31.2857  -18.1366   19.4536 H   0  0  0  0  0  0
  -30.1079  -16.9335   19.1898 H   0  0  0  0  0  0
  -28.8479  -17.7225   21.2675 H   0  0  0  0  0  0
  -30.2088  -18.7603   21.6045 H   0  0  0  0  0  0
  -30.5001  -16.7701   22.9058 H   0  0  0  0  0  0
  -31.7279  -16.7181   21.6854 H   0  0  0  0  0  0
  -28.9983  -24.9703   20.8182 H   0  0  0  0  0  0
  -27.3619  -24.9048   20.2940 H   0  0  0  0  0  0
  -29.8525  -24.9950   18.5441 H   0  0  0  0  0  0
  -29.2531  -15.0533   21.8682 H   0  0  0  0  0  0
  1 25  1  0  0  0
  1 30  2  0  0  0
  1 86  1  0  0  0
  2  3  1  0  0  0
  2 25  1  0  0  0
  2 87  1  0  0  0
  2 88  1  0  0  0
  3  4  1  0  0  0
  3 89  1  0  0  0
  3 90  1  0  0  0
  4  5  1  0  0  0
  4 91  1  0  0  0
  4 92  1  0  0  0
  5  6  1  0  0  0
  5 26  1  0  0  0
  5 93  1  0  0  0
  6 25  1  0  0  0
  6 94  1  0  0  0
  6 95  1  0  0  0
  7  8  2  0  0  0
  7 26  1  0  0  0
  7 29  1  0  0  0
  8  9  1  0  0  0
  8 22  1  0  0  0
  9 10  1  0  0  0
  9 27  2  0  0  0
 10 11  2  0  0  0
 10 15  1  0  0  0
 11 12  1  0  0  0
 11 96  1  0  0  0
 12 13  2  0  0  0
 12 97  1  0  0  0
 13 14  1  0  0  0
 13 31  1  0  0  0
 14 15  2  0  0  0
 14 98  1  0  0  0
 15 99  1  0  0  0
 16 17  2  0  0  0
 16 21  1  0  0  0
 16 31  1  0  0  0
 17 18  1  0  0  0
 17100  1  0  0  0
 18 19  2  0  0  0
 18101  1  0  0  0
 19 20  1  0  0  0
 19 24  1  0  0  0
 20 21  2  0  0  0
 20102  1  0  0  0
 21 23  1  0  0  0
 22 28  1  0  0  0
 22 32  2  0  0  0
 26 27  1  0  0  0
 28103  1  0  0  0
 28104  1  0  0  0
 29105  1  0  0  0
 29106  1  0  0  0
 33 34  1  0  0  0
 33 66  1  0  0  0
 33 70  2  0  0  0
 34 36  1  0  0  0
 34 59  1  0  0  0
 34107  1  0  0  0
 35 44  2  0  0  0
 35 45  1  0  0  0
 35 68  1  0  0  0
 36 56  1  0  0  0
 36108  1  0  0  0
 37 39  1  0  0  0
 37 47  1  0  0  0
 37 66  1  0  0  0
 37109  1  0  0  0
 38 43  2  0  0  0
 38 46  1  0  0  0
 38 47  1  0  0  0
 39 64  1  0  0  0
 39 67  2  0  0  0
 40 52  1  0  0  0
 40 53  2  0  0  0
 40 58  1  0  0  0
 41110  1  0  0  0
 41111  1  0  0  0
 41112  1  0  0  0
 41 48  1  0  0  0
 42 43  1  0  0  0
 42 66  1  0  0  0
 42113  1  0  0  0
 42114  1  0  0  0
 43 44  1  0  0  0
 44115  1  0  0  0
 45 46  2  0  0  0
 45116  1  0  0  0
 46117  1  0  0  0
 47118  1  0  0  0
 47119  1  0  0  0
 48 56  1  0  0  0
 48 65  1  0  0  0
 48120  1  0  0  0
 49 50  1  0  0  0
 49 53  1  0  0  0
 49 64  1  0  0  0
 49121  1  0  0  0
 50 51  1  0  0  0
 50122  1  0  0  0
 50123  1  0  0  0
 51 52  1  0  0  0
 51124  1  0  0  0
 51125  1  0  0  0
 52126  1  0  0  0
 52127  1  0  0  0
 53 54  1  0  0  0
 54 55  2  0  0  0
 54128  1  0  0  0
 55 57  1  0  0  0
 55129  1  0  0  0
 56 69  2  0  0  0
 57 58  2  0  0  0
 57130  1  0  0  0
 58131  1  0  0  0
 59 60  1  0  0  0
 59 61  1  0  0  0
 59 62  1  0  0  0
 60132  1  0  0  0
 60133  1  0  0  0
 60134  1  0  0  0
 61135  1  0  0  0
 61136  1  0  0  0
 61137  1  0  0  0
 62138  1  0  0  0
 62139  1  0  0  0
 62140  1  0  0  0
 63 65  1  0  0  0
 63141  1  0  0  0
 63142  1  0  0  0
 63143  1  0  0  0
 64144  1  0  0  0
 65145  1  0  0  0
 68 82  1  0  0  0
 71 72  2  0  0  0
 71 84  1  0  0  0
 71146  1  0  0  0
 72 73  1  0  0  0
 72 77  1  0  0  0
 73 78  1  0  0  0
 73 85  2  0  0  0
 74 83  1  0  0  0
 74 84  2  0  0  0
 74 85  1  0  0  0
 75 78  1  0  0  0
 75147  1  0  0  0
 75148  1  0  0  0
 75149  1  0  0  0
 76150  1  0  0  0
 76151  1  0  0  0
 76152  1  0  0  0
 76 83  1  0  0  0
 77 79  1  0  0  0
 77153  1  0  0  0
 77154  1  0  0  0
 78155  1  0  0  0
 78156  1  0  0  0
 79 80  1  0  0  0
 79157  1  0  0  0
 79158  1  0  0  0
 80 81  1  0  0  0
 80159  1  0  0  0
 80160  1  0  0  0
 81 86  1  0  0  0
 81161  1  0  0  0
 81162  1  0  0  0
 82 83  1  0  0  0
 82163  1  0  0  0
 82164  1  0  0  0
 83165  1  0  0  0
 86166  1  0  0  0
M  ISO  4   1 100  68 101  82 101  86 100
M  END
> <chiral flag>
0

> <version>
0

> <s_m_source_file>
/data/baiqing/PycharmProjects/Reinvent-master-3.2/result/LINK_invent/BTK/process_docking_weight1_custom_sum_contain_oxygen_bond_distance_aromatic_linkinvent_7_9_3/rearranged_h_0037.sdf

> <i_m_source_file_index>
47

> <r_mmod_Potential_Energy-OPLS-2005>
-482.0302734375

> <r_mmod_Stretch_Energy-OPLS-2005>
37.1406097412109

> <r_mmod_Bend_Energy-OPLS-2005>
122.397048950195

> <r_mmod_Torsional_Energy-OPLS-2005>
185.368148803711

> <r_mmod_Improper_Torsional_Energy-OPLS-2005>
3.06346774101257

> <r_mmod_Van_der_Waal_Energy-OPLS-2005>
158.681488037109

> <r_mmod_Electrostatic_Energy-OPLS-2005>
-778.062683105469

> <r_mmod_Solvation_Energy-OPLS-2005>
-220.221282958984

> <b_mmod_Minimization_Converged-OPLS-2005>
0

> <r_mmod_RMS_Derivative-OPLS-2005>
3.57172918319702

$$$$
47
                    3D
 Structure written by MMmdl.
163171  0  0  1  0            999 V2000
  -30.5819  -14.7428   20.4585 C   0  0  0  0  0  0
  -30.4232  -12.4378   19.4977 C   0  0  0  0  0  0
  -29.5258  -12.5059   18.2428 C   0  0  0  0  0  0
  -28.0428  -12.3382   18.6396 C   0  0  0  0  0  0
  -27.6387  -13.2319   19.8442 C   0  0  2  0  0  0
  -28.6716  -13.1667   20.9902 C   0  0  0  0  0  0
  -25.2516  -13.8193   20.5702 C   0  0  0  0  0  0
  -24.1812  -13.0440   20.9215 C   0  0  0  0  0  0
  -24.6361  -11.6912   20.8713 C   0  0  0  0  0  0
  -23.9005  -10.4301   21.0399 C   0  0  0  0  0  0
  -24.3567   -9.4229   21.9189 C   0  0  0  0  0  0
  -23.6283   -8.2244   22.0747 C   0  0  0  0  0  0
  -22.4271   -8.0249   21.3531 C   0  0  0  0  0  0
  -21.9895   -9.0214   20.4637 C   0  0  0  0  0  0
  -22.7186  -10.2107   20.3040 C   0  0  0  0  0  0
  -21.6868   -6.0699   22.5288 C   0  0  0  0  0  0
  -21.4013   -6.5614   23.8209 C   0  0  0  0  0  0
  -21.3670   -5.6758   24.9186 C   0  0  0  0  0  0
  -21.6067   -4.3016   24.7238 C   0  0  0  0  0  0
  -21.8823   -3.8094   23.4357 C   0  0  0  0  0  0
  -21.9202   -4.6925   22.3408 C   0  0  0  0  0  0
  -22.7833  -13.5239   21.1856 C   0  0  0  0  0  0
  -22.1678   -4.2116   21.0993 F   0  0  0  0  0  0
  -21.5634   -3.4484   25.7738 F   0  0  0  0  0  0
  -29.9785  -13.5081   20.4179 N   0  0  0  0  0  0
  -26.2898  -12.9384   20.3167 N   0  0  0  0  0  0
  -25.9291  -11.6522   20.5648 N   0  0  0  0  0  0
  -22.0396  -12.8246   22.0369 N   0  0  0  0  0  0
  -25.4138  -15.1941   20.4215 N   0  0  0  0  0  0
  -31.7759  -14.8548   20.1538 O   0  0  0  0  0  0
  -21.6633   -6.8852   21.4248 O   0  0  0  0  0  0
  -22.3534  -14.5551   20.6686 O   0  0  0  0  0  0
  -24.6317  -31.8538   23.1951 C   0  0  0  0  0  0
  -25.9155  -32.4743   23.8301 C   0  0  1  0  0  0
  -27.2216  -27.2615   20.1266 C   0  0  0  0  0  0
  -25.5958  -33.8547   24.2249 N   0  0  0  0  0  0
  -23.4273  -30.4713   21.5364 C   0  0  2  0  0  0
  -24.8755  -28.9154   20.0961 C   0  0  0  0  0  0
  -22.7535  -29.4537   22.4886 C   0  0  0  0  0  0
  -18.0313  -28.1390   22.8484 C   0  0  0  0  0  0
  -24.1477  -36.7247   23.2630 C   0  0  0  0  0  0
  -25.9686  -30.7642   21.3692 C   0  0  0  0  0  0
  -26.0380  -29.3835   20.7181 C   0  0  0  0  0  0
  -27.2056  -28.5631   20.7332 C   0  0  0  0  0  0
  -26.0370  -26.8505   19.4817 C   0  0  0  0  0  0
  -24.8787  -27.6585   19.4687 C   0  0  0  0  0  0
  -23.6448  -29.8041   20.1501 C   0  0  0  0  0  0
  -25.4095  -36.3037   24.0344 C   0  0  1  0  0  0
  -20.5913  -28.3657   23.1301 C   0  0  2  0  0  0
  -20.6775  -26.9379   22.5414 C   0  0  0  0  0  0
  -19.5754  -26.6384   21.5212 C   0  0  0  0  0  0
  -18.1934  -26.7954   22.1615 C   0  0  0  0  0  0
  -19.1568  -28.8850   23.2890 C   0  0  0  0  0  0
  -18.9472  -30.1466   23.8890 C   0  0  0  0  0  0
  -17.6461  -30.6590   24.0544 C   0  0  0  0  0  0
  -25.9064  -34.9429   23.5092 C   0  0  0  0  0  0
  -16.5349  -29.9068   23.6330 C   0  0  0  0  0  0
  -16.7299  -28.6499   23.0347 C   0  0  0  0  0  0
  -26.4539  -31.6570   25.0691 C   0  0  0  0  0  0
  -25.3779  -31.3724   26.1430 C   0  0  0  0  0  0
  -27.0332  -30.2994   24.6096 C   0  0  0  0  0  0
  -27.6144  -32.4254   25.7440 C   0  0  0  0  0  0
  -27.5580  -37.1740   24.8448 C   0  0  0  0  0  0
  -21.4234  -29.3002   22.3695 N   0  0  0  0  0  0
  -26.4232  -37.3770   23.9473 N   0  0  0  0  0  0
  -24.6952  -31.0516   22.0900 N   0  0  0  0  0  0
  -23.4262  -28.8088   23.2973 O   0  0  0  0  0  0
  -28.3301  -26.3976   20.2464 O   0  0  0  0  0  0
  -26.5598  -34.8913   22.4634 O   0  0  0  0  0  0
  -23.5487  -32.1334   23.7284 O   0  0  0  0  0  0
  -27.0383  -22.9864   19.8293 C   0  0  0  0  0  0
  -29.1773  -22.6083   20.0719 C   0  0  0  0  0  0
  -28.2927  -23.6634   19.8488 C   0  0  0  0  0  0
  -27.1902  -21.6054   19.8556 C   0  0  0  0  0  0
  -24.7108  -21.3028   19.3591 C   0  0  0  0  0  0
  -25.8306  -19.7019   20.8430 C   0  0  0  0  0  0
  -26.3322  -19.7640   18.3242 C   0  0  0  0  0  0
  -28.5648  -25.1829   19.4130 C   0  0  0  0  0  0
  -29.0336  -18.5281   20.5568 C   0  0  0  0  0  0
  -29.3942  -20.0055   19.9667 C   0  0  0  0  0  0
  -30.1215  -17.3322   20.3461 C   0  0  0  0  0  0
  -26.0691  -20.5932   19.6070 C   0  0  0  0  0  0
  -28.5657  -21.3174   20.0442 N   0  0  0  0  0  0
  -29.7792  -15.8656   20.6152 N   0  0  0  0  0  0
  -31.4765  -12.5394   19.2264 H   0  0  0  0  0  0
  -30.3241  -11.4628   19.9798 H   0  0  0  0  0  0
  -29.8225  -11.7340   17.5320 H   0  0  0  0  0  0
  -29.6746  -13.4591   17.7325 H   0  0  0  0  0  0
  -27.8892  -11.2875   18.8947 H   0  0  0  0  0  0
  -27.3990  -12.5384   17.7834 H   0  0  0  0  0  0
  -27.6353  -14.2534   19.4647 H   0  0  0  0  0  0
  -28.6950  -12.1746   21.4449 H   0  0  0  0  0  0
  -28.3980  -13.8576   21.7882 H   0  0  0  0  0  0
  -25.2700   -9.5745   22.4756 H   0  0  0  0  0  0
  -24.0017   -7.4638   22.7468 H   0  0  0  0  0  0
  -21.0811   -8.8683   19.8963 H   0  0  0  0  0  0
  -22.3614  -10.9602   19.6117 H   0  0  0  0  0  0
  -21.1982   -7.6115   23.9697 H   0  0  0  0  0  0
  -21.1512   -6.0487   25.9092 H   0  0  0  0  0  0
  -22.0594   -2.7552   23.2827 H   0  0  0  0  0  0
  -22.3924  -11.9910   22.4812 H   0  0  0  0  0  0
  -21.1012  -13.1331   22.2469 H   0  0  0  0  0  0
  -24.6254  -15.8224   20.5385 H   0  0  0  0  0  0
  -26.2437  -15.6509   20.0668 H   0  0  0  0  0  0
  -26.7204  -32.5389   23.1027 H   0  0  0  0  0  0
  -25.0212  -33.9675   25.0463 H   0  0  0  0  0  0
  -22.7229  -31.2947   21.3923 H   0  0  0  0  0  0
  -23.3795  -35.9511   23.3181 H   0  0  0  0  0  0
  -24.3621  -36.8972   22.2074 H   0  0  0  0  0  0
  -23.7149  -37.6389   23.6706 H   0  0  0  0  0  0
  -26.0983  -31.5174   20.5905 H   0  0  0  0  0  0
  -26.8551  -30.8250   21.9889 H   0  0  0  0  0  0
  -28.0870  -28.9089   21.2528 H   0  0  0  0  0  0
  -25.9768  -25.8712   19.0287 H   0  0  0  0  0  0
  -23.9848  -27.2946   18.9801 H   0  0  0  0  0  0
  -23.7668  -30.5814   19.3943 H   0  0  0  0  0  0
  -22.7646  -29.2344   19.8479 H   0  0  0  0  0  0
  -25.1261  -36.1832   25.0832 H   0  0  0  0  0  0
  -21.0025  -28.3192   24.1416 H   0  0  0  0  0  0
  -20.5648  -26.2267   23.3609 H   0  0  0  0  0  0
  -21.6639  -26.7376   22.1198 H   0  0  0  0  0  0
  -19.6889  -25.6296   21.1242 H   0  0  0  0  0  0
  -19.6729  -27.3195   20.6746 H   0  0  0  0  0  0
  -17.4222  -26.6745   21.3992 H   0  0  0  0  0  0
  -18.0293  -26.0108   22.9020 H   0  0  0  0  0  0
  -19.7937  -30.7288   24.2253 H   0  0  0  0  0  0
  -17.5011  -31.6279   24.5126 H   0  0  0  0  0  0
  -15.5339  -30.2936   23.7696 H   0  0  0  0  0  0
  -15.8716  -28.0819   22.7021 H   0  0  0  0  0  0
  -24.5929  -30.7103   25.7773 H   0  0  0  0  0  0
  -24.9003  -32.2899   26.4890 H   0  0  0  0  0  0
  -25.8127  -30.8873   27.0180 H   0  0  0  0  0  0
  -26.2853  -29.6782   24.1149 H   0  0  0  0  0  0
  -27.4099  -29.7228   25.4557 H   0  0  0  0  0  0
  -27.8727  -30.4331   23.9259 H   0  0  0  0  0  0
  -27.2842  -33.3613   26.1965 H   0  0  0  0  0  0
  -28.3985  -32.6684   25.0254 H   0  0  0  0  0  0
  -28.0756  -31.8362   26.5379 H   0  0  0  0  0  0
  -28.2469  -38.0154   24.7627 H   0  0  0  0  0  0
  -28.1173  -36.2691   24.6035 H   0  0  0  0  0  0
  -27.2359  -37.1115   25.8854 H   0  0  0  0  0  0
  -20.9436  -29.8744   21.6898 H   0  0  0  0  0  0
  -26.0092  -38.2805   24.1582 H   0  0  0  0  0  0
  -26.0978  -23.4887   19.6528 H   0  0  0  0  0  0
  -30.2595  -22.6520   20.1328 H   0  0  0  0  0  0
  -24.4264  -21.9392   20.1999 H   0  0  0  0  0  0
  -23.8996  -20.5815   19.2319 H   0  0  0  0  0  0
  -24.7252  -21.9240   18.4610 H   0  0  0  0  0  0
  -25.2813  -20.2413   21.6180 H   0  0  0  0  0  0
  -26.7487  -19.3787   21.3187 H   0  0  0  0  0  0
  -25.2462  -18.8130   20.5926 H   0  0  0  0  0  0
  -26.5413  -20.4117   17.4680 H   0  0  0  0  0  0
  -25.4648  -19.1554   18.0536 H   0  0  0  0  0  0
  -27.1760  -19.0887   18.4127 H   0  0  0  0  0  0
  -28.0869  -25.3292   18.4437 H   0  0  0  0  0  0
  -29.6308  -25.2199   19.1748 H   0  0  0  0  0  0
  -28.1048  -18.1789   20.1167 H   0  0  0  0  0  0
  -28.8439  -18.6110   21.6288 H   0  0  0  0  0  0
  -29.5818  -19.8550   18.9049 H   0  0  0  0  0  0
  -30.3781  -20.2502   20.3713 H   0  0  0  0  0  0
  -30.9995  -17.5737   20.9478 H   0  0  0  0  0  0
  -30.4704  -17.3730   19.3120 H   0  0  0  0  0  0
  -28.8075  -15.6649   20.8118 H   0  0  0  0  0  0
  1 25  1  0  0  0
  1 30  2  0  0  0
  1 84  1  0  0  0
  2  3  1  0  0  0
  2 25  1  0  0  0
  2 85  1  0  0  0
  2 86  1  0  0  0
  3  4  1  0  0  0
  3 87  1  0  0  0
  3 88  1  0  0  0
  4  5  1  0  0  0
  4 89  1  0  0  0
  4 90  1  0  0  0
  5  6  1  0  0  0
  5 26  1  0  0  0
  5 91  1  0  0  0
  6 25  1  0  0  0
  6 92  1  0  0  0
  6 93  1  0  0  0
  7  8  2  0  0  0
  7 26  1  0  0  0
  7 29  1  0  0  0
  8  9  1  0  0  0
  8 22  1  0  0  0
  9 10  1  0  0  0
  9 27  2  0  0  0
 10 11  2  0  0  0
 10 15  1  0  0  0
 11 12  1  0  0  0
 11 94  1  0  0  0
 12 13  2  0  0  0
 12 95  1  0  0  0
 13 14  1  0  0  0
 13 31  1  0  0  0
 14 15  2  0  0  0
 14 96  1  0  0  0
 15 97  1  0  0  0
 16 17  2  0  0  0
 16 21  1  0  0  0
 16 31  1  0  0  0
 17 18  1  0  0  0
 17 98  1  0  0  0
 18 19  2  0  0  0
 18 99  1  0  0  0
 19 20  1  0  0  0
 19 24  1  0  0  0
 20 21  2  0  0  0
 20100  1  0  0  0
 21 23  1  0  0  0
 22 28  1  0  0  0
 22 32  2  0  0  0
 26 27  1  0  0  0
 28101  1  0  0  0
 28102  1  0  0  0
 29103  1  0  0  0
 29104  1  0  0  0
 33 34  1  0  0  0
 33 66  1  0  0  0
 33 70  2  0  0  0
 34 36  1  0  0  0
 34 59  1  0  0  0
 34105  1  0  0  0
 35 44  2  0  0  0
 35 45  1  0  0  0
 35 68  1  0  0  0
 36 56  1  0  0  0
 36106  1  0  0  0
 37 39  1  0  0  0
 37 47  1  0  0  0
 37 66  1  0  0  0
 37107  1  0  0  0
 38 43  2  0  0  0
 38 46  1  0  0  0
 38 47  1  0  0  0
 39 64  1  0  0  0
 39 67  2  0  0  0
 40 52  1  0  0  0
 40 53  2  0  0  0
 40 58  1  0  0  0
 41108  1  0  0  0
 41109  1  0  0  0
 41110  1  0  0  0
 41 48  1  0  0  0
 42 43  1  0  0  0
 42 66  1  0  0  0
 42111  1  0  0  0
 42112  1  0  0  0
 43 44  1  0  0  0
 44113  1  0  0  0
 45 46  2  0  0  0
 45114  1  0  0  0
 46115  1  0  0  0
 47116  1  0  0  0
 47117  1  0  0  0
 48 56  1  0  0  0
 48 65  1  0  0  0
 48118  1  0  0  0
 49 50  1  0  0  0
 49 53  1  0  0  0
 49 64  1  0  0  0
 49119  1  0  0  0
 50 51  1  0  0  0
 50120  1  0  0  0
 50121  1  0  0  0
 51 52  1  0  0  0
 51122  1  0  0  0
 51123  1  0  0  0
 52124  1  0  0  0
 52125  1  0  0  0
 53 54  1  0  0  0
 54 55  2  0  0  0
 54126  1  0  0  0
 55 57  1  0  0  0
 55127  1  0  0  0
 56 69  2  0  0  0
 57 58  2  0  0  0
 57128  1  0  0  0
 58129  1  0  0  0
 59 60  1  0  0  0
 59 61  1  0  0  0
 59 62  1  0  0  0
 60130  1  0  0  0
 60131  1  0  0  0
 60132  1  0  0  0
 61133  1  0  0  0
 61134  1  0  0  0
 61135  1  0  0  0
 62136  1  0  0  0
 62137  1  0  0  0
 62138  1  0  0  0
 63 65  1  0  0  0
 63139  1  0  0  0
 63140  1  0  0  0
 63141  1  0  0  0
 64142  1  0  0  0
 65143  1  0  0  0
 68 78  1  0  0  0
 71 73  1  0  0  0
 71 74  2  0  0  0
 71144  1  0  0  0
 72 73  2  0  0  0
 72 83  1  0  0  0
 72145  1  0  0  0
 73 78  1  0  0  0
 74 82  1  0  0  0
 74 83  1  0  0  0
 75146  1  0  0  0
 75147  1  0  0  0
 75148  1  0  0  0
 75 82  1  0  0  0
 76 82  1  0  0  0
 76149  1  0  0  0
 76150  1  0  0  0
 76151  1  0  0  0
 77 82  1  0  0  0
 77152  1  0  0  0
 77153  1  0  0  0
 77154  1  0  0  0
 78155  1  0  0  0
 78156  1  0  0  0
 79 80  1  0  0  0
 79 81  1  0  0  0
 79157  1  0  0  0
 79158  1  0  0  0
 80 83  1  0  0  0
 80159  1  0  0  0
 80160  1  0  0  0
 81 84  1  0  0  0
 81161  1  0  0  0
 81162  1  0  0  0
 84163  1  0  0  0
M  ISO  4   1 100  68 101  78 101  84 100
M  END
> <chiral flag>
0

> <version>
0

> <s_m_source_file>
/data/baiqing/PycharmProjects/Reinvent-master-3.2/result/LINK_invent/BTK/process_docking_weight1_custom_sum_contain_oxygen_bond_distance_aromatic_linkinvent_7_9_3/rearranged_h_0037.sdf

> <i_m_source_file_index>
48

> <r_mmod_Potential_Energy-OPLS-2005>
214.152328491211

> <r_mmod_Stretch_Energy-OPLS-2005>
131.186889648438

> <r_mmod_Bend_Energy-OPLS-2005>
224.779266357422

> <r_mmod_Torsional_Energy-OPLS-2005>
245.362991333008

> <r_mmod_Improper_Torsional_Energy-OPLS-2005>
10.3532209396362

> <r_mmod_Van_der_Waal_Energy-OPLS-2005>
116.387992858887

> <r_mmod_Electrostatic_Energy-OPLS-2005>
-390.606842041016

> <r_mmod_Solvation_Energy-OPLS-2005>
-211.020797729492

> <b_mmod_Minimization_Converged-OPLS-2005>
0

> <r_mmod_RMS_Derivative-OPLS-2005>
5.33719491958618

$$$$
48
                    3D
 Structure written by MMmdl.
157165  0  0  1  0            999 V2000
  -30.6689  -14.5286   20.5649 C   0  0  0  0  0  0
  -30.4331  -12.3413   19.4282 C   0  0  0  0  0  0
  -29.5015  -12.5144   18.2103 C   0  0  0  0  0  0
  -28.0234  -12.3598   18.6236 C   0  0  0  0  0  0
  -27.6597  -13.2078   19.8716 C   0  0  2  0  0  0
  -28.7023  -13.0066   20.9937 C   0  0  0  0  0  0
  -25.2583  -13.8154   20.5673 C   0  0  0  0  0  0
  -24.1833  -13.0435   20.9176 C   0  0  0  0  0  0
  -24.6392  -11.6897   20.8737 C   0  0  0  0  0  0
  -23.9056  -10.4287   21.0409 C   0  0  0  0  0  0
  -24.3610   -9.4204   21.9186 C   0  0  0  0  0  0
  -23.6285   -8.2238   22.0753 C   0  0  0  0  0  0
  -22.4268   -8.0280   21.3543 C   0  0  0  0  0  0
  -21.9905   -9.0253   20.4644 C   0  0  0  0  0  0
  -22.7231  -10.2132   20.3053 C   0  0  0  0  0  0
  -21.6852   -6.0732   22.5279 C   0  0  0  0  0  0
  -21.4015   -6.5638   23.8210 C   0  0  0  0  0  0
  -21.3660   -5.6791   24.9175 C   0  0  0  0  0  0
  -21.6044   -4.3052   24.7225 C   0  0  0  0  0  0
  -21.8817   -3.8146   23.4344 C   0  0  0  0  0  0
  -21.9192   -4.6962   22.3404 C   0  0  0  0  0  0
  -22.7857  -13.5241   21.1843 C   0  0  0  0  0  0
  -22.1659   -4.2149   21.0980 F   0  0  0  0  0  0
  -21.5629   -3.4536   25.7735 F   0  0  0  0  0  0
  -30.0268  -13.3321   20.4375 N   0  0  0  0  0  0
  -26.3013  -12.9323   20.3344 N   0  0  0  0  0  0
  -25.9318  -11.6483   20.5750 N   0  0  0  0  0  0
  -22.0489  -12.8238   22.0397 N   0  0  0  0  0  0
  -25.4309  -15.1870   20.4086 N   0  0  0  0  0  0
  -31.8111  -14.7218   20.1397 O   0  0  0  0  0  0
  -21.6634   -6.8877   21.4240 O   0  0  0  0  0  0
  -22.3553  -14.5553   20.6698 O   0  0  0  0  0  0
  -24.6203  -31.8652   23.2061 C   0  0  0  0  0  0
  -25.9086  -32.4806   23.8362 C   0  0  1  0  0  0
  -27.2318  -27.3957   20.1074 C   0  0  0  0  0  0
  -25.5942  -33.8604   24.2307 N   0  0  0  0  0  0
  -23.4082  -30.4872   21.5458 C   0  0  2  0  0  0
  -24.8569  -28.9428   20.1174 C   0  0  0  0  0  0
  -22.7431  -29.4649   22.4960 C   0  0  0  0  0  0
  -18.0278  -28.1382   22.8491 C   0  0  0  0  0  0
  -24.1475  -36.7274   23.2630 C   0  0  0  0  0  0
  -25.9412  -30.8179   21.3648 C   0  0  0  0  0  0
  -26.0189  -29.4471   20.7157 C   0  0  0  0  0  0
  -27.2138  -28.6826   20.7049 C   0  0  0  0  0  0
  -26.0557  -26.9152   19.5000 C   0  0  0  0  0  0
  -24.8703  -27.6776   19.5047 C   0  0  0  0  0  0
  -23.6211  -29.8161   20.1617 C   0  0  0  0  0  0
  -25.4098  -36.3097   24.0340 C   0  0  1  0  0  0
  -20.5872  -28.3676   23.1307 C   0  0  2  0  0  0
  -20.6767  -26.9406   22.5407 C   0  0  0  0  0  0
  -19.5737  -26.6388   21.5211 C   0  0  0  0  0  0
  -18.1922  -26.7921   22.1631 C   0  0  0  0  0  0
  -19.1531  -28.8845   23.2895 C   0  0  0  0  0  0
  -18.9452  -30.1453   23.8898 C   0  0  0  0  0  0
  -17.6454  -30.6585   24.0566 C   0  0  0  0  0  0
  -25.9039  -34.9472   23.5110 C   0  0  0  0  0  0
  -16.5343  -29.9085   23.6332 C   0  0  0  0  0  0
  -16.7268  -28.6506   23.0348 C   0  0  0  0  0  0
  -26.4505  -31.6586   25.0695 C   0  0  0  0  0  0
  -25.3775  -31.3727   26.1449 C   0  0  0  0  0  0
  -27.0316  -30.3013   24.6085 C   0  0  0  0  0  0
  -27.6098  -32.4283   25.7455 C   0  0  0  0  0  0
  -27.5570  -37.1791   24.8472 C   0  0  0  0  0  0
  -21.4156  -29.3044   22.3712 N   0  0  0  0  0  0
  -26.4277  -37.3794   23.9425 N   0  0  0  0  0  0
  -24.6745  -31.0723   22.0972 N   0  0  0  0  0  0
  -23.4196  -28.8209   23.3027 O   0  0  0  0  0  0
  -28.3726  -26.6133   20.0722 O   0  0  0  0  0  0
  -26.5576  -34.8934   22.4657 O   0  0  0  0  0  0
  -23.5394  -32.1434   23.7441 O   0  0  0  0  0  0
  -29.4004  -23.0871   20.4394 C   0  0  0  0  0  0
  -27.2528  -23.4351   19.9889 C   0  0  0  0  0  0
  -28.3596  -24.0812   20.4705 C   0  0  0  0  0  0
  -28.9147  -21.8919   19.9527 C   0  0  0  0  0  0
  -26.6310  -21.1597   19.1243 C   0  0  0  0  0  0
  -28.4255  -25.5215   21.0232 C   0  0  0  0  0  0
  -29.5832  -20.5487   19.6438 C   0  0  0  0  0  0
  -29.6221  -19.4596   20.7647 C   0  0  0  0  0  0
  -29.7877  -17.9825   20.2603 C   0  0  0  0  0  0
  -30.2729  -16.9493   21.3294 C   0  0  0  0  0  0
  -27.5722  -22.1213   19.6748 N   0  0  0  0  0  0
  -29.9139  -15.5372   21.0564 N   0  0  0  0  0  0
  -31.4759  -12.4586   19.1281 H   0  0  0  0  0  0
  -30.3506  -11.3333   19.8366 H   0  0  0  0  0  0
  -29.7531  -11.7893   17.4353 H   0  0  0  0  0  0
  -29.6563  -13.5000   17.7679 H   0  0  0  0  0  0
  -27.8488  -11.3038   18.8327 H   0  0  0  0  0  0
  -27.3696  -12.6156   17.7894 H   0  0  0  0  0  0
  -27.6967  -14.2524   19.5629 H   0  0  0  0  0  0
  -28.6923  -11.9727   21.3409 H   0  0  0  0  0  0
  -28.4565  -13.6097   21.8691 H   0  0  0  0  0  0
  -25.2755   -9.5682   22.4758 H   0  0  0  0  0  0
  -23.9997   -7.4631   22.7472 H   0  0  0  0  0  0
  -21.0836   -8.8771   19.8948 H   0  0  0  0  0  0
  -22.3693  -10.9671   19.6158 H   0  0  0  0  0  0
  -21.2008   -7.6145   23.9718 H   0  0  0  0  0  0
  -21.1486   -6.0518   25.9078 H   0  0  0  0  0  0
  -22.0597   -2.7606   23.2844 H   0  0  0  0  0  0
  -22.4079  -11.9889   22.4779 H   0  0  0  0  0  0
  -21.1113  -13.1288   22.2600 H   0  0  0  0  0  0
  -24.6659  -15.8439   20.5156 H   0  0  0  0  0  0
  -26.2836  -15.6244   20.0829 H   0  0  0  0  0  0
  -26.7153  -32.5504   23.1120 H   0  0  0  0  0  0
  -25.0204  -33.9757   25.0529 H   0  0  0  0  0  0
  -22.6985  -31.3053   21.4036 H   0  0  0  0  0  0
  -23.3765  -35.9578   23.3298 H   0  0  0  0  0  0
  -24.3561  -36.8875   22.2040 H   0  0  0  0  0  0
  -23.7197  -37.6471   23.6629 H   0  0  0  0  0  0
  -26.0563  -31.5799   20.5932 H   0  0  0  0  0  0
  -26.8292  -30.8745   21.9829 H   0  0  0  0  0  0
  -28.1130  -29.0706   21.1621 H   0  0  0  0  0  0
  -26.0581  -25.9504   19.0147 H   0  0  0  0  0  0
  -23.9793  -27.2864   19.0324 H   0  0  0  0  0  0
  -23.7350  -30.5890   19.4006 H   0  0  0  0  0  0
  -22.7436  -29.2390   19.8646 H   0  0  0  0  0  0
  -25.1278  -36.1940   25.0835 H   0  0  0  0  0  0
  -20.9971  -28.3236   24.1426 H   0  0  0  0  0  0
  -20.5672  -26.2284   23.3600 H   0  0  0  0  0  0
  -21.6634  -26.7437   22.1199 H   0  0  0  0  0  0
  -19.6887  -25.6302   21.1233 H   0  0  0  0  0  0
  -19.6666  -27.3205   20.6746 H   0  0  0  0  0  0
  -17.4188  -26.6685   21.4032 H   0  0  0  0  0  0
  -18.0313  -26.0058   22.9026 H   0  0  0  0  0  0
  -19.7926  -30.7280   24.2260 H   0  0  0  0  0  0
  -17.5005  -31.6265   24.5170 H   0  0  0  0  0  0
  -15.5347  -30.2996   23.7641 H   0  0  0  0  0  0
  -15.8669  -28.0838   22.7044 H   0  0  0  0  0  0
  -24.5885  -30.7151   25.7781 H   0  0  0  0  0  0
  -24.9060  -32.2917   26.4942 H   0  0  0  0  0  0
  -25.8127  -30.8832   27.0170 H   0  0  0  0  0  0
  -26.2852  -29.6781   24.1142 H   0  0  0  0  0  0
  -27.4083  -29.7245   25.4544 H   0  0  0  0  0  0
  -27.8705  -30.4311   23.9238 H   0  0  0  0  0  0
  -27.2744  -33.3598   26.2026 H   0  0  0  0  0  0
  -28.3924  -32.6801   25.0284 H   0  0  0  0  0  0
  -28.0740  -31.8389   26.5374 H   0  0  0  0  0  0
  -28.2611  -38.0071   24.7530 H   0  0  0  0  0  0
  -28.1052  -36.2611   24.6293 H   0  0  0  0  0  0
  -27.2294  -37.1436   25.8879 H   0  0  0  0  0  0
  -20.9320  -29.8772   21.6935 H   0  0  0  0  0  0
  -26.0163  -38.2867   24.1454 H   0  0  0  0  0  0
  -30.4241  -23.2370   20.7561 H   0  0  0  0  0  0
  -26.2409  -23.7942   19.8549 H   0  0  0  0  0  0
  -25.6054  -21.4721   19.3249 H   0  0  0  0  0  0
  -26.7840  -20.1795   19.5751 H   0  0  0  0  0  0
  -26.7731  -21.0811   18.0458 H   0  0  0  0  0  0
  -29.3616  -25.6204   21.5731 H   0  0  0  0  0  0
  -27.6391  -25.6291   21.7724 H   0  0  0  0  0  0
  -30.6069  -20.7364   19.3179 H   0  0  0  0  0  0
  -29.1023  -20.1152   18.7664 H   0  0  0  0  0  0
  -28.6977  -19.5092   21.3415 H   0  0  0  0  0  0
  -30.4207  -19.7114   21.4635 H   0  0  0  0  0  0
  -30.4892  -17.9614   19.4244 H   0  0  0  0  0  0
  -28.8296  -17.6591   19.8503 H   0  0  0  0  0  0
  -29.8214  -17.2002   22.2904 H   0  0  0  0  0  0
  -31.3504  -17.0436   21.4774 H   0  0  0  0  0  0
  -28.9799  -15.2665   21.3267 H   0  0  0  0  0  0
  1 25  1  0  0  0
  1 30  2  0  0  0
  1 82  1  0  0  0
  2  3  1  0  0  0
  2 25  1  0  0  0
  2 83  1  0  0  0
  2 84  1  0  0  0
  3  4  1  0  0  0
  3 85  1  0  0  0
  3 86  1  0  0  0
  4  5  1  0  0  0
  4 87  1  0  0  0
  4 88  1  0  0  0
  5  6  1  0  0  0
  5 26  1  0  0  0
  5 89  1  0  0  0
  6 25  1  0  0  0
  6 90  1  0  0  0
  6 91  1  0  0  0
  7  8  2  0  0  0
  7 26  1  0  0  0
  7 29  1  0  0  0
  8  9  1  0  0  0
  8 22  1  0  0  0
  9 10  1  0  0  0
  9 27  2  0  0  0
 10 11  2  0  0  0
 10 15  1  0  0  0
 11 12  1  0  0  0
 11 92  1  0  0  0
 12 13  2  0  0  0
 12 93  1  0  0  0
 13 14  1  0  0  0
 13 31  1  0  0  0
 14 15  2  0  0  0
 14 94  1  0  0  0
 15 95  1  0  0  0
 16 17  2  0  0  0
 16 21  1  0  0  0
 16 31  1  0  0  0
 17 18  1  0  0  0
 17 96  1  0  0  0
 18 19  2  0  0  0
 18 97  1  0  0  0
 19 20  1  0  0  0
 19 24  1  0  0  0
 20 21  2  0  0  0
 20 98  1  0  0  0
 21 23  1  0  0  0
 22 28  1  0  0  0
 22 32  2  0  0  0
 26 27  1  0  0  0
 28 99  1  0  0  0
 28100  1  0  0  0
 29101  1  0  0  0
 29102  1  0  0  0
 33 34  1  0  0  0
 33 66  1  0  0  0
 33 70  2  0  0  0
 34 36  1  0  0  0
 34 59  1  0  0  0
 34103  1  0  0  0
 35 44  2  0  0  0
 35 45  1  0  0  0
 35 68  1  0  0  0
 36 56  1  0  0  0
 36104  1  0  0  0
 37 39  1  0  0  0
 37 47  1  0  0  0
 37 66  1  0  0  0
 37105  1  0  0  0
 38 43  2  0  0  0
 38 46  1  0  0  0
 38 47  1  0  0  0
 39 64  1  0  0  0
 39 67  2  0  0  0
 40 52  1  0  0  0
 40 53  2  0  0  0
 40 58  1  0  0  0
 41106  1  0  0  0
 41107  1  0  0  0
 41108  1  0  0  0
 41 48  1  0  0  0
 42 43  1  0  0  0
 42 66  1  0  0  0
 42109  1  0  0  0
 42110  1  0  0  0
 43 44  1  0  0  0
 44111  1  0  0  0
 45 46  2  0  0  0
 45112  1  0  0  0
 46113  1  0  0  0
 47114  1  0  0  0
 47115  1  0  0  0
 48 56  1  0  0  0
 48 65  1  0  0  0
 48116  1  0  0  0
 49 50  1  0  0  0
 49 53  1  0  0  0
 49 64  1  0  0  0
 49117  1  0  0  0
 50 51  1  0  0  0
 50118  1  0  0  0
 50119  1  0  0  0
 51 52  1  0  0  0
 51120  1  0  0  0
 51121  1  0  0  0
 52122  1  0  0  0
 52123  1  0  0  0
 53 54  1  0  0  0
 54 55  2  0  0  0
 54124  1  0  0  0
 55 57  1  0  0  0
 55125  1  0  0  0
 56 69  2  0  0  0
 57 58  2  0  0  0
 57126  1  0  0  0
 58127  1  0  0  0
 59 60  1  0  0  0
 59 61  1  0  0  0
 59 62  1  0  0  0
 60128  1  0  0  0
 60129  1  0  0  0
 60130  1  0  0  0
 61131  1  0  0  0
 61132  1  0  0  0
 61133  1  0  0  0
 62134  1  0  0  0
 62135  1  0  0  0
 62136  1  0  0  0
 63 65  1  0  0  0
 63137  1  0  0  0
 63138  1  0  0  0
 63139  1  0  0  0
 64140  1  0  0  0
 65141  1  0  0  0
 68 76  1  0  0  0
 71 73  1  0  0  0
 71 74  2  0  0  0
 71142  1  0  0  0
 72 73  2  0  0  0
 72 81  1  0  0  0
 72143  1  0  0  0
 73 76  1  0  0  0
 74 77  1  0  0  0
 74 81  1  0  0  0
 75 81  1  0  0  0
 75144  1  0  0  0
 75145  1  0  0  0
 75146  1  0  0  0
 76147  1  0  0  0
 76148  1  0  0  0
 77 78  1  0  0  0
 77149  1  0  0  0
 77150  1  0  0  0
 78 79  1  0  0  0
 78151  1  0  0  0
 78152  1  0  0  0
 79 80  1  0  0  0
 79153  1  0  0  0
 79154  1  0  0  0
 80 82  1  0  0  0
 80155  1  0  0  0
 80156  1  0  0  0
 82157  1  0  0  0
M  ISO  4   1 100  68 101  76 101  82 100
M  END
> <chiral flag>
0

> <version>
0

> <s_m_source_file>
/data/baiqing/PycharmProjects/Reinvent-master-3.2/result/LINK_invent/BTK/process_docking_weight1_custom_sum_contain_oxygen_bond_distance_aromatic_linkinvent_7_9_3/rearranged_h_0037.sdf

> <i_m_source_file_index>
49

> <r_mmod_Potential_Energy-OPLS-2005>
-43.6115188598633

> <r_mmod_Stretch_Energy-OPLS-2005>
45.8317909240723

> <r_mmod_Bend_Energy-OPLS-2005>
104.975479125977

> <r_mmod_Torsional_Energy-OPLS-2005>
243.624328613281

> <r_mmod_Improper_Torsional_Energy-OPLS-2005>
3.61880230903625

> <r_mmod_Van_der_Waal_Energy-OPLS-2005>
116.592323303223

> <r_mmod_Electrostatic_Energy-OPLS-2005>
-362.759460449219

> <r_mmod_Solvation_Energy-OPLS-2005>
-215.496826171875

> <b_mmod_Minimization_Converged-OPLS-2005>
0

> <r_mmod_RMS_Derivative-OPLS-2005>
1.57610559463501

$$$$
49
                    3D
 Structure written by MMmdl.
177185  0  0  1  0            999 V2000
  -30.8553  -14.2681   20.7730 C   0  0  0  0  0  0
  -30.4220  -12.2925   19.3704 C   0  0  0  0  0  0
  -29.4846  -12.5572   18.1842 C   0  0  0  0  0  0
  -28.0157  -12.3823   18.6043 C   0  0  0  0  0  0
  -27.6725  -13.2053   19.8719 C   0  0  2  0  0  0
  -28.7120  -12.9718   20.9930 C   0  0  0  0  0  0
  -25.2637  -13.8161   20.5624 C   0  0  0  0  0  0
  -24.1878  -13.0437   20.9127 C   0  0  0  0  0  0
  -24.6425  -11.6904   20.8685 C   0  0  0  0  0  0
  -23.9079  -10.4287   21.0371 C   0  0  0  0  0  0
  -24.3626   -9.4212   21.9155 C   0  0  0  0  0  0
  -23.6289   -8.2253   22.0760 C   0  0  0  0  0  0
  -22.4271   -8.0284   21.3553 C   0  0  0  0  0  0
  -21.9907   -9.0258   20.4653 C   0  0  0  0  0  0
  -22.7246  -10.2130   20.3037 C   0  0  0  0  0  0
  -21.6865   -6.0733   22.5271 C   0  0  0  0  0  0
  -21.4017   -6.5637   23.8204 C   0  0  0  0  0  0
  -21.3656   -5.6799   24.9166 C   0  0  0  0  0  0
  -21.6043   -4.3064   24.7224 C   0  0  0  0  0  0
  -21.8819   -3.8147   23.4346 C   0  0  0  0  0  0
  -21.9192   -4.6950   22.3401 C   0  0  0  0  0  0
  -22.7891  -13.5232   21.1793 C   0  0  0  0  0  0
  -22.1662   -4.2141   21.0973 F   0  0  0  0  0  0
  -21.5629   -3.4544   25.7738 F   0  0  0  0  0  0
  -30.0743  -13.2052   20.4657 N   0  0  0  0  0  0
  -26.3095  -12.9330   20.3333 N   0  0  0  0  0  0
  -25.9353  -11.6483   20.5696 N   0  0  0  0  0  0
  -22.0505  -12.8240   22.0344 N   0  0  0  0  0  0
  -25.4300  -15.1866   20.4008 N   0  0  0  0  0  0
  -31.7478  -14.7096   20.0401 O   0  0  0  0  0  0
  -21.6648   -6.8869   21.4242 O   0  0  0  0  0  0
  -22.3561  -14.5509   20.6617 O   0  0  0  0  0  0
  -24.6080  -31.8748   23.2127 C   0  0  0  0  0  0
  -25.8998  -32.4869   23.8432 C   0  0  1  0  0  0
  -27.2357  -27.4737   20.0588 C   0  0  0  0  0  0
  -25.5875  -33.8666   24.2393 N   0  0  0  0  0  0
  -23.3958  -30.4921   21.5541 C   0  0  2  0  0  0
  -24.8400  -28.9598   20.1198 C   0  0  0  0  0  0
  -22.7382  -29.4625   22.5014 C   0  0  0  0  0  0
  -18.0251  -28.1350   22.8499 C   0  0  0  0  0  0
  -24.1489  -36.7255   23.2643 C   0  0  0  0  0  0
  -25.9212  -30.8424   21.3656 C   0  0  0  0  0  0
  -25.9977  -29.4823   20.7068 C   0  0  0  0  0  0
  -27.1963  -28.7435   20.6707 C   0  0  0  0  0  0
  -26.0498  -26.9466   19.4920 C   0  0  0  0  0  0
  -24.8570  -27.6908   19.5200 C   0  0  0  0  0  0
  -23.6030  -29.8214   20.1735 C   0  0  0  0  0  0
  -25.4127  -36.3128   24.0356 C   0  0  1  0  0  0
  -20.5845  -28.3608   23.1316 C   0  0  2  0  0  0
  -20.6728  -26.9349   22.5400 C   0  0  0  0  0  0
  -19.5716  -26.6373   21.5178 C   0  0  0  0  0  0
  -18.1897  -26.7896   22.1613 C   0  0  0  0  0  0
  -19.1511  -28.8789   23.2908 C   0  0  0  0  0  0
  -18.9468  -30.1401   23.8926 C   0  0  0  0  0  0
  -17.6487  -30.6575   24.0553 C   0  0  0  0  0  0
  -25.9059  -34.9487   23.5193 C   0  0  0  0  0  0
  -16.5360  -29.9102   23.6310 C   0  0  0  0  0  0
  -16.7250  -28.6490   23.0378 C   0  0  0  0  0  0
  -26.4423  -31.6621   25.0737 C   0  0  0  0  0  0
  -25.3687  -31.3723   26.1497 C   0  0  0  0  0  0
  -27.0204  -30.3075   24.5991 C   0  0  0  0  0  0
  -27.6038  -32.4266   25.7503 C   0  0  0  0  0  0
  -27.5598  -37.1774   24.8487 C   0  0  0  0  0  0
  -21.4118  -29.2998   22.3744 N   0  0  0  0  0  0
  -26.4322  -37.3798   23.9423 N   0  0  0  0  0  0
  -24.6593  -31.0842   22.1042 N   0  0  0  0  0  0
  -23.4170  -28.8130   23.3010 O   0  0  0  0  0  0
  -28.4453  -26.8166   20.0442 O   0  0  0  0  0  0
  -26.5607  -34.8900   22.4746 O   0  0  0  0  0  0
  -23.5283  -32.1497   23.7539 O   0  0  0  0  0  0
  -27.6210  -25.3588   22.4210 C   0  0  0  0  0  0
  -28.7028  -23.3920   21.5072 C   0  0  0  0  0  0
  -28.2555  -24.7130   21.3386 C   0  0  0  0  0  0
  -27.4505  -24.7032   23.6549 C   0  0  0  0  0  0
  -28.5575  -22.7232   22.7422 C   0  0  0  0  0  0
  -27.9291  -23.3803   23.8338 C   0  0  0  0  0  0
  -26.7463  -25.4443   24.7760 C   0  0  0  0  0  0
  -27.7444  -22.6973   25.1891 C   0  0  0  0  0  0
  -29.0913  -21.3030   22.8343 C   0  0  0  0  0  0
  -28.4744  -25.3934   19.9911 C   0  0  0  0  0  0
  -30.0588  -15.2147   24.8720 C   0  0  0  0  0  0
  -29.2759  -16.3825   25.5104 C   0  0  0  0  0  0
  -31.4436  -15.5517   24.2533 C   0  0  0  0  0  0
  -28.4293  -17.2168   24.5325 C   0  0  0  0  0  0
  -31.5235  -15.6896   22.7128 C   0  0  0  0  0  0
  -27.9744  -20.2469   22.7244 C   0  0  0  0  0  0
  -29.1948  -18.3773   23.8760 C   0  0  0  0  0  0
  -30.7198  -14.6783   22.0367 N   0  0  0  0  0  0
  -28.5100  -18.8716   22.6600 N   0  3  0  0  0  0
  -31.4606  -12.4063   19.0554 H   0  0  0  0  0  0
  -30.3302  -11.2598   19.7102 H   0  0  0  0  0  0
  -29.7250  -11.8899   17.3562 H   0  0  0  0  0  0
  -29.6423  -13.5721   17.8155 H   0  0  0  0  0  0
  -27.8399  -11.3211   18.7826 H   0  0  0  0  0  0
  -27.3583  -12.6668   17.7811 H   0  0  0  0  0  0
  -27.7231  -14.2573   19.5864 H   0  0  0  0  0  0
  -28.6429  -11.9531   21.3777 H   0  0  0  0  0  0
  -28.4625  -13.6224   21.8317 H   0  0  0  0  0  0
  -25.2773   -9.5686   22.4728 H   0  0  0  0  0  0
  -24.0005   -7.4649   22.7476 H   0  0  0  0  0  0
  -21.0846   -8.8764   19.8959 H   0  0  0  0  0  0
  -22.3692  -10.9663   19.6140 H   0  0  0  0  0  0
  -21.2007   -7.6146   23.9699 H   0  0  0  0  0  0
  -21.1483   -6.0530   25.9070 H   0  0  0  0  0  0
  -22.0594   -2.7607   23.2850 H   0  0  0  0  0  0
  -22.4154  -11.9947   22.4808 H   0  0  0  0  0  0
  -21.1082  -13.1238   22.2426 H   0  0  0  0  0  0
  -24.6443  -15.8261   20.4562 H   0  0  0  0  0  0
  -26.2748  -15.6281   20.0613 H   0  0  0  0  0  0
  -26.7059  -32.5587   23.1202 H   0  0  0  0  0  0
  -25.0041  -33.9873   25.0533 H   0  0  0  0  0  0
  -22.6808  -31.3044   21.4019 H   0  0  0  0  0  0
  -23.3810  -35.9529   23.3372 H   0  0  0  0  0  0
  -24.3567  -36.8792   22.2039 H   0  0  0  0  0  0
  -23.7163  -37.6445   23.6605 H   0  0  0  0  0  0
  -26.0396  -31.6165   20.6060 H   0  0  0  0  0  0
  -26.8054  -30.8947   21.9865 H   0  0  0  0  0  0
  -28.0918  -29.1495   21.1204 H   0  0  0  0  0  0
  -26.0189  -25.9822   19.0096 H   0  0  0  0  0  0
  -23.9538  -27.2885   19.0812 H   0  0  0  0  0  0
  -23.7121  -30.5942   19.4130 H   0  0  0  0  0  0
  -22.7264  -29.2384   19.8854 H   0  0  0  0  0  0
  -25.1295  -36.2042   25.0844 H   0  0  0  0  0  0
  -20.9910  -28.3147   24.1439 H   0  0  0  0  0  0
  -20.5569  -26.2206   23.3573 H   0  0  0  0  0  0
  -21.6607  -26.7370   22.1232 H   0  0  0  0  0  0
  -19.6884  -25.6281   21.1201 H   0  0  0  0  0  0
  -19.6677  -27.3171   20.6699 H   0  0  0  0  0  0
  -17.4166  -26.6653   21.4024 H   0  0  0  0  0  0
  -18.0323  -26.0027   22.9011 H   0  0  0  0  0  0
  -19.7976  -30.7162   24.2327 H   0  0  0  0  0  0
  -17.5091  -31.6261   24.5136 H   0  0  0  0  0  0
  -15.5382  -30.3057   23.7588 H   0  0  0  0  0  0
  -15.8641  -28.0809   22.7141 H   0  0  0  0  0  0
  -24.5833  -30.7102   25.7816 H   0  0  0  0  0  0
  -24.8926  -32.2881   26.5023 H   0  0  0  0  0  0
  -25.8057  -30.8860   27.0235 H   0  0  0  0  0  0
  -26.2727  -29.6931   24.0966 H   0  0  0  0  0  0
  -27.3931  -29.7172   25.4372 H   0  0  0  0  0  0
  -27.8609  -30.4447   23.9172 H   0  0  0  0  0  0
  -27.2739  -33.3556   26.2167 H   0  0  0  0  0  0
  -28.3864  -32.6827   25.0340 H   0  0  0  0  0  0
  -28.0683  -31.8338   26.5396 H   0  0  0  0  0  0
  -28.2649  -38.0046   24.7555 H   0  0  0  0  0  0
  -28.1063  -36.2578   24.6350 H   0  0  0  0  0  0
  -27.2285  -37.1425   25.8877 H   0  0  0  0  0  0
  -20.9275  -29.8797   21.7019 H   0  0  0  0  0  0
  -26.0260  -38.2881   24.1455 H   0  0  0  0  0  0
  -27.2537  -26.3682   22.3234 H   0  0  0  0  0  0
  -29.1746  -22.8886   20.6728 H   0  0  0  0  0  0
  -26.2859  -26.3675   24.4245 H   0  0  0  0  0  0
  -27.4601  -25.7088   25.5558 H   0  0  0  0  0  0
  -25.9521  -24.8358   25.2065 H   0  0  0  0  0  0
  -27.9551  -23.3903   26.0039 H   0  0  0  0  0  0
  -28.3957  -21.8437   25.3566 H   0  0  0  0  0  0
  -26.7155  -22.3502   25.2944 H   0  0  0  0  0  0
  -29.6741  -21.1907   23.7490 H   0  0  0  0  0  0
  -29.8128  -21.1515   22.0306 H   0  0  0  0  0  0
  -29.4815  -25.1432   19.6582 H   0  0  0  0  0  0
  -27.8185  -24.9625   19.2357 H   0  0  0  0  0  0
  -29.4114  -14.6596   24.1949 H   0  0  0  0  0  0
  -30.2535  -14.5014   25.6729 H   0  0  0  0  0  0
  -29.9296  -17.0166   26.1113 H   0  0  0  0  0  0
  -28.5830  -15.9422   26.2295 H   0  0  0  0  0  0
  -32.1225  -14.7401   24.5316 H   0  0  0  0  0  0
  -31.8769  -16.4273   24.7367 H   0  0  0  0  0  0
  -27.9846  -16.5553   23.7877 H   0  0  0  0  0  0
  -27.5891  -17.6501   25.0801 H   0  0  0  0  0  0
  -32.5694  -15.6108   22.4037 H   0  0  0  0  0  0
  -31.1984  -16.6689   22.3667 H   0  0  0  0  0  0
  -27.4074  -20.4151   21.8071 H   0  0  0  0  0  0
  -27.2656  -20.3320   23.5516 H   0  0  0  0  0  0
  -30.1911  -18.0710   23.5773 H   0  0  0  0  0  0
  -29.3561  -19.1627   24.6129 H   0  0  0  0  0  0
  -30.0352  -14.1871   22.5928 H   0  0  0  0  0  0
  -29.1661  -18.8344   21.8963 H   0  0  0  0  0  0
  -27.7542  -18.2470   22.4259 H   0  0  0  0  0  0
  1 25  1  0  0  0
  1 30  2  0  0  0
  1 88  1  0  0  0
  2  3  1  0  0  0
  2 25  1  0  0  0
  2 90  1  0  0  0
  2 91  1  0  0  0
  3  4  1  0  0  0
  3 92  1  0  0  0
  3 93  1  0  0  0
  4  5  1  0  0  0
  4 94  1  0  0  0
  4 95  1  0  0  0
  5  6  1  0  0  0
  5 26  1  0  0  0
  5 96  1  0  0  0
  6 25  1  0  0  0
  6 97  1  0  0  0
  6 98  1  0  0  0
  7  8  2  0  0  0
  7 26  1  0  0  0
  7 29  1  0  0  0
  8  9  1  0  0  0
  8 22  1  0  0  0
  9 10  1  0  0  0
  9 27  2  0  0  0
 10 11  2  0  0  0
 10 15  1  0  0  0
 11 12  1  0  0  0
 11 99  1  0  0  0
 12 13  2  0  0  0
 12100  1  0  0  0
 13 14  1  0  0  0
 13 31  1  0  0  0
 14 15  2  0  0  0
 14101  1  0  0  0
 15102  1  0  0  0
 16 17  2  0  0  0
 16 21  1  0  0  0
 16 31  1  0  0  0
 17 18  1  0  0  0
 17103  1  0  0  0
 18 19  2  0  0  0
 18104  1  0  0  0
 19 20  1  0  0  0
 19 24  1  0  0  0
 20 21  2  0  0  0
 20105  1  0  0  0
 21 23  1  0  0  0
 22 28  1  0  0  0
 22 32  2  0  0  0
 26 27  1  0  0  0
 28106  1  0  0  0
 28107  1  0  0  0
 29108  1  0  0  0
 29109  1  0  0  0
 33 34  1  0  0  0
 33 66  1  0  0  0
 33 70  2  0  0  0
 34 36  1  0  0  0
 34 59  1  0  0  0
 34110  1  0  0  0
 35 44  2  0  0  0
 35 45  1  0  0  0
 35 68  1  0  0  0
 36 56  1  0  0  0
 36111  1  0  0  0
 37 39  1  0  0  0
 37 47  1  0  0  0
 37 66  1  0  0  0
 37112  1  0  0  0
 38 43  2  0  0  0
 38 46  1  0  0  0
 38 47  1  0  0  0
 39 64  1  0  0  0
 39 67  2  0  0  0
 40 52  1  0  0  0
 40 53  2  0  0  0
 40 58  1  0  0  0
 41113  1  0  0  0
 41114  1  0  0  0
 41115  1  0  0  0
 41 48  1  0  0  0
 42 43  1  0  0  0
 42 66  1  0  0  0
 42116  1  0  0  0
 42117  1  0  0  0
 43 44  1  0  0  0
 44118  1  0  0  0
 45 46  2  0  0  0
 45119  1  0  0  0
 46120  1  0  0  0
 47121  1  0  0  0
 47122  1  0  0  0
 48 56  1  0  0  0
 48 65  1  0  0  0
 48123  1  0  0  0
 49 50  1  0  0  0
 49 53  1  0  0  0
 49 64  1  0  0  0
 49124  1  0  0  0
 50 51  1  0  0  0
 50125  1  0  0  0
 50126  1  0  0  0
 51 52  1  0  0  0
 51127  1  0  0  0
 51128  1  0  0  0
 52129  1  0  0  0
 52130  1  0  0  0
 53 54  1  0  0  0
 54 55  2  0  0  0
 54131  1  0  0  0
 55 57  1  0  0  0
 55132  1  0  0  0
 56 69  2  0  0  0
 57 58  2  0  0  0
 57133  1  0  0  0
 58134  1  0  0  0
 59 60  1  0  0  0
 59 61  1  0  0  0
 59 62  1  0  0  0
 60135  1  0  0  0
 60136  1  0  0  0
 60137  1  0  0  0
 61138  1  0  0  0
 61139  1  0  0  0
 61140  1  0  0  0
 62141  1  0  0  0
 62142  1  0  0  0
 62143  1  0  0  0
 63 65  1  0  0  0
 63144  1  0  0  0
 63145  1  0  0  0
 63146  1  0  0  0
 64147  1  0  0  0
 65148  1  0  0  0
 68 80  1  0  0  0
 71 73  2  0  0  0
 71 74  1  0  0  0
 71149  1  0  0  0
 72 73  1  0  0  0
 72 75  2  0  0  0
 72150  1  0  0  0
 73 80  1  0  0  0
 74 76  2  0  0  0
 74 77  1  0  0  0
 75 76  1  0  0  0
 75 79  1  0  0  0
 76 78  1  0  0  0
 77151  1  0  0  0
 77152  1  0  0  0
 77153  1  0  0  0
 78154  1  0  0  0
 78155  1  0  0  0
 78156  1  0  0  0
 79 86  1  0  0  0
 79157  1  0  0  0
 79158  1  0  0  0
 80159  1  0  0  0
 80160  1  0  0  0
 81 82  1  0  0  0
 81 83  1  0  0  0
 81161  1  0  0  0
 81162  1  0  0  0
 82 84  1  0  0  0
 82163  1  0  0  0
 82164  1  0  0  0
 83 85  1  0  0  0
 83165  1  0  0  0
 83166  1  0  0  0
 84 87  1  0  0  0
 84167  1  0  0  0
 84168  1  0  0  0
 85 88  1  0  0  0
 85169  1  0  0  0
 85170  1  0  0  0
 86 89  1  0  0  0
 86171  1  0  0  0
 86172  1  0  0  0
 87 89  1  0  0  0
 87173  1  0  0  0
 87174  1  0  0  0
 88175  1  0  0  0
 89176  1  0  0  0
 89177  1  0  0  0
M  CHG  1  89   1
M  ISO  4   1 100  68 101  80 101  88 100
M  END
> <chiral flag>
0

> <version>
0

> <s_m_source_file>
/data/baiqing/PycharmProjects/Reinvent-master-3.2/result/LINK_invent/BTK/process_docking_weight1_custom_sum_contain_oxygen_bond_distance_aromatic_linkinvent_7_9_3/rearranged_h_0037.sdf

> <i_m_source_file_index>
50

> <r_mmod_Potential_Energy-OPLS-2005>
-195.439239501953

> <r_mmod_Stretch_Energy-OPLS-2005>
34.3273620605469

> <r_mmod_Bend_Energy-OPLS-2005>
108.673789978027

> <r_mmod_Torsional_Energy-OPLS-2005>
243.957443237305

> <r_mmod_Improper_Torsional_Energy-OPLS-2005>
4.24045515060425

> <r_mmod_Van_der_Waal_Energy-OPLS-2005>
154.497756958008

> <r_mmod_Electrostatic_Energy-OPLS-2005>
-285.809326171875

> <r_mmod_Solvation_Energy-OPLS-2005>
-466.644226074219

> <b_mmod_Minimization_Converged-OPLS-2005>
0

> <r_mmod_RMS_Derivative-OPLS-2005>
4.57585716247559

$$$$
50
                    3D
 Structure written by MMmdl.
186195  0  0  1  0            999 V2000
  -30.8426  -14.2988   20.7403 C   0  0  0  0  0  0
  -30.4023  -12.2908   19.3867 C   0  0  0  0  0  0
  -29.4744  -12.5320   18.1867 C   0  0  0  0  0  0
  -28.0051  -12.3739   18.6099 C   0  0  0  0  0  0
  -27.6619  -13.2093   19.8709 C   0  0  2  0  0  0
  -28.7003  -12.9885   20.9946 C   0  0  0  0  0  0
  -25.2585  -13.8182   20.5675 C   0  0  0  0  0  0
  -24.1835  -13.0456   20.9174 C   0  0  0  0  0  0
  -24.6388  -11.6924   20.8723 C   0  0  0  0  0  0
  -23.9050  -10.4313   21.0403 C   0  0  0  0  0  0
  -24.3600   -9.4228   21.9184 C   0  0  0  0  0  0
  -23.6281   -8.2255   22.0759 C   0  0  0  0  0  0
  -22.4260   -8.0289   21.3551 C   0  0  0  0  0  0
  -21.9901   -9.0255   20.4643 C   0  0  0  0  0  0
  -22.7225  -10.2142   20.3053 C   0  0  0  0  0  0
  -21.6854   -6.0735   22.5285 C   0  0  0  0  0  0
  -21.4013   -6.5638   23.8216 C   0  0  0  0  0  0
  -21.3658   -5.6790   24.9176 C   0  0  0  0  0  0
  -21.6036   -4.3051   24.7227 C   0  0  0  0  0  0
  -21.8816   -3.8147   23.4349 C   0  0  0  0  0  0
  -21.9186   -4.6964   22.3406 C   0  0  0  0  0  0
  -22.7856  -13.5258   21.1823 C   0  0  0  0  0  0
  -22.1658   -4.2146   21.0983 F   0  0  0  0  0  0
  -21.5625   -3.4537   25.7744 F   0  0  0  0  0  0
  -30.0505  -13.2356   20.4559 N   0  0  0  0  0  0
  -26.3023  -12.9360   20.3352 N   0  0  0  0  0  0
  -25.9312  -11.6514   20.5743 N   0  0  0  0  0  0
  -22.0489  -12.8268   22.0391 N   0  0  0  0  0  0
  -25.4308  -15.1896   20.4093 N   0  0  0  0  0  0
  -31.7867  -14.6504   20.0270 O   0  0  0  0  0  0
  -21.6642   -6.8875   21.4243 O   0  0  0  0  0  0
  -22.3540  -14.5545   20.6647 O   0  0  0  0  0  0
  -24.6106  -31.8709   23.2153 C   0  0  0  0  0  0
  -25.9001  -32.4841   23.8437 C   0  0  1  0  0  0
  -27.2182  -27.4583   20.0943 C   0  0  0  0  0  0
  -25.5852  -33.8638   24.2353 N   0  0  0  0  0  0
  -23.3969  -30.4972   21.5563 C   0  0  2  0  0  0
  -24.8417  -28.9756   20.1073 C   0  0  0  0  0  0
  -22.7402  -29.4668   22.5031 C   0  0  0  0  0  0
  -18.0272  -28.1371   22.8497 C   0  0  0  0  0  0
  -24.1482  -36.7332   23.2646 C   0  0  0  0  0  0
  -25.9225  -30.8439   21.3684 C   0  0  0  0  0  0
  -25.9983  -29.4812   20.7164 C   0  0  0  0  0  0
  -27.1892  -28.7231   20.7227 C   0  0  0  0  0  0
  -26.0660  -26.9940   19.4292 C   0  0  0  0  0  0
  -24.8678  -27.7276   19.4635 C   0  0  0  0  0  0
  -23.6010  -29.8366   20.1676 C   0  0  0  0  0  0
  -25.4102  -36.3130   24.0342 C   0  0  1  0  0  0
  -20.5866  -28.3645   23.1339 C   0  0  2  0  0  0
  -20.6771  -26.9396   22.5417 C   0  0  0  0  0  0
  -19.5744  -26.6387   21.5217 C   0  0  0  0  0  0
  -18.1912  -26.7921   22.1624 C   0  0  0  0  0  0
  -19.1526  -28.8823   23.2909 C   0  0  0  0  0  0
  -18.9460  -30.1431   23.8914 C   0  0  0  0  0  0
  -17.6464  -30.6578   24.0578 C   0  0  0  0  0  0
  -25.9024  -34.9484   23.5158 C   0  0  0  0  0  0
  -16.5354  -29.9083   23.6334 C   0  0  0  0  0  0
  -16.7265  -28.6502   23.0352 C   0  0  0  0  0  0
  -26.4430  -31.6604   25.0745 C   0  0  0  0  0  0
  -25.3696  -31.3651   26.1492 C   0  0  0  0  0  0
  -27.0278  -30.3076   24.6055 C   0  0  0  0  0  0
  -27.6016  -32.4317   25.7512 C   0  0  0  0  0  0
  -27.5576  -37.1817   24.8467 C   0  0  0  0  0  0
  -21.4140  -29.3017   22.3753 N   0  0  0  0  0  0
  -26.4300  -37.3807   23.9404 N   0  0  0  0  0  0
  -24.6612  -31.0833   22.1047 N   0  0  0  0  0  0
  -23.4188  -28.8228   23.3068 O   0  0  0  0  0  0
  -28.3323  -26.6552   20.1166 O   0  0  0  0  0  0
  -26.5613  -34.8927   22.4731 O   0  0  0  0  0  0
  -23.5302  -32.1471   23.7544 O   0  0  0  0  0  0
  -27.6924  -20.7306   23.9403 C   0  0  0  0  0  0
  -28.0874  -22.7516   23.1208 C   0  0  0  0  0  0
  -28.5888  -21.7655   24.0136 C   0  0  0  0  0  0
  -26.9458  -22.3100   22.5377 C   0  0  0  0  0  0
  -28.6611  -24.0422   22.7391 C   0  0  0  0  0  0
  -28.0727  -24.8252   21.8099 C   0  0  0  0  0  0
  -26.1380  -23.0431   21.5262 C   0  0  0  0  0  0
  -26.7658  -24.4035   21.1155 C   0  0  0  0  0  0
  -22.2428  -16.5562   23.8311 C   0  0  0  0  0  0
  -29.8689  -21.7836   24.8104 C   0  0  0  0  0  0
  -28.6928  -26.1752   21.4211 C   0  0  0  0  0  0
  -23.0299  -17.7800   24.3163 C   0  0  0  0  0  0
  -30.7807  -20.5930   24.4561 C   0  0  0  0  0  0
  -23.8936  -18.3953   23.2062 C   0  0  0  0  0  0
  -31.0722  -20.4662   22.9448 C   0  0  0  0  0  0
  -31.9693  -19.2740   22.5807 C   0  0  0  0  0  0
  -31.2894  -17.8975   22.7268 C   0  0  0  0  0  0
  -24.8488  -19.4858   23.7182 C   0  0  0  0  0  0
  -32.2562  -16.7580   22.3744 C   0  0  0  0  0  0
  -25.6612  -20.1109   22.5713 C   0  0  0  0  0  0
  -31.7746  -15.3515   22.7833 C   0  0  0  0  0  0
  -26.6987  -21.0323   23.0188 N   0  0  0  0  0  0
  -30.6877  -14.7895   21.9772 N   0  0  0  0  0  0
  -31.4464  -12.3756   19.0800 H   0  0  0  0  0  0
  -30.2875  -11.2713   19.7564 H   0  0  0  0  0  0
  -29.7099  -11.8340   17.3826 H   0  0  0  0  0  0
  -29.6398  -13.5328   17.7848 H   0  0  0  0  0  0
  -27.8234  -11.3164   18.8037 H   0  0  0  0  0  0
  -27.3453  -12.6492   17.7865 H   0  0  0  0  0  0
  -27.7105  -14.2587   19.5793 H   0  0  0  0  0  0
  -28.6485  -11.9654   21.3696 H   0  0  0  0  0  0
  -28.4521  -13.6322   21.8393 H   0  0  0  0  0  0
  -25.2737   -9.5718   22.4763 H   0  0  0  0  0  0
  -23.9989   -7.4662   22.7497 H   0  0  0  0  0  0
  -21.0825   -8.8764   19.8959 H   0  0  0  0  0  0
  -22.3667  -10.9673   19.6162 H   0  0  0  0  0  0
  -21.2010   -7.6145   23.9721 H   0  0  0  0  0  0
  -21.1477   -6.0519   25.9077 H   0  0  0  0  0  0
  -22.0587   -2.7605   23.2852 H   0  0  0  0  0  0
  -22.4084  -11.9933   22.4799 H   0  0  0  0  0  0
  -21.1095  -13.1299   22.2552 H   0  0  0  0  0  0
  -24.6648  -15.8452   20.5184 H   0  0  0  0  0  0
  -26.2926  -15.6292   20.1116 H   0  0  0  0  0  0
  -26.7077  -32.5590   23.1215 H   0  0  0  0  0  0
  -24.9923  -33.9801   25.0443 H   0  0  0  0  0  0
  -22.6846  -31.3133   21.4230 H   0  0  0  0  0  0
  -23.3736  -35.9677   23.3327 H   0  0  0  0  0  0
  -24.3576  -36.8938   22.2059 H   0  0  0  0  0  0
  -23.7247  -37.6543   23.6657 H   0  0  0  0  0  0
  -26.0309  -31.6105   20.6007 H   0  0  0  0  0  0
  -26.8112  -30.8973   21.9843 H   0  0  0  0  0  0
  -28.0763  -29.1014   21.2116 H   0  0  0  0  0  0
  -26.0793  -26.0462   18.9113 H   0  0  0  0  0  0
  -23.9815  -27.3373   18.9807 H   0  0  0  0  0  0
  -23.7014  -30.6164   19.4116 H   0  0  0  0  0  0
  -22.7253  -29.2538   19.8762 H   0  0  0  0  0  0
  -25.1275  -36.2013   25.0837 H   0  0  0  0  0  0
  -20.9954  -28.3220   24.1470 H   0  0  0  0  0  0
  -20.5699  -26.2253   23.3596 H   0  0  0  0  0  0
  -21.6635  -26.7468   22.1197 H   0  0  0  0  0  0
  -19.6933  -25.6308   21.1218 H   0  0  0  0  0  0
  -19.6689  -27.3228   20.6773 H   0  0  0  0  0  0
  -17.4194  -26.6676   21.4016 H   0  0  0  0  0  0
  -18.0303  -26.0054   22.9010 H   0  0  0  0  0  0
  -19.7947  -30.7228   24.2297 H   0  0  0  0  0  0
  -17.5033  -31.6269   24.5162 H   0  0  0  0  0  0
  -15.5354  -30.2991   23.7659 H   0  0  0  0  0  0
  -15.8670  -28.0831   22.7059 H   0  0  0  0  0  0
  -24.5928  -30.6924   25.7824 H   0  0  0  0  0  0
  -24.8787  -32.2759   26.4930 H   0  0  0  0  0  0
  -25.8055  -30.8857   27.0265 H   0  0  0  0  0  0
  -26.2821  -29.6841   24.1099 H   0  0  0  0  0  0
  -27.4098  -29.7281   25.4464 H   0  0  0  0  0  0
  -27.8622  -30.4451   23.9175 H   0  0  0  0  0  0
  -27.2663  -33.3637   26.2069 H   0  0  0  0  0  0
  -28.3837  -32.6833   25.0339 H   0  0  0  0  0  0
  -28.0655  -31.8434   26.5438 H   0  0  0  0  0  0
  -28.2599  -38.0105   24.7523 H   0  0  0  0  0  0
  -28.1060  -36.2640   24.6296 H   0  0  0  0  0  0
  -27.2278  -37.1488   25.8861 H   0  0  0  0  0  0
  -20.9292  -29.8738   21.6987 H   0  0  0  0  0  0
  -26.0196  -38.2893   24.1378 H   0  0  0  0  0  0
  -27.7082  -19.7654   24.4291 H   0  0  0  0  0  0
  -29.5761  -24.3563   23.2216 H   0  0  0  0  0  0
  -25.1376  -23.2146   21.9252 H   0  0  0  0  0  0
  -26.0039  -22.4204   20.6413 H   0  0  0  0  0  0
  -26.9589  -24.3744   20.0441 H   0  0  0  0  0  0
  -26.0228  -25.1785   21.2988 H   0  0  0  0  0  0
  -21.5952  -16.1711   24.6190 H   0  0  0  0  0  0
  -22.9157  -15.7505   23.5352 H   0  0  0  0  0  0
  -21.6144  -16.7980   22.9727 H   0  0  0  0  0  0
  -29.6211  -21.7647   25.8722 H   0  0  0  0  0  0
  -30.3946  -22.7223   24.6359 H   0  0  0  0  0  0
  -29.7788  -26.0788   21.4472 H   0  0  0  0  0  0
  -28.4441  -26.8965   22.2011 H   0  0  0  0  0  0
  -23.6606  -17.4859   25.1562 H   0  0  0  0  0  0
  -22.3384  -18.5321   24.6998 H   0  0  0  0  0  0
  -30.3053  -19.6784   24.8120 H   0  0  0  0  0  0
  -31.7165  -20.6813   25.0096 H   0  0  0  0  0  0
  -23.2472  -18.8083   22.4300 H   0  0  0  0  0  0
  -24.4820  -17.6095   22.7283 H   0  0  0  0  0  0
  -31.5518  -21.3873   22.6065 H   0  0  0  0  0  0
  -30.1444  -20.3903   22.3761 H   0  0  0  0  0  0
  -32.8766  -19.3101   23.1866 H   0  0  0  0  0  0
  -32.2964  -19.3944   21.5468 H   0  0  0  0  0  0
  -30.4036  -17.8429   22.0923 H   0  0  0  0  0  0
  -30.9418  -17.7645   23.7505 H   0  0  0  0  0  0
  -25.5183  -19.0433   24.4562 H   0  0  0  0  0  0
  -24.2891  -20.2655   24.2356 H   0  0  0  0  0  0
  -33.1965  -16.9377   22.8982 H   0  0  0  0  0  0
  -32.5071  -16.7938   21.3144 H   0  0  0  0  0  0
  -24.9879  -20.6209   21.8823 H   0  0  0  0  0  0
  -26.1516  -19.3245   21.9952 H   0  0  0  0  0  0
  -31.4645  -15.3547   23.8292 H   0  0  0  0  0  0
  -32.6210  -14.6629   22.7321 H   0  0  0  0  0  0
  -29.8880  -14.4409   22.4854 H   0  0  0  0  0  0
  1 25  1  0  0  0
  1 30  2  0  0  0
  1 93  1  0  0  0
  2  3  1  0  0  0
  2 25  1  0  0  0
  2 94  1  0  0  0
  2 95  1  0  0  0
  3  4  1  0  0  0
  3 96  1  0  0  0
  3 97  1  0  0  0
  4  5  1  0  0  0
  4 98  1  0  0  0
  4 99  1  0  0  0
  5  6  1  0  0  0
  5 26  1  0  0  0
  5100  1  0  0  0
  6 25  1  0  0  0
  6101  1  0  0  0
  6102  1  0  0  0
  7  8  2  0  0  0
  7 26  1  0  0  0
  7 29  1  0  0  0
  8  9  1  0  0  0
  8 22  1  0  0  0
  9 10  1  0  0  0
  9 27  2  0  0  0
 10 11  2  0  0  0
 10 15  1  0  0  0
 11 12  1  0  0  0
 11103  1  0  0  0
 12 13  2  0  0  0
 12104  1  0  0  0
 13 14  1  0  0  0
 13 31  1  0  0  0
 14 15  2  0  0  0
 14105  1  0  0  0
 15106  1  0  0  0
 16 17  2  0  0  0
 16 21  1  0  0  0
 16 31  1  0  0  0
 17 18  1  0  0  0
 17107  1  0  0  0
 18 19  2  0  0  0
 18108  1  0  0  0
 19 20  1  0  0  0
 19 24  1  0  0  0
 20 21  2  0  0  0
 20109  1  0  0  0
 21 23  1  0  0  0
 22 28  1  0  0  0
 22 32  2  0  0  0
 26 27  1  0  0  0
 28110  1  0  0  0
 28111  1  0  0  0
 29112  1  0  0  0
 29113  1  0  0  0
 33 34  1  0  0  0
 33 66  1  0  0  0
 33 70  2  0  0  0
 34 36  1  0  0  0
 34 59  1  0  0  0
 34114  1  0  0  0
 35 44  2  0  0  0
 35 45  1  0  0  0
 35 68  1  0  0  0
 36 56  1  0  0  0
 36115  1  0  0  0
 37 39  1  0  0  0
 37 47  1  0  0  0
 37 66  1  0  0  0
 37116  1  0  0  0
 38 43  2  0  0  0
 38 46  1  0  0  0
 38 47  1  0  0  0
 39 64  1  0  0  0
 39 67  2  0  0  0
 40 52  1  0  0  0
 40 53  2  0  0  0
 40 58  1  0  0  0
 41117  1  0  0  0
 41118  1  0  0  0
 41119  1  0  0  0
 41 48  1  0  0  0
 42 43  1  0  0  0
 42 66  1  0  0  0
 42120  1  0  0  0
 42121  1  0  0  0
 43 44  1  0  0  0
 44122  1  0  0  0
 45 46  2  0  0  0
 45123  1  0  0  0
 46124  1  0  0  0
 47125  1  0  0  0
 47126  1  0  0  0
 48 56  1  0  0  0
 48 65  1  0  0  0
 48127  1  0  0  0
 49 50  1  0  0  0
 49 53  1  0  0  0
 49 64  1  0  0  0
 49128  1  0  0  0
 50 51  1  0  0  0
 50129  1  0  0  0
 50130  1  0  0  0
 51 52  1  0  0  0
 51131  1  0  0  0
 51132  1  0  0  0
 52133  1  0  0  0
 52134  1  0  0  0
 53 54  1  0  0  0
 54 55  2  0  0  0
 54135  1  0  0  0
 55 57  1  0  0  0
 55136  1  0  0  0
 56 69  2  0  0  0
 57 58  2  0  0  0
 57137  1  0  0  0
 58138  1  0  0  0
 59 60  1  0  0  0
 59 61  1  0  0  0
 59 62  1  0  0  0
 60139  1  0  0  0
 60140  1  0  0  0
 60141  1  0  0  0
 61142  1  0  0  0
 61143  1  0  0  0
 61144  1  0  0  0
 62145  1  0  0  0
 62146  1  0  0  0
 62147  1  0  0  0
 63 65  1  0  0  0
 63148  1  0  0  0
 63149  1  0  0  0
 63150  1  0  0  0
 64151  1  0  0  0
 65152  1  0  0  0
 68 81  1  0  0  0
 71 73  2  0  0  0
 71 92  1  0  0  0
 71153  1  0  0  0
 72 73  1  0  0  0
 72 74  2  0  0  0
 72 75  1  0  0  0
 73 80  1  0  0  0
 74 77  1  0  0  0
 74 92  1  0  0  0
 75 76  2  0  0  0
 75154  1  0  0  0
 76 78  1  0  0  0
 76 81  1  0  0  0
 77 78  1  0  0  0
 77155  1  0  0  0
 77156  1  0  0  0
 78157  1  0  0  0
 78158  1  0  0  0
 79 82  1  0  0  0
 79159  1  0  0  0
 79160  1  0  0  0
 79161  1  0  0  0
 80 83  1  0  0  0
 80162  1  0  0  0
 80163  1  0  0  0
 81164  1  0  0  0
 81165  1  0  0  0
 82 84  1  0  0  0
 82166  1  0  0  0
 82167  1  0  0  0
 83 85  1  0  0  0
 83168  1  0  0  0
 83169  1  0  0  0
 84 88  1  0  0  0
 84170  1  0  0  0
 84171  1  0  0  0
 85 86  1  0  0  0
 85172  1  0  0  0
 85173  1  0  0  0
 86 87  1  0  0  0
 86174  1  0  0  0
 86175  1  0  0  0
 87 89  1  0  0  0
 87176  1  0  0  0
 87177  1  0  0  0
 88 90  1  0  0  0
 88178  1  0  0  0
 88179  1  0  0  0
 89 91  1  0  0  0
 89180  1  0  0  0
 89181  1  0  0  0
 90 92  1  0  0  0
 90182  1  0  0  0
 90183  1  0  0  0
 91 93  1  0  0  0
 91184  1  0  0  0
 91185  1  0  0  0
 93186  1  0  0  0
M  ISO  4   1 100  68 101  81 101  93 100
M  END
> <chiral flag>
0

> <version>
0

> <s_m_source_file>
/data/baiqing/PycharmProjects/Reinvent-master-3.2/result/LINK_invent/BTK/process_docking_weight1_custom_sum_contain_oxygen_bond_distance_aromatic_linkinvent_7_9_3/rearranged_h_0037.sdf

> <i_m_source_file_index>
51

> <r_mmod_Potential_Energy-OPLS-2005>
-38.3889007568359

> <r_mmod_Stretch_Energy-OPLS-2005>
33.7191886901855

> <r_mmod_Bend_Energy-OPLS-2005>
110.140563964844

> <r_mmod_Torsional_Energy-OPLS-2005>
253.030136108398

> <r_mmod_Improper_Torsional_Energy-OPLS-2005>
7.17151165008545

> <r_mmod_Van_der_Waal_Energy-OPLS-2005>
128.380630493164

> <r_mmod_Electrostatic_Energy-OPLS-2005>
-384.018707275391

> <r_mmod_Solvation_Energy-OPLS-2005>
-198.374725341797

> <b_mmod_Minimization_Converged-OPLS-2005>
0

> <r_mmod_RMS_Derivative-OPLS-2005>
2.02183985710144

$$$$
51
                    3D
 Structure written by MMmdl.
165173  0  0  1  0            999 V2000
  -30.7202  -14.5992   20.4985 C   0  0  0  0  0  0
  -30.4099  -12.3746   19.4598 C   0  0  0  0  0  0
  -29.4968  -12.5019   18.2245 C   0  0  0  0  0  0
  -28.0212  -12.3539   18.6368 C   0  0  0  0  0  0
  -27.6478  -13.2351   19.8591 C   0  0  2  0  0  0
  -28.6947  -13.1378   20.9919 C   0  0  0  0  0  0
  -25.2509  -13.8202   20.5678 C   0  0  0  0  0  0
  -24.1804  -13.0444   20.9189 C   0  0  0  0  0  0
  -24.6403  -11.6923   20.8737 C   0  0  0  0  0  0
  -23.9071  -10.4296   21.0396 C   0  0  0  0  0  0
  -24.3617   -9.4207   21.9176 C   0  0  0  0  0  0
  -23.6293   -8.2241   22.0752 C   0  0  0  0  0  0
  -22.4277   -8.0276   21.3540 C   0  0  0  0  0  0
  -21.9909   -9.0249   20.4643 C   0  0  0  0  0  0
  -22.7236  -10.2126   20.3054 C   0  0  0  0  0  0
  -21.6855   -6.0728   22.5272 C   0  0  0  0  0  0
  -21.4012   -6.5636   23.8200 C   0  0  0  0  0  0
  -21.3670   -5.6788   24.9170 C   0  0  0  0  0  0
  -21.6044   -4.3050   24.7217 C   0  0  0  0  0  0
  -21.8823   -3.8141   23.4342 C   0  0  0  0  0  0
  -21.9190   -4.6959   22.3394 C   0  0  0  0  0  0
  -22.7820  -13.5215   21.1847 C   0  0  0  0  0  0
  -22.1661   -4.2140   21.0976 F   0  0  0  0  0  0
  -21.5636   -3.4540   25.7735 F   0  0  0  0  0  0
  -30.0106  -13.4319   20.4115 N   0  0  0  0  0  0
  -26.2972  -12.9430   20.3331 N   0  0  0  0  0  0
  -25.9345  -11.6559   20.5768 N   0  0  0  0  0  0
  -22.0480  -12.8207   22.0418 N   0  0  0  0  0  0
  -25.4154  -15.1919   20.4098 N   0  0  0  0  0  0
  -31.8970  -14.6430   20.1350 O   0  0  0  0  0  0
  -21.6647   -6.8872   21.4232 O   0  0  0  0  0  0
  -22.3487  -14.5510   20.6686 O   0  0  0  0  0  0
  -24.6232  -31.8613   23.2048 C   0  0  0  0  0  0
  -25.9083  -32.4797   23.8372 C   0  0  1  0  0  0
  -27.2283  -27.3564   20.1269 C   0  0  0  0  0  0
  -25.5894  -33.8600   24.2303 N   0  0  0  0  0  0
  -23.4158  -30.4825   21.5463 C   0  0  2  0  0  0
  -24.8650  -28.9405   20.1128 C   0  0  0  0  0  0
  -22.7478  -29.4605   22.4953 C   0  0  0  0  0  0
  -18.0279  -28.1390   22.8523 C   0  0  0  0  0  0
  -24.1468  -36.7319   23.2640 C   0  0  0  0  0  0
  -25.9509  -30.8062   21.3675 C   0  0  0  0  0  0
  -26.0292  -29.4350   20.7142 C   0  0  0  0  0  0
  -27.2179  -28.6552   20.7087 C   0  0  0  0  0  0
  -26.0492  -26.8995   19.5039 C   0  0  0  0  0  0
  -24.8744  -27.6770   19.4955 C   0  0  0  0  0  0
  -23.6310  -29.8169   20.1604 C   0  0  0  0  0  0
  -25.4098  -36.3128   24.0349 C   0  0  1  0  0  0
  -20.5879  -28.3689   23.1312 C   0  0  2  0  0  0
  -20.6753  -26.9412   22.5432 C   0  0  0  0  0  0
  -19.5733  -26.6393   21.5225 C   0  0  0  0  0  0
  -18.1921  -26.7933   22.1646 C   0  0  0  0  0  0
  -19.1536  -28.8865   23.2905 C   0  0  0  0  0  0
  -18.9458  -30.1469   23.8909 C   0  0  0  0  0  0
  -17.6455  -30.6590   24.0587 C   0  0  0  0  0  0
  -25.9035  -34.9477   23.5136 C   0  0  0  0  0  0
  -16.5346  -29.9099   23.6328 C   0  0  0  0  0  0
  -16.7267  -28.6517   23.0356 C   0  0  0  0  0  0
  -26.4455  -31.6597   25.0733 C   0  0  0  0  0  0
  -25.3703  -31.3732   26.1487 C   0  0  0  0  0  0
  -27.0285  -30.3031   24.6140 C   0  0  0  0  0  0
  -27.6031  -32.4315   25.7484 C   0  0  0  0  0  0
  -27.5579  -37.1820   24.8464 C   0  0  0  0  0  0
  -21.4197  -29.3025   22.3705 N   0  0  0  0  0  0
  -26.4283  -37.3822   23.9422 N   0  0  0  0  0  0
  -24.6821  -31.0659   22.0975 N   0  0  0  0  0  0
  -23.4225  -28.8154   23.3011 O   0  0  0  0  0  0
  -28.3431  -26.5231   20.1487 O   0  0  0  0  0  0
  -26.5608  -34.8948   22.4701 O   0  0  0  0  0  0
  -23.5403  -32.1387   23.7398 O   0  0  0  0  0  0
  -30.9234  -19.5591   21.3014 C   0  0  0  0  0  0
  -28.3585  -20.2166   20.4723 C   0  0  0  0  0  0
  -30.4882  -20.9175   21.3858 C   0  0  0  0  0  0
  -30.1148  -18.5044   20.7966 C   0  0  0  0  0  0
  -29.1668  -21.2681   20.9840 C   0  0  0  0  0  0
  -28.8141  -18.8696   20.3641 C   0  0  0  0  0  0
  -33.0108  -21.8513   19.9219 C   0  0  0  0  0  0
  -33.6780  -23.1606   21.9701 C   0  0  0  0  0  0
  -31.4386  -21.9698   21.9690 C   0  0  0  0  0  0
  -28.5371  -22.6762   21.2678 C   0  0  0  0  0  0
  -30.7746  -17.0944   20.6032 C   0  0  0  0  0  0
  -28.7853  -23.9193   20.3200 C   0  0  0  0  0  0
  -28.1826  -25.2690   20.8929 C   0  0  0  0  0  0
  -32.8989  -21.9385   21.4544 C   0  0  0  0  0  0
  -30.0785  -15.7729   20.7808 N   0  0  0  0  0  0
  -27.7613  -17.6884   19.6719 Cl  0  0  0  0  0  0
  -31.4564  -12.4458   19.1585 H   0  0  0  0  0  0
  -30.2993  -11.3913   19.9196 H   0  0  0  0  0  0
  -29.7550  -11.7443   17.4839 H   0  0  0  0  0  0
  -29.6524  -13.4684   17.7411 H   0  0  0  0  0  0
  -27.8536  -11.3029   18.8726 H   0  0  0  0  0  0
  -27.3674  -12.5852   17.7947 H   0  0  0  0  0  0
  -27.6529  -14.2656   19.5023 H   0  0  0  0  0  0
  -28.6945  -12.1409   21.4341 H   0  0  0  0  0  0
  -28.4545  -13.8320   21.7979 H   0  0  0  0  0  0
  -25.2766   -9.5686   22.4749 H   0  0  0  0  0  0
  -24.0007   -7.4636   22.7471 H   0  0  0  0  0  0
  -21.0841   -8.8762   19.8953 H   0  0  0  0  0  0
  -22.3685  -10.9667   19.6169 H   0  0  0  0  0  0
  -21.1998   -7.6141   23.9697 H   0  0  0  0  0  0
  -21.1498   -6.0525   25.9068 H   0  0  0  0  0  0
  -22.0593   -2.7604   23.2841 H   0  0  0  0  0  0
  -22.4128  -11.9897   22.4831 H   0  0  0  0  0  0
  -21.1087  -13.1211   22.2611 H   0  0  0  0  0  0
  -24.6439  -15.8405   20.5212 H   0  0  0  0  0  0
  -26.2622  -15.6421   20.0861 H   0  0  0  0  0  0
  -26.7173  -32.5474   23.1152 H   0  0  0  0  0  0
  -25.0008  -33.9727   25.0427 H   0  0  0  0  0  0
  -22.7045  -31.2990   21.4059 H   0  0  0  0  0  0
  -23.3735  -35.9641   23.3305 H   0  0  0  0  0  0
  -24.3541  -36.8920   22.2046 H   0  0  0  0  0  0
  -23.7219  -37.6528   23.6639 H   0  0  0  0  0  0
  -26.0695  -31.5693   20.5964 H   0  0  0  0  0  0
  -26.8355  -30.8623   21.9905 H   0  0  0  0  0  0
  -28.1163  -29.0316   21.1776 H   0  0  0  0  0  0
  -26.0363  -25.9251   19.0349 H   0  0  0  0  0  0
  -23.9851  -27.2921   19.0167 H   0  0  0  0  0  0
  -23.7485  -30.5906   19.4013 H   0  0  0  0  0  0
  -22.7524  -29.2417   19.8645 H   0  0  0  0  0  0
  -25.1276  -36.1990   25.0847 H   0  0  0  0  0  0
  -20.9983  -28.3257   24.1433 H   0  0  0  0  0  0
  -20.5665  -26.2298   23.3631 H   0  0  0  0  0  0
  -21.6617  -26.7438   22.1221 H   0  0  0  0  0  0
  -19.6883  -25.6309   21.1244 H   0  0  0  0  0  0
  -19.6652  -27.3199   20.6749 H   0  0  0  0  0  0
  -17.4190  -26.6707   21.4045 H   0  0  0  0  0  0
  -18.0324  -26.0054   22.9022 H   0  0  0  0  0  0
  -19.7929  -30.7301   24.2271 H   0  0  0  0  0  0
  -17.4994  -31.6267   24.5192 H   0  0  0  0  0  0
  -15.5347  -30.3007   23.7621 H   0  0  0  0  0  0
  -15.8673  -28.0834   22.7053 H   0  0  0  0  0  0
  -24.5845  -30.7101   25.7851 H   0  0  0  0  0  0
  -24.8924  -32.2894   26.4959 H   0  0  0  0  0  0
  -25.8051  -30.8890   27.0236 H   0  0  0  0  0  0
  -26.2857  -29.6805   24.1143 H   0  0  0  0  0  0
  -27.3971  -29.7265   25.4626 H   0  0  0  0  0  0
  -27.8722  -30.4330   23.9364 H   0  0  0  0  0  0
  -27.2645  -33.3596   26.2092 H   0  0  0  0  0  0
  -28.3811  -32.6896   25.0294 H   0  0  0  0  0  0
  -28.0718  -31.8413   26.5357 H   0  0  0  0  0  0
  -28.2636  -38.0087   24.7525 H   0  0  0  0  0  0
  -28.1058  -36.2632   24.6292 H   0  0  0  0  0  0
  -27.2299  -37.1487   25.8868 H   0  0  0  0  0  0
  -20.9390  -29.8784   21.6942 H   0  0  0  0  0  0
  -26.0174  -38.2906   24.1411 H   0  0  0  0  0  0
  -31.9284  -19.3214   21.6211 H   0  0  0  0  0  0
  -27.3444  -20.4354   20.1728 H   0  0  0  0  0  0
  -34.0562  -21.8347   19.6118 H   0  0  0  0  0  0
  -32.5319  -22.7016   19.4337 H   0  0  0  0  0  0
  -32.5538  -20.9431   19.5306 H   0  0  0  0  0  0
  -34.7385  -23.0880   21.7259 H   0  0  0  0  0  0
  -33.6002  -23.2549   23.0542 H   0  0  0  0  0  0
  -33.3027  -24.0852   21.5294 H   0  0  0  0  0  0
  -31.4354  -21.8674   23.0557 H   0  0  0  0  0  0
  -31.0533  -22.9678   21.7722 H   0  0  0  0  0  0
  -28.8293  -22.9565   22.2809 H   0  0  0  0  0  0
  -27.4592  -22.5339   21.3434 H   0  0  0  0  0  0
  -31.6611  -17.0672   21.2393 H   0  0  0  0  0  0
  -31.1615  -17.1124   19.5824 H   0  0  0  0  0  0
  -28.3483  -23.7137   19.3431 H   0  0  0  0  0  0
  -29.8541  -24.0548   20.1535 H   0  0  0  0  0  0
  -27.1316  -25.0876   21.1215 H   0  0  0  0  0  0
  -28.6420  -25.4498   21.8656 H   0  0  0  0  0  0
  -33.3800  -21.0501   21.8665 H   0  0  0  0  0  0
  -29.0918  -15.7668   20.9907 H   0  0  0  0  0  0
  1 25  1  0  0  0
  1 30  2  0  0  0
  1 85  1  0  0  0
  2  3  1  0  0  0
  2 25  1  0  0  0
  2 87  1  0  0  0
  2 88  1  0  0  0
  3  4  1  0  0  0
  3 89  1  0  0  0
  3 90  1  0  0  0
  4  5  1  0  0  0
  4 91  1  0  0  0
  4 92  1  0  0  0
  5  6  1  0  0  0
  5 26  1  0  0  0
  5 93  1  0  0  0
  6 25  1  0  0  0
  6 94  1  0  0  0
  6 95  1  0  0  0
  7  8  2  0  0  0
  7 26  1  0  0  0
  7 29  1  0  0  0
  8  9  1  0  0  0
  8 22  1  0  0  0
  9 10  1  0  0  0
  9 27  2  0  0  0
 10 11  2  0  0  0
 10 15  1  0  0  0
 11 12  1  0  0  0
 11 96  1  0  0  0
 12 13  2  0  0  0
 12 97  1  0  0  0
 13 14  1  0  0  0
 13 31  1  0  0  0
 14 15  2  0  0  0
 14 98  1  0  0  0
 15 99  1  0  0  0
 16 17  2  0  0  0
 16 21  1  0  0  0
 16 31  1  0  0  0
 17 18  1  0  0  0
 17100  1  0  0  0
 18 19  2  0  0  0
 18101  1  0  0  0
 19 20  1  0  0  0
 19 24  1  0  0  0
 20 21  2  0  0  0
 20102  1  0  0  0
 21 23  1  0  0  0
 22 28  1  0  0  0
 22 32  2  0  0  0
 26 27  1  0  0  0
 28103  1  0  0  0
 28104  1  0  0  0
 29105  1  0  0  0
 29106  1  0  0  0
 33 34  1  0  0  0
 33 66  1  0  0  0
 33 70  2  0  0  0
 34 36  1  0  0  0
 34 59  1  0  0  0
 34107  1  0  0  0
 35 44  2  0  0  0
 35 45  1  0  0  0
 35 68  1  0  0  0
 36 56  1  0  0  0
 36108  1  0  0  0
 37 39  1  0  0  0
 37 47  1  0  0  0
 37 66  1  0  0  0
 37109  1  0  0  0
 38 43  2  0  0  0
 38 46  1  0  0  0
 38 47  1  0  0  0
 39 64  1  0  0  0
 39 67  2  0  0  0
 40 52  1  0  0  0
 40 53  2  0  0  0
 40 58  1  0  0  0
 41110  1  0  0  0
 41111  1  0  0  0
 41112  1  0  0  0
 41 48  1  0  0  0
 42 43  1  0  0  0
 42 66  1  0  0  0
 42113  1  0  0  0
 42114  1  0  0  0
 43 44  1  0  0  0
 44115  1  0  0  0
 45 46  2  0  0  0
 45116  1  0  0  0
 46117  1  0  0  0
 47118  1  0  0  0
 47119  1  0  0  0
 48 56  1  0  0  0
 48 65  1  0  0  0
 48120  1  0  0  0
 49 50  1  0  0  0
 49 53  1  0  0  0
 49 64  1  0  0  0
 49121  1  0  0  0
 50 51  1  0  0  0
 50122  1  0  0  0
 50123  1  0  0  0
 51 52  1  0  0  0
 51124  1  0  0  0
 51125  1  0  0  0
 52126  1  0  0  0
 52127  1  0  0  0
 53 54  1  0  0  0
 54 55  2  0  0  0
 54128  1  0  0  0
 55 57  1  0  0  0
 55129  1  0  0  0
 56 69  2  0  0  0
 57 58  2  0  0  0
 57130  1  0  0  0
 58131  1  0  0  0
 59 60  1  0  0  0
 59 61  1  0  0  0
 59 62  1  0  0  0
 60132  1  0  0  0
 60133  1  0  0  0
 60134  1  0  0  0
 61135  1  0  0  0
 61136  1  0  0  0
 61137  1  0  0  0
 62138  1  0  0  0
 62139  1  0  0  0
 62140  1  0  0  0
 63 65  1  0  0  0
 63141  1  0  0  0
 63142  1  0  0  0
 63143  1  0  0  0
 64144  1  0  0  0
 65145  1  0  0  0
 68 83  1  0  0  0
 71 73  2  0  0  0
 71 74  1  0  0  0
 71146  1  0  0  0
 72 75  2  0  0  0
 72 76  1  0  0  0
 72147  1  0  0  0
 73 75  1  0  0  0
 73 79  1  0  0  0
 74 76  2  0  0  0
 74 81  1  0  0  0
 75 80  1  0  0  0
 76 86  1  0  0  0
 77148  1  0  0  0
 77149  1  0  0  0
 77150  1  0  0  0
 77 84  1  0  0  0
 78 84  1  0  0  0
 78151  1  0  0  0
 78152  1  0  0  0
 78153  1  0  0  0
 79 84  1  0  0  0
 79154  1  0  0  0
 79155  1  0  0  0
 80 82  1  0  0  0
 80156  1  0  0  0
 80157  1  0  0  0
 81 85  1  0  0  0
 81158  1  0  0  0
 81159  1  0  0  0
 82 83  1  0  0  0
 82160  1  0  0  0
 82161  1  0  0  0
 83162  1  0  0  0
 83163  1  0  0  0
 84164  1  0  0  0
 85165  1  0  0  0
M  ISO  4   1 100  68 101  83 101  85 100
M  END
> <chiral flag>
0

> <version>
0

> <s_m_source_file>
/data/baiqing/PycharmProjects/Reinvent-master-3.2/result/LINK_invent/BTK/process_docking_weight1_custom_sum_contain_oxygen_bond_distance_aromatic_linkinvent_7_9_3/rearranged_h_0037.sdf

> <i_m_source_file_index>
52

> <r_mmod_Potential_Energy-OPLS-2005>
38.7048416137695

> <r_mmod_Stretch_Energy-OPLS-2005>
68.6195068359375

> <r_mmod_Bend_Energy-OPLS-2005>
144.960311889648

> <r_mmod_Torsional_Energy-OPLS-2005>
227.258605957031

> <r_mmod_Improper_Torsional_Energy-OPLS-2005>
6.20665311813354

> <r_mmod_Van_der_Waal_Energy-OPLS-2005>
142.129165649414

> <r_mmod_Electrostatic_Energy-OPLS-2005>
-403.327758789062

> <r_mmod_Solvation_Energy-OPLS-2005>
-187.797561645508

> <b_mmod_Minimization_Converged-OPLS-2005>
0

> <r_mmod_RMS_Derivative-OPLS-2005>
2.59346222877502

$$$$
52
                    3D
 Structure written by MMmdl.
161169  0  0  1  0            999 V2000
  -30.7662  -14.4139   20.6440 C   0  0  0  0  0  0
  -30.4151  -12.3000   19.4272 C   0  0  0  0  0  0
  -29.4930  -12.5115   18.2121 C   0  0  0  0  0  0
  -28.0150  -12.3754   18.6237 C   0  0  0  0  0  0
  -27.6643  -13.2112   19.8841 C   0  0  2  0  0  0
  -28.7027  -12.9961   21.0099 C   0  0  0  0  0  0
  -25.2584  -13.8170   20.5713 C   0  0  0  0  0  0
  -24.1843  -13.0439   20.9182 C   0  0  0  0  0  0
  -24.6389  -11.6898   20.8720 C   0  0  0  0  0  0
  -23.9064  -10.4291   21.0385 C   0  0  0  0  0  0
  -24.3620   -9.4210   21.9164 C   0  0  0  0  0  0
  -23.6310   -8.2235   22.0743 C   0  0  0  0  0  0
  -22.4285   -8.0264   21.3543 C   0  0  0  0  0  0
  -21.9917   -9.0235   20.4638 C   0  0  0  0  0  0
  -22.7232  -10.2126   20.3035 C   0  0  0  0  0  0
  -21.6860   -6.0725   22.5271 C   0  0  0  0  0  0
  -21.4020   -6.5635   23.8202 C   0  0  0  0  0  0
  -21.3666   -5.6786   24.9163 C   0  0  0  0  0  0
  -21.6057   -4.3046   24.7226 C   0  0  0  0  0  0
  -21.8824   -3.8141   23.4348 C   0  0  0  0  0  0
  -21.9202   -4.6956   22.3398 C   0  0  0  0  0  0
  -22.7868  -13.5224   21.1837 C   0  0  0  0  0  0
  -22.1667   -4.2136   21.0981 F   0  0  0  0  0  0
  -21.5639   -3.4525   25.7745 F   0  0  0  0  0  0
  -30.0426  -13.2779   20.4618 N   0  0  0  0  0  0
  -26.3034  -12.9353   20.3420 N   0  0  0  0  0  0
  -25.9336  -11.6502   20.5816 N   0  0  0  0  0  0
  -22.0517  -12.8215   22.0409 N   0  0  0  0  0  0
  -25.4317  -15.1894   20.4170 N   0  0  0  0  0  0
  -31.8259  -14.6327   20.0511 O   0  0  0  0  0  0
  -21.6643   -6.8864   21.4237 O   0  0  0  0  0  0
  -22.3538  -14.5515   20.6667 O   0  0  0  0  0  0
  -24.6158  -31.8677   23.2121 C   0  0  0  0  0  0
  -25.9046  -32.4825   23.8417 C   0  0  1  0  0  0
  -27.2284  -27.4366   20.1007 C   0  0  0  0  0  0
  -25.5901  -33.8625   24.2343 N   0  0  0  0  0  0
  -23.4032  -30.4922   21.5523 C   0  0  2  0  0  0
  -24.8469  -28.9556   20.1213 C   0  0  0  0  0  0
  -22.7427  -29.4652   22.5010 C   0  0  0  0  0  0
  -18.0271  -28.1371   22.8508 C   0  0  0  0  0  0
  -24.1488  -36.7315   23.2637 C   0  0  0  0  0  0
  -25.9325  -30.8373   21.3600 C   0  0  0  0  0  0
  -26.0110  -29.4725   20.7054 C   0  0  0  0  0  0
  -27.2092  -28.7242   20.6819 C   0  0  0  0  0  0
  -26.0465  -26.9267   19.5242 C   0  0  0  0  0  0
  -24.8590  -27.6817   19.5277 C   0  0  0  0  0  0
  -23.6114  -29.8250   20.1683 C   0  0  0  0  0  0
  -25.4106  -36.3119   24.0345 C   0  0  1  0  0  0
  -20.5863  -28.3653   23.1336 C   0  0  2  0  0  0
  -20.6756  -26.9384   22.5423 C   0  0  0  0  0  0
  -19.5724  -26.6379   21.5221 C   0  0  0  0  0  0
  -18.1907  -26.7924   22.1635 C   0  0  0  0  0  0
  -19.1521  -28.8834   23.2915 C   0  0  0  0  0  0
  -18.9443  -30.1444   23.8915 C   0  0  0  0  0  0
  -17.6440  -30.6578   24.0562 C   0  0  0  0  0  0
  -25.9030  -34.9479   23.5141 C   0  0  0  0  0  0
  -16.5336  -29.9069   23.6321 C   0  0  0  0  0  0
  -16.7260  -28.6489   23.0351 C   0  0  0  0  0  0
  -26.4456  -31.6607   25.0750 C   0  0  0  0  0  0
  -25.3731  -31.3694   26.1514 C   0  0  0  0  0  0
  -27.0279  -30.3052   24.6119 C   0  0  0  0  0  0
  -27.6047  -32.4332   25.7484 C   0  0  0  0  0  0
  -27.5581  -37.1812   24.8468 C   0  0  0  0  0  0
  -21.4156  -29.3026   22.3753 N   0  0  0  0  0  0
  -26.4299  -37.3798   23.9410 N   0  0  0  0  0  0
  -24.6691  -31.0800   22.1002 N   0  0  0  0  0  0
  -23.4202  -28.8182   23.3041 O   0  0  0  0  0  0
  -28.3860  -26.6924   20.0936 O   0  0  0  0  0  0
  -26.5581  -34.8932   22.4700 O   0  0  0  0  0  0
  -23.5348  -32.1406   23.7522 O   0  0  0  0  0  0
  -27.7438  -20.4383   20.3975 C   0  0  0  0  0  0
  -28.4623  -22.6417   21.8610 C   0  0  0  0  0  0
  -27.8516  -21.6754   19.7311 C   0  0  0  0  0  0
  -28.2135  -22.8234   20.4806 C   0  0  0  0  0  0
  -27.9960  -20.3704   21.7778 C   0  0  0  0  0  0
  -27.5675  -21.7351   18.2409 C   0  0  0  0  0  0
  -28.3430  -24.2061   19.8120 C   0  0  0  0  0  0
  -27.8078  -19.0647   22.5426 C   0  0  0  0  0  0
  -29.0885  -18.2383   22.7933 C   0  0  0  0  0  0
  -29.8360  -17.7924   21.5214 C   0  0  0  0  0  0
  -30.8387  -16.6439   21.7657 C   0  0  0  0  0  0
  -28.3007  -25.4265   20.7678 C   0  0  0  0  0  0
  -28.3584  -21.4535   22.4951 N   0  0  0  0  0  0
  -30.2551  -15.3213   21.4916 N   0  0  0  0  0  0
  -31.4609  -12.3815   19.1256 H   0  0  0  0  0  0
  -30.3054  -11.2915   19.8260 H   0  0  0  0  0  0
  -29.7319  -11.7869   17.4324 H   0  0  0  0  0  0
  -29.6682  -13.4994   17.7813 H   0  0  0  0  0  0
  -27.8190  -11.3185   18.8132 H   0  0  0  0  0  0
  -27.3659  -12.6593   17.7955 H   0  0  0  0  0  0
  -27.7116  -14.2611   19.5954 H   0  0  0  0  0  0
  -28.6670  -11.9685   21.3700 H   0  0  0  0  0  0
  -28.4554  -13.6132   21.8748 H   0  0  0  0  0  0
  -25.2761   -9.5684   22.4732 H   0  0  0  0  0  0
  -24.0028   -7.4629   22.7453 H   0  0  0  0  0  0
  -21.0857   -8.8728   19.8940 H   0  0  0  0  0  0
  -22.3678  -10.9649   19.6121 H   0  0  0  0  0  0
  -21.2002   -7.6139   23.9696 H   0  0  0  0  0  0
  -21.1489   -6.0518   25.9061 H   0  0  0  0  0  0
  -22.0605   -2.7607   23.2850 H   0  0  0  0  0  0
  -22.4177  -11.9906   22.4834 H   0  0  0  0  0  0
  -21.1083  -13.1129   22.2515 H   0  0  0  0  0  0
  -24.6733  -15.8500   20.5428 H   0  0  0  0  0  0
  -26.2974  -15.6301   20.1326 H   0  0  0  0  0  0
  -26.7125  -32.5527   23.1181 H   0  0  0  0  0  0
  -25.0100  -33.9785   25.0524 H   0  0  0  0  0  0
  -22.6898  -31.3073   21.4128 H   0  0  0  0  0  0
  -23.3756  -35.9644   23.3322 H   0  0  0  0  0  0
  -24.3585  -36.8903   22.2047 H   0  0  0  0  0  0
  -23.7243  -37.6530   23.6638 H   0  0  0  0  0  0
  -26.0426  -31.6046   20.5929 H   0  0  0  0  0  0
  -26.8220  -30.8906   21.9780 H   0  0  0  0  0  0
  -28.1134  -29.1200   21.1233 H   0  0  0  0  0  0
  -26.0349  -25.9453   19.0737 H   0  0  0  0  0  0
  -23.9607  -27.2732   19.0833 H   0  0  0  0  0  0
  -23.7233  -30.5989   19.4083 H   0  0  0  0  0  0
  -22.7358  -29.2471   19.8710 H   0  0  0  0  0  0
  -25.1275  -36.1988   25.0837 H   0  0  0  0  0  0
  -20.9948  -28.3209   24.1459 H   0  0  0  0  0  0
  -20.5664  -26.2244   23.3601 H   0  0  0  0  0  0
  -21.6621  -26.7423   22.1194 H   0  0  0  0  0  0
  -19.6876  -25.6294   21.1234 H   0  0  0  0  0  0
  -19.6671  -27.3211   20.6768 H   0  0  0  0  0  0
  -17.4173  -26.6699   21.4030 H   0  0  0  0  0  0
  -18.0289  -26.0043   22.9007 H   0  0  0  0  0  0
  -19.7917  -30.7261   24.2284 H   0  0  0  0  0  0
  -17.4989  -31.6262   24.5150 H   0  0  0  0  0  0
  -15.5335  -30.2967   23.7639 H   0  0  0  0  0  0
  -15.8664  -28.0814   22.7046 H   0  0  0  0  0  0
  -24.5906  -30.7023   25.7861 H   0  0  0  0  0  0
  -24.8903  -32.2832   26.5002 H   0  0  0  0  0  0
  -25.8101  -30.8852   27.0261 H   0  0  0  0  0  0
  -26.2816  -29.6826   24.1159 H   0  0  0  0  0  0
  -27.4027  -29.7272   25.4580 H   0  0  0  0  0  0
  -27.8671  -30.4370   23.9279 H   0  0  0  0  0  0
  -27.2686  -33.3628   26.2094 H   0  0  0  0  0  0
  -28.3826  -32.6897   25.0277 H   0  0  0  0  0  0
  -28.0752  -31.8443   26.5366 H   0  0  0  0  0  0
  -28.2603  -38.0097   24.7506 H   0  0  0  0  0  0
  -28.1067  -36.2631   24.6310 H   0  0  0  0  0  0
  -27.2302  -37.1492   25.8871 H   0  0  0  0  0  0
  -20.9313  -29.8761   21.6991 H   0  0  0  0  0  0
  -26.0194  -38.2883   24.1411 H   0  0  0  0  0  0
  -27.4508  -19.5436   19.8646 H   0  0  0  0  0  0
  -28.7410  -23.4659   22.4990 H   0  0  0  0  0  0
  -27.4131  -20.7367   17.8279 H   0  0  0  0  0  0
  -28.4008  -22.1903   17.7045 H   0  0  0  0  0  0
  -26.6664  -22.3156   18.0442 H   0  0  0  0  0  0
  -27.5473  -24.3102   19.0764 H   0  0  0  0  0  0
  -29.2774  -24.2257   19.2504 H   0  0  0  0  0  0
  -27.0782  -18.4495   22.0152 H   0  0  0  0  0  0
  -27.3415  -19.2967   23.5032 H   0  0  0  0  0  0
  -29.7675  -18.8091   23.4294 H   0  0  0  0  0  0
  -28.8119  -17.3559   23.3702 H   0  0  0  0  0  0
  -30.3803  -18.6565   21.1344 H   0  0  0  0  0  0
  -29.1339  -17.5170   20.7335 H   0  0  0  0  0  0
  -31.2191  -16.6657   22.7889 H   0  0  0  0  0  0
  -31.7123  -16.8208   21.1360 H   0  0  0  0  0  0
  -29.1562  -25.3811   21.4418 H   0  0  0  0  0  0
  -27.4129  -25.3726   21.4030 H   0  0  0  0  0  0
  -29.3963  -15.0771   21.9598 H   0  0  0  0  0  0
  1 25  1  0  0  0
  1 30  2  0  0  0
  1 84  1  0  0  0
  2  3  1  0  0  0
  2 25  1  0  0  0
  2 85  1  0  0  0
  2 86  1  0  0  0
  3  4  1  0  0  0
  3 87  1  0  0  0
  3 88  1  0  0  0
  4  5  1  0  0  0
  4 89  1  0  0  0
  4 90  1  0  0  0
  5  6  1  0  0  0
  5 26  1  0  0  0
  5 91  1  0  0  0
  6 25  1  0  0  0
  6 92  1  0  0  0
  6 93  1  0  0  0
  7  8  2  0  0  0
  7 26  1  0  0  0
  7 29  1  0  0  0
  8  9  1  0  0  0
  8 22  1  0  0  0
  9 10  1  0  0  0
  9 27  2  0  0  0
 10 11  2  0  0  0
 10 15  1  0  0  0
 11 12  1  0  0  0
 11 94  1  0  0  0
 12 13  2  0  0  0
 12 95  1  0  0  0
 13 14  1  0  0  0
 13 31  1  0  0  0
 14 15  2  0  0  0
 14 96  1  0  0  0
 15 97  1  0  0  0
 16 17  2  0  0  0
 16 21  1  0  0  0
 16 31  1  0  0  0
 17 18  1  0  0  0
 17 98  1  0  0  0
 18 19  2  0  0  0
 18 99  1  0  0  0
 19 20  1  0  0  0
 19 24  1  0  0  0
 20 21  2  0  0  0
 20100  1  0  0  0
 21 23  1  0  0  0
 22 28  1  0  0  0
 22 32  2  0  0  0
 26 27  1  0  0  0
 28101  1  0  0  0
 28102  1  0  0  0
 29103  1  0  0  0
 29104  1  0  0  0
 33 34  1  0  0  0
 33 66  1  0  0  0
 33 70  2  0  0  0
 34 36  1  0  0  0
 34 59  1  0  0  0
 34105  1  0  0  0
 35 44  2  0  0  0
 35 45  1  0  0  0
 35 68  1  0  0  0
 36 56  1  0  0  0
 36106  1  0  0  0
 37 39  1  0  0  0
 37 47  1  0  0  0
 37 66  1  0  0  0
 37107  1  0  0  0
 38 43  2  0  0  0
 38 46  1  0  0  0
 38 47  1  0  0  0
 39 64  1  0  0  0
 39 67  2  0  0  0
 40 52  1  0  0  0
 40 53  2  0  0  0
 40 58  1  0  0  0
 41108  1  0  0  0
 41109  1  0  0  0
 41110  1  0  0  0
 41 48  1  0  0  0
 42 43  1  0  0  0
 42 66  1  0  0  0
 42111  1  0  0  0
 42112  1  0  0  0
 43 44  1  0  0  0
 44113  1  0  0  0
 45 46  2  0  0  0
 45114  1  0  0  0
 46115  1  0  0  0
 47116  1  0  0  0
 47117  1  0  0  0
 48 56  1  0  0  0
 48 65  1  0  0  0
 48118  1  0  0  0
 49 50  1  0  0  0
 49 53  1  0  0  0
 49 64  1  0  0  0
 49119  1  0  0  0
 50 51  1  0  0  0
 50120  1  0  0  0
 50121  1  0  0  0
 51 52  1  0  0  0
 51122  1  0  0  0
 51123  1  0  0  0
 52124  1  0  0  0
 52125  1  0  0  0
 53 54  1  0  0  0
 54 55  2  0  0  0
 54126  1  0  0  0
 55 57  1  0  0  0
 55127  1  0  0  0
 56 69  2  0  0  0
 57 58  2  0  0  0
 57128  1  0  0  0
 58129  1  0  0  0
 59 60  1  0  0  0
 59 61  1  0  0  0
 59 62  1  0  0  0
 60130  1  0  0  0
 60131  1  0  0  0
 60132  1  0  0  0
 61133  1  0  0  0
 61134  1  0  0  0
 61135  1  0  0  0
 62136  1  0  0  0
 62137  1  0  0  0
 62138  1  0  0  0
 63 65  1  0  0  0
 63139  1  0  0  0
 63140  1  0  0  0
 63141  1  0  0  0
 64142  1  0  0  0
 65143  1  0  0  0
 68 82  1  0  0  0
 71 73  2  0  0  0
 71 75  1  0  0  0
 71144  1  0  0  0
 72 74  2  0  0  0
 72 83  1  0  0  0
 72145  1  0  0  0
 73 74  1  0  0  0
 73 76  1  0  0  0
 74 77  1  0  0  0
 75 78  1  0  0  0
 75 83  2  0  0  0
 76146  1  0  0  0
 76147  1  0  0  0
 76148  1  0  0  0
 77 82  1  0  0  0
 77149  1  0  0  0
 77150  1  0  0  0
 78 79  1  0  0  0
 78151  1  0  0  0
 78152  1  0  0  0
 79 80  1  0  0  0
 79153  1  0  0  0
 79154  1  0  0  0
 80 81  1  0  0  0
 80155  1  0  0  0
 80156  1  0  0  0
 81 84  1  0  0  0
 81157  1  0  0  0
 81158  1  0  0  0
 82159  1  0  0  0
 82160  1  0  0  0
 84161  1  0  0  0
M  ISO  4   1 100  68 101  82 101  84 100
M  END
> <chiral flag>
0

> <version>
0

> <s_m_source_file>
/data/baiqing/PycharmProjects/Reinvent-master-3.2/result/LINK_invent/BTK/process_docking_weight1_custom_sum_contain_oxygen_bond_distance_aromatic_linkinvent_7_9_3/rearranged_h_0037.sdf

> <i_m_source_file_index>
53

> <r_mmod_Potential_Energy-OPLS-2005>
-228.783203125

> <r_mmod_Stretch_Energy-OPLS-2005>
35.7896881103516

> <r_mmod_Bend_Energy-OPLS-2005>
91.8856201171875

> <r_mmod_Torsional_Energy-OPLS-2005>
216.982467651367

> <r_mmod_Improper_Torsional_Energy-OPLS-2005>
1.68525779247284

> <r_mmod_Van_der_Waal_Energy-OPLS-2005>
154.860778808594

> <r_mmod_Electrostatic_Energy-OPLS-2005>
-519.3232421875

> <r_mmod_Solvation_Energy-OPLS-2005>
-220.567489624023

> <b_mmod_Minimization_Converged-OPLS-2005>
0

> <r_mmod_RMS_Derivative-OPLS-2005>
2.82485890388489

$$$$
53
                    3D
 Structure written by MMmdl.
155163  0  0  1  0            999 V2000
  -30.6635  -14.6183   20.4826 C   0  0  0  0  0  0
  -30.4176  -12.3782   19.4594 C   0  0  0  0  0  0
  -29.5011  -12.5021   18.2250 C   0  0  0  0  0  0
  -28.0255  -12.3423   18.6379 C   0  0  0  0  0  0
  -27.6460  -13.2262   19.8572 C   0  0  2  0  0  0
  -28.6880  -13.1166   20.9924 C   0  0  0  0  0  0
  -25.2532  -13.8204   20.5718 C   0  0  0  0  0  0
  -24.1817  -13.0443   20.9219 C   0  0  0  0  0  0
  -24.6397  -11.6920   20.8755 C   0  0  0  0  0  0
  -23.9077  -10.4297   21.0405 C   0  0  0  0  0  0
  -24.3631   -9.4212   21.9186 C   0  0  0  0  0  0
  -23.6301   -8.2247   22.0754 C   0  0  0  0  0  0
  -22.4281   -8.0289   21.3545 C   0  0  0  0  0  0
  -21.9925   -9.0269   20.4655 C   0  0  0  0  0  0
  -22.7255  -10.2142   20.3057 C   0  0  0  0  0  0
  -21.6861   -6.0746   22.5285 C   0  0  0  0  0  0
  -21.4012   -6.5644   23.8219 C   0  0  0  0  0  0
  -21.3663   -5.6793   24.9185 C   0  0  0  0  0  0
  -21.6038   -4.3054   24.7227 C   0  0  0  0  0  0
  -21.8822   -3.8151   23.4353 C   0  0  0  0  0  0
  -21.9194   -4.6974   22.3408 C   0  0  0  0  0  0
  -22.7837  -13.5226   21.1873 C   0  0  0  0  0  0
  -22.1666   -4.2155   21.0984 F   0  0  0  0  0  0
  -21.5631   -3.4538   25.7738 F   0  0  0  0  0  0
  -30.0013  -13.4237   20.4151 N   0  0  0  0  0  0
  -26.2956  -12.9397   20.3315 N   0  0  0  0  0  0
  -25.9319  -11.6540   20.5750 N   0  0  0  0  0  0
  -22.0481  -12.8216   22.0425 N   0  0  0  0  0  0
  -25.4239  -15.1930   20.4143 N   0  0  0  0  0  0
  -31.8464  -14.7035   20.1457 O   0  0  0  0  0  0
  -21.6643   -6.8890   21.4244 O   0  0  0  0  0  0
  -22.3528  -14.5538   20.6729 O   0  0  0  0  0  0
  -24.6225  -31.8619   23.2040 C   0  0  0  0  0  0
  -25.9086  -32.4792   23.8363 C   0  0  1  0  0  0
  -27.2204  -27.3497   20.1252 C   0  0  0  0  0  0
  -25.5913  -33.8587   24.2296 N   0  0  0  0  0  0
  -23.4150  -30.4850   21.5451 C   0  0  2  0  0  0
  -24.8635  -28.9427   20.1111 C   0  0  0  0  0  0
  -22.7453  -29.4635   22.4944 C   0  0  0  0  0  0
  -18.0285  -28.1392   22.8499 C   0  0  0  0  0  0
  -24.1488  -36.7292   23.2637 C   0  0  0  0  0  0
  -25.9513  -30.8054   21.3677 C   0  0  0  0  0  0
  -26.0302  -29.4343   20.7125 C   0  0  0  0  0  0
  -27.2171  -28.6495   20.7083 C   0  0  0  0  0  0
  -26.0389  -26.8999   19.5004 C   0  0  0  0  0  0
  -24.8683  -27.6802   19.4950 C   0  0  0  0  0  0
  -23.6286  -29.8172   20.1608 C   0  0  0  0  0  0
  -25.4112  -36.3081   24.0327 C   0  0  1  0  0  0
  -20.5883  -28.3683   23.1294 C   0  0  2  0  0  0
  -20.6769  -26.9408   22.5420 C   0  0  0  0  0  0
  -19.5747  -26.6393   21.5214 C   0  0  0  0  0  0
  -18.1929  -26.7938   22.1633 C   0  0  0  0  0  0
  -19.1538  -28.8855   23.2892 C   0  0  0  0  0  0
  -18.9459  -30.1456   23.8907 C   0  0  0  0  0  0
  -17.6456  -30.6591   24.0567 C   0  0  0  0  0  0
  -25.9049  -34.9451   23.5115 C   0  0  0  0  0  0
  -16.5346  -29.9096   23.6326 C   0  0  0  0  0  0
  -16.7271  -28.6513   23.0354 C   0  0  0  0  0  0
  -26.4489  -31.6584   25.0715 C   0  0  0  0  0  0
  -25.3738  -31.3710   26.1451 C   0  0  0  0  0  0
  -27.0322  -30.3016   24.6135 C   0  0  0  0  0  0
  -27.6060  -32.4310   25.7484 C   0  0  0  0  0  0
  -27.5573  -37.1805   24.8465 C   0  0  0  0  0  0
  -21.4170  -29.3036   22.3682 N   0  0  0  0  0  0
  -26.4286  -37.3777   23.9405 N   0  0  0  0  0  0
  -24.6814  -31.0671   22.0964 N   0  0  0  0  0  0
  -23.4194  -28.8177   23.3013 O   0  0  0  0  0  0
  -28.3184  -26.4927   20.1665 O   0  0  0  0  0  0
  -26.5607  -34.8911   22.4678 O   0  0  0  0  0  0
  -23.5401  -32.1401   23.7396 O   0  0  0  0  0  0
  -29.3755  -19.2282   19.4540 C   0  0  0  0  0  0
  -28.8861  -20.5599   19.5706 C   0  0  0  0  0  0
  -29.4755  -19.1314   21.8396 C   0  0  0  0  0  0
  -29.7041  -18.4708   20.6086 C   0  0  0  0  0  0
  -28.7286  -21.1478   20.8450 C   0  0  0  0  0  0
  -26.5370  -22.3735   21.0447 C   0  0  0  0  0  0
  -30.5220  -17.1321   20.5156 C   0  0  0  0  0  0
  -28.5302  -23.8315   20.2678 C   0  0  0  0  0  0
  -28.0973  -25.2311   20.8924 C   0  0  0  0  0  0
  -28.0673  -22.5497   21.0934 C   0  0  2  0  0  0
  -29.0038  -20.4063   21.9520 N   0  0  0  0  0  0
  -29.9379  -15.7600   20.7039 N   0  0  0  0  0  0
  -31.4638  -12.4703   19.1623 H   0  0  0  0  0  0
  -30.3226  -11.3907   19.9138 H   0  0  0  0  0  0
  -29.7664  -11.7511   17.4792 H   0  0  0  0  0  0
  -29.6495  -13.4742   17.7493 H   0  0  0  0  0  0
  -27.8668  -11.2906   18.8832 H   0  0  0  0  0  0
  -27.3705  -12.5615   17.7935 H   0  0  0  0  0  0
  -27.6564  -14.2559   19.4998 H   0  0  0  0  0  0
  -28.6911  -12.1153   21.4244 H   0  0  0  0  0  0
  -28.4432  -13.7997   21.8071 H   0  0  0  0  0  0
  -25.2775   -9.5684   22.4772 H   0  0  0  0  0  0
  -24.0018   -7.4628   22.7461 H   0  0  0  0  0  0
  -21.0865   -8.8792   19.8948 H   0  0  0  0  0  0
  -22.3723  -10.9690   19.6173 H   0  0  0  0  0  0
  -21.1995   -7.6144   23.9728 H   0  0  0  0  0  0
  -21.1485   -6.0519   25.9089 H   0  0  0  0  0  0
  -22.0593   -2.7610   23.2849 H   0  0  0  0  0  0
  -22.4090  -11.9867   22.4803 H   0  0  0  0  0  0
  -21.1102  -13.1246   22.2626 H   0  0  0  0  0  0
  -24.6569  -15.8479   20.5222 H   0  0  0  0  0  0
  -26.2719  -15.6321   20.0789 H   0  0  0  0  0  0
  -26.7153  -32.5483   23.1112 H   0  0  0  0  0  0
  -25.0050  -33.9744   25.0430 H   0  0  0  0  0  0
  -22.7042  -31.3024   21.4012 H   0  0  0  0  0  0
  -23.3742  -35.9634   23.3312 H   0  0  0  0  0  0
  -24.3578  -36.8905   22.2051 H   0  0  0  0  0  0
  -23.7251  -37.6501   23.6655 H   0  0  0  0  0  0
  -26.0741  -31.5677   20.5968 H   0  0  0  0  0  0
  -26.8350  -30.8600   21.9924 H   0  0  0  0  0  0
  -28.1136  -29.0198   21.1850 H   0  0  0  0  0  0
  -26.0149  -25.9232   19.0363 H   0  0  0  0  0  0
  -23.9741  -27.2989   19.0224 H   0  0  0  0  0  0
  -23.7392  -30.5901   19.3989 H   0  0  0  0  0  0
  -22.7505  -29.2408   19.8652 H   0  0  0  0  0  0
  -25.1295  -36.1936   25.0820 H   0  0  0  0  0  0
  -20.9987  -28.3261   24.1406 H   0  0  0  0  0  0
  -20.5667  -26.2288   23.3617 H   0  0  0  0  0  0
  -21.6635  -26.7432   22.1206 H   0  0  0  0  0  0
  -19.6896  -25.6307   21.1237 H   0  0  0  0  0  0
  -19.6688  -27.3201   20.6741 H   0  0  0  0  0  0
  -17.4193  -26.6677   21.4039 H   0  0  0  0  0  0
  -18.0333  -26.0080   22.9035 H   0  0  0  0  0  0
  -19.7930  -30.7280   24.2279 H   0  0  0  0  0  0
  -17.5009  -31.6277   24.5170 H   0  0  0  0  0  0
  -15.5352  -30.3006   23.7648 H   0  0  0  0  0  0
  -15.8664  -28.0840   22.7063 H   0  0  0  0  0  0
  -24.5887  -30.7092   25.7768 H   0  0  0  0  0  0
  -24.8964  -32.2885   26.4910 H   0  0  0  0  0  0
  -25.8078  -30.8848   27.0198 H   0  0  0  0  0  0
  -26.2890  -29.6784   24.1146 H   0  0  0  0  0  0
  -27.4013  -29.7249   25.4625 H   0  0  0  0  0  0
  -27.8762  -30.4308   23.9353 H   0  0  0  0  0  0
  -27.2662  -33.3574   26.2120 H   0  0  0  0  0  0
  -28.3842  -32.6930   25.0304 H   0  0  0  0  0  0
  -28.0756  -31.8399   26.5355 H   0  0  0  0  0  0
  -28.2607  -38.0084   24.7490 H   0  0  0  0  0  0
  -28.1054  -36.2619   24.6322 H   0  0  0  0  0  0
  -27.2289  -37.1485   25.8867 H   0  0  0  0  0  0
  -20.9330  -29.8756   21.6899 H   0  0  0  0  0  0
  -26.0165  -38.2854   24.1399 H   0  0  0  0  0  0
  -29.5389  -18.8102   18.4699 H   0  0  0  0  0  0
  -28.6324  -21.1217   18.6824 H   0  0  0  0  0  0
  -29.7283  -18.6424   22.7697 H   0  0  0  0  0  0
  -26.2140  -21.5703   21.7069 H   0  0  0  0  0  0
  -26.2046  -22.1231   20.0372 H   0  0  0  0  0  0
  -26.0029  -23.2688   21.3580 H   0  0  0  0  0  0
  -31.3386  -17.2255   21.2341 H   0  0  0  0  0  0
  -31.0131  -17.1404   19.5392 H   0  0  0  0  0  0
  -28.1623  -23.7518   19.2449 H   0  0  0  0  0  0
  -29.6180  -23.8223   20.1958 H   0  0  0  0  0  0
  -28.6241  -25.3399   21.8408 H   0  0  0  0  0  0
  -27.0510  -25.1663   21.1853 H   0  0  0  0  0  0
  -28.3172  -22.7901   22.1278 H   0  0  0  0  0  0
  -28.9589  -15.6694   20.9264 H   0  0  0  0  0  0
  1 25  1  0  0  0
  1 30  2  0  0  0
  1 82  1  0  0  0
  2  3  1  0  0  0
  2 25  1  0  0  0
  2 83  1  0  0  0
  2 84  1  0  0  0
  3  4  1  0  0  0
  3 85  1  0  0  0
  3 86  1  0  0  0
  4  5  1  0  0  0
  4 87  1  0  0  0
  4 88  1  0  0  0
  5  6  1  0  0  0
  5 26  1  0  0  0
  5 89  1  0  0  0
  6 25  1  0  0  0
  6 90  1  0  0  0
  6 91  1  0  0  0
  7  8  2  0  0  0
  7 26  1  0  0  0
  7 29  1  0  0  0
  8  9  1  0  0  0
  8 22  1  0  0  0
  9 10  1  0  0  0
  9 27  2  0  0  0
 10 11  2  0  0  0
 10 15  1  0  0  0
 11 12  1  0  0  0
 11 92  1  0  0  0
 12 13  2  0  0  0
 12 93  1  0  0  0
 13 14  1  0  0  0
 13 31  1  0  0  0
 14 15  2  0  0  0
 14 94  1  0  0  0
 15 95  1  0  0  0
 16 17  2  0  0  0
 16 21  1  0  0  0
 16 31  1  0  0  0
 17 18  1  0  0  0
 17 96  1  0  0  0
 18 19  2  0  0  0
 18 97  1  0  0  0
 19 20  1  0  0  0
 19 24  1  0  0  0
 20 21  2  0  0  0
 20 98  1  0  0  0
 21 23  1  0  0  0
 22 28  1  0  0  0
 22 32  2  0  0  0
 26 27  1  0  0  0
 28 99  1  0  0  0
 28100  1  0  0  0
 29101  1  0  0  0
 29102  1  0  0  0
 33 34  1  0  0  0
 33 66  1  0  0  0
 33 70  2  0  0  0
 34 36  1  0  0  0
 34 59  1  0  0  0
 34103  1  0  0  0
 35 44  2  0  0  0
 35 45  1  0  0  0
 35 68  1  0  0  0
 36 56  1  0  0  0
 36104  1  0  0  0
 37 39  1  0  0  0
 37 47  1  0  0  0
 37 66  1  0  0  0
 37105  1  0  0  0
 38 43  2  0  0  0
 38 46  1  0  0  0
 38 47  1  0  0  0
 39 64  1  0  0  0
 39 67  2  0  0  0
 40 52  1  0  0  0
 40 53  2  0  0  0
 40 58  1  0  0  0
 41106  1  0  0  0
 41107  1  0  0  0
 41108  1  0  0  0
 41 48  1  0  0  0
 42 43  1  0  0  0
 42 66  1  0  0  0
 42109  1  0  0  0
 42110  1  0  0  0
 43 44  1  0  0  0
 44111  1  0  0  0
 45 46  2  0  0  0
 45112  1  0  0  0
 46113  1  0  0  0
 47114  1  0  0  0
 47115  1  0  0  0
 48 56  1  0  0  0
 48 65  1  0  0  0
 48116  1  0  0  0
 49 50  1  0  0  0
 49 53  1  0  0  0
 49 64  1  0  0  0
 49117  1  0  0  0
 50 51  1  0  0  0
 50118  1  0  0  0
 50119  1  0  0  0
 51 52  1  0  0  0
 51120  1  0  0  0
 51121  1  0  0  0
 52122  1  0  0  0
 52123  1  0  0  0
 53 54  1  0  0  0
 54 55  2  0  0  0
 54124  1  0  0  0
 55 57  1  0  0  0
 55125  1  0  0  0
 56 69  2  0  0  0
 57 58  2  0  0  0
 57126  1  0  0  0
 58127  1  0  0  0
 59 60  1  0  0  0
 59 61  1  0  0  0
 59 62  1  0  0  0
 60128  1  0  0  0
 60129  1  0  0  0
 60130  1  0  0  0
 61131  1  0  0  0
 61132  1  0  0  0
 61133  1  0  0  0
 62134  1  0  0  0
 62135  1  0  0  0
 62136  1  0  0  0
 63 65  1  0  0  0
 63137  1  0  0  0
 63138  1  0  0  0
 63139  1  0  0  0
 64140  1  0  0  0
 65141  1  0  0  0
 68 79  1  0  0  0
 71 72  2  0  0  0
 71 74  1  0  0  0
 71142  1  0  0  0
 72 75  1  0  0  0
 72143  1  0  0  0
 73 74  2  0  0  0
 73 81  1  0  0  0
 73144  1  0  0  0
 74 77  1  0  0  0
 75 80  1  0  0  0
 75 81  2  0  0  0
 76145  1  0  0  0
 76146  1  0  0  0
 76147  1  0  0  0
 76 80  1  0  0  0
 77 82  1  0  0  0
 77148  1  0  0  0
 77149  1  0  0  0
 78 79  1  0  0  0
 78 80  1  0  0  0
 78150  1  0  0  0
 78151  1  0  0  0
 79152  1  0  0  0
 79153  1  0  0  0
 80154  1  0  0  0
 82155  1  0  0  0
M  ISO  4   1 100  68 101  79 101  82 100
M  END
> <chiral flag>
0

> <version>
0

> <s_m_source_file>
/data/baiqing/PycharmProjects/Reinvent-master-3.2/result/LINK_invent/BTK/process_docking_weight1_custom_sum_contain_oxygen_bond_distance_aromatic_linkinvent_7_9_3/rearranged_h_0037.sdf

> <i_m_source_file_index>
54

> <r_mmod_Potential_Energy-OPLS-2005>
-108.209510803223

> <r_mmod_Stretch_Energy-OPLS-2005>
69.562370300293

> <r_mmod_Bend_Energy-OPLS-2005>
135.585571289062

> <r_mmod_Torsional_Energy-OPLS-2005>
231.709899902344

> <r_mmod_Improper_Torsional_Energy-OPLS-2005>
7.52053880691528

> <r_mmod_Van_der_Waal_Energy-OPLS-2005>
145.439605712891

> <r_mmod_Electrostatic_Energy-OPLS-2005>
-526.9638671875

> <r_mmod_Solvation_Energy-OPLS-2005>
-215.137786865234

> <b_mmod_Minimization_Converged-OPLS-2005>
0

> <r_mmod_RMS_Derivative-OPLS-2005>
1.76538062095642

$$$$
54
                    3D
 Structure written by MMmdl.
162170  0  0  1  0            999 V2000
  -30.6212  -14.4255   20.6432 C   0  0  0  0  0  0
  -30.4432  -12.3091   19.4055 C   0  0  0  0  0  0
  -29.5002  -12.5344   18.2052 C   0  0  0  0  0  0
  -28.0122  -12.4004   18.5994 C   0  0  0  0  0  0
  -27.6646  -13.1858   19.8933 C   0  0  2  0  0  0
  -28.6911  -12.8668   20.9974 C   0  0  0  0  0  0
  -25.2640  -13.8144   20.5656 C   0  0  0  0  0  0
  -24.1844  -13.0461   20.9124 C   0  0  0  0  0  0
  -24.6334  -11.6920   20.8679 C   0  0  0  0  0  0
  -23.8974  -10.4337   21.0344 C   0  0  0  0  0  0
  -24.3568   -9.4284   21.9134 C   0  0  0  0  0  0
  -23.6305   -8.2287   22.0724 C   0  0  0  0  0  0
  -22.4291   -8.0275   21.3537 C   0  0  0  0  0  0
  -21.9864   -9.0216   20.4626 C   0  0  0  0  0  0
  -22.7141  -10.2131   20.3026 C   0  0  0  0  0  0
  -21.6881   -6.0728   22.5268 C   0  0  0  0  0  0
  -21.4011   -6.5623   23.8199 C   0  0  0  0  0  0
  -21.3682   -5.6774   24.9153 C   0  0  0  0  0  0
  -21.6048   -4.3035   24.7200 C   0  0  0  0  0  0
  -21.8847   -3.8138   23.4318 C   0  0  0  0  0  0
  -21.9226   -4.6957   22.3387 C   0  0  0  0  0  0
  -22.7890  -13.5307   21.1804 C   0  0  0  0  0  0
  -22.1700   -4.2143   21.0958 F   0  0  0  0  0  0
  -21.5631   -3.4519   25.7711 F   0  0  0  0  0  0
  -30.0234  -13.2215   20.4762 N   0  0  0  0  0  0
  -26.3009  -12.9232   20.3377 N   0  0  0  0  0  0
  -25.9247  -11.6413   20.5704 N   0  0  0  0  0  0
  -22.0513  -12.8314   22.0355 N   0  0  0  0  0  0
  -25.4470  -15.1846   20.4087 N   0  0  0  0  0  0
  -31.7234  -14.7170   20.1656 O   0  0  0  0  0  0
  -21.6692   -6.8855   21.4230 O   0  0  0  0  0  0
  -22.3584  -14.5607   20.6656 O   0  0  0  0  0  0
  -24.6123  -31.8683   23.2131 C   0  0  0  0  0  0
  -25.9033  -32.4830   23.8403 C   0  0  1  0  0  0
  -27.2249  -27.4540   20.0826 C   0  0  0  0  0  0
  -25.5889  -33.8614   24.2353 N   0  0  0  0  0  0
  -23.4005  -30.4971   21.5491 C   0  0  2  0  0  0
  -24.8442  -28.9641   20.1196 C   0  0  0  0  0  0
  -22.7401  -29.4664   22.4943 C   0  0  0  0  0  0
  -18.0269  -28.1380   22.8485 C   0  0  0  0  0  0
  -24.1489  -36.7306   23.2640 C   0  0  0  0  0  0
  -25.9315  -30.8394   21.3674 C   0  0  0  0  0  0
  -26.0064  -29.4773   20.7087 C   0  0  0  0  0  0
  -27.2022  -28.7312   20.6839 C   0  0  0  0  0  0
  -26.0413  -26.9447   19.5013 C   0  0  0  0  0  0
  -24.8514  -27.6936   19.5205 C   0  0  0  0  0  0
  -23.6145  -29.8350   20.1625 C   0  0  0  0  0  0
  -25.4101  -36.3105   24.0363 C   0  0  1  0  0  0
  -20.5864  -28.3654   23.1314 C   0  0  2  0  0  0
  -20.6767  -26.9397   22.5407 C   0  0  0  0  0  0
  -19.5751  -26.6387   21.5203 C   0  0  0  0  0  0
  -18.1921  -26.7934   22.1609 C   0  0  0  0  0  0
  -19.1526  -28.8829   23.2909 C   0  0  0  0  0  0
  -18.9458  -30.1431   23.8916 C   0  0  0  0  0  0
  -17.6466  -30.6582   24.0574 C   0  0  0  0  0  0
  -25.9017  -34.9480   23.5155 C   0  0  0  0  0  0
  -16.5350  -29.9090   23.6328 C   0  0  0  0  0  0
  -16.7264  -28.6518   23.0332 C   0  0  0  0  0  0
  -26.4500  -31.6602   25.0714 C   0  0  0  0  0  0
  -25.3796  -31.3702   26.1477 C   0  0  0  0  0  0
  -27.0320  -30.3045   24.6074 C   0  0  0  0  0  0
  -27.6063  -32.4326   25.7492 C   0  0  0  0  0  0
  -27.5592  -37.1807   24.8461 C   0  0  0  0  0  0
  -21.4137  -29.3034   22.3710 N   0  0  0  0  0  0
  -26.4286  -37.3790   23.9434 N   0  0  0  0  0  0
  -24.6666  -31.0812   22.1010 N   0  0  0  0  0  0
  -23.4195  -28.8167   23.2944 O   0  0  0  0  0  0
  -28.3938  -26.7366   20.0679 O   0  0  0  0  0  0
  -26.5560  -34.8925   22.4709 O   0  0  0  0  0  0
  -23.5339  -32.1427   23.7513 O   0  0  0  0  0  0
  -30.5255  -23.6407   22.7962 C   0  0  0  0  0  0
  -30.5975  -22.5630   23.6909 C   0  0  0  0  0  0
  -28.8567  -22.4544   21.4790 C   0  0  0  0  0  0
  -29.6528  -23.6050   21.6917 C   0  0  0  0  0  0
  -29.8188  -21.4073   23.4804 C   0  0  0  0  0  0
  -28.9494  -21.3437   22.3573 C   0  0  0  0  0  0
  -29.9807  -20.2469   24.4568 C   0  0  0  0  0  0
  -29.6404  -24.8099   20.7550 C   0  0  0  0  0  0
  -28.1921  -20.0592   22.0228 C   0  0  0  0  0  0
  -29.1259  -19.0836   21.2843 C   0  0  0  0  0  0
  -28.7639  -17.5885   21.3543 C   0  0  0  0  0  0
  -30.0643  -16.7561   21.3486 C   0  0  0  0  0  0
  -28.2576  -25.3449   20.3636 C   0  0  0  0  0  0
  -29.8319  -15.3236   21.2583 N   0  0  0  0  0  0
  -31.4751  -12.4940   19.0985 H   0  0  0  0  0  0
  -30.4125  -11.2776   19.7524 H   0  0  0  0  0  0
  -29.7400  -11.8417   17.3974 H   0  0  0  0  0  0
  -29.6719  -13.5368   17.8100 H   0  0  0  0  0  0
  -27.7851  -11.3429   18.7279 H   0  0  0  0  0  0
  -27.3825  -12.7490   17.7797 H   0  0  0  0  0  0
  -27.7368  -14.2493   19.6658 H   0  0  0  0  0  0
  -28.6654  -11.8027   21.2328 H   0  0  0  0  0  0
  -28.4346  -13.3652   21.9344 H   0  0  0  0  0  0
  -25.2690   -9.5845   22.4703 H   0  0  0  0  0  0
  -24.0068   -7.4705   22.7445 H   0  0  0  0  0  0
  -21.0790   -8.8671   19.8947 H   0  0  0  0  0  0
  -22.3511  -10.9647   19.6152 H   0  0  0  0  0  0
  -21.1971   -7.6129   23.9689 H   0  0  0  0  0  0
  -21.1485   -6.0493   25.9056 H   0  0  0  0  0  0
  -22.0612   -2.7597   23.2807 H   0  0  0  0  0  0
  -22.4116  -11.9983   22.4760 H   0  0  0  0  0  0
  -21.1123  -13.1337   22.2512 H   0  0  0  0  0  0
  -24.6857  -15.8467   20.5003 H   0  0  0  0  0  0
  -26.3096  -15.6131   20.0956 H   0  0  0  0  0  0
  -26.7075  -32.5548   23.1138 H   0  0  0  0  0  0
  -25.0106  -33.9762   25.0546 H   0  0  0  0  0  0
  -22.6918  -31.3149   21.4070 H   0  0  0  0  0  0
  -23.3759  -35.9626   23.3287 H   0  0  0  0  0  0
  -24.3596  -36.8916   22.2055 H   0  0  0  0  0  0
  -23.7236  -37.6517   23.6636 H   0  0  0  0  0  0
  -26.0487  -31.6087   20.6013 H   0  0  0  0  0  0
  -26.8172  -30.8825   21.9892 H   0  0  0  0  0  0
  -28.1050  -29.1218   21.1334 H   0  0  0  0  0  0
  -26.0260  -25.9762   19.0259 H   0  0  0  0  0  0
  -23.9508  -27.2927   19.0753 H   0  0  0  0  0  0
  -23.7463  -30.6110   19.4077 H   0  0  0  0  0  0
  -22.7395  -29.2623   19.8495 H   0  0  0  0  0  0
  -25.1289  -36.1966   25.0860 H   0  0  0  0  0  0
  -20.9953  -28.3200   24.1433 H   0  0  0  0  0  0
  -20.5654  -26.2253   23.3580 H   0  0  0  0  0  0
  -21.6640  -26.7421   22.1204 H   0  0  0  0  0  0
  -19.6903  -25.6298   21.1212 H   0  0  0  0  0  0
  -19.6713  -27.3213   20.6754 H   0  0  0  0  0  0
  -17.4205  -26.6678   21.4005 H   0  0  0  0  0  0
  -18.0322  -26.0074   22.9000 H   0  0  0  0  0  0
  -19.7941  -30.7238   24.2292 H   0  0  0  0  0  0
  -17.5033  -31.6258   24.5177 H   0  0  0  0  0  0
  -15.5360  -30.3006   23.7652 H   0  0  0  0  0  0
  -15.8662  -28.0856   22.7018 H   0  0  0  0  0  0
  -24.5936  -30.7082   25.7838 H   0  0  0  0  0  0
  -24.9034  -32.2860   26.4983 H   0  0  0  0  0  0
  -25.8179  -30.8839   27.0197 H   0  0  0  0  0  0
  -26.2839  -29.6791   24.1183 H   0  0  0  0  0  0
  -27.4168  -29.7294   25.4505 H   0  0  0  0  0  0
  -27.8653  -30.4373   23.9167 H   0  0  0  0  0  0
  -27.2654  -33.3597   26.2117 H   0  0  0  0  0  0
  -28.3866  -32.6932   25.0326 H   0  0  0  0  0  0
  -28.0737  -31.8422   26.5384 H   0  0  0  0  0  0
  -28.2577  -38.0137   24.7541 H   0  0  0  0  0  0
  -28.1128  -36.2670   24.6235 H   0  0  0  0  0  0
  -27.2320  -37.1393   25.8863 H   0  0  0  0  0  0
  -20.9242  -29.8838   21.7039 H   0  0  0  0  0  0
  -26.0186  -38.2872   24.1436 H   0  0  0  0  0  0
  -31.1610  -24.4991   22.9598 H   0  0  0  0  0  0
  -31.2798  -22.6297   24.5278 H   0  0  0  0  0  0
  -28.1966  -22.4105   20.6224 H   0  0  0  0  0  0
  -30.5960  -20.5425   25.3069 H   0  0  0  0  0  0
  -30.4716  -19.3967   23.9840 H   0  0  0  0  0  0
  -29.0233  -19.9170   24.8580 H   0  0  0  0  0  0
  -30.2354  -24.5978   19.8667 H   0  0  0  0  0  0
  -30.1583  -25.6203   21.2682 H   0  0  0  0  0  0
  -27.3072  -20.2830   21.4233 H   0  0  0  0  0  0
  -27.8190  -19.6035   22.9404 H   0  0  0  0  0  0
  -30.1137  -19.1891   21.7322 H   0  0  0  0  0  0
  -29.2508  -19.3954   20.2474 H   0  0  0  0  0  0
  -28.1208  -17.3300   20.5099 H   0  0  0  0  0  0
  -28.1908  -17.3704   22.2568 H   0  0  0  0  0  0
  -30.6167  -16.9532   22.2686 H   0  0  0  0  0  0
  -30.6905  -17.0810   20.5170 H   0  0  0  0  0  0
  -27.5697  -25.2265   21.2008 H   0  0  0  0  0  0
  -27.8499  -24.7958   19.5137 H   0  0  0  0  0  0
  -28.9608  -14.9699   21.6271 H   0  0  0  0  0  0
  1 25  1  0  0  0
  1 30  2  0  0  0
  1 84  1  0  0  0
  2  3  1  0  0  0
  2 25  1  0  0  0
  2 85  1  0  0  0
  2 86  1  0  0  0
  3  4  1  0  0  0
  3 87  1  0  0  0
  3 88  1  0  0  0
  4  5  1  0  0  0
  4 89  1  0  0  0
  4 90  1  0  0  0
  5  6  1  0  0  0
  5 26  1  0  0  0
  5 91  1  0  0  0
  6 25  1  0  0  0
  6 92  1  0  0  0
  6 93  1  0  0  0
  7  8  2  0  0  0
  7 26  1  0  0  0
  7 29  1  0  0  0
  8  9  1  0  0  0
  8 22  1  0  0  0
  9 10  1  0  0  0
  9 27  2  0  0  0
 10 11  2  0  0  0
 10 15  1  0  0  0
 11 12  1  0  0  0
 11 94  1  0  0  0
 12 13  2  0  0  0
 12 95  1  0  0  0
 13 14  1  0  0  0
 13 31  1  0  0  0
 14 15  2  0  0  0
 14 96  1  0  0  0
 15 97  1  0  0  0
 16 17  2  0  0  0
 16 21  1  0  0  0
 16 31  1  0  0  0
 17 18  1  0  0  0
 17 98  1  0  0  0
 18 19  2  0  0  0
 18 99  1  0  0  0
 19 20  1  0  0  0
 19 24  1  0  0  0
 20 21  2  0  0  0
 20100  1  0  0  0
 21 23  1  0  0  0
 22 28  1  0  0  0
 22 32  2  0  0  0
 26 27  1  0  0  0
 28101  1  0  0  0
 28102  1  0  0  0
 29103  1  0  0  0
 29104  1  0  0  0
 33 34  1  0  0  0
 33 66  1  0  0  0
 33 70  2  0  0  0
 34 36  1  0  0  0
 34 59  1  0  0  0
 34105  1  0  0  0
 35 44  2  0  0  0
 35 45  1  0  0  0
 35 68  1  0  0  0
 36 56  1  0  0  0
 36106  1  0  0  0
 37 39  1  0  0  0
 37 47  1  0  0  0
 37 66  1  0  0  0
 37107  1  0  0  0
 38 43  2  0  0  0
 38 46  1  0  0  0
 38 47  1  0  0  0
 39 64  1  0  0  0
 39 67  2  0  0  0
 40 52  1  0  0  0
 40 53  2  0  0  0
 40 58  1  0  0  0
 41108  1  0  0  0
 41109  1  0  0  0
 41110  1  0  0  0
 41 48  1  0  0  0
 42 43  1  0  0  0
 42 66  1  0  0  0
 42111  1  0  0  0
 42112  1  0  0  0
 43 44  1  0  0  0
 44113  1  0  0  0
 45 46  2  0  0  0
 45114  1  0  0  0
 46115  1  0  0  0
 47116  1  0  0  0
 47117  1  0  0  0
 48 56  1  0  0  0
 48 65  1  0  0  0
 48118  1  0  0  0
 49 50  1  0  0  0
 49 53  1  0  0  0
 49 64  1  0  0  0
 49119  1  0  0  0
 50 51  1  0  0  0
 50120  1  0  0  0
 50121  1  0  0  0
 51 52  1  0  0  0
 51122  1  0  0  0
 51123  1  0  0  0
 52124  1  0  0  0
 52125  1  0  0  0
 53 54  1  0  0  0
 54 55  2  0  0  0
 54126  1  0  0  0
 55 57  1  0  0  0
 55127  1  0  0  0
 56 69  2  0  0  0
 57 58  2  0  0  0
 57128  1  0  0  0
 58129  1  0  0  0
 59 60  1  0  0  0
 59 61  1  0  0  0
 59 62  1  0  0  0
 60130  1  0  0  0
 60131  1  0  0  0
 60132  1  0  0  0
 61133  1  0  0  0
 61134  1  0  0  0
 61135  1  0  0  0
 62136  1  0  0  0
 62137  1  0  0  0
 62138  1  0  0  0
 63 65  1  0  0  0
 63139  1  0  0  0
 63140  1  0  0  0
 63141  1  0  0  0
 64142  1  0  0  0
 65143  1  0  0  0
 68 83  1  0  0  0
 71 72  2  0  0  0
 71 74  1  0  0  0
 71144  1  0  0  0
 72 75  1  0  0  0
 72145  1  0  0  0
 73 74  2  0  0  0
 73 76  1  0  0  0
 73146  1  0  0  0
 74 78  1  0  0  0
 75 76  2  0  0  0
 75 77  1  0  0  0
 76 79  1  0  0  0
 77147  1  0  0  0
 77148  1  0  0  0
 77149  1  0  0  0
 78 83  1  0  0  0
 78150  1  0  0  0
 78151  1  0  0  0
 79 80  1  0  0  0
 79152  1  0  0  0
 79153  1  0  0  0
 80 81  1  0  0  0
 80154  1  0  0  0
 80155  1  0  0  0
 81 82  1  0  0  0
 81156  1  0  0  0
 81157  1  0  0  0
 82 84  1  0  0  0
 82158  1  0  0  0
 82159  1  0  0  0
 83160  1  0  0  0
 83161  1  0  0  0
 84162  1  0  0  0
M  ISO  4   1 100  68 101  83 101  84 100
M  END
> <chiral flag>
0

> <version>
0

> <s_m_source_file>
/data/baiqing/PycharmProjects/Reinvent-master-3.2/result/LINK_invent/BTK/process_docking_weight1_custom_sum_contain_oxygen_bond_distance_aromatic_linkinvent_7_9_3/rearranged_h_0037.sdf

> <i_m_source_file_index>
55

> <r_mmod_Potential_Energy-OPLS-2005>
-61.721363067627

> <r_mmod_Stretch_Energy-OPLS-2005>
32.5456619262695

> <r_mmod_Bend_Energy-OPLS-2005>
90.4173431396484

> <r_mmod_Torsional_Energy-OPLS-2005>
218.187622070312

> <r_mmod_Improper_Torsional_Energy-OPLS-2005>
3.73478746414185

> <r_mmod_Van_der_Waal_Energy-OPLS-2005>
160.937515258789

> <r_mmod_Electrostatic_Energy-OPLS-2005>
-375.9462890625

> <r_mmod_Solvation_Energy-OPLS-2005>
-204.742950439453

> <b_mmod_Minimization_Converged-OPLS-2005>
0

> <r_mmod_RMS_Derivative-OPLS-2005>
4.81095600128174

$$$$
55
                    3D
 Structure written by MMmdl.
169177  0  0  1  0            999 V2000
  -30.7906  -14.2938   20.7446 C   0  0  0  0  0  0
  -30.4315  -12.2800   19.3682 C   0  0  0  0  0  0
  -29.4881  -12.5601   18.1857 C   0  0  0  0  0  0
  -28.0137  -12.4102   18.6047 C   0  0  0  0  0  0
  -27.6842  -13.1968   19.9008 C   0  0  2  0  0  0
  -28.7235  -12.8820   20.9998 C   0  0  0  0  0  0
  -25.2706  -13.8143   20.5698 C   0  0  0  0  0  0
  -24.1929  -13.0453   20.9157 C   0  0  0  0  0  0
  -24.6457  -11.6905   20.8725 C   0  0  0  0  0  0
  -23.9105  -10.4302   21.0410 C   0  0  0  0  0  0
  -24.3642   -9.4215   21.9196 C   0  0  0  0  0  0
  -23.6309   -8.2257   22.0761 C   0  0  0  0  0  0
  -22.4292   -8.0297   21.3548 C   0  0  0  0  0  0
  -21.9933   -9.0284   20.4660 C   0  0  0  0  0  0
  -22.7270  -10.2158   20.3077 C   0  0  0  0  0  0
  -21.6851   -6.0758   22.5283 C   0  0  0  0  0  0
  -21.4013   -6.5655   23.8221 C   0  0  0  0  0  0
  -21.3661   -5.6798   24.9176 C   0  0  0  0  0  0
  -21.6052   -4.3064   24.7215 C   0  0  0  0  0  0
  -21.8821   -3.8165   23.4332 C   0  0  0  0  0  0
  -21.9199   -4.6989   22.3394 C   0  0  0  0  0  0
  -22.7951  -13.5272   21.1824 C   0  0  0  0  0  0
  -22.1666   -4.2186   21.0966 F   0  0  0  0  0  0
  -21.5630   -3.4535   25.7718 F   0  0  0  0  0  0
  -30.0773  -13.1713   20.4772 N   0  0  0  0  0  0
  -26.3170  -12.9311   20.3498 N   0  0  0  0  0  0
  -25.9394  -11.6470   20.5787 N   0  0  0  0  0  0
  -22.0558  -12.8278   22.0349 N   0  0  0  0  0  0
  -25.4447  -15.1859   20.4066 N   0  0  0  0  0  0
  -31.7064  -14.7246   20.0368 O   0  0  0  0  0  0
  -21.6644   -6.8903   21.4247 O   0  0  0  0  0  0
  -22.3663  -14.5598   20.6680 O   0  0  0  0  0  0
  -24.6113  -31.8739   23.2132 C   0  0  0  0  0  0
  -25.9019  -32.4859   23.8424 C   0  0  1  0  0  0
  -27.2354  -27.4784   20.0727 C   0  0  0  0  0  0
  -25.5892  -33.8657   24.2363 N   0  0  0  0  0  0
  -23.3960  -30.4979   21.5566 C   0  0  2  0  0  0
  -24.8411  -28.9685   20.1168 C   0  0  0  0  0  0
  -22.7384  -29.4689   22.5034 C   0  0  0  0  0  0
  -18.0261  -28.1389   22.8479 C   0  0  0  0  0  0
  -24.1477  -36.7310   23.2643 C   0  0  0  0  0  0
  -25.9236  -30.8466   21.3633 C   0  0  0  0  0  0
  -25.9987  -29.4837   20.7121 C   0  0  0  0  0  0
  -27.1996  -28.7430   20.6925 C   0  0  0  0  0  0
  -26.0689  -26.9822   19.4512 C   0  0  0  0  0  0
  -24.8661  -27.7124   19.4885 C   0  0  0  0  0  0
  -23.6018  -29.8307   20.1712 C   0  0  0  0  0  0
  -25.4099  -36.3137   24.0352 C   0  0  1  0  0  0
  -20.5851  -28.3655   23.1327 C   0  0  2  0  0  0
  -20.6777  -26.9397   22.5425 C   0  0  0  0  0  0
  -19.5759  -26.6392   21.5216 C   0  0  0  0  0  0
  -18.1924  -26.7945   22.1605 C   0  0  0  0  0  0
  -19.1514  -28.8838   23.2897 C   0  0  0  0  0  0
  -18.9450  -30.1455   23.8895 C   0  0  0  0  0  0
  -17.6454  -30.6594   24.0556 C   0  0  0  0  0  0
  -25.9020  -34.9497   23.5147 C   0  0  0  0  0  0
  -16.5334  -29.9094   23.6342 C   0  0  0  0  0  0
  -16.7251  -28.6517   23.0343 C   0  0  0  0  0  0
  -26.4443  -31.6623   25.0742 C   0  0  0  0  0  0
  -25.3718  -31.3708   26.1495 C   0  0  0  0  0  0
  -27.0282  -30.3086   24.6106 C   0  0  0  0  0  0
  -27.6041  -32.4327   25.7483 C   0  0  0  0  0  0
  -27.5577  -37.1803   24.8470 C   0  0  0  0  0  0
  -21.4125  -29.3019   22.3741 N   0  0  0  0  0  0
  -26.4286  -37.3819   23.9423 N   0  0  0  0  0  0
  -24.6618  -31.0857   22.1033 N   0  0  0  0  0  0
  -23.4166  -28.8234   23.3072 O   0  0  0  0  0  0
  -28.4132  -26.7719   20.0294 O   0  0  0  0  0  0
  -26.5584  -34.8928   22.4711 O   0  0  0  0  0  0
  -23.5314  -32.1490   23.7544 O   0  0  0  0  0  0
  -27.4205  -21.0089   22.8793 C   0  0  0  0  0  0
  -27.3569  -20.9559   21.4627 C   0  0  0  0  0  0
  -27.7390  -22.2833   23.4176 C   0  0  0  0  0  0
  -27.8799  -23.1836   21.3157 C   0  0  0  0  0  0
  -26.9157  -19.7575   20.6461 C   0  0  0  0  0  0
  -26.3993  -23.0217   25.4422 C   0  0  0  0  0  0
  -27.0591  -19.8349   23.8098 C   0  0  0  0  0  0
  -27.7776  -22.6144   24.9054 C   0  0  0  0  0  0
  -27.8334  -24.4095   20.4222 C   0  0  0  0  0  0
  -27.4513  -18.3985   23.4080 C   0  0  0  0  0  0
  -28.9355  -18.1405   23.0890 C   0  0  0  0  0  0
  -29.1255  -16.6703   22.6975 C   0  0  0  0  0  0
  -30.5408  -16.2659   22.2580 C   0  0  0  0  0  0
  -28.5037  -25.6893   20.9606 C   0  0  0  0  0  0
  -27.6168  -22.0372   20.7096 N   0  0  0  0  0  0
  -27.9314  -23.3541   22.6279 N   0  0  0  0  0  0
  -30.4627  -14.8558   21.9099 N   0  0  0  0  0  0
  -31.4715  -12.4050   19.0597 H   0  0  0  0  0  0
  -30.3422  -11.2412   19.6882 H   0  0  0  0  0  0
  -29.7131  -11.8848   17.3594 H   0  0  0  0  0  0
  -29.6634  -13.5699   17.8112 H   0  0  0  0  0  0
  -27.8099  -11.3479   18.7450 H   0  0  0  0  0  0
  -27.3640  -12.7407   17.7936 H   0  0  0  0  0  0
  -27.7616  -14.2604   19.6765 H   0  0  0  0  0  0
  -28.6719  -11.8275   21.2732 H   0  0  0  0  0  0
  -28.4698  -13.4201   21.9138 H   0  0  0  0  0  0
  -25.2788   -9.5682   22.4772 H   0  0  0  0  0  0
  -24.0026   -7.4641   22.7474 H   0  0  0  0  0  0
  -21.0871   -8.8819   19.8944 H   0  0  0  0  0  0
  -22.3753  -10.9712   19.6191 H   0  0  0  0  0  0
  -21.1992   -7.6159   23.9735 H   0  0  0  0  0  0
  -21.1484   -6.0516   25.9082 H   0  0  0  0  0  0
  -22.0599   -2.7631   23.2809 H   0  0  0  0  0  0
  -22.4135  -11.9927   22.4741 H   0  0  0  0  0  0
  -21.1185  -13.1346   22.2538 H   0  0  0  0  0  0
  -24.6769  -15.8397   20.5115 H   0  0  0  0  0  0
  -26.3023  -15.6198   20.0897 H   0  0  0  0  0  0
  -26.7096  -32.5592   23.1188 H   0  0  0  0  0  0
  -25.0080  -33.9845   25.0533 H   0  0  0  0  0  0
  -22.6848  -31.3157   21.4184 H   0  0  0  0  0  0
  -23.3756  -35.9628   23.3326 H   0  0  0  0  0  0
  -24.3567  -36.8905   22.2054 H   0  0  0  0  0  0
  -23.7197  -37.6506   23.6635 H   0  0  0  0  0  0
  -26.0391  -31.6119   20.5941 H   0  0  0  0  0  0
  -26.8129  -30.9013   21.9790 H   0  0  0  0  0  0
  -28.0977  -29.1438   21.1400 H   0  0  0  0  0  0
  -26.0862  -26.0510   18.9059 H   0  0  0  0  0  0
  -23.9774  -27.3210   19.0112 H   0  0  0  0  0  0
  -23.7048  -30.6079   19.4129 H   0  0  0  0  0  0
  -22.7283  -29.2476   19.8767 H   0  0  0  0  0  0
  -25.1268  -36.2019   25.0848 H   0  0  0  0  0  0
  -20.9937  -28.3230   24.1446 H   0  0  0  0  0  0
  -20.5720  -26.2241   23.3598 H   0  0  0  0  0  0
  -21.6645  -26.7486   22.1180 H   0  0  0  0  0  0
  -19.6929  -25.6312   21.1230 H   0  0  0  0  0  0
  -19.6730  -27.3221   20.6763 H   0  0  0  0  0  0
  -17.4211  -26.6688   21.3994 H   0  0  0  0  0  0
  -18.0296  -26.0098   22.9005 H   0  0  0  0  0  0
  -19.7919  -30.7275   24.2261 H   0  0  0  0  0  0
  -17.5000  -31.6273   24.5164 H   0  0  0  0  0  0
  -15.5336  -30.2988   23.7686 H   0  0  0  0  0  0
  -15.8643  -28.0845   22.7050 H   0  0  0  0  0  0
  -24.5868  -30.7096   25.7797 H   0  0  0  0  0  0
  -24.8922  -32.2857   26.4991 H   0  0  0  0  0  0
  -25.8062  -30.8812   27.0222 H   0  0  0  0  0  0
  -26.2822  -29.6816   24.1216 H   0  0  0  0  0  0
  -27.4135  -29.7347   25.4538 H   0  0  0  0  0  0
  -27.8603  -30.4416   23.9195 H   0  0  0  0  0  0
  -27.2703  -33.3630   26.2079 H   0  0  0  0  0  0
  -28.3819  -32.6890   25.0283 H   0  0  0  0  0  0
  -28.0742  -31.8445   26.5372 H   0  0  0  0  0  0
  -28.2612  -38.0086   24.7545 H   0  0  0  0  0  0
  -28.1056  -36.2629   24.6267 H   0  0  0  0  0  0
  -27.2306  -37.1425   25.8875 H   0  0  0  0  0  0
  -20.9300  -29.8676   21.6905 H   0  0  0  0  0  0
  -26.0192  -38.2904   24.1440 H   0  0  0  0  0  0
  -25.9815  -19.3524   21.0327 H   0  0  0  0  0  0
  -27.6817  -18.9850   20.6384 H   0  0  0  0  0  0
  -26.7341  -20.0303   19.6050 H   0  0  0  0  0  0
  -26.4441  -23.2510   26.5068 H   0  0  0  0  0  0
  -25.6708  -22.2258   25.2951 H   0  0  0  0  0  0
  -26.0334  -23.9102   24.9261 H   0  0  0  0  0  0
  -25.9803  -19.8681   23.9745 H   0  0  0  0  0  0
  -27.5050  -19.9867   24.7885 H   0  0  0  0  0  0
  -28.4619  -23.4507   25.0515 H   0  0  0  0  0  0
  -28.2144  -21.8126   25.4967 H   0  0  0  0  0  0
  -26.7770  -24.5776   20.2409 H   0  0  0  0  0  0
  -28.2873  -24.1581   19.4632 H   0  0  0  0  0  0
  -26.8290  -18.0532   22.5870 H   0  0  0  0  0  0
  -27.1710  -17.7391   24.2309 H   0  0  0  0  0  0
  -29.5483  -18.3680   23.9620 H   0  0  0  0  0  0
  -29.2848  -18.7904   22.2870 H   0  0  0  0  0  0
  -28.4319  -16.4296   21.8873 H   0  0  0  0  0  0
  -28.8300  -16.0509   23.5469 H   0  0  0  0  0  0
  -31.2696  -16.4192   23.0564 H   0  0  0  0  0  0
  -30.8675  -16.8646   21.4050 H   0  0  0  0  0  0
  -29.5598  -25.4979   21.1505 H   0  0  0  0  0  0
  -28.0655  -25.9853   21.9152 H   0  0  0  0  0  0
  -29.8489  -14.2981   22.4848 H   0  0  0  0  0  0
  1 25  1  0  0  0
  1 30  2  0  0  0
  1 87  1  0  0  0
  2  3  1  0  0  0
  2 25  1  0  0  0
  2 88  1  0  0  0
  2 89  1  0  0  0
  3  4  1  0  0  0
  3 90  1  0  0  0
  3 91  1  0  0  0
  4  5  1  0  0  0
  4 92  1  0  0  0
  4 93  1  0  0  0
  5  6  1  0  0  0
  5 26  1  0  0  0
  5 94  1  0  0  0
  6 25  1  0  0  0
  6 95  1  0  0  0
  6 96  1  0  0  0
  7  8  2  0  0  0
  7 26  1  0  0  0
  7 29  1  0  0  0
  8  9  1  0  0  0
  8 22  1  0  0  0
  9 10  1  0  0  0
  9 27  2  0  0  0
 10 11  2  0  0  0
 10 15  1  0  0  0
 11 12  1  0  0  0
 11 97  1  0  0  0
 12 13  2  0  0  0
 12 98  1  0  0  0
 13 14  1  0  0  0
 13 31  1  0  0  0
 14 15  2  0  0  0
 14 99  1  0  0  0
 15100  1  0  0  0
 16 17  2  0  0  0
 16 21  1  0  0  0
 16 31  1  0  0  0
 17 18  1  0  0  0
 17101  1  0  0  0
 18 19  2  0  0  0
 18102  1  0  0  0
 19 20  1  0  0  0
 19 24  1  0  0  0
 20 21  2  0  0  0
 20103  1  0  0  0
 21 23  1  0  0  0
 22 28  1  0  0  0
 22 32  2  0  0  0
 26 27  1  0  0  0
 28104  1  0  0  0
 28105  1  0  0  0
 29106  1  0  0  0
 29107  1  0  0  0
 33 34  1  0  0  0
 33 66  1  0  0  0
 33 70  2  0  0  0
 34 36  1  0  0  0
 34 59  1  0  0  0
 34108  1  0  0  0
 35 44  2  0  0  0
 35 45  1  0  0  0
 35 68  1  0  0  0
 36 56  1  0  0  0
 36109  1  0  0  0
 37 39  1  0  0  0
 37 47  1  0  0  0
 37 66  1  0  0  0
 37110  1  0  0  0
 38 43  2  0  0  0
 38 46  1  0  0  0
 38 47  1  0  0  0
 39 64  1  0  0  0
 39 67  2  0  0  0
 40 52  1  0  0  0
 40 53  2  0  0  0
 40 58  1  0  0  0
 41111  1  0  0  0
 41112  1  0  0  0
 41113  1  0  0  0
 41 48  1  0  0  0
 42 43  1  0  0  0
 42 66  1  0  0  0
 42114  1  0  0  0
 42115  1  0  0  0
 43 44  1  0  0  0
 44116  1  0  0  0
 45 46  2  0  0  0
 45117  1  0  0  0
 46118  1  0  0  0
 47119  1  0  0  0
 47120  1  0  0  0
 48 56  1  0  0  0
 48 65  1  0  0  0
 48121  1  0  0  0
 49 50  1  0  0  0
 49 53  1  0  0  0
 49 64  1  0  0  0
 49122  1  0  0  0
 50 51  1  0  0  0
 50123  1  0  0  0
 50124  1  0  0  0
 51 52  1  0  0  0
 51125  1  0  0  0
 51126  1  0  0  0
 52127  1  0  0  0
 52128  1  0  0  0
 53 54  1  0  0  0
 54 55  2  0  0  0
 54129  1  0  0  0
 55 57  1  0  0  0
 55130  1  0  0  0
 56 69  2  0  0  0
 57 58  2  0  0  0
 57131  1  0  0  0
 58132  1  0  0  0
 59 60  1  0  0  0
 59 61  1  0  0  0
 59 62  1  0  0  0
 60133  1  0  0  0
 60134  1  0  0  0
 60135  1  0  0  0
 61136  1  0  0  0
 61137  1  0  0  0
 61138  1  0  0  0
 62139  1  0  0  0
 62140  1  0  0  0
 62141  1  0  0  0
 63 65  1  0  0  0
 63142  1  0  0  0
 63143  1  0  0  0
 63144  1  0  0  0
 64145  1  0  0  0
 65146  1  0  0  0
 68 84  1  0  0  0
 71 72  2  0  0  0
 71 73  1  0  0  0
 71 77  1  0  0  0
 72 75  1  0  0  0
 72 85  1  0  0  0
 73 78  1  0  0  0
 73 86  2  0  0  0
 74 79  1  0  0  0
 74 85  2  0  0  0
 74 86  1  0  0  0
 75147  1  0  0  0
 75148  1  0  0  0
 75149  1  0  0  0
 76 78  1  0  0  0
 76150  1  0  0  0
 76151  1  0  0  0
 76152  1  0  0  0
 77 80  1  0  0  0
 77153  1  0  0  0
 77154  1  0  0  0
 78155  1  0  0  0
 78156  1  0  0  0
 79 84  1  0  0  0
 79157  1  0  0  0
 79158  1  0  0  0
 80 81  1  0  0  0
 80159  1  0  0  0
 80160  1  0  0  0
 81 82  1  0  0  0
 81161  1  0  0  0
 81162  1  0  0  0
 82 83  1  0  0  0
 82163  1  0  0  0
 82164  1  0  0  0
 83 87  1  0  0  0
 83165  1  0  0  0
 83166  1  0  0  0
 84167  1  0  0  0
 84168  1  0  0  0
 87169  1  0  0  0
M  ISO  4   1 100  68 101  84 101  87 100
M  END
> <chiral flag>
0

> <version>
0

> <s_m_source_file>
/data/baiqing/PycharmProjects/Reinvent-master-3.2/result/LINK_invent/BTK/process_docking_weight1_custom_sum_contain_oxygen_bond_distance_aromatic_linkinvent_7_9_3/rearranged_h_0037.sdf

> <i_m_source_file_index>
56

> <r_mmod_Potential_Energy-OPLS-2005>
-439.859283447266

> <r_mmod_Stretch_Energy-OPLS-2005>
32.9536781311035

> <r_mmod_Bend_Energy-OPLS-2005>
112.881042480469

> <r_mmod_Torsional_Energy-OPLS-2005>
227.979934692383

> <r_mmod_Improper_Torsional_Energy-OPLS-2005>
5.72761154174805

> <r_mmod_Van_der_Waal_Energy-OPLS-2005>
163.039108276367

> <r_mmod_Electrostatic_Energy-OPLS-2005>
-767.125549316406

> <r_mmod_Solvation_Energy-OPLS-2005>
-225.423522949219

> <b_mmod_Minimization_Converged-OPLS-2005>
0

> <r_mmod_RMS_Derivative-OPLS-2005>
3.01621532440186

$$$$
56
                    3D
 Structure written by MMmdl.
172181  0  0  1  0            999 V2000
  -30.7120  -14.4218   20.6433 C   0  0  0  0  0  0
  -30.4290  -12.3006   19.3957 C   0  0  0  0  0  0
  -29.4903  -12.5222   18.1928 C   0  0  0  0  0  0
  -28.0118  -12.3795   18.6094 C   0  0  0  0  0  0
  -27.6693  -13.1980   19.8833 C   0  0  2  0  0  0
  -28.7137  -12.9283   20.9904 C   0  0  0  0  0  0
  -25.2631  -13.8146   20.5686 C   0  0  0  0  0  0
  -24.1861  -13.0438   20.9163 C   0  0  0  0  0  0
  -24.6396  -11.6900   20.8726 C   0  0  0  0  0  0
  -23.9055  -10.4294   21.0397 C   0  0  0  0  0  0
  -24.3609   -9.4214   21.9178 C   0  0  0  0  0  0
  -23.6292   -8.2246   22.0750 C   0  0  0  0  0  0
  -22.4275   -8.0279   21.3542 C   0  0  0  0  0  0
  -21.9904   -9.0253   20.4646 C   0  0  0  0  0  0
  -22.7224  -10.2137   20.3054 C   0  0  0  0  0  0
  -21.6856   -6.0741   22.5281 C   0  0  0  0  0  0
  -21.4012   -6.5644   23.8215 C   0  0  0  0  0  0
  -21.3657   -5.6794   24.9176 C   0  0  0  0  0  0
  -21.6044   -4.3057   24.7223 C   0  0  0  0  0  0
  -21.8818   -3.8149   23.4342 C   0  0  0  0  0  0
  -21.9191   -4.6968   22.3400 C   0  0  0  0  0  0
  -22.7885  -13.5250   21.1824 C   0  0  0  0  0  0
  -22.1662   -4.2153   21.0979 F   0  0  0  0  0  0
  -21.5629   -3.4539   25.7735 F   0  0  0  0  0  0
  -30.0419  -13.2534   20.4459 N   0  0  0  0  0  0
  -26.3069  -12.9297   20.3408 N   0  0  0  0  0  0
  -25.9328  -11.6464   20.5777 N   0  0  0  0  0  0
  -22.0513  -12.8263   22.0383 N   0  0  0  0  0  0
  -25.4380  -15.1860   20.4102 N   0  0  0  0  0  0
  -31.8091  -14.6363   20.1119 O   0  0  0  0  0  0
  -21.6637   -6.8881   21.4244 O   0  0  0  0  0  0
  -22.3579  -14.5560   20.6669 O   0  0  0  0  0  0
  -24.6083  -31.8712   23.2140 C   0  0  0  0  0  0
  -25.8994  -32.4844   23.8419 C   0  0  1  0  0  0
  -27.2540  -27.4784   20.1029 C   0  0  0  0  0  0
  -25.5865  -33.8637   24.2354 N   0  0  0  0  0  0
  -23.3955  -30.4937   21.5517 C   0  0  2  0  0  0
  -24.8476  -28.9599   20.1243 C   0  0  0  0  0  0
  -22.7379  -29.4672   22.5010 C   0  0  0  0  0  0
  -18.0267  -28.1383   22.8498 C   0  0  0  0  0  0
  -24.1480  -36.7333   23.2642 C   0  0  0  0  0  0
  -25.9177  -30.8516   21.3604 C   0  0  0  0  0  0
  -26.0010  -29.4839   20.7210 C   0  0  0  0  0  0
  -27.2055  -28.7527   20.7141 C   0  0  0  0  0  0
  -26.0869  -26.9644   19.5021 C   0  0  0  0  0  0
  -24.8820  -27.6934   19.5151 C   0  0  0  0  0  0
  -23.6056  -29.8201   20.1682 C   0  0  0  0  0  0
  -25.4095  -36.3122   24.0347 C   0  0  1  0  0  0
  -20.5853  -28.3654   23.1335 C   0  0  2  0  0  0
  -20.6756  -26.9396   22.5426 C   0  0  0  0  0  0
  -19.5736  -26.6390   21.5217 C   0  0  0  0  0  0
  -18.1913  -26.7932   22.1625 C   0  0  0  0  0  0
  -19.1515  -28.8834   23.2916 C   0  0  0  0  0  0
  -18.9448  -30.1446   23.8920 C   0  0  0  0  0  0
  -17.6452  -30.6589   24.0575 C   0  0  0  0  0  0
  -25.9014  -34.9486   23.5147 C   0  0  0  0  0  0
  -16.5343  -29.9099   23.6327 C   0  0  0  0  0  0
  -16.7257  -28.6517   23.0340 C   0  0  0  0  0  0
  -26.4461  -31.6612   25.0721 C   0  0  0  0  0  0
  -25.3754  -31.3696   26.1489 C   0  0  0  0  0  0
  -27.0312  -30.3075   24.6063 C   0  0  0  0  0  0
  -27.6045  -32.4336   25.7465 C   0  0  0  0  0  0
  -27.5581  -37.1815   24.8463 C   0  0  0  0  0  0
  -21.4113  -29.3031   22.3748 N   0  0  0  0  0  0
  -26.4290  -37.3798   23.9412 N   0  0  0  0  0  0
  -24.6582  -31.0862   22.1013 N   0  0  0  0  0  0
  -23.4174  -28.8213   23.3033 O   0  0  0  0  0  0
  -28.3917  -26.7137   19.9885 O   0  0  0  0  0  0
  -26.5577  -34.8928   22.4708 O   0  0  0  0  0  0
  -23.5285  -32.1439   23.7563 O   0  0  0  0  0  0
  -31.0742  -19.2449   21.6904 C   0  0  0  0  0  0
  -30.7672  -19.6348   20.3674 C   0  0  0  0  0  0
  -30.9048  -17.9047   22.0900 C   0  0  0  0  0  0
  -30.3001  -18.6202   19.4925 C   0  0  0  0  0  0
  -30.4149  -16.9691   21.1485 C   0  0  0  0  0  0
  -29.6066  -21.7951   19.6057 C   0  0  0  0  0  0
  -31.7397  -22.0080   20.8619 C   0  0  0  0  0  0
  -29.8368  -23.1916   18.9983 C   0  0  0  0  0  0
  -31.9410  -23.4184   20.2676 C   0  0  0  0  0  0
  -30.9470  -21.0927   19.9002 C   0  0  1  0  0  0
  -31.2309  -17.5146   23.5233 C   0  0  0  0  0  0
  -29.9616  -18.8632   18.0305 C   0  0  0  0  0  0
  -30.0647  -15.5213   21.5231 C   0  0  0  0  0  0
  -30.7628  -26.5517   20.3630 C   0  0  0  0  0  0
  -30.8387  -25.4223   19.3129 C   0  0  0  0  0  0
  -29.3803  -26.7355   21.0147 C   0  0  0  0  0  0
  -30.1041  -17.3462   19.8890 N   0  0  0  0  0  0
  -30.6528  -24.0610   19.8862 N   0  3  1  0  0  0
  -31.4705  -12.4116   19.0890 H   0  0  0  0  0  0
  -30.3388  -11.2788   19.7673 H   0  0  0  0  0  0
  -29.7253  -11.8145   17.3965 H   0  0  0  0  0  0
  -29.6576  -13.5174   17.7780 H   0  0  0  0  0  0
  -27.8186  -11.3213   18.7878 H   0  0  0  0  0  0
  -27.3584  -12.6720   17.7868 H   0  0  0  0  0  0
  -27.7290  -14.2529   19.6134 H   0  0  0  0  0  0
  -28.6904  -11.8754   21.2753 H   0  0  0  0  0  0
  -28.4756  -13.4635   21.9088 H   0  0  0  0  0  0
  -25.2754   -9.5699   22.4749 H   0  0  0  0  0  0
  -24.0004   -7.4643   22.7473 H   0  0  0  0  0  0
  -21.0830   -8.8770   19.8962 H   0  0  0  0  0  0
  -22.3673  -10.9675   19.6164 H   0  0  0  0  0  0
  -21.2004   -7.6153   23.9720 H   0  0  0  0  0  0
  -21.1481   -6.0524   25.9081 H   0  0  0  0  0  0
  -22.0597   -2.7612   23.2839 H   0  0  0  0  0  0
  -22.4113  -11.9928   22.4791 H   0  0  0  0  0  0
  -21.1133  -13.1308   22.2576 H   0  0  0  0  0  0
  -24.6740  -15.8446   20.5192 H   0  0  0  0  0  0
  -26.2978  -15.6242   20.1036 H   0  0  0  0  0  0
  -26.7068  -32.5594   23.1197 H   0  0  0  0  0  0
  -25.0026  -33.9804   25.0505 H   0  0  0  0  0  0
  -22.6817  -31.3079   21.4109 H   0  0  0  0  0  0
  -23.3724  -35.9686   23.3320 H   0  0  0  0  0  0
  -24.3580  -36.8925   22.2055 H   0  0  0  0  0  0
  -23.7254  -37.6556   23.6639 H   0  0  0  0  0  0
  -26.0193  -31.6126   20.5850 H   0  0  0  0  0  0
  -26.8090  -30.9157   21.9722 H   0  0  0  0  0  0
  -28.0864  -29.2007   21.1496 H   0  0  0  0  0  0
  -26.1156  -25.9975   19.0204 H   0  0  0  0  0  0
  -23.9975  -27.2822   19.0491 H   0  0  0  0  0  0
  -23.7105  -30.5913   19.4038 H   0  0  0  0  0  0
  -22.7330  -29.2333   19.8756 H   0  0  0  0  0  0
  -25.1271  -36.1992   25.0843 H   0  0  0  0  0  0
  -20.9949  -28.3216   24.1453 H   0  0  0  0  0  0
  -20.5659  -26.2258   23.3605 H   0  0  0  0  0  0
  -21.6625  -26.7449   22.1216 H   0  0  0  0  0  0
  -19.6889  -25.6307   21.1229 H   0  0  0  0  0  0
  -19.6677  -27.3214   20.6759 H   0  0  0  0  0  0
  -17.4185  -26.6684   21.4024 H   0  0  0  0  0  0
  -18.0313  -26.0075   22.9022 H   0  0  0  0  0  0
  -19.7924  -30.7258   24.2290 H   0  0  0  0  0  0
  -17.5010  -31.6266   24.5183 H   0  0  0  0  0  0
  -15.5344  -30.3009   23.7644 H   0  0  0  0  0  0
  -15.8655  -28.0854   22.7031 H   0  0  0  0  0  0
  -24.5913  -30.7056   25.7835 H   0  0  0  0  0  0
  -24.8960  -32.2844   26.4985 H   0  0  0  0  0  0
  -25.8130  -30.8838   27.0217 H   0  0  0  0  0  0
  -26.2844  -29.6802   24.1182 H   0  0  0  0  0  0
  -27.4189  -29.7343   25.4495 H   0  0  0  0  0  0
  -27.8619  -30.4436   23.9135 H   0  0  0  0  0  0
  -27.2667  -33.3616   26.2093 H   0  0  0  0  0  0
  -28.3812  -32.6937   25.0261 H   0  0  0  0  0  0
  -28.0761  -31.8438   26.5336 H   0  0  0  0  0  0
  -28.2599  -38.0113   24.7512 H   0  0  0  0  0  0
  -28.1076  -36.2646   24.6276 H   0  0  0  0  0  0
  -27.2307  -37.1454   25.8870 H   0  0  0  0  0  0
  -20.9259  -29.8758   21.6985 H   0  0  0  0  0  0
  -26.0182  -38.2881   24.1406 H   0  0  0  0  0  0
  -31.4370  -19.9588   22.4141 H   0  0  0  0  0  0
  -29.0027  -21.2201   18.9068 H   0  0  0  0  0  0
  -29.0117  -21.8731   20.5170 H   0  0  0  0  0  0
  -31.2220  -22.1006   21.8179 H   0  0  0  0  0  0
  -32.7176  -21.5750   21.0759 H   0  0  0  0  0  0
  -28.8705  -23.6630   18.8110 H   0  0  0  0  0  0
  -30.3299  -23.0974   18.0292 H   0  0  0  0  0  0
  -32.5895  -23.3502   19.3924 H   0  0  0  0  0  0
  -32.4610  -24.0479   20.9911 H   0  0  0  0  0  0
  -31.5268  -21.0455   18.9773 H   0  0  0  0  0  0
  -31.5951  -18.3659   24.0996 H   0  0  0  0  0  0
  -32.0040  -16.7459   23.5471 H   0  0  0  0  0  0
  -30.3439  -17.1333   24.0298 H   0  0  0  0  0  0
  -30.5866  -19.6297   17.5763 H   0  0  0  0  0  0
  -28.9179  -19.1584   17.9256 H   0  0  0  0  0  0
  -30.1049  -17.9549   17.4442 H   0  0  0  0  0  0
  -28.9806  -15.4828   21.4488 H   0  0  0  0  0  0
  -30.3080  -15.2951   22.5589 H   0  0  0  0  0  0
  -31.0214  -27.4857   19.8630 H   0  0  0  0  0  0
  -31.5216  -26.4133   21.1337 H   0  0  0  0  0  0
  -31.7923  -25.4738   18.7854 H   0  0  0  0  0  0
  -30.0903  -25.6157   18.5425 H   0  0  0  0  0  0
  -29.3917  -27.6382   21.6219 H   0  0  0  0  0  0
  -29.1755  -25.9122   21.6996 H   0  0  0  0  0  0
  -30.1119  -24.1766   20.7296 H   0  0  0  0  0  0
  1 25  1  0  0  0
  1 30  2  0  0  0
  1 83  1  0  0  0
  2  3  1  0  0  0
  2 25  1  0  0  0
  2 89  1  0  0  0
  2 90  1  0  0  0
  3  4  1  0  0  0
  3 91  1  0  0  0
  3 92  1  0  0  0
  4  5  1  0  0  0
  4 93  1  0  0  0
  4 94  1  0  0  0
  5  6  1  0  0  0
  5 26  1  0  0  0
  5 95  1  0  0  0
  6 25  1  0  0  0
  6 96  1  0  0  0
  6 97  1  0  0  0
  7  8  2  0  0  0
  7 26  1  0  0  0
  7 29  1  0  0  0
  8  9  1  0  0  0
  8 22  1  0  0  0
  9 10  1  0  0  0
  9 27  2  0  0  0
 10 11  2  0  0  0
 10 15  1  0  0  0
 11 12  1  0  0  0
 11 98  1  0  0  0
 12 13  2  0  0  0
 12 99  1  0  0  0
 13 14  1  0  0  0
 13 31  1  0  0  0
 14 15  2  0  0  0
 14100  1  0  0  0
 15101  1  0  0  0
 16 17  2  0  0  0
 16 21  1  0  0  0
 16 31  1  0  0  0
 17 18  1  0  0  0
 17102  1  0  0  0
 18 19  2  0  0  0
 18103  1  0  0  0
 19 20  1  0  0  0
 19 24  1  0  0  0
 20 21  2  0  0  0
 20104  1  0  0  0
 21 23  1  0  0  0
 22 28  1  0  0  0
 22 32  2  0  0  0
 26 27  1  0  0  0
 28105  1  0  0  0
 28106  1  0  0  0
 29107  1  0  0  0
 29108  1  0  0  0
 33 34  1  0  0  0
 33 66  1  0  0  0
 33 70  2  0  0  0
 34 36  1  0  0  0
 34 59  1  0  0  0
 34109  1  0  0  0
 35 44  2  0  0  0
 35 45  1  0  0  0
 35 68  1  0  0  0
 36 56  1  0  0  0
 36110  1  0  0  0
 37 39  1  0  0  0
 37 47  1  0  0  0
 37 66  1  0  0  0
 37111  1  0  0  0
 38 43  2  0  0  0
 38 46  1  0  0  0
 38 47  1  0  0  0
 39 64  1  0  0  0
 39 67  2  0  0  0
 40 52  1  0  0  0
 40 53  2  0  0  0
 40 58  1  0  0  0
 41112  1  0  0  0
 41113  1  0  0  0
 41114  1  0  0  0
 41 48  1  0  0  0
 42 43  1  0  0  0
 42 66  1  0  0  0
 42115  1  0  0  0
 42116  1  0  0  0
 43 44  1  0  0  0
 44117  1  0  0  0
 45 46  2  0  0  0
 45118  1  0  0  0
 46119  1  0  0  0
 47120  1  0  0  0
 47121  1  0  0  0
 48 56  1  0  0  0
 48 65  1  0  0  0
 48122  1  0  0  0
 49 50  1  0  0  0
 49 53  1  0  0  0
 49 64  1  0  0  0
 49123  1  0  0  0
 50 51  1  0  0  0
 50124  1  0  0  0
 50125  1  0  0  0
 51 52  1  0  0  0
 51126  1  0  0  0
 51127  1  0  0  0
 52128  1  0  0  0
 52129  1  0  0  0
 53 54  1  0  0  0
 54 55  2  0  0  0
 54130  1  0  0  0
 55 57  1  0  0  0
 55131  1  0  0  0
 56 69  2  0  0  0
 57 58  2  0  0  0
 57132  1  0  0  0
 58133  1  0  0  0
 59 60  1  0  0  0
 59 61  1  0  0  0
 59 62  1  0  0  0
 60134  1  0  0  0
 60135  1  0  0  0
 60136  1  0  0  0
 61137  1  0  0  0
 61138  1  0  0  0
 61139  1  0  0  0
 62140  1  0  0  0
 62141  1  0  0  0
 62142  1  0  0  0
 63 65  1  0  0  0
 63143  1  0  0  0
 63144  1  0  0  0
 63145  1  0  0  0
 64146  1  0  0  0
 65147  1  0  0  0
 68 86  1  0  0  0
 71 72  2  0  0  0
 71 73  1  0  0  0
 71148  1  0  0  0
 72 74  1  0  0  0
 72 80  1  0  0  0
 73 75  2  0  0  0
 73 81  1  0  0  0
 74 82  1  0  0  0
 74 87  2  0  0  0
 75 83  1  0  0  0
 75 87  1  0  0  0
 76 78  1  0  0  0
 76 80  1  0  0  0
 76149  1  0  0  0
 76150  1  0  0  0
 77 79  1  0  0  0
 77 80  1  0  0  0
 77151  1  0  0  0
 77152  1  0  0  0
 78 88  1  0  0  0
 78153  1  0  0  0
 78154  1  0  0  0
 79 88  1  0  0  0
 79155  1  0  0  0
 79156  1  0  0  0
 80157  1  0  0  0
 81158  1  0  0  0
 81159  1  0  0  0
 81160  1  0  0  0
 82161  1  0  0  0
 82162  1  0  0  0
 82163  1  0  0  0
 83164  1  0  0  0
 83165  1  0  0  0
 84 85  1  0  0  0
 84 86  1  0  0  0
 84166  1  0  0  0
 84167  1  0  0  0
 85168  1  0  0  0
 85169  1  0  0  0
 85 88  1  0  0  0
 86170  1  0  0  0
 86171  1  0  0  0
 88172  1  0  0  0
M  CHG  1  88   1
M  ISO  4   1 100  68 101  83 100  86 101
M  END
> <chiral flag>
0

> <version>
0

> <s_m_source_file>
/data/baiqing/PycharmProjects/Reinvent-master-3.2/result/LINK_invent/BTK/process_docking_weight1_custom_sum_contain_oxygen_bond_distance_aromatic_linkinvent_7_9_3/rearranged_h_0037.sdf

> <i_m_source_file_index>
57

> <r_mmod_Potential_Energy-OPLS-2005>
-195.995758056641

> <r_mmod_Stretch_Energy-OPLS-2005>
37.3425903320312

> <r_mmod_Bend_Energy-OPLS-2005>
112.796264648438

> <r_mmod_Torsional_Energy-OPLS-2005>
219.307357788086

> <r_mmod_Improper_Torsional_Energy-OPLS-2005>
2.33820176124573

> <r_mmod_Van_der_Waal_Energy-OPLS-2005>
166.958480834961

> <r_mmod_Electrostatic_Energy-OPLS-2005>
-306.679870605469

> <r_mmod_Solvation_Energy-OPLS-2005>
-435.234832763672

> <b_mmod_Minimization_Converged-OPLS-2005>
0

> <r_mmod_RMS_Derivative-OPLS-2005>
0.982305765151978

$$$$
57
                    3D
 Structure written by MMmdl.
152160  0  0  1  0            999 V2000
  -30.5662  -14.9605   20.4166 C   0  0  0  0  0  0
  -30.4345  -12.5965   19.5004 C   0  0  0  0  0  0
  -29.5184  -12.5249   18.2562 C   0  0  0  0  0  0
  -28.0511  -12.3152   18.6729 C   0  0  0  0  0  0
  -27.6255  -13.2527   19.8326 C   0  0  2  0  0  0
  -28.6697  -13.3030   20.9693 C   0  0  0  0  0  0
  -25.2437  -13.8225   20.5729 C   0  0  0  0  0  0
  -24.1758  -13.0443   20.9232 C   0  0  0  0  0  0
  -24.6377  -11.6927   20.8749 C   0  0  0  0  0  0
  -23.9059  -10.4295   21.0400 C   0  0  0  0  0  0
  -24.3617   -9.4213   21.9171 C   0  0  0  0  0  0
  -23.6313   -8.2238   22.0728 C   0  0  0  0  0  0
  -22.4286   -8.0273   21.3530 C   0  0  0  0  0  0
  -21.9916   -9.0234   20.4617 C   0  0  0  0  0  0
  -22.7234  -10.2125   20.3038 C   0  0  0  0  0  0
  -21.6853   -6.0742   22.5284 C   0  0  0  0  0  0
  -21.4009   -6.5645   23.8218 C   0  0  0  0  0  0
  -21.3661   -5.6794   24.9175 C   0  0  0  0  0  0
  -21.6042   -4.3058   24.7223 C   0  0  0  0  0  0
  -21.8825   -3.8154   23.4347 C   0  0  0  0  0  0
  -21.9200   -4.6971   22.3407 C   0  0  0  0  0  0
  -22.7780  -13.5195   21.1920 C   0  0  0  0  0  0
  -22.1670   -4.2160   21.0985 F   0  0  0  0  0  0
  -21.5629   -3.4533   25.7735 F   0  0  0  0  0  0
  -29.9458  -13.7101   20.3657 N   0  0  0  0  0  0
  -26.2863  -12.9455   20.3242 N   0  0  0  0  0  0
  -25.9314  -11.6575   20.5726 N   0  0  0  0  0  0
  -22.0453  -12.8143   22.0466 N   0  0  0  0  0  0
  -25.4109  -15.1956   20.4187 N   0  0  0  0  0  0
  -31.7729  -14.9955   20.1575 O   0  0  0  0  0  0
  -21.6645   -6.8875   21.4240 O   0  0  0  0  0  0
  -22.3451  -14.5506   20.6789 O   0  0  0  0  0  0
  -24.6471  -31.8395   23.1844 C   0  0  0  0  0  0
  -25.9240  -32.4675   23.8244 C   0  0  1  0  0  0
  -27.2286  -27.1093   20.1634 C   0  0  0  0  0  0
  -25.5988  -33.8479   24.2155 N   0  0  0  0  0  0
  -23.4525  -30.4591   21.5274 C   0  0  2  0  0  0
  -24.9068  -28.8801   20.1101 C   0  0  0  0  0  0
  -22.7582  -29.4527   22.4805 C   0  0  0  0  0  0
  -18.0320  -28.1408   22.8481 C   0  0  0  0  0  0
  -24.1477  -36.7197   23.2643 C   0  0  0  0  0  0
  -26.0105  -30.7048   21.3888 C   0  0  0  0  0  0
  -26.0842  -29.3143   20.7314 C   0  0  0  0  0  0
  -27.2449  -28.4471   20.7382 C   0  0  0  0  0  0
  -26.0200  -26.7817   19.5052 C   0  0  0  0  0  0
  -24.8899  -27.6282   19.4787 C   0  0  0  0  0  0
  -23.6832  -29.7842   20.1489 C   0  0  0  0  0  0
  -25.4117  -36.3003   24.0318 C   0  0  1  0  0  0
  -20.5925  -28.3729   23.1204 C   0  0  2  0  0  0
  -20.6782  -26.9419   22.5389 C   0  0  0  0  0  0
  -19.5763  -26.6390   21.5189 C   0  0  0  0  0  0
  -18.1952  -26.7954   22.1609 C   0  0  0  0  0  0
  -19.1574  -28.8886   23.2843 C   0  0  0  0  0  0
  -18.9497  -30.1484   23.8871 C   0  0  0  0  0  0
  -17.6492  -30.6605   24.0561 C   0  0  0  0  0  0
  -25.9083  -34.9395   23.5041 C   0  0  0  0  0  0
  -16.5385  -29.9093   23.6354 C   0  0  0  0  0  0
  -16.7302  -28.6509   23.0377 C   0  0  0  0  0  0
  -26.4553  -31.6563   25.0709 C   0  0  0  0  0  0
  -25.3717  -31.3757   26.1392 C   0  0  0  0  0  0
  -27.0425  -30.2965   24.6319 C   0  0  0  0  0  0
  -27.6108  -32.4312   25.7488 C   0  0  0  0  0  0
  -27.5546  -37.1748   24.8476 C   0  0  0  0  0  0
  -21.4266  -29.3052   22.3559 N   0  0  0  0  0  0
  -26.4259  -37.3734   23.9424 N   0  0  0  0  0  0
  -24.7231  -31.0238   22.0885 N   0  0  0  0  0  0
  -23.4209  -28.8064   23.2957 O   0  0  0  0  0  0
  -28.2756  -26.1043   20.2368 O   0  0  0  0  0  0
  -26.5643  -34.8925   22.4595 O   0  0  0  0  0  0
  -23.5589  -32.1261   23.7071 O   0  0  0  0  0  0
  -28.6520  -21.8231   20.3254 C   0  0  0  0  0  0
  -30.3609  -23.4932   20.4668 C   0  0  0  0  0  0
  -28.9810  -23.2774   20.3286 C   0  0  0  0  0  0
  -29.6208  -20.6953   20.4474 C   0  0  0  0  0  0
  -30.9522  -21.1820   20.5681 C   0  0  0  0  0  0
  -32.1604  -20.2703   20.7186 C   0  0  0  0  0  0
  -29.2456  -19.0638   20.4801 C   0  0  0  0  0  0
  -27.9489  -24.5679   20.1618 C   0  0  0  0  0  0
  -30.2710  -17.7017   20.4688 C   0  0  0  0  0  0
  -31.2823  -22.5013   20.5784 N   0  0  0  0  0  0
  -29.8292  -16.1759   20.5449 N   0  0  0  0  0  0
  -31.4698  -12.7444   19.1883 H   0  0  0  0  0  0
  -30.4205  -11.6510   20.0452 H   0  0  0  0  0  0
  -29.8366  -11.7187   17.5932 H   0  0  0  0  0  0
  -29.6060  -13.4481   17.6815 H   0  0  0  0  0  0
  -27.9432  -11.2745   18.9813 H   0  0  0  0  0  0
  -27.3894  -12.4452   17.8158 H   0  0  0  0  0  0
  -27.5802  -14.2499   19.3935 H   0  0  0  0  0  0
  -28.7565  -12.3355   21.4663 H   0  0  0  0  0  0
  -28.3673  -14.0203   21.7336 H   0  0  0  0  0  0
  -25.2755   -9.5706   22.4745 H   0  0  0  0  0  0
  -24.0041   -7.4617   22.7423 H   0  0  0  0  0  0
  -21.0863   -8.8731   19.8913 H   0  0  0  0  0  0
  -22.3679  -10.9652   19.6149 H   0  0  0  0  0  0
  -21.1991   -7.6146   23.9723 H   0  0  0  0  0  0
  -21.1477   -6.0518   25.9080 H   0  0  0  0  0  0
  -22.0605   -2.7614   23.2839 H   0  0  0  0  0  0
  -22.4121  -11.9809   22.4814 H   0  0  0  0  0  0
  -21.1064  -13.1099   22.2694 H   0  0  0  0  0  0
  -24.6400  -15.8464   20.5213 H   0  0  0  0  0  0
  -26.2595  -15.6366   20.0907 H   0  0  0  0  0  0
  -26.7293  -32.5276   23.0958 H   0  0  0  0  0  0
  -25.0206  -33.9565   25.0360 H   0  0  0  0  0  0
  -22.7591  -31.2875   21.3670 H   0  0  0  0  0  0
  -23.3754  -35.9511   23.3331 H   0  0  0  0  0  0
  -24.3557  -36.8793   22.2047 H   0  0  0  0  0  0
  -23.7245  -37.6405   23.6666 H   0  0  0  0  0  0
  -26.1727  -31.4573   20.6163 H   0  0  0  0  0  0
  -26.8793  -30.7556   22.0327 H   0  0  0  0  0  0
  -28.1396  -28.7785   21.2479 H   0  0  0  0  0  0
  -25.9066  -25.8263   19.0188 H   0  0  0  0  0  0
  -23.9934  -27.2892   18.9799 H   0  0  0  0  0  0
  -23.8213  -30.5568   19.3919 H   0  0  0  0  0  0
  -22.7984  -29.2278   19.8339 H   0  0  0  0  0  0
  -25.1310  -36.1793   25.0809 H   0  0  0  0  0  0
  -21.0043  -28.3323   24.1307 H   0  0  0  0  0  0
  -20.5639  -26.2332   23.3611 H   0  0  0  0  0  0
  -21.6647  -26.7392   22.1193 H   0  0  0  0  0  0
  -19.6922  -25.6295   21.1236 H   0  0  0  0  0  0
  -19.6726  -27.3179   20.6704 H   0  0  0  0  0  0
  -17.4204  -26.6695   21.4032 H   0  0  0  0  0  0
  -18.0376  -26.0121   22.9023 H   0  0  0  0  0  0
  -19.7979  -30.7310   24.2217 H   0  0  0  0  0  0
  -17.5062  -31.6294   24.5148 H   0  0  0  0  0  0
  -15.5389  -30.2984   23.7725 H   0  0  0  0  0  0
  -15.8699  -28.0828   22.7101 H   0  0  0  0  0  0
  -24.5923  -30.7097   25.7665 H   0  0  0  0  0  0
  -24.8885  -32.2937   26.4744 H   0  0  0  0  0  0
  -25.7993  -30.8956   27.0206 H   0  0  0  0  0  0
  -26.3037  -29.6697   24.1328 H   0  0  0  0  0  0
  -27.4016  -29.7291   25.4911 H   0  0  0  0  0  0
  -27.8970  -30.4187   23.9669 H   0  0  0  0  0  0
  -27.2750  -33.3665   26.1970 H   0  0  0  0  0  0
  -28.3991  -32.6764   25.0356 H   0  0  0  0  0  0
  -28.0712  -31.8487   26.5475 H   0  0  0  0  0  0
  -28.2564  -38.0038   24.7506 H   0  0  0  0  0  0
  -28.1041  -36.2570   24.6322 H   0  0  0  0  0  0
  -27.2264  -37.1396   25.8881 H   0  0  0  0  0  0
  -20.9469  -29.8767   21.6744 H   0  0  0  0  0  0
  -26.0111  -38.2785   24.1474 H   0  0  0  0  0  0
  -27.6092  -21.5590   20.2278 H   0  0  0  0  0  0
  -30.7544  -24.5000   20.4881 H   0  0  0  0  0  0
  -32.1196  -19.7319   21.6645 H   0  0  0  0  0  0
  -33.0918  -20.8406   20.7126 H   0  0  0  0  0  0
  -32.2334  -19.5620   19.8950 H   0  0  0  0  0  0
  -28.5587  -18.9312   19.6450 H   0  0  0  0  0  0
  -28.6197  -18.9529   21.3660 H   0  0  0  0  0  0
  -27.1530  -24.3944   20.8874 H   0  0  0  0  0  0
  -27.4929  -24.3956   19.1877 H   0  0  0  0  0  0
  -30.9559  -17.8104   21.3082 H   0  0  0  0  0  0
  -30.8947  -17.7685   19.5762 H   0  0  0  0  0  0
  -28.8392  -16.0352   20.6833 H   0  0  0  0  0  0
  1 25  1  0  0  0
  1 30  2  0  0  0
  1 81  1  0  0  0
  2  3  1  0  0  0
  2 25  1  0  0  0
  2 82  1  0  0  0
  2 83  1  0  0  0
  3  4  1  0  0  0
  3 84  1  0  0  0
  3 85  1  0  0  0
  4  5  1  0  0  0
  4 86  1  0  0  0
  4 87  1  0  0  0
  5  6  1  0  0  0
  5 26  1  0  0  0
  5 88  1  0  0  0
  6 25  1  0  0  0
  6 89  1  0  0  0
  6 90  1  0  0  0
  7  8  2  0  0  0
  7 26  1  0  0  0
  7 29  1  0  0  0
  8  9  1  0  0  0
  8 22  1  0  0  0
  9 10  1  0  0  0
  9 27  2  0  0  0
 10 11  2  0  0  0
 10 15  1  0  0  0
 11 12  1  0  0  0
 11 91  1  0  0  0
 12 13  2  0  0  0
 12 92  1  0  0  0
 13 14  1  0  0  0
 13 31  1  0  0  0
 14 15  2  0  0  0
 14 93  1  0  0  0
 15 94  1  0  0  0
 16 17  2  0  0  0
 16 21  1  0  0  0
 16 31  1  0  0  0
 17 18  1  0  0  0
 17 95  1  0  0  0
 18 19  2  0  0  0
 18 96  1  0  0  0
 19 20  1  0  0  0
 19 24  1  0  0  0
 20 21  2  0  0  0
 20 97  1  0  0  0
 21 23  1  0  0  0
 22 28  1  0  0  0
 22 32  2  0  0  0
 26 27  1  0  0  0
 28 98  1  0  0  0
 28 99  1  0  0  0
 29100  1  0  0  0
 29101  1  0  0  0
 33 34  1  0  0  0
 33 66  1  0  0  0
 33 70  2  0  0  0
 34 36  1  0  0  0
 34 59  1  0  0  0
 34102  1  0  0  0
 35 44  2  0  0  0
 35 45  1  0  0  0
 35 68  1  0  0  0
 36 56  1  0  0  0
 36103  1  0  0  0
 37 39  1  0  0  0
 37 47  1  0  0  0
 37 66  1  0  0  0
 37104  1  0  0  0
 38 43  2  0  0  0
 38 46  1  0  0  0
 38 47  1  0  0  0
 39 64  1  0  0  0
 39 67  2  0  0  0
 40 52  1  0  0  0
 40 53  2  0  0  0
 40 58  1  0  0  0
 41105  1  0  0  0
 41106  1  0  0  0
 41107  1  0  0  0
 41 48  1  0  0  0
 42 43  1  0  0  0
 42 66  1  0  0  0
 42108  1  0  0  0
 42109  1  0  0  0
 43 44  1  0  0  0
 44110  1  0  0  0
 45 46  2  0  0  0
 45111  1  0  0  0
 46112  1  0  0  0
 47113  1  0  0  0
 47114  1  0  0  0
 48 56  1  0  0  0
 48 65  1  0  0  0
 48115  1  0  0  0
 49 50  1  0  0  0
 49 53  1  0  0  0
 49 64  1  0  0  0
 49116  1  0  0  0
 50 51  1  0  0  0
 50117  1  0  0  0
 50118  1  0  0  0
 51 52  1  0  0  0
 51119  1  0  0  0
 51120  1  0  0  0
 52121  1  0  0  0
 52122  1  0  0  0
 53 54  1  0  0  0
 54 55  2  0  0  0
 54123  1  0  0  0
 55 57  1  0  0  0
 55124  1  0  0  0
 56 69  2  0  0  0
 57 58  2  0  0  0
 57125  1  0  0  0
 58126  1  0  0  0
 59 60  1  0  0  0
 59 61  1  0  0  0
 59 62  1  0  0  0
 60127  1  0  0  0
 60128  1  0  0  0
 60129  1  0  0  0
 61130  1  0  0  0
 61131  1  0  0  0
 61132  1  0  0  0
 62133  1  0  0  0
 62134  1  0  0  0
 62135  1  0  0  0
 63 65  1  0  0  0
 63136  1  0  0  0
 63137  1  0  0  0
 63138  1  0  0  0
 64139  1  0  0  0
 65140  1  0  0  0
 68 78  1  0  0  0
 71 73  2  0  0  0
 71 74  1  0  0  0
 71141  1  0  0  0
 72 73  1  0  0  0
 72 80  2  0  0  0
 72142  1  0  0  0
 73 78  1  0  0  0
 74 75  2  0  0  0
 74 77  1  0  0  0
 75 76  1  0  0  0
 75 80  1  0  0  0
 76143  1  0  0  0
 76144  1  0  0  0
 76145  1  0  0  0
 77 79  1  0  0  0
 77146  1  0  0  0
 77147  1  0  0  0
 78148  1  0  0  0
 78149  1  0  0  0
 79 81  1  0  0  0
 79150  1  0  0  0
 79151  1  0  0  0
 81152  1  0  0  0
M  ISO  4   1 100  68 101  78 101  81 100
M  END
> <chiral flag>
0

> <version>
0

> <s_m_source_file>
/data/baiqing/PycharmProjects/Reinvent-master-3.2/result/LINK_invent/BTK/process_docking_weight1_custom_sum_contain_oxygen_bond_distance_aromatic_linkinvent_7_9_3/rearranged_h_0037.sdf

> <i_m_source_file_index>
58

> <r_mmod_Potential_Energy-OPLS-2005>
340.714508056641

> <r_mmod_Stretch_Energy-OPLS-2005>
285.009368896484

> <r_mmod_Bend_Energy-OPLS-2005>
257.597747802734

> <r_mmod_Torsional_Energy-OPLS-2005>
207.623062133789

> <r_mmod_Improper_Torsional_Energy-OPLS-2005>
4.30791091918945

> <r_mmod_Van_der_Waal_Energy-OPLS-2005>
133.303741455078

> <r_mmod_Electrostatic_Energy-OPLS-2005>
-525.122741699219

> <r_mmod_Solvation_Energy-OPLS-2005>
-231.897537231445

> <b_mmod_Minimization_Converged-OPLS-2005>
0

> <r_mmod_RMS_Derivative-OPLS-2005>
2.87464141845703

$$$$
58
                    3D
 Structure written by MMmdl.
171179  0  0  1  0            999 V2000
  -30.7550  -14.4217   20.5956 C   0  0  0  0  0  0
  -30.4550  -12.2734   19.4490 C   0  0  0  0  0  0
  -29.5169  -12.5044   18.2457 C   0  0  0  0  0  0
  -28.0258  -12.3955   18.6389 C   0  0  0  0  0  0
  -27.6780  -13.2234   19.9036 C   0  0  2  0  0  0
  -28.7252  -13.0072   21.0377 C   0  0  0  0  0  0
  -25.2551  -13.8176   20.5458 C   0  0  0  0  0  0
  -24.1845  -13.0325   20.9097 C   0  0  0  0  0  0
  -24.6507  -11.6885   20.8724 C   0  0  0  0  0  0
  -23.9212  -10.4169   21.0340 C   0  0  0  0  0  0
  -24.3518   -9.4184   21.9366 C   0  0  0  0  0  0
  -23.6117   -8.2307   22.0989 C   0  0  0  0  0  0
  -22.4300   -8.0239   21.3448 C   0  0  0  0  0  0
  -22.0196   -9.0051   20.4273 C   0  0  0  0  0  0
  -22.7588  -10.1908   20.2605 C   0  0  0  0  0  0
  -21.6863   -6.0810   22.5254 C   0  0  0  0  0  0
  -21.4124   -6.5660   23.8207 C   0  0  0  0  0  0
  -21.3668   -5.6735   24.9166 C   0  0  0  0  0  0
  -21.6131   -4.3031   24.7189 C   0  0  0  0  0  0
  -21.8942   -3.8231   23.4253 C   0  0  0  0  0  0
  -21.9252   -4.7080   22.3358 C   0  0  0  0  0  0
  -22.7882  -13.5017   21.2011 C   0  0  0  0  0  0
  -22.1663   -4.2293   21.0937 F   0  0  0  0  0  0
  -21.5564   -3.4478   25.7644 F   0  0  0  0  0  0
  -30.0813  -13.2490   20.4827 N   0  0  0  0  0  0
  -26.3185  -12.9441   20.3573 N   0  0  0  0  0  0
  -25.9513  -11.6589   20.5896 N   0  0  0  0  0  0
  -22.0718  -12.7817   22.0643 N   0  0  0  0  0  0
  -25.4192  -15.1874   20.3458 N   0  0  0  0  0  0
  -31.8381  -14.6483   20.0344 O   0  0  0  0  0  0
  -21.6579   -6.8942   21.4224 O   0  0  0  0  0  0
  -22.3462  -14.5383   20.7073 O   0  0  0  0  0  0
  -24.6071  -31.8747   23.2134 C   0  0  0  0  0  0
  -25.8995  -32.4858   23.8450 C   0  0  1  0  0  0
  -27.1753  -27.4228   20.0934 C   0  0  0  0  0  0
  -25.5871  -33.8656   24.2328 N   0  0  0  0  0  0
  -23.4036  -30.5022   21.5487 C   0  0  2  0  0  0
  -24.8635  -29.0204   20.0603 C   0  0  0  0  0  0
  -22.7424  -29.4617   22.4865 C   0  0  0  0  0  0
  -18.0278  -28.1411   22.8456 C   0  0  0  0  0  0
  -24.1563  -36.7364   23.2631 C   0  0  0  0  0  0
  -25.9404  -30.8292   21.3947 C   0  0  0  0  0  0
  -26.0104  -29.4752   20.7215 C   0  0  0  0  0  0
  -27.1723  -28.6710   20.7604 C   0  0  0  0  0  0
  -26.1022  -27.1034   19.2524 C   0  0  0  0  0  0
  -24.9122  -27.8542   19.2900 C   0  0  0  0  0  0
  -23.6180  -29.8677   20.1471 C   0  0  0  0  0  0
  -25.4133  -36.3089   24.0321 C   0  0  1  0  0  0
  -20.5893  -28.3618   23.1340 C   0  0  2  0  0  0
  -20.6751  -26.9291   22.5533 C   0  0  0  0  0  0
  -19.5751  -26.6206   21.5302 C   0  0  0  0  0  0
  -18.1900  -26.7977   22.1563 C   0  0  0  0  0  0
  -19.1538  -28.8801   23.2944 C   0  0  0  0  0  0
  -18.9471  -30.1435   23.8907 C   0  0  0  0  0  0
  -17.6470  -30.6582   24.0561 C   0  0  0  0  0  0
  -25.9001  -34.9476   23.5082 C   0  0  0  0  0  0
  -16.5364  -29.9075   23.6350 C   0  0  0  0  0  0
  -16.7266  -28.6536   23.0298 C   0  0  0  0  0  0
  -26.4462  -31.6654   25.0762 C   0  0  0  0  0  0
  -25.3721  -31.3809   26.1492 C   0  0  0  0  0  0
  -27.0267  -30.3067   24.6187 C   0  0  0  0  0  0
  -27.6023  -32.4387   25.7484 C   0  0  0  0  0  0
  -27.5590  -37.1839   24.8422 C   0  0  0  0  0  0
  -21.4130  -29.2959   22.3664 N   0  0  0  0  0  0
  -26.4294  -37.3764   23.9374 N   0  0  0  0  0  0
  -24.6658  -31.0813   22.1082 N   0  0  0  0  0  0
  -23.4236  -28.8128   23.2843 O   0  0  0  0  0  0
  -28.1731  -26.4964   20.2781 O   0  0  0  0  0  0
  -26.5577  -34.8929   22.4663 O   0  0  0  0  0  0
  -23.5231  -32.1518   23.7491 O   0  0  0  0  0  0
  -26.6879  -22.9665   20.4213 C   0  0  0  0  0  0
  -29.0873  -24.3543   20.3428 C   0  0  0  0  0  0
  -27.8784  -22.2199   20.3155 C   0  0  0  0  0  0
  -26.6689  -24.3765   20.5930 C   0  0  0  0  0  0
  -29.1006  -22.9427   20.3763 C   0  0  0  0  0  0
  -27.9059  -25.1171   20.4025 C   0  0  0  0  0  0
  -30.4587  -22.2822   20.5142 C   0  0  0  0  0  0
  -24.8550  -24.2840   22.3939 C   0  0  0  0  0  0
  -24.1682  -24.7626   20.0475 C   0  0  0  0  0  0
  -27.7448  -20.6775   20.3117 C   0  0  0  0  0  0
  -29.2317  -16.9028   19.5030 C   0  0  0  0  0  0
  -29.7208  -17.9620   18.4883 C   0  0  0  0  0  0
  -30.0748  -16.7771   20.8054 C   0  0  0  0  0  0
  -29.0724  -19.3605   18.5859 C   0  0  0  0  0  0
  -25.3089  -24.9421   21.0764 C   0  0  0  0  0  0
  -30.0840  -15.3862   21.2275 N   0  0  0  0  0  0
  -28.9386  -19.8588   19.9763 N   0  3  0  0  0  0
  -31.5018  -12.3849   19.1512 H   0  0  0  0  0  0
  -30.3879  -11.2566   19.8437 H   0  0  0  0  0  0
  -29.7514  -11.8043   17.4437 H   0  0  0  0  0  0
  -29.7149  -13.4934   17.8438 H   0  0  0  0  0  0
  -27.7985  -11.3458   18.8252 H   0  0  0  0  0  0
  -27.3847  -12.7042   17.8096 H   0  0  0  0  0  0
  -27.7157  -14.2700   19.5888 H   0  0  0  0  0  0
  -28.6874  -11.9973   21.4582 H   0  0  0  0  0  0
  -28.4907  -13.6391   21.8948 H   0  0  0  0  0  0
  -25.2599   -9.5732   22.5117 H   0  0  0  0  0  0
  -23.9739   -7.4910   22.7991 H   0  0  0  0  0  0
  -21.1500   -8.8206   19.8063 H   0  0  0  0  0  0
  -22.4266  -10.9179   19.5371 H   0  0  0  0  0  0
  -21.2034   -7.6155   23.9868 H   0  0  0  0  0  0
  -21.1385   -6.0329   25.9095 H   0  0  0  0  0  0
  -22.0706   -2.7683   23.2607 H   0  0  0  0  0  0
  -21.1915  -13.1326   22.4008 H   0  0  0  0  0  0
  -22.3923  -11.8920   22.4061 H   0  0  0  0  0  0
  -24.6283  -15.8021   20.2062 H   0  0  0  0  0  0
  -26.3168  -15.6534   20.2516 H   0  0  0  0  0  0
  -26.6971  -32.5612   23.1152 H   0  0  0  0  0  0
  -24.9900  -33.9863   25.0372 H   0  0  0  0  0  0
  -22.6914  -31.3123   21.4078 H   0  0  0  0  0  0
  -23.3752  -35.9755   23.3270 H   0  0  0  0  0  0
  -24.3649  -36.9007   22.2025 H   0  0  0  0  0  0
  -23.7394  -37.6618   23.6657 H   0  0  0  0  0  0
  -26.0660  -31.6176   20.6486 H   0  0  0  0  0  0
  -26.8159  -30.8671   22.0344 H   0  0  0  0  0  0
  -28.0410  -28.9818   21.3197 H   0  0  0  0  0  0
  -26.1752  -26.2222   18.6340 H   0  0  0  0  0  0
  -24.0608  -27.5522   18.7007 H   0  0  0  0  0  0
  -23.7070  -30.6565   19.3991 H   0  0  0  0  0  0
  -22.7558  -29.2747   19.8416 H   0  0  0  0  0  0
  -25.1321  -36.1935   25.0793 H   0  0  0  0  0  0
  -21.0007  -28.3214   24.1468 H   0  0  0  0  0  0
  -20.5664  -26.2158   23.3781 H   0  0  0  0  0  0
  -21.6625  -26.7268   22.1389 H   0  0  0  0  0  0
  -19.6830  -25.6027   21.1516 H   0  0  0  0  0  0
  -19.6892  -27.2791   20.6699 H   0  0  0  0  0  0
  -17.4294  -26.6863   21.3862 H   0  0  0  0  0  0
  -18.0138  -26.0127   22.8925 H   0  0  0  0  0  0
  -19.7945  -30.7273   24.2259 H   0  0  0  0  0  0
  -17.5009  -31.6247   24.5187 H   0  0  0  0  0  0
  -15.5359  -30.2964   23.7662 H   0  0  0  0  0  0
  -15.8687  -28.0891   22.6933 H   0  0  0  0  0  0
  -24.5895  -30.7113   25.7939 H   0  0  0  0  0  0
  -24.8874  -32.2953   26.4877 H   0  0  0  0  0  0
  -25.8063  -30.9080   27.0300 H   0  0  0  0  0  0
  -26.2854  -29.6851   24.1151 H   0  0  0  0  0  0
  -27.3899  -29.7273   25.4689 H   0  0  0  0  0  0
  -27.8748  -30.4339   23.9451 H   0  0  0  0  0  0
  -27.2619  -33.3665   26.2080 H   0  0  0  0  0  0
  -28.3803  -32.6994   25.0303 H   0  0  0  0  0  0
  -28.0732  -31.8520   26.5385 H   0  0  0  0  0  0
  -28.2549  -38.0193   24.7411 H   0  0  0  0  0  0
  -28.1158  -36.2690   24.6279 H   0  0  0  0  0  0
  -27.2315  -37.1520   25.8840 H   0  0  0  0  0  0
  -20.9200  -29.8781   21.7076 H   0  0  0  0  0  0
  -26.0194  -38.2858   24.1335 H   0  0  0  0  0  0
  -25.7460  -22.4300   20.4531 H   0  0  0  0  0  0
  -30.0174  -24.9012   20.3295 H   0  0  0  0  0  0
  -31.2135  -23.0046   20.8256 H   0  0  0  0  0  0
  -30.7601  -21.8604   19.5551 H   0  0  0  0  0  0
  -30.4466  -21.5105   21.2864 H   0  0  0  0  0  0
  -25.5620  -24.4765   23.2035 H   0  0  0  0  0  0
  -24.7328  -23.2063   22.2940 H   0  0  0  0  0  0
  -23.8770  -24.6706   22.6975 H   0  0  0  0  0  0
  -24.4242  -25.1266   19.0565 H   0  0  0  0  0  0
  -23.2701  -25.3021   20.3678 H   0  0  0  0  0  0
  -23.8883  -23.7112   19.9216 H   0  0  0  0  0  0
  -26.8803  -20.3673   19.7107 H   0  0  0  0  0  0
  -27.4999  -20.4178   21.3407 H   0  0  0  0  0  0
  -29.3152  -15.9741   18.9421 H   0  0  0  0  0  0
  -28.1527  -16.9689   19.6961 H   0  0  0  0  0  0
  -29.4771  -17.6079   17.4883 H   0  0  0  0  0  0
  -30.8132  -17.9906   18.4799 H   0  0  0  0  0  0
  -29.6545  -17.3431   21.6405 H   0  0  0  0  0  0
  -31.1000  -17.1362   20.6704 H   0  0  0  0  0  0
  -28.0999  -19.2809   18.0910 H   0  0  0  0  0  0
  -29.6711  -20.0684   18.0031 H   0  0  0  0  0  0
  -25.4043  -25.9901   21.3499 H   0  0  0  0  0  0
  -29.3125  -15.0854   21.7971 H   0  0  0  0  0  0
  -28.8468  -19.0574   20.5759 H   0  0  0  0  0  0
  -29.7595  -20.3607   20.2652 H   0  0  0  0  0  0
  1 25  1  0  0  0
  1 30  2  0  0  0
  1 86  1  0  0  0
  2  3  1  0  0  0
  2 25  1  0  0  0
  2 88  1  0  0  0
  2 89  1  0  0  0
  3  4  1  0  0  0
  3 90  1  0  0  0
  3 91  1  0  0  0
  4  5  1  0  0  0
  4 92  1  0  0  0
  4 93  1  0  0  0
  5  6  1  0  0  0
  5 26  1  0  0  0
  5 94  1  0  0  0
  6 25  1  0  0  0
  6 95  1  0  0  0
  6 96  1  0  0  0
  7  8  2  0  0  0
  7 26  1  0  0  0
  7 29  1  0  0  0
  8  9  1  0  0  0
  8 22  1  0  0  0
  9 10  1  0  0  0
  9 27  2  0  0  0
 10 11  2  0  0  0
 10 15  1  0  0  0
 11 12  1  0  0  0
 11 97  1  0  0  0
 12 13  2  0  0  0
 12 98  1  0  0  0
 13 14  1  0  0  0
 13 31  1  0  0  0
 14 15  2  0  0  0
 14 99  1  0  0  0
 15100  1  0  0  0
 16 17  2  0  0  0
 16 21  1  0  0  0
 16 31  1  0  0  0
 17 18  1  0  0  0
 17101  1  0  0  0
 18 19  2  0  0  0
 18102  1  0  0  0
 19 20  1  0  0  0
 19 24  1  0  0  0
 20 21  2  0  0  0
 20103  1  0  0  0
 21 23  1  0  0  0
 22 28  1  0  0  0
 22 32  2  0  0  0
 26 27  1  0  0  0
 28104  1  0  0  0
 28105  1  0  0  0
 29106  1  0  0  0
 29107  1  0  0  0
 33 34  1  0  0  0
 33 66  1  0  0  0
 33 70  2  0  0  0
 34 36  1  0  0  0
 34 59  1  0  0  0
 34108  1  0  0  0
 35 44  2  0  0  0
 35 45  1  0  0  0
 35 68  1  0  0  0
 36 56  1  0  0  0
 36109  1  0  0  0
 37 39  1  0  0  0
 37 47  1  0  0  0
 37 66  1  0  0  0
 37110  1  0  0  0
 38 43  2  0  0  0
 38 46  1  0  0  0
 38 47  1  0  0  0
 39 64  1  0  0  0
 39 67  2  0  0  0
 40 52  1  0  0  0
 40 53  2  0  0  0
 40 58  1  0  0  0
 41111  1  0  0  0
 41112  1  0  0  0
 41113  1  0  0  0
 41 48  1  0  0  0
 42 43  1  0  0  0
 42 66  1  0  0  0
 42114  1  0  0  0
 42115  1  0  0  0
 43 44  1  0  0  0
 44116  1  0  0  0
 45 46  2  0  0  0
 45117  1  0  0  0
 46118  1  0  0  0
 47119  1  0  0  0
 47120  1  0  0  0
 48 56  1  0  0  0
 48 65  1  0  0  0
 48121  1  0  0  0
 49 50  1  0  0  0
 49 53  1  0  0  0
 49 64  1  0  0  0
 49122  1  0  0  0
 50 51  1  0  0  0
 50123  1  0  0  0
 50124  1  0  0  0
 51 52  1  0  0  0
 51125  1  0  0  0
 51126  1  0  0  0
 52127  1  0  0  0
 52128  1  0  0  0
 53 54  1  0  0  0
 54 55  2  0  0  0
 54129  1  0  0  0
 55 57  1  0  0  0
 55130  1  0  0  0
 56 69  2  0  0  0
 57 58  2  0  0  0
 57131  1  0  0  0
 58132  1  0  0  0
 59 60  1  0  0  0
 59 61  1  0  0  0
 59 62  1  0  0  0
 60133  1  0  0  0
 60134  1  0  0  0
 60135  1  0  0  0
 61136  1  0  0  0
 61137  1  0  0  0
 61138  1  0  0  0
 62139  1  0  0  0
 62140  1  0  0  0
 62141  1  0  0  0
 63 65  1  0  0  0
 63142  1  0  0  0
 63143  1  0  0  0
 63144  1  0  0  0
 64145  1  0  0  0
 65146  1  0  0  0
 68 76  1  0  0  0
 71 73  2  0  0  0
 71 74  1  0  0  0
 71147  1  0  0  0
 72 75  2  0  0  0
 72 76  1  0  0  0
 72148  1  0  0  0
 73 75  1  0  0  0
 73 80  1  0  0  0
 74 76  2  0  0  0
 74 85  1  0  0  0
 75 77  1  0  0  0
 77149  1  0  0  0
 77150  1  0  0  0
 77151  1  0  0  0
 78152  1  0  0  0
 78153  1  0  0  0
 78154  1  0  0  0
 78 85  1  0  0  0
 79 85  1  0  0  0
 79155  1  0  0  0
 79156  1  0  0  0
 79157  1  0  0  0
 80 87  1  0  0  0
 80158  1  0  0  0
 80159  1  0  0  0
 81 82  1  0  0  0
 81 83  1  0  0  0
 81160  1  0  0  0
 81161  1  0  0  0
 82 84  1  0  0  0
 82162  1  0  0  0
 82163  1  0  0  0
 83 86  1  0  0  0
 83164  1  0  0  0
 83165  1  0  0  0
 84 87  1  0  0  0
 84166  1  0  0  0
 84167  1  0  0  0
 85168  1  0  0  0
 86169  1  0  0  0
 87170  1  0  0  0
 87171  1  0  0  0
M  CHG  1  87   1
M  ISO  4   1 100  68 101  76 101  86 100
M  END
> <chiral flag>
0

> <version>
0

> <s_m_source_file>
/data/baiqing/PycharmProjects/Reinvent-master-3.2/result/LINK_invent/BTK/process_docking_weight1_custom_sum_contain_oxygen_bond_distance_aromatic_linkinvent_7_9_3/rearranged_h_0037.sdf

> <i_m_source_file_index>
59

> <r_mmod_Potential_Energy-OPLS-2005>
-45.6835403442383

> <r_mmod_Stretch_Energy-OPLS-2005>
50.8517303466797

> <r_mmod_Bend_Energy-OPLS-2005>
151.802474975586

> <r_mmod_Torsional_Energy-OPLS-2005>
279.614288330078

> <r_mmod_Improper_Torsional_Energy-OPLS-2005>
6.14954948425293

> <r_mmod_Van_der_Waal_Energy-OPLS-2005>
175.484924316406

> <r_mmod_Electrostatic_Energy-OPLS-2005>
-289.743804931641

> <r_mmod_Solvation_Energy-OPLS-2005>
-469.148468017578

> <b_mmod_Minimization_Converged-OPLS-2005>
0

> <r_mmod_RMS_Derivative-OPLS-2005>
17.4040985107422

$$$$
59
                    3D
 Structure written by MMmdl.
171179  0  0  1  0            999 V2000
  -30.7841  -14.5626   20.4360 C   0  0  0  0  0  0
  -30.3856  -12.3362   19.4523 C   0  0  0  0  0  0
  -29.4799  -12.4359   18.2125 C   0  0  0  0  0  0
  -27.9975  -12.3111   18.6234 C   0  0  0  0  0  0
  -27.6254  -13.1977   19.8397 C   0  0  2  0  0  0
  -28.6942  -13.1497   20.9645 C   0  0  0  0  0  0
  -25.2492  -13.8097   20.5816 C   0  0  0  0  0  0
  -24.1757  -13.0380   20.9275 C   0  0  0  0  0  0
  -24.6311  -11.6851   20.8806 C   0  0  0  0  0  0
  -23.8980  -10.4268   21.0438 C   0  0  0  0  0  0
  -24.3576   -9.4210   21.9214 C   0  0  0  0  0  0
  -23.6290   -8.2231   22.0746 C   0  0  0  0  0  0
  -22.4269   -8.0249   21.3524 C   0  0  0  0  0  0
  -21.9873   -9.0212   20.4646 C   0  0  0  0  0  0
  -22.7161  -10.2120   20.3099 C   0  0  0  0  0  0
  -21.6839   -6.0745   22.5267 C   0  0  0  0  0  0
  -21.4008   -6.5652   23.8209 C   0  0  0  0  0  0
  -21.3675   -5.6805   24.9181 C   0  0  0  0  0  0
  -21.6078   -4.3078   24.7221 C   0  0  0  0  0  0
  -21.8814   -3.8161   23.4340 C   0  0  0  0  0  0
  -21.9171   -4.6979   22.3393 C   0  0  0  0  0  0
  -22.7787  -13.5178   21.1874 C   0  0  0  0  0  0
  -22.1599   -4.2160   21.0977 F   0  0  0  0  0  0
  -21.5682   -3.4571   25.7740 F   0  0  0  0  0  0
  -29.9962  -13.4430   20.3500 N   0  0  0  0  0  0
  -26.2859  -12.9238   20.3368 N   0  0  0  0  0  0
  -25.9226  -11.6430   20.5849 N   0  0  0  0  0  0
  -22.0395  -12.8215   22.0440 N   0  0  0  0  0  0
  -25.4195  -15.1828   20.4272 N   0  0  0  0  0  0
  -31.9941  -14.4478   20.2386 O   0  0  0  0  0  0
  -21.6636   -6.8853   21.4218 O   0  0  0  0  0  0
  -22.3505  -14.5471   20.6641 O   0  0  0  0  0  0
  -24.6109  -31.8712   23.2129 C   0  0  0  0  0  0
  -25.9015  -32.4843   23.8421 C   0  0  1  0  0  0
  -27.2309  -27.4617   20.1064 C   0  0  0  0  0  0
  -25.5898  -33.8640   24.2349 N   0  0  0  0  0  0
  -23.3971  -30.4941   21.5521 C   0  0  2  0  0  0
  -24.8449  -28.9603   20.1184 C   0  0  0  0  0  0
  -22.7381  -29.4671   22.5006 C   0  0  0  0  0  0
  -18.0272  -28.1369   22.8500 C   0  0  0  0  0  0
  -24.1480  -36.7313   23.2639 C   0  0  0  0  0  0
  -25.9228  -30.8441   21.3646 C   0  0  0  0  0  0
  -25.9991  -29.4784   20.7178 C   0  0  0  0  0  0
  -27.1966  -28.7343   20.7154 C   0  0  0  0  0  0
  -26.0703  -26.9539   19.4931 C   0  0  0  0  0  0
  -24.8708  -27.6934   19.5052 C   0  0  0  0  0  0
  -23.6049  -29.8236   20.1672 C   0  0  0  0  0  0
  -25.4093  -36.3119   24.0341 C   0  0  1  0  0  0
  -20.5866  -28.3654   23.1331 C   0  0  2  0  0  0
  -20.6764  -26.9396   22.5429 C   0  0  0  0  0  0
  -19.5742  -26.6379   21.5221 C   0  0  0  0  0  0
  -18.1920  -26.7918   22.1624 C   0  0  0  0  0  0
  -19.1532  -28.8815   23.2917 C   0  0  0  0  0  0
  -18.9456  -30.1428   23.8918 C   0  0  0  0  0  0
  -17.6458  -30.6580   24.0563 C   0  0  0  0  0  0
  -25.9028  -34.9486   23.5141 C   0  0  0  0  0  0
  -16.5340  -29.9086   23.6333 C   0  0  0  0  0  0
  -16.7262  -28.6502   23.0350 C   0  0  0  0  0  0
  -26.4459  -31.6611   25.0743 C   0  0  0  0  0  0
  -25.3736  -31.3703   26.1507 C   0  0  0  0  0  0
  -27.0292  -30.3059   24.6099 C   0  0  0  0  0  0
  -27.6046  -32.4325   25.7497 C   0  0  0  0  0  0
  -27.5577  -37.1809   24.8463 C   0  0  0  0  0  0
  -21.4117  -29.3034   22.3750 N   0  0  0  0  0  0
  -26.4278  -37.3797   23.9407 N   0  0  0  0  0  0
  -24.6607  -31.0835   22.1025 N   0  0  0  0  0  0
  -23.4166  -28.8234   23.3052 O   0  0  0  0  0  0
  -28.3766  -26.7084   20.0666 O   0  0  0  0  0  0
  -26.5581  -34.8925   22.4700 O   0  0  0  0  0  0
  -23.5307  -32.1455   23.7551 O   0  0  0  0  0  0
  -27.6122  -22.2349   23.1439 C   0  0  0  0  0  0
  -29.7182  -22.1884   23.6827 C   0  0  0  0  0  0
  -27.9829  -20.9451   23.4575 C   0  0  0  0  0  0
  -32.8637  -18.3022   18.8809 C   0  0  0  0  0  0
  -27.1605  -19.6885   23.4320 C   0  0  0  0  0  0
  -31.7039  -17.2968   18.9638 C   0  0  0  0  0  0
  -27.1234  -19.0194   22.0409 C   0  0  0  0  0  0
  -28.4901  -18.4668   21.5805 C   0  0  0  0  0  0
  -28.4562  -17.7456   20.2171 C   0  0  0  0  0  0
  -28.2746  -24.9666   21.7772 C   0  0  0  0  0  0
  -28.8892  -24.4609   23.0970 C   0  0  0  0  0  0
  -31.2596  -16.9713   20.4159 C   0  0  0  0  0  0
  -28.8599  -16.2452   20.2391 C   0  0  0  0  0  0
  -28.8894  -26.3085   21.3357 C   0  0  0  0  0  0
  -29.3336  -20.9221   23.8009 N   0  0  0  0  0  0
  -28.7501  -23.0263   23.2866 N   0  0  0  0  0  0
  -30.2745  -15.8497   20.4788 N   0  0  0  0  0  0
  -31.4364  -12.3602   19.1592 H   0  0  0  0  0  0
  -30.2517  -11.3767   19.9557 H   0  0  0  0  0  0
  -29.7272  -11.6411   17.5079 H   0  0  0  0  0  0
  -29.6560  -13.3773   17.6895 H   0  0  0  0  0  0
  -27.8072  -11.2665   18.8642 H   0  0  0  0  0  0
  -27.3540  -12.5499   17.7749 H   0  0  0  0  0  0
  -27.5687  -14.1860   19.4110 H   0  0  0  0  0  0
  -28.7187  -12.1588   21.4214 H   0  0  0  0  0  0
  -28.4670  -13.8356   21.7816 H   0  0  0  0  0  0
  -25.2712   -9.5741   22.4817 H   0  0  0  0  0  0
  -23.9996   -7.4599   22.7451 H   0  0  0  0  0  0
  -21.0816   -8.8705   19.8950 H   0  0  0  0  0  0
  -22.3546  -10.9659   19.6247 H   0  0  0  0  0  0
  -21.1981   -7.6151   23.9727 H   0  0  0  0  0  0
  -21.1509   -6.0531   25.9084 H   0  0  0  0  0  0
  -22.0593   -2.7620   23.2802 H   0  0  0  0  0  0
  -22.3912  -11.9794   22.4743 H   0  0  0  0  0  0
  -21.1001  -13.1241   22.2573 H   0  0  0  0  0  0
  -24.6658  -15.8428   20.5826 H   0  0  0  0  0  0
  -26.2859  -15.6233   20.1531 H   0  0  0  0  0  0
  -26.7096  -32.5560   23.1193 H   0  0  0  0  0  0
  -25.0059  -33.9801   25.0509 H   0  0  0  0  0  0
  -22.6846  -31.3100   21.4119 H   0  0  0  0  0  0
  -23.3742  -35.9657   23.3320 H   0  0  0  0  0  0
  -24.3583  -36.8912   22.2058 H   0  0  0  0  0  0
  -23.7234  -37.6521   23.6636 H   0  0  0  0  0  0
  -26.0327  -31.6092   20.5944 H   0  0  0  0  0  0
  -26.8118  -30.8985   21.9815 H   0  0  0  0  0  0
  -28.0881  -29.1389   21.1718 H   0  0  0  0  0  0
  -26.0958  -25.9812   19.0208 H   0  0  0  0  0  0
  -23.9826  -27.2849   19.0425 H   0  0  0  0  0  0
  -23.7115  -30.5970   19.4050 H   0  0  0  0  0  0
  -22.7301  -29.2403   19.8732 H   0  0  0  0  0  0
  -25.1276  -36.1986   25.0835 H   0  0  0  0  0  0
  -20.9956  -28.3213   24.1448 H   0  0  0  0  0  0
  -20.5663  -26.2259   23.3613 H   0  0  0  0  0  0
  -21.6634  -26.7435   22.1222 H   0  0  0  0  0  0
  -19.6906  -25.6298   21.1239 H   0  0  0  0  0  0
  -19.6683  -27.3201   20.6765 H   0  0  0  0  0  0
  -17.4196  -26.6686   21.4020 H   0  0  0  0  0  0
  -18.0307  -26.0048   22.9007 H   0  0  0  0  0  0
  -19.7929  -30.7254   24.2287 H   0  0  0  0  0  0
  -17.5006  -31.6265   24.5167 H   0  0  0  0  0  0
  -15.5342  -30.2986   23.7637 H   0  0  0  0  0  0
  -15.8665  -28.0820   22.7047 H   0  0  0  0  0  0
  -24.5895  -30.7063   25.7847 H   0  0  0  0  0  0
  -24.8942  -32.2858   26.4982 H   0  0  0  0  0  0
  -25.8111  -30.8851   27.0241 H   0  0  0  0  0  0
  -26.2839  -29.6827   24.1140 H   0  0  0  0  0  0
  -27.4064  -29.7282   25.4547 H   0  0  0  0  0  0
  -27.8670  -30.4393   23.9248 H   0  0  0  0  0  0
  -27.2669  -33.3608   26.2100 H   0  0  0  0  0  0
  -28.3829  -32.6906   25.0311 H   0  0  0  0  0  0
  -28.0729  -31.8431   26.5380 H   0  0  0  0  0  0
  -28.2603  -38.0105   24.7514 H   0  0  0  0  0  0
  -28.1067  -36.2634   24.6276 H   0  0  0  0  0  0
  -27.2304  -37.1452   25.8875 H   0  0  0  0  0  0
  -20.9273  -29.8733   21.6964 H   0  0  0  0  0  0
  -26.0180  -38.2880   24.1416 H   0  0  0  0  0  0
  -26.6559  -22.6379   22.8273 H   0  0  0  0  0  0
  -30.7309  -22.5140   23.8718 H   0  0  0  0  0  0
  -33.0816  -18.5562   17.8422 H   0  0  0  0  0  0
  -33.7760  -17.8868   19.3097 H   0  0  0  0  0  0
  -32.6448  -19.2363   19.3984 H   0  0  0  0  0  0
  -26.1430  -19.9078   23.7570 H   0  0  0  0  0  0
  -27.5405  -18.9703   24.1618 H   0  0  0  0  0  0
  -32.0012  -16.3895   18.4362 H   0  0  0  0  0  0
  -30.8633  -17.6960   18.3972 H   0  0  0  0  0  0
  -26.7451  -19.7346   21.3056 H   0  0  0  0  0  0
  -26.4027  -18.2023   22.0722 H   0  0  0  0  0  0
  -28.8964  -17.8027   22.3423 H   0  0  0  0  0  0
  -29.1958  -19.2946   21.5011 H   0  0  0  0  0  0
  -29.0513  -18.3032   19.4959 H   0  0  0  0  0  0
  -27.4430  -17.7995   19.8140 H   0  0  0  0  0  0
  -27.1919  -25.0619   21.8852 H   0  0  0  0  0  0
  -28.4369  -24.2295   20.9893 H   0  0  0  0  0  0
  -28.4454  -24.9753   23.9501 H   0  0  0  0  0  0
  -29.9554  -24.6957   23.1178 H   0  0  0  0  0  0
  -32.1418  -16.7320   21.0120 H   0  0  0  0  0  0
  -30.9057  -17.8754   20.9025 H   0  0  0  0  0  0
  -28.6330  -15.8981   19.2332 H   0  0  0  0  0  0
  -28.1993  -15.7585   20.9497 H   0  0  0  0  0  0
  -29.9685  -26.1879   21.2267 H   0  0  0  0  0  0
  -28.7428  -27.0673   22.1054 H   0  0  0  0  0  0
  1 25  1  0  0  0
  1 30  2  0  0  0
  1 87  1  0  0  0
  2  3  1  0  0  0
  2 25  1  0  0  0
  2 88  1  0  0  0
  2 89  1  0  0  0
  3  4  1  0  0  0
  3 90  1  0  0  0
  3 91  1  0  0  0
  4  5  1  0  0  0
  4 92  1  0  0  0
  4 93  1  0  0  0
  5  6  1  0  0  0
  5 26  1  0  0  0
  5 94  1  0  0  0
  6 25  1  0  0  0
  6 95  1  0  0  0
  6 96  1  0  0  0
  7  8  2  0  0  0
  7 26  1  0  0  0
  7 29  1  0  0  0
  8  9  1  0  0  0
  8 22  1  0  0  0
  9 10  1  0  0  0
  9 27  2  0  0  0
 10 11  2  0  0  0
 10 15  1  0  0  0
 11 12  1  0  0  0
 11 97  1  0  0  0
 12 13  2  0  0  0
 12 98  1  0  0  0
 13 14  1  0  0  0
 13 31  1  0  0  0
 14 15  2  0  0  0
 14 99  1  0  0  0
 15100  1  0  0  0
 16 17  2  0  0  0
 16 21  1  0  0  0
 16 31  1  0  0  0
 17 18  1  0  0  0
 17101  1  0  0  0
 18 19  2  0  0  0
 18102  1  0  0  0
 19 20  1  0  0  0
 19 24  1  0  0  0
 20 21  2  0  0  0
 20103  1  0  0  0
 21 23  1  0  0  0
 22 28  1  0  0  0
 22 32  2  0  0  0
 26 27  1  0  0  0
 28104  1  0  0  0
 28105  1  0  0  0
 29106  1  0  0  0
 29107  1  0  0  0
 33 34  1  0  0  0
 33 66  1  0  0  0
 33 70  2  0  0  0
 34 36  1  0  0  0
 34 59  1  0  0  0
 34108  1  0  0  0
 35 44  2  0  0  0
 35 45  1  0  0  0
 35 68  1  0  0  0
 36 56  1  0  0  0
 36109  1  0  0  0
 37 39  1  0  0  0
 37 47  1  0  0  0
 37 66  1  0  0  0
 37110  1  0  0  0
 38 43  2  0  0  0
 38 46  1  0  0  0
 38 47  1  0  0  0
 39 64  1  0  0  0
 39 67  2  0  0  0
 40 52  1  0  0  0
 40 53  2  0  0  0
 40 58  1  0  0  0
 41111  1  0  0  0
 41112  1  0  0  0
 41113  1  0  0  0
 41 48  1  0  0  0
 42 43  1  0  0  0
 42 66  1  0  0  0
 42114  1  0  0  0
 42115  1  0  0  0
 43 44  1  0  0  0
 44116  1  0  0  0
 45 46  2  0  0  0
 45117  1  0  0  0
 46118  1  0  0  0
 47119  1  0  0  0
 47120  1  0  0  0
 48 56  1  0  0  0
 48 65  1  0  0  0
 48121  1  0  0  0
 49 50  1  0  0  0
 49 53  1  0  0  0
 49 64  1  0  0  0
 49122  1  0  0  0
 50 51  1  0  0  0
 50123  1  0  0  0
 50124  1  0  0  0
 51 52  1  0  0  0
 51125  1  0  0  0
 51126  1  0  0  0
 52127  1  0  0  0
 52128  1  0  0  0
 53 54  1  0  0  0
 54 55  2  0  0  0
 54129  1  0  0  0
 55 57  1  0  0  0
 55130  1  0  0  0
 56 69  2  0  0  0
 57 58  2  0  0  0
 57131  1  0  0  0
 58132  1  0  0  0
 59 60  1  0  0  0
 59 61  1  0  0  0
 59 62  1  0  0  0
 60133  1  0  0  0
 60134  1  0  0  0
 60135  1  0  0  0
 61136  1  0  0  0
 61137  1  0  0  0
 61138  1  0  0  0
 62139  1  0  0  0
 62140  1  0  0  0
 62141  1  0  0  0
 63 65  1  0  0  0
 63142  1  0  0  0
 63143  1  0  0  0
 63144  1  0  0  0
 64145  1  0  0  0
 65146  1  0  0  0
 68 84  1  0  0  0
 71 73  2  0  0  0
 71 86  1  0  0  0
 71147  1  0  0  0
 72 85  2  0  0  0
 72 86  1  0  0  0
 72148  1  0  0  0
 73 75  1  0  0  0
 73 85  1  0  0  0
 74 76  1  0  0  0
 74149  1  0  0  0
 74150  1  0  0  0
 74151  1  0  0  0
 75 77  1  0  0  0
 75152  1  0  0  0
 75153  1  0  0  0
 76 82  1  0  0  0
 76154  1  0  0  0
 76155  1  0  0  0
 77 78  1  0  0  0
 77156  1  0  0  0
 77157  1  0  0  0
 78 79  1  0  0  0
 78158  1  0  0  0
 78159  1  0  0  0
 79 83  1  0  0  0
 79160  1  0  0  0
 79161  1  0  0  0
 80 81  1  0  0  0
 80 84  1  0  0  0
 80162  1  0  0  0
 80163  1  0  0  0
 81 86  1  0  0  0
 81164  1  0  0  0
 81165  1  0  0  0
 82 87  1  0  0  0
 82166  1  0  0  0
 82167  1  0  0  0
 83 87  1  0  0  0
 83168  1  0  0  0
 83169  1  0  0  0
 84170  1  0  0  0
 84171  1  0  0  0
M  ISO  4   1 100  68 101  84 101  87 100
M  END
> <chiral flag>
0

> <version>
0

> <s_m_source_file>
/data/baiqing/PycharmProjects/Reinvent-master-3.2/result/LINK_invent/BTK/process_docking_weight1_custom_sum_contain_oxygen_bond_distance_aromatic_linkinvent_7_9_3/rearranged_h_0037.sdf

> <i_m_source_file_index>
60

> <r_mmod_Potential_Energy-OPLS-2005>
207.11833190918

> <r_mmod_Stretch_Energy-OPLS-2005>
43.6788215637207

> <r_mmod_Bend_Energy-OPLS-2005>
141.343490600586

> <r_mmod_Torsional_Energy-OPLS-2005>
318.475830078125

> <r_mmod_Improper_Torsional_Energy-OPLS-2005>
6.12479782104492

> <r_mmod_Van_der_Waal_Energy-OPLS-2005>
142.564498901367

> <r_mmod_Electrostatic_Energy-OPLS-2005>
-281.683135986328

> <r_mmod_Solvation_Energy-OPLS-2005>
-206.68293762207

> <b_mmod_Minimization_Converged-OPLS-2005>
0

> <r_mmod_RMS_Derivative-OPLS-2005>
4.59604930877686

$$$$
60
                    3D
 Structure written by MMmdl.
158166  0  0  1  0            999 V2000
  -30.6146  -14.5929   20.5079 C   0  0  0  0  0  0
  -30.4233  -12.3664   19.4500 C   0  0  0  0  0  0
  -29.5002  -12.5069   18.2201 C   0  0  0  0  0  0
  -28.0198  -12.3673   18.6247 C   0  0  0  0  0  0
  -27.6489  -13.2212   19.8681 C   0  0  2  0  0  0
  -28.6844  -13.0511   21.0007 C   0  0  0  0  0  0
  -25.2528  -13.8195   20.5693 C   0  0  0  0  0  0
  -24.1786  -13.0428   20.9181 C   0  0  0  0  0  0
  -24.6386  -11.6912   20.8735 C   0  0  0  0  0  0
  -23.9067  -10.4283   21.0411 C   0  0  0  0  0  0
  -24.3613   -9.4204   21.9197 C   0  0  0  0  0  0
  -23.6272   -8.2248   22.0766 C   0  0  0  0  0  0
  -22.4263   -8.0286   21.3546 C   0  0  0  0  0  0
  -21.9911   -9.0266   20.4651 C   0  0  0  0  0  0
  -22.7246  -10.2134   20.3060 C   0  0  0  0  0  0
  -21.6868   -6.0732   22.5274 C   0  0  0  0  0  0
  -21.4012   -6.5631   23.8208 C   0  0  0  0  0  0
  -21.3653   -5.6788   24.9167 C   0  0  0  0  0  0
  -21.6046   -4.3052   24.7229 C   0  0  0  0  0  0
  -21.8820   -3.8137   23.4348 C   0  0  0  0  0  0
  -21.9185   -4.6950   22.3395 C   0  0  0  0  0  0
  -22.7819  -13.5212   21.1833 C   0  0  0  0  0  0
  -22.1658   -4.2144   21.0977 F   0  0  0  0  0  0
  -21.5627   -3.4525   25.7735 F   0  0  0  0  0  0
  -29.9999  -13.3758   20.4420 N   0  0  0  0  0  0
  -26.2963  -12.9382   20.3316 N   0  0  0  0  0  0
  -25.9315  -11.6540   20.5745 N   0  0  0  0  0  0
  -22.0465  -12.8208   22.0410 N   0  0  0  0  0  0
  -25.4216  -15.1905   20.4116 N   0  0  0  0  0  0
  -31.7777  -14.7477   20.1273 O   0  0  0  0  0  0
  -21.6635   -6.8871   21.4233 O   0  0  0  0  0  0
  -22.3508  -14.5534   20.6703 O   0  0  0  0  0  0
  -24.6282  -31.8637   23.1975 C   0  0  0  0  0  0
  -25.9153  -32.4782   23.8321 C   0  0  1  0  0  0
  -27.2085  -27.3175   20.0903 C   0  0  0  0  0  0
  -25.5963  -33.8575   24.2261 N   0  0  0  0  0  0
  -23.4201  -30.4855   21.5458 C   0  0  2  0  0  0
  -24.8648  -28.9461   20.1022 C   0  0  0  0  0  0
  -22.7468  -29.4653   22.4956 C   0  0  0  0  0  0
  -18.0295  -28.1354   22.8438 C   0  0  0  0  0  0
  -24.1515  -36.7267   23.2642 C   0  0  0  0  0  0
  -25.9609  -30.7872   21.3706 C   0  0  0  0  0  0
  -26.0372  -29.4153   20.7110 C   0  0  0  0  0  0
  -27.2186  -28.6118   20.6985 C   0  0  0  0  0  0
  -26.0202  -26.9185   19.4426 C   0  0  0  0  0  0
  -24.8590  -27.7020   19.4564 C   0  0  0  0  0  0
  -23.6297  -29.8211   20.1617 C   0  0  0  0  0  0
  -25.4139  -36.3068   24.0309 C   0  0  1  0  0  0
  -20.5887  -28.3708   23.1239 C   0  0  2  0  0  0
  -20.6802  -26.9457   22.5344 C   0  0  0  0  0  0
  -19.5793  -26.6378   21.5132 C   0  0  0  0  0  0
  -18.1969  -26.7895   22.1553 C   0  0  0  0  0  0
  -19.1544  -28.8836   23.2829 C   0  0  0  0  0  0
  -18.9471  -30.1428   23.8890 C   0  0  0  0  0  0
  -17.6508  -30.6586   24.0537 C   0  0  0  0  0  0
  -25.9074  -34.9452   23.5079 C   0  0  0  0  0  0
  -16.5374  -29.9072   23.6336 C   0  0  0  0  0  0
  -16.7278  -28.6465   23.0350 C   0  0  0  0  0  0
  -26.4527  -31.6565   25.0660 C   0  0  0  0  0  0
  -25.3727  -31.3656   26.1346 C   0  0  0  0  0  0
  -27.0415  -30.3030   24.6034 C   0  0  0  0  0  0
  -27.6091  -32.4302   25.7416 C   0  0  0  0  0  0
  -27.5608  -37.1776   24.8459 C   0  0  0  0  0  0
  -21.4186  -29.3052   22.3652 N   0  0  0  0  0  0
  -26.4329  -37.3751   23.9393 N   0  0  0  0  0  0
  -24.6902  -31.0612   22.0954 N   0  0  0  0  0  0
  -23.4167  -28.8220   23.3068 O   0  0  0  0  0  0
  -28.2668  -26.4004   20.1160 O   0  0  0  0  0  0
  -26.5660  -34.8926   22.4657 O   0  0  0  0  0  0
  -23.5437  -32.1474   23.7275 O   0  0  0  0  0  0
  -29.7667  -21.6664   20.9420 C   0  0  0  0  0  0
  -29.4471  -23.0223   21.1951 C   0  0  0  0  0  0
  -28.4942  -23.7126   20.3880 C   0  0  0  0  0  0
  -29.1330  -20.9519   19.9125 C   0  0  0  0  0  0
  -27.9141  -22.9081   19.3576 C   0  0  0  0  0  0
  -30.1044  -23.6699   22.3964 C   0  0  0  0  0  0
  -26.8185  -23.4556   18.4653 C   0  0  0  0  0  0
  -27.9316  -25.1346   20.8109 C   0  0  0  0  0  0
  -29.5991  -19.4976   19.5745 C   0  0  0  0  0  0
  -29.1104  -18.2447   20.4068 C   0  0  0  0  0  0
  -30.1899  -17.0799   20.4033 C   0  0  0  0  0  0
  -28.2253  -21.5891   19.1276 N   0  0  0  0  0  0
  -29.8216  -15.6779   20.7743 N   0  0  0  0  0  0
  -31.4674  -12.4876   19.1510 H   0  0  0  0  0  0
  -30.3489  -11.3631   19.8718 H   0  0  0  0  0  0
  -29.7530  -11.7581   17.4694 H   0  0  0  0  0  0
  -29.6651  -13.4776   17.7487 H   0  0  0  0  0  0
  -27.8280  -11.3124   18.8258 H   0  0  0  0  0  0
  -27.3763  -12.6347   17.7873 H   0  0  0  0  0  0
  -27.6753  -14.2633   19.5481 H   0  0  0  0  0  0
  -28.6807  -12.0288   21.3799 H   0  0  0  0  0  0
  -28.4423  -13.6886   21.8539 H   0  0  0  0  0  0
  -25.2754   -9.5665   22.4782 H   0  0  0  0  0  0
  -23.9974   -7.4637   22.7500 H   0  0  0  0  0  0
  -21.0854   -8.8783   19.8956 H   0  0  0  0  0  0
  -22.3717  -10.9672   19.6167 H   0  0  0  0  0  0
  -21.2022   -7.6142   23.9704 H   0  0  0  0  0  0
  -21.1475   -6.0520   25.9075 H   0  0  0  0  0  0
  -22.0611   -2.7600   23.2850 H   0  0  0  0  0  0
  -22.4058  -11.9817   22.4732 H   0  0  0  0  0  0
  -21.1108  -13.1253   22.2653 H   0  0  0  0  0  0
  -24.6502  -15.8418   20.5213 H   0  0  0  0  0  0
  -26.2692  -15.6375   20.0855 H   0  0  0  0  0  0
  -26.7236  -32.5465   23.1082 H   0  0  0  0  0  0
  -25.0077  -33.9681   25.0385 H   0  0  0  0  0  0
  -22.7129  -31.3067   21.4054 H   0  0  0  0  0  0
  -23.3777  -35.9603   23.3294 H   0  0  0  0  0  0
  -24.3612  -36.8900   22.2070 H   0  0  0  0  0  0
  -23.7283  -37.6452   23.6701 H   0  0  0  0  0  0
  -26.0799  -31.5523   20.6024 H   0  0  0  0  0  0
  -26.8452  -30.8451   21.9933 H   0  0  0  0  0  0
  -28.1202  -28.9585   21.1864 H   0  0  0  0  0  0
  -25.9741  -25.9739   18.9271 H   0  0  0  0  0  0
  -23.9653  -27.3392   18.9626 H   0  0  0  0  0  0
  -23.7408  -30.5969   19.4023 H   0  0  0  0  0  0
  -22.7463  -29.2485   19.8727 H   0  0  0  0  0  0
  -25.1337  -36.1913   25.0802 H   0  0  0  0  0  0
  -20.9941  -28.3291   24.1359 H   0  0  0  0  0  0
  -20.5702  -26.2335   23.3530 H   0  0  0  0  0  0
  -21.6688  -26.7519   22.1152 H   0  0  0  0  0  0
  -19.7018  -25.6269   21.1203 H   0  0  0  0  0  0
  -19.6716  -27.3151   20.6625 H   0  0  0  0  0  0
  -17.4222  -26.6574   21.3978 H   0  0  0  0  0  0
  -18.0454  -26.0012   22.8956 H   0  0  0  0  0  0
  -19.7994  -30.7200   24.2233 H   0  0  0  0  0  0
  -17.5095  -31.6262   24.5170 H   0  0  0  0  0  0
  -15.5393  -30.3000   23.7674 H   0  0  0  0  0  0
  -15.8649  -28.0809   22.7093 H   0  0  0  0  0  0
  -24.5972  -30.6934   25.7627 H   0  0  0  0  0  0
  -24.8786  -32.2781   26.4711 H   0  0  0  0  0  0
  -25.8007  -30.8876   27.0159 H   0  0  0  0  0  0
  -26.2972  -29.6667   24.1208 H   0  0  0  0  0  0
  -27.4382  -29.7371   25.4469 H   0  0  0  0  0  0
  -27.8724  -30.4358   23.9078 H   0  0  0  0  0  0
  -27.2773  -33.3708   26.1823 H   0  0  0  0  0  0
  -28.3964  -32.6671   25.0243 H   0  0  0  0  0  0
  -28.0673  -31.8497   26.5426 H   0  0  0  0  0  0
  -28.2557  -38.0136   24.7607 H   0  0  0  0  0  0
  -28.1179  -36.2670   24.6206 H   0  0  0  0  0  0
  -27.2299  -37.1295   25.8844 H   0  0  0  0  0  0
  -20.9395  -29.8733   21.6819 H   0  0  0  0  0  0
  -26.0198  -38.2807   24.1454 H   0  0  0  0  0  0
  -30.5073  -21.1620   21.5472 H   0  0  0  0  0  0
  -30.9020  -23.0407   22.7946 H   0  0  0  0  0  0
  -29.3658  -23.8043   23.1875 H   0  0  0  0  0  0
  -30.5376  -24.6324   22.1284 H   0  0  0  0  0  0
  -27.1610  -24.3376   17.9264 H   0  0  0  0  0  0
  -25.9578  -23.7239   19.0764 H   0  0  0  0  0  0
  -26.4819  -22.7292   17.7237 H   0  0  0  0  0  0
  -28.2323  -25.3233   21.8398 H   0  0  0  0  0  0
  -26.8546  -25.0058   20.9026 H   0  0  0  0  0  0
  -30.6843  -19.5359   19.6663 H   0  0  0  0  0  0
  -29.4266  -19.2862   18.5140 H   0  0  0  0  0  0
  -28.1542  -17.9104   20.0000 H   0  0  0  0  0  0
  -28.9115  -18.5434   21.4391 H   0  0  0  0  0  0
  -31.0249  -17.3797   21.0385 H   0  0  0  0  0  0
  -30.5908  -17.0232   19.3904 H   0  0  0  0  0  0
  -28.8954  -15.4988   21.1369 H   0  0  0  0  0  0
  1 25  1  0  0  0
  1 30  2  0  0  0
  1 83  1  0  0  0
  2  3  1  0  0  0
  2 25  1  0  0  0
  2 84  1  0  0  0
  2 85  1  0  0  0
  3  4  1  0  0  0
  3 86  1  0  0  0
  3 87  1  0  0  0
  4  5  1  0  0  0
  4 88  1  0  0  0
  4 89  1  0  0  0
  5  6  1  0  0  0
  5 26  1  0  0  0
  5 90  1  0  0  0
  6 25  1  0  0  0
  6 91  1  0  0  0
  6 92  1  0  0  0
  7  8  2  0  0  0
  7 26  1  0  0  0
  7 29  1  0  0  0
  8  9  1  0  0  0
  8 22  1  0  0  0
  9 10  1  0  0  0
  9 27  2  0  0  0
 10 11  2  0  0  0
 10 15  1  0  0  0
 11 12  1  0  0  0
 11 93  1  0  0  0
 12 13  2  0  0  0
 12 94  1  0  0  0
 13 14  1  0  0  0
 13 31  1  0  0  0
 14 15  2  0  0  0
 14 95  1  0  0  0
 15 96  1  0  0  0
 16 17  2  0  0  0
 16 21  1  0  0  0
 16 31  1  0  0  0
 17 18  1  0  0  0
 17 97  1  0  0  0
 18 19  2  0  0  0
 18 98  1  0  0  0
 19 20  1  0  0  0
 19 24  1  0  0  0
 20 21  2  0  0  0
 20 99  1  0  0  0
 21 23  1  0  0  0
 22 28  1  0  0  0
 22 32  2  0  0  0
 26 27  1  0  0  0
 28100  1  0  0  0
 28101  1  0  0  0
 29102  1  0  0  0
 29103  1  0  0  0
 33 34  1  0  0  0
 33 66  1  0  0  0
 33 70  2  0  0  0
 34 36  1  0  0  0
 34 59  1  0  0  0
 34104  1  0  0  0
 35 44  2  0  0  0
 35 45  1  0  0  0
 35 68  1  0  0  0
 36 56  1  0  0  0
 36105  1  0  0  0
 37 39  1  0  0  0
 37 47  1  0  0  0
 37 66  1  0  0  0
 37106  1  0  0  0
 38 43  2  0  0  0
 38 46  1  0  0  0
 38 47  1  0  0  0
 39 64  1  0  0  0
 39 67  2  0  0  0
 40 52  1  0  0  0
 40 53  2  0  0  0
 40 58  1  0  0  0
 41107  1  0  0  0
 41108  1  0  0  0
 41109  1  0  0  0
 41 48  1  0  0  0
 42 43  1  0  0  0
 42 66  1  0  0  0
 42110  1  0  0  0
 42111  1  0  0  0
 43 44  1  0  0  0
 44112  1  0  0  0
 45 46  2  0  0  0
 45113  1  0  0  0
 46114  1  0  0  0
 47115  1  0  0  0
 47116  1  0  0  0
 48 56  1  0  0  0
 48 65  1  0  0  0
 48117  1  0  0  0
 49 50  1  0  0  0
 49 53  1  0  0  0
 49 64  1  0  0  0
 49118  1  0  0  0
 50 51  1  0  0  0
 50119  1  0  0  0
 50120  1  0  0  0
 51 52  1  0  0  0
 51121  1  0  0  0
 51122  1  0  0  0
 52123  1  0  0  0
 52124  1  0  0  0
 53 54  1  0  0  0
 54 55  2  0  0  0
 54125  1  0  0  0
 55 57  1  0  0  0
 55126  1  0  0  0
 56 69  2  0  0  0
 57 58  2  0  0  0
 57127  1  0  0  0
 58128  1  0  0  0
 59 60  1  0  0  0
 59 61  1  0  0  0
 59 62  1  0  0  0
 60129  1  0  0  0
 60130  1  0  0  0
 60131  1  0  0  0
 61132  1  0  0  0
 61133  1  0  0  0
 61134  1  0  0  0
 62135  1  0  0  0
 62136  1  0  0  0
 62137  1  0  0  0
 63 65  1  0  0  0
 63138  1  0  0  0
 63139  1  0  0  0
 63140  1  0  0  0
 64141  1  0  0  0
 65142  1  0  0  0
 68 78  1  0  0  0
 71 72  2  0  0  0
 71 74  1  0  0  0
 71143  1  0  0  0
 72 73  1  0  0  0
 72 76  1  0  0  0
 73 75  2  0  0  0
 73 78  1  0  0  0
 74 79  1  0  0  0
 74 82  2  0  0  0
 75 77  1  0  0  0
 75 82  1  0  0  0
 76144  1  0  0  0
 76145  1  0  0  0
 76146  1  0  0  0
 77147  1  0  0  0
 77148  1  0  0  0
 77149  1  0  0  0
 78150  1  0  0  0
 78151  1  0  0  0
 79 80  1  0  0  0
 79152  1  0  0  0
 79153  1  0  0  0
 80 81  1  0  0  0
 80154  1  0  0  0
 80155  1  0  0  0
 81 83  1  0  0  0
 81156  1  0  0  0
 81157  1  0  0  0
 83158  1  0  0  0
M  ISO  4   1 100  68 101  78 101  83 100
M  END
> <chiral flag>
0

> <version>
0

> <s_m_source_file>
/data/baiqing/PycharmProjects/Reinvent-master-3.2/result/LINK_invent/BTK/process_docking_weight1_custom_sum_contain_oxygen_bond_distance_aromatic_linkinvent_7_9_3/rearranged_h_0037.sdf

> <i_m_source_file_index>
61

> <r_mmod_Potential_Energy-OPLS-2005>
-69.8850708007812

> <r_mmod_Stretch_Energy-OPLS-2005>
74.0974884033203

> <r_mmod_Bend_Energy-OPLS-2005>
140.26823425293

> <r_mmod_Torsional_Energy-OPLS-2005>
242.555999755859

> <r_mmod_Improper_Torsional_Energy-OPLS-2005>
8.48051357269287

> <r_mmod_Van_der_Waal_Energy-OPLS-2005>
151.260467529297

> <r_mmod_Electrostatic_Energy-OPLS-2005>
-510.772247314453

> <r_mmod_Solvation_Energy-OPLS-2005>
-223.56852722168

> <b_mmod_Minimization_Converged-OPLS-2005>
0

> <r_mmod_RMS_Derivative-OPLS-2005>
6.03589725494385

$$$$
61
                    3D
 Structure written by MMmdl.
182190  0  0  1  0            999 V2000
  -30.7683  -14.3436   20.6980 C   0  0  0  0  0  0
  -30.4172  -12.2846   19.3755 C   0  0  0  0  0  0
  -29.4769  -12.5209   18.1802 C   0  0  0  0  0  0
  -28.0031  -12.3781   18.6055 C   0  0  0  0  0  0
  -27.6683  -13.1991   19.8795 C   0  0  2  0  0  0
  -28.7117  -12.9300   20.9878 C   0  0  0  0  0  0
  -25.2625  -13.8163   20.5686 C   0  0  0  0  0  0
  -24.1854  -13.0440   20.9181 C   0  0  0  0  0  0
  -24.6394  -11.6908   20.8731 C   0  0  0  0  0  0
  -23.9056  -10.4298   21.0407 C   0  0  0  0  0  0
  -24.3610   -9.4212   21.9183 C   0  0  0  0  0  0
  -23.6288   -8.2241   22.0747 C   0  0  0  0  0  0
  -22.4268   -8.0283   21.3540 C   0  0  0  0  0  0
  -21.9912   -9.0256   20.4633 C   0  0  0  0  0  0
  -22.7240  -10.2136   20.3044 C   0  0  0  0  0  0
  -21.6851   -6.0738   22.5283 C   0  0  0  0  0  0
  -21.4009   -6.5642   23.8219 C   0  0  0  0  0  0
  -21.3653   -5.6793   24.9182 C   0  0  0  0  0  0
  -21.6044   -4.3056   24.7234 C   0  0  0  0  0  0
  -21.8821   -3.8151   23.4352 C   0  0  0  0  0  0
  -21.9194   -4.6966   22.3406 C   0  0  0  0  0  0
  -22.7871  -13.5243   21.1847 C   0  0  0  0  0  0
  -22.1663   -4.2153   21.0983 F   0  0  0  0  0  0
  -21.5630   -3.4534   25.7744 F   0  0  0  0  0  0
  -30.0477  -13.2226   20.4436 N   0  0  0  0  0  0
  -26.3061  -12.9315   20.3402 N   0  0  0  0  0  0
  -25.9317  -11.6479   20.5764 N   0  0  0  0  0  0
  -22.0496  -12.8224   22.0383 N   0  0  0  0  0  0
  -25.4359  -15.1870   20.4080 N   0  0  0  0  0  0
  -31.7883  -14.6293   20.0608 O   0  0  0  0  0  0
  -21.6632   -6.8880   21.4242 O   0  0  0  0  0  0
  -22.3557  -14.5554   20.6710 O   0  0  0  0  0  0
  -24.6099  -31.8691   23.2115 C   0  0  0  0  0  0
  -25.9006  -32.4826   23.8398 C   0  0  1  0  0  0
  -27.2373  -27.4751   20.1044 C   0  0  0  0  0  0
  -25.5884  -33.8627   24.2336 N   0  0  0  0  0  0
  -23.3985  -30.4871   21.5488 C   0  0  2  0  0  0
  -24.8511  -28.9650   20.1050 C   0  0  0  0  0  0
  -22.7408  -29.4614   22.4995 C   0  0  0  0  0  0
  -18.0268  -28.1352   22.8471 C   0  0  0  0  0  0
  -24.1503  -36.7295   23.2641 C   0  0  0  0  0  0
  -25.9218  -30.8511   21.3590 C   0  0  0  0  0  0
  -26.0039  -29.4893   20.7043 C   0  0  0  0  0  0
  -27.2028  -28.7493   20.7062 C   0  0  0  0  0  0
  -26.0807  -26.9556   19.4920 C   0  0  0  0  0  0
  -24.8831  -27.6975   19.4910 C   0  0  0  0  0  0
  -23.6079  -29.8225   20.1597 C   0  0  0  0  0  0
  -25.4111  -36.3105   24.0342 C   0  0  1  0  0  0
  -20.5864  -28.3619   23.1323 C   0  0  2  0  0  0
  -20.6775  -26.9362   22.5407 C   0  0  0  0  0  0
  -19.5759  -26.6367   21.5188 C   0  0  0  0  0  0
  -18.1928  -26.7895   22.1594 C   0  0  0  0  0  0
  -19.1520  -28.8802   23.2892 C   0  0  0  0  0  0
  -18.9452  -30.1419   23.8890 C   0  0  0  0  0  0
  -17.6459  -30.6566   24.0544 C   0  0  0  0  0  0
  -25.9017  -34.9475   23.5128 C   0  0  0  0  0  0
  -16.5352  -29.9066   23.6303 C   0  0  0  0  0  0
  -16.7258  -28.6487   23.0308 C   0  0  0  0  0  0
  -26.4450  -31.6596   25.0704 C   0  0  0  0  0  0
  -25.3729  -31.3693   26.1461 C   0  0  0  0  0  0
  -27.0281  -30.3059   24.6000 C   0  0  0  0  0  0
  -27.6020  -32.4330   25.7480 C   0  0  0  0  0  0
  -27.5583  -37.1822   24.8464 C   0  0  0  0  0  0
  -21.4145  -29.2986   22.3747 N   0  0  0  0  0  0
  -26.4298  -37.3780   23.9399 N   0  0  0  0  0  0
  -24.6603  -31.0827   22.0994 N   0  0  0  0  0  0
  -23.4206  -28.8177   23.3042 O   0  0  0  0  0  0
  -28.3613  -26.7010   20.1933 O   0  0  0  0  0  0
  -26.5578  -34.8930   22.4689 O   0  0  0  0  0  0
  -23.5306  -32.1422   23.7539 O   0  0  0  0  0  0
  -31.7182  -22.3110   23.6127 C   0  0  0  0  0  0
  -30.7701  -21.3414   23.2481 C   0  0  0  0  0  0
  -29.8115  -21.7313   22.2926 C   0  0  0  0  0  0
  -30.8079  -23.7923   22.1363 C   0  0  0  0  0  0
  -25.8753  -23.7318   15.3600 C   0  0  0  0  0  0
  -30.8071  -19.9508   23.8672 C   0  0  0  0  0  0
  -28.6636  -20.8328   21.8320 C   0  0  0  0  0  0
  -30.8151  -25.1749   21.5055 C   0  0  0  0  0  0
  -30.3162  -15.2839   21.8279 C   0  0  0  0  0  0
  -26.7270  -22.6087   15.9609 C   0  0  0  0  0  0
  -31.3401  -18.9045   22.8735 C   0  0  0  0  0  0
  -28.5922  -20.6515   20.3030 C   0  0  0  0  0  0
  -29.7487  -26.0967   22.1155 C   0  0  0  0  0  0
  -31.2023  -16.5385   21.9719 C   0  0  0  0  0  0
  -26.7128  -22.6321   17.4929 C   0  0  0  0  0  0
  -30.7047  -17.5189   23.0451 C   0  0  0  0  0  0
  -27.6743  -21.6868   19.6316 C   0  0  0  0  0  0
  -27.6225  -21.5608   18.1064 C   0  0  0  0  0  0
  -28.3817  -25.9728   21.4286 C   0  0  0  0  0  0
  -31.7280  -23.5377   23.0582 N   0  0  0  0  0  0
  -29.8458  -22.9642   21.7573 N   0  0  0  0  0  0
  -31.4576  -12.3897   19.0629 H   0  0  0  0  0  0
  -30.3222  -11.2600   19.7377 H   0  0  0  0  0  0
  -29.7035  -11.8155   17.3791 H   0  0  0  0  0  0
  -29.6470  -13.5167   17.7690 H   0  0  0  0  0  0
  -27.8108  -11.3197   18.7867 H   0  0  0  0  0  0
  -27.3454  -12.6681   17.7852 H   0  0  0  0  0  0
  -27.7305  -14.2537   19.6101 H   0  0  0  0  0  0
  -28.6722  -11.8825   21.2900 H   0  0  0  0  0  0
  -28.4706  -13.4972   21.8857 H   0  0  0  0  0  0
  -25.2749   -9.5695   22.4760 H   0  0  0  0  0  0
  -24.0005   -7.4634   22.7457 H   0  0  0  0  0  0
  -21.0850   -8.8769   19.8928 H   0  0  0  0  0  0
  -22.3703  -10.9671   19.6143 H   0  0  0  0  0  0
  -21.1990   -7.6147   23.9731 H   0  0  0  0  0  0
  -21.1472   -6.0515   25.9089 H   0  0  0  0  0  0
  -22.0603   -2.7611   23.2853 H   0  0  0  0  0  0
  -22.4088  -11.9880   22.4780 H   0  0  0  0  0  0
  -21.1092  -13.1230   22.2545 H   0  0  0  0  0  0
  -24.6751  -15.8490   20.5141 H   0  0  0  0  0  0
  -26.2998  -15.6217   20.1066 H   0  0  0  0  0  0
  -26.7099  -32.5548   23.1189 H   0  0  0  0  0  0
  -25.0135  -33.9812   25.0543 H   0  0  0  0  0  0
  -22.6805  -31.2982   21.4106 H   0  0  0  0  0  0
  -23.3772  -35.9625   23.3309 H   0  0  0  0  0  0
  -24.3626  -36.8881   22.2056 H   0  0  0  0  0  0
  -23.7248  -37.6502   23.6647 H   0  0  0  0  0  0
  -26.0258  -31.6220   20.5943 H   0  0  0  0  0  0
  -26.8112  -30.9064   21.9740 H   0  0  0  0  0  0
  -28.0898  -29.1370   21.1883 H   0  0  0  0  0  0
  -26.0995  -25.9721   19.0449 H   0  0  0  0  0  0
  -23.9988  -27.2844   19.0260 H   0  0  0  0  0  0
  -23.7134  -30.5985   19.4010 H   0  0  0  0  0  0
  -22.7358  -29.2363   19.8632 H   0  0  0  0  0  0
  -25.1294  -36.1977   25.0835 H   0  0  0  0  0  0
  -20.9941  -28.3191   24.1451 H   0  0  0  0  0  0
  -20.5694  -26.2219   23.3601 H   0  0  0  0  0  0
  -21.6648  -26.7438   22.1193 H   0  0  0  0  0  0
  -19.6936  -25.6279   21.1205 H   0  0  0  0  0  0
  -19.6711  -27.3193   20.6743 H   0  0  0  0  0  0
  -17.4206  -26.6619   21.3989 H   0  0  0  0  0  0
  -18.0329  -26.0038   22.8992 H   0  0  0  0  0  0
  -19.7943  -30.7206   24.2280 H   0  0  0  0  0  0
  -17.5023  -31.6247   24.5146 H   0  0  0  0  0  0
  -15.5345  -30.2965   23.7644 H   0  0  0  0  0  0
  -15.8660  -28.0829   22.7001 H   0  0  0  0  0  0
  -24.5882  -30.7051   25.7801 H   0  0  0  0  0  0
  -24.8950  -32.2868   26.4923 H   0  0  0  0  0  0
  -25.8094  -30.8851   27.0199 H   0  0  0  0  0  0
  -26.2809  -29.6855   24.1035 H   0  0  0  0  0  0
  -27.4082  -29.7234   25.4395 H   0  0  0  0  0  0
  -27.8621  -30.4414   23.9111 H   0  0  0  0  0  0
  -27.2599  -33.3610   26.2078 H   0  0  0  0  0  0
  -28.3825  -32.6925   25.0313 H   0  0  0  0  0  0
  -28.0688  -31.8439   26.5381 H   0  0  0  0  0  0
  -28.2600  -38.0131   24.7524 H   0  0  0  0  0  0
  -28.1100  -36.2655   24.6293 H   0  0  0  0  0  0
  -27.2314  -37.1458   25.8879 H   0  0  0  0  0  0
  -20.9317  -29.8739   21.6987 H   0  0  0  0  0  0
  -26.0186  -38.2852   24.1414 H   0  0  0  0  0  0
  -32.4821  -22.1017   24.3466 H   0  0  0  0  0  0
  -25.9147  -23.7054   14.2711 H   0  0  0  0  0  0
  -26.2279  -24.7126   15.6826 H   0  0  0  0  0  0
  -24.8315  -23.6373   15.6594 H   0  0  0  0  0  0
  -29.8061  -19.6980   24.2173 H   0  0  0  0  0  0
  -31.4319  -19.9564   24.7617 H   0  0  0  0  0  0
  -27.7243  -21.2262   22.2233 H   0  0  0  0  0  0
  -28.7594  -19.8449   22.2746 H   0  0  0  0  0  0
  -30.6854  -25.0943   20.4246 H   0  0  0  0  0  0
  -31.8010  -25.6171   21.6531 H   0  0  0  0  0  0
  -29.2927  -15.5978   21.6247 H   0  0  0  0  0  0
  -30.3060  -14.7245   22.7636 H   0  0  0  0  0  0
  -27.7534  -22.7064   15.6040 H   0  0  0  0  0  0
  -26.3643  -21.6444   15.6027 H   0  0  0  0  0  0
  -32.4272  -18.8468   22.9446 H   0  0  0  0  0  0
  -31.1279  -19.2329   21.8548 H   0  0  0  0  0  0
  -28.1935  -19.6599   20.0858 H   0  0  0  0  0  0
  -29.5975  -20.6711   19.8786 H   0  0  0  0  0  0
  -30.0737  -27.1338   22.0535 H   0  0  0  0  0  0
  -29.6573  -25.8787   23.1817 H   0  0  0  0  0  0
  -31.2305  -17.0527   21.0092 H   0  0  0  0  0  0
  -32.2307  -16.2479   22.1946 H   0  0  0  0  0  0
  -25.6927  -22.4946   17.8552 H   0  0  0  0  0  0
  -27.0305  -23.6172   17.8390 H   0  0  0  0  0  0
  -29.6206  -17.6145   22.9686 H   0  0  0  0  0  0
  -30.9094  -17.1271   24.0431 H   0  0  0  0  0  0
  -28.0072  -22.6929   19.8878 H   0  0  0  0  0  0
  -26.6659  -21.5899   20.0366 H   0  0  0  0  0  0
  -28.6294  -21.6588   17.6988 H   0  0  0  0  0  0
  -27.2686  -20.5665   17.8280 H   0  0  0  0  0  0
  -27.6238  -26.3327   22.1302 H   0  0  0  0  0  0
  -28.1213  -24.9325   21.2367 H   0  0  0  0  0  0
  1 25  1  0  0  0
  1 30  2  0  0  0
  1 79  1  0  0  0
  2  3  1  0  0  0
  2 25  1  0  0  0
  2 92  1  0  0  0
  2 93  1  0  0  0
  3  4  1  0  0  0
  3 94  1  0  0  0
  3 95  1  0  0  0
  4  5  1  0  0  0
  4 96  1  0  0  0
  4 97  1  0  0  0
  5  6  1  0  0  0
  5 26  1  0  0  0
  5 98  1  0  0  0
  6 25  1  0  0  0
  6 99  1  0  0  0
  6100  1  0  0  0
  7  8  2  0  0  0
  7 26  1  0  0  0
  7 29  1  0  0  0
  8  9  1  0  0  0
  8 22  1  0  0  0
  9 10  1  0  0  0
  9 27  2  0  0  0
 10 11  2  0  0  0
 10 15  1  0  0  0
 11 12  1  0  0  0
 11101  1  0  0  0
 12 13  2  0  0  0
 12102  1  0  0  0
 13 14  1  0  0  0
 13 31  1  0  0  0
 14 15  2  0  0  0
 14103  1  0  0  0
 15104  1  0  0  0
 16 17  2  0  0  0
 16 21  1  0  0  0
 16 31  1  0  0  0
 17 18  1  0  0  0
 17105  1  0  0  0
 18 19  2  0  0  0
 18106  1  0  0  0
 19 20  1  0  0  0
 19 24  1  0  0  0
 20 21  2  0  0  0
 20107  1  0  0  0
 21 23  1  0  0  0
 22 28  1  0  0  0
 22 32  2  0  0  0
 26 27  1  0  0  0
 28108  1  0  0  0
 28109  1  0  0  0
 29110  1  0  0  0
 29111  1  0  0  0
 33 34  1  0  0  0
 33 66  1  0  0  0
 33 70  2  0  0  0
 34 36  1  0  0  0
 34 59  1  0  0  0
 34112  1  0  0  0
 35 44  2  0  0  0
 35 45  1  0  0  0
 35 68  1  0  0  0
 36 56  1  0  0  0
 36113  1  0  0  0
 37 39  1  0  0  0
 37 47  1  0  0  0
 37 66  1  0  0  0
 37114  1  0  0  0
 38 43  2  0  0  0
 38 46  1  0  0  0
 38 47  1  0  0  0
 39 64  1  0  0  0
 39 67  2  0  0  0
 40 52  1  0  0  0
 40 53  2  0  0  0
 40 58  1  0  0  0
 41115  1  0  0  0
 41116  1  0  0  0
 41117  1  0  0  0
 41 48  1  0  0  0
 42 43  1  0  0  0
 42 66  1  0  0  0
 42118  1  0  0  0
 42119  1  0  0  0
 43 44  1  0  0  0
 44120  1  0  0  0
 45 46  2  0  0  0
 45121  1  0  0  0
 46122  1  0  0  0
 47123  1  0  0  0
 47124  1  0  0  0
 48 56  1  0  0  0
 48 65  1  0  0  0
 48125  1  0  0  0
 49 50  1  0  0  0
 49 53  1  0  0  0
 49 64  1  0  0  0
 49126  1  0  0  0
 50 51  1  0  0  0
 50127  1  0  0  0
 50128  1  0  0  0
 51 52  1  0  0  0
 51129  1  0  0  0
 51130  1  0  0  0
 52131  1  0  0  0
 52132  1  0  0  0
 53 54  1  0  0  0
 54 55  2  0  0  0
 54133  1  0  0  0
 55 57  1  0  0  0
 55134  1  0  0  0
 56 69  2  0  0  0
 57 58  2  0  0  0
 57135  1  0  0  0
 58136  1  0  0  0
 59 60  1  0  0  0
 59 61  1  0  0  0
 59 62  1  0  0  0
 60137  1  0  0  0
 60138  1  0  0  0
 60139  1  0  0  0
 61140  1  0  0  0
 61141  1  0  0  0
 61142  1  0  0  0
 62143  1  0  0  0
 62144  1  0  0  0
 62145  1  0  0  0
 63 65  1  0  0  0
 63146  1  0  0  0
 63147  1  0  0  0
 63148  1  0  0  0
 64149  1  0  0  0
 65150  1  0  0  0
 68 89  1  0  0  0
 71 72  2  0  0  0
 71 90  1  0  0  0
 71151  1  0  0  0
 72 73  1  0  0  0
 72 76  1  0  0  0
 73 77  1  0  0  0
 73 91  2  0  0  0
 74 78  1  0  0  0
 74 90  2  0  0  0
 74 91  1  0  0  0
 75 80  1  0  0  0
 75152  1  0  0  0
 75153  1  0  0  0
 75154  1  0  0  0
 76 81  1  0  0  0
 76155  1  0  0  0
 76156  1  0  0  0
 77 82  1  0  0  0
 77157  1  0  0  0
 77158  1  0  0  0
 78 83  1  0  0  0
 78159  1  0  0  0
 78160  1  0  0  0
 79 84  1  0  0  0
 79161  1  0  0  0
 79162  1  0  0  0
 80 85  1  0  0  0
 80163  1  0  0  0
 80164  1  0  0  0
 81 86  1  0  0  0
 81165  1  0  0  0
 81166  1  0  0  0
 82 87  1  0  0  0
 82167  1  0  0  0
 82168  1  0  0  0
 83 89  1  0  0  0
 83169  1  0  0  0
 83170  1  0  0  0
 84 86  1  0  0  0
 84171  1  0  0  0
 84172  1  0  0  0
 85 88  1  0  0  0
 85173  1  0  0  0
 85174  1  0  0  0
 86175  1  0  0  0
 86176  1  0  0  0
 87 88  1  0  0  0
 87177  1  0  0  0
 87178  1  0  0  0
 88179  1  0  0  0
 88180  1  0  0  0
 89181  1  0  0  0
 89182  1  0  0  0
M  ISO  4   1 100  68 101  79 100  89 101
M  END
> <chiral flag>
0

> <version>
0

> <s_m_source_file>
/data/baiqing/PycharmProjects/Reinvent-master-3.2/result/LINK_invent/BTK/process_docking_weight1_custom_sum_contain_oxygen_bond_distance_aromatic_linkinvent_7_9_3/rearranged_h_0037.sdf

> <i_m_source_file_index>
62

> <r_mmod_Potential_Energy-OPLS-2005>
-443.27001953125

> <r_mmod_Stretch_Energy-OPLS-2005>
31.2657947540283

> <r_mmod_Bend_Energy-OPLS-2005>
89.6651382446289

> <r_mmod_Torsional_Energy-OPLS-2005>
203.357162475586

> <r_mmod_Improper_Torsional_Energy-OPLS-2005>
1.86943674087524

> <r_mmod_Van_der_Waal_Energy-OPLS-2005>
154.901992797852

> <r_mmod_Electrostatic_Energy-OPLS-2005>
-731.165222167969

> <r_mmod_Solvation_Energy-OPLS-2005>
-202.972885131836

> <b_mmod_Minimization_Converged-OPLS-2005>
0

> <r_mmod_RMS_Derivative-OPLS-2005>
2.25759506225586

$$$$
62
                    3D
 Structure written by MMmdl.
165173  0  0  1  0            999 V2000
  -30.7263  -14.4701   20.5040 C   0  0  0  0  0  0
  -30.4157  -12.2846   19.4311 C   0  0  0  0  0  0
  -29.4952  -12.4799   18.2102 C   0  0  0  0  0  0
  -28.0155  -12.3573   18.6192 C   0  0  0  0  0  0
  -27.6587  -13.2141   19.8666 C   0  0  2  0  0  0
  -28.7041  -13.0319   20.9926 C   0  0  0  0  0  0
  -25.2565  -13.8205   20.5751 C   0  0  0  0  0  0
  -24.1796  -13.0455   20.9198 C   0  0  0  0  0  0
  -24.6362  -11.6930   20.8711 C   0  0  0  0  0  0
  -23.9046  -10.4298   21.0382 C   0  0  0  0  0  0
  -24.3587   -9.4216   21.9172 C   0  0  0  0  0  0
  -23.6279   -8.2231   22.0756 C   0  0  0  0  0  0
  -22.4253   -8.0264   21.3544 C   0  0  0  0  0  0
  -21.9883   -9.0243   20.4640 C   0  0  0  0  0  0
  -22.7210  -10.2128   20.3050 C   0  0  0  0  0  0
  -21.6856   -6.0704   22.5276 C   0  0  0  0  0  0
  -21.4013   -6.5615   23.8216 C   0  0  0  0  0  0
  -21.3679   -5.6766   24.9183 C   0  0  0  0  0  0
  -21.6037   -4.3028   24.7226 C   0  0  0  0  0  0
  -21.8824   -3.8113   23.4349 C   0  0  0  0  0  0
  -21.9197   -4.6931   22.3401 C   0  0  0  0  0  0
  -22.7808  -13.5251   21.1858 C   0  0  0  0  0  0
  -22.1656   -4.2110   21.0981 F   0  0  0  0  0  0
  -21.5656   -3.4518   25.7741 F   0  0  0  0  0  0
  -30.0416  -13.2966   20.4318 N   0  0  0  0  0  0
  -26.3000  -12.9382   20.3351 N   0  0  0  0  0  0
  -25.9297  -11.6522   20.5719 N   0  0  0  0  0  0
  -22.0403  -12.8272   22.0431 N   0  0  0  0  0  0
  -25.4302  -15.1928   20.4271 N   0  0  0  0  0  0
  -31.8773  -14.6074   20.0877 O   0  0  0  0  0  0
  -21.6639   -6.8843   21.4236 O   0  0  0  0  0  0
  -22.3497  -14.5548   20.6688 O   0  0  0  0  0  0
  -24.6184  -31.8668   23.2113 C   0  0  0  0  0  0
  -25.9063  -32.4825   23.8400 C   0  0  1  0  0  0
  -27.2343  -27.4342   20.0834 C   0  0  0  0  0  0
  -25.5916  -33.8624   24.2332 N   0  0  0  0  0  0
  -23.4052  -30.4970   21.5521 C   0  0  2  0  0  0
  -24.8499  -28.9729   20.1070 C   0  0  0  0  0  0
  -22.7428  -29.4675   22.4972 C   0  0  0  0  0  0
  -18.0274  -28.1386   22.8509 C   0  0  0  0  0  0
  -24.1483  -36.7313   23.2636 C   0  0  0  0  0  0
  -25.9375  -30.8344   21.3657 C   0  0  0  0  0  0
  -26.0130  -29.4727   20.7058 C   0  0  0  0  0  0
  -27.2085  -28.7129   20.6881 C   0  0  0  0  0  0
  -26.0468  -26.9607   19.4694 C   0  0  0  0  0  0
  -24.8624  -27.7160   19.4836 C   0  0  0  0  0  0
  -23.6110  -29.8366   20.1646 C   0  0  0  0  0  0
  -25.4105  -36.3112   24.0337 C   0  0  1  0  0  0
  -20.5874  -28.3669   23.1318 C   0  0  2  0  0  0
  -20.6765  -26.9404   22.5411 C   0  0  0  0  0  0
  -19.5727  -26.6392   21.5224 C   0  0  0  0  0  0
  -18.1916  -26.7937   22.1647 C   0  0  0  0  0  0
  -19.1529  -28.8848   23.2918 C   0  0  0  0  0  0
  -18.9445  -30.1458   23.8915 C   0  0  0  0  0  0
  -17.6444  -30.6587   24.0577 C   0  0  0  0  0  0
  -25.9036  -34.9482   23.5126 C   0  0  0  0  0  0
  -16.5336  -29.9084   23.6335 C   0  0  0  0  0  0
  -16.7267  -28.6513   23.0343 C   0  0  0  0  0  0
  -26.4483  -31.6607   25.0727 C   0  0  0  0  0  0
  -25.3744  -31.3704   26.1465 C   0  0  0  0  0  0
  -27.0310  -30.3048   24.6100 C   0  0  0  0  0  0
  -27.6070  -32.4318   25.7477 C   0  0  0  0  0  0
  -27.5587  -37.1810   24.8471 C   0  0  0  0  0  0
  -21.4157  -29.3041   22.3716 N   0  0  0  0  0  0
  -26.4296  -37.3803   23.9424 N   0  0  0  0  0  0
  -24.6725  -31.0784   22.1012 N   0  0  0  0  0  0
  -23.4193  -28.8205   23.3012 O   0  0  0  0  0  0
  -28.3886  -26.6641   20.1108 O   0  0  0  0  0  0
  -26.5592  -34.8944   22.4686 O   0  0  0  0  0  0
  -23.5368  -32.1412   23.7497 O   0  0  0  0  0  0
  -29.2446  -21.7571   20.3776 C   0  0  0  0  0  0
  -27.9507  -22.8480   22.1174 C   0  0  0  0  0  0
  -28.8588  -22.9449   21.0481 C   0  0  0  0  0  0
  -28.6508  -20.5061   20.7046 C   0  0  0  0  0  0
  -27.2779  -21.6427   22.4020 C   0  0  0  0  0  0
  -27.5893  -20.4830   21.6499 C   0  0  0  0  0  0
  -25.5672  -22.9434   23.8275 C   0  0  0  0  0  0
  -26.8355  -20.9692   24.7840 C   0  0  0  0  0  0
  -29.3455  -24.3458   20.6392 C   0  0  0  0  0  0
  -29.1390  -19.2265   19.9933 C   0  0  0  0  0  0
  -29.3999  -17.9914   20.9111 C   0  0  0  0  0  0
  -30.3356  -16.9093   20.3347 C   0  0  0  0  0  0
  -28.1495  -25.2474   20.2332 C   0  0  0  0  0  0
  -26.2273  -21.5879   23.5148 C   0  0  0  0  0  0
  -29.9936  -15.5537   20.8025 N   0  0  0  0  0  0
  -26.6220  -19.0620   21.8743 Cl  0  0  0  0  0  0
  -31.4612  -12.3568   19.1263 H   0  0  0  0  0  0
  -30.2999  -11.2808   19.8425 H   0  0  0  0  0  0
  -29.7255  -11.7442   17.4365 H   0  0  0  0  0  0
  -29.6808  -13.4593   17.7650 H   0  0  0  0  0  0
  -27.8194  -11.3045   18.8221 H   0  0  0  0  0  0
  -27.3684  -12.6223   17.7820 H   0  0  0  0  0  0
  -27.6927  -14.2557   19.5477 H   0  0  0  0  0  0
  -28.6672  -12.0123   21.3792 H   0  0  0  0  0  0
  -28.4767  -13.6848   21.8369 H   0  0  0  0  0  0
  -25.2731   -9.5697   22.4760 H   0  0  0  0  0  0
  -23.9987   -7.4639   22.7492 H   0  0  0  0  0  0
  -21.0812   -8.8767   19.8959 H   0  0  0  0  0  0
  -22.3674  -10.9665   19.6154 H   0  0  0  0  0  0
  -21.1998   -7.6120   23.9709 H   0  0  0  0  0  0
  -21.1511   -6.0493   25.9089 H   0  0  0  0  0  0
  -22.0588   -2.7571   23.2872 H   0  0  0  0  0  0
  -22.3970  -11.9966   22.4899 H   0  0  0  0  0  0
  -21.0995  -13.1314   22.2542 H   0  0  0  0  0  0
  -24.6792  -15.8533   20.5978 H   0  0  0  0  0  0
  -26.2928  -15.6453   20.1506 H   0  0  0  0  0  0
  -26.7140  -32.5528   23.1176 H   0  0  0  0  0  0
  -25.0119  -33.9782   25.0508 H   0  0  0  0  0  0
  -22.6960  -31.3166   21.4189 H   0  0  0  0  0  0
  -23.3748  -35.9646   23.3298 H   0  0  0  0  0  0
  -24.3586  -36.8912   22.2052 H   0  0  0  0  0  0
  -23.7224  -37.6519   23.6637 H   0  0  0  0  0  0
  -26.0506  -31.6008   20.5977 H   0  0  0  0  0  0
  -26.8270  -30.8829   21.9833 H   0  0  0  0  0  0
  -28.1061  -29.0963   21.1527 H   0  0  0  0  0  0
  -26.0034  -26.0087   18.9622 H   0  0  0  0  0  0
  -23.9708  -27.3306   19.0076 H   0  0  0  0  0  0
  -23.7155  -30.6152   19.4076 H   0  0  0  0  0  0
  -22.7374  -29.2546   19.8647 H   0  0  0  0  0  0
  -25.1277  -36.1985   25.0829 H   0  0  0  0  0  0
  -20.9989  -28.3227   24.1433 H   0  0  0  0  0  0
  -20.5682  -26.2281   23.3597 H   0  0  0  0  0  0
  -21.6632  -26.7448   22.1196 H   0  0  0  0  0  0
  -19.6870  -25.6307   21.1233 H   0  0  0  0  0  0
  -19.6652  -27.3229   20.6771 H   0  0  0  0  0  0
  -17.4187  -26.6712   21.4040 H   0  0  0  0  0  0
  -18.0307  -26.0071   22.9035 H   0  0  0  0  0  0
  -19.7910  -30.7289   24.2291 H   0  0  0  0  0  0
  -17.4979  -31.6271   24.5159 H   0  0  0  0  0  0
  -15.5330  -30.2978   23.7632 H   0  0  0  0  0  0
  -15.8681  -28.0827   22.7022 H   0  0  0  0  0  0
  -24.5926  -30.7048   25.7786 H   0  0  0  0  0  0
  -24.8932  -32.2854   26.4920 H   0  0  0  0  0  0
  -25.8084  -30.8859   27.0216 H   0  0  0  0  0  0
  -26.2840  -29.6806   24.1175 H   0  0  0  0  0  0
  -27.4104  -29.7291   25.4554 H   0  0  0  0  0  0
  -27.8676  -30.4369   23.9234 H   0  0  0  0  0  0
  -27.2703  -33.3618   26.2071 H   0  0  0  0  0  0
  -28.3860  -32.6861   25.0277 H   0  0  0  0  0  0
  -28.0758  -31.8424   26.5367 H   0  0  0  0  0  0
  -28.2608  -38.0105   24.7544 H   0  0  0  0  0  0
  -28.1077  -36.2646   24.6259 H   0  0  0  0  0  0
  -27.2323  -37.1423   25.8877 H   0  0  0  0  0  0
  -20.9305  -29.8788   21.6966 H   0  0  0  0  0  0
  -26.0177  -38.2887   24.1417 H   0  0  0  0  0  0
  -29.9881  -21.8086   19.5940 H   0  0  0  0  0  0
  -27.7187  -23.7396   22.6792 H   0  0  0  0  0  0
  -25.1975  -23.4269   22.9230 H   0  0  0  0  0  0
  -26.2528  -23.6309   24.3240 H   0  0  0  0  0  0
  -24.7138  -22.8051   24.4920 H   0  0  0  0  0  0
  -27.2820  -19.9942   24.5859 H   0  0  0  0  0  0
  -26.0773  -20.8232   25.5528 H   0  0  0  0  0  0
  -27.6183  -21.6086   25.1944 H   0  0  0  0  0  0
  -30.0567  -24.2818   19.8135 H   0  0  0  0  0  0
  -29.8787  -24.7945   21.4772 H   0  0  0  0  0  0
  -30.0591  -19.4654   19.4587 H   0  0  0  0  0  0
  -28.4132  -18.9592   19.2227 H   0  0  0  0  0  0
  -28.4599  -17.5032   21.1491 H   0  0  0  0  0  0
  -29.8187  -18.3353   21.8579 H   0  0  0  0  0  0
  -31.3701  -17.1581   20.5858 H   0  0  0  0  0  0
  -30.2746  -16.9102   19.2459 H   0  0  0  0  0  0
  -27.3749  -25.1429   20.9948 H   0  0  0  0  0  0
  -27.7422  -24.8406   19.3080 H   0  0  0  0  0  0
  -25.4137  -20.9511   23.1686 H   0  0  0  0  0  0
  -29.0487  -15.3893   21.1181 H   0  0  0  0  0  0
  1 25  1  0  0  0
  1 30  2  0  0  0
  1 85  1  0  0  0
  2  3  1  0  0  0
  2 25  1  0  0  0
  2 87  1  0  0  0
  2 88  1  0  0  0
  3  4  1  0  0  0
  3 89  1  0  0  0
  3 90  1  0  0  0
  4  5  1  0  0  0
  4 91  1  0  0  0
  4 92  1  0  0  0
  5  6  1  0  0  0
  5 26  1  0  0  0
  5 93  1  0  0  0
  6 25  1  0  0  0
  6 94  1  0  0  0
  6 95  1  0  0  0
  7  8  2  0  0  0
  7 26  1  0  0  0
  7 29  1  0  0  0
  8  9  1  0  0  0
  8 22  1  0  0  0
  9 10  1  0  0  0
  9 27  2  0  0  0
 10 11  2  0  0  0
 10 15  1  0  0  0
 11 12  1  0  0  0
 11 96  1  0  0  0
 12 13  2  0  0  0
 12 97  1  0  0  0
 13 14  1  0  0  0
 13 31  1  0  0  0
 14 15  2  0  0  0
 14 98  1  0  0  0
 15 99  1  0  0  0
 16 17  2  0  0  0
 16 21  1  0  0  0
 16 31  1  0  0  0
 17 18  1  0  0  0
 17100  1  0  0  0
 18 19  2  0  0  0
 18101  1  0  0  0
 19 20  1  0  0  0
 19 24  1  0  0  0
 20 21  2  0  0  0
 20102  1  0  0  0
 21 23  1  0  0  0
 22 28  1  0  0  0
 22 32  2  0  0  0
 26 27  1  0  0  0
 28103  1  0  0  0
 28104  1  0  0  0
 29105  1  0  0  0
 29106  1  0  0  0
 33 34  1  0  0  0
 33 66  1  0  0  0
 33 70  2  0  0  0
 34 36  1  0  0  0
 34 59  1  0  0  0
 34107  1  0  0  0
 35 44  2  0  0  0
 35 45  1  0  0  0
 35 68  1  0  0  0
 36 56  1  0  0  0
 36108  1  0  0  0
 37 39  1  0  0  0
 37 47  1  0  0  0
 37 66  1  0  0  0
 37109  1  0  0  0
 38 43  2  0  0  0
 38 46  1  0  0  0
 38 47  1  0  0  0
 39 64  1  0  0  0
 39 67  2  0  0  0
 40 52  1  0  0  0
 40 53  2  0  0  0
 40 58  1  0  0  0
 41110  1  0  0  0
 41111  1  0  0  0
 41112  1  0  0  0
 41 48  1  0  0  0
 42 43  1  0  0  0
 42 66  1  0  0  0
 42113  1  0  0  0
 42114  1  0  0  0
 43 44  1  0  0  0
 44115  1  0  0  0
 45 46  2  0  0  0
 45116  1  0  0  0
 46117  1  0  0  0
 47118  1  0  0  0
 47119  1  0  0  0
 48 56  1  0  0  0
 48 65  1  0  0  0
 48120  1  0  0  0
 49 50  1  0  0  0
 49 53  1  0  0  0
 49 64  1  0  0  0
 49121  1  0  0  0
 50 51  1  0  0  0
 50122  1  0  0  0
 50123  1  0  0  0
 51 52  1  0  0  0
 51124  1  0  0  0
 51125  1  0  0  0
 52126  1  0  0  0
 52127  1  0  0  0
 53 54  1  0  0  0
 54 55  2  0  0  0
 54128  1  0  0  0
 55 57  1  0  0  0
 55129  1  0  0  0
 56 69  2  0  0  0
 57 58  2  0  0  0
 57130  1  0  0  0
 58131  1  0  0  0
 59 60  1  0  0  0
 59 61  1  0  0  0
 59 62  1  0  0  0
 60132  1  0  0  0
 60133  1  0  0  0
 60134  1  0  0  0
 61135  1  0  0  0
 61136  1  0  0  0
 61137  1  0  0  0
 62138  1  0  0  0
 62139  1  0  0  0
 62140  1  0  0  0
 63 65  1  0  0  0
 63141  1  0  0  0
 63142  1  0  0  0
 63143  1  0  0  0
 64144  1  0  0  0
 65145  1  0  0  0
 68 83  1  0  0  0
 71 73  2  0  0  0
 71 74  1  0  0  0
 71146  1  0  0  0
 72 73  1  0  0  0
 72 75  2  0  0  0
 72147  1  0  0  0
 73 79  1  0  0  0
 74 76  2  0  0  0
 74 80  1  0  0  0
 75 76  1  0  0  0
 75 84  1  0  0  0
 76 86  1  0  0  0
 77148  1  0  0  0
 77149  1  0  0  0
 77150  1  0  0  0
 77 84  1  0  0  0
 78 84  1  0  0  0
 78151  1  0  0  0
 78152  1  0  0  0
 78153  1  0  0  0
 79 83  1  0  0  0
 79154  1  0  0  0
 79155  1  0  0  0
 80 81  1  0  0  0
 80156  1  0  0  0
 80157  1  0  0  0
 81 82  1  0  0  0
 81158  1  0  0  0
 81159  1  0  0  0
 82 85  1  0  0  0
 82160  1  0  0  0
 82161  1  0  0  0
 83162  1  0  0  0
 83163  1  0  0  0
 84164  1  0  0  0
 85165  1  0  0  0
M  ISO  4   1 100  68 101  83 101  85 100
M  END
> <chiral flag>
0

> <version>
0

> <s_m_source_file>
/data/baiqing/PycharmProjects/Reinvent-master-3.2/result/LINK_invent/BTK/process_docking_weight1_custom_sum_contain_oxygen_bond_distance_aromatic_linkinvent_7_9_3/rearranged_h_0037.sdf

> <i_m_source_file_index>
63

> <r_mmod_Potential_Energy-OPLS-2005>
4.94402122497559

> <r_mmod_Stretch_Energy-OPLS-2005>
42.2732009887695

> <r_mmod_Bend_Energy-OPLS-2005>
97.0993347167969

> <r_mmod_Torsional_Energy-OPLS-2005>
230.899993896484

> <r_mmod_Improper_Torsional_Energy-OPLS-2005>
7.21141242980957

> <r_mmod_Van_der_Waal_Energy-OPLS-2005>
169.857940673828

> <r_mmod_Electrostatic_Energy-OPLS-2005>
-364.711944580078

> <r_mmod_Solvation_Energy-OPLS-2005>
-194.776626586914

> <b_mmod_Minimization_Converged-OPLS-2005>
0

> <r_mmod_RMS_Derivative-OPLS-2005>
3.81430149078369

$$$$
63
                    3D
 Structure written by MMmdl.
155164  0  0  1  0            999 V2000
  -30.5262  -15.0183   20.4530 C   0  0  0  0  0  0
  -30.4349  -12.6386   19.5327 C   0  0  0  0  0  0
  -29.5357  -12.5658   18.2730 C   0  0  0  0  0  0
  -28.0620  -12.3445   18.6663 C   0  0  0  0  0  0
  -27.6277  -13.2610   19.8401 C   0  0  2  0  0  0
  -28.6597  -13.3088   20.9865 C   0  0  0  0  0  0
  -25.2447  -13.8210   20.5699 C   0  0  0  0  0  0
  -24.1785  -13.0447   20.9188 C   0  0  0  0  0  0
  -24.6410  -11.6919   20.8682 C   0  0  0  0  0  0
  -23.9097  -10.4289   21.0340 C   0  0  0  0  0  0
  -24.3651   -9.4203   21.9137 C   0  0  0  0  0  0
  -23.6318   -8.2244   22.0758 C   0  0  0  0  0  0
  -22.4295   -8.0261   21.3540 C   0  0  0  0  0  0
  -21.9914   -9.0230   20.4645 C   0  0  0  0  0  0
  -22.7246  -10.2110   20.3010 C   0  0  0  0  0  0
  -21.6877   -6.0726   22.5278 C   0  0  0  0  0  0
  -21.4022   -6.5634   23.8200 C   0  0  0  0  0  0
  -21.3671   -5.6798   24.9172 C   0  0  0  0  0  0
  -21.6046   -4.3066   24.7229 C   0  0  0  0  0  0
  -21.8827   -3.8135   23.4342 C   0  0  0  0  0  0
  -21.9196   -4.6948   22.3395 C   0  0  0  0  0  0
  -22.7782  -13.5171   21.1830 C   0  0  0  0  0  0
  -22.1666   -4.2140   21.0982 F   0  0  0  0  0  0
  -21.5636   -3.4541   25.7740 F   0  0  0  0  0  0
  -29.9362  -13.7467   20.4083 N   0  0  0  0  0  0
  -26.2889  -12.9483   20.3199 N   0  0  0  0  0  0
  -25.9363  -11.6594   20.5693 N   0  0  0  0  0  0
  -22.0468  -12.8186   22.0410 N   0  0  0  0  0  0
  -25.4089  -15.1969   20.4159 N   0  0  0  0  0  0
  -31.7150  -15.0703   20.1144 O   0  0  0  0  0  0
  -21.6664   -6.8854   21.4235 O   0  0  0  0  0  0
  -22.3444  -14.5454   20.6633 O   0  0  0  0  0  0
  -24.6460  -31.8377   23.1788 C   0  0  0  0  0  0
  -25.9217  -32.4658   23.8188 C   0  0  1  0  0  0
  -27.2292  -27.0896   20.1876 C   0  0  0  0  0  0
  -25.5947  -33.8455   24.2105 N   0  0  0  0  0  0
  -23.4569  -30.4534   21.5193 C   0  0  2  0  0  0
  -24.9132  -28.8660   20.1133 C   0  0  0  0  0  0
  -22.7597  -29.4519   22.4763 C   0  0  0  0  0  0
  -18.0322  -28.1463   22.8451 C   0  0  0  0  0  0
  -24.1491  -36.7236   23.2633 C   0  0  0  0  0  0
  -26.0141  -30.7018   21.3829 C   0  0  0  0  0  0
  -26.0900  -29.3048   20.7313 C   0  0  0  0  0  0
  -27.2504  -28.4359   20.7453 C   0  0  0  0  0  0
  -26.0276  -26.7597   19.5213 C   0  0  0  0  0  0
  -24.8985  -27.6076   19.4912 C   0  0  0  0  0  0
  -23.6903  -29.7715   20.1444 C   0  0  0  0  0  0
  -25.4133  -36.2987   24.0279 C   0  0  1  0  0  0
  -20.5937  -28.3773   23.1213 C   0  0  2  0  0  0
  -20.6798  -26.9473   22.5407 C   0  0  0  0  0  0
  -19.5764  -26.6408   21.5222 C   0  0  0  0  0  0
  -18.1937  -26.7995   22.1630 C   0  0  0  0  0  0
  -19.1585  -28.8934   23.2822 C   0  0  0  0  0  0
  -18.9483  -30.1518   23.8869 C   0  0  0  0  0  0
  -17.6495  -30.6629   24.0571 C   0  0  0  0  0  0
  -25.9085  -34.9372   23.4994 C   0  0  0  0  0  0
  -16.5376  -29.9121   23.6360 C   0  0  0  0  0  0
  -16.7305  -28.6578   23.0335 C   0  0  0  0  0  0
  -26.4530  -31.6558   25.0647 C   0  0  0  0  0  0
  -25.3701  -31.3783   26.1334 C   0  0  0  0  0  0
  -27.0386  -30.2935   24.6285 C   0  0  0  0  0  0
  -27.6037  -32.4355   25.7456 C   0  0  0  0  0  0
  -27.5577  -37.1766   24.8464 C   0  0  0  0  0  0
  -21.4283  -29.3081   22.3550 N   0  0  0  0  0  0
  -26.4289  -37.3727   23.9403 N   0  0  0  0  0  0
  -24.7250  -31.0189   22.0839 N   0  0  0  0  0  0
  -23.4207  -28.8049   23.2930 O   0  0  0  0  0  0
  -28.2858  -26.0951   20.2332 O   0  0  0  0  0  0
  -26.5677  -34.8883   22.4573 O   0  0  0  0  0  0
  -23.5565  -32.1271   23.6960 O   0  0  0  0  0  0
  -28.7302  -21.4919   22.2438 C   0  0  0  0  0  0
  -28.8785  -20.2277   22.8687 C   0  0  0  0  0  0
  -28.9386  -21.6295   20.8592 C   0  0  0  0  0  0
  -29.4336  -19.1542   20.8868 C   0  0  0  0  0  0
  -27.8051  -19.1122   25.0121 C   0  0  0  0  0  0
  -27.6128  -20.6011   25.1467 C   0  0  0  0  0  0
  -28.7901  -20.0645   24.3642 C   0  0  0  0  0  0
  -28.9291  -23.1612   20.1637 C   0  0  0  0  0  0
  -30.0206  -17.7388   20.2250 C   0  0  0  0  0  0
  -28.0737  -24.5784   20.6388 C   0  0  0  0  0  0
  -29.2021  -19.0962   22.1938 N   0  0  0  0  0  0
  -29.3125  -20.3992   20.2264 N   0  0  0  0  0  0
  -29.7765  -16.2198   20.6661 N   0  0  0  0  0  0
  -31.4753  -12.7850   19.2362 H   0  0  0  0  0  0
  -30.4178  -11.6876   20.0684 H   0  0  0  0  0  0
  -29.8710  -11.7686   17.6097 H   0  0  0  0  0  0
  -29.6258  -13.4947   17.7057 H   0  0  0  0  0  0
  -27.9423  -11.2970   18.9458 H   0  0  0  0  0  0
  -27.4125  -12.5017   17.8031 H   0  0  0  0  0  0
  -27.5863  -14.2638   19.4150 H   0  0  0  0  0  0
  -28.7583  -12.3332   21.4665 H   0  0  0  0  0  0
  -28.3370  -14.0058   21.7611 H   0  0  0  0  0  0
  -25.2798   -9.5698   22.4703 H   0  0  0  0  0  0
  -24.0040   -7.4642   22.7484 H   0  0  0  0  0  0
  -21.0834   -8.8689   19.8955 H   0  0  0  0  0  0
  -22.3643  -10.9620   19.6110 H   0  0  0  0  0  0
  -21.2002   -7.6146   23.9683 H   0  0  0  0  0  0
  -21.1505   -6.0542   25.9077 H   0  0  0  0  0  0
  -22.0585   -2.7593   23.2850 H   0  0  0  0  0  0
  -22.4181  -11.9932   22.4896 H   0  0  0  0  0  0
  -21.1022  -13.1075   22.2535 H   0  0  0  0  0  0
  -24.6228  -15.8309   20.5109 H   0  0  0  0  0  0
  -26.2463  -15.6462   20.0701 H   0  0  0  0  0  0
  -26.7288  -32.5256   23.0917 H   0  0  0  0  0  0
  -25.0062  -33.9581   25.0238 H   0  0  0  0  0  0
  -22.7642  -31.2776   21.3522 H   0  0  0  0  0  0
  -23.3736  -35.9588   23.3297 H   0  0  0  0  0  0
  -24.3586  -36.8888   22.2057 H   0  0  0  0  0  0
  -23.7294  -37.6432   23.6712 H   0  0  0  0  0  0
  -26.1709  -31.4545   20.6058 H   0  0  0  0  0  0
  -26.8801  -30.7594   22.0298 H   0  0  0  0  0  0
  -28.1501  -28.7697   21.2424 H   0  0  0  0  0  0
  -25.9333  -25.7979   19.0357 H   0  0  0  0  0  0
  -24.0008  -27.2690   18.9930 H   0  0  0  0  0  0
  -23.8297  -30.5365   19.3775 H   0  0  0  0  0  0
  -22.8068  -29.2095   19.8334 H   0  0  0  0  0  0
  -25.1338  -36.1778   25.0775 H   0  0  0  0  0  0
  -21.0051  -28.3377   24.1323 H   0  0  0  0  0  0
  -20.5708  -26.2373   23.3627 H   0  0  0  0  0  0
  -21.6644  -26.7476   22.1179 H   0  0  0  0  0  0
  -19.6916  -25.6304   21.1275 H   0  0  0  0  0  0
  -19.6713  -27.3191   20.6725 H   0  0  0  0  0  0
  -17.4214  -26.6727   21.4031 H   0  0  0  0  0  0
  -18.0332  -26.0173   22.9063 H   0  0  0  0  0  0
  -19.7951  -30.7346   24.2205 H   0  0  0  0  0  0
  -17.5036  -31.6295   24.5187 H   0  0  0  0  0  0
  -15.5373  -30.3005   23.7722 H   0  0  0  0  0  0
  -15.8697  -28.0889   22.7034 H   0  0  0  0  0  0
  -24.5875  -30.7159   25.7646 H   0  0  0  0  0  0
  -24.8882  -32.2965   26.4690 H   0  0  0  0  0  0
  -25.7924  -30.8993   27.0168 H   0  0  0  0  0  0
  -26.2991  -29.6655   24.1297 H   0  0  0  0  0  0
  -27.3973  -29.7278   25.4893 H   0  0  0  0  0  0
  -27.8920  -30.4127   23.9601 H   0  0  0  0  0  0
  -27.2606  -33.3683   26.1957 H   0  0  0  0  0  0
  -28.3886  -32.6902   25.0314 H   0  0  0  0  0  0
  -28.0676  -31.8544   26.5450 H   0  0  0  0  0  0
  -28.2558  -38.0090   24.7484 H   0  0  0  0  0  0
  -28.1089  -36.2599   24.6302 H   0  0  0  0  0  0
  -27.2266  -37.1417   25.8857 H   0  0  0  0  0  0
  -20.9501  -29.8814   21.6748 H   0  0  0  0  0  0
  -26.0107  -38.2763   24.1456 H   0  0  0  0  0  0
  -28.5269  -22.3718   22.8425 H   0  0  0  0  0  0
  -27.1175  -18.5680   24.3644 H   0  0  0  0  0  0
  -28.1322  -18.5766   25.9025 H   0  0  0  0  0  0
  -27.8082  -21.0244   26.1317 H   0  0  0  0  0  0
  -26.7804  -21.0374   24.5955 H   0  0  0  0  0  0
  -29.7741  -20.1494   24.8258 H   0  0  0  0  0  0
  -28.6959  -22.9990   19.1134 H   0  0  0  0  0  0
  -29.9790  -23.4586   20.1551 H   0  0  0  0  0  0
  -31.1032  -17.8759   20.2009 H   0  0  0  0  0  0
  -29.7207  -17.7764   19.1783 H   0  0  0  0  0  0
  -28.1898  -24.6055   21.7232 H   0  0  0  0  0  0
  -27.0167  -24.3589   20.4961 H   0  0  0  0  0  0
  -28.8471  -16.0824   21.0352 H   0  0  0  0  0  0
  1 25  1  0  0  0
  1 30  2  0  0  0
  1 83  1  0  0  0
  2  3  1  0  0  0
  2 25  1  0  0  0
  2 84  1  0  0  0
  2 85  1  0  0  0
  3  4  1  0  0  0
  3 86  1  0  0  0
  3 87  1  0  0  0
  4  5  1  0  0  0
  4 88  1  0  0  0
  4 89  1  0  0  0
  5  6  1  0  0  0
  5 26  1  0  0  0
  5 90  1  0  0  0
  6 25  1  0  0  0
  6 91  1  0  0  0
  6 92  1  0  0  0
  7  8  2  0  0  0
  7 26  1  0  0  0
  7 29  1  0  0  0
  8  9  1  0  0  0
  8 22  1  0  0  0
  9 10  1  0  0  0
  9 27  2  0  0  0
 10 11  2  0  0  0
 10 15  1  0  0  0
 11 12  1  0  0  0
 11 93  1  0  0  0
 12 13  2  0  0  0
 12 94  1  0  0  0
 13 14  1  0  0  0
 13 31  1  0  0  0
 14 15  2  0  0  0
 14 95  1  0  0  0
 15 96  1  0  0  0
 16 17  2  0  0  0
 16 21  1  0  0  0
 16 31  1  0  0  0
 17 18  1  0  0  0
 17 97  1  0  0  0
 18 19  2  0  0  0
 18 98  1  0  0  0
 19 20  1  0  0  0
 19 24  1  0  0  0
 20 21  2  0  0  0
 20 99  1  0  0  0
 21 23  1  0  0  0
 22 28  1  0  0  0
 22 32  2  0  0  0
 26 27  1  0  0  0
 28100  1  0  0  0
 28101  1  0  0  0
 29102  1  0  0  0
 29103  1  0  0  0
 33 34  1  0  0  0
 33 66  1  0  0  0
 33 70  2  0  0  0
 34 36  1  0  0  0
 34 59  1  0  0  0
 34104  1  0  0  0
 35 44  2  0  0  0
 35 45  1  0  0  0
 35 68  1  0  0  0
 36 56  1  0  0  0
 36105  1  0  0  0
 37 39  1  0  0  0
 37 47  1  0  0  0
 37 66  1  0  0  0
 37106  1  0  0  0
 38 43  2  0  0  0
 38 46  1  0  0  0
 38 47  1  0  0  0
 39 64  1  0  0  0
 39 67  2  0  0  0
 40 52  1  0  0  0
 40 53  2  0  0  0
 40 58  1  0  0  0
 41107  1  0  0  0
 41108  1  0  0  0
 41109  1  0  0  0
 41 48  1  0  0  0
 42 43  1  0  0  0
 42 66  1  0  0  0
 42110  1  0  0  0
 42111  1  0  0  0
 43 44  1  0  0  0
 44112  1  0  0  0
 45 46  2  0  0  0
 45113  1  0  0  0
 46114  1  0  0  0
 47115  1  0  0  0
 47116  1  0  0  0
 48 56  1  0  0  0
 48 65  1  0  0  0
 48117  1  0  0  0
 49 50  1  0  0  0
 49 53  1  0  0  0
 49 64  1  0  0  0
 49118  1  0  0  0
 50 51  1  0  0  0
 50119  1  0  0  0
 50120  1  0  0  0
 51 52  1  0  0  0
 51121  1  0  0  0
 51122  1  0  0  0
 52123  1  0  0  0
 52124  1  0  0  0
 53 54  1  0  0  0
 54 55  2  0  0  0
 54125  1  0  0  0
 55 57  1  0  0  0
 55126  1  0  0  0
 56 69  2  0  0  0
 57 58  2  0  0  0
 57127  1  0  0  0
 58128  1  0  0  0
 59 60  1  0  0  0
 59 61  1  0  0  0
 59 62  1  0  0  0
 60129  1  0  0  0
 60130  1  0  0  0
 60131  1  0  0  0
 61132  1  0  0  0
 61133  1  0  0  0
 61134  1  0  0  0
 62135  1  0  0  0
 62136  1  0  0  0
 62137  1  0  0  0
 63 65  1  0  0  0
 63138  1  0  0  0
 63139  1  0  0  0
 63140  1  0  0  0
 64141  1  0  0  0
 65142  1  0  0  0
 68 80  1  0  0  0
 71 72  2  0  0  0
 71 73  1  0  0  0
 71143  1  0  0  0
 72 81  1  0  0  0
 72 77  1  0  0  0
 73 78  1  0  0  0
 73 82  2  0  0  0
 74 79  1  0  0  0
 74 81  2  0  0  0
 74 82  1  0  0  0
 75 76  1  0  0  0
 75 77  1  0  0  0
 75144  1  0  0  0
 75145  1  0  0  0
 76 77  1  0  0  0
 76146  1  0  0  0
 76147  1  0  0  0
 77148  1  0  0  0
 78 80  1  0  0  0
 78149  1  0  0  0
 78150  1  0  0  0
 79 83  1  0  0  0
 79151  1  0  0  0
 79152  1  0  0  0
 80153  1  0  0  0
 80154  1  0  0  0
 83155  1  0  0  0
M  ISO  4   1 100  68 101  80 101  83 100
M  END
> <chiral flag>
0

> <version>
0

> <s_m_source_file>
/data/baiqing/PycharmProjects/Reinvent-master-3.2/result/LINK_invent/BTK/process_docking_weight1_custom_sum_contain_oxygen_bond_distance_aromatic_linkinvent_7_9_3/rearranged_h_0037.sdf

> <i_m_source_file_index>
64

> <r_mmod_Potential_Energy-OPLS-2005>
70.1194610595703

> <r_mmod_Stretch_Energy-OPLS-2005>
314.874450683594

> <r_mmod_Bend_Energy-OPLS-2005>
290.933532714844

> <r_mmod_Torsional_Energy-OPLS-2005>
245.319351196289

> <r_mmod_Improper_Torsional_Energy-OPLS-2005>
6.28422212600708

> <r_mmod_Van_der_Waal_Energy-OPLS-2005>
127.064262390137

> <r_mmod_Electrostatic_Energy-OPLS-2005>
-906.16845703125

> <r_mmod_Solvation_Energy-OPLS-2005>
-244.674652099609

> <b_mmod_Minimization_Converged-OPLS-2005>
0

> <r_mmod_RMS_Derivative-OPLS-2005>
5.4423246383667

$$$$
64
                    3D
 Structure written by MMmdl.
161169  0  0  1  0            999 V2000
  -30.6862  -14.5335   20.5625 C   0  0  0  0  0  0
  -30.4477  -12.3414   19.4475 C   0  0  0  0  0  0
  -29.5170  -12.5045   18.2304 C   0  0  0  0  0  0
  -28.0391  -12.3551   18.6363 C   0  0  0  0  0  0
  -27.6684  -13.2113   19.8772 C   0  0  2  0  0  0
  -28.7090  -13.0222   21.0062 C   0  0  0  0  0  0
  -25.2614  -13.8170   20.5598 C   0  0  0  0  0  0
  -24.1838  -13.0469   20.9216 C   0  0  0  0  0  0
  -24.6421  -11.6956   20.8737 C   0  0  0  0  0  0
  -23.9061  -10.4341   21.0426 C   0  0  0  0  0  0
  -24.3640   -9.4271   21.9204 C   0  0  0  0  0  0
  -23.6348   -8.2289   22.0776 C   0  0  0  0  0  0
  -22.4330   -8.0286   21.3572 C   0  0  0  0  0  0
  -21.9938   -9.0240   20.4683 C   0  0  0  0  0  0
  -22.7236  -10.2140   20.3092 C   0  0  0  0  0  0
  -21.6859   -6.0755   22.5278 C   0  0  0  0  0  0
  -21.3990   -6.5670   23.8198 C   0  0  0  0  0  0
  -21.3651   -5.6816   24.9169 C   0  0  0  0  0  0
  -21.6097   -4.3087   24.7209 C   0  0  0  0  0  0
  -21.8795   -3.8169   23.4311 C   0  0  0  0  0  0
  -21.9195   -4.6994   22.3387 C   0  0  0  0  0  0
  -22.7877  -13.5323   21.1869 C   0  0  0  0  0  0
  -22.1658   -4.2212   21.0937 F   0  0  0  0  0  0
  -21.5667   -3.4558   25.7698 F   0  0  0  0  0  0
  -30.0377  -13.3388   20.4513 N   0  0  0  0  0  0
  -26.3047  -12.9323   20.3344 N   0  0  0  0  0  0
  -25.9338  -11.6494   20.5740 N   0  0  0  0  0  0
  -22.0452  -12.8293   22.0347 N   0  0  0  0  0  0
  -25.4358  -15.1869   20.3812 N   0  0  0  0  0  0
  -31.8288  -14.7110   20.1302 O   0  0  0  0  0  0
  -21.6672   -6.8895   21.4260 O   0  0  0  0  0  0
  -22.3599  -14.5630   20.6718 O   0  0  0  0  0  0
  -24.6202  -31.8641   23.2089 C   0  0  0  0  0  0
  -25.9085  -32.4790   23.8416 C   0  0  1  0  0  0
  -27.2278  -27.3912   20.1225 C   0  0  0  0  0  0
  -25.5898  -33.8592   24.2313 N   0  0  0  0  0  0
  -23.4095  -30.4898   21.5490 C   0  0  2  0  0  0
  -24.8558  -28.9503   20.1137 C   0  0  0  0  0  0
  -22.7433  -29.4638   22.4962 C   0  0  0  0  0  0
  -18.0282  -28.1372   22.8482 C   0  0  0  0  0  0
  -24.1488  -36.7321   23.2644 C   0  0  0  0  0  0
  -25.9442  -30.8189   21.3666 C   0  0  0  0  0  0
  -26.0190  -29.4527   20.7102 C   0  0  0  0  0  0
  -27.2106  -28.6833   20.7054 C   0  0  0  0  0  0
  -26.0485  -26.9196   19.5045 C   0  0  0  0  0  0
  -24.8681  -27.6858   19.5024 C   0  0  0  0  0  0
  -23.6198  -29.8208   20.1646 C   0  0  0  0  0  0
  -25.4110  -36.3091   24.0328 C   0  0  1  0  0  0
  -20.5865  -28.3659   23.1293 C   0  0  2  0  0  0
  -20.6752  -26.9389   22.5407 C   0  0  0  0  0  0
  -19.5738  -26.6374   21.5203 C   0  0  0  0  0  0
  -18.1920  -26.7917   22.1622 C   0  0  0  0  0  0
  -19.1532  -28.8836   23.2878 C   0  0  0  0  0  0
  -18.9463  -30.1438   23.8898 C   0  0  0  0  0  0
  -17.6469  -30.6574   24.0564 C   0  0  0  0  0  0
  -25.9052  -34.9458   23.5119 C   0  0  0  0  0  0
  -16.5353  -29.9080   23.6316 C   0  0  0  0  0  0
  -16.7272  -28.6484   23.0347 C   0  0  0  0  0  0
  -26.4505  -31.6605   25.0768 C   0  0  0  0  0  0
  -25.3754  -31.3761   26.1518 C   0  0  0  0  0  0
  -27.0335  -30.3026   24.6186 C   0  0  0  0  0  0
  -27.6041  -32.4352   25.7544 C   0  0  0  0  0  0
  -27.5570  -37.1822   24.8450 C   0  0  0  0  0  0
  -21.4154  -29.3038   22.3716 N   0  0  0  0  0  0
  -26.4278  -37.3787   23.9387 N   0  0  0  0  0  0
  -24.6767  -31.0722   22.0989 N   0  0  0  0  0  0
  -23.4186  -28.8180   23.3025 O   0  0  0  0  0  0
  -28.3669  -26.6005   20.1630 O   0  0  0  0  0  0
  -26.5631  -34.8914   22.4697 O   0  0  0  0  0  0
  -23.5381  -32.1394   23.7468 O   0  0  0  0  0  0
  -29.5443  -20.4967   20.0452 C   0  0  0  0  0  0
  -28.9717  -19.2878   20.5292 C   0  0  0  0  0  0
  -27.8874  -19.4180   21.4365 C   0  0  0  0  0  0
  -29.0215  -21.7590   20.4436 C   0  0  0  0  0  0
  -27.4558  -20.7157   21.8072 C   0  0  0  0  0  0
  -27.1643  -18.2050   22.0153 C   0  0  0  0  0  0
  -26.3710  -20.9212   22.8507 C   0  0  0  0  0  0
  -29.4576  -17.8989   20.0408 C   0  0  0  0  0  0
  -29.5454  -23.0885   19.8542 C   0  0  0  0  0  0
  -29.4500  -24.3805   20.7369 C   0  0  0  0  0  0
  -30.2415  -17.0221   21.0772 C   0  0  0  0  0  0
  -28.1546  -25.2323   20.6049 C   0  0  0  0  0  0
  -27.9827  -21.8489   21.2961 N   0  0  0  0  0  0
  -29.9381  -15.5642   21.0142 N   0  0  0  0  0  0
  -31.4899  -12.4595   19.1503 H   0  0  0  0  0  0
  -30.3731  -11.3388   19.8651 H   0  0  0  0  0  0
  -29.7755  -11.7747   17.4605 H   0  0  0  0  0  0
  -29.6761  -13.4888   17.7796 H   0  0  0  0  0  0
  -27.8573  -11.2987   18.8434 H   0  0  0  0  0  0
  -27.3943  -12.6128   17.7984 H   0  0  0  0  0  0
  -27.7083  -14.2552   19.5646 H   0  0  0  0  0  0
  -28.6927  -11.9927   21.3626 H   0  0  0  0  0  0
  -28.4673  -13.6363   21.8724 H   0  0  0  0  0  0
  -25.2797   -9.5821   22.4753 H   0  0  0  0  0  0
  -24.0100   -7.4747   22.7508 H   0  0  0  0  0  0
  -21.0877   -8.8751   19.9024 H   0  0  0  0  0  0
  -22.3669  -10.9679   19.6220 H   0  0  0  0  0  0
  -21.1898   -7.6165   23.9718 H   0  0  0  0  0  0
  -21.1541   -6.0535   25.9098 H   0  0  0  0  0  0
  -22.0584   -2.7631   23.2743 H   0  0  0  0  0  0
  -22.3998  -11.9923   22.4696 H   0  0  0  0  0  0
  -21.1120  -13.1443   22.2582 H   0  0  0  0  0  0
  -24.6551  -15.8317   20.4242 H   0  0  0  0  0  0
  -26.2515  -15.5778   19.9284 H   0  0  0  0  0  0
  -26.7159  -32.5494   23.1181 H   0  0  0  0  0  0
  -24.9993  -33.9753   25.0406 H   0  0  0  0  0  0
  -22.6998  -31.3074   21.4082 H   0  0  0  0  0  0
  -23.3728  -35.9684   23.3319 H   0  0  0  0  0  0
  -24.3585  -36.8937   22.2058 H   0  0  0  0  0  0
  -23.7278  -37.6542   23.6662 H   0  0  0  0  0  0
  -26.0660  -31.5851   20.5990 H   0  0  0  0  0  0
  -26.8269  -30.8689   21.9912 H   0  0  0  0  0  0
  -28.1061  -29.0645   21.1754 H   0  0  0  0  0  0
  -26.0204  -25.9537   19.0187 H   0  0  0  0  0  0
  -23.9738  -27.2932   19.0376 H   0  0  0  0  0  0
  -23.7327  -30.5924   19.4035 H   0  0  0  0  0  0
  -22.7424  -29.2427   19.8663 H   0  0  0  0  0  0
  -25.1302  -36.1959   25.0828 H   0  0  0  0  0  0
  -20.9964  -28.3232   24.1407 H   0  0  0  0  0  0
  -20.5620  -26.2288   23.3611 H   0  0  0  0  0  0
  -21.6633  -26.7405   22.1237 H   0  0  0  0  0  0
  -19.6900  -25.6285   21.1226 H   0  0  0  0  0  0
  -19.6670  -27.3180   20.6729 H   0  0  0  0  0  0
  -17.4187  -26.6641   21.4023 H   0  0  0  0  0  0
  -18.0331  -26.0052   22.9019 H   0  0  0  0  0  0
  -19.7942  -30.7237   24.2260 H   0  0  0  0  0  0
  -17.5032  -31.6257   24.5173 H   0  0  0  0  0  0
  -15.5350  -30.3003   23.7637 H   0  0  0  0  0  0
  -15.8657  -28.0817   22.7076 H   0  0  0  0  0  0
  -24.5867  -30.7168   25.7888 H   0  0  0  0  0  0
  -24.9028  -32.2950   26.4988 H   0  0  0  0  0  0
  -25.8097  -30.8914   27.0258 H   0  0  0  0  0  0
  -26.2908  -29.6789   24.1192 H   0  0  0  0  0  0
  -27.4040  -29.7275   25.4678 H   0  0  0  0  0  0
  -27.8770  -30.4342   23.9396 H   0  0  0  0  0  0
  -27.2599  -33.3610   26.2172 H   0  0  0  0  0  0
  -28.3829  -32.6996   25.0374 H   0  0  0  0  0  0
  -28.0733  -31.8459   26.5428 H   0  0  0  0  0  0
  -28.2601  -38.0113   24.7484 H   0  0  0  0  0  0
  -28.1053  -36.2633   24.6283 H   0  0  0  0  0  0
  -27.2281  -37.1494   25.8857 H   0  0  0  0  0  0
  -20.9325  -29.8776   21.6939 H   0  0  0  0  0  0
  -26.0160  -38.2861   24.1397 H   0  0  0  0  0  0
  -30.3602  -20.4693   19.3347 H   0  0  0  0  0  0
  -27.3123  -17.2915   21.4415 H   0  0  0  0  0  0
  -26.0858  -18.3731   22.0442 H   0  0  0  0  0  0
  -27.5079  -18.0142   23.0320 H   0  0  0  0  0  0
  -26.6309  -20.3671   23.7550 H   0  0  0  0  0  0
  -25.4046  -20.5592   22.4950 H   0  0  0  0  0  0
  -26.2653  -21.9695   23.1304 H   0  0  0  0  0  0
  -30.0847  -18.0473   19.1637 H   0  0  0  0  0  0
  -28.5834  -17.3613   19.6745 H   0  0  0  0  0  0
  -29.0986  -23.2596   18.8741 H   0  0  0  0  0  0
  -30.6028  -22.9201   19.6509 H   0  0  0  0  0  0
  -30.2856  -25.0282   20.4726 H   0  0  0  0  0  0
  -29.6265  -24.1102   21.7777 H   0  0  0  0  0  0
  -29.9909  -17.3663   22.0781 H   0  0  0  0  0  0
  -31.3121  -17.2053   20.9715 H   0  0  0  0  0  0
  -27.6802  -25.2761   21.5884 H   0  0  0  0  0  0
  -27.4542  -24.6951   19.9667 H   0  0  0  0  0  0
  -29.0199  -15.2995   21.3384 H   0  0  0  0  0  0
  1 25  1  0  0  0
  1 30  2  0  0  0
  1 84  1  0  0  0
  2  3  1  0  0  0
  2 25  1  0  0  0
  2 85  1  0  0  0
  2 86  1  0  0  0
  3  4  1  0  0  0
  3 87  1  0  0  0
  3 88  1  0  0  0
  4  5  1  0  0  0
  4 89  1  0  0  0
  4 90  1  0  0  0
  5  6  1  0  0  0
  5 26  1  0  0  0
  5 91  1  0  0  0
  6 25  1  0  0  0
  6 92  1  0  0  0
  6 93  1  0  0  0
  7  8  2  0  0  0
  7 26  1  0  0  0
  7 29  1  0  0  0
  8  9  1  0  0  0
  8 22  1  0  0  0
  9 10  1  0  0  0
  9 27  2  0  0  0
 10 11  2  0  0  0
 10 15  1  0  0  0
 11 12  1  0  0  0
 11 94  1  0  0  0
 12 13  2  0  0  0
 12 95  1  0  0  0
 13 14  1  0  0  0
 13 31  1  0  0  0
 14 15  2  0  0  0
 14 96  1  0  0  0
 15 97  1  0  0  0
 16 17  2  0  0  0
 16 21  1  0  0  0
 16 31  1  0  0  0
 17 18  1  0  0  0
 17 98  1  0  0  0
 18 19  2  0  0  0
 18 99  1  0  0  0
 19 20  1  0  0  0
 19 24  1  0  0  0
 20 21  2  0  0  0
 20100  1  0  0  0
 21 23  1  0  0  0
 22 28  1  0  0  0
 22 32  2  0  0  0
 26 27  1  0  0  0
 28101  1  0  0  0
 28102  1  0  0  0
 29103  1  0  0  0
 29104  1  0  0  0
 33 34  1  0  0  0
 33 66  1  0  0  0
 33 70  2  0  0  0
 34 36  1  0  0  0
 34 59  1  0  0  0
 34105  1  0  0  0
 35 44  2  0  0  0
 35 45  1  0  0  0
 35 68  1  0  0  0
 36 56  1  0  0  0
 36106  1  0  0  0
 37 39  1  0  0  0
 37 47  1  0  0  0
 37 66  1  0  0  0
 37107  1  0  0  0
 38 43  2  0  0  0
 38 46  1  0  0  0
 38 47  1  0  0  0
 39 64  1  0  0  0
 39 67  2  0  0  0
 40 52  1  0  0  0
 40 53  2  0  0  0
 40 58  1  0  0  0
 41108  1  0  0  0
 41109  1  0  0  0
 41110  1  0  0  0
 41 48  1  0  0  0
 42 43  1  0  0  0
 42 66  1  0  0  0
 42111  1  0  0  0
 42112  1  0  0  0
 43 44  1  0  0  0
 44113  1  0  0  0
 45 46  2  0  0  0
 45114  1  0  0  0
 46115  1  0  0  0
 47116  1  0  0  0
 47117  1  0  0  0
 48 56  1  0  0  0
 48 65  1  0  0  0
 48118  1  0  0  0
 49 50  1  0  0  0
 49 53  1  0  0  0
 49 64  1  0  0  0
 49119  1  0  0  0
 50 51  1  0  0  0
 50120  1  0  0  0
 50121  1  0  0  0
 51 52  1  0  0  0
 51122  1  0  0  0
 51123  1  0  0  0
 52124  1  0  0  0
 52125  1  0  0  0
 53 54  1  0  0  0
 54 55  2  0  0  0
 54126  1  0  0  0
 55 57  1  0  0  0
 55127  1  0  0  0
 56 69  2  0  0  0
 57 58  2  0  0  0
 57128  1  0  0  0
 58129  1  0  0  0
 59 60  1  0  0  0
 59 61  1  0  0  0
 59 62  1  0  0  0
 60130  1  0  0  0
 60131  1  0  0  0
 60132  1  0  0  0
 61133  1  0  0  0
 61134  1  0  0  0
 61135  1  0  0  0
 62136  1  0  0  0
 62137  1  0  0  0
 62138  1  0  0  0
 63 65  1  0  0  0
 63139  1  0  0  0
 63140  1  0  0  0
 63141  1  0  0  0
 64142  1  0  0  0
 65143  1  0  0  0
 68 82  1  0  0  0
 71 72  2  0  0  0
 71 74  1  0  0  0
 71144  1  0  0  0
 72 73  1  0  0  0
 72 78  1  0  0  0
 73 75  2  0  0  0
 73 76  1  0  0  0
 74 79  1  0  0  0
 74 83  2  0  0  0
 75 77  1  0  0  0
 75 83  1  0  0  0
 76145  1  0  0  0
 76146  1  0  0  0
 76147  1  0  0  0
 77148  1  0  0  0
 77149  1  0  0  0
 77150  1  0  0  0
 78 81  1  0  0  0
 78151  1  0  0  0
 78152  1  0  0  0
 79 80  1  0  0  0
 79153  1  0  0  0
 79154  1  0  0  0
 80 82  1  0  0  0
 80155  1  0  0  0
 80156  1  0  0  0
 81 84  1  0  0  0
 81157  1  0  0  0
 81158  1  0  0  0
 82159  1  0  0  0
 82160  1  0  0  0
 84161  1  0  0  0
M  ISO  4   1 100  68 101  82 101  84 100
M  END
> <chiral flag>
0

> <version>
0

> <s_m_source_file>
/data/baiqing/PycharmProjects/Reinvent-master-3.2/result/LINK_invent/BTK/process_docking_weight1_custom_sum_contain_oxygen_bond_distance_aromatic_linkinvent_7_9_3/rearranged_h_0037.sdf

> <i_m_source_file_index>
65

> <r_mmod_Potential_Energy-OPLS-2005>
-203.65412902832

> <r_mmod_Stretch_Energy-OPLS-2005>
49.9352149963379

> <r_mmod_Bend_Energy-OPLS-2005>
105.598014831543

> <r_mmod_Torsional_Energy-OPLS-2005>
240.73454284668

> <r_mmod_Improper_Torsional_Energy-OPLS-2005>
4.91741943359375

> <r_mmod_Van_der_Waal_Energy-OPLS-2005>
150.155334472656

> <r_mmod_Electrostatic_Energy-OPLS-2005>
-556.924194335938

> <r_mmod_Solvation_Energy-OPLS-2005>
-221.238082885742

> <b_mmod_Minimization_Converged-OPLS-2005>
0

> <r_mmod_RMS_Derivative-OPLS-2005>
6.88144302368164

$$$$
65
                    3D
 Structure written by MMmdl.
156164  0  0  1  0            999 V2000
  -30.7061  -14.4795   20.5883 C   0  0  0  0  0  0
  -30.4240  -12.3242   19.4103 C   0  0  0  0  0  0
  -29.4904  -12.5123   18.1980 C   0  0  0  0  0  0
  -28.0129  -12.3734   18.6158 C   0  0  0  0  0  0
  -27.6597  -13.2101   19.8753 C   0  0  2  0  0  0
  -28.7054  -12.9904   20.9910 C   0  0  0  0  0  0
  -25.2579  -13.8169   20.5716 C   0  0  0  0  0  0
  -24.1822  -13.0438   20.9209 C   0  0  0  0  0  0
  -24.6382  -11.6908   20.8746 C   0  0  0  0  0  0
  -23.9056  -10.4290   21.0393 C   0  0  0  0  0  0
  -24.3601   -9.4205   21.9173 C   0  0  0  0  0  0
  -23.6280   -8.2239   22.0743 C   0  0  0  0  0  0
  -22.4263   -8.0278   21.3535 C   0  0  0  0  0  0
  -21.9901   -9.0254   20.4637 C   0  0  0  0  0  0
  -22.7230  -10.2136   20.3039 C   0  0  0  0  0  0
  -21.6852   -6.0719   22.5273 C   0  0  0  0  0  0
  -21.4018   -6.5619   23.8209 C   0  0  0  0  0  0
  -21.3665   -5.6773   24.9171 C   0  0  0  0  0  0
  -21.6044   -4.3036   24.7218 C   0  0  0  0  0  0
  -21.8820   -3.8126   23.4340 C   0  0  0  0  0  0
  -21.9191   -4.6943   22.3397 C   0  0  0  0  0  0
  -22.7843  -13.5251   21.1860 C   0  0  0  0  0  0
  -22.1662   -4.2127   21.0973 F   0  0  0  0  0  0
  -21.5631   -3.4527   25.7735 F   0  0  0  0  0  0
  -30.0313  -13.3072   20.4335 N   0  0  0  0  0  0
  -26.3018  -12.9344   20.3394 N   0  0  0  0  0  0
  -25.9312  -11.6505   20.5774 N   0  0  0  0  0  0
  -22.0452  -12.8269   22.0414 N   0  0  0  0  0  0
  -25.4313  -15.1888   20.4123 N   0  0  0  0  0  0
  -31.8292  -14.6716   20.1158 O   0  0  0  0  0  0
  -21.6634   -6.8871   21.4237 O   0  0  0  0  0  0
  -22.3552  -14.5553   20.6691 O   0  0  0  0  0  0
  -24.6169  -31.8670   23.2103 C   0  0  0  0  0  0
  -25.9064  -32.4817   23.8392 C   0  0  1  0  0  0
  -27.2263  -27.4123   20.0893 C   0  0  0  0  0  0
  -25.5918  -33.8618   24.2319 N   0  0  0  0  0  0
  -23.4058  -30.4925   21.5518 C   0  0  2  0  0  0
  -24.8502  -28.9653   20.1099 C   0  0  0  0  0  0
  -22.7431  -29.4651   22.4982 C   0  0  0  0  0  0
  -18.0270  -28.1386   22.8494 C   0  0  0  0  0  0
  -24.1489  -36.7308   23.2635 C   0  0  0  0  0  0
  -25.9383  -30.8266   21.3686 C   0  0  0  0  0  0
  -26.0142  -29.4619   20.7091 C   0  0  0  0  0  0
  -27.2048  -28.6931   20.6965 C   0  0  0  0  0  0
  -26.0448  -26.9562   19.4562 C   0  0  0  0  0  0
  -24.8617  -27.7132   19.4788 C   0  0  0  0  0  0
  -23.6147  -29.8325   20.1638 C   0  0  0  0  0  0
  -25.4110  -36.3102   24.0330 C   0  0  1  0  0  0
  -20.5866  -28.3671   23.1319 C   0  0  2  0  0  0
  -20.6760  -26.9406   22.5418 C   0  0  0  0  0  0
  -19.5737  -26.6392   21.5212 C   0  0  0  0  0  0
  -18.1917  -26.7934   22.1625 C   0  0  0  0  0  0
  -19.1521  -28.8847   23.2901 C   0  0  0  0  0  0
  -18.9444  -30.1456   23.8907 C   0  0  0  0  0  0
  -17.6446  -30.6593   24.0566 C   0  0  0  0  0  0
  -25.9040  -34.9470   23.5117 C   0  0  0  0  0  0
  -16.5337  -29.9092   23.6333 C   0  0  0  0  0  0
  -16.7258  -28.6511   23.0346 C   0  0  0  0  0  0
  -26.4484  -31.6601   25.0732 C   0  0  0  0  0  0
  -25.3748  -31.3707   26.1482 C   0  0  0  0  0  0
  -27.0319  -30.3041   24.6122 C   0  0  0  0  0  0
  -27.6059  -32.4322   25.7495 C   0  0  0  0  0  0
  -27.5575  -37.1812   24.8468 C   0  0  0  0  0  0
  -21.4153  -29.3039   22.3726 N   0  0  0  0  0  0
  -26.4292  -37.3793   23.9407 N   0  0  0  0  0  0
  -24.6718  -31.0764   22.1012 N   0  0  0  0  0  0
  -23.4193  -28.8176   23.3020 O   0  0  0  0  0  0
  -28.3742  -26.6315   20.1348 O   0  0  0  0  0  0
  -26.5588  -34.8923   22.4674 O   0  0  0  0  0  0
  -23.5357  -32.1424   23.7493 O   0  0  0  0  0  0
  -27.4788  -22.8451   21.9853 C   0  0  0  0  0  0
  -27.0571  -21.6123   22.5070 C   0  0  0  0  0  0
  -29.5364  -21.8012   21.2142 C   0  0  0  0  0  0
  -28.7257  -22.9661   21.3333 C   0  0  0  0  0  0
  -29.1323  -20.5465   21.7626 C   0  0  0  0  0  0
  -27.8796  -20.4751   22.4257 C   0  0  0  0  0  0
  -29.2082  -24.3643   20.8862 C   0  0  0  0  0  0
  -30.1060  -19.3487   21.7934 C   0  0  0  0  0  0
  -29.6725  -18.0076   21.1165 C   0  0  0  0  0  0
  -30.5434  -16.8014   21.5843 C   0  0  0  0  0  0
  -28.1881  -25.1955   20.0547 C   0  0  0  0  0  0
  -30.0289  -15.4676   21.2090 N   0  0  0  0  0  0
  -27.3450  -19.0439   23.2363 Cl  0  0  0  0  0  0
  -31.4662  -12.4299   19.1037 H   0  0  0  0  0  0
  -30.3327  -11.3117   19.8079 H   0  0  0  0  0  0
  -29.7253  -11.7780   17.4262 H   0  0  0  0  0  0
  -29.6595  -13.4936   17.7528 H   0  0  0  0  0  0
  -27.8263  -11.3169   18.8125 H   0  0  0  0  0  0
  -27.3591  -12.6438   17.7852 H   0  0  0  0  0  0
  -27.7042  -14.2603   19.5848 H   0  0  0  0  0  0
  -28.6914  -11.9504   21.3191 H   0  0  0  0  0  0
  -28.4644  -13.5779   21.8789 H   0  0  0  0  0  0
  -25.2727   -9.5683   22.4777 H   0  0  0  0  0  0
  -23.9972   -7.4627   22.7466 H   0  0  0  0  0  0
  -21.0828   -8.8765   19.8959 H   0  0  0  0  0  0
  -22.3658  -10.9675   19.6156 H   0  0  0  0  0  0
  -21.2017   -7.6123   23.9716 H   0  0  0  0  0  0
  -21.1499   -6.0493   25.9081 H   0  0  0  0  0  0
  -22.0602   -2.7590   23.2838 H   0  0  0  0  0  0
  -22.4023  -11.9931   22.4836 H   0  0  0  0  0  0
  -21.1063  -13.1309   22.2570 H   0  0  0  0  0  0
  -24.6721  -15.8484   20.5404 H   0  0  0  0  0  0
  -26.2874  -15.6302   20.1022 H   0  0  0  0  0  0
  -26.7141  -32.5526   23.1154 H   0  0  0  0  0  0
  -25.0104  -33.9788   25.0485 H   0  0  0  0  0  0
  -22.6958  -31.3108   21.4151 H   0  0  0  0  0  0
  -23.3745  -35.9651   23.3310 H   0  0  0  0  0  0
  -24.3575  -36.8909   22.2046 H   0  0  0  0  0  0
  -23.7252  -37.6519   23.6645 H   0  0  0  0  0  0
  -26.0552  -31.5979   20.6060 H   0  0  0  0  0  0
  -26.8245  -30.8754   21.9894 H   0  0  0  0  0  0
  -28.0990  -29.0698   21.1735 H   0  0  0  0  0  0
  -26.0143  -26.0102   18.9365 H   0  0  0  0  0  0
  -23.9697  -27.3340   18.9996 H   0  0  0  0  0  0
  -23.7272  -30.6103   19.4084 H   0  0  0  0  0  0
  -22.7406  -29.2539   19.8616 H   0  0  0  0  0  0
  -25.1290  -36.1952   25.0821 H   0  0  0  0  0  0
  -20.9942  -28.3218   24.1445 H   0  0  0  0  0  0
  -20.5663  -26.2267   23.3596 H   0  0  0  0  0  0
  -21.6629  -26.7455   22.1206 H   0  0  0  0  0  0
  -19.6892  -25.6301   21.1236 H   0  0  0  0  0  0
  -19.6676  -27.3209   20.6746 H   0  0  0  0  0  0
  -17.4187  -26.6685   21.4026 H   0  0  0  0  0  0
  -18.0323  -26.0073   22.9020 H   0  0  0  0  0  0
  -19.7918  -30.7275   24.2272 H   0  0  0  0  0  0
  -17.5001  -31.6273   24.5162 H   0  0  0  0  0  0
  -15.5336  -30.2991   23.7663 H   0  0  0  0  0  0
  -15.8658  -28.0836   22.7047 H   0  0  0  0  0  0
  -24.5931  -30.7042   25.7808 H   0  0  0  0  0  0
  -24.8943  -32.2875   26.4922 H   0  0  0  0  0  0
  -25.8119  -30.8878   27.0237 H   0  0  0  0  0  0
  -26.2867  -29.6797   24.1185 H   0  0  0  0  0  0
  -27.4086  -29.7283   25.4584 H   0  0  0  0  0  0
  -27.8706  -30.4344   23.9279 H   0  0  0  0  0  0
  -27.2675  -33.3618   26.2089 H   0  0  0  0  0  0
  -28.3870  -32.6887   25.0321 H   0  0  0  0  0  0
  -28.0735  -31.8439   26.5402 H   0  0  0  0  0  0
  -28.2605  -38.0093   24.7503 H   0  0  0  0  0  0
  -28.1056  -36.2629   24.6313 H   0  0  0  0  0  0
  -27.2299  -37.1487   25.8872 H   0  0  0  0  0  0
  -20.9304  -29.8775   21.6962 H   0  0  0  0  0  0
  -26.0169  -38.2867   24.1412 H   0  0  0  0  0  0
  -26.8439  -23.7059   22.1359 H   0  0  0  0  0  0
  -26.1108  -21.5523   23.0257 H   0  0  0  0  0  0
  -30.5126  -21.8900   20.7570 H   0  0  0  0  0  0
  -30.1476  -24.2855   20.3383 H   0  0  0  0  0  0
  -29.4415  -24.9172   21.7961 H   0  0  0  0  0  0
  -30.2999  -19.1578   22.8507 H   0  0  0  0  0  0
  -31.0678  -19.6535   21.3794 H   0  0  0  0  0  0
  -29.7168  -18.1140   20.0313 H   0  0  0  0  0  0
  -28.6331  -17.7823   21.3437 H   0  0  0  0  0  0
  -31.5699  -16.9379   21.2391 H   0  0  0  0  0  0
  -30.5931  -16.8080   22.6738 H   0  0  0  0  0  0
  -27.1980  -24.9459   20.4286 H   0  0  0  0  0  0
  -28.2071  -24.8798   19.0112 H   0  0  0  0  0  0
  -29.1031  -15.2279   21.5300 H   0  0  0  0  0  0
  1 25  1  0  0  0
  1 30  2  0  0  0
  1 82  1  0  0  0
  2  3  1  0  0  0
  2 25  1  0  0  0
  2 84  1  0  0  0
  2 85  1  0  0  0
  3  4  1  0  0  0
  3 86  1  0  0  0
  3 87  1  0  0  0
  4  5  1  0  0  0
  4 88  1  0  0  0
  4 89  1  0  0  0
  5  6  1  0  0  0
  5 26  1  0  0  0
  5 90  1  0  0  0
  6 25  1  0  0  0
  6 91  1  0  0  0
  6 92  1  0  0  0
  7  8  2  0  0  0
  7 26  1  0  0  0
  7 29  1  0  0  0
  8  9  1  0  0  0
  8 22  1  0  0  0
  9 10  1  0  0  0
  9 27  2  0  0  0
 10 11  2  0  0  0
 10 15  1  0  0  0
 11 12  1  0  0  0
 11 93  1  0  0  0
 12 13  2  0  0  0
 12 94  1  0  0  0
 13 14  1  0  0  0
 13 31  1  0  0  0
 14 15  2  0  0  0
 14 95  1  0  0  0
 15 96  1  0  0  0
 16 17  2  0  0  0
 16 21  1  0  0  0
 16 31  1  0  0  0
 17 18  1  0  0  0
 17 97  1  0  0  0
 18 19  2  0  0  0
 18 98  1  0  0  0
 19 20  1  0  0  0
 19 24  1  0  0  0
 20 21  2  0  0  0
 20 99  1  0  0  0
 21 23  1  0  0  0
 22 28  1  0  0  0
 22 32  2  0  0  0
 26 27  1  0  0  0
 28100  1  0  0  0
 28101  1  0  0  0
 29102  1  0  0  0
 29103  1  0  0  0
 33 34  1  0  0  0
 33 66  1  0  0  0
 33 70  2  0  0  0
 34 36  1  0  0  0
 34 59  1  0  0  0
 34104  1  0  0  0
 35 44  2  0  0  0
 35 45  1  0  0  0
 35 68  1  0  0  0
 36 56  1  0  0  0
 36105  1  0  0  0
 37 39  1  0  0  0
 37 47  1  0  0  0
 37 66  1  0  0  0
 37106  1  0  0  0
 38 43  2  0  0  0
 38 46  1  0  0  0
 38 47  1  0  0  0
 39 64  1  0  0  0
 39 67  2  0  0  0
 40 52  1  0  0  0
 40 53  2  0  0  0
 40 58  1  0  0  0
 41107  1  0  0  0
 41108  1  0  0  0
 41109  1  0  0  0
 41 48  1  0  0  0
 42 43  1  0  0  0
 42 66  1  0  0  0
 42110  1  0  0  0
 42111  1  0  0  0
 43 44  1  0  0  0
 44112  1  0  0  0
 45 46  2  0  0  0
 45113  1  0  0  0
 46114  1  0  0  0
 47115  1  0  0  0
 47116  1  0  0  0
 48 56  1  0  0  0
 48 65  1  0  0  0
 48117  1  0  0  0
 49 50  1  0  0  0
 49 53  1  0  0  0
 49 64  1  0  0  0
 49118  1  0  0  0
 50 51  1  0  0  0
 50119  1  0  0  0
 50120  1  0  0  0
 51 52  1  0  0  0
 51121  1  0  0  0
 51122  1  0  0  0
 52123  1  0  0  0
 52124  1  0  0  0
 53 54  1  0  0  0
 54 55  2  0  0  0
 54125  1  0  0  0
 55 57  1  0  0  0
 55126  1  0  0  0
 56 69  2  0  0  0
 57 58  2  0  0  0
 57127  1  0  0  0
 58128  1  0  0  0
 59 60  1  0  0  0
 59 61  1  0  0  0
 59 62  1  0  0  0
 60129  1  0  0  0
 60130  1  0  0  0
 60131  1  0  0  0
 61132  1  0  0  0
 61133  1  0  0  0
 61134  1  0  0  0
 62135  1  0  0  0
 62136  1  0  0  0
 62137  1  0  0  0
 63 65  1  0  0  0
 63138  1  0  0  0
 63139  1  0  0  0
 63140  1  0  0  0
 64141  1  0  0  0
 65142  1  0  0  0
 68 81  1  0  0  0
 71 72  2  0  0  0
 71 74  1  0  0  0
 71143  1  0  0  0
 72 76  1  0  0  0
 72144  1  0  0  0
 73 74  2  0  0  0
 73 75  1  0  0  0
 73145  1  0  0  0
 74 77  1  0  0  0
 75 76  2  0  0  0
 75 78  1  0  0  0
 76 83  1  0  0  0
 77 81  1  0  0  0
 77146  1  0  0  0
 77147  1  0  0  0
 78 79  1  0  0  0
 78148  1  0  0  0
 78149  1  0  0  0
 79 80  1  0  0  0
 79150  1  0  0  0
 79151  1  0  0  0
 80 82  1  0  0  0
 80152  1  0  0  0
 80153  1  0  0  0
 81154  1  0  0  0
 81155  1  0  0  0
 82156  1  0  0  0
M  ISO  4   1 100  68 101  81 101  82 100
M  END
> <chiral flag>
0

> <version>
0

> <s_m_source_file>
/data/baiqing/PycharmProjects/Reinvent-master-3.2/result/LINK_invent/BTK/process_docking_weight1_custom_sum_contain_oxygen_bond_distance_aromatic_linkinvent_7_9_3/rearranged_h_0037.sdf

> <i_m_source_file_index>
66

> <r_mmod_Potential_Energy-OPLS-2005>
-33.7062377929688

> <r_mmod_Stretch_Energy-OPLS-2005>
45.1140975952148

> <r_mmod_Bend_Energy-OPLS-2005>
99.6541519165039

> <r_mmod_Torsional_Energy-OPLS-2005>
203.752380371094

> <r_mmod_Improper_Torsional_Energy-OPLS-2005>
3.55664825439453

> <r_mmod_Van_der_Waal_Energy-OPLS-2005>
159.208908081055

> <r_mmod_Electrostatic_Energy-OPLS-2005>
-360.614440917969

> <r_mmod_Solvation_Energy-OPLS-2005>
-200.56169128418

> <b_mmod_Minimization_Converged-OPLS-2005>
0

> <r_mmod_RMS_Derivative-OPLS-2005>
1.89351451396942

$$$$
66
                    3D
 Structure written by MMmdl.
171179  0  0  1  0            999 V2000
  -30.6738  -14.5241   20.5059 C   0  0  0  0  0  0
  -30.4335  -12.3121   19.4316 C   0  0  0  0  0  0
  -29.5073  -12.4798   18.2086 C   0  0  0  0  0  0
  -28.0274  -12.3470   18.6224 C   0  0  0  0  0  0
  -27.6666  -13.2085   19.8634 C   0  0  2  0  0  0
  -28.7113  -13.0171   20.9874 C   0  0  0  0  0  0
  -25.2674  -13.8215   20.5703 C   0  0  0  0  0  0
  -24.1918  -13.0474   20.9244 C   0  0  0  0  0  0
  -24.6469  -11.6956   20.8760 C   0  0  0  0  0  0
  -23.9147  -10.4313   21.0443 C   0  0  0  0  0  0
  -24.3687   -9.4212   21.9221 C   0  0  0  0  0  0
  -23.6349   -8.2247   22.0783 C   0  0  0  0  0  0
  -22.4320   -8.0305   21.3568 C   0  0  0  0  0  0
  -21.9980   -9.0289   20.4660 C   0  0  0  0  0  0
  -22.7327  -10.2161   20.3082 C   0  0  0  0  0  0
  -21.6847   -6.0780   22.5334 C   0  0  0  0  0  0
  -21.3984   -6.5674   23.8255 C   0  0  0  0  0  0
  -21.3654   -5.6829   24.9221 C   0  0  0  0  0  0
  -21.6056   -4.3099   24.7262 C   0  0  0  0  0  0
  -21.8814   -3.8196   23.4385 C   0  0  0  0  0  0
  -21.9176   -4.7017   22.3449 C   0  0  0  0  0  0
  -22.7922  -13.5254   21.1869 C   0  0  0  0  0  0
  -22.1647   -4.2220   21.1023 F   0  0  0  0  0  0
  -21.5632   -3.4571   25.7760 F   0  0  0  0  0  0
  -30.0405  -13.3201   20.4313 N   0  0  0  0  0  0
  -26.3089  -12.9372   20.3335 N   0  0  0  0  0  0
  -25.9390  -11.6543   20.5773 N   0  0  0  0  0  0
  -22.0481  -12.8230   22.0369 N   0  0  0  0  0  0
  -25.4403  -15.1919   20.4055 N   0  0  0  0  0  0
  -31.8139  -14.7095   20.0740 O   0  0  0  0  0  0
  -21.6633   -6.8943   21.4293 O   0  0  0  0  0  0
  -22.3590  -14.5519   20.6666 O   0  0  0  0  0  0
  -24.6262  -31.8600   23.2042 C   0  0  0  0  0  0
  -25.9133  -32.4748   23.8356 C   0  0  1  0  0  0
  -27.2153  -27.3533   20.0991 C   0  0  0  0  0  0
  -25.5943  -33.8544   24.2248 N   0  0  0  0  0  0
  -23.4173  -30.4901   21.5396 C   0  0  2  0  0  0
  -24.8640  -28.9581   20.1061 C   0  0  0  0  0  0
  -22.7495  -29.4622   22.4842 C   0  0  0  0  0  0
  -18.0331  -28.1325   22.8533 C   0  0  0  0  0  0
  -24.1486  -36.7294   23.2642 C   0  0  0  0  0  0
  -25.9590  -30.8010   21.3789 C   0  0  0  0  0  0
  -26.0299  -29.4347   20.7158 C   0  0  0  0  0  0
  -27.2075  -28.6375   20.7146 C   0  0  0  0  0  0
  -26.0310  -26.9301   19.4521 C   0  0  0  0  0  0
  -24.8620  -27.7078   19.4737 C   0  0  0  0  0  0
  -23.6308  -29.8301   20.1541 C   0  0  0  0  0  0
  -25.4107  -36.3034   24.0311 C   0  0  1  0  0  0
  -20.5935  -28.3639   23.1284 C   0  0  2  0  0  0
  -20.6779  -26.9338   22.5428 C   0  0  0  0  0  0
  -19.5699  -26.6346   21.5261 C   0  0  0  0  0  0
  -18.1902  -26.7867   22.1682 C   0  0  0  0  0  0
  -19.1587  -28.8798   23.2915 C   0  0  0  0  0  0
  -18.9479  -30.1428   23.8909 C   0  0  0  0  0  0
  -17.6462  -30.6538   24.0563 C   0  0  0  0  0  0
  -25.9060  -34.9406   23.5073 C   0  0  0  0  0  0
  -16.5368  -29.9023   23.6328 C   0  0  0  0  0  0
  -16.7316  -28.6432   23.0373 C   0  0  0  0  0  0
  -26.4514  -31.6589   25.0755 C   0  0  0  0  0  0
  -25.3724  -31.3772   26.1477 C   0  0  0  0  0  0
  -27.0390  -30.2982   24.6294 C   0  0  0  0  0  0
  -27.6036  -32.4398   25.7532 C   0  0  0  0  0  0
  -27.5568  -37.1782   24.8455 C   0  0  0  0  0  0
  -21.4200  -29.3024   22.3663 N   0  0  0  0  0  0
  -26.4274  -37.3736   23.9406 N   0  0  0  0  0  0
  -24.6852  -31.0661   22.0960 N   0  0  0  0  0  0
  -23.4253  -28.8131   23.2877 O   0  0  0  0  0  0
  -28.3444  -26.5321   20.1582 O   0  0  0  0  0  0
  -26.5639  -34.8873   22.4643 O   0  0  0  0  0  0
  -23.5440  -32.1394   23.7375 O   0  0  0  0  0  0
  -30.1414  -20.4316   21.2037 C   0  0  0  0  0  0
  -31.3275  -20.3198   22.0023 C   0  0  0  0  0  0
  -30.2712  -21.6961   20.6316 C   0  0  0  0  0  0
  -32.5633  -18.2527   22.9246 C   0  0  0  0  0  0
  -33.3234  -23.2082   17.5748 C   0  0  0  0  0  0
  -28.9779  -19.4391   21.0817 C   0  0  0  0  0  0
  -31.6420  -19.4499   23.2038 C   0  0  0  0  0  0
  -29.3044  -22.6539   19.9194 C   0  0  0  0  0  0
  -33.0549  -22.2342   18.7252 C   0  0  0  0  0  0
  -29.2131  -17.9262   21.4502 C   0  0  0  0  0  0
  -29.1919  -24.1191   20.5186 C   0  0  0  0  0  0
  -32.4252  -22.9228   19.9478 C   0  0  0  0  0  0
  -29.9871  -16.9831   20.4708 C   0  0  0  0  0  0
  -28.2173  -25.1158   19.7970 C   0  0  0  0  0  0
  -32.2479  -21.1868   21.6124 N   0  0  0  0  0  0
  -31.6278  -21.9776   20.7166 N   0  0  0  0  0  0
  -29.8761  -15.5564   20.8648 N   0  0  0  0  0  0
  -31.4809  -12.3945   19.1342 H   0  0  0  0  0  0
  -30.3215  -11.3084   19.8500 H   0  0  0  0  0  0
  -29.7518  -11.7317   17.4545 H   0  0  0  0  0  0
  -29.6807  -13.4511   17.7419 H   0  0  0  0  0  0
  -27.8394  -11.2929   18.8370 H   0  0  0  0  0  0
  -27.3841  -12.5999   17.7806 H   0  0  0  0  0  0
  -27.7028  -14.2488   19.5387 H   0  0  0  0  0  0
  -28.6943  -11.9875   21.3453 H   0  0  0  0  0  0
  -28.4843  -13.6378   21.8565 H   0  0  0  0  0  0
  -25.2815   -9.5687   22.4815 H   0  0  0  0  0  0
  -24.0069   -7.4628   22.7482 H   0  0  0  0  0  0
  -21.0927   -8.8816   19.8926 H   0  0  0  0  0  0
  -22.3810  -10.9722   19.6204 H   0  0  0  0  0  0
  -21.1927   -7.6171   23.9812 H   0  0  0  0  0  0
  -21.1487   -6.0529   25.9134 H   0  0  0  0  0  0
  -22.0578   -2.7672   23.2864 H   0  0  0  0  0  0
  -22.3987  -11.9902   22.4858 H   0  0  0  0  0  0
  -21.1089  -13.1305   22.2442 H   0  0  0  0  0  0
  -24.6738  -15.8500   20.4990 H   0  0  0  0  0  0
  -26.2865  -15.6236   20.0557 H   0  0  0  0  0  0
  -26.7227  -32.5429   23.1131 H   0  0  0  0  0  0
  -25.0002  -33.9675   25.0330 H   0  0  0  0  0  0
  -22.7140  -31.3130   21.3946 H   0  0  0  0  0  0
  -23.3700  -35.9679   23.3302 H   0  0  0  0  0  0
  -24.3578  -36.8945   22.2063 H   0  0  0  0  0  0
  -23.7312  -37.6515   23.6696 H   0  0  0  0  0  0
  -26.1110  -31.5750   20.6245 H   0  0  0  0  0  0
  -26.8294  -30.8294   22.0222 H   0  0  0  0  0  0
  -28.1009  -28.9825   21.2158 H   0  0  0  0  0  0
  -25.9713  -25.9905   18.9220 H   0  0  0  0  0  0
  -23.9632  -27.3414   18.9979 H   0  0  0  0  0  0
  -23.7404  -30.6050   19.3900 H   0  0  0  0  0  0
  -22.7555  -29.2498   19.8579 H   0  0  0  0  0  0
  -25.1282  -36.1843   25.0803 H   0  0  0  0  0  0
  -21.0121  -28.3187   24.1363 H   0  0  0  0  0  0
  -20.5689  -26.2212   23.3619 H   0  0  0  0  0  0
  -21.6604  -26.7301   22.1174 H   0  0  0  0  0  0
  -19.6814  -25.6289   21.1209 H   0  0  0  0  0  0
  -19.6593  -27.3219   20.6836 H   0  0  0  0  0  0
  -17.4182  -26.6772   21.4073 H   0  0  0  0  0  0
  -18.0206  -25.9965   22.9014 H   0  0  0  0  0  0
  -19.7967  -30.7290   24.2205 H   0  0  0  0  0  0
  -17.5001  -31.6203   24.5175 H   0  0  0  0  0  0
  -15.5355  -30.2897   23.7594 H   0  0  0  0  0  0
  -15.8748  -28.0750   22.7013 H   0  0  0  0  0  0
  -24.5851  -30.7189   25.7786 H   0  0  0  0  0  0
  -24.8989  -32.2982   26.4899 H   0  0  0  0  0  0
  -25.8007  -30.8917   27.0252 H   0  0  0  0  0  0
  -26.3011  -29.6702   24.1292 H   0  0  0  0  0  0
  -27.4002  -29.7286   25.4868 H   0  0  0  0  0  0
  -27.8907  -30.4201   23.9595 H   0  0  0  0  0  0
  -27.2565  -33.3668   26.2112 H   0  0  0  0  0  0
  -28.3824  -32.7050   25.0375 H   0  0  0  0  0  0
  -28.0745  -31.8571   26.5460 H   0  0  0  0  0  0
  -28.2525  -38.0120   24.7475 H   0  0  0  0  0  0
  -28.1092  -36.2622   24.6266 H   0  0  0  0  0  0
  -27.2289  -37.1456   25.8862 H   0  0  0  0  0  0
  -20.9325  -29.8814   21.6960 H   0  0  0  0  0  0
  -26.0117  -38.2798   24.1389 H   0  0  0  0  0  0
  -32.8661  -17.7858   23.8653 H   0  0  0  0  0  0
  -33.4703  -18.5601   22.4076 H   0  0  0  0  0  0
  -32.0729  -17.4871   22.3278 H   0  0  0  0  0  0
  -33.8200  -22.6997   16.7491 H   0  0  0  0  0  0
  -33.9418  -24.0519   17.8852 H   0  0  0  0  0  0
  -32.3862  -23.6094   17.1900 H   0  0  0  0  0  0
  -28.5877  -19.4622   20.0629 H   0  0  0  0  0  0
  -28.1531  -19.7930   21.7009 H   0  0  0  0  0  0
  -30.7308  -19.1157   23.6996 H   0  0  0  0  0  0
  -32.1215  -20.0692   23.9594 H   0  0  0  0  0  0
  -28.3112  -22.2046   19.9094 H   0  0  0  0  0  0
  -29.5937  -22.7264   18.8706 H   0  0  0  0  0  0
  -33.9800  -21.7384   19.0193 H   0  0  0  0  0  0
  -32.3927  -21.4485   18.3557 H   0  0  0  0  0  0
  -28.2141  -17.4995   21.5506 H   0  0  0  0  0  0
  -29.6275  -17.8316   22.4475 H   0  0  0  0  0  0
  -30.1680  -24.5963   20.5548 H   0  0  0  0  0  0
  -28.8794  -24.0370   21.5574 H   0  0  0  0  0  0
  -31.7961  -23.7306   19.5902 H   0  0  0  0  0  0
  -33.1910  -23.3663   20.5889 H   0  0  0  0  0  0
  -31.0303  -17.2796   20.3718 H   0  0  0  0  0  0
  -29.5602  -17.0762   19.4706 H   0  0  0  0  0  0
  -27.2244  -24.7337   20.0246 H   0  0  0  0  0  0
  -28.3388  -25.0369   18.7152 H   0  0  0  0  0  0
  -28.9776  -15.2705   21.2237 H   0  0  0  0  0  0
  1 25  1  0  0  0
  1 30  2  0  0  0
  1 87  1  0  0  0
  2  3  1  0  0  0
  2 25  1  0  0  0
  2 88  1  0  0  0
  2 89  1  0  0  0
  3  4  1  0  0  0
  3 90  1  0  0  0
  3 91  1  0  0  0
  4  5  1  0  0  0
  4 92  1  0  0  0
  4 93  1  0  0  0
  5  6  1  0  0  0
  5 26  1  0  0  0
  5 94  1  0  0  0
  6 25  1  0  0  0
  6 95  1  0  0  0
  6 96  1  0  0  0
  7  8  2  0  0  0
  7 26  1  0  0  0
  7 29  1  0  0  0
  8  9  1  0  0  0
  8 22  1  0  0  0
  9 10  1  0  0  0
  9 27  2  0  0  0
 10 11  2  0  0  0
 10 15  1  0  0  0
 11 12  1  0  0  0
 11 97  1  0  0  0
 12 13  2  0  0  0
 12 98  1  0  0  0
 13 14  1  0  0  0
 13 31  1  0  0  0
 14 15  2  0  0  0
 14 99  1  0  0  0
 15100  1  0  0  0
 16 17  2  0  0  0
 16 21  1  0  0  0
 16 31  1  0  0  0
 17 18  1  0  0  0
 17101  1  0  0  0
 18 19  2  0  0  0
 18102  1  0  0  0
 19 20  1  0  0  0
 19 24  1  0  0  0
 20 21  2  0  0  0
 20103  1  0  0  0
 21 23  1  0  0  0
 22 28  1  0  0  0
 22 32  2  0  0  0
 26 27  1  0  0  0
 28104  1  0  0  0
 28105  1  0  0  0
 29106  1  0  0  0
 29107  1  0  0  0
 33 34  1  0  0  0
 33 66  1  0  0  0
 33 70  2  0  0  0
 34 36  1  0  0  0
 34 59  1  0  0  0
 34108  1  0  0  0
 35 44  2  0  0  0
 35 45  1  0  0  0
 35 68  1  0  0  0
 36 56  1  0  0  0
 36109  1  0  0  0
 37 39  1  0  0  0
 37 47  1  0  0  0
 37 66  1  0  0  0
 37110  1  0  0  0
 38 43  2  0  0  0
 38 46  1  0  0  0
 38 47  1  0  0  0
 39 64  1  0  0  0
 39 67  2  0  0  0
 40 52  1  0  0  0
 40 53  2  0  0  0
 40 58  1  0  0  0
 41111  1  0  0  0
 41112  1  0  0  0
 41113  1  0  0  0
 41 48  1  0  0  0
 42 43  1  0  0  0
 42 66  1  0  0  0
 42114  1  0  0  0
 42115  1  0  0  0
 43 44  1  0  0  0
 44116  1  0  0  0
 45 46  2  0  0  0
 45117  1  0  0  0
 46118  1  0  0  0
 47119  1  0  0  0
 47120  1  0  0  0
 48 56  1  0  0  0
 48 65  1  0  0  0
 48121  1  0  0  0
 49 50  1  0  0  0
 49 53  1  0  0  0
 49 64  1  0  0  0
 49122  1  0  0  0
 50 51  1  0  0  0
 50123  1  0  0  0
 50124  1  0  0  0
 51 52  1  0  0  0
 51125  1  0  0  0
 51126  1  0  0  0
 52127  1  0  0  0
 52128  1  0  0  0
 53 54  1  0  0  0
 54 55  2  0  0  0
 54129  1  0  0  0
 55 57  1  0  0  0
 55130  1  0  0  0
 56 69  2  0  0  0
 57 58  2  0  0  0
 57131  1  0  0  0
 58132  1  0  0  0
 59 60  1  0  0  0
 59 61  1  0  0  0
 59 62  1  0  0  0
 60133  1  0  0  0
 60134  1  0  0  0
 60135  1  0  0  0
 61136  1  0  0  0
 61137  1  0  0  0
 61138  1  0  0  0
 62139  1  0  0  0
 62140  1  0  0  0
 62141  1  0  0  0
 63 65  1  0  0  0
 63142  1  0  0  0
 63143  1  0  0  0
 63144  1  0  0  0
 64145  1  0  0  0
 65146  1  0  0  0
 68 84  1  0  0  0
 71 72  1  0  0  0
 71 73  2  0  0  0
 71 76  1  0  0  0
 72 77  1  0  0  0
 72 85  2  0  0  0
 73 78  1  0  0  0
 73 86  1  0  0  0
 74 77  1  0  0  0
 74147  1  0  0  0
 74148  1  0  0  0
 74149  1  0  0  0
 75 79  1  0  0  0
 75150  1  0  0  0
 75151  1  0  0  0
 75152  1  0  0  0
 76 80  1  0  0  0
 76153  1  0  0  0
 76154  1  0  0  0
 77155  1  0  0  0
 77156  1  0  0  0
 78 81  1  0  0  0
 78157  1  0  0  0
 78158  1  0  0  0
 79 82  1  0  0  0
 79159  1  0  0  0
 79160  1  0  0  0
 80 83  1  0  0  0
 80161  1  0  0  0
 80162  1  0  0  0
 81 84  1  0  0  0
 81163  1  0  0  0
 81164  1  0  0  0
 82 86  1  0  0  0
 82165  1  0  0  0
 82166  1  0  0  0
 83 87  1  0  0  0
 83167  1  0  0  0
 83168  1  0  0  0
 84169  1  0  0  0
 84170  1  0  0  0
 85 86  1  0  0  0
 87171  1  0  0  0
M  ISO  4   1 100  68 101  84 101  87 100
M  END
> <chiral flag>
0

> <version>
0

> <s_m_source_file>
/data/baiqing/PycharmProjects/Reinvent-master-3.2/result/LINK_invent/BTK/process_docking_weight1_custom_sum_contain_oxygen_bond_distance_aromatic_linkinvent_7_9_3/rearranged_h_0037.sdf

> <i_m_source_file_index>
67

> <r_mmod_Potential_Energy-OPLS-2005>
-24.9803218841553

> <r_mmod_Stretch_Energy-OPLS-2005>
57.5148239135742

> <r_mmod_Bend_Energy-OPLS-2005>
122.38557434082

> <r_mmod_Torsional_Energy-OPLS-2005>
254.550537109375

> <r_mmod_Improper_Torsional_Energy-OPLS-2005>
6.96969270706177

> <r_mmod_Van_der_Waal_Energy-OPLS-2005>
122.103935241699

> <r_mmod_Electrostatic_Energy-OPLS-2005>
-397.098663330078

> <r_mmod_Solvation_Energy-OPLS-2005>
-220.752365112305

> <b_mmod_Minimization_Converged-OPLS-2005>
0

> <r_mmod_RMS_Derivative-OPLS-2005>
5.38631963729858

$$$$
67
                    3D
 Structure written by MMmdl.
162170  0  0  1  0            999 V2000
  -30.7182  -14.5225   20.5388 C   0  0  0  0  0  0
  -30.4107  -12.3323   19.4393 C   0  0  0  0  0  0
  -29.4944  -12.4961   18.2112 C   0  0  0  0  0  0
  -28.0171  -12.3561   18.6231 C   0  0  0  0  0  0
  -27.6513  -13.2185   19.8609 C   0  0  2  0  0  0
  -28.6943  -13.0616   20.9913 C   0  0  0  0  0  0
  -25.2532  -13.8162   20.5681 C   0  0  0  0  0  0
  -24.1788  -13.0437   20.9167 C   0  0  0  0  0  0
  -24.6366  -11.6908   20.8709 C   0  0  0  0  0  0
  -23.9029  -10.4298   21.0369 C   0  0  0  0  0  0
  -24.3582   -9.4221   21.9156 C   0  0  0  0  0  0
  -23.6279   -8.2241   22.0746 C   0  0  0  0  0  0
  -22.4254   -8.0258   21.3540 C   0  0  0  0  0  0
  -21.9876   -9.0232   20.4649 C   0  0  0  0  0  0
  -22.7193  -10.2118   20.3041 C   0  0  0  0  0  0
  -21.6859   -6.0719   22.5277 C   0  0  0  0  0  0
  -21.4021   -6.5620   23.8200 C   0  0  0  0  0  0
  -21.3662   -5.6774   24.9178 C   0  0  0  0  0  0
  -21.6042   -4.3042   24.7225 C   0  0  0  0  0  0
  -21.8821   -3.8129   23.4347 C   0  0  0  0  0  0
  -21.9201   -4.6947   22.3399 C   0  0  0  0  0  0
  -22.7819  -13.5250   21.1828 C   0  0  0  0  0  0
  -22.1670   -4.2139   21.0978 F   0  0  0  0  0  0
  -21.5636   -3.4520   25.7737 F   0  0  0  0  0  0
  -30.0176  -13.3588   20.4230 N   0  0  0  0  0  0
  -26.2966  -12.9363   20.3310 N   0  0  0  0  0  0
  -25.9291  -11.6515   20.5704 N   0  0  0  0  0  0
  -22.0441  -12.8270   22.0392 N   0  0  0  0  0  0
  -25.4247  -15.1890   20.4141 N   0  0  0  0  0  0
  -31.8740  -14.6229   20.1159 O   0  0  0  0  0  0
  -21.6641   -6.8850   21.4231 O   0  0  0  0  0  0
  -22.3517  -14.5573   20.6709 O   0  0  0  0  0  0
  -24.6209  -31.8653   23.2095 C   0  0  0  0  0  0
  -25.9104  -32.4796   23.8385 C   0  0  1  0  0  0
  -27.2020  -27.3676   20.0994 C   0  0  0  0  0  0
  -25.5953  -33.8597   24.2321 N   0  0  0  0  0  0
  -23.4085  -30.4959   21.5533 C   0  0  2  0  0  0
  -24.8493  -28.9713   20.1079 C   0  0  0  0  0  0
  -22.7451  -29.4655   22.4973 C   0  0  0  0  0  0
  -18.0287  -28.1365   22.8479 C   0  0  0  0  0  0
  -24.1493  -36.7283   23.2612 C   0  0  0  0  0  0
  -25.9480  -30.8102   21.3774 C   0  0  0  0  0  0
  -26.0185  -29.4459   20.7152 C   0  0  0  0  0  0
  -27.2002  -28.6542   20.7068 C   0  0  0  0  0  0
  -26.0139  -26.9485   19.4518 C   0  0  0  0  0  0
  -24.8482  -27.7267   19.4677 C   0  0  0  0  0  0
  -23.6162  -29.8443   20.1636 C   0  0  0  0  0  0
  -25.4097  -36.3076   24.0332 C   0  0  1  0  0  0
  -20.5884  -28.3663   23.1293 C   0  0  2  0  0  0
  -20.6784  -26.9401   22.5396 C   0  0  0  0  0  0
  -19.5755  -26.6378   21.5196 C   0  0  0  0  0  0
  -18.1931  -26.7917   22.1609 C   0  0  0  0  0  0
  -19.1538  -28.8835   23.2878 C   0  0  0  0  0  0
  -18.9465  -30.1458   23.8877 C   0  0  0  0  0  0
  -17.6460  -30.6576   24.0562 C   0  0  0  0  0  0
  -25.9044  -34.9456   23.5110 C   0  0  0  0  0  0
  -16.5348  -29.9066   23.6336 C   0  0  0  0  0  0
  -16.7277  -28.6492   23.0344 C   0  0  0  0  0  0
  -26.4502  -31.6571   25.0724 C   0  0  0  0  0  0
  -25.3766  -31.3727   26.1486 C   0  0  0  0  0  0
  -27.0298  -30.2984   24.6128 C   0  0  0  0  0  0
  -27.6083  -32.4272   25.7482 C   0  0  0  0  0  0
  -27.5619  -37.1732   24.8417 C   0  0  0  0  0  0
  -21.4174  -29.3037   22.3719 N   0  0  0  0  0  0
  -26.4247  -37.3794   23.9471 N   0  0  0  0  0  0
  -24.6780  -31.0722   22.1033 N   0  0  0  0  0  0
  -23.4209  -28.8158   23.2995 O   0  0  0  0  0  0
  -28.3091  -26.5199   20.1600 O   0  0  0  0  0  0
  -26.5597  -34.8906   22.4667 O   0  0  0  0  0  0
  -23.5392  -32.1454   23.7446 O   0  0  0  0  0  0
  -28.3752  -20.1964   21.6097 C   0  0  0  0  0  0
  -30.0516  -20.6930   19.8413 C   0  0  0  0  0  0
  -29.0731  -18.8383   21.9233 C   0  0  0  0  0  0
  -30.7848  -19.3737   20.1977 C   0  0  0  0  0  0
  -29.2996  -21.3161   21.0405 C   0  0  1  0  0  0
  -29.8611  -18.2446   20.7291 C   0  0  1  0  0  0
  -29.9829  -24.0729   19.1881 C   0  0  0  0  0  0
  -28.4573  -22.6002   20.6837 C   0  0  0  0  0  0
  -30.7068  -16.9693   21.0947 C   0  0  0  0  0  0
  -27.9803  -25.1028   20.3318 C   0  0  0  0  0  0
  -29.1108  -24.0233   20.4546 C   0  0  2  0  0  0
  -30.0659  -15.6282   20.9845 N   0  0  0  0  0  0
  -31.4556  -12.4128   19.1357 H   0  0  0  0  0  0
  -30.3025  -11.3366   19.8712 H   0  0  0  0  0  0
  -29.7423  -11.7544   17.4517 H   0  0  0  0  0  0
  -29.6662  -13.4714   17.7511 H   0  0  0  0  0  0
  -27.8379  -11.3037   18.8433 H   0  0  0  0  0  0
  -27.3702  -12.6063   17.7813 H   0  0  0  0  0  0
  -27.6780  -14.2565   19.5278 H   0  0  0  0  0  0
  -28.6797  -12.0446   21.3867 H   0  0  0  0  0  0
  -28.4550  -13.7164   21.8296 H   0  0  0  0  0  0
  -25.2718   -9.5721   22.4735 H   0  0  0  0  0  0
  -24.0013   -7.4638   22.7466 H   0  0  0  0  0  0
  -21.0808   -8.8723   19.8949 H   0  0  0  0  0  0
  -22.3621  -10.9642   19.6146 H   0  0  0  0  0  0
  -21.1996   -7.6125   23.9703 H   0  0  0  0  0  0
  -21.1483   -6.0505   25.9077 H   0  0  0  0  0  0
  -22.0589   -2.7596   23.2848 H   0  0  0  0  0  0
  -22.4048  -11.9972   22.4852 H   0  0  0  0  0  0
  -21.1039  -13.1301   22.2532 H   0  0  0  0  0  0
  -24.6630  -15.8442   20.5429 H   0  0  0  0  0  0
  -26.2834  -15.6342   20.1174 H   0  0  0  0  0  0
  -26.7150  -32.5474   23.1107 H   0  0  0  0  0  0
  -25.0193  -33.9766   25.0529 H   0  0  0  0  0  0
  -22.6989  -31.3161   21.4219 H   0  0  0  0  0  0
  -23.3798  -35.9561   23.3133 H   0  0  0  0  0  0
  -24.3657  -36.9046   22.2064 H   0  0  0  0  0  0
  -23.7164  -37.6400   23.6728 H   0  0  0  0  0  0
  -26.0809  -31.5784   20.6148 H   0  0  0  0  0  0
  -26.8281  -30.8489   22.0074 H   0  0  0  0  0  0
  -28.0947  -29.0076   21.2005 H   0  0  0  0  0  0
  -25.9422  -26.0170   18.9145 H   0  0  0  0  0  0
  -23.9573  -27.3657   18.9731 H   0  0  0  0  0  0
  -23.7295  -30.6242   19.4092 H   0  0  0  0  0  0
  -22.7350  -29.2728   19.8649 H   0  0  0  0  0  0
  -25.1233  -36.1909   25.0809 H   0  0  0  0  0  0
  -20.9973  -28.3214   24.1413 H   0  0  0  0  0  0
  -20.5686  -26.2254   23.3568 H   0  0  0  0  0  0
  -21.6657  -26.7454   22.1187 H   0  0  0  0  0  0
  -19.6909  -25.6283   21.1241 H   0  0  0  0  0  0
  -19.6683  -27.3186   20.6720 H   0  0  0  0  0  0
  -17.4200  -26.6665   21.4011 H   0  0  0  0  0  0
  -18.0332  -26.0068   22.9014 H   0  0  0  0  0  0
  -19.7942  -30.7290   24.2197 H   0  0  0  0  0  0
  -17.5014  -31.6260   24.5156 H   0  0  0  0  0  0
  -15.5343  -30.2942   23.7678 H   0  0  0  0  0  0
  -15.8682  -28.0803   22.7045 H   0  0  0  0  0  0
  -24.5875  -30.7145   25.7836 H   0  0  0  0  0  0
  -24.9050  -32.2924   26.4962 H   0  0  0  0  0  0
  -25.8112  -30.8850   27.0226 H   0  0  0  0  0  0
  -26.2838  -29.6756   24.1178 H   0  0  0  0  0  0
  -27.4037  -29.7204   25.4586 H   0  0  0  0  0  0
  -27.8702  -30.4245   23.9299 H   0  0  0  0  0  0
  -27.2734  -33.3588   26.2051 H   0  0  0  0  0  0
  -28.3903  -32.6797   25.0313 H   0  0  0  0  0  0
  -28.0734  -31.8399   26.5408 H   0  0  0  0  0  0
  -28.2422  -38.0229   24.7778 H   0  0  0  0  0  0
  -28.1317  -36.2799   24.5823 H   0  0  0  0  0  0
  -27.2420  -37.0888   25.8812 H   0  0  0  0  0  0
  -20.9324  -29.8771   21.6959 H   0  0  0  0  0  0
  -26.0118  -38.2816   24.1648 H   0  0  0  0  0  0
  -27.8896  -20.5549   22.5187 H   0  0  0  0  0  0
  -27.5668  -20.0116   20.8993 H   0  0  0  0  0  0
  -29.3505  -20.5035   19.0276 H   0  0  0  0  0  0
  -30.7850  -21.3959   19.4533 H   0  0  0  0  0  0
  -28.3262  -18.1168   22.2569 H   0  0  0  0  0  0
  -29.7487  -18.9801   22.7691 H   0  0  0  0  0  0
  -31.5586  -19.5893   20.9374 H   0  0  0  0  0  0
  -31.3130  -19.0216   19.3100 H   0  0  0  0  0  0
  -30.0230  -21.5847   21.8132 H   0  0  0  0  0  0
  -29.1615  -17.9861   19.9317 H   0  0  0  0  0  0
  -30.9426  -23.5787   19.3330 H   0  0  0  0  0  0
  -30.2037  -25.1040   18.9056 H   0  0  0  0  0  0
  -29.4762  -23.6046   18.3418 H   0  0  0  0  0  0
  -27.7490  -22.7289   21.5029 H   0  0  0  0  0  0
  -27.8285  -22.3618   19.8244 H   0  0  0  0  0  0
  -31.1103  -17.0655   22.1026 H   0  0  0  0  0  0
  -31.5895  -16.9891   20.4528 H   0  0  0  0  0  0
  -27.3352  -25.0255   21.2108 H   0  0  0  0  0  0
  -27.3943  -24.7536   19.4848 H   0  0  0  0  0  0
  -29.7273  -24.2702   21.3199 H   0  0  0  0  0  0
  -29.1034  -15.5293   21.2724 H   0  0  0  0  0  0
  1 25  1  0  0  0
  1 30  2  0  0  0
  1 82  1  0  0  0
  2  3  1  0  0  0
  2 25  1  0  0  0
  2 83  1  0  0  0
  2 84  1  0  0  0
  3  4  1  0  0  0
  3 85  1  0  0  0
  3 86  1  0  0  0
  4  5  1  0  0  0
  4 87  1  0  0  0
  4 88  1  0  0  0
  5  6  1  0  0  0
  5 26  1  0  0  0
  5 89  1  0  0  0
  6 25  1  0  0  0
  6 90  1  0  0  0
  6 91  1  0  0  0
  7  8  2  0  0  0
  7 26  1  0  0  0
  7 29  1  0  0  0
  8  9  1  0  0  0
  8 22  1  0  0  0
  9 10  1  0  0  0
  9 27  2  0  0  0
 10 11  2  0  0  0
 10 15  1  0  0  0
 11 12  1  0  0  0
 11 92  1  0  0  0
 12 13  2  0  0  0
 12 93  1  0  0  0
 13 14  1  0  0  0
 13 31  1  0  0  0
 14 15  2  0  0  0
 14 94  1  0  0  0
 15 95  1  0  0  0
 16 17  2  0  0  0
 16 21  1  0  0  0
 16 31  1  0  0  0
 17 18  1  0  0  0
 17 96  1  0  0  0
 18 19  2  0  0  0
 18 97  1  0  0  0
 19 20  1  0  0  0
 19 24  1  0  0  0
 20 21  2  0  0  0
 20 98  1  0  0  0
 21 23  1  0  0  0
 22 28  1  0  0  0
 22 32  2  0  0  0
 26 27  1  0  0  0
 28 99  1  0  0  0
 28100  1  0  0  0
 29101  1  0  0  0
 29102  1  0  0  0
 33 34  1  0  0  0
 33 66  1  0  0  0
 33 70  2  0  0  0
 34 36  1  0  0  0
 34 59  1  0  0  0
 34103  1  0  0  0
 35 44  2  0  0  0
 35 45  1  0  0  0
 35 68  1  0  0  0
 36 56  1  0  0  0
 36104  1  0  0  0
 37 39  1  0  0  0
 37 47  1  0  0  0
 37 66  1  0  0  0
 37105  1  0  0  0
 38 43  2  0  0  0
 38 46  1  0  0  0
 38 47  1  0  0  0
 39 64  1  0  0  0
 39 67  2  0  0  0
 40 52  1  0  0  0
 40 53  2  0  0  0
 40 58  1  0  0  0
 41106  1  0  0  0
 41107  1  0  0  0
 41108  1  0  0  0
 41 48  1  0  0  0
 42 43  1  0  0  0
 42 66  1  0  0  0
 42109  1  0  0  0
 42110  1  0  0  0
 43 44  1  0  0  0
 44111  1  0  0  0
 45 46  2  0  0  0
 45112  1  0  0  0
 46113  1  0  0  0
 47114  1  0  0  0
 47115  1  0  0  0
 48 56  1  0  0  0
 48 65  1  0  0  0
 48116  1  0  0  0
 49 50  1  0  0  0
 49 53  1  0  0  0
 49 64  1  0  0  0
 49117  1  0  0  0
 50 51  1  0  0  0
 50118  1  0  0  0
 50119  1  0  0  0
 51 52  1  0  0  0
 51120  1  0  0  0
 51121  1  0  0  0
 52122  1  0  0  0
 52123  1  0  0  0
 53 54  1  0  0  0
 54 55  2  0  0  0
 54124  1  0  0  0
 55 57  1  0  0  0
 55125  1  0  0  0
 56 69  2  0  0  0
 57 58  2  0  0  0
 57126  1  0  0  0
 58127  1  0  0  0
 59 60  1  0  0  0
 59 61  1  0  0  0
 59 62  1  0  0  0
 60128  1  0  0  0
 60129  1  0  0  0
 60130  1  0  0  0
 61131  1  0  0  0
 61132  1  0  0  0
 61133  1  0  0  0
 62134  1  0  0  0
 62135  1  0  0  0
 62136  1  0  0  0
 63 65  1  0  0  0
 63137  1  0  0  0
 63138  1  0  0  0
 63139  1  0  0  0
 64140  1  0  0  0
 65141  1  0  0  0
 68 80  1  0  0  0
 71 73  1  0  0  0
 71 75  1  0  0  0
 71142  1  0  0  0
 71143  1  0  0  0
 72 74  1  0  0  0
 72 75  1  0  0  0
 72144  1  0  0  0
 72145  1  0  0  0
 73 76  1  0  0  0
 73146  1  0  0  0
 73147  1  0  0  0
 74 76  1  0  0  0
 74148  1  0  0  0
 74149  1  0  0  0
 75 78  1  0  0  0
 75150  1  0  0  0
 76 79  1  0  0  0
 76151  1  0  0  0
 77152  1  0  0  0
 77153  1  0  0  0
 77154  1  0  0  0
 77 81  1  0  0  0
 78 81  1  0  0  0
 78155  1  0  0  0
 78156  1  0  0  0
 79 82  1  0  0  0
 79157  1  0  0  0
 79158  1  0  0  0
 80 81  1  0  0  0
 80159  1  0  0  0
 80160  1  0  0  0
 81161  1  0  0  0
 82162  1  0  0  0
M  ISO  4   1 100  68 101  80 101  82 100
M  END
> <chiral flag>
0

> <version>
0

> <s_m_source_file>
/data/baiqing/PycharmProjects/Reinvent-master-3.2/result/LINK_invent/BTK/process_docking_weight1_custom_sum_contain_oxygen_bond_distance_aromatic_linkinvent_7_9_3/rearranged_h_0037.sdf

> <i_m_source_file_index>
68

> <r_mmod_Potential_Energy-OPLS-2005>
34.4423217773438

> <r_mmod_Stretch_Energy-OPLS-2005>
54.3852882385254

> <r_mmod_Bend_Energy-OPLS-2005>
130.261184692383

> <r_mmod_Torsional_Energy-OPLS-2005>
244.474792480469

> <r_mmod_Improper_Torsional_Energy-OPLS-2005>
3.24750638008118

> <r_mmod_Van_der_Waal_Energy-OPLS-2005>
143.509262084961

> <r_mmod_Electrostatic_Energy-OPLS-2005>
-379.309600830078

> <r_mmod_Solvation_Energy-OPLS-2005>
-193.067016601562

> <b_mmod_Minimization_Converged-OPLS-2005>
0

> <r_mmod_RMS_Derivative-OPLS-2005>
3.25125885009766

$$$$
68
                    3D
 Structure written by MMmdl.
167175  0  0  1  0            999 V2000
  -30.6997  -14.3727   20.6537 C   0  0  0  0  0  0
  -30.4323  -12.2745   19.3861 C   0  0  0  0  0  0
  -29.4927  -12.5283   18.1898 C   0  0  0  0  0  0
  -28.0132  -12.3813   18.6029 C   0  0  0  0  0  0
  -27.6740  -13.1824   19.8887 C   0  0  2  0  0  0
  -28.7114  -12.8681   20.9909 C   0  0  0  0  0  0
  -25.2685  -13.8121   20.5680 C   0  0  0  0  0  0
  -24.1889  -13.0446   20.9157 C   0  0  0  0  0  0
  -24.6391  -11.6898   20.8736 C   0  0  0  0  0  0
  -23.9039  -10.4299   21.0405 C   0  0  0  0  0  0
  -24.3598   -9.4229   21.9192 C   0  0  0  0  0  0
  -23.6286   -8.2258   22.0764 C   0  0  0  0  0  0
  -22.4262   -8.0287   21.3570 C   0  0  0  0  0  0
  -21.9893   -9.0249   20.4668 C   0  0  0  0  0  0
  -22.7204  -10.2137   20.3070 C   0  0  0  0  0  0
  -21.6843   -6.0745   22.5288 C   0  0  0  0  0  0
  -21.4003   -6.5652   23.8220 C   0  0  0  0  0  0
  -21.3668   -5.6811   24.9187 C   0  0  0  0  0  0
  -21.6032   -4.3068   24.7239 C   0  0  0  0  0  0
  -21.8821   -3.8161   23.4360 C   0  0  0  0  0  0
  -21.9181   -4.6972   22.3412 C   0  0  0  0  0  0
  -22.7927  -13.5274   21.1839 C   0  0  0  0  0  0
  -22.1646   -4.2156   21.0990 F   0  0  0  0  0  0
  -21.5645   -3.4548   25.7758 F   0  0  0  0  0  0
  -30.0527  -13.1956   20.4631 N   0  0  0  0  0  0
  -26.3092  -12.9226   20.3416 N   0  0  0  0  0  0
  -25.9312  -11.6417   20.5777 N   0  0  0  0  0  0
  -22.0548  -12.8268   22.0385 N   0  0  0  0  0  0
  -25.4525  -15.1824   20.4118 N   0  0  0  0  0  0
  -31.7455  -14.6930   20.0773 O   0  0  0  0  0  0
  -21.6638   -6.8877   21.4251 O   0  0  0  0  0  0
  -22.3632  -14.5597   20.6715 O   0  0  0  0  0  0
  -24.6165  -31.8700   23.2111 C   0  0  0  0  0  0
  -25.9070  -32.4836   23.8407 C   0  0  1  0  0  0
  -27.2231  -27.4560   20.0716 C   0  0  0  0  0  0
  -25.5918  -33.8627   24.2322 N   0  0  0  0  0  0
  -23.4020  -30.4975   21.5538 C   0  0  2  0  0  0
  -24.8432  -28.9722   20.1131 C   0  0  0  0  0  0
  -22.7415  -29.4672   22.4992 C   0  0  0  0  0  0
  -18.0324  -28.1365   22.8452 C   0  0  0  0  0  0
  -24.1501  -36.7333   23.2633 C   0  0  0  0  0  0
  -25.9317  -30.8413   21.3627 C   0  0  0  0  0  0
  -26.0067  -29.4803   20.7040 C   0  0  0  0  0  0
  -27.2036  -28.7298   20.6796 C   0  0  0  0  0  0
  -26.0431  -26.9676   19.4728 C   0  0  0  0  0  0
  -24.8531  -27.7114   19.4997 C   0  0  0  0  0  0
  -23.6081  -29.8393   20.1657 C   0  0  0  0  0  0
  -25.4116  -36.3104   24.0321 C   0  0  1  0  0  0
  -20.5896  -28.3645   23.1326 C   0  0  2  0  0  0
  -20.6802  -26.9399   22.5390 C   0  0  0  0  0  0
  -19.5813  -26.6401   21.5164 C   0  0  0  0  0  0
  -18.1958  -26.7935   22.1523 C   0  0  0  0  0  0
  -19.1554  -28.8809   23.2909 C   0  0  0  0  0  0
  -18.9487  -30.1392   23.8967 C   0  0  0  0  0  0
  -17.6482  -30.6539   24.0610 C   0  0  0  0  0  0
  -25.9033  -34.9482   23.5106 C   0  0  0  0  0  0
  -16.5371  -29.9060   23.6315 C   0  0  0  0  0  0
  -16.7307  -28.6497   23.0306 C   0  0  0  0  0  0
  -26.4492  -31.6613   25.0737 C   0  0  0  0  0  0
  -25.3748  -31.3757   26.1477 C   0  0  0  0  0  0
  -27.0317  -30.3052   24.6113 C   0  0  0  0  0  0
  -27.6063  -32.4317   25.7524 C   0  0  0  0  0  0
  -27.5580  -37.1822   24.8452 C   0  0  0  0  0  0
  -21.4136  -29.3045   22.3758 N   0  0  0  0  0  0
  -26.4296  -37.3786   23.9392 N   0  0  0  0  0  0
  -24.6688  -31.0826   22.1014 N   0  0  0  0  0  0
  -23.4204  -28.8199   23.3007 O   0  0  0  0  0  0
  -28.3675  -26.6928   20.0783 O   0  0  0  0  0  0
  -26.5587  -34.8920   22.4659 O   0  0  0  0  0  0
  -23.5353  -32.1448   23.7500 O   0  0  0  0  0  0
  -25.5624  -23.3598   20.0782 C   0  0  0  0  0  0
  -24.6467  -22.5736   20.7951 C   0  0  0  0  0  0
  -25.1486  -21.6573   21.7499 C   0  0  0  0  0  0
  -26.9352  -23.2518   20.3613 C   0  0  0  0  0  0
  -26.5532  -21.5914   21.9397 C   0  0  0  0  0  0
  -23.1617  -22.7500   20.5355 C   0  0  0  0  0  0
  -24.2044  -20.7771   22.5646 C   0  0  0  0  0  0
  -27.9298  -24.2264   19.7468 C   0  0  0  0  0  0
  -27.1932  -20.6339   22.9348 C   0  0  0  0  0  0
  -27.3193  -19.1890   22.4070 C   0  0  0  0  0  0
  -28.7553  -18.7271   22.0991 C   0  0  0  0  0  0
  -28.7863  -17.2538   21.6659 C   0  0  0  0  0  0
  -30.1949  -16.6363   21.6303 C   0  0  0  0  0  0
  -28.2030  -25.4105   20.7053 C   0  0  0  0  0  0
  -27.4203  -22.3720   21.2593 N   0  0  0  0  0  0
  -30.0472  -15.1975   21.4775 N   0  0  0  0  0  0
  -31.4759  -12.3967   19.0903 H   0  0  0  0  0  0
  -30.3407  -11.2416   19.7258 H   0  0  0  0  0  0
  -29.7281  -11.8406   17.3747 H   0  0  0  0  0  0
  -29.6628  -13.5326   17.8001 H   0  0  0  0  0  0
  -27.8123  -11.3209   18.7640 H   0  0  0  0  0  0
  -27.3609  -12.6897   17.7857 H   0  0  0  0  0  0
  -27.7489  -14.2414   19.6437 H   0  0  0  0  0  0
  -28.6778  -11.8080   21.2463 H   0  0  0  0  0  0
  -28.4613  -13.3762   21.9233 H   0  0  0  0  0  0
  -25.2746   -9.5699   22.4762 H   0  0  0  0  0  0
  -23.9998   -7.4651   22.7486 H   0  0  0  0  0  0
  -21.0823   -8.8757   19.8973 H   0  0  0  0  0  0
  -22.3658  -10.9676   19.6182 H   0  0  0  0  0  0
  -21.1993   -7.6163   23.9720 H   0  0  0  0  0  0
  -21.1482   -6.0550   25.9087 H   0  0  0  0  0  0
  -22.0584   -2.7621   23.2866 H   0  0  0  0  0  0
  -22.4108  -11.9869   22.4710 H   0  0  0  0  0  0
  -21.1205  -13.1362   22.2648 H   0  0  0  0  0  0
  -24.7090  -15.8569   20.5489 H   0  0  0  0  0  0
  -26.3247  -15.6056   20.1211 H   0  0  0  0  0  0
  -26.7149  -32.5553   23.1172 H   0  0  0  0  0  0
  -25.0070  -33.9823   25.0465 H   0  0  0  0  0  0
  -22.6884  -31.3139   21.4174 H   0  0  0  0  0  0
  -23.3734  -35.9697   23.3313 H   0  0  0  0  0  0
  -24.3591  -36.8931   22.2042 H   0  0  0  0  0  0
  -23.7294  -37.6557   23.6647 H   0  0  0  0  0  0
  -26.0402  -31.6107   20.5963 H   0  0  0  0  0  0
  -26.8208  -30.8900   21.9795 H   0  0  0  0  0  0
  -28.1051  -29.1164   21.1370 H   0  0  0  0  0  0
  -26.0275  -26.0207   18.9648 H   0  0  0  0  0  0
  -23.9588  -27.3128   19.0400 H   0  0  0  0  0  0
  -23.7194  -30.6168   19.4079 H   0  0  0  0  0  0
  -22.7315  -29.2601   19.8702 H   0  0  0  0  0  0
  -25.1303  -36.1952   25.0813 H   0  0  0  0  0  0
  -21.0004  -28.3203   24.1439 H   0  0  0  0  0  0
  -20.5675  -26.2223   23.3527 H   0  0  0  0  0  0
  -21.6680  -26.7471   22.1183 H   0  0  0  0  0  0
  -19.7013  -25.6321   21.1208 H   0  0  0  0  0  0
  -19.6786  -27.3195   20.6699 H   0  0  0  0  0  0
  -17.4290  -26.6780   21.3841 H   0  0  0  0  0  0
  -18.0249  -26.0035   22.8844 H   0  0  0  0  0  0
  -19.7956  -30.7167   24.2415 H   0  0  0  0  0  0
  -17.5053  -31.6192   24.5248 H   0  0  0  0  0  0
  -15.5374  -30.2967   23.7645 H   0  0  0  0  0  0
  -15.8716  -28.0833   22.6972 H   0  0  0  0  0  0
  -24.5889  -30.7141   25.7818 H   0  0  0  0  0  0
  -24.8995  -32.2946   26.4917 H   0  0  0  0  0  0
  -25.8076  -30.8917   27.0234 H   0  0  0  0  0  0
  -26.2872  -29.6829   24.1127 H   0  0  0  0  0  0
  -27.4044  -29.7271   25.4579 H   0  0  0  0  0  0
  -27.8725  -30.4385   23.9301 H   0  0  0  0  0  0
  -27.2678  -33.3583   26.2173 H   0  0  0  0  0  0
  -28.3870  -32.6916   25.0366 H   0  0  0  0  0  0
  -28.0744  -31.8392   26.5396 H   0  0  0  0  0  0
  -28.2594  -38.0123   24.7467 H   0  0  0  0  0  0
  -28.1077  -36.2637   24.6305 H   0  0  0  0  0  0
  -27.2299  -37.1509   25.8860 H   0  0  0  0  0  0
  -20.9272  -29.8860   21.7068 H   0  0  0  0  0  0
  -26.0172  -38.2859   24.1365 H   0  0  0  0  0  0
  -25.2060  -24.0685   19.3466 H   0  0  0  0  0  0
  -22.9732  -23.6139   19.8965 H   0  0  0  0  0  0
  -22.6202  -22.9093   21.4690 H   0  0  0  0  0  0
  -22.7541  -21.8710   20.0350 H   0  0  0  0  0  0
  -24.5804  -19.7587   22.6555 H   0  0  0  0  0  0
  -23.2175  -20.6934   22.1115 H   0  0  0  0  0  0
  -24.0774  -21.1844   23.5685 H   0  0  0  0  0  0
  -27.5478  -24.5584   18.7832 H   0  0  0  0  0  0
  -28.8591  -23.7040   19.5194 H   0  0  0  0  0  0
  -26.5925  -20.6418   23.8454 H   0  0  0  0  0  0
  -28.1690  -21.0166   23.2360 H   0  0  0  0  0  0
  -26.6820  -19.0450   21.5320 H   0  0  0  0  0  0
  -26.9165  -18.5266   23.1737 H   0  0  0  0  0  0
  -29.3648  -18.8576   22.9956 H   0  0  0  0  0  0
  -29.1958  -19.3554   21.3235 H   0  0  0  0  0  0
  -28.3190  -17.1502   20.6847 H   0  0  0  0  0  0
  -28.1623  -16.6743   22.3483 H   0  0  0  0  0  0
  -30.7251  -16.8311   22.5639 H   0  0  0  0  0  0
  -30.7837  -17.0722   20.8209 H   0  0  0  0  0  0
  -29.0902  -25.1869   21.2948 H   0  0  0  0  0  0
  -27.3956  -25.4685   21.4409 H   0  0  0  0  0  0
  -29.2407  -14.7882   21.9247 H   0  0  0  0  0  0
  1 25  1  0  0  0
  1 30  2  0  0  0
  1 86  1  0  0  0
  2  3  1  0  0  0
  2 25  1  0  0  0
  2 87  1  0  0  0
  2 88  1  0  0  0
  3  4  1  0  0  0
  3 89  1  0  0  0
  3 90  1  0  0  0
  4  5  1  0  0  0
  4 91  1  0  0  0
  4 92  1  0  0  0
  5  6  1  0  0  0
  5 26  1  0  0  0
  5 93  1  0  0  0
  6 25  1  0  0  0
  6 94  1  0  0  0
  6 95  1  0  0  0
  7  8  2  0  0  0
  7 26  1  0  0  0
  7 29  1  0  0  0
  8  9  1  0  0  0
  8 22  1  0  0  0
  9 10  1  0  0  0
  9 27  2  0  0  0
 10 11  2  0  0  0
 10 15  1  0  0  0
 11 12  1  0  0  0
 11 96  1  0  0  0
 12 13  2  0  0  0
 12 97  1  0  0  0
 13 14  1  0  0  0
 13 31  1  0  0  0
 14 15  2  0  0  0
 14 98  1  0  0  0
 15 99  1  0  0  0
 16 17  2  0  0  0
 16 21  1  0  0  0
 16 31  1  0  0  0
 17 18  1  0  0  0
 17100  1  0  0  0
 18 19  2  0  0  0
 18101  1  0  0  0
 19 20  1  0  0  0
 19 24  1  0  0  0
 20 21  2  0  0  0
 20102  1  0  0  0
 21 23  1  0  0  0
 22 28  1  0  0  0
 22 32  2  0  0  0
 26 27  1  0  0  0
 28103  1  0  0  0
 28104  1  0  0  0
 29105  1  0  0  0
 29106  1  0  0  0
 33 34  1  0  0  0
 33 66  1  0  0  0
 33 70  2  0  0  0
 34 36  1  0  0  0
 34 59  1  0  0  0
 34107  1  0  0  0
 35 44  2  0  0  0
 35 45  1  0  0  0
 35 68  1  0  0  0
 36 56  1  0  0  0
 36108  1  0  0  0
 37 39  1  0  0  0
 37 47  1  0  0  0
 37 66  1  0  0  0
 37109  1  0  0  0
 38 43  2  0  0  0
 38 46  1  0  0  0
 38 47  1  0  0  0
 39 64  1  0  0  0
 39 67  2  0  0  0
 40 52  1  0  0  0
 40 53  2  0  0  0
 40 58  1  0  0  0
 41110  1  0  0  0
 41111  1  0  0  0
 41112  1  0  0  0
 41 48  1  0  0  0
 42 43  1  0  0  0
 42 66  1  0  0  0
 42113  1  0  0  0
 42114  1  0  0  0
 43 44  1  0  0  0
 44115  1  0  0  0
 45 46  2  0  0  0
 45116  1  0  0  0
 46117  1  0  0  0
 47118  1  0  0  0
 47119  1  0  0  0
 48 56  1  0  0  0
 48 65  1  0  0  0
 48120  1  0  0  0
 49 50  1  0  0  0
 49 53  1  0  0  0
 49 64  1  0  0  0
 49121  1  0  0  0
 50 51  1  0  0  0
 50122  1  0  0  0
 50123  1  0  0  0
 51 52  1  0  0  0
 51124  1  0  0  0
 51125  1  0  0  0
 52126  1  0  0  0
 52127  1  0  0  0
 53 54  1  0  0  0
 54 55  2  0  0  0
 54128  1  0  0  0
 55 57  1  0  0  0
 55129  1  0  0  0
 56 69  2  0  0  0
 57 58  2  0  0  0
 57130  1  0  0  0
 58131  1  0  0  0
 59 60  1  0  0  0
 59 61  1  0  0  0
 59 62  1  0  0  0
 60132  1  0  0  0
 60133  1  0  0  0
 60134  1  0  0  0
 61135  1  0  0  0
 61136  1  0  0  0
 61137  1  0  0  0
 62138  1  0  0  0
 62139  1  0  0  0
 62140  1  0  0  0
 63 65  1  0  0  0
 63141  1  0  0  0
 63142  1  0  0  0
 63143  1  0  0  0
 64144  1  0  0  0
 65145  1  0  0  0
 68 84  1  0  0  0
 71 72  2  0  0  0
 71 74  1  0  0  0
 71146  1  0  0  0
 72 73  1  0  0  0
 72 76  1  0  0  0
 73 75  2  0  0  0
 73 77  1  0  0  0
 74 78  1  0  0  0
 74 85  2  0  0  0
 75 79  1  0  0  0
 75 85  1  0  0  0
 76147  1  0  0  0
 76148  1  0  0  0
 76149  1  0  0  0
 77150  1  0  0  0
 77151  1  0  0  0
 77152  1  0  0  0
 78 84  1  0  0  0
 78153  1  0  0  0
 78154  1  0  0  0
 79 80  1  0  0  0
 79155  1  0  0  0
 79156  1  0  0  0
 80 81  1  0  0  0
 80157  1  0  0  0
 80158  1  0  0  0
 81 82  1  0  0  0
 81159  1  0  0  0
 81160  1  0  0  0
 82 83  1  0  0  0
 82161  1  0  0  0
 82162  1  0  0  0
 83 86  1  0  0  0
 83163  1  0  0  0
 83164  1  0  0  0
 84165  1  0  0  0
 84166  1  0  0  0
 86167  1  0  0  0
M  ISO  4   1 100  68 101  84 101  86 100
M  END
> <chiral flag>
0

> <version>
0

> <s_m_source_file>
/data/baiqing/PycharmProjects/Reinvent-master-3.2/result/LINK_invent/BTK/process_docking_weight1_custom_sum_contain_oxygen_bond_distance_aromatic_linkinvent_7_9_3/rearranged_h_0037.sdf

> <i_m_source_file_index>
69

> <r_mmod_Potential_Energy-OPLS-2005>
-211.206436157227

> <r_mmod_Stretch_Energy-OPLS-2005>
32.8181114196777

> <r_mmod_Bend_Energy-OPLS-2005>
92.7330627441406

> <r_mmod_Torsional_Energy-OPLS-2005>
223.225021362305

> <r_mmod_Improper_Torsional_Energy-OPLS-2005>
2.99074292182922

> <r_mmod_Van_der_Waal_Energy-OPLS-2005>
157.391586303711

> <r_mmod_Electrostatic_Energy-OPLS-2005>
-509.810028076172

> <r_mmod_Solvation_Energy-OPLS-2005>
-220.5126953125

> <b_mmod_Minimization_Converged-OPLS-2005>
0

> <r_mmod_RMS_Derivative-OPLS-2005>
3.35140442848206

$$$$
69
                    3D
 Structure written by MMmdl.
168176  0  0  1  0            999 V2000
  -30.7487  -14.4173   20.6099 C   0  0  0  0  0  0
  -30.3967  -12.2917   19.4041 C   0  0  0  0  0  0
  -29.4811  -12.5330   18.1892 C   0  0  0  0  0  0
  -28.0001  -12.4064   18.5959 C   0  0  0  0  0  0
  -27.6564  -13.2176   19.8738 C   0  0  2  0  0  0
  -28.6976  -12.9935   20.9915 C   0  0  0  0  0  0
  -25.2531  -13.8187   20.5620 C   0  0  0  0  0  0
  -24.1800  -13.0461   20.9126 C   0  0  0  0  0  0
  -24.6375  -11.6925   20.8704 C   0  0  0  0  0  0
  -23.9018  -10.4316   21.0360 C   0  0  0  0  0  0
  -24.3570   -9.4257   21.9171 C   0  0  0  0  0  0
  -23.6254   -8.2297   22.0744 C   0  0  0  0  0  0
  -22.4249   -8.0311   21.3535 C   0  0  0  0  0  0
  -21.9878   -9.0256   20.4642 C   0  0  0  0  0  0
  -22.7167  -10.2146   20.3035 C   0  0  0  0  0  0
  -21.6872   -6.0743   22.5264 C   0  0  0  0  0  0
  -21.4030   -6.5624   23.8207 C   0  0  0  0  0  0
  -21.3662   -5.6763   24.9156 C   0  0  0  0  0  0
  -21.6049   -4.3024   24.7192 C   0  0  0  0  0  0
  -21.8826   -3.8129   23.4298 C   0  0  0  0  0  0
  -21.9197   -4.6974   22.3363 C   0  0  0  0  0  0
  -22.7839  -13.5323   21.1769 C   0  0  0  0  0  0
  -22.1676   -4.2158   21.0929 F   0  0  0  0  0  0
  -21.5631   -3.4514   25.7713 F   0  0  0  0  0  0
  -30.0325  -13.2716   20.4387 N   0  0  0  0  0  0
  -26.2977  -12.9376   20.3340 N   0  0  0  0  0  0
  -25.9297  -11.6521   20.5708 N   0  0  0  0  0  0
  -22.0401  -12.8383   22.0307 N   0  0  0  0  0  0
  -25.4274  -15.1893   20.3982 N   0  0  0  0  0  0
  -31.8381  -14.6154   20.0569 O   0  0  0  0  0  0
  -21.6629   -6.8904   21.4243 O   0  0  0  0  0  0
  -22.3578  -14.5642   20.6594 O   0  0  0  0  0  0
  -24.6160  -31.8651   23.2095 C   0  0  0  0  0  0
  -25.9061  -32.4837   23.8405 C   0  0  1  0  0  0
  -27.2436  -27.4371   20.0932 C   0  0  0  0  0  0
  -25.5942  -33.8640   24.2341 N   0  0  0  0  0  0
  -23.4036  -30.4855   21.5520 C   0  0  2  0  0  0
  -24.8437  -28.9419   20.1254 C   0  0  0  0  0  0
  -22.7428  -29.4638   22.5016 C   0  0  0  0  0  0
  -18.0261  -28.1396   22.8507 C   0  0  0  0  0  0
  -24.1483  -36.7236   23.2639 C   0  0  0  0  0  0
  -25.9325  -30.8253   21.3689 C   0  0  0  0  0  0
  -26.0042  -29.4623   20.7119 C   0  0  0  0  0  0
  -27.2011  -28.7160   20.6926 C   0  0  0  0  0  0
  -26.0606  -26.9238   19.5090 C   0  0  0  0  0  0
  -24.8641  -27.6652   19.5313 C   0  0  0  0  0  0
  -23.6107  -29.8099   20.1717 C   0  0  0  0  0  0
  -25.4119  -36.3118   24.0351 C   0  0  1  0  0  0
  -20.5860  -28.3674   23.1315 C   0  0  2  0  0  0
  -20.6778  -26.9421   22.5419 C   0  0  0  0  0  0
  -19.5737  -26.6392   21.5245 C   0  0  0  0  0  0
  -18.1905  -26.7934   22.1644 C   0  0  0  0  0  0
  -19.1521  -28.8857   23.2881 C   0  0  0  0  0  0
  -18.9456  -30.1483   23.8855 C   0  0  0  0  0  0
  -17.6460  -30.6594   24.0575 C   0  0  0  0  0  0
  -25.9052  -34.9482   23.5114 C   0  0  0  0  0  0
  -16.5343  -29.9095   23.6373 C   0  0  0  0  0  0
  -16.7253  -28.6519   23.0370 C   0  0  0  0  0  0
  -26.4497  -31.6658   25.0739 C   0  0  0  0  0  0
  -25.3786  -31.3779   26.1514 C   0  0  0  0  0  0
  -27.0343  -30.3106   24.6113 C   0  0  0  0  0  0
  -27.6013  -32.4468   25.7507 C   0  0  0  0  0  0
  -27.5583  -37.1781   24.8471 C   0  0  0  0  0  0
  -21.4165  -29.3005   22.3723 N   0  0  0  0  0  0
  -26.4297  -37.3813   23.9416 N   0  0  0  0  0  0
  -24.6699  -31.0779   22.0998 N   0  0  0  0  0  0
  -23.4186  -28.8201   23.3080 O   0  0  0  0  0  0
  -28.4462  -26.7610   20.1135 O   0  0  0  0  0  0
  -26.5567  -34.8947   22.4654 O   0  0  0  0  0  0
  -23.5385  -32.1375   23.7517 O   0  0  0  0  0  0
  -29.6829  -19.7756   18.4698 C   0  0  0  0  0  0
  -30.6994  -21.8044   17.5683 C   0  0  0  0  0  0
  -29.4918  -21.8905   19.6756 C   0  0  0  0  0  0
  -30.4143  -20.4290   17.4572 C   0  0  0  0  0  0
  -29.2052  -20.5055   19.5830 C   0  0  0  0  0  0
  -30.2386  -22.5494   18.6721 C   0  0  0  0  0  0
  -30.8720  -19.6576   16.2354 C   0  0  0  0  0  0
  -30.7702  -15.6898   22.6518 C   0  0  0  0  0  0
  -28.3682  -19.8686   20.6974 C   0  0  0  0  0  0
  -30.6159  -24.0315   18.7307 C   0  0  0  0  0  0
  -27.8406  -18.4140   20.5156 C   0  0  0  0  0  0
  -29.9875  -24.9362   19.8147 C   0  0  0  0  0  0
  -28.5423  -17.2931   21.3246 C   0  0  0  0  0  0
  -29.7521  -16.6216   20.6317 C   0  0  0  0  0  0
  -28.5574  -25.4532   19.5409 C   0  0  0  0  0  0
  -30.1707  -15.3946   21.3431 N   0  0  0  0  0  0
  -31.4403  -12.3629   19.1016 H   0  0  0  0  0  0
  -30.2606  -11.2774   19.7854 H   0  0  0  0  0  0
  -29.7163  -11.8231   17.3922 H   0  0  0  0  0  0
  -29.6726  -13.5257   17.7781 H   0  0  0  0  0  0
  -27.7896  -11.3470   18.7530 H   0  0  0  0  0  0
  -27.3622  -12.7235   17.7705 H   0  0  0  0  0  0
  -27.7025  -14.2743   19.6005 H   0  0  0  0  0  0
  -28.6595  -11.9690   21.3623 H   0  0  0  0  0  0
  -28.4619  -13.6272   21.8469 H   0  0  0  0  0  0
  -25.2716   -9.5789   22.4731 H   0  0  0  0  0  0
  -23.9993   -7.4729   22.7462 H   0  0  0  0  0  0
  -21.0827   -8.8700   19.8950 H   0  0  0  0  0  0
  -22.3572  -10.9650   19.6132 H   0  0  0  0  0  0
  -21.2021   -7.6138   23.9714 H   0  0  0  0  0  0
  -21.1491   -6.0478   25.9061 H   0  0  0  0  0  0
  -22.0604   -2.7598   23.2743 H   0  0  0  0  0  0
  -22.3937  -12.0087   22.4838 H   0  0  0  0  0  0
  -21.1018  -13.1488   22.2396 H   0  0  0  0  0  0
  -24.6689  -15.8504   20.5162 H   0  0  0  0  0  0
  -26.2966  -15.6236   20.1141 H   0  0  0  0  0  0
  -26.7085  -32.5524   23.1149 H   0  0  0  0  0  0
  -25.0362  -33.9801   25.0662 H   0  0  0  0  0  0
  -22.6921  -31.3018   21.4150 H   0  0  0  0  0  0
  -23.3809  -35.9505   23.3333 H   0  0  0  0  0  0
  -24.3549  -36.8783   22.2035 H   0  0  0  0  0  0
  -23.7173  -37.6419   23.6624 H   0  0  0  0  0  0
  -26.0641  -31.5979   20.6102 H   0  0  0  0  0  0
  -26.8153  -30.8633   21.9967 H   0  0  0  0  0  0
  -28.0992  -29.1220   21.1386 H   0  0  0  0  0  0
  -26.0427  -25.9501   19.0420 H   0  0  0  0  0  0
  -23.9640  -27.2451   19.1001 H   0  0  0  0  0  0
  -23.7265  -30.5803   19.4070 H   0  0  0  0  0  0
  -22.7358  -29.2253   19.8785 H   0  0  0  0  0  0
  -25.1324  -36.1966   25.0853 H   0  0  0  0  0  0
  -20.9928  -28.3245   24.1446 H   0  0  0  0  0  0
  -20.5739  -26.2304   23.3616 H   0  0  0  0  0  0
  -21.6644  -26.7503   22.1186 H   0  0  0  0  0  0
  -19.6880  -25.6297   21.1286 H   0  0  0  0  0  0
  -19.6675  -27.3200   20.6761 H   0  0  0  0  0  0
  -17.4224  -26.6753   21.3985 H   0  0  0  0  0  0
  -18.0217  -26.0056   22.9002 H   0  0  0  0  0  0
  -19.7931  -30.7334   24.2159 H   0  0  0  0  0  0
  -17.5013  -31.6256   24.5211 H   0  0  0  0  0  0
  -15.5334  -30.2991   23.7697 H   0  0  0  0  0  0
  -15.8664  -28.0829   22.7091 H   0  0  0  0  0  0
  -24.5937  -30.7133   25.7894 H   0  0  0  0  0  0
  -24.9027  -32.2953   26.4982 H   0  0  0  0  0  0
  -25.8180  -30.8974   27.0261 H   0  0  0  0  0  0
  -26.2842  -29.6875   24.1223 H   0  0  0  0  0  0
  -27.4158  -29.7365   25.4561 H   0  0  0  0  0  0
  -27.8699  -30.4414   23.9231 H   0  0  0  0  0  0
  -27.2513  -33.3767   26.2011 H   0  0  0  0  0  0
  -28.3845  -32.7045   25.0364 H   0  0  0  0  0  0
  -28.0656  -31.8695   26.5501 H   0  0  0  0  0  0
  -28.2641  -38.0052   24.7605 H   0  0  0  0  0  0
  -28.1084  -36.2613   24.6278 H   0  0  0  0  0  0
  -27.2311  -37.1366   25.8876 H   0  0  0  0  0  0
  -20.9365  -29.8673   21.6889 H   0  0  0  0  0  0
  -26.0200  -38.2886   24.1478 H   0  0  0  0  0  0
  -29.4816  -18.7193   18.3635 H   0  0  0  0  0  0
  -31.2739  -22.2963   16.7939 H   0  0  0  0  0  0
  -29.1323  -22.4424   20.5287 H   0  0  0  0  0  0
  -31.7514  -19.0542   16.4585 H   0  0  0  0  0  0
  -31.1226  -20.3321   15.4143 H   0  0  0  0  0  0
  -30.0807  -18.9926   15.8875 H   0  0  0  0  0  0
  -29.9958  -15.9093   23.3915 H   0  0  0  0  0  0
  -31.4403  -16.5515   22.6064 H   0  0  0  0  0  0
  -31.3546  -14.8497   23.0332 H   0  0  0  0  0  0
  -27.4888  -20.5129   20.7939 H   0  0  0  0  0  0
  -28.9091  -19.9759   21.6383 H   0  0  0  0  0  0
  -30.4378  -24.4777   17.7513 H   0  0  0  0  0  0
  -31.6981  -24.0522   18.8645 H   0  0  0  0  0  0
  -27.6933  -18.1436   19.4709 H   0  0  0  0  0  0
  -26.8265  -18.4263   20.9170 H   0  0  0  0  0  0
  -30.6277  -25.8180   19.8597 H   0  0  0  0  0  0
  -30.0644  -24.4963   20.8097 H   0  0  0  0  0  0
  -27.8032  -16.5131   21.5362 H   0  0  0  0  0  0
  -28.8298  -17.6921   22.3031 H   0  0  0  0  0  0
  -30.5873  -17.3227   20.5471 H   0  0  0  0  0  0
  -29.4693  -16.3615   19.6031 H   0  0  0  0  0  0
  -27.8320  -24.7658   19.9774 H   0  0  0  0  0  0
  -28.3671  -25.5232   18.4703 H   0  0  0  0  0  0
  1 25  1  0  0  0
  1 30  2  0  0  0
  1 86  1  0  0  0
  2  3  1  0  0  0
  2 25  1  0  0  0
  2 87  1  0  0  0
  2 88  1  0  0  0
  3  4  1  0  0  0
  3 89  1  0  0  0
  3 90  1  0  0  0
  4  5  1  0  0  0
  4 91  1  0  0  0
  4 92  1  0  0  0
  5  6  1  0  0  0
  5 26  1  0  0  0
  5 93  1  0  0  0
  6 25  1  0  0  0
  6 94  1  0  0  0
  6 95  1  0  0  0
  7  8  2  0  0  0
  7 26  1  0  0  0
  7 29  1  0  0  0
  8  9  1  0  0  0
  8 22  1  0  0  0
  9 10  1  0  0  0
  9 27  2  0  0  0
 10 11  2  0  0  0
 10 15  1  0  0  0
 11 12  1  0  0  0
 11 96  1  0  0  0
 12 13  2  0  0  0
 12 97  1  0  0  0
 13 14  1  0  0  0
 13 31  1  0  0  0
 14 15  2  0  0  0
 14 98  1  0  0  0
 15 99  1  0  0  0
 16 17  2  0  0  0
 16 21  1  0  0  0
 16 31  1  0  0  0
 17 18  1  0  0  0
 17100  1  0  0  0
 18 19  2  0  0  0
 18101  1  0  0  0
 19 20  1  0  0  0
 19 24  1  0  0  0
 20 21  2  0  0  0
 20102  1  0  0  0
 21 23  1  0  0  0
 22 28  1  0  0  0
 22 32  2  0  0  0
 26 27  1  0  0  0
 28103  1  0  0  0
 28104  1  0  0  0
 29105  1  0  0  0
 29106  1  0  0  0
 33 34  1  0  0  0
 33 66  1  0  0  0
 33 70  2  0  0  0
 34 36  1  0  0  0
 34 59  1  0  0  0
 34107  1  0  0  0
 35 44  2  0  0  0
 35 45  1  0  0  0
 35 68  1  0  0  0
 36 56  1  0  0  0
 36108  1  0  0  0
 37 39  1  0  0  0
 37 47  1  0  0  0
 37 66  1  0  0  0
 37109  1  0  0  0
 38 43  2  0  0  0
 38 46  1  0  0  0
 38 47  1  0  0  0
 39 64  1  0  0  0
 39 67  2  0  0  0
 40 52  1  0  0  0
 40 53  2  0  0  0
 40 58  1  0  0  0
 41110  1  0  0  0
 41111  1  0  0  0
 41112  1  0  0  0
 41 48  1  0  0  0
 42 43  1  0  0  0
 42 66  1  0  0  0
 42113  1  0  0  0
 42114  1  0  0  0
 43 44  1  0  0  0
 44115  1  0  0  0
 45 46  2  0  0  0
 45116  1  0  0  0
 46117  1  0  0  0
 47118  1  0  0  0
 47119  1  0  0  0
 48 56  1  0  0  0
 48 65  1  0  0  0
 48120  1  0  0  0
 49 50  1  0  0  0
 49 53  1  0  0  0
 49 64  1  0  0  0
 49121  1  0  0  0
 50 51  1  0  0  0
 50122  1  0  0  0
 50123  1  0  0  0
 51 52  1  0  0  0
 51124  1  0  0  0
 51125  1  0  0  0
 52126  1  0  0  0
 52127  1  0  0  0
 53 54  1  0  0  0
 54 55  2  0  0  0
 54128  1  0  0  0
 55 57  1  0  0  0
 55129  1  0  0  0
 56 69  2  0  0  0
 57 58  2  0  0  0
 57130  1  0  0  0
 58131  1  0  0  0
 59 60  1  0  0  0
 59 61  1  0  0  0
 59 62  1  0  0  0
 60132  1  0  0  0
 60133  1  0  0  0
 60134  1  0  0  0
 61135  1  0  0  0
 61136  1  0  0  0
 61137  1  0  0  0
 62138  1  0  0  0
 62139  1  0  0  0
 62140  1  0  0  0
 63 65  1  0  0  0
 63141  1  0  0  0
 63142  1  0  0  0
 63143  1  0  0  0
 64144  1  0  0  0
 65145  1  0  0  0
 68 85  1  0  0  0
 71 74  2  0  0  0
 71 75  1  0  0  0
 71146  1  0  0  0
 72 74  1  0  0  0
 72 76  2  0  0  0
 72147  1  0  0  0
 73 75  2  0  0  0
 73 76  1  0  0  0
 73148  1  0  0  0
 74 77  1  0  0  0
 75 79  1  0  0  0
 76 80  1  0  0  0
 77149  1  0  0  0
 77150  1  0  0  0
 77151  1  0  0  0
 78 86  1  0  0  0
 78152  1  0  0  0
 78153  1  0  0  0
 78154  1  0  0  0
 79 81  1  0  0  0
 79155  1  0  0  0
 79156  1  0  0  0
 80 82  1  0  0  0
 80157  1  0  0  0
 80158  1  0  0  0
 81 83  1  0  0  0
 81159  1  0  0  0
 81160  1  0  0  0
 82 85  1  0  0  0
 82161  1  0  0  0
 82162  1  0  0  0
 83 84  1  0  0  0
 83163  1  0  0  0
 83164  1  0  0  0
 84 86  1  0  0  0
 84165  1  0  0  0
 84166  1  0  0  0
 85167  1  0  0  0
 85168  1  0  0  0
M  ISO  4   1 100  68 101  85 101  86 100
M  END
> <chiral flag>
0

> <version>
0

> <s_m_source_file>
/data/baiqing/PycharmProjects/Reinvent-master-3.2/result/LINK_invent/BTK/process_docking_weight1_custom_sum_contain_oxygen_bond_distance_aromatic_linkinvent_7_9_3/rearranged_h_0037.sdf

> <i_m_source_file_index>
70

> <r_mmod_Potential_Energy-OPLS-2005>
133.83219909668

> <r_mmod_Stretch_Energy-OPLS-2005>
38.3291702270508

> <r_mmod_Bend_Energy-OPLS-2005>
124.424003601074

> <r_mmod_Torsional_Energy-OPLS-2005>
293.744201660156

> <r_mmod_Improper_Torsional_Energy-OPLS-2005>
6.01631879806519

> <r_mmod_Van_der_Waal_Energy-OPLS-2005>
146.736938476562

> <r_mmod_Electrostatic_Energy-OPLS-2005>
-300.237335205078

> <r_mmod_Solvation_Energy-OPLS-2005>
-186.276321411133

> <b_mmod_Minimization_Converged-OPLS-2005>
0

> <r_mmod_RMS_Derivative-OPLS-2005>
6.08797740936279

$$$$
70
                    3D
 Structure written by MMmdl.
171179  0  0  1  0            999 V2000
  -30.6766  -14.4355   20.5441 C   0  0  0  0  0  0
  -30.4182  -12.2720   19.4200 C   0  0  0  0  0  0
  -29.4954  -12.5176   18.2069 C   0  0  0  0  0  0
  -28.0130  -12.3773   18.6083 C   0  0  0  0  0  0
  -27.6628  -13.1967   19.8800 C   0  0  2  0  0  0
  -28.7009  -12.9462   20.9999 C   0  0  0  0  0  0
  -25.2591  -13.8152   20.5632 C   0  0  0  0  0  0
  -24.1829  -13.0447   20.9131 C   0  0  0  0  0  0
  -24.6357  -11.6910   20.8694 C   0  0  0  0  0  0
  -23.9005  -10.4317   21.0367 C   0  0  0  0  0  0
  -24.3587   -9.4244   21.9139 C   0  0  0  0  0  0
  -23.6298   -8.2259   22.0729 C   0  0  0  0  0  0
  -22.4273   -8.0277   21.3529 C   0  0  0  0  0  0
  -21.9878   -9.0228   20.4626 C   0  0  0  0  0  0
  -22.7173  -10.2128   20.3025 C   0  0  0  0  0  0
  -21.6862   -6.0719   22.5267 C   0  0  0  0  0  0
  -21.4017   -6.5622   23.8197 C   0  0  0  0  0  0
  -21.3675   -5.6777   24.9164 C   0  0  0  0  0  0
  -21.6049   -4.3038   24.7211 C   0  0  0  0  0  0
  -21.8830   -3.8129   23.4335 C   0  0  0  0  0  0
  -21.9208   -4.6948   22.3391 C   0  0  0  0  0  0
  -22.7860  -13.5256   21.1796 C   0  0  0  0  0  0
  -22.1669   -4.2130   21.0968 F   0  0  0  0  0  0
  -21.5639   -3.4526   25.7725 F   0  0  0  0  0  0
  -30.0417  -13.2383   20.4604 N   0  0  0  0  0  0
  -26.3018  -12.9291   20.3358 N   0  0  0  0  0  0
  -25.9280  -11.6458   20.5729 N   0  0  0  0  0  0
  -22.0482  -12.8293   22.0376 N   0  0  0  0  0  0
  -25.4340  -15.1873   20.4055 N   0  0  0  0  0  0
  -31.7958  -14.6521   20.0701 O   0  0  0  0  0  0
  -21.6656   -6.8857   21.4228 O   0  0  0  0  0  0
  -22.3546  -14.5540   20.6611 O   0  0  0  0  0  0
  -24.6122  -31.8676   23.2079 C   0  0  0  0  0  0
  -25.9016  -32.4824   23.8370 C   0  0  1  0  0  0
  -27.2492  -27.4522   20.0929 C   0  0  0  0  0  0
  -25.5866  -33.8614   24.2299 N   0  0  0  0  0  0
  -23.4002  -30.4881   21.5480 C   0  0  2  0  0  0
  -24.8486  -28.9458   20.1255 C   0  0  0  0  0  0
  -22.7398  -29.4653   22.5002 C   0  0  0  0  0  0
  -18.0263  -28.1389   22.8496 C   0  0  0  0  0  0
  -24.1486  -36.7311   23.2639 C   0  0  0  0  0  0
  -25.9280  -30.8373   21.3605 C   0  0  0  0  0  0
  -26.0071  -29.4720   20.7079 C   0  0  0  0  0  0
  -27.2102  -28.7353   20.6792 C   0  0  0  0  0  0
  -26.0682  -26.9233   19.5247 C   0  0  0  0  0  0
  -24.8719  -27.6687   19.5342 C   0  0  0  0  0  0
  -23.6090  -29.8101   20.1682 C   0  0  0  0  0  0
  -25.4106  -36.3099   24.0340 C   0  0  1  0  0  0
  -20.5856  -28.3663   23.1333 C   0  0  2  0  0  0
  -20.6761  -26.9406   22.5425 C   0  0  0  0  0  0
  -19.5744  -26.6389   21.5222 C   0  0  0  0  0  0
  -18.1917  -26.7943   22.1622 C   0  0  0  0  0  0
  -19.1522  -28.8840   23.2915 C   0  0  0  0  0  0
  -18.9448  -30.1451   23.8920 C   0  0  0  0  0  0
  -17.6459  -30.6597   24.0571 C   0  0  0  0  0  0
  -25.9027  -34.9473   23.5120 C   0  0  0  0  0  0
  -16.5342  -29.9104   23.6331 C   0  0  0  0  0  0
  -16.7260  -28.6521   23.0347 C   0  0  0  0  0  0
  -26.4456  -31.6618   25.0705 C   0  0  0  0  0  0
  -25.3712  -31.3752   26.1447 C   0  0  0  0  0  0
  -27.0288  -30.3052   24.6108 C   0  0  0  0  0  0
  -27.6021  -32.4354   25.7463 C   0  0  0  0  0  0
  -27.5596  -37.1792   24.8452 C   0  0  0  0  0  0
  -21.4129  -29.3029   22.3732 N   0  0  0  0  0  0
  -26.4291  -37.3786   23.9421 N   0  0  0  0  0  0
  -24.6644  -31.0787   22.0972 N   0  0  0  0  0  0
  -23.4171  -28.8211   23.3050 O   0  0  0  0  0  0
  -28.4527  -26.7878   20.0355 O   0  0  0  0  0  0
  -26.5605  -34.8932   22.4692 O   0  0  0  0  0  0
  -23.5320  -32.1425   23.7484 O   0  0  0  0  0  0
  -30.3858  -23.8346   22.5230 C   0  0  0  0  0  0
  -30.7457  -22.5091   20.5222 C   0  0  0  0  0  0
  -30.3373  -23.7191   21.1233 C   0  0  0  0  0  0
  -30.8495  -22.7729   23.3249 C   0  0  0  0  0  0
  -31.2380  -21.4366   21.3039 C   0  0  0  0  0  0
  -31.2908  -21.5622   22.7205 C   0  0  0  0  0  0
  -29.4779  -22.7140   25.4459 C   0  0  0  0  0  0
  -33.3451  -20.5608   23.8497 C   0  0  0  0  0  0
  -29.9583  -24.9412   20.2897 C   0  0  0  0  0  0
  -30.8543  -22.9928   24.8323 C   0  0  0  0  0  0
  -31.7510  -20.1903   20.5750 C   0  0  0  0  0  0
  -31.8384  -20.4228   23.5817 C   0  0  0  0  0  0
  -30.6554  -19.1577   20.2401 C   0  0  0  0  0  0
  -30.8574  -17.7656   20.8783 C   0  0  0  0  0  0
  -29.8503  -16.7565   20.3084 C   0  0  0  0  0  0
  -28.4875  -25.4049   20.3974 C   0  0  0  0  0  0
  -29.8844  -15.4382   20.9423 N   0  0  0  0  0  0
  -31.4657  -12.3646   19.1262 H   0  0  0  0  0  0
  -30.2988  -11.2536   19.7906 H   0  0  0  0  0  0
  -29.7355  -11.8266   17.3982 H   0  0  0  0  0  0
  -29.6719  -13.5202   17.8134 H   0  0  0  0  0  0
  -27.8113  -11.3195   18.7766 H   0  0  0  0  0  0
  -27.3729  -12.6806   17.7787 H   0  0  0  0  0  0
  -27.7110  -14.2488   19.5991 H   0  0  0  0  0  0
  -28.6594  -11.9059   21.3239 H   0  0  0  0  0  0
  -28.4697  -13.5354   21.8886 H   0  0  0  0  0  0
  -25.2734   -9.5755   22.4702 H   0  0  0  0  0  0
  -24.0032   -7.4660   22.7451 H   0  0  0  0  0  0
  -21.0799   -8.8720   19.8939 H   0  0  0  0  0  0
  -22.3599  -10.9651   19.6137 H   0  0  0  0  0  0
  -21.1988   -7.6128   23.9691 H   0  0  0  0  0  0
  -21.1492   -6.0501   25.9063 H   0  0  0  0  0  0
  -22.0599   -2.7589   23.2833 H   0  0  0  0  0  0
  -22.4116  -12.0035   22.4894 H   0  0  0  0  0  0
  -21.1060  -13.1294   22.2448 H   0  0  0  0  0  0
  -24.6609  -15.8395   20.4794 H   0  0  0  0  0  0
  -26.2961  -15.6297   20.1131 H   0  0  0  0  0  0
  -26.7082  -32.5527   23.1126 H   0  0  0  0  0  0
  -24.9985  -33.9768   25.0426 H   0  0  0  0  0  0
  -22.6887  -31.3036   21.4036 H   0  0  0  0  0  0
  -23.3751  -35.9639   23.3280 H   0  0  0  0  0  0
  -24.3587  -36.8946   22.2058 H   0  0  0  0  0  0
  -23.7243  -37.6510   23.6668 H   0  0  0  0  0  0
  -26.0444  -31.6064   20.5944 H   0  0  0  0  0  0
  -26.8132  -30.8846   21.9830 H   0  0  0  0  0  0
  -28.1145  -29.1504   21.1022 H   0  0  0  0  0  0
  -26.0705  -25.9514   19.0530 H   0  0  0  0  0  0
  -23.9773  -27.2577   19.0867 H   0  0  0  0  0  0
  -23.7158  -30.5768   19.4002 H   0  0  0  0  0  0
  -22.7363  -29.2231   19.8773 H   0  0  0  0  0  0
  -25.1291  -36.1944   25.0836 H   0  0  0  0  0  0
  -20.9945  -28.3222   24.1454 H   0  0  0  0  0  0
  -20.5670  -26.2265   23.3604 H   0  0  0  0  0  0
  -21.6633  -26.7453   22.1214 H   0  0  0  0  0  0
  -19.6901  -25.6298   21.1247 H   0  0  0  0  0  0
  -19.6702  -27.3201   20.6759 H   0  0  0  0  0  0
  -17.4198  -26.6698   21.4014 H   0  0  0  0  0  0
  -18.0305  -26.0086   22.9011 H   0  0  0  0  0  0
  -19.7927  -30.7262   24.2292 H   0  0  0  0  0  0
  -17.5017  -31.6280   24.5169 H   0  0  0  0  0  0
  -15.5351  -30.3017   23.7655 H   0  0  0  0  0  0
  -15.8652  -28.0856   22.7051 H   0  0  0  0  0  0
  -24.5844  -30.7159   25.7770 H   0  0  0  0  0  0
  -24.8956  -32.2931   26.4907 H   0  0  0  0  0  0
  -25.8035  -30.8882   27.0195 H   0  0  0  0  0  0
  -26.2841  -29.6811   24.1152 H   0  0  0  0  0  0
  -27.4031  -29.7297   25.4585 H   0  0  0  0  0  0
  -27.8685  -30.4354   23.9278 H   0  0  0  0  0  0
  -27.2613  -33.3624   26.2086 H   0  0  0  0  0  0
  -28.3793  -32.6978   25.0272 H   0  0  0  0  0  0
  -28.0735  -31.8467   26.5339 H   0  0  0  0  0  0
  -28.2570  -38.0131   24.7551 H   0  0  0  0  0  0
  -28.1139  -36.2667   24.6197 H   0  0  0  0  0  0
  -27.2329  -37.1341   25.8855 H   0  0  0  0  0  0
  -20.9279  -29.8715   21.6934 H   0  0  0  0  0  0
  -26.0178  -38.2859   24.1440 H   0  0  0  0  0  0
  -30.0865  -24.7628   22.9919 H   0  0  0  0  0  0
  -30.7246  -22.4138   19.4447 H   0  0  0  0  0  0
  -29.5047  -22.8218   26.5304 H   0  0  0  0  0  0
  -29.1418  -21.7028   25.2157 H   0  0  0  0  0  0
  -28.7306  -23.4084   25.0606 H   0  0  0  0  0  0
  -33.7086  -19.7261   24.4491 H   0  0  0  0  0  0
  -33.5748  -21.4801   24.3885 H   0  0  0  0  0  0
  -33.9134  -20.5716   22.9187 H   0  0  0  0  0  0
  -30.2201  -24.7777   19.2438 H   0  0  0  0  0  0
  -30.6067  -25.7503   20.6281 H   0  0  0  0  0  0
  -31.1319  -24.0281   25.0377 H   0  0  0  0  0  0
  -31.6166  -22.3935   25.3257 H   0  0  0  0  0  0
  -32.5730  -19.7216   21.1143 H   0  0  0  0  0  0
  -32.2105  -20.5241   19.6431 H   0  0  0  0  0  0
  -31.6464  -19.4626   23.1121 H   0  0  0  0  0  0
  -31.2900  -20.3602   24.5199 H   0  0  0  0  0  0
  -30.6297  -19.0359   19.1556 H   0  0  0  0  0  0
  -29.6721  -19.5488   20.5086 H   0  0  0  0  0  0
  -30.7405  -17.8233   21.9594 H   0  0  0  0  0  0
  -31.8727  -17.4100   20.6882 H   0  0  0  0  0  0
  -30.0062  -16.6469   19.2323 H   0  0  0  0  0  0
  -28.8383  -17.1464   20.4198 H   0  0  0  0  0  0
  -28.1277  -25.3126   21.4229 H   0  0  0  0  0  0
  -27.8509  -24.7853   19.7643 H   0  0  0  0  0  0
  -29.0265  -15.1497   21.3896 H   0  0  0  0  0  0
  1 25  1  0  0  0
  1 30  2  0  0  0
  1 87  1  0  0  0
  2  3  1  0  0  0
  2 25  1  0  0  0
  2 88  1  0  0  0
  2 89  1  0  0  0
  3  4  1  0  0  0
  3 90  1  0  0  0
  3 91  1  0  0  0
  4  5  1  0  0  0
  4 92  1  0  0  0
  4 93  1  0  0  0
  5  6  1  0  0  0
  5 26  1  0  0  0
  5 94  1  0  0  0
  6 25  1  0  0  0
  6 95  1  0  0  0
  6 96  1  0  0  0
  7  8  2  0  0  0
  7 26  1  0  0  0
  7 29  1  0  0  0
  8  9  1  0  0  0
  8 22  1  0  0  0
  9 10  1  0  0  0
  9 27  2  0  0  0
 10 11  2  0  0  0
 10 15  1  0  0  0
 11 12  1  0  0  0
 11 97  1  0  0  0
 12 13  2  0  0  0
 12 98  1  0  0  0
 13 14  1  0  0  0
 13 31  1  0  0  0
 14 15  2  0  0  0
 14 99  1  0  0  0
 15100  1  0  0  0
 16 17  2  0  0  0
 16 21  1  0  0  0
 16 31  1  0  0  0
 17 18  1  0  0  0
 17101  1  0  0  0
 18 19  2  0  0  0
 18102  1  0  0  0
 19 20  1  0  0  0
 19 24  1  0  0  0
 20 21  2  0  0  0
 20103  1  0  0  0
 21 23  1  0  0  0
 22 28  1  0  0  0
 22 32  2  0  0  0
 26 27  1  0  0  0
 28104  1  0  0  0
 28105  1  0  0  0
 29106  1  0  0  0
 29107  1  0  0  0
 33 34  1  0  0  0
 33 66  1  0  0  0
 33 70  2  0  0  0
 34 36  1  0  0  0
 34 59  1  0  0  0
 34108  1  0  0  0
 35 44  2  0  0  0
 35 45  1  0  0  0
 35 68  1  0  0  0
 36 56  1  0  0  0
 36109  1  0  0  0
 37 39  1  0  0  0
 37 47  1  0  0  0
 37 66  1  0  0  0
 37110  1  0  0  0
 38 43  2  0  0  0
 38 46  1  0  0  0
 38 47  1  0  0  0
 39 64  1  0  0  0
 39 67  2  0  0  0
 40 52  1  0  0  0
 40 53  2  0  0  0
 40 58  1  0  0  0
 41111  1  0  0  0
 41112  1  0  0  0
 41113  1  0  0  0
 41 48  1  0  0  0
 42 43  1  0  0  0
 42 66  1  0  0  0
 42114  1  0  0  0
 42115  1  0  0  0
 43 44  1  0  0  0
 44116  1  0  0  0
 45 46  2  0  0  0
 45117  1  0  0  0
 46118  1  0  0  0
 47119  1  0  0  0
 47120  1  0  0  0
 48 56  1  0  0  0
 48 65  1  0  0  0
 48121  1  0  0  0
 49 50  1  0  0  0
 49 53  1  0  0  0
 49 64  1  0  0  0
 49122  1  0  0  0
 50 51  1  0  0  0
 50123  1  0  0  0
 50124  1  0  0  0
 51 52  1  0  0  0
 51125  1  0  0  0
 51126  1  0  0  0
 52127  1  0  0  0
 52128  1  0  0  0
 53 54  1  0  0  0
 54 55  2  0  0  0
 54129  1  0  0  0
 55 57  1  0  0  0
 55130  1  0  0  0
 56 69  2  0  0  0
 57 58  2  0  0  0
 57131  1  0  0  0
 58132  1  0  0  0
 59 60  1  0  0  0
 59 61  1  0  0  0
 59 62  1  0  0  0
 60133  1  0  0  0
 60134  1  0  0  0
 60135  1  0  0  0
 61136  1  0  0  0
 61137  1  0  0  0
 61138  1  0  0  0
 62139  1  0  0  0
 62140  1  0  0  0
 62141  1  0  0  0
 63 65  1  0  0  0
 63142  1  0  0  0
 63143  1  0  0  0
 63144  1  0  0  0
 64145  1  0  0  0
 65146  1  0  0  0
 68 86  1  0  0  0
 71 73  2  0  0  0
 71 74  1  0  0  0
 71147  1  0  0  0
 72 73  1  0  0  0
 72 75  2  0  0  0
 72148  1  0  0  0
 73 79  1  0  0  0
 74 76  2  0  0  0
 74 80  1  0  0  0
 75 76  1  0  0  0
 75 81  1  0  0  0
 76 82  1  0  0  0
 77 80  1  0  0  0
 77149  1  0  0  0
 77150  1  0  0  0
 77151  1  0  0  0
 78 82  1  0  0  0
 78152  1  0  0  0
 78153  1  0  0  0
 78154  1  0  0  0
 79 86  1  0  0  0
 79155  1  0  0  0
 79156  1  0  0  0
 80157  1  0  0  0
 80158  1  0  0  0
 81 83  1  0  0  0
 81159  1  0  0  0
 81160  1  0  0  0
 82161  1  0  0  0
 82162  1  0  0  0
 83 84  1  0  0  0
 83163  1  0  0  0
 83164  1  0  0  0
 84 85  1  0  0  0
 84165  1  0  0  0
 84166  1  0  0  0
 85 87  1  0  0  0
 85167  1  0  0  0
 85168  1  0  0  0
 86169  1  0  0  0
 86170  1  0  0  0
 87171  1  0  0  0
M  ISO  4   1 100  68 101  86 101  87 100
M  END
> <chiral flag>
0

> <version>
0

> <s_m_source_file>
/data/baiqing/PycharmProjects/Reinvent-master-3.2/result/LINK_invent/BTK/process_docking_weight1_custom_sum_contain_oxygen_bond_distance_aromatic_linkinvent_7_9_3/rearranged_h_0037.sdf

> <i_m_source_file_index>
71

> <r_mmod_Potential_Energy-OPLS-2005>
-50.4081878662109

> <r_mmod_Stretch_Energy-OPLS-2005>
35.637622833252

> <r_mmod_Bend_Energy-OPLS-2005>
95.9810180664062

> <r_mmod_Torsional_Energy-OPLS-2005>
240.810073852539

> <r_mmod_Improper_Torsional_Energy-OPLS-2005>
8.84513568878174

> <r_mmod_Van_der_Waal_Energy-OPLS-2005>
151.92236328125

> <r_mmod_Electrostatic_Energy-OPLS-2005>
-392.220611572266

> <r_mmod_Solvation_Energy-OPLS-2005>
-202.100662231445

> <b_mmod_Minimization_Converged-OPLS-2005>
0

> <r_mmod_RMS_Derivative-OPLS-2005>
2.45824003219604

$$$$
71
                    3D
 Structure written by MMmdl.
159167  0  0  1  0            999 V2000
  -30.7121  -14.4812   20.5537 C   0  0  0  0  0  0
  -30.4259  -12.2955   19.4492 C   0  0  0  0  0  0
  -29.5080  -12.4564   18.2191 C   0  0  0  0  0  0
  -28.0273  -12.3298   18.6317 C   0  0  0  0  0  0
  -27.6618  -13.2030   19.8612 C   0  0  2  0  0  0
  -28.6985  -13.0269   20.9923 C   0  0  0  0  0  0
  -25.2615  -13.8186   20.5659 C   0  0  0  0  0  0
  -24.1861  -13.0479   20.9187 C   0  0  0  0  0  0
  -24.6401  -11.6944   20.8760 C   0  0  0  0  0  0
  -23.9053  -10.4341   21.0425 C   0  0  0  0  0  0
  -24.3640   -9.4249   21.9189 C   0  0  0  0  0  0
  -23.6340   -8.2270   22.0749 C   0  0  0  0  0  0
  -22.4300   -8.0312   21.3539 C   0  0  0  0  0  0
  -21.9912   -9.0276   20.4646 C   0  0  0  0  0  0
  -22.7233  -10.2170   20.3075 C   0  0  0  0  0  0
  -21.6878   -6.0758   22.5274 C   0  0  0  0  0  0
  -21.4037   -6.5652   23.8202 C   0  0  0  0  0  0
  -21.3677   -5.6784   24.9151 C   0  0  0  0  0  0
  -21.6063   -4.3045   24.7196 C   0  0  0  0  0  0
  -21.8823   -3.8162   23.4304 C   0  0  0  0  0  0
  -21.9208   -4.6990   22.3379 C   0  0  0  0  0  0
  -22.7863  -13.5285   21.1808 C   0  0  0  0  0  0
  -22.1648   -4.2175   21.0948 F   0  0  0  0  0  0
  -21.5627   -3.4533   25.7706 F   0  0  0  0  0  0
  -30.0310  -13.3091   20.4380 N   0  0  0  0  0  0
  -26.3018  -12.9334   20.3271 N   0  0  0  0  0  0
  -25.9322  -11.6506   20.5765 N   0  0  0  0  0  0
  -22.0455  -12.8324   22.0370 N   0  0  0  0  0  0
  -25.4336  -15.1907   20.4092 N   0  0  0  0  0  0
  -31.8574  -14.6288   20.1191 O   0  0  0  0  0  0
  -21.6667   -6.8912   21.4243 O   0  0  0  0  0  0
  -22.3568  -14.5566   20.6612 O   0  0  0  0  0  0
  -24.6123  -31.8687   23.2102 C   0  0  0  0  0  0
  -25.9010  -32.4828   23.8412 C   0  0  1  0  0  0
  -27.2477  -27.4437   20.0806 C   0  0  0  0  0  0
  -25.5896  -33.8630   24.2344 N   0  0  0  0  0  0
  -23.3997  -30.4933   21.5496 C   0  0  2  0  0  0
  -24.8447  -28.9557   20.1149 C   0  0  0  0  0  0
  -22.7398  -29.4659   22.4972 C   0  0  0  0  0  0
  -18.0282  -28.1375   22.8478 C   0  0  0  0  0  0
  -24.1490  -36.7329   23.2632 C   0  0  0  0  0  0
  -25.9279  -30.8344   21.3619 C   0  0  0  0  0  0
  -26.0037  -29.4698   20.7068 C   0  0  0  0  0  0
  -27.2008  -28.7226   20.6846 C   0  0  0  0  0  0
  -26.0580  -26.9284   19.5128 C   0  0  0  0  0  0
  -24.8666  -27.6822   19.5210 C   0  0  0  0  0  0
  -23.6081  -29.8261   20.1638 C   0  0  0  0  0  0
  -25.4104  -36.3117   24.0344 C   0  0  1  0  0  0
  -20.5864  -28.3654   23.1301 C   0  0  2  0  0  0
  -20.6764  -26.9392   22.5381 C   0  0  0  0  0  0
  -19.5734  -26.6379   21.5188 C   0  0  0  0  0  0
  -18.1929  -26.7916   22.1615 C   0  0  0  0  0  0
  -19.1529  -28.8834   23.2887 C   0  0  0  0  0  0
  -18.9455  -30.1444   23.8893 C   0  0  0  0  0  0
  -17.6456  -30.6581   24.0552 C   0  0  0  0  0  0
  -25.9037  -34.9478   23.5140 C   0  0  0  0  0  0
  -16.5344  -29.9079   23.6321 C   0  0  0  0  0  0
  -16.7274  -28.6500   23.0327 C   0  0  0  0  0  0
  -26.4441  -31.6606   25.0737 C   0  0  0  0  0  0
  -25.3729  -31.3711   26.1512 C   0  0  0  0  0  0
  -27.0268  -30.3058   24.6098 C   0  0  0  0  0  0
  -27.6043  -32.4314   25.7483 C   0  0  0  0  0  0
  -27.5587  -37.1813   24.8461 C   0  0  0  0  0  0
  -21.4131  -29.3026   22.3712 N   0  0  0  0  0  0
  -26.4294  -37.3795   23.9412 N   0  0  0  0  0  0
  -24.6650  -31.0796   22.0993 N   0  0  0  0  0  0
  -23.4189  -28.8202   23.2997 O   0  0  0  0  0  0
  -28.4649  -26.7848   20.0816 O   0  0  0  0  0  0
  -26.5584  -34.8924   22.4694 O   0  0  0  0  0  0
  -23.5322  -32.1446   23.7509 O   0  0  0  0  0  0
  -28.8617  -20.2040   18.7364 C   0  0  0  0  0  0
  -29.0927  -18.9584   18.1312 C   0  0  0  0  0  0
  -29.5890  -19.2781   20.8569 C   0  0  0  0  0  0
  -29.1051  -20.3858   20.1141 C   0  0  0  0  0  0
  -29.5783  -17.8617   18.8702 C   0  0  0  0  0  0
  -29.8406  -18.0122   20.2622 C   0  0  0  0  0  0
  -29.8261  -16.5725   18.1052 C   0  0  0  0  0  0
  -28.8615  -21.7453   20.7976 C   0  0  0  0  0  0
  -30.4847  -16.9139   21.1390 C   0  0  0  0  0  0
  -28.7509  -22.9596   19.8325 C   0  0  0  0  0  0
  -28.6135  -24.3513   20.4974 C   0  0  0  0  0  0
  -28.6350  -25.5026   19.4646 C   0  0  0  0  0  0
  -30.0010  -15.5286   21.0128 N   0  0  0  0  0  0
  -31.4754  -12.3749   19.1616 H   0  0  0  0  0  0
  -30.3158  -11.2986   19.8820 H   0  0  0  0  0  0
  -29.7428  -11.6908   17.4769 H   0  0  0  0  0  0
  -29.6827  -13.4170   17.7330 H   0  0  0  0  0  0
  -27.8509  -11.2794   18.8656 H   0  0  0  0  0  0
  -27.3757  -12.5624   17.7890 H   0  0  0  0  0  0
  -27.6956  -14.2410   19.5300 H   0  0  0  0  0  0
  -28.6690  -12.0065   21.3785 H   0  0  0  0  0  0
  -28.4555  -13.6700   21.8391 H   0  0  0  0  0  0
  -25.2808   -9.5739   22.4720 H   0  0  0  0  0  0
  -24.0065   -7.4685   22.7479 H   0  0  0  0  0  0
  -21.0810   -8.8810   19.8994 H   0  0  0  0  0  0
  -22.3680  -10.9702   19.6177 H   0  0  0  0  0  0
  -21.2018   -7.6156   23.9706 H   0  0  0  0  0  0
  -21.1486   -6.0501   25.9043 H   0  0  0  0  0  0
  -22.0592   -2.7634   23.2775 H   0  0  0  0  0  0
  -22.4066  -12.0024   22.4842 H   0  0  0  0  0  0
  -21.1071  -13.1352   22.2545 H   0  0  0  0  0  0
  -24.6743  -15.8473   20.5568 H   0  0  0  0  0  0
  -26.2876  -15.6343   20.0940 H   0  0  0  0  0  0
  -26.7069  -32.5536   23.1168 H   0  0  0  0  0  0
  -25.0039  -33.9794   25.0486 H   0  0  0  0  0  0
  -22.6872  -31.3094   21.4118 H   0  0  0  0  0  0
  -23.3753  -35.9662   23.3279 H   0  0  0  0  0  0
  -24.3589  -36.8953   22.2049 H   0  0  0  0  0  0
  -23.7244  -37.6535   23.6649 H   0  0  0  0  0  0
  -26.0411  -31.6024   20.5959 H   0  0  0  0  0  0
  -26.8152  -30.8817   21.9825 H   0  0  0  0  0  0
  -28.0993  -29.1293   21.1272 H   0  0  0  0  0  0
  -26.0138  -25.9510   19.0587 H   0  0  0  0  0  0
  -23.9712  -27.2715   19.0753 H   0  0  0  0  0  0
  -23.7208  -30.6042   19.4075 H   0  0  0  0  0  0
  -22.7310  -29.2494   19.8635 H   0  0  0  0  0  0
  -25.1267  -36.1985   25.0838 H   0  0  0  0  0  0
  -20.9963  -28.3202   24.1417 H   0  0  0  0  0  0
  -20.5649  -26.2263   23.3564 H   0  0  0  0  0  0
  -21.6628  -26.7418   22.1183 H   0  0  0  0  0  0
  -19.6876  -25.6284   21.1220 H   0  0  0  0  0  0
  -19.6677  -27.3177   20.6705 H   0  0  0  0  0  0
  -17.4180  -26.6639   21.4038 H   0  0  0  0  0  0
  -18.0361  -26.0072   22.9040 H   0  0  0  0  0  0
  -19.7941  -30.7248   24.2263 H   0  0  0  0  0  0
  -17.5019  -31.6265   24.5143 H   0  0  0  0  0  0
  -15.5341  -30.2964   23.7655 H   0  0  0  0  0  0
  -15.8685  -28.0824   22.7008 H   0  0  0  0  0  0
  -24.5868  -30.7087   25.7853 H   0  0  0  0  0  0
  -24.8964  -32.2870   26.5023 H   0  0  0  0  0  0
  -25.8099  -30.8834   27.0238 H   0  0  0  0  0  0
  -26.2806  -29.6835   24.1140 H   0  0  0  0  0  0
  -27.4028  -29.7266   25.4542 H   0  0  0  0  0  0
  -27.8644  -30.4385   23.9247 H   0  0  0  0  0  0
  -27.2674  -33.3584   26.2134 H   0  0  0  0  0  0
  -28.3805  -32.6922   25.0273 H   0  0  0  0  0  0
  -28.0768  -31.8402   26.5338 H   0  0  0  0  0  0
  -28.2591  -38.0117   24.7512 H   0  0  0  0  0  0
  -28.1089  -36.2653   24.6268 H   0  0  0  0  0  0
  -27.2317  -37.1442   25.8865 H   0  0  0  0  0  0
  -20.9285  -29.8778   21.6959 H   0  0  0  0  0  0
  -26.0190  -38.2878   24.1412 H   0  0  0  0  0  0
  -28.5042  -21.0080   18.1105 H   0  0  0  0  0  0
  -28.9004  -18.8584   17.0722 H   0  0  0  0  0  0
  -29.7931  -19.4140   21.9112 H   0  0  0  0  0  0
  -29.5500  -16.6728   17.0542 H   0  0  0  0  0  0
  -29.2157  -15.7667   18.5058 H   0  0  0  0  0  0
  -30.8797  -16.2952   18.1404 H   0  0  0  0  0  0
  -29.6668  -21.9293   21.5126 H   0  0  0  0  0  0
  -27.9464  -21.6671   21.3856 H   0  0  0  0  0  0
  -30.3597  -17.1862   22.1886 H   0  0  0  0  0  0
  -31.5606  -16.9583   20.9630 H   0  0  0  0  0  0
  -27.8838  -22.8196   19.1867 H   0  0  0  0  0  0
  -29.6276  -22.9726   19.1833 H   0  0  0  0  0  0
  -29.4303  -24.4978   21.2058 H   0  0  0  0  0  0
  -27.6908  -24.3998   21.0763 H   0  0  0  0  0  0
  -27.9531  -25.3218   18.6374 H   0  0  0  0  0  0
  -29.6207  -25.5200   18.9954 H   0  0  0  0  0  0
  -29.0591  -15.3452   21.3220 H   0  0  0  0  0  0
  1 25  1  0  0  0
  1 30  2  0  0  0
  1 83  1  0  0  0
  2  3  1  0  0  0
  2 25  1  0  0  0
  2 84  1  0  0  0
  2 85  1  0  0  0
  3  4  1  0  0  0
  3 86  1  0  0  0
  3 87  1  0  0  0
  4  5  1  0  0  0
  4 88  1  0  0  0
  4 89  1  0  0  0
  5  6  1  0  0  0
  5 26  1  0  0  0
  5 90  1  0  0  0
  6 25  1  0  0  0
  6 91  1  0  0  0
  6 92  1  0  0  0
  7  8  2  0  0  0
  7 26  1  0  0  0
  7 29  1  0  0  0
  8  9  1  0  0  0
  8 22  1  0  0  0
  9 10  1  0  0  0
  9 27  2  0  0  0
 10 11  2  0  0  0
 10 15  1  0  0  0
 11 12  1  0  0  0
 11 93  1  0  0  0
 12 13  2  0  0  0
 12 94  1  0  0  0
 13 14  1  0  0  0
 13 31  1  0  0  0
 14 15  2  0  0  0
 14 95  1  0  0  0
 15 96  1  0  0  0
 16 17  2  0  0  0
 16 21  1  0  0  0
 16 31  1  0  0  0
 17 18  1  0  0  0
 17 97  1  0  0  0
 18 19  2  0  0  0
 18 98  1  0  0  0
 19 20  1  0  0  0
 19 24  1  0  0  0
 20 21  2  0  0  0
 20 99  1  0  0  0
 21 23  1  0  0  0
 22 28  1  0  0  0
 22 32  2  0  0  0
 26 27  1  0  0  0
 28100  1  0  0  0
 28101  1  0  0  0
 29102  1  0  0  0
 29103  1  0  0  0
 33 34  1  0  0  0
 33 66  1  0  0  0
 33 70  2  0  0  0
 34 36  1  0  0  0
 34 59  1  0  0  0
 34104  1  0  0  0
 35 44  2  0  0  0
 35 45  1  0  0  0
 35 68  1  0  0  0
 36 56  1  0  0  0
 36105  1  0  0  0
 37 39  1  0  0  0
 37 47  1  0  0  0
 37 66  1  0  0  0
 37106  1  0  0  0
 38 43  2  0  0  0
 38 46  1  0  0  0
 38 47  1  0  0  0
 39 64  1  0  0  0
 39 67  2  0  0  0
 40 52  1  0  0  0
 40 53  2  0  0  0
 40 58  1  0  0  0
 41107  1  0  0  0
 41108  1  0  0  0
 41109  1  0  0  0
 41 48  1  0  0  0
 42 43  1  0  0  0
 42 66  1  0  0  0
 42110  1  0  0  0
 42111  1  0  0  0
 43 44  1  0  0  0
 44112  1  0  0  0
 45 46  2  0  0  0
 45113  1  0  0  0
 46114  1  0  0  0
 47115  1  0  0  0
 47116  1  0  0  0
 48 56  1  0  0  0
 48 65  1  0  0  0
 48117  1  0  0  0
 49 50  1  0  0  0
 49 53  1  0  0  0
 49 64  1  0  0  0
 49118  1  0  0  0
 50 51  1  0  0  0
 50119  1  0  0  0
 50120  1  0  0  0
 51 52  1  0  0  0
 51121  1  0  0  0
 51122  1  0  0  0
 52123  1  0  0  0
 52124  1  0  0  0
 53 54  1  0  0  0
 54 55  2  0  0  0
 54125  1  0  0  0
 55 57  1  0  0  0
 55126  1  0  0  0
 56 69  2  0  0  0
 57 58  2  0  0  0
 57127  1  0  0  0
 58128  1  0  0  0
 59 60  1  0  0  0
 59 61  1  0  0  0
 59 62  1  0  0  0
 60129  1  0  0  0
 60130  1  0  0  0
 60131  1  0  0  0
 61132  1  0  0  0
 61133  1  0  0  0
 61134  1  0  0  0
 62135  1  0  0  0
 62136  1  0  0  0
 62137  1  0  0  0
 63 65  1  0  0  0
 63138  1  0  0  0
 63139  1  0  0  0
 63140  1  0  0  0
 64141  1  0  0  0
 65142  1  0  0  0
 68 82  1  0  0  0
 71 72  2  0  0  0
 71 74  1  0  0  0
 71143  1  0  0  0
 72 75  1  0  0  0
 72144  1  0  0  0
 73 74  2  0  0  0
 73 76  1  0  0  0
 73145  1  0  0  0
 74 78  1  0  0  0
 75 76  2  0  0  0
 75 77  1  0  0  0
 76 79  1  0  0  0
 77146  1  0  0  0
 77147  1  0  0  0
 77148  1  0  0  0
 78 80  1  0  0  0
 78149  1  0  0  0
 78150  1  0  0  0
 79 83  1  0  0  0
 79151  1  0  0  0
 79152  1  0  0  0
 80 81  1  0  0  0
 80153  1  0  0  0
 80154  1  0  0  0
 81 82  1  0  0  0
 81155  1  0  0  0
 81156  1  0  0  0
 82157  1  0  0  0
 82158  1  0  0  0
 83159  1  0  0  0
M  ISO  4   1 100  68 101  82 101  83 100
M  END
> <chiral flag>
0

> <version>
0

> <s_m_source_file>
/data/baiqing/PycharmProjects/Reinvent-master-3.2/result/LINK_invent/BTK/process_docking_weight1_custom_sum_contain_oxygen_bond_distance_aromatic_linkinvent_7_9_3/rearranged_h_0037.sdf

> <i_m_source_file_index>
72

> <r_mmod_Potential_Energy-OPLS-2005>
-103.931747436523

> <r_mmod_Stretch_Energy-OPLS-2005>
39.6461982727051

> <r_mmod_Bend_Energy-OPLS-2005>
111.790267944336

> <r_mmod_Torsional_Energy-OPLS-2005>
185.883163452148

> <r_mmod_Improper_Torsional_Energy-OPLS-2005>
3.9009473323822

> <r_mmod_Van_der_Waal_Energy-OPLS-2005>
153.001129150391

> <r_mmod_Electrostatic_Energy-OPLS-2005>
-412.251770019531

> <r_mmod_Solvation_Energy-OPLS-2005>
-201.808410644531

> <b_mmod_Minimization_Converged-OPLS-2005>
0

> <r_mmod_RMS_Derivative-OPLS-2005>
3.92318177223206

$$$$
72
                    3D
 Structure written by MMmdl.
163171  0  0  1  0            999 V2000
  -30.6779  -14.6543   20.4674 C   0  0  0  0  0  0
  -30.4218  -12.4048   19.4483 C   0  0  0  0  0  0
  -29.4915  -12.4748   18.2194 C   0  0  0  0  0  0
  -28.0223  -12.3149   18.6487 C   0  0  0  0  0  0
  -27.6443  -13.2229   19.8497 C   0  0  2  0  0  0
  -28.6959  -13.1414   20.9785 C   0  0  0  0  0  0
  -25.2540  -13.8194   20.5707 C   0  0  0  0  0  0
  -24.1822  -13.0452   20.9195 C   0  0  0  0  0  0
  -24.6394  -11.6924   20.8758 C   0  0  0  0  0  0
  -23.9067  -10.4301   21.0410 C   0  0  0  0  0  0
  -24.3618   -9.4214   21.9185 C   0  0  0  0  0  0
  -23.6289   -8.2251   22.0760 C   0  0  0  0  0  0
  -22.4275   -8.0293   21.3536 C   0  0  0  0  0  0
  -21.9906   -9.0274   20.4640 C   0  0  0  0  0  0
  -22.7244  -10.2152   20.3055 C   0  0  0  0  0  0
  -21.6848   -6.0740   22.5262 C   0  0  0  0  0  0
  -21.4012   -6.5630   23.8204 C   0  0  0  0  0  0
  -21.3655   -5.6785   24.9160 C   0  0  0  0  0  0
  -21.6045   -4.3050   24.7213 C   0  0  0  0  0  0
  -21.8831   -3.8143   23.4332 C   0  0  0  0  0  0
  -21.9194   -4.6962   22.3386 C   0  0  0  0  0  0
  -22.7836  -13.5236   21.1851 C   0  0  0  0  0  0
  -22.1662   -4.2149   21.0962 F   0  0  0  0  0  0
  -21.5634   -3.4536   25.7725 F   0  0  0  0  0  0
  -29.9973  -13.4681   20.3836 N   0  0  0  0  0  0
  -26.2959  -12.9388   20.3305 N   0  0  0  0  0  0
  -25.9320  -11.6539   20.5796 N   0  0  0  0  0  0
  -22.0486  -12.8234   22.0412 N   0  0  0  0  0  0
  -25.4250  -15.1933   20.4138 N   0  0  0  0  0  0
  -31.8700  -14.7069   20.1593 O   0  0  0  0  0  0
  -21.6638   -6.8892   21.4236 O   0  0  0  0  0  0
  -22.3501  -14.5535   20.6688 O   0  0  0  0  0  0
  -24.6244  -31.8619   23.2048 C   0  0  0  0  0  0
  -25.9132  -32.4751   23.8367 C   0  0  1  0  0  0
  -27.2084  -27.3161   20.1046 C   0  0  0  0  0  0
  -25.5977  -33.8555   24.2278 N   0  0  0  0  0  0
  -23.4161  -30.4857   21.5490 C   0  0  2  0  0  0
  -24.8589  -28.9491   20.1049 C   0  0  0  0  0  0
  -22.7472  -29.4599   22.4946 C   0  0  0  0  0  0
  -18.0284  -28.1368   22.8457 C   0  0  0  0  0  0
  -24.1504  -36.7303   23.2643 C   0  0  0  0  0  0
  -25.9578  -30.7879   21.3821 C   0  0  0  0  0  0
  -26.0304  -29.4175   20.7158 C   0  0  0  0  0  0
  -27.2076  -28.6106   20.7119 C   0  0  0  0  0  0
  -26.0123  -26.9090   19.4636 C   0  0  0  0  0  0
  -24.8511  -27.7003   19.4701 C   0  0  0  0  0  0
  -23.6307  -29.8329   20.1586 C   0  0  0  0  0  0
  -25.4108  -36.3046   24.0325 C   0  0  1  0  0  0
  -20.5874  -28.3670   23.1278 C   0  0  2  0  0  0
  -20.6764  -26.9401   22.5406 C   0  0  0  0  0  0
  -19.5745  -26.6366   21.5203 C   0  0  0  0  0  0
  -18.1911  -26.7895   22.1613 C   0  0  0  0  0  0
  -19.1533  -28.8831   23.2844 C   0  0  0  0  0  0
  -18.9481  -30.1449   23.8834 C   0  0  0  0  0  0
  -17.6478  -30.6571   24.0554 C   0  0  0  0  0  0
  -25.9069  -34.9423   23.5087 C   0  0  0  0  0  0
  -16.5373  -29.9059   23.6339 C   0  0  0  0  0  0
  -16.7277  -28.6496   23.0324 C   0  0  0  0  0  0
  -26.4527  -31.6549   25.0747 C   0  0  0  0  0  0
  -25.3756  -31.3689   26.1481 C   0  0  0  0  0  0
  -27.0427  -30.2979   24.6239 C   0  0  0  0  0  0
  -27.6068  -32.4316   25.7515 C   0  0  0  0  0  0
  -27.5569  -37.1782   24.8465 C   0  0  0  0  0  0
  -21.4194  -29.3022   22.3704 N   0  0  0  0  0  0
  -26.4275  -37.3733   23.9416 N   0  0  0  0  0  0
  -24.6850  -31.0594   22.1027 N   0  0  0  0  0  0
  -23.4206  -28.8119   23.3009 O   0  0  0  0  0  0
  -28.3171  -26.4482   20.1595 O   0  0  0  0  0  0
  -26.5635  -34.8889   22.4649 O   0  0  0  0  0  0
  -23.5430  -32.1487   23.7380 O   0  0  0  0  0  0
  -29.1031  -18.8342   19.6331 C   0  0  0  0  0  0
  -30.0000  -21.0471   21.1071 C   0  0  0  0  0  0
  -30.0059  -18.5734   20.6938 C   0  0  0  0  0  0
  -28.6752  -20.1612   19.3053 C   0  0  0  0  0  0
  -30.4322  -19.7240   21.4367 C   0  0  0  0  0  0
  -29.1175  -21.3073   20.0324 C   0  0  0  0  0  0
  -31.3925  -19.5807   22.6092 C   0  0  0  0  0  0
  -25.6810  -21.2373   19.3438 C   0  0  0  0  0  0
  -27.7538  -20.3391   18.1052 C   0  0  0  0  0  0
  -30.6599  -17.1517   20.9468 C   0  0  0  0  0  0
  -26.2659  -20.1423   18.4388 C   0  0  0  0  0  0
  -28.0687  -25.0162   19.8645 C   0  0  0  0  0  0
  -29.0929  -23.8588   20.2294 C   0  0  0  0  0  0
  -29.9892  -15.8191   20.7150 N   0  0  0  0  0  0
  -28.6530  -22.5833   19.6530 O   0  0  0  0  0  0
  -31.4610  -12.5079   19.1348 H   0  0  0  0  0  0
  -30.3542  -11.4297   19.9307 H   0  0  0  0  0  0
  -29.7543  -11.6914   17.5066 H   0  0  0  0  0  0
  -29.6242  -13.4234   17.6967 H   0  0  0  0  0  0
  -27.8811  -11.2695   18.9244 H   0  0  0  0  0  0
  -27.3547  -12.4994   17.8073 H   0  0  0  0  0  0
  -27.6454  -14.2463   19.4705 H   0  0  0  0  0  0
  -28.7206  -12.1419   21.4114 H   0  0  0  0  0  0
  -28.4505  -13.8242   21.7935 H   0  0  0  0  0  0
  -25.2770   -9.5681   22.4764 H   0  0  0  0  0  0
  -23.9982   -7.4640   22.7495 H   0  0  0  0  0  0
  -21.0829   -8.8808   19.8946 H   0  0  0  0  0  0
  -22.3711  -10.9697   19.6169 H   0  0  0  0  0  0
  -21.2010   -7.6146   23.9700 H   0  0  0  0  0  0
  -21.1461   -6.0516   25.9065 H   0  0  0  0  0  0
  -22.0622   -2.7605   23.2828 H   0  0  0  0  0  0
  -22.4103  -11.9885   22.4786 H   0  0  0  0  0  0
  -21.1124  -13.1270   22.2665 H   0  0  0  0  0  0
  -24.6652  -15.8523   20.5456 H   0  0  0  0  0  0
  -26.2823  -15.6333   20.1033 H   0  0  0  0  0  0
  -26.7204  -32.5428   23.1119 H   0  0  0  0  0  0
  -25.0101  -33.9692   25.0409 H   0  0  0  0  0  0
  -22.7088  -31.3039   21.4095 H   0  0  0  0  0  0
  -23.3740  -35.9668   23.3286 H   0  0  0  0  0  0
  -24.3599  -36.8971   22.2072 H   0  0  0  0  0  0
  -23.7294  -37.6493   23.6704 H   0  0  0  0  0  0
  -26.0868  -31.5561   20.6200 H   0  0  0  0  0  0
  -26.8369  -30.8302   22.0129 H   0  0  0  0  0  0
  -28.1023  -28.9552   21.2114 H   0  0  0  0  0  0
  -25.9291  -25.9636   18.9498 H   0  0  0  0  0  0
  -23.9551  -27.3376   18.9831 H   0  0  0  0  0  0
  -23.7523  -30.6171   19.4101 H   0  0  0  0  0  0
  -22.7478  -29.2678   19.8524 H   0  0  0  0  0  0
  -25.1262  -36.1878   25.0811 H   0  0  0  0  0  0
  -20.9910  -28.3250   24.1430 H   0  0  0  0  0  0
  -20.5662  -26.2305   23.3605 H   0  0  0  0  0  0
  -21.6637  -26.7440   22.1200 H   0  0  0  0  0  0
  -19.6953  -25.6274   21.1250 H   0  0  0  0  0  0
  -19.6683  -27.3170   20.6711 H   0  0  0  0  0  0
  -17.4189  -26.6645   21.4017 H   0  0  0  0  0  0
  -18.0305  -26.0048   22.9001 H   0  0  0  0  0  0
  -19.7986  -30.7247   24.2179 H   0  0  0  0  0  0
  -17.5074  -31.6244   24.5175 H   0  0  0  0  0  0
  -15.5380  -30.2950   23.7709 H   0  0  0  0  0  0
  -15.8675  -28.0831   22.7018 H   0  0  0  0  0  0
  -24.5948  -30.7014   25.7826 H   0  0  0  0  0  0
  -24.8937  -32.2852   26.4893 H   0  0  0  0  0  0
  -25.8094  -30.8892   27.0265 H   0  0  0  0  0  0
  -26.3045  -29.6652   24.1315 H   0  0  0  0  0  0
  -27.4174  -29.7300   25.4757 H   0  0  0  0  0  0
  -27.8863  -30.4261   23.9459 H   0  0  0  0  0  0
  -27.2653  -33.3630   26.2041 H   0  0  0  0  0  0
  -28.3888  -32.6865   25.0348 H   0  0  0  0  0  0
  -28.0726  -31.8493   26.5479 H   0  0  0  0  0  0
  -28.2521  -38.0137   24.7470 H   0  0  0  0  0  0
  -28.1103  -36.2632   24.6271 H   0  0  0  0  0  0
  -27.2291  -37.1411   25.8874 H   0  0  0  0  0  0
  -20.9393  -29.8788   21.6948 H   0  0  0  0  0  0
  -26.0160  -38.2800   24.1420 H   0  0  0  0  0  0
  -28.7680  -18.0049   19.0233 H   0  0  0  0  0  0
  -30.3714  -21.8768   21.6911 H   0  0  0  0  0  0
  -31.6361  -20.5474   23.0521 H   0  0  0  0  0  0
  -32.3275  -19.1214   22.2925 H   0  0  0  0  0  0
  -30.9508  -18.9671   23.3952 H   0  0  0  0  0  0
  -24.5991  -21.1286   19.4403 H   0  0  0  0  0  0
  -25.8781  -22.2307   18.9384 H   0  0  0  0  0  0
  -26.1061  -21.2004   20.3487 H   0  0  0  0  0  0
  -28.0453  -19.6236   17.3351 H   0  0  0  0  0  0
  -27.9082  -21.3181   17.6509 H   0  0  0  0  0  0
  -31.0047  -17.0996   21.9783 H   0  0  0  0  0  0
  -31.5706  -17.1809   20.3448 H   0  0  0  0  0  0
  -25.7040  -20.1325   17.5046 H   0  0  0  0  0  0
  -26.1171  -19.1618   18.8939 H   0  0  0  0  0  0
  -27.1347  -24.7232   20.3469 H   0  0  0  0  0  0
  -27.8955  -24.9500   18.7889 H   0  0  0  0  0  0
  -29.1863  -23.7819   21.3113 H   0  0  0  0  0  0
  -30.0791  -24.1014   19.8295 H   0  0  0  0  0  0
  -28.9965  -15.7555   20.8833 H   0  0  0  0  0  0
  1 25  1  0  0  0
  1 30  2  0  0  0
  1 84  1  0  0  0
  2  3  1  0  0  0
  2 25  1  0  0  0
  2 86  1  0  0  0
  2 87  1  0  0  0
  3  4  1  0  0  0
  3 88  1  0  0  0
  3 89  1  0  0  0
  4  5  1  0  0  0
  4 90  1  0  0  0
  4 91  1  0  0  0
  5  6  1  0  0  0
  5 26  1  0  0  0
  5 92  1  0  0  0
  6 25  1  0  0  0
  6 93  1  0  0  0
  6 94  1  0  0  0
  7  8  2  0  0  0
  7 26  1  0  0  0
  7 29  1  0  0  0
  8  9  1  0  0  0
  8 22  1  0  0  0
  9 10  1  0  0  0
  9 27  2  0  0  0
 10 11  2  0  0  0
 10 15  1  0  0  0
 11 12  1  0  0  0
 11 95  1  0  0  0
 12 13  2  0  0  0
 12 96  1  0  0  0
 13 14  1  0  0  0
 13 31  1  0  0  0
 14 15  2  0  0  0
 14 97  1  0  0  0
 15 98  1  0  0  0
 16 17  2  0  0  0
 16 21  1  0  0  0
 16 31  1  0  0  0
 17 18  1  0  0  0
 17 99  1  0  0  0
 18 19  2  0  0  0
 18100  1  0  0  0
 19 20  1  0  0  0
 19 24  1  0  0  0
 20 21  2  0  0  0
 20101  1  0  0  0
 21 23  1  0  0  0
 22 28  1  0  0  0
 22 32  2  0  0  0
 26 27  1  0  0  0
 28102  1  0  0  0
 28103  1  0  0  0
 29104  1  0  0  0
 29105  1  0  0  0
 33 34  1  0  0  0
 33 66  1  0  0  0
 33 70  2  0  0  0
 34 36  1  0  0  0
 34 59  1  0  0  0
 34106  1  0  0  0
 35 44  2  0  0  0
 35 45  1  0  0  0
 35 68  1  0  0  0
 36 56  1  0  0  0
 36107  1  0  0  0
 37 39  1  0  0  0
 37 47  1  0  0  0
 37 66  1  0  0  0
 37108  1  0  0  0
 38 43  2  0  0  0
 38 46  1  0  0  0
 38 47  1  0  0  0
 39 64  1  0  0  0
 39 67  2  0  0  0
 40 52  1  0  0  0
 40 53  2  0  0  0
 40 58  1  0  0  0
 41109  1  0  0  0
 41110  1  0  0  0
 41111  1  0  0  0
 41 48  1  0  0  0
 42 43  1  0  0  0
 42 66  1  0  0  0
 42112  1  0  0  0
 42113  1  0  0  0
 43 44  1  0  0  0
 44114  1  0  0  0
 45 46  2  0  0  0
 45115  1  0  0  0
 46116  1  0  0  0
 47117  1  0  0  0
 47118  1  0  0  0
 48 56  1  0  0  0
 48 65  1  0  0  0
 48119  1  0  0  0
 49 50  1  0  0  0
 49 53  1  0  0  0
 49 64  1  0  0  0
 49120  1  0  0  0
 50 51  1  0  0  0
 50121  1  0  0  0
 50122  1  0  0  0
 51 52  1  0  0  0
 51123  1  0  0  0
 51124  1  0  0  0
 52125  1  0  0  0
 52126  1  0  0  0
 53 54  1  0  0  0
 54 55  2  0  0  0
 54127  1  0  0  0
 55 57  1  0  0  0
 55128  1  0  0  0
 56 69  2  0  0  0
 57 58  2  0  0  0
 57129  1  0  0  0
 58130  1  0  0  0
 59 60  1  0  0  0
 59 61  1  0  0  0
 59 62  1  0  0  0
 60131  1  0  0  0
 60132  1  0  0  0
 60133  1  0  0  0
 61134  1  0  0  0
 61135  1  0  0  0
 61136  1  0  0  0
 62137  1  0  0  0
 62138  1  0  0  0
 62139  1  0  0  0
 63 65  1  0  0  0
 63140  1  0  0  0
 63141  1  0  0  0
 63142  1  0  0  0
 64143  1  0  0  0
 65144  1  0  0  0
 68 82  1  0  0  0
 71 73  2  0  0  0
 71 74  1  0  0  0
 71145  1  0  0  0
 72 75  2  0  0  0
 72 76  1  0  0  0
 72146  1  0  0  0
 73 75  1  0  0  0
 73 80  1  0  0  0
 74 76  2  0  0  0
 74 79  1  0  0  0
 75 77  1  0  0  0
 76 85  1  0  0  0
 77147  1  0  0  0
 77148  1  0  0  0
 77149  1  0  0  0
 78 81  1  0  0  0
 78150  1  0  0  0
 78151  1  0  0  0
 78152  1  0  0  0
 79 81  1  0  0  0
 79153  1  0  0  0
 79154  1  0  0  0
 80 84  1  0  0  0
 80155  1  0  0  0
 80156  1  0  0  0
 81157  1  0  0  0
 81158  1  0  0  0
 82 83  1  0  0  0
 82159  1  0  0  0
 82160  1  0  0  0
 83 85  1  0  0  0
 83161  1  0  0  0
 83162  1  0  0  0
 84163  1  0  0  0
M  ISO  4   1 100  68 101  82 101  84 100
M  END
> <chiral flag>
0

> <version>
0

> <s_m_source_file>
/data/baiqing/PycharmProjects/Reinvent-master-3.2/result/LINK_invent/BTK/process_docking_weight1_custom_sum_contain_oxygen_bond_distance_aromatic_linkinvent_7_9_3/rearranged_h_0037.sdf

> <i_m_source_file_index>
73

> <r_mmod_Potential_Energy-OPLS-2005>
43.984016418457

> <r_mmod_Stretch_Energy-OPLS-2005>
82.7226715087891

> <r_mmod_Bend_Energy-OPLS-2005>
161.888366699219

> <r_mmod_Torsional_Energy-OPLS-2005>
203.290451049805

> <r_mmod_Improper_Torsional_Energy-OPLS-2005>
4.55697965621948

> <r_mmod_Van_der_Waal_Energy-OPLS-2005>
148.121444702148

> <r_mmod_Electrostatic_Energy-OPLS-2005>
-408.592315673828

> <r_mmod_Solvation_Energy-OPLS-2005>
-206.126449584961

> <b_mmod_Minimization_Converged-OPLS-2005>
0

> <r_mmod_RMS_Derivative-OPLS-2005>
3.44656419754028

$$$$
73
                    3D
 Structure written by MMmdl.
173181  0  0  1  0            999 V2000
  -30.5943  -14.7540   20.4515 C   0  0  0  0  0  0
  -30.4408  -12.4529   19.4892 C   0  0  0  0  0  0
  -29.5218  -12.5110   18.2475 C   0  0  0  0  0  0
  -28.0439  -12.3404   18.6505 C   0  0  0  0  0  0
  -27.6490  -13.2343   19.8562 C   0  0  2  0  0  0
  -28.6915  -13.1584   20.9966 C   0  0  0  0  0  0
  -25.2534  -13.8212   20.5689 C   0  0  0  0  0  0
  -24.1822  -13.0452   20.9178 C   0  0  0  0  0  0
  -24.6420  -11.6929   20.8735 C   0  0  0  0  0  0
  -23.9093  -10.4302   21.0406 C   0  0  0  0  0  0
  -24.3639   -9.4208   21.9181 C   0  0  0  0  0  0
  -23.6300   -8.2252   22.0759 C   0  0  0  0  0  0
  -22.4277   -8.0297   21.3554 C   0  0  0  0  0  0
  -21.9925   -9.0270   20.4652 C   0  0  0  0  0  0
  -22.7267  -10.2142   20.3055 C   0  0  0  0  0  0
  -21.6857   -6.0745   22.5279 C   0  0  0  0  0  0
  -21.4019   -6.5644   23.8213 C   0  0  0  0  0  0
  -21.3649   -5.6790   24.9172 C   0  0  0  0  0  0
  -21.6042   -4.3053   24.7223 C   0  0  0  0  0  0
  -21.8817   -3.8151   23.4337 C   0  0  0  0  0  0
  -21.9184   -4.6969   22.3399 C   0  0  0  0  0  0
  -22.7835  -13.5226   21.1815 C   0  0  0  0  0  0
  -22.1654   -4.2161   21.0979 F   0  0  0  0  0  0
  -21.5623   -3.4530   25.7732 F   0  0  0  0  0  0
  -29.9977  -13.5118   20.4283 N   0  0  0  0  0  0
  -26.2975  -12.9426   20.3283 N   0  0  0  0  0  0
  -25.9355  -11.6561   20.5754 N   0  0  0  0  0  0
  -22.0473  -12.8253   22.0388 N   0  0  0  0  0  0
  -25.4201  -15.1945   20.4121 N   0  0  0  0  0  0
  -31.7581  -14.8814   20.0613 O   0  0  0  0  0  0
  -21.6644   -6.8892   21.4241 O   0  0  0  0  0  0
  -22.3511  -14.5507   20.6621 O   0  0  0  0  0  0
  -24.6330  -31.8525   23.1980 C   0  0  0  0  0  0
  -25.9144  -32.4728   23.8334 C   0  0  1  0  0  0
  -27.2263  -27.2508   20.1238 C   0  0  0  0  0  0
  -25.5950  -33.8534   24.2263 N   0  0  0  0  0  0
  -23.4286  -30.4773   21.5398 C   0  0  2  0  0  0
  -24.8758  -28.9196   20.1092 C   0  0  0  0  0  0
  -22.7501  -29.4602   22.4897 C   0  0  0  0  0  0
  -18.0295  -28.1390   22.8481 C   0  0  0  0  0  0
  -24.1496  -36.7271   23.2644 C   0  0  0  0  0  0
  -25.9757  -30.7609   21.3800 C   0  0  0  0  0  0
  -26.0467  -29.3833   20.7207 C   0  0  0  0  0  0
  -27.2197  -28.5615   20.7162 C   0  0  0  0  0  0
  -26.0275  -26.8544   19.4875 C   0  0  0  0  0  0
  -24.8735  -27.6638   19.4826 C   0  0  0  0  0  0
  -23.6464  -29.8079   20.1565 C   0  0  0  0  0  0
  -25.4119  -36.3058   24.0332 C   0  0  1  0  0  0
  -20.5901  -28.3704   23.1257 C   0  0  2  0  0  0
  -20.6773  -26.9419   22.5399 C   0  0  0  0  0  0
  -19.5745  -26.6383   21.5204 C   0  0  0  0  0  0
  -18.1929  -26.7930   22.1625 C   0  0  0  0  0  0
  -19.1551  -28.8861   23.2868 C   0  0  0  0  0  0
  -18.9468  -30.1458   23.8895 C   0  0  0  0  0  0
  -17.6466  -30.6586   24.0565 C   0  0  0  0  0  0
  -25.9059  -34.9422   23.5096 C   0  0  0  0  0  0
  -16.5355  -29.9082   23.6338 C   0  0  0  0  0  0
  -16.7281  -28.6503   23.0358 C   0  0  0  0  0  0
  -26.4505  -31.6548   25.0720 C   0  0  0  0  0  0
  -25.3744  -31.3735   26.1463 C   0  0  0  0  0  0
  -27.0302  -30.2939   24.6230 C   0  0  0  0  0  0
  -27.6089  -32.4244   25.7483 C   0  0  0  0  0  0
  -27.5578  -37.1794   24.8463 C   0  0  0  0  0  0
  -21.4208  -29.3055   22.3642 N   0  0  0  0  0  0
  -26.4293  -37.3755   23.9404 N   0  0  0  0  0  0
  -24.6980  -31.0487   22.0953 N   0  0  0  0  0  0
  -23.4199  -28.8150   23.2999 O   0  0  0  0  0  0
  -28.3551  -26.3943   20.1873 O   0  0  0  0  0  0
  -26.5627  -34.8898   22.4662 O   0  0  0  0  0  0
  -23.5476  -32.1364   23.7269 O   0  0  0  0  0  0
  -28.7895  -23.3144   22.9621 C   0  0  0  0  0  0
  -28.6013  -23.9262   20.9644 C   0  0  0  0  0  0
  -27.1569  -28.8966   29.4310 C   0  0  0  0  0  0
  -28.9788  -23.3956   24.4453 C   0  0  0  0  0  0
  -28.3689  -24.9304   19.7822 C   0  0  0  0  0  0
  -26.6016  -27.8460   28.4627 C   0  0  0  0  0  0
  -27.8187  -24.0902   25.1916 C   0  0  0  0  0  0
  -27.7116  -27.1306   27.6814 C   0  0  0  0  0  0
  -28.3141  -25.2414   26.0846 C   0  0  0  0  0  0
  -27.1815  -25.9784   26.8134 C   0  0  0  0  0  0
  -28.7846  -19.8871   20.2249 C   0  0  0  0  0  0
  -29.6889  -18.6638   20.8135 C   0  0  0  0  0  0
  -29.2392  -21.4450   20.0067 C   0  0  0  0  0  0
  -29.8036  -17.2454   20.0138 C   0  0  0  0  0  0
  -28.5620  -24.4192   22.2029 N   0  0  0  0  0  0
  -28.9577  -22.1774   22.2953 N   0  0  0  0  0  0
  -28.8679  -22.5445   20.9881 N   0  0  0  0  0  0
  -29.7942  -15.8654   20.6922 N   0  0  0  0  0  0
  -31.4830  -12.5733   19.1899 H   0  0  0  0  0  0
  -30.3850  -11.4744   19.9676 H   0  0  0  0  0  0
  -29.8102  -11.7405   17.5311 H   0  0  0  0  0  0
  -29.6500  -13.4671   17.7380 H   0  0  0  0  0  0
  -27.8887  -11.2914   18.9004 H   0  0  0  0  0  0
  -27.3964  -12.5479   17.7983 H   0  0  0  0  0  0
  -27.6479  -14.2582   19.4804 H   0  0  0  0  0  0
  -28.7256  -12.1591   21.4313 H   0  0  0  0  0  0
  -28.4250  -13.8317   21.8118 H   0  0  0  0  0  0
  -25.2791   -9.5671   22.4752 H   0  0  0  0  0  0
  -23.9997   -7.4651   22.7488 H   0  0  0  0  0  0
  -21.0847   -8.8795   19.8979 H   0  0  0  0  0  0
  -22.3724  -10.9677   19.6162 H   0  0  0  0  0  0
  -21.2033   -7.6157   23.9718 H   0  0  0  0  0  0
  -21.1466   -6.0526   25.9074 H   0  0  0  0  0  0
  -22.0607   -2.7618   23.2831 H   0  0  0  0  0  0
  -22.4082  -11.9938   22.4826 H   0  0  0  0  0  0
  -21.1083  -13.1291   22.2558 H   0  0  0  0  0  0
  -24.6520  -15.8463   20.5329 H   0  0  0  0  0  0
  -26.2664  -15.6383   20.0799 H   0  0  0  0  0  0
  -26.7196  -32.5357   23.1062 H   0  0  0  0  0  0
  -25.0085  -33.9658   25.0395 H   0  0  0  0  0  0
  -22.7248  -31.3000   21.3928 H   0  0  0  0  0  0
  -23.3762  -35.9598   23.3304 H   0  0  0  0  0  0
  -24.3596  -36.8900   22.2061 H   0  0  0  0  0  0
  -23.7241  -37.6469   23.6674 H   0  0  0  0  0  0
  -26.1163  -31.5210   20.6104 H   0  0  0  0  0  0
  -26.8526  -30.8082   22.0148 H   0  0  0  0  0  0
  -28.1169  -28.9140   21.2073 H   0  0  0  0  0  0
  -25.9320  -25.9028   18.9919 H   0  0  0  0  0  0
  -23.9777  -27.3017   18.9956 H   0  0  0  0  0  0
  -23.7677  -30.5815   19.3973 H   0  0  0  0  0  0
  -22.7639  -29.2405   19.8548 H   0  0  0  0  0  0
  -25.1305  -36.1911   25.0827 H   0  0  0  0  0  0
  -21.0004  -28.3285   24.1374 H   0  0  0  0  0  0
  -20.5646  -26.2327   23.3615 H   0  0  0  0  0  0
  -21.6643  -26.7409   22.1211 H   0  0  0  0  0  0
  -19.6899  -25.6288   21.1245 H   0  0  0  0  0  0
  -19.6685  -27.3181   20.6723 H   0  0  0  0  0  0
  -17.4196  -26.6680   21.4029 H   0  0  0  0  0  0
  -18.0339  -26.0070   22.9023 H   0  0  0  0  0  0
  -19.7938  -30.7276   24.2274 H   0  0  0  0  0  0
  -17.5017  -31.6271   24.5159 H   0  0  0  0  0  0
  -15.5357  -30.2988   23.7658 H   0  0  0  0  0  0
  -15.8682  -28.0818   22.7083 H   0  0  0  0  0  0
  -24.5827  -30.7194   25.7801 H   0  0  0  0  0  0
  -24.9056  -32.2938   26.4941 H   0  0  0  0  0  0
  -25.8051  -30.8831   27.0203 H   0  0  0  0  0  0
  -26.2905  -29.6740   24.1146 H   0  0  0  0  0  0
  -27.3825  -29.7148   25.4769 H   0  0  0  0  0  0
  -27.8843  -30.4168   23.9573 H   0  0  0  0  0  0
  -27.2732  -33.3549   26.2065 H   0  0  0  0  0  0
  -28.3903  -32.6772   25.0303 H   0  0  0  0  0  0
  -28.0723  -31.8341   26.5399 H   0  0  0  0  0  0
  -28.2590  -38.0094   24.7523 H   0  0  0  0  0  0
  -28.1090  -36.2629   24.6288 H   0  0  0  0  0  0
  -27.2299  -37.1423   25.8867 H   0  0  0  0  0  0
  -20.9397  -29.8804   21.6863 H   0  0  0  0  0  0
  -26.0182  -38.2830   24.1399 H   0  0  0  0  0  0
  -26.3522  -29.3843   29.9823 H   0  0  0  0  0  0
  -27.7165  -29.6699   28.9029 H   0  0  0  0  0  0
  -27.8246  -28.4392   30.1629 H   0  0  0  0  0  0
  -29.9235  -23.9080   24.6312 H   0  0  0  0  0  0
  -29.1103  -22.3907   24.8481 H   0  0  0  0  0  0
  -27.4826  -24.6101   19.2447 H   0  0  0  0  0  0
  -29.1901  -24.7966   19.0775 H   0  0  0  0  0  0
  -25.9051  -28.3169   27.7662 H   0  0  0  0  0  0
  -26.0227  -27.1163   29.0310 H   0  0  0  0  0  0
  -27.2748  -23.3548   25.7857 H   0  0  0  0  0  0
  -27.0933  -24.4845   24.4785 H   0  0  0  0  0  0
  -28.4524  -26.7421   28.3817 H   0  0  0  0  0  0
  -28.2341  -27.8536   27.0528 H   0  0  0  0  0  0
  -28.8660  -25.9565   25.4702 H   0  0  0  0  0  0
  -29.0255  -24.8537   26.8147 H   0  0  0  0  0  0
  -26.4664  -26.3676   26.0867 H   0  0  0  0  0  0
  -26.6335  -25.2710   27.4369 H   0  0  0  0  0  0
  -27.8392  -19.8913   20.7685 H   0  0  0  0  0  0
  -28.4939  -19.5496   19.2297 H   0  0  0  0  0  0
  -29.3208  -18.4551   21.8177 H   0  0  0  0  0  0
  -30.7019  -19.0379   20.9690 H   0  0  0  0  0  0
  -28.8379  -21.7679   19.0449 H   0  0  0  0  0  0
  -30.3210  -21.4776   19.8752 H   0  0  0  0  0  0
  -30.6785  -17.2971   19.3657 H   0  0  0  0  0  0
  -28.9631  -17.2056   19.3210 H   0  0  0  0  0  0
  -28.9037  -15.6180   21.0998 H   0  0  0  0  0  0
  1 25  1  0  0  0
  1 30  2  0  0  0
  1 88  1  0  0  0
  2  3  1  0  0  0
  2 25  1  0  0  0
  2 89  1  0  0  0
  2 90  1  0  0  0
  3  4  1  0  0  0
  3 91  1  0  0  0
  3 92  1  0  0  0
  4  5  1  0  0  0
  4 93  1  0  0  0
  4 94  1  0  0  0
  5  6  1  0  0  0
  5 26  1  0  0  0
  5 95  1  0  0  0
  6 25  1  0  0  0
  6 96  1  0  0  0
  6 97  1  0  0  0
  7  8  2  0  0  0
  7 26  1  0  0  0
  7 29  1  0  0  0
  8  9  1  0  0  0
  8 22  1  0  0  0
  9 10  1  0  0  0
  9 27  2  0  0  0
 10 11  2  0  0  0
 10 15  1  0  0  0
 11 12  1  0  0  0
 11 98  1  0  0  0
 12 13  2  0  0  0
 12 99  1  0  0  0
 13 14  1  0  0  0
 13 31  1  0  0  0
 14 15  2  0  0  0
 14100  1  0  0  0
 15101  1  0  0  0
 16 17  2  0  0  0
 16 21  1  0  0  0
 16 31  1  0  0  0
 17 18  1  0  0  0
 17102  1  0  0  0
 18 19  2  0  0  0
 18103  1  0  0  0
 19 20  1  0  0  0
 19 24  1  0  0  0
 20 21  2  0  0  0
 20104  1  0  0  0
 21 23  1  0  0  0
 22 28  1  0  0  0
 22 32  2  0  0  0
 26 27  1  0  0  0
 28105  1  0  0  0
 28106  1  0  0  0
 29107  1  0  0  0
 29108  1  0  0  0
 33 34  1  0  0  0
 33 66  1  0  0  0
 33 70  2  0  0  0
 34 36  1  0  0  0
 34 59  1  0  0  0
 34109  1  0  0  0
 35 44  2  0  0  0
 35 45  1  0  0  0
 35 68  1  0  0  0
 36 56  1  0  0  0
 36110  1  0  0  0
 37 39  1  0  0  0
 37 47  1  0  0  0
 37 66  1  0  0  0
 37111  1  0  0  0
 38 43  2  0  0  0
 38 46  1  0  0  0
 38 47  1  0  0  0
 39 64  1  0  0  0
 39 67  2  0  0  0
 40 52  1  0  0  0
 40 53  2  0  0  0
 40 58  1  0  0  0
 41112  1  0  0  0
 41113  1  0  0  0
 41114  1  0  0  0
 41 48  1  0  0  0
 42 43  1  0  0  0
 42 66  1  0  0  0
 42115  1  0  0  0
 42116  1  0  0  0
 43 44  1  0  0  0
 44117  1  0  0  0
 45 46  2  0  0  0
 45118  1  0  0  0
 46119  1  0  0  0
 47120  1  0  0  0
 47121  1  0  0  0
 48 56  1  0  0  0
 48 65  1  0  0  0
 48122  1  0  0  0
 49 50  1  0  0  0
 49 53  1  0  0  0
 49 64  1  0  0  0
 49123  1  0  0  0
 50 51  1  0  0  0
 50124  1  0  0  0
 50125  1  0  0  0
 51 52  1  0  0  0
 51126  1  0  0  0
 51127  1  0  0  0
 52128  1  0  0  0
 52129  1  0  0  0
 53 54  1  0  0  0
 54 55  2  0  0  0
 54130  1  0  0  0
 55 57  1  0  0  0
 55131  1  0  0  0
 56 69  2  0  0  0
 57 58  2  0  0  0
 57132  1  0  0  0
 58133  1  0  0  0
 59 60  1  0  0  0
 59 61  1  0  0  0
 59 62  1  0  0  0
 60134  1  0  0  0
 60135  1  0  0  0
 60136  1  0  0  0
 61137  1  0  0  0
 61138  1  0  0  0
 61139  1  0  0  0
 62140  1  0  0  0
 62141  1  0  0  0
 62142  1  0  0  0
 63 65  1  0  0  0
 63143  1  0  0  0
 63144  1  0  0  0
 63145  1  0  0  0
 64146  1  0  0  0
 65147  1  0  0  0
 68 75  1  0  0  0
 71 74  1  0  0  0
 71 85  1  0  0  0
 71 86  2  0  0  0
 72 75  1  0  0  0
 72 85  2  0  0  0
 72 87  1  0  0  0
 73 76  1  0  0  0
 73148  1  0  0  0
 73149  1  0  0  0
 73150  1  0  0  0
 74 77  1  0  0  0
 74151  1  0  0  0
 74152  1  0  0  0
 75153  1  0  0  0
 75154  1  0  0  0
 76 78  1  0  0  0
 76155  1  0  0  0
 76156  1  0  0  0
 77 79  1  0  0  0
 77157  1  0  0  0
 77158  1  0  0  0
 78 80  1  0  0  0
 78159  1  0  0  0
 78160  1  0  0  0
 79 80  1  0  0  0
 79161  1  0  0  0
 79162  1  0  0  0
 80163  1  0  0  0
 80164  1  0  0  0
 81 82  1  0  0  0
 81 83  1  0  0  0
 81165  1  0  0  0
 81166  1  0  0  0
 82 84  1  0  0  0
 82167  1  0  0  0
 82168  1  0  0  0
 83 87  1  0  0  0
 83169  1  0  0  0
 83170  1  0  0  0
 84 88  1  0  0  0
 84171  1  0  0  0
 84172  1  0  0  0
 86 87  1  0  0  0
 88173  1  0  0  0
M  ISO  4   1 100  68 101  75 101  88 100
M  END
> <chiral flag>
0

> <version>
0

> <s_m_source_file>
/data/baiqing/PycharmProjects/Reinvent-master-3.2/result/LINK_invent/BTK/process_docking_weight1_custom_sum_contain_oxygen_bond_distance_aromatic_linkinvent_7_9_3/rearranged_h_0037.sdf

> <i_m_source_file_index>
74

> <r_mmod_Potential_Energy-OPLS-2005>
252.036193847656

> <r_mmod_Stretch_Energy-OPLS-2005>
139.992980957031

> <r_mmod_Bend_Energy-OPLS-2005>
222.103744506836

> <r_mmod_Torsional_Energy-OPLS-2005>
258.684051513672

> <r_mmod_Improper_Torsional_Energy-OPLS-2005>
7.70889854431152

> <r_mmod_Van_der_Waal_Energy-OPLS-2005>
103.491859436035

> <r_mmod_Electrostatic_Energy-OPLS-2005>
-332.512512207031

> <r_mmod_Solvation_Energy-OPLS-2005>
-233.857864379883

> <b_mmod_Minimization_Converged-OPLS-2005>
0

> <r_mmod_RMS_Derivative-OPLS-2005>
2.09036207199097

$$$$
74
                    3D
 Structure written by MMmdl.
152160  0  0  1  0            999 V2000
  -30.5734  -14.8622   20.4375 C   0  0  0  0  0  0
  -30.4287  -12.5282   19.4969 C   0  0  0  0  0  0
  -29.5224  -12.5337   18.2468 C   0  0  0  0  0  0
  -28.0477  -12.3432   18.6491 C   0  0  0  0  0  0
  -27.6328  -13.2507   19.8385 C   0  0  2  0  0  0
  -28.6715  -13.2379   20.9795 C   0  0  0  0  0  0
  -25.2464  -13.8243   20.5663 C   0  0  0  0  0  0
  -24.1801  -13.0447   20.9209 C   0  0  0  0  0  0
  -24.6422  -11.6933   20.8726 C   0  0  0  0  0  0
  -23.9093  -10.4307   21.0392 C   0  0  0  0  0  0
  -24.3640   -9.4223   21.9159 C   0  0  0  0  0  0
  -23.6309   -8.2268   22.0752 C   0  0  0  0  0  0
  -22.4272   -8.0307   21.3561 C   0  0  0  0  0  0
  -21.9914   -9.0285   20.4647 C   0  0  0  0  0  0
  -22.7267  -10.2151   20.3046 C   0  0  0  0  0  0
  -21.6866   -6.0729   22.5275 C   0  0  0  0  0  0
  -21.4032   -6.5620   23.8214 C   0  0  0  0  0  0
  -21.3674   -5.6769   24.9173 C   0  0  0  0  0  0
  -21.6046   -4.3034   24.7217 C   0  0  0  0  0  0
  -21.8826   -3.8129   23.4339 C   0  0  0  0  0  0
  -21.9205   -4.6951   22.3397 C   0  0  0  0  0  0
  -22.7813  -13.5198   21.1872 C   0  0  0  0  0  0
  -22.1671   -4.2128   21.0969 F   0  0  0  0  0  0
  -21.5629   -3.4517   25.7736 F   0  0  0  0  0  0
  -29.9583  -13.6194   20.3925 N   0  0  0  0  0  0
  -26.2894  -12.9481   20.3193 N   0  0  0  0  0  0
  -25.9346  -11.6603   20.5695 N   0  0  0  0  0  0
  -22.0474  -12.8210   22.0451 N   0  0  0  0  0  0
  -25.4084  -15.1979   20.4069 N   0  0  0  0  0  0
  -31.7708  -14.9257   20.1447 O   0  0  0  0  0  0
  -21.6654   -6.8883   21.4246 O   0  0  0  0  0  0
  -22.3463  -14.5462   20.6666 O   0  0  0  0  0  0
  -24.6413  -31.8493   23.1917 C   0  0  0  0  0  0
  -25.9202  -32.4721   23.8288 C   0  0  1  0  0  0
  -27.2062  -27.1658   20.1524 C   0  0  0  0  0  0
  -25.5977  -33.8527   24.2206 N   0  0  0  0  0  0
  -23.4416  -30.4710   21.5380 C   0  0  2  0  0  0
  -24.8868  -28.9040   20.1132 C   0  0  0  0  0  0
  -22.7547  -29.4587   22.4886 C   0  0  0  0  0  0
  -18.0299  -28.1406   22.8477 C   0  0  0  0  0  0
  -24.1497  -36.7269   23.2628 C   0  0  0  0  0  0
  -25.9966  -30.7313   21.3878 C   0  0  0  0  0  0
  -26.0642  -29.3456   20.7288 C   0  0  0  0  0  0
  -27.2255  -28.4918   20.7341 C   0  0  0  0  0  0
  -26.0052  -26.8213   19.4923 C   0  0  0  0  0  0
  -24.8680  -27.6530   19.4812 C   0  0  0  0  0  0
  -23.6651  -29.8057   20.1558 C   0  0  0  0  0  0
  -25.4131  -36.3062   24.0314 C   0  0  1  0  0  0
  -20.5910  -28.3735   23.1241 C   0  0  2  0  0  0
  -20.6815  -26.9438   22.5406 C   0  0  0  0  0  0
  -19.5788  -26.6390   21.5225 C   0  0  0  0  0  0
  -18.1956  -26.7943   22.1624 C   0  0  0  0  0  0
  -19.1549  -28.8884   23.2857 C   0  0  0  0  0  0
  -18.9473  -30.1489   23.8867 C   0  0  0  0  0  0
  -17.6468  -30.6596   24.0571 C   0  0  0  0  0  0
  -25.9082  -34.9424   23.5064 C   0  0  0  0  0  0
  -16.5361  -29.9093   23.6346 C   0  0  0  0  0  0
  -16.7282  -28.6524   23.0340 C   0  0  0  0  0  0
  -26.4525  -31.6566   25.0713 C   0  0  0  0  0  0
  -25.3711  -31.3751   26.1409 C   0  0  0  0  0  0
  -27.0396  -30.2967   24.6279 C   0  0  0  0  0  0
  -27.6064  -32.4321   25.7510 C   0  0  0  0  0  0
  -27.5595  -37.1781   24.8446 C   0  0  0  0  0  0
  -21.4239  -29.3069   22.3619 N   0  0  0  0  0  0
  -26.4291  -37.3779   23.9415 N   0  0  0  0  0  0
  -24.7126  -31.0366   22.0944 N   0  0  0  0  0  0
  -23.4205  -28.8142   23.3029 O   0  0  0  0  0  0
  -28.2699  -26.2052   20.1994 O   0  0  0  0  0  0
  -26.5649  -34.8923   22.4634 O   0  0  0  0  0  0
  -23.5545  -32.1366   23.7151 O   0  0  0  0  0  0
  -29.4240  -19.7546   21.6547 C   0  0  0  0  0  0
  -29.1425  -20.9787   19.2520 C   0  0  0  0  0  0
  -29.1623  -21.1796   21.6014 C   0  0  0  0  0  0
  -29.0536  -21.8869   20.3583 C   0  0  0  0  0  0
  -29.5919  -18.9446   20.4888 C   0  0  0  0  0  0
  -29.1016  -21.9567   22.9051 C   0  0  0  0  0  0
  -29.1574  -23.5203   20.1827 C   0  0  0  0  0  0
  -30.3672  -17.5024   20.4802 C   0  0  0  0  0  0
  -27.9915  -24.6885   20.3317 C   0  0  0  0  0  0
  -29.4013  -19.6138   19.3094 N   0  0  0  0  0  0
  -29.8305  -16.0480   20.6007 N   0  0  0  0  0  0
  -31.4720  -12.6578   19.2053 H   0  0  0  0  0  0
  -30.3789  -11.5608   20.0010 H   0  0  0  0  0  0
  -29.8341  -11.7596   17.5443 H   0  0  0  0  0  0
  -29.6346  -13.4847   17.7255 H   0  0  0  0  0  0
  -27.9113  -11.2945   18.9183 H   0  0  0  0  0  0
  -27.4022  -12.5301   17.7899 H   0  0  0  0  0  0
  -27.6073  -14.2654   19.4400 H   0  0  0  0  0  0
  -28.7300  -12.2532   21.4441 H   0  0  0  0  0  0
  -28.3865  -13.9394   21.7646 H   0  0  0  0  0  0
  -25.2805   -9.5686   22.4705 H   0  0  0  0  0  0
  -24.0031   -7.4649   22.7446 H   0  0  0  0  0  0
  -21.0870   -8.8805   19.8931 H   0  0  0  0  0  0
  -22.3757  -10.9680   19.6137 H   0  0  0  0  0  0
  -21.2024   -7.6130   23.9725 H   0  0  0  0  0  0
  -21.1496   -6.0484   25.9072 H   0  0  0  0  0  0
  -22.0592   -2.7595   23.2848 H   0  0  0  0  0  0
  -22.4085  -11.9884   22.4869 H   0  0  0  0  0  0
  -21.1071  -13.1222   22.2588 H   0  0  0  0  0  0
  -24.6315  -15.8415   20.5052 H   0  0  0  0  0  0
  -26.2409  -15.6441   20.0446 H   0  0  0  0  0  0
  -26.7259  -32.5337   23.1013 H   0  0  0  0  0  0
  -25.0156  -33.9656   25.0378 H   0  0  0  0  0  0
  -22.7454  -31.2988   21.3862 H   0  0  0  0  0  0
  -23.3801  -35.9554   23.3230 H   0  0  0  0  0  0
  -24.3594  -36.8964   22.2054 H   0  0  0  0  0  0
  -23.7196  -37.6422   23.6707 H   0  0  0  0  0  0
  -26.1516  -31.4867   20.6164 H   0  0  0  0  0  0
  -26.8669  -30.7780   22.0295 H   0  0  0  0  0  0
  -28.1229  -28.8229   21.2375 H   0  0  0  0  0  0
  -25.9151  -25.8794   18.9766 H   0  0  0  0  0  0
  -23.9684  -27.3114   18.9860 H   0  0  0  0  0  0
  -23.8099  -30.5828   19.4048 H   0  0  0  0  0  0
  -22.7797  -29.2526   19.8400 H   0  0  0  0  0  0
  -25.1315  -36.1891   25.0806 H   0  0  0  0  0  0
  -21.0007  -28.3333   24.1360 H   0  0  0  0  0  0
  -20.5761  -26.2338   23.3626 H   0  0  0  0  0  0
  -21.6678  -26.7488   22.1167 H   0  0  0  0  0  0
  -19.6965  -25.6294   21.1280 H   0  0  0  0  0  0
  -19.6741  -27.3185   20.6749 H   0  0  0  0  0  0
  -17.4242  -26.6684   21.4009 H   0  0  0  0  0  0
  -18.0338  -26.0082   22.9016 H   0  0  0  0  0  0
  -19.7945  -30.7326   24.2201 H   0  0  0  0  0  0
  -17.5018  -31.6270   24.5189 H   0  0  0  0  0  0
  -15.5362  -30.2990   23.7691 H   0  0  0  0  0  0
  -15.8683  -28.0853   22.7051 H   0  0  0  0  0  0
  -24.5878  -30.7121   25.7706 H   0  0  0  0  0  0
  -24.8921  -32.2938   26.4805 H   0  0  0  0  0  0
  -25.7981  -30.8919   27.0203 H   0  0  0  0  0  0
  -26.3003  -29.6678   24.1297 H   0  0  0  0  0  0
  -27.4031  -29.7282   25.4847 H   0  0  0  0  0  0
  -27.8905  -30.4213   23.9581 H   0  0  0  0  0  0
  -27.2654  -33.3629   26.2060 H   0  0  0  0  0  0
  -28.3898  -32.6856   25.0350 H   0  0  0  0  0  0
  -28.0708  -31.8457   26.5453 H   0  0  0  0  0  0
  -28.2548  -38.0143   24.7605 H   0  0  0  0  0  0
  -28.1165  -36.2684   24.6149 H   0  0  0  0  0  0
  -27.2326  -37.1263   25.8846 H   0  0  0  0  0  0
  -20.9449  -29.8748   21.6762 H   0  0  0  0  0  0
  -26.0166  -38.2836   24.1490 H   0  0  0  0  0  0
  -29.6044  -19.2909   22.6153 H   0  0  0  0  0  0
  -29.0994  -21.3818   18.2512 H   0  0  0  0  0  0
  -28.9353  -21.2930   23.7556 H   0  0  0  0  0  0
  -28.2883  -22.6821   22.8883 H   0  0  0  0  0  0
  -30.0357  -22.4949   23.0739 H   0  0  0  0  0  0
  -29.5676  -23.6628   19.1816 H   0  0  0  0  0  0
  -29.9740  -23.8153   20.8406 H   0  0  0  0  0  0
  -31.1106  -17.5847   21.2719 H   0  0  0  0  0  0
  -30.9582  -17.5084   19.5629 H   0  0  0  0  0  0
  -27.5414  -24.5678   21.3177 H   0  0  0  0  0  0
  -27.2156  -24.3996   19.6263 H   0  0  0  0  0  0
  -28.8451  -15.9516   20.7943 H   0  0  0  0  0  0
  1 25  1  0  0  0
  1 30  2  0  0  0
  1 81  1  0  0  0
  2  3  1  0  0  0
  2 25  1  0  0  0
  2 82  1  0  0  0
  2 83  1  0  0  0
  3  4  1  0  0  0
  3 84  1  0  0  0
  3 85  1  0  0  0
  4  5  1  0  0  0
  4 86  1  0  0  0
  4 87  1  0  0  0
  5  6  1  0  0  0
  5 26  1  0  0  0
  5 88  1  0  0  0
  6 25  1  0  0  0
  6 89  1  0  0  0
  6 90  1  0  0  0
  7  8  2  0  0  0
  7 26  1  0  0  0
  7 29  1  0  0  0
  8  9  1  0  0  0
  8 22  1  0  0  0
  9 10  1  0  0  0
  9 27  2  0  0  0
 10 11  2  0  0  0
 10 15  1  0  0  0
 11 12  1  0  0  0
 11 91  1  0  0  0
 12 13  2  0  0  0
 12 92  1  0  0  0
 13 14  1  0  0  0
 13 31  1  0  0  0
 14 15  2  0  0  0
 14 93  1  0  0  0
 15 94  1  0  0  0
 16 17  2  0  0  0
 16 21  1  0  0  0
 16 31  1  0  0  0
 17 18  1  0  0  0
 17 95  1  0  0  0
 18 19  2  0  0  0
 18 96  1  0  0  0
 19 20  1  0  0  0
 19 24  1  0  0  0
 20 21  2  0  0  0
 20 97  1  0  0  0
 21 23  1  0  0  0
 22 28  1  0  0  0
 22 32  2  0  0  0
 26 27  1  0  0  0
 28 98  1  0  0  0
 28 99  1  0  0  0
 29100  1  0  0  0
 29101  1  0  0  0
 33 34  1  0  0  0
 33 66  1  0  0  0
 33 70  2  0  0  0
 34 36  1  0  0  0
 34 59  1  0  0  0
 34102  1  0  0  0
 35 44  2  0  0  0
 35 45  1  0  0  0
 35 68  1  0  0  0
 36 56  1  0  0  0
 36103  1  0  0  0
 37 39  1  0  0  0
 37 47  1  0  0  0
 37 66  1  0  0  0
 37104  1  0  0  0
 38 43  2  0  0  0
 38 46  1  0  0  0
 38 47  1  0  0  0
 39 64  1  0  0  0
 39 67  2  0  0  0
 40 52  1  0  0  0
 40 53  2  0  0  0
 40 58  1  0  0  0
 41105  1  0  0  0
 41106  1  0  0  0
 41107  1  0  0  0
 41 48  1  0  0  0
 42 43  1  0  0  0
 42 66  1  0  0  0
 42108  1  0  0  0
 42109  1  0  0  0
 43 44  1  0  0  0
 44110  1  0  0  0
 45 46  2  0  0  0
 45111  1  0  0  0
 46112  1  0  0  0
 47113  1  0  0  0
 47114  1  0  0  0
 48 56  1  0  0  0
 48 65  1  0  0  0
 48115  1  0  0  0
 49 50  1  0  0  0
 49 53  1  0  0  0
 49 64  1  0  0  0
 49116  1  0  0  0
 50 51  1  0  0  0
 50117  1  0  0  0
 50118  1  0  0  0
 51 52  1  0  0  0
 51119  1  0  0  0
 51120  1  0  0  0
 52121  1  0  0  0
 52122  1  0  0  0
 53 54  1  0  0  0
 54 55  2  0  0  0
 54123  1  0  0  0
 55 57  1  0  0  0
 55124  1  0  0  0
 56 69  2  0  0  0
 57 58  2  0  0  0
 57125  1  0  0  0
 58126  1  0  0  0
 59 60  1  0  0  0
 59 61  1  0  0  0
 59 62  1  0  0  0
 60127  1  0  0  0
 60128  1  0  0  0
 60129  1  0  0  0
 61130  1  0  0  0
 61131  1  0  0  0
 61132  1  0  0  0
 62133  1  0  0  0
 62134  1  0  0  0
 62135  1  0  0  0
 63 65  1  0  0  0
 63136  1  0  0  0
 63137  1  0  0  0
 63138  1  0  0  0
 64139  1  0  0  0
 65140  1  0  0  0
 68 79  1  0  0  0
 71 73  2  0  0  0
 71 75  1  0  0  0
 71141  1  0  0  0
 72 74  2  0  0  0
 72 80  1  0  0  0
 72142  1  0  0  0
 73 74  1  0  0  0
 73 76  1  0  0  0
 74 77  1  0  0  0
 75 78  1  0  0  0
 75 80  2  0  0  0
 76143  1  0  0  0
 76144  1  0  0  0
 76145  1  0  0  0
 77 79  1  0  0  0
 77146  1  0  0  0
 77147  1  0  0  0
 78 81  1  0  0  0
 78148  1  0  0  0
 78149  1  0  0  0
 79150  1  0  0  0
 79151  1  0  0  0
 81152  1  0  0  0
M  ISO  4   1 100  68 101  79 101  81 100
M  END
> <chiral flag>
0

> <version>
0

> <s_m_source_file>
/data/baiqing/PycharmProjects/Reinvent-master-3.2/result/LINK_invent/BTK/process_docking_weight1_custom_sum_contain_oxygen_bond_distance_aromatic_linkinvent_7_9_3/rearranged_h_0037.sdf

> <i_m_source_file_index>
75

> <r_mmod_Potential_Energy-OPLS-2005>
107.989501953125

> <r_mmod_Stretch_Energy-OPLS-2005>
189.791351318359

> <r_mmod_Bend_Energy-OPLS-2005>
232.882446289062

> <r_mmod_Torsional_Energy-OPLS-2005>
228.272109985352

> <r_mmod_Improper_Torsional_Energy-OPLS-2005>
9.76699924468994

> <r_mmod_Van_der_Waal_Energy-OPLS-2005>
137.029937744141

> <r_mmod_Electrostatic_Energy-OPLS-2005>
-612.195373535156

> <r_mmod_Solvation_Energy-OPLS-2005>
-226.824523925781

> <b_mmod_Minimization_Converged-OPLS-2005>
0

> <r_mmod_RMS_Derivative-OPLS-2005>
3.05792260169983

$$$$
75
                    3D
 Structure written by MMmdl.
155163  0  0  1  0            999 V2000
  -30.6818  -14.4760   20.6085 C   0  0  0  0  0  0
  -30.4331  -12.3354   19.3968 C   0  0  0  0  0  0
  -29.4883  -12.5201   18.1919 C   0  0  0  0  0  0
  -28.0100  -12.3774   18.6096 C   0  0  0  0  0  0
  -27.6609  -13.2018   19.8773 C   0  0  2  0  0  0
  -28.7052  -12.9554   20.9869 C   0  0  0  0  0  0
  -25.2585  -13.8142   20.5665 C   0  0  0  0  0  0
  -24.1829  -13.0432   20.9173 C   0  0  0  0  0  0
  -24.6361  -11.6898   20.8718 C   0  0  0  0  0  0
  -23.9020  -10.4297   21.0389 C   0  0  0  0  0  0
  -24.3587   -9.4220   21.9164 C   0  0  0  0  0  0
  -23.6284   -8.2248   22.0732 C   0  0  0  0  0  0
  -22.4268   -8.0271   21.3531 C   0  0  0  0  0  0
  -21.9890   -9.0228   20.4626 C   0  0  0  0  0  0
  -22.7192  -10.2127   20.3041 C   0  0  0  0  0  0
  -21.6846   -6.0734   22.5268 C   0  0  0  0  0  0
  -21.3999   -6.5637   23.8198 C   0  0  0  0  0  0
  -21.3668   -5.6792   24.9166 C   0  0  0  0  0  0
  -21.6049   -4.3051   24.7217 C   0  0  0  0  0  0
  -21.8823   -3.8147   23.4334 C   0  0  0  0  0  0
  -21.9189   -4.6965   22.3396 C   0  0  0  0  0  0
  -22.7856  -13.5233   21.1852 C   0  0  0  0  0  0
  -22.1660   -4.2153   21.0975 F   0  0  0  0  0  0
  -21.5642   -3.4540   25.7735 F   0  0  0  0  0  0
  -30.0268  -13.2970   20.4327 N   0  0  0  0  0  0
  -26.3007  -12.9292   20.3365 N   0  0  0  0  0  0
  -25.9284  -11.6454   20.5744 N   0  0  0  0  0  0
  -22.0494  -12.8234   22.0411 N   0  0  0  0  0  0
  -25.4341  -15.1858   20.4061 N   0  0  0  0  0  0
  -31.8068  -14.6935   20.1469 O   0  0  0  0  0  0
  -21.6638   -6.8870   21.4224 O   0  0  0  0  0  0
  -22.3549  -14.5540   20.6694 O   0  0  0  0  0  0
  -24.6156  -31.8663   23.2076 C   0  0  0  0  0  0
  -25.9052  -32.4816   23.8375 C   0  0  1  0  0  0
  -27.2351  -27.4236   20.1070 C   0  0  0  0  0  0
  -25.5920  -33.8616   24.2326 N   0  0  0  0  0  0
  -23.4031  -30.4905   21.5470 C   0  0  2  0  0  0
  -24.8502  -28.9531   20.1131 C   0  0  0  0  0  0
  -22.7406  -29.4662   22.4966 C   0  0  0  0  0  0
  -18.0281  -28.1376   22.8492 C   0  0  0  0  0  0
  -24.1482  -36.7308   23.2631 C   0  0  0  0  0  0
  -25.9317  -30.8336   21.3577 C   0  0  0  0  0  0
  -26.0104  -29.4659   20.7067 C   0  0  0  0  0  0
  -27.2071  -28.7121   20.6919 C   0  0  0  0  0  0
  -26.0590  -26.9271   19.5051 C   0  0  0  0  0  0
  -24.8710  -27.6857   19.5042 C   0  0  0  0  0  0
  -23.6121  -29.8205   20.1621 C   0  0  0  0  0  0
  -25.4103  -36.3111   24.0332 C   0  0  1  0  0  0
  -20.5870  -28.3676   23.1321 C   0  0  2  0  0  0
  -20.6773  -26.9407   22.5431 C   0  0  0  0  0  0
  -19.5760  -26.6389   21.5216 C   0  0  0  0  0  0
  -18.1933  -26.7928   22.1623 C   0  0  0  0  0  0
  -19.1526  -28.8840   23.2906 C   0  0  0  0  0  0
  -18.9446  -30.1443   23.8918 C   0  0  0  0  0  0
  -17.6446  -30.6577   24.0569 C   0  0  0  0  0  0
  -25.9036  -34.9476   23.5123 C   0  0  0  0  0  0
  -16.5340  -29.9075   23.6329 C   0  0  0  0  0  0
  -16.7267  -28.6497   23.0341 C   0  0  0  0  0  0
  -26.4496  -31.6579   25.0688 C   0  0  0  0  0  0
  -25.3767  -31.3664   26.1435 C   0  0  0  0  0  0
  -27.0317  -30.3019   24.6047 C   0  0  0  0  0  0
  -27.6091  -32.4284   25.7445 C   0  0  0  0  0  0
  -27.5576  -37.1799   24.8463 C   0  0  0  0  0  0
  -21.4131  -29.3041   22.3714 N   0  0  0  0  0  0
  -26.4288  -37.3798   23.9411 N   0  0  0  0  0  0
  -24.6681  -31.0783   22.0963 N   0  0  0  0  0  0
  -23.4175  -28.8211   23.3012 O   0  0  0  0  0  0
  -28.4028  -26.6861   20.1101 O   0  0  0  0  0  0
  -26.5587  -34.8927   22.4677 O   0  0  0  0  0  0
  -23.5357  -32.1410   23.7488 O   0  0  0  0  0  0
  -29.1741  -21.9104   18.7334 C   0  0  0  0  0  0
  -28.7628  -22.3013   21.0715 C   0  0  0  0  0  0
  -28.9149  -22.8316   19.7723 C   0  0  0  0  0  0
  -29.2400  -20.5267   19.0085 C   0  0  0  0  0  0
  -29.0466  -20.0929   20.3399 C   0  0  0  0  0  0
  -28.8337  -24.3365   19.4392 C   0  0  0  0  0  0
  -29.0320  -18.6003   20.7210 C   0  0  0  0  0  0
  -30.4292  -17.9514   20.8962 C   0  0  0  0  0  0
  -30.5035  -16.6923   21.8087 C   0  0  0  0  0  0
  -28.3223  -25.3076   20.5344 C   0  0  0  0  0  0
  -28.8330  -20.9748   21.3494 N   0  0  0  0  0  0
  -29.9834  -15.4315   21.2549 N   0  0  0  0  0  0
  -29.5447  -19.4114   17.7228 Cl  0  0  0  0  0  0
  -31.4678  -12.4780   19.0811 H   0  0  0  0  0  0
  -30.3770  -11.3161   19.7829 H   0  0  0  0  0  0
  -29.7281  -11.7953   17.4124 H   0  0  0  0  0  0
  -29.6449  -13.5056   17.7497 H   0  0  0  0  0  0
  -27.8134  -11.3202   18.7899 H   0  0  0  0  0  0
  -27.3582  -12.6717   17.7854 H   0  0  0  0  0  0
  -27.7111  -14.2548   19.5988 H   0  0  0  0  0  0
  -28.6973  -11.9060   21.2844 H   0  0  0  0  0  0
  -28.4641  -13.5133   21.8927 H   0  0  0  0  0  0
  -25.2730   -9.5724   22.4729 H   0  0  0  0  0  0
  -24.0017   -7.4647   22.7437 H   0  0  0  0  0  0
  -21.0831   -8.8708   19.8925 H   0  0  0  0  0  0
  -22.3609  -10.9657   19.6160 H   0  0  0  0  0  0
  -21.1968   -7.6141   23.9700 H   0  0  0  0  0  0
  -21.1494   -6.0523   25.9072 H   0  0  0  0  0  0
  -22.0596   -2.7608   23.2825 H   0  0  0  0  0  0
  -22.4110  -11.9937   22.4883 H   0  0  0  0  0  0
  -21.1073  -13.1214   22.2528 H   0  0  0  0  0  0
  -24.6712  -15.8460   20.5097 H   0  0  0  0  0  0
  -26.2860  -15.6162   20.0683 H   0  0  0  0  0  0
  -26.7117  -32.5537   23.1140 H   0  0  0  0  0  0
  -25.0112  -33.9790   25.0503 H   0  0  0  0  0  0
  -22.6927  -31.3072   21.4061 H   0  0  0  0  0  0
  -23.3751  -35.9638   23.3308 H   0  0  0  0  0  0
  -24.3570  -36.8900   22.2042 H   0  0  0  0  0  0
  -23.7221  -37.6506   23.6642 H   0  0  0  0  0  0
  -26.0425  -31.5996   20.5890 H   0  0  0  0  0  0
  -26.8193  -30.8886   21.9761 H   0  0  0  0  0  0
  -28.1051  -29.1095   21.1454 H   0  0  0  0  0  0
  -26.0581  -25.9563   19.0305 H   0  0  0  0  0  0
  -23.9826  -27.2871   19.0339 H   0  0  0  0  0  0
  -23.7179  -30.5926   19.3995 H   0  0  0  0  0  0
  -22.7367  -29.2381   19.8699 H   0  0  0  0  0  0
  -25.1278  -36.1976   25.0824 H   0  0  0  0  0  0
  -20.9970  -28.3249   24.1439 H   0  0  0  0  0  0
  -20.5675  -26.2279   23.3612 H   0  0  0  0  0  0
  -21.6643  -26.7447   22.1221 H   0  0  0  0  0  0
  -19.6911  -25.6302   21.1230 H   0  0  0  0  0  0
  -19.6697  -27.3213   20.6753 H   0  0  0  0  0  0
  -17.4206  -26.6686   21.4016 H   0  0  0  0  0  0
  -18.0323  -26.0055   22.9006 H   0  0  0  0  0  0
  -19.7915  -30.7258   24.2289 H   0  0  0  0  0  0
  -17.4995  -31.6256   24.5170 H   0  0  0  0  0  0
  -15.5342  -30.2979   23.7626 H   0  0  0  0  0  0
  -15.8674  -28.0818   22.7035 H   0  0  0  0  0  0
  -24.5995  -30.6950   25.7772 H   0  0  0  0  0  0
  -24.8913  -32.2804   26.4860 H   0  0  0  0  0  0
  -25.8141  -30.8866   27.0197 H   0  0  0  0  0  0
  -26.2859  -29.6800   24.1086 H   0  0  0  0  0  0
  -27.4061  -29.7234   25.4501 H   0  0  0  0  0  0
  -27.8721  -30.4335   23.9224 H   0  0  0  0  0  0
  -27.2740  -33.3597   26.2030 H   0  0  0  0  0  0
  -28.3910  -32.6791   25.0262 H   0  0  0  0  0  0
  -28.0755  -31.8379   26.5344 H   0  0  0  0  0  0
  -28.2594  -38.0096   24.7528 H   0  0  0  0  0  0
  -28.1062  -36.2623   24.6281 H   0  0  0  0  0  0
  -27.2294  -37.1451   25.8865 H   0  0  0  0  0  0
  -20.9270  -29.8767   21.6955 H   0  0  0  0  0  0
  -26.0173  -38.2875   24.1426 H   0  0  0  0  0  0
  -29.3175  -22.2618   17.7228 H   0  0  0  0  0  0
  -28.5761  -22.9449   21.9177 H   0  0  0  0  0  0
  -28.1965  -24.4491   18.5614 H   0  0  0  0  0  0
  -29.8301  -24.6597   19.1332 H   0  0  0  0  0  0
  -28.4533  -18.0428   19.9846 H   0  0  0  0  0  0
  -28.4751  -18.5076   21.6538 H   0  0  0  0  0  0
  -31.0703  -18.7009   21.3623 H   0  0  0  0  0  0
  -30.8818  -17.7502   19.9236 H   0  0  0  0  0  0
  -29.9681  -16.8920   22.7386 H   0  0  0  0  0  0
  -31.5406  -16.5334   22.1079 H   0  0  0  0  0  0
  -28.9586  -25.2186   21.4160 H   0  0  0  0  0  0
  -27.3202  -25.0263   20.8611 H   0  0  0  0  0  0
  -29.0476  -15.1722   21.5326 H   0  0  0  0  0  0
  1 25  1  0  0  0
  1 30  2  0  0  0
  1 82  1  0  0  0
  2  3  1  0  0  0
  2 25  1  0  0  0
  2 84  1  0  0  0
  2 85  1  0  0  0
  3  4  1  0  0  0
  3 86  1  0  0  0
  3 87  1  0  0  0
  4  5  1  0  0  0
  4 88  1  0  0  0
  4 89  1  0  0  0
  5  6  1  0  0  0
  5 26  1  0  0  0
  5 90  1  0  0  0
  6 25  1  0  0  0
  6 91  1  0  0  0
  6 92  1  0  0  0
  7  8  2  0  0  0
  7 26  1  0  0  0
  7 29  1  0  0  0
  8  9  1  0  0  0
  8 22  1  0  0  0
  9 10  1  0  0  0
  9 27  2  0  0  0
 10 11  2  0  0  0
 10 15  1  0  0  0
 11 12  1  0  0  0
 11 93  1  0  0  0
 12 13  2  0  0  0
 12 94  1  0  0  0
 13 14  1  0  0  0
 13 31  1  0  0  0
 14 15  2  0  0  0
 14 95  1  0  0  0
 15 96  1  0  0  0
 16 17  2  0  0  0
 16 21  1  0  0  0
 16 31  1  0  0  0
 17 18  1  0  0  0
 17 97  1  0  0  0
 18 19  2  0  0  0
 18 98  1  0  0  0
 19 20  1  0  0  0
 19 24  1  0  0  0
 20 21  2  0  0  0
 20 99  1  0  0  0
 21 23  1  0  0  0
 22 28  1  0  0  0
 22 32  2  0  0  0
 26 27  1  0  0  0
 28100  1  0  0  0
 28101  1  0  0  0
 29102  1  0  0  0
 29103  1  0  0  0
 33 34  1  0  0  0
 33 66  1  0  0  0
 33 70  2  0  0  0
 34 36  1  0  0  0
 34 59  1  0  0  0
 34104  1  0  0  0
 35 44  2  0  0  0
 35 45  1  0  0  0
 35 68  1  0  0  0
 36 56  1  0  0  0
 36105  1  0  0  0
 37 39  1  0  0  0
 37 47  1  0  0  0
 37 66  1  0  0  0
 37106  1  0  0  0
 38 43  2  0  0  0
 38 46  1  0  0  0
 38 47  1  0  0  0
 39 64  1  0  0  0
 39 67  2  0  0  0
 40 52  1  0  0  0
 40 53  2  0  0  0
 40 58  1  0  0  0
 41107  1  0  0  0
 41108  1  0  0  0
 41109  1  0  0  0
 41 48  1  0  0  0
 42 43  1  0  0  0
 42 66  1  0  0  0
 42110  1  0  0  0
 42111  1  0  0  0
 43 44  1  0  0  0
 44112  1  0  0  0
 45 46  2  0  0  0
 45113  1  0  0  0
 46114  1  0  0  0
 47115  1  0  0  0
 47116  1  0  0  0
 48 56  1  0  0  0
 48 65  1  0  0  0
 48117  1  0  0  0
 49 50  1  0  0  0
 49 53  1  0  0  0
 49 64  1  0  0  0
 49118  1  0  0  0
 50 51  1  0  0  0
 50119  1  0  0  0
 50120  1  0  0  0
 51 52  1  0  0  0
 51121  1  0  0  0
 51122  1  0  0  0
 52123  1  0  0  0
 52124  1  0  0  0
 53 54  1  0  0  0
 54 55  2  0  0  0
 54125  1  0  0  0
 55 57  1  0  0  0
 55126  1  0  0  0
 56 69  2  0  0  0
 57 58  2  0  0  0
 57127  1  0  0  0
 58128  1  0  0  0
 59 60  1  0  0  0
 59 61  1  0  0  0
 59 62  1  0  0  0
 60129  1  0  0  0
 60130  1  0  0  0
 60131  1  0  0  0
 61132  1  0  0  0
 61133  1  0  0  0
 61134  1  0  0  0
 62135  1  0  0  0
 62136  1  0  0  0
 62137  1  0  0  0
 63 65  1  0  0  0
 63138  1  0  0  0
 63139  1  0  0  0
 63140  1  0  0  0
 64141  1  0  0  0
 65142  1  0  0  0
 68 80  1  0  0  0
 71 73  2  0  0  0
 71 74  1  0  0  0
 71143  1  0  0  0
 72 73  1  0  0  0
 72 81  2  0  0  0
 72144  1  0  0  0
 73 76  1  0  0  0
 74 75  2  0  0  0
 74 83  1  0  0  0
 75 77  1  0  0  0
 75 81  1  0  0  0
 76 80  1  0  0  0
 76145  1  0  0  0
 76146  1  0  0  0
 77 78  1  0  0  0
 77147  1  0  0  0
 77148  1  0  0  0
 78 79  1  0  0  0
 78149  1  0  0  0
 78150  1  0  0  0
 79 82  1  0  0  0
 79151  1  0  0  0
 79152  1  0  0  0
 80153  1  0  0  0
 80154  1  0  0  0
 82155  1  0  0  0
M  ISO  4   1 100  68 101  80 101  82 100
M  END
> <chiral flag>
0

> <version>
0

> <s_m_source_file>
/data/baiqing/PycharmProjects/Reinvent-master-3.2/result/LINK_invent/BTK/process_docking_weight1_custom_sum_contain_oxygen_bond_distance_aromatic_linkinvent_7_9_3/rearranged_h_0037.sdf

> <i_m_source_file_index>
76

> <r_mmod_Potential_Energy-OPLS-2005>
-181.383255004883

> <r_mmod_Stretch_Energy-OPLS-2005>
39.8514366149902

> <r_mmod_Bend_Energy-OPLS-2005>
102.260719299316

> <r_mmod_Torsional_Energy-OPLS-2005>
210.080810546875

> <r_mmod_Improper_Torsional_Energy-OPLS-2005>
2.59308457374573

> <r_mmod_Van_der_Waal_Energy-OPLS-2005>
146.475112915039

> <r_mmod_Electrostatic_Energy-OPLS-2005>
-478.078186035156

> <r_mmod_Solvation_Energy-OPLS-2005>
-218.065414428711

> <b_mmod_Minimization_Converged-OPLS-2005>
0

> <r_mmod_RMS_Derivative-OPLS-2005>
2.00598454475403

$$$$
76
                    3D
 Structure written by MMmdl.
172181  0  0  1  0            999 V2000
  -30.6496  -14.5927   20.4056 C   0  0  0  0  0  0
  -30.3860  -12.3533   19.4095 C   0  0  0  0  0  0
  -29.4587  -12.4887   18.1847 C   0  0  0  0  0  0
  -27.9785  -12.3474   18.6032 C   0  0  0  0  0  0
  -27.6231  -13.2109   19.8439 C   0  0  2  0  0  0
  -28.6818  -13.1065   20.9609 C   0  0  0  0  0  0
  -25.2387  -13.8180   20.5620 C   0  0  0  0  0  0
  -24.1695  -13.0518   20.9208 C   0  0  0  0  0  0
  -24.6260  -11.6971   20.8850 C   0  0  0  0  0  0
  -23.8949  -10.4405   21.0499 C   0  0  0  0  0  0
  -24.3618   -9.4294   21.9165 C   0  0  0  0  0  0
  -23.6360   -8.2298   22.0746 C   0  0  0  0  0  0
  -22.4298   -8.0334   21.3572 C   0  0  0  0  0  0
  -21.9840   -9.0340   20.4768 C   0  0  0  0  0  0
  -22.7087  -10.2266   20.3188 C   0  0  0  0  0  0
  -21.6875   -6.0768   22.5294 C   0  0  0  0  0  0
  -21.4071   -6.5670   23.8240 C   0  0  0  0  0  0
  -21.3677   -5.6799   24.9194 C   0  0  0  0  0  0
  -21.6056   -4.3065   24.7213 C   0  0  0  0  0  0
  -21.8799   -3.8175   23.4319 C   0  0  0  0  0  0
  -21.9191   -4.6991   22.3402 C   0  0  0  0  0  0
  -22.7734  -13.5387   21.1829 C   0  0  0  0  0  0
  -22.1617   -4.2189   21.0967 F   0  0  0  0  0  0
  -21.5620   -3.4534   25.7708 F   0  0  0  0  0  0
  -29.9743  -13.4082   20.3491 N   0  0  0  0  0  0
  -26.2811  -12.9350   20.3316 N   0  0  0  0  0  0
  -25.9184  -11.6538   20.5880 N   0  0  0  0  0  0
  -22.0323  -12.8504   22.0422 N   0  0  0  0  0  0
  -25.4045  -15.1867   20.3724 N   0  0  0  0  0  0
  -31.8834  -14.5933   20.3532 O   0  0  0  0  0  0
  -21.6702   -6.8891   21.4246 O   0  0  0  0  0  0
  -22.3549  -14.5732   20.6644 O   0  0  0  0  0  0
  -24.6177  -31.8607   23.2086 C   0  0  0  0  0  0
  -25.9033  -32.4767   23.8392 C   0  0  1  0  0  0
  -27.2217  -27.4009   20.1025 C   0  0  0  0  0  0
  -25.5826  -33.8569   24.2276 N   0  0  0  0  0  0
  -23.4083  -30.4806   21.5478 C   0  0  2  0  0  0
  -24.8566  -28.9518   20.1085 C   0  0  0  0  0  0
  -22.7440  -29.4582   22.5003 C   0  0  0  0  0  0
  -18.0292  -28.1355   22.8494 C   0  0  0  0  0  0
  -24.1515  -36.7350   23.2642 C   0  0  0  0  0  0
  -25.9406  -30.8252   21.3617 C   0  0  0  0  0  0
  -26.0229  -29.4616   20.6973 C   0  0  0  0  0  0
  -27.2166  -28.6966   20.6836 C   0  0  0  0  0  0
  -26.0451  -26.9201   19.4984 C   0  0  0  0  0  0
  -24.8652  -27.6839   19.5045 C   0  0  0  0  0  0
  -23.6146  -29.8108   20.1649 C   0  0  0  0  0  0
  -25.4142  -36.3102   24.0320 C   0  0  1  0  0  0
  -20.5867  -28.3632   23.1342 C   0  0  2  0  0  0
  -20.6760  -26.9374   22.5440 C   0  0  0  0  0  0
  -19.5756  -26.6364   21.5223 C   0  0  0  0  0  0
  -18.1943  -26.7896   22.1649 C   0  0  0  0  0  0
  -19.1526  -28.8840   23.2888 C   0  0  0  0  0  0
  -18.9453  -30.1442   23.8890 C   0  0  0  0  0  0
  -17.6438  -30.6566   24.0569 C   0  0  0  0  0  0
  -25.9050  -34.9454   23.5113 C   0  0  0  0  0  0
  -16.5345  -29.9056   23.6319 C   0  0  0  0  0  0
  -16.7265  -28.6489   23.0332 C   0  0  0  0  0  0
  -26.4459  -31.6563   25.0735 C   0  0  0  0  0  0
  -25.3740  -31.3671   26.1485 C   0  0  0  0  0  0
  -27.0283  -30.3000   24.6131 C   0  0  0  0  0  0
  -27.6026  -32.4312   25.7452 C   0  0  0  0  0  0
  -27.5610  -37.1841   24.8448 C   0  0  0  0  0  0
  -21.4181  -29.2982   22.3732 N   0  0  0  0  0  0
  -26.4330  -37.3789   23.9376 N   0  0  0  0  0  0
  -24.6731  -31.0674   22.0986 N   0  0  0  0  0  0
  -23.4222  -28.8167   23.3069 O   0  0  0  0  0  0
  -28.3085  -26.5505   20.1711 O   0  0  0  0  0  0
  -26.5693  -34.8909   22.4723 O   0  0  0  0  0  0
  -23.5358  -32.1335   23.7477 O   0  0  0  0  0  0
  -26.7382  -18.7296   20.2529 C   0  0  0  0  0  0
  -28.3421  -20.3773   21.0740 C   0  0  0  0  0  0
  -25.7875  -19.7615   20.1766 C   0  0  0  0  0  0
  -26.0862  -21.0743   20.5273 C   0  0  0  0  0  0
  -28.0519  -19.0244   20.6943 C   0  0  0  0  0  0
  -27.3756  -21.4303   21.0113 C   0  0  0  0  0  0
  -24.3498  -19.5827   19.7584 C   0  0  0  0  0  0
  -24.8626  -21.9553   20.3371 C   0  0  0  0  0  0
  -23.7167  -20.9965   19.8678 C   0  0  2  0  0  0
  -21.3249  -20.1026   20.5869 C   0  0  0  0  0  0
  -30.7244  -16.2388   18.6264 C   0  0  0  0  0  0
  -29.1509  -17.9257   20.7619 C   0  0  0  0  0  0
  -27.7057  -22.8507   21.5471 C   0  0  0  0  0  0
  -22.4702  -21.1134   20.7872 C   0  0  0  0  0  0
  -28.1174  -23.9649   20.5092 C   0  0  0  0  0  0
  -28.8415  -16.4868   20.1837 C   0  0  0  0  0  0
  -28.1013  -25.4298   21.0819 C   0  0  0  0  0  0
  -30.0285  -15.6609   19.7924 N   0  0  0  0  0  0
  -31.4279  -12.4518   19.1055 H   0  0  0  0  0  0
  -30.2809  -11.3625   19.8567 H   0  0  0  0  0  0
  -29.6995  -11.7452   17.4232 H   0  0  0  0  0  0
  -29.6022  -13.4617   17.7128 H   0  0  0  0  0  0
  -27.7642  -11.2966   18.7976 H   0  0  0  0  0  0
  -27.3276  -12.6256   17.7723 H   0  0  0  0  0  0
  -27.6238  -14.2306   19.4702 H   0  0  0  0  0  0
  -28.6941  -12.1067   21.4011 H   0  0  0  0  0  0
  -28.4588  -13.7977   21.7750 H   0  0  0  0  0  0
  -25.2824   -9.5730   22.4630 H   0  0  0  0  0  0
  -24.0182   -7.4660   22.7384 H   0  0  0  0  0  0
  -21.0771   -8.8851   19.9095 H   0  0  0  0  0  0
  -22.3456  -10.9865   19.6410 H   0  0  0  0  0  0
  -21.2104   -7.6187   23.9780 H   0  0  0  0  0  0
  -21.1518   -6.0514   25.9094 H   0  0  0  0  0  0
  -22.0554   -2.7632   23.2785 H   0  0  0  0  0  0
  -22.3840  -12.0165   22.4882 H   0  0  0  0  0  0
  -21.1083  -13.1858   22.2825 H   0  0  0  0  0  0
  -24.6006  -15.8048   20.3836 H   0  0  0  0  0  0
  -26.2123  -15.5837   19.9150 H   0  0  0  0  0  0
  -26.7125  -32.5466   23.1164 H   0  0  0  0  0  0
  -24.9695  -33.9713   25.0220 H   0  0  0  0  0  0
  -22.7052  -31.3042   21.4080 H   0  0  0  0  0  0
  -23.3736  -35.9706   23.3288 H   0  0  0  0  0  0
  -24.3657  -36.9007   22.2070 H   0  0  0  0  0  0
  -23.7313  -37.6567   23.6686 H   0  0  0  0  0  0
  -26.0657  -31.6072   20.6114 H   0  0  0  0  0  0
  -26.8198  -30.8657   21.9935 H   0  0  0  0  0  0
  -28.1142  -29.0844   21.1465 H   0  0  0  0  0  0
  -26.0344  -25.9367   19.0505 H   0  0  0  0  0  0
  -23.9629  -27.2863   19.0605 H   0  0  0  0  0  0
  -23.7109  -30.5750   19.3941 H   0  0  0  0  0  0
  -22.7455  -29.2147   19.8833 H   0  0  0  0  0  0
  -25.1339  -36.1940   25.0816 H   0  0  0  0  0  0
  -20.9970  -28.3151   24.1450 H   0  0  0  0  0  0
  -20.5643  -26.2257   23.3619 H   0  0  0  0  0  0
  -21.6641  -26.7373   22.1266 H   0  0  0  0  0  0
  -19.6899  -25.6284   21.1242 H   0  0  0  0  0  0
  -19.6675  -27.3190   20.6769 H   0  0  0  0  0  0
  -17.4208  -26.6638   21.4045 H   0  0  0  0  0  0
  -18.0329  -26.0031   22.9059 H   0  0  0  0  0  0
  -19.7913  -30.7267   24.2264 H   0  0  0  0  0  0
  -17.4986  -31.6246   24.5160 H   0  0  0  0  0  0
  -15.5342  -30.2958   23.7631 H   0  0  0  0  0  0
  -15.8675  -28.0805   22.7020 H   0  0  0  0  0  0
  -24.5884  -30.7030   25.7850 H   0  0  0  0  0  0
  -24.8932  -32.2814   26.4963 H   0  0  0  0  0  0
  -25.8082  -30.8819   27.0233 H   0  0  0  0  0  0
  -26.2849  -29.6794   24.1094 H   0  0  0  0  0  0
  -27.3968  -29.7167   25.4590 H   0  0  0  0  0  0
  -27.8721  -30.4335   23.9348 H   0  0  0  0  0  0
  -27.2610  -33.3584   26.2047 H   0  0  0  0  0  0
  -28.3737  -32.6930   25.0199 H   0  0  0  0  0  0
  -28.0783  -31.8449   26.5312 H   0  0  0  0  0  0
  -28.2605  -38.0171   24.7520 H   0  0  0  0  0  0
  -28.1144  -36.2705   24.6219 H   0  0  0  0  0  0
  -27.2362  -37.1425   25.8867 H   0  0  0  0  0  0
  -20.9376  -29.8704   21.6921 H   0  0  0  0  0  0
  -26.0198  -38.2858   24.1349 H   0  0  0  0  0  0
  -26.4489  -17.7311   19.9652 H   0  0  0  0  0  0
  -29.3283  -20.6072   21.4470 H   0  0  0  0  0  0
  -23.8669  -18.8484   20.4015 H   0  0  0  0  0  0
  -24.3015  -19.2124   18.7282 H   0  0  0  0  0  0
  -25.0530  -22.7151   19.5770 H   0  0  0  0  0  0
  -24.6159  -22.4709   21.2639 H   0  0  0  0  0  0
  -23.4237  -21.2821   18.8590 H   0  0  0  0  0  0
  -20.4590  -20.4112   21.1781 H   0  0  0  0  0  0
  -21.6001  -19.1122   20.9468 H   0  0  0  0  0  0
  -20.9888  -20.0194   19.5531 H   0  0  0  0  0  0
  -30.0486  -16.7435   17.9352 H   0  0  0  0  0  0
  -31.2340  -15.4694   18.0431 H   0  0  0  0  0  0
  -31.4753  -16.9636   18.9437 H   0  0  0  0  0  0
  -29.4560  -17.8245   21.8050 H   0  0  0  0  0  0
  -30.0111  -18.3418   20.2335 H   0  0  0  0  0  0
  -28.5115  -22.7437   22.2786 H   0  0  0  0  0  0
  -26.8519  -23.1895   22.1388 H   0  0  0  0  0  0
  -22.0539  -22.1104   20.6414 H   0  0  0  0  0  0
  -22.7790  -21.0679   21.8324 H   0  0  0  0  0  0
  -27.4690  -23.9098   19.6349 H   0  0  0  0  0  0
  -29.1247  -23.7427   20.1508 H   0  0  0  0  0  0
  -28.2704  -16.6083   19.2638 H   0  0  0  0  0  0
  -28.1858  -15.9459   20.8618 H   0  0  0  0  0  0
  -28.8724  -25.5231   21.8508 H   0  0  0  0  0  0
  -27.1598  -25.5621   21.6203 H   0  0  0  0  0  0
  1 25  1  0  0  0
  1 30  2  0  0  0
  1 88  1  0  0  0
  2  3  1  0  0  0
  2 25  1  0  0  0
  2 89  1  0  0  0
  2 90  1  0  0  0
  3  4  1  0  0  0
  3 91  1  0  0  0
  3 92  1  0  0  0
  4  5  1  0  0  0
  4 93  1  0  0  0
  4 94  1  0  0  0
  5  6  1  0  0  0
  5 26  1  0  0  0
  5 95  1  0  0  0
  6 25  1  0  0  0
  6 96  1  0  0  0
  6 97  1  0  0  0
  7  8  2  0  0  0
  7 26  1  0  0  0
  7 29  1  0  0  0
  8  9  1  0  0  0
  8 22  1  0  0  0
  9 10  1  0  0  0
  9 27  2  0  0  0
 10 11  2  0  0  0
 10 15  1  0  0  0
 11 12  1  0  0  0
 11 98  1  0  0  0
 12 13  2  0  0  0
 12 99  1  0  0  0
 13 14  1  0  0  0
 13 31  1  0  0  0
 14 15  2  0  0  0
 14100  1  0  0  0
 15101  1  0  0  0
 16 17  2  0  0  0
 16 21  1  0  0  0
 16 31  1  0  0  0
 17 18  1  0  0  0
 17102  1  0  0  0
 18 19  2  0  0  0
 18103  1  0  0  0
 19 20  1  0  0  0
 19 24  1  0  0  0
 20 21  2  0  0  0
 20104  1  0  0  0
 21 23  1  0  0  0
 22 28  1  0  0  0
 22 32  2  0  0  0
 26 27  1  0  0  0
 28105  1  0  0  0
 28106  1  0  0  0
 29107  1  0  0  0
 29108  1  0  0  0
 33 34  1  0  0  0
 33 66  1  0  0  0
 33 70  2  0  0  0
 34 36  1  0  0  0
 34 59  1  0  0  0
 34109  1  0  0  0
 35 44  2  0  0  0
 35 45  1  0  0  0
 35 68  1  0  0  0
 36 56  1  0  0  0
 36110  1  0  0  0
 37 39  1  0  0  0
 37 47  1  0  0  0
 37 66  1  0  0  0
 37111  1  0  0  0
 38 43  2  0  0  0
 38 46  1  0  0  0
 38 47  1  0  0  0
 39 64  1  0  0  0
 39 67  2  0  0  0
 40 52  1  0  0  0
 40 53  2  0  0  0
 40 58  1  0  0  0
 41112  1  0  0  0
 41113  1  0  0  0
 41114  1  0  0  0
 41 48  1  0  0  0
 42 43  1  0  0  0
 42 66  1  0  0  0
 42115  1  0  0  0
 42116  1  0  0  0
 43 44  1  0  0  0
 44117  1  0  0  0
 45 46  2  0  0  0
 45118  1  0  0  0
 46119  1  0  0  0
 47120  1  0  0  0
 47121  1  0  0  0
 48 56  1  0  0  0
 48 65  1  0  0  0
 48122  1  0  0  0
 49 50  1  0  0  0
 49 53  1  0  0  0
 49 64  1  0  0  0
 49123  1  0  0  0
 50 51  1  0  0  0
 50124  1  0  0  0
 50125  1  0  0  0
 51 52  1  0  0  0
 51126  1  0  0  0
 51127  1  0  0  0
 52128  1  0  0  0
 52129  1  0  0  0
 53 54  1  0  0  0
 54 55  2  0  0  0
 54130  1  0  0  0
 55 57  1  0  0  0
 55131  1  0  0  0
 56 69  2  0  0  0
 57 58  2  0  0  0
 57132  1  0  0  0
 58133  1  0  0  0
 59 60  1  0  0  0
 59 61  1  0  0  0
 59 62  1  0  0  0
 60134  1  0  0  0
 60135  1  0  0  0
 60136  1  0  0  0
 61137  1  0  0  0
 61138  1  0  0  0
 61139  1  0  0  0
 62140  1  0  0  0
 62141  1  0  0  0
 62142  1  0  0  0
 63 65  1  0  0  0
 63143  1  0  0  0
 63144  1  0  0  0
 63145  1  0  0  0
 64146  1  0  0  0
 65147  1  0  0  0
 68 87  1  0  0  0
 71 73  2  0  0  0
 71 75  1  0  0  0
 71148  1  0  0  0
 72 75  2  0  0  0
 72 76  1  0  0  0
 72149  1  0  0  0
 73 74  1  0  0  0
 73 77  1  0  0  0
 74 76  2  0  0  0
 74 78  1  0  0  0
 75 82  1  0  0  0
 76 83  1  0  0  0
 77 79  1  0  0  0
 77150  1  0  0  0
 77151  1  0  0  0
 78 79  1  0  0  0
 78152  1  0  0  0
 78153  1  0  0  0
 79 84  1  0  0  0
 79154  1  0  0  0
 80 84  1  0  0  0
 80155  1  0  0  0
 80156  1  0  0  0
 80157  1  0  0  0
 81 88  1  0  0  0
 81158  1  0  0  0
 81159  1  0  0  0
 81160  1  0  0  0
 82 86  1  0  0  0
 82161  1  0  0  0
 82162  1  0  0  0
 83 85  1  0  0  0
 83163  1  0  0  0
 83164  1  0  0  0
 84165  1  0  0  0
 84166  1  0  0  0
 85 87  1  0  0  0
 85167  1  0  0  0
 85168  1  0  0  0
 86 88  1  0  0  0
 86169  1  0  0  0
 86170  1  0  0  0
 87171  1  0  0  0
 87172  1  0  0  0
M  ISO  4   1 100  68 101  87 101  88 100
M  END
> <chiral flag>
0

> <version>
0

> <s_m_source_file>
/data/baiqing/PycharmProjects/Reinvent-master-3.2/result/LINK_invent/BTK/process_docking_weight1_custom_sum_contain_oxygen_bond_distance_aromatic_linkinvent_7_9_3/rearranged_h_0037.sdf

> <i_m_source_file_index>
77

> <r_mmod_Potential_Energy-OPLS-2005>
276.963043212891

> <r_mmod_Stretch_Energy-OPLS-2005>
64.3689575195312

> <r_mmod_Bend_Energy-OPLS-2005>
166.081436157227

> <r_mmod_Torsional_Energy-OPLS-2005>
332.721343994141

> <r_mmod_Improper_Torsional_Energy-OPLS-2005>
30.4207344055176

> <r_mmod_Van_der_Waal_Energy-OPLS-2005>
132.990219116211

> <r_mmod_Electrostatic_Energy-OPLS-2005>
-313.128723144531

> <r_mmod_Solvation_Energy-OPLS-2005>
-187.046920776367

> <b_mmod_Minimization_Converged-OPLS-2005>
0

> <r_mmod_RMS_Derivative-OPLS-2005>
8.52553272247314

$$$$
77
                    3D
 Structure written by MMmdl.
153161  0  0  1  0            999 V2000
  -30.6452  -14.7362   20.4431 C   0  0  0  0  0  0
  -30.4246  -12.4487   19.4807 C   0  0  0  0  0  0
  -29.5120  -12.5048   18.2380 C   0  0  0  0  0  0
  -28.0362  -12.3351   18.6452 C   0  0  0  0  0  0
  -27.6389  -13.2383   19.8450 C   0  0  2  0  0  0
  -28.6843  -13.1955   20.9815 C   0  0  0  0  0  0
  -25.2493  -13.8217   20.5684 C   0  0  0  0  0  0
  -24.1791  -13.0453   20.9215 C   0  0  0  0  0  0
  -24.6397  -11.6935   20.8734 C   0  0  0  0  0  0
  -23.9069  -10.4300   21.0390 C   0  0  0  0  0  0
  -24.3621   -9.4215   21.9174 C   0  0  0  0  0  0
  -23.6295   -8.2252   22.0754 C   0  0  0  0  0  0
  -22.4280   -8.0280   21.3546 C   0  0  0  0  0  0
  -21.9915   -9.0246   20.4643 C   0  0  0  0  0  0
  -22.7235  -10.2131   20.3040 C   0  0  0  0  0  0
  -21.6859   -6.0725   22.5273 C   0  0  0  0  0  0
  -21.4013   -6.5627   23.8205 C   0  0  0  0  0  0
  -21.3669   -5.6785   24.9171 C   0  0  0  0  0  0
  -21.6055   -4.3047   24.7225 C   0  0  0  0  0  0
  -21.8810   -3.8135   23.4342 C   0  0  0  0  0  0
  -21.9194   -4.6950   22.3398 C   0  0  0  0  0  0
  -22.7802  -13.5223   21.1858 C   0  0  0  0  0  0
  -22.1653   -4.2126   21.0975 F   0  0  0  0  0  0
  -21.5644   -3.4537   25.7743 F   0  0  0  0  0  0
  -29.9869  -13.5279   20.3953 N   0  0  0  0  0  0
  -26.2926  -12.9443   20.3254 N   0  0  0  0  0  0
  -25.9329  -11.6580   20.5732 N   0  0  0  0  0  0
  -22.0450  -12.8217   22.0419 N   0  0  0  0  0  0
  -25.4188  -15.1939   20.4095 N   0  0  0  0  0  0
  -31.8385  -14.7879   20.1434 O   0  0  0  0  0  0
  -21.6649   -6.8871   21.4238 O   0  0  0  0  0  0
  -22.3481  -14.5523   20.6694 O   0  0  0  0  0  0
  -24.6296  -31.8535   23.1962 C   0  0  0  0  0  0
  -25.9125  -32.4749   23.8307 C   0  0  1  0  0  0
  -27.2209  -27.2694   20.1175 C   0  0  0  0  0  0
  -25.5912  -33.8551   24.2235 N   0  0  0  0  0  0
  -23.4254  -30.4759   21.5389 C   0  0  2  0  0  0
  -24.8691  -28.9212   20.1050 C   0  0  0  0  0  0
  -22.7502  -29.4601   22.4912 C   0  0  0  0  0  0
  -18.0290  -28.1390   22.8487 C   0  0  0  0  0  0
  -24.1478  -36.7288   23.2651 C   0  0  0  0  0  0
  -25.9681  -30.7674   21.3731 C   0  0  0  0  0  0
  -26.0371  -29.3901   20.7164 C   0  0  0  0  0  0
  -27.2108  -28.5750   20.7140 C   0  0  0  0  0  0
  -26.0256  -26.8577   19.4862 C   0  0  0  0  0  0
  -24.8686  -27.6631   19.4802 C   0  0  0  0  0  0
  -23.6390  -29.8061   20.1550 C   0  0  0  0  0  0
  -25.4101  -36.3071   24.0334 C   0  0  1  0  0  0
  -20.5889  -28.3694   23.1272 C   0  0  2  0  0  0
  -20.6765  -26.9409   22.5412 C   0  0  0  0  0  0
  -19.5739  -26.6382   21.5216 C   0  0  0  0  0  0
  -18.1924  -26.7934   22.1627 C   0  0  0  0  0  0
  -19.1545  -28.8856   23.2876 C   0  0  0  0  0  0
  -18.9478  -30.1461   23.8889 C   0  0  0  0  0  0
  -17.6480  -30.6589   24.0568 C   0  0  0  0  0  0
  -25.9047  -34.9446   23.5095 C   0  0  0  0  0  0
  -16.5364  -29.9094   23.6335 C   0  0  0  0  0  0
  -16.7279  -28.6512   23.0349 C   0  0  0  0  0  0
  -26.4484  -31.6581   25.0701 C   0  0  0  0  0  0
  -25.3720  -31.3746   26.1441 C   0  0  0  0  0  0
  -27.0336  -30.3002   24.6181 C   0  0  0  0  0  0
  -27.6027  -32.4340   25.7474 C   0  0  0  0  0  0
  -27.5567  -37.1794   24.8474 C   0  0  0  0  0  0
  -21.4207  -29.3049   22.3669 N   0  0  0  0  0  0
  -26.4278  -37.3771   23.9420 N   0  0  0  0  0  0
  -24.6944  -31.0514   22.0924 N   0  0  0  0  0  0
  -23.4212  -28.8152   23.3011 O   0  0  0  0  0  0
  -28.3495  -26.4253   20.2049 O   0  0  0  0  0  0
  -26.5643  -34.8930   22.4680 O   0  0  0  0  0  0
  -23.5450  -32.1357   23.7259 O   0  0  0  0  0  0
  -28.4583  -19.0973   20.9392 C   0  0  0  0  0  0
  -29.7183  -18.7061   20.3811 C   0  0  0  0  0  0
  -30.1405  -19.9401   19.8759 C   0  0  0  0  0  0
  -31.3992  -20.2286   19.1166 C   0  0  0  0  0  0
  -30.5068  -17.3137   20.3380 C   0  0  0  0  0  0
  -28.5240  -23.6744   20.3858 C   0  0  0  0  0  0
  -29.1479  -22.4076   19.5955 C   0  0  0  0  0  0
  -28.4679  -25.0744   19.5692 C   0  0  0  0  0  0
  -28.1562  -20.4015   20.7795 N   0  0  0  0  0  0
  -29.2002  -20.9723   20.1294 N   0  0  0  0  0  0
  -29.9294  -15.9177   20.5852 N   0  0  0  0  0  0
  -31.4705  -12.5496   19.1846 H   0  0  0  0  0  0
  -30.3469  -11.4789   19.9758 H   0  0  0  0  0  0
  -29.7952  -11.7281   17.5267 H   0  0  0  0  0  0
  -29.6452  -13.4589   17.7251 H   0  0  0  0  0  0
  -27.8885  -11.2858   18.9039 H   0  0  0  0  0  0
  -27.3847  -12.5297   17.7917 H   0  0  0  0  0  0
  -27.6272  -14.2565   19.4573 H   0  0  0  0  0  0
  -28.7142  -12.2074   21.4425 H   0  0  0  0  0  0
  -28.4227  -13.9002   21.7724 H   0  0  0  0  0  0
  -25.2771   -9.5689   22.4752 H   0  0  0  0  0  0
  -24.0001   -7.4642   22.7475 H   0  0  0  0  0  0
  -21.0851   -8.8747   19.8947 H   0  0  0  0  0  0
  -22.3683  -10.9660   19.6141 H   0  0  0  0  0  0
  -21.1987   -7.6134   23.9693 H   0  0  0  0  0  0
  -21.1519   -6.0525   25.9074 H   0  0  0  0  0  0
  -22.0585   -2.7594   23.2853 H   0  0  0  0  0  0
  -22.4086  -11.9903   22.4840 H   0  0  0  0  0  0
  -21.1045  -13.1200   22.2596 H   0  0  0  0  0  0
  -24.6522  -15.8478   20.5214 H   0  0  0  0  0  0
  -26.2613  -15.6291   20.0568 H   0  0  0  0  0  0
  -26.7190  -32.5385   23.1042 H   0  0  0  0  0  0
  -25.0022  -33.9677   25.0358 H   0  0  0  0  0  0
  -22.7211  -31.2987   21.3939 H   0  0  0  0  0  0
  -23.3739  -35.9626   23.3324 H   0  0  0  0  0  0
  -24.3567  -36.8892   22.2064 H   0  0  0  0  0  0
  -23.7228  -37.6489   23.6670 H   0  0  0  0  0  0
  -26.1054  -31.5236   20.5981 H   0  0  0  0  0  0
  -26.8472  -30.8142   22.0040 H   0  0  0  0  0  0
  -28.1047  -28.9308   21.2073 H   0  0  0  0  0  0
  -25.9377  -25.8895   19.0179 H   0  0  0  0  0  0
  -23.9710  -27.2981   19.0005 H   0  0  0  0  0  0
  -23.7613  -30.5813   19.3975 H   0  0  0  0  0  0
  -22.7557  -29.2394   19.8531 H   0  0  0  0  0  0
  -25.1276  -36.1918   25.0822 H   0  0  0  0  0  0
  -20.9986  -28.3277   24.1389 H   0  0  0  0  0  0
  -20.5640  -26.2314   23.3627 H   0  0  0  0  0  0
  -21.6632  -26.7405   22.1215 H   0  0  0  0  0  0
  -19.6897  -25.6297   21.1239 H   0  0  0  0  0  0
  -19.6670  -27.3201   20.6759 H   0  0  0  0  0  0
  -17.4186  -26.6694   21.4035 H   0  0  0  0  0  0
  -18.0315  -26.0074   22.9019 H   0  0  0  0  0  0
  -19.7960  -30.7280   24.2242 H   0  0  0  0  0  0
  -17.5039  -31.6266   24.5181 H   0  0  0  0  0  0
  -15.5366  -30.2994   23.7666 H   0  0  0  0  0  0
  -15.8686  -28.0842   22.7049 H   0  0  0  0  0  0
  -24.5897  -30.7071   25.7802 H   0  0  0  0  0  0
  -24.8910  -32.2923   26.4839 H   0  0  0  0  0  0
  -25.8047  -30.8963   27.0238 H   0  0  0  0  0  0
  -26.2916  -29.6746   24.1202 H   0  0  0  0  0  0
  -27.4031  -29.7251   25.4681 H   0  0  0  0  0  0
  -27.8783  -30.4285   23.9410 H   0  0  0  0  0  0
  -27.2611  -33.3653   26.2009 H   0  0  0  0  0  0
  -28.3847  -32.6881   25.0307 H   0  0  0  0  0  0
  -28.0687  -31.8503   26.5421 H   0  0  0  0  0  0
  -28.2599  -38.0078   24.7488 H   0  0  0  0  0  0
  -28.1039  -36.2603   24.6321 H   0  0  0  0  0  0
  -27.2298  -37.1469   25.8883 H   0  0  0  0  0  0
  -20.9405  -29.8782   21.6875 H   0  0  0  0  0  0
  -26.0162  -38.2847   24.1409 H   0  0  0  0  0  0
  -27.7436  -18.4724   21.4550 H   0  0  0  0  0  0
  -31.2035  -20.2711   18.0450 H   0  0  0  0  0  0
  -32.1531  -19.4614   19.2897 H   0  0  0  0  0  0
  -31.8428  -21.1784   19.4132 H   0  0  0  0  0  0
  -31.3500  -17.3951   21.0265 H   0  0  0  0  0  0
  -30.9853  -17.2451   19.3587 H   0  0  0  0  0  0
  -29.0991  -23.8285   21.2987 H   0  0  0  0  0  0
  -27.5158  -23.4263   20.7148 H   0  0  0  0  0  0
  -30.1675  -22.6874   19.3337 H   0  0  0  0  0  0
  -28.6292  -22.3419   18.6395 H   0  0  0  0  0  0
  -27.7799  -24.9660   18.7338 H   0  0  0  0  0  0
  -29.4342  -25.1432   19.0695 H   0  0  0  0  0  0
  -28.9436  -15.8391   20.7785 H   0  0  0  0  0  0
  1 25  1  0  0  0
  1 30  2  0  0  0
  1 81  1  0  0  0
  2  3  1  0  0  0
  2 25  1  0  0  0
  2 82  1  0  0  0
  2 83  1  0  0  0
  3  4  1  0  0  0
  3 84  1  0  0  0
  3 85  1  0  0  0
  4  5  1  0  0  0
  4 86  1  0  0  0
  4 87  1  0  0  0
  5  6  1  0  0  0
  5 26  1  0  0  0
  5 88  1  0  0  0
  6 25  1  0  0  0
  6 89  1  0  0  0
  6 90  1  0  0  0
  7  8  2  0  0  0
  7 26  1  0  0  0
  7 29  1  0  0  0
  8  9  1  0  0  0
  8 22  1  0  0  0
  9 10  1  0  0  0
  9 27  2  0  0  0
 10 11  2  0  0  0
 10 15  1  0  0  0
 11 12  1  0  0  0
 11 91  1  0  0  0
 12 13  2  0  0  0
 12 92  1  0  0  0
 13 14  1  0  0  0
 13 31  1  0  0  0
 14 15  2  0  0  0
 14 93  1  0  0  0
 15 94  1  0  0  0
 16 17  2  0  0  0
 16 21  1  0  0  0
 16 31  1  0  0  0
 17 18  1  0  0  0
 17 95  1  0  0  0
 18 19  2  0  0  0
 18 96  1  0  0  0
 19 20  1  0  0  0
 19 24  1  0  0  0
 20 21  2  0  0  0
 20 97  1  0  0  0
 21 23  1  0  0  0
 22 28  1  0  0  0
 22 32  2  0  0  0
 26 27  1  0  0  0
 28 98  1  0  0  0
 28 99  1  0  0  0
 29100  1  0  0  0
 29101  1  0  0  0
 33 34  1  0  0  0
 33 66  1  0  0  0
 33 70  2  0  0  0
 34 36  1  0  0  0
 34 59  1  0  0  0
 34102  1  0  0  0
 35 44  2  0  0  0
 35 45  1  0  0  0
 35 68  1  0  0  0
 36 56  1  0  0  0
 36103  1  0  0  0
 37 39  1  0  0  0
 37 47  1  0  0  0
 37 66  1  0  0  0
 37104  1  0  0  0
 38 43  2  0  0  0
 38 46  1  0  0  0
 38 47  1  0  0  0
 39 64  1  0  0  0
 39 67  2  0  0  0
 40 52  1  0  0  0
 40 53  2  0  0  0
 40 58  1  0  0  0
 41105  1  0  0  0
 41106  1  0  0  0
 41107  1  0  0  0
 41 48  1  0  0  0
 42 43  1  0  0  0
 42 66  1  0  0  0
 42108  1  0  0  0
 42109  1  0  0  0
 43 44  1  0  0  0
 44110  1  0  0  0
 45 46  2  0  0  0
 45111  1  0  0  0
 46112  1  0  0  0
 47113  1  0  0  0
 47114  1  0  0  0
 48 56  1  0  0  0
 48 65  1  0  0  0
 48115  1  0  0  0
 49 50  1  0  0  0
 49 53  1  0  0  0
 49 64  1  0  0  0
 49116  1  0  0  0
 50 51  1  0  0  0
 50117  1  0  0  0
 50118  1  0  0  0
 51 52  1  0  0  0
 51119  1  0  0  0
 51120  1  0  0  0
 52121  1  0  0  0
 52122  1  0  0  0
 53 54  1  0  0  0
 54 55  2  0  0  0
 54123  1  0  0  0
 55 57  1  0  0  0
 55124  1  0  0  0
 56 69  2  0  0  0
 57 58  2  0  0  0
 57125  1  0  0  0
 58126  1  0  0  0
 59 60  1  0  0  0
 59 61  1  0  0  0
 59 62  1  0  0  0
 60127  1  0  0  0
 60128  1  0  0  0
 60129  1  0  0  0
 61130  1  0  0  0
 61131  1  0  0  0
 61132  1  0  0  0
 62133  1  0  0  0
 62134  1  0  0  0
 62135  1  0  0  0
 63 65  1  0  0  0
 63136  1  0  0  0
 63137  1  0  0  0
 63138  1  0  0  0
 64139  1  0  0  0
 65140  1  0  0  0
 68 78  1  0  0  0
 71 72  1  0  0  0
 71 79  2  0  0  0
 71141  1  0  0  0
 72 73  2  0  0  0
 72 75  1  0  0  0
 73 74  1  0  0  0
 73 80  1  0  0  0
 74142  1  0  0  0
 74143  1  0  0  0
 74144  1  0  0  0
 75 81  1  0  0  0
 75145  1  0  0  0
 75146  1  0  0  0
 76 77  1  0  0  0
 76 78  1  0  0  0
 76147  1  0  0  0
 76148  1  0  0  0
 77 80  1  0  0  0
 77149  1  0  0  0
 77150  1  0  0  0
 78151  1  0  0  0
 78152  1  0  0  0
 79 80  1  0  0  0
 81153  1  0  0  0
M  ISO  4   1 100  68 101  78 101  81 100
M  END
> <chiral flag>
0

> <version>
0

> <s_m_source_file>
/data/baiqing/PycharmProjects/Reinvent-master-3.2/result/LINK_invent/BTK/process_docking_weight1_custom_sum_contain_oxygen_bond_distance_aromatic_linkinvent_7_9_3/rearranged_h_0037.sdf

> <i_m_source_file_index>
78

> <r_mmod_Potential_Energy-OPLS-2005>
102.09969329834

> <r_mmod_Stretch_Energy-OPLS-2005>
115.097663879395

> <r_mmod_Bend_Energy-OPLS-2005>
193.890533447266

> <r_mmod_Torsional_Energy-OPLS-2005>
205.598068237305

> <r_mmod_Improper_Torsional_Energy-OPLS-2005>
6.58632755279541

> <r_mmod_Van_der_Waal_Energy-OPLS-2005>
116.431549072266

> <r_mmod_Electrostatic_Energy-OPLS-2005>
-391.376525878906

> <r_mmod_Solvation_Energy-OPLS-2005>
-225.28059387207

> <b_mmod_Minimization_Converged-OPLS-2005>
0

> <r_mmod_RMS_Derivative-OPLS-2005>
2.08295440673828

$$$$
78
                    3D
 Structure written by MMmdl.
182190  0  0  1  0            999 V2000
  -30.8148  -14.3657   20.7136 C   0  0  0  0  0  0
  -30.3961  -12.3055   19.4123 C   0  0  0  0  0  0
  -29.4851  -12.5784   18.2052 C   0  0  0  0  0  0
  -28.0086  -12.4483   18.6046 C   0  0  0  0  0  0
  -27.6710  -13.2347   19.8958 C   0  0  2  0  0  0
  -28.7103  -12.9948   21.0166 C   0  0  0  0  0  0
  -25.2543  -13.8235   20.5592 C   0  0  0  0  0  0
  -24.1830  -13.0459   20.9163 C   0  0  0  0  0  0
  -24.6477  -11.6955   20.8784 C   0  0  0  0  0  0
  -23.9154  -10.4314   21.0531 C   0  0  0  0  0  0
  -24.3696   -9.4187   21.9298 C   0  0  0  0  0  0
  -23.6374   -8.2201   22.0813 C   0  0  0  0  0  0
  -22.4367   -8.0249   21.3568 C   0  0  0  0  0  0
  -22.0012   -9.0257   20.4718 C   0  0  0  0  0  0
  -22.7356  -10.2146   20.3151 C   0  0  0  0  0  0
  -21.6874   -6.0728   22.5307 C   0  0  0  0  0  0
  -21.4027   -6.5640   23.8240 C   0  0  0  0  0  0
  -21.3650   -5.6784   24.9192 C   0  0  0  0  0  0
  -21.6063   -4.3051   24.7240 C   0  0  0  0  0  0
  -21.8814   -3.8159   23.4357 C   0  0  0  0  0  0
  -21.9192   -4.6965   22.3415 C   0  0  0  0  0  0
  -22.7852  -13.5290   21.1842 C   0  0  0  0  0  0
  -22.1696   -4.2130   21.0997 F   0  0  0  0  0  0
  -21.5610   -3.4553   25.7761 F   0  0  0  0  0  0
  -30.0551  -13.2599   20.4793 N   0  0  0  0  0  0
  -26.3074  -12.9485   20.3476 N   0  0  0  0  0  0
  -25.9406  -11.6621   20.5821 N   0  0  0  0  0  0
  -22.0502  -12.8246   22.0423 N   0  0  0  0  0  0
  -25.4148  -15.1892   20.3713 N   0  0  0  0  0  0
  -31.7930  -14.6271   20.0078 O   0  0  0  0  0  0
  -21.6694   -6.8864   21.4262 O   0  0  0  0  0  0
  -22.3513  -14.5579   20.6699 O   0  0  0  0  0  0
  -24.6202  -31.8698   23.1901 C   0  0  0  0  0  0
  -25.9157  -32.4762   23.8175 C   0  0  1  0  0  0
  -27.2446  -27.4295   20.1432 C   0  0  0  0  0  0
  -25.6003  -33.8519   24.2169 N   0  0  0  0  0  0
  -23.4058  -30.4851   21.5232 C   0  0  2  0  0  0
  -24.8604  -28.9548   20.0890 C   0  0  0  0  0  0
  -22.7455  -29.4609   22.4803 C   0  0  0  0  0  0
  -18.0317  -28.1209   22.8400 C   0  0  0  0  0  0
  -24.1497  -36.7402   23.2580 C   0  0  0  0  0  0
  -25.9255  -30.8420   21.3403 C   0  0  0  0  0  0
  -26.0112  -29.4704   20.7009 C   0  0  0  0  0  0
  -27.2059  -28.7175   20.7247 C   0  0  0  0  0  0
  -26.0968  -26.9463   19.4772 C   0  0  0  0  0  0
  -24.9053  -27.6981   19.4606 C   0  0  0  0  0  0
  -23.6232  -29.8165   20.1320 C   0  0  0  0  0  0
  -25.4089  -36.3058   24.0284 C   0  0  1  0  0  0
  -20.5908  -28.3625   23.1222 C   0  0  2  0  0  0
  -20.6909  -26.9315   22.5468 C   0  0  0  0  0  0
  -19.5888  -26.6136   21.5304 C   0  0  0  0  0  0
  -18.2024  -26.7686   22.1627 C   0  0  0  0  0  0
  -19.1519  -28.8710   23.2771 C   0  0  0  0  0  0
  -18.9404  -30.1393   23.8635 C   0  0  0  0  0  0
  -17.6358  -30.6451   24.0332 C   0  0  0  0  0  0
  -25.9059  -34.9435   23.5024 C   0  0  0  0  0  0
  -16.5315  -29.8897   23.6087 C   0  0  0  0  0  0
  -16.7284  -28.6322   23.0126 C   0  0  0  0  0  0
  -26.4540  -31.6459   25.0482 C   0  0  0  0  0  0
  -25.3707  -31.3748   26.1194 C   0  0  0  0  0  0
  -27.0328  -30.2800   24.5933 C   0  0  0  0  0  0
  -27.6065  -32.4157   25.7300 C   0  0  0  0  0  0
  -27.5549  -37.1814   24.8401 C   0  0  0  0  0  0
  -21.4163  -29.3041   22.3645 N   0  0  0  0  0  0
  -26.4239  -37.3789   23.9420 N   0  0  0  0  0  0
  -24.6677  -31.0850   22.0761 N   0  0  0  0  0  0
  -23.4236  -28.8146   23.2825 O   0  0  0  0  0  0
  -28.3574  -26.6252   20.2938 O   0  0  0  0  0  0
  -26.5591  -34.8946   22.4571 O   0  0  0  0  0  0
  -23.5408  -32.1438   23.7366 O   0  0  0  0  0  0
  -29.6872  -23.0509   23.4240 C   0  0  0  0  0  0
  -29.3504  -24.3747   23.2668 C   0  0  0  0  0  0
  -28.0657  -23.5154   24.8718 C   0  0  0  0  0  0
  -24.0286  -24.3138   27.0078 C   0  0  0  0  0  0
  -31.8760  -15.7388   22.5736 C   0  0  0  0  0  0
  -27.3881  -24.4739   21.0653 C   0  0  0  0  0  0
  -29.6007  -25.3483   22.1381 C   0  0  0  0  0  0
  -26.8742  -23.4358   25.7879 C   0  0  0  0  0  0
  -24.2835  -23.5031   25.7370 C   0  0  0  0  0  0
  -25.5964  -23.8502   25.0276 C   0  0  0  0  0  0
  -27.8649  -18.1955   21.9242 C   0  0  0  0  0  0
  -27.5882  -19.2306   23.0277 C   0  0  0  0  0  0
  -28.6061  -16.9473   22.4262 C   0  0  0  0  0  0
  -28.8134  -20.1034   23.4013 C   0  0  0  0  0  0
  -29.7597  -16.5750   21.4766 C   0  0  0  0  0  0
  -28.5004  -21.0797   24.5685 C   0  0  0  0  0  0
  -30.5448  -15.3178   21.9110 C   0  0  1  0  0  0
  -28.2468  -25.7246   21.4389 C   0  0  1  0  0  0
  -28.7711  -22.5137   24.3053 N   0  0  0  0  0  0
  -28.4803  -24.6470   24.2951 N   0  3  0  0  0  0
  -31.4473  -12.3556   19.1222 H   0  0  0  0  0  0
  -30.2530  -11.2872   19.7704 H   0  0  0  0  0  0
  -29.7188  -11.8879   17.3949 H   0  0  0  0  0  0
  -29.6785  -13.5800   17.8216 H   0  0  0  0  0  0
  -27.8018  -11.3902   18.7507 H   0  0  0  0  0  0
  -27.3637  -12.7754   17.7865 H   0  0  0  0  0  0
  -27.7269  -14.2922   19.6391 H   0  0  0  0  0  0
  -28.6560  -11.9705   21.3909 H   0  0  0  0  0  0
  -28.4452  -13.6215   21.8638 H   0  0  0  0  0  0
  -25.2837   -9.5598   22.4890 H   0  0  0  0  0  0
  -24.0060   -7.4578   22.7517 H   0  0  0  0  0  0
  -21.0941   -8.8806   19.9038 H   0  0  0  0  0  0
  -22.3892  -10.9663   19.6217 H   0  0  0  0  0  0
  -21.2046   -7.6161   23.9740 H   0  0  0  0  0  0
  -21.1521   -6.0536   25.9102 H   0  0  0  0  0  0
  -22.0630   -2.7621   23.2874 H   0  0  0  0  0  0
  -22.4129  -11.9839   22.4653 H   0  0  0  0  0  0
  -21.1139  -13.1256   22.2725 H   0  0  0  0  0  0
  -24.6308  -15.8303   20.4080 H   0  0  0  0  0  0
  -26.2425  -15.6067   19.9620 H   0  0  0  0  0  0
  -26.7273  -32.5546   23.0982 H   0  0  0  0  0  0
  -25.0130  -33.9540   25.0307 H   0  0  0  0  0  0
  -22.6892  -31.2937   21.3774 H   0  0  0  0  0  0
  -23.3623  -35.9850   23.3195 H   0  0  0  0  0  0
  -24.3545  -36.9070   22.1987 H   0  0  0  0  0  0
  -23.7368  -37.6643   23.6658 H   0  0  0  0  0  0
  -26.0120  -31.5885   20.5481 H   0  0  0  0  0  0
  -26.8253  -30.9116   21.9452 H   0  0  0  0  0  0
  -28.0942  -29.0957   21.2116 H   0  0  0  0  0  0
  -26.1203  -25.9733   19.0089 H   0  0  0  0  0  0
  -24.0298  -27.3016   18.9568 H   0  0  0  0  0  0
  -23.7434  -30.5762   19.3583 H   0  0  0  0  0  0
  -22.7556  -29.2241   19.8385 H   0  0  0  0  0  0
  -25.1211  -36.1852   25.0748 H   0  0  0  0  0  0
  -20.9971  -28.3205   24.1336 H   0  0  0  0  0  0
  -20.5916  -26.2243   23.3743 H   0  0  0  0  0  0
  -21.6755  -26.7272   22.1214 H   0  0  0  0  0  0
  -19.7093  -25.6043   21.1343 H   0  0  0  0  0  0
  -19.6923  -27.2922   20.6835 H   0  0  0  0  0  0
  -17.4355  -26.6367   21.4016 H   0  0  0  0  0  0
  -18.0432  -25.9823   22.9005 H   0  0  0  0  0  0
  -19.7841  -30.7290   24.1807 H   0  0  0  0  0  0
  -17.4896  -31.6202   24.4787 H   0  0  0  0  0  0
  -15.5303  -30.2779   23.7355 H   0  0  0  0  0  0
  -15.8753  -28.0672   22.6636 H   0  0  0  0  0  0
  -24.5906  -30.7090   25.7528 H   0  0  0  0  0  0
  -24.8941  -32.3026   26.4386 H   0  0  0  0  0  0
  -25.7955  -30.9060   27.0072 H   0  0  0  0  0  0
  -26.2926  -29.6522   24.0977 H   0  0  0  0  0  0
  -27.3979  -29.7084   25.4461 H   0  0  0  0  0  0
  -27.8796  -30.3916   23.9127 H   0  0  0  0  0  0
  -27.2643  -33.3450   26.1876 H   0  0  0  0  0  0
  -28.3916  -32.6709   25.0156 H   0  0  0  0  0  0
  -28.0709  -31.8257   26.5213 H   0  0  0  0  0  0
  -28.2485  -38.0177   24.7398 H   0  0  0  0  0  0
  -28.1100  -36.2673   24.6241 H   0  0  0  0  0  0
  -27.2251  -37.1497   25.8792 H   0  0  0  0  0  0
  -20.9369  -29.9087   21.7151 H   0  0  0  0  0  0
  -26.0060  -38.2787   24.1556 H   0  0  0  0  0  0
  -30.3697  -22.4366   22.8483 H   0  0  0  0  0  0
  -22.9854  -24.2196   27.3153 H   0  0  0  0  0  0
  -24.2229  -25.3786   26.8577 H   0  0  0  0  0  0
  -24.6521  -23.9486   27.8238 H   0  0  0  0  0  0
  -31.7094  -16.4163   23.4142 H   0  0  0  0  0  0
  -32.5322  -16.2661   21.8779 H   0  0  0  0  0  0
  -32.4173  -14.8668   22.9457 H   0  0  0  0  0  0
  -27.4015  -23.6915   21.8201 H   0  0  0  0  0  0
  -27.7169  -24.0037   20.1426 H   0  0  0  0  0  0
  -26.3390  -24.7323   20.9689 H   0  0  0  0  0  0
  -30.2833  -24.8765   21.4252 H   0  0  0  0  0  0
  -30.1121  -26.2290   22.5288 H   0  0  0  0  0  0
  -27.0538  -24.0805   26.6501 H   0  0  0  0  0  0
  -26.8025  -22.4227   26.1767 H   0  0  0  0  0  0
  -23.4574  -23.6797   25.0496 H   0  0  0  0  0  0
  -24.2562  -22.4376   25.9699 H   0  0  0  0  0  0
  -25.5912  -23.3319   24.0712 H   0  0  0  0  0  0
  -25.6204  -24.9124   24.7771 H   0  0  0  0  0  0
  -28.4182  -18.6689   21.1143 H   0  0  0  0  0  0
  -26.9302  -17.8677   21.4660 H   0  0  0  0  0  0
  -27.2010  -18.7241   23.9146 H   0  0  0  0  0  0
  -26.7907  -19.8899   22.6735 H   0  0  0  0  0  0
  -27.8959  -16.1192   22.4942 H   0  0  0  0  0  0
  -28.9743  -17.0968   23.4435 H   0  0  0  0  0  0
  -29.1191  -20.6352   22.5040 H   0  0  0  0  0  0
  -29.6630  -19.4656   23.6628 H   0  0  0  0  0  0
  -30.4379  -17.4290   21.4257 H   0  0  0  0  0  0
  -29.3785  -16.4691   20.4622 H   0  0  0  0  0  0
  -29.0070  -20.7929   25.4867 H   0  0  0  0  0  0
  -27.4376  -20.9781   24.7752 H   0  0  0  0  0  0
  -29.9879  -14.7877   22.6832 H   0  0  0  0  0  0
  -27.6833  -26.2517   22.2138 H   0  0  0  0  0  0
  -28.0836  -25.5557   24.5007 H   0  0  0  0  0  0
  1 25  1  0  0  0
  1 30  2  0  0  0
  1 87  1  0  0  0
  2  3  1  0  0  0
  2 25  1  0  0  0
  2 91  1  0  0  0
  2 92  1  0  0  0
  3  4  1  0  0  0
  3 93  1  0  0  0
  3 94  1  0  0  0
  4  5  1  0  0  0
  4 95  1  0  0  0
  4 96  1  0  0  0
  5  6  1  0  0  0
  5 26  1  0  0  0
  5 97  1  0  0  0
  6 25  1  0  0  0
  6 98  1  0  0  0
  6 99  1  0  0  0
  7  8  2  0  0  0
  7 26  1  0  0  0
  7 29  1  0  0  0
  8  9  1  0  0  0
  8 22  1  0  0  0
  9 10  1  0  0  0
  9 27  2  0  0  0
 10 11  2  0  0  0
 10 15  1  0  0  0
 11 12  1  0  0  0
 11100  1  0  0  0
 12 13  2  0  0  0
 12101  1  0  0  0
 13 14  1  0  0  0
 13 31  1  0  0  0
 14 15  2  0  0  0
 14102  1  0  0  0
 15103  1  0  0  0
 16 17  2  0  0  0
 16 21  1  0  0  0
 16 31  1  0  0  0
 17 18  1  0  0  0
 17104  1  0  0  0
 18 19  2  0  0  0
 18105  1  0  0  0
 19 20  1  0  0  0
 19 24  1  0  0  0
 20 21  2  0  0  0
 20106  1  0  0  0
 21 23  1  0  0  0
 22 28  1  0  0  0
 22 32  2  0  0  0
 26 27  1  0  0  0
 28107  1  0  0  0
 28108  1  0  0  0
 29109  1  0  0  0
 29110  1  0  0  0
 33 34  1  0  0  0
 33 66  1  0  0  0
 33 70  2  0  0  0
 34 36  1  0  0  0
 34 59  1  0  0  0
 34111  1  0  0  0
 35 44  2  0  0  0
 35 45  1  0  0  0
 35 68  1  0  0  0
 36 56  1  0  0  0
 36112  1  0  0  0
 37 39  1  0  0  0
 37 47  1  0  0  0
 37 66  1  0  0  0
 37113  1  0  0  0
 38 43  2  0  0  0
 38 46  1  0  0  0
 38 47  1  0  0  0
 39 64  1  0  0  0
 39 67  2  0  0  0
 40 52  1  0  0  0
 40 53  2  0  0  0
 40 58  1  0  0  0
 41114  1  0  0  0
 41115  1  0  0  0
 41116  1  0  0  0
 41 48  1  0  0  0
 42 43  1  0  0  0
 42 66  1  0  0  0
 42117  1  0  0  0
 42118  1  0  0  0
 43 44  1  0  0  0
 44119  1  0  0  0
 45 46  2  0  0  0
 45120  1  0  0  0
 46121  1  0  0  0
 47122  1  0  0  0
 47123  1  0  0  0
 48 56  1  0  0  0
 48 65  1  0  0  0
 48124  1  0  0  0
 49 50  1  0  0  0
 49 53  1  0  0  0
 49 64  1  0  0  0
 49125  1  0  0  0
 50 51  1  0  0  0
 50126  1  0  0  0
 50127  1  0  0  0
 51 52  1  0  0  0
 51128  1  0  0  0
 51129  1  0  0  0
 52130  1  0  0  0
 52131  1  0  0  0
 53 54  1  0  0  0
 54 55  2  0  0  0
 54132  1  0  0  0
 55 57  1  0  0  0
 55133  1  0  0  0
 56 69  2  0  0  0
 57 58  2  0  0  0
 57134  1  0  0  0
 58135  1  0  0  0
 59 60  1  0  0  0
 59 61  1  0  0  0
 59 62  1  0  0  0
 60136  1  0  0  0
 60137  1  0  0  0
 60138  1  0  0  0
 61139  1  0  0  0
 61140  1  0  0  0
 61141  1  0  0  0
 62142  1  0  0  0
 62143  1  0  0  0
 62144  1  0  0  0
 63 65  1  0  0  0
 63145  1  0  0  0
 63146  1  0  0  0
 63147  1  0  0  0
 64148  1  0  0  0
 65149  1  0  0  0
 68 88  1  0  0  0
 71 72  2  0  0  0
 71 89  1  0  0  0
 71150  1  0  0  0
 72 77  1  0  0  0
 72 90  1  0  0  0
 73 78  1  0  0  0
 73 89  1  0  0  0
 73 90  2  0  0  0
 74 79  1  0  0  0
 74151  1  0  0  0
 74152  1  0  0  0
 74153  1  0  0  0
 75154  1  0  0  0
 75155  1  0  0  0
 75156  1  0  0  0
 75 87  1  0  0  0
 76157  1  0  0  0
 76158  1  0  0  0
 76159  1  0  0  0
 76 88  1  0  0  0
 77 88  1  0  0  0
 77160  1  0  0  0
 77161  1  0  0  0
 78 80  1  0  0  0
 78162  1  0  0  0
 78163  1  0  0  0
 79 80  1  0  0  0
 79164  1  0  0  0
 79165  1  0  0  0
 80166  1  0  0  0
 80167  1  0  0  0
 81 82  1  0  0  0
 81 83  1  0  0  0
 81168  1  0  0  0
 81169  1  0  0  0
 82 84  1  0  0  0
 82170  1  0  0  0
 82171  1  0  0  0
 83 85  1  0  0  0
 83172  1  0  0  0
 83173  1  0  0  0
 84 86  1  0  0  0
 84174  1  0  0  0
 84175  1  0  0  0
 85 87  1  0  0  0
 85176  1  0  0  0
 85177  1  0  0  0
 86 89  1  0  0  0
 86178  1  0  0  0
 86179  1  0  0  0
 87180  1  0  0  0
 88181  1  0  0  0
 90182  1  0  0  0
M  CHG  1  90   1
M  ISO  4   1 100  68 101  87 100  88 101
M  END
> <chiral flag>
0

> <version>
0

> <s_m_source_file>
/data/baiqing/PycharmProjects/Reinvent-master-3.2/result/LINK_invent/BTK/process_docking_weight1_custom_sum_contain_oxygen_bond_distance_aromatic_linkinvent_7_9_3/rearranged_h_0037.sdf

> <i_m_source_file_index>
79

> <r_mmod_Potential_Energy-OPLS-2005>
91.2613143920898

> <r_mmod_Stretch_Energy-OPLS-2005>
44.0682144165039

> <r_mmod_Bend_Energy-OPLS-2005>
105.184524536133

> <r_mmod_Torsional_Energy-OPLS-2005>
286.307800292969

> <r_mmod_Improper_Torsional_Energy-OPLS-2005>
5.27387714385986

> <r_mmod_Van_der_Waal_Energy-OPLS-2005>
124.212303161621

> <r_mmod_Electrostatic_Energy-OPLS-2005>
-123.564605712891

> <r_mmod_Solvation_Energy-OPLS-2005>
-371.081726074219

> <b_mmod_Minimization_Converged-OPLS-2005>
0

> <r_mmod_RMS_Derivative-OPLS-2005>
10.3071308135986

$$$$
79
                    3D
 Structure written by MMmdl.
155163  0  0  1  0            999 V2000
  -30.6601  -14.6810   20.4482 C   0  0  0  0  0  0
  -30.4267  -12.4087   19.4692 C   0  0  0  0  0  0
  -29.5084  -12.4930   18.2311 C   0  0  0  0  0  0
  -28.0322  -12.3349   18.6408 C   0  0  0  0  0  0
  -27.6469  -13.2296   19.8489 C   0  0  2  0  0  0
  -28.6936  -13.1548   20.9842 C   0  0  0  0  0  0
  -25.2537  -13.8205   20.5665 C   0  0  0  0  0  0
  -24.1837  -13.0451   20.9188 C   0  0  0  0  0  0
  -24.6428  -11.6925   20.8736 C   0  0  0  0  0  0
  -23.9100  -10.4307   21.0398 C   0  0  0  0  0  0
  -24.3644   -9.4215   21.9173 C   0  0  0  0  0  0
  -23.6314   -8.2252   22.0748 C   0  0  0  0  0  0
  -22.4289   -8.0297   21.3544 C   0  0  0  0  0  0
  -21.9935   -9.0272   20.4639 C   0  0  0  0  0  0
  -22.7270  -10.2147   20.3048 C   0  0  0  0  0  0
  -21.6862   -6.0748   22.5282 C   0  0  0  0  0  0
  -21.4021   -6.5647   23.8217 C   0  0  0  0  0  0
  -21.3655   -5.6792   24.9171 C   0  0  0  0  0  0
  -21.6039   -4.3057   24.7221 C   0  0  0  0  0  0
  -21.8823   -3.8159   23.4342 C   0  0  0  0  0  0
  -21.9204   -4.6978   22.3401 C   0  0  0  0  0  0
  -22.7851  -13.5221   21.1846 C   0  0  0  0  0  0
  -22.1671   -4.2166   21.0978 F   0  0  0  0  0  0
  -21.5622   -3.4536   25.7730 F   0  0  0  0  0  0
  -30.0059  -13.4734   20.4065 N   0  0  0  0  0  0
  -26.2974  -12.9411   20.3268 N   0  0  0  0  0  0
  -25.9357  -11.6555   20.5747 N   0  0  0  0  0  0
  -22.0512  -12.8204   22.0401 N   0  0  0  0  0  0
  -25.4234  -15.1931   20.4055 N   0  0  0  0  0  0
  -31.8404  -14.7614   20.1011 O   0  0  0  0  0  0
  -21.6650   -6.8892   21.4243 O   0  0  0  0  0  0
  -22.3521  -14.5521   20.6688 O   0  0  0  0  0  0
  -24.6296  -31.8566   23.2015 C   0  0  0  0  0  0
  -25.9126  -32.4763   23.8356 C   0  0  1  0  0  0
  -27.2259  -27.2910   20.1074 C   0  0  0  0  0  0
  -25.5933  -33.8569   24.2268 N   0  0  0  0  0  0
  -23.4248  -30.4809   21.5454 C   0  0  2  0  0  0
  -24.8716  -28.9384   20.1062 C   0  0  0  0  0  0
  -22.7498  -29.4603   22.4923 C   0  0  0  0  0  0
  -18.0288  -28.1385   22.8468 C   0  0  0  0  0  0
  -24.1485  -36.7289   23.2642 C   0  0  0  0  0  0
  -25.9700  -30.7761   21.3800 C   0  0  0  0  0  0
  -26.0426  -29.4039   20.7170 C   0  0  0  0  0  0
  -27.2207  -28.5927   20.7094 C   0  0  0  0  0  0
  -26.0301  -26.8987   19.4570 C   0  0  0  0  0  0
  -24.8703  -27.6932   19.4649 C   0  0  0  0  0  0
  -23.6405  -29.8189   20.1599 C   0  0  0  0  0  0
  -25.4115  -36.3075   24.0324 C   0  0  1  0  0  0
  -20.5888  -28.3695   23.1253 C   0  0  2  0  0  0
  -20.6767  -26.9408   22.5395 C   0  0  0  0  0  0
  -19.5747  -26.6372   21.5195 C   0  0  0  0  0  0
  -18.1931  -26.7920   22.1615 C   0  0  0  0  0  0
  -19.1542  -28.8858   23.2853 C   0  0  0  0  0  0
  -18.9468  -30.1461   23.8866 C   0  0  0  0  0  0
  -17.6470  -30.6581   24.0558 C   0  0  0  0  0  0
  -25.9058  -34.9445   23.5099 C   0  0  0  0  0  0
  -16.5359  -29.9075   23.6332 C   0  0  0  0  0  0
  -16.7277  -28.6500   23.0334 C   0  0  0  0  0  0
  -26.4498  -31.6596   25.0747 C   0  0  0  0  0  0
  -25.3726  -31.3746   26.1475 C   0  0  0  0  0  0
  -27.0352  -30.3011   24.6239 C   0  0  0  0  0  0
  -27.6044  -32.4351   25.7516 C   0  0  0  0  0  0
  -27.5577  -37.1799   24.8463 C   0  0  0  0  0  0
  -21.4208  -29.3046   22.3657 N   0  0  0  0  0  0
  -26.4291  -37.3773   23.9409 N   0  0  0  0  0  0
  -24.6935  -31.0555   22.0983 N   0  0  0  0  0  0
  -23.4202  -28.8123   23.3005 O   0  0  0  0  0  0
  -28.3242  -26.4021   20.1796 O   0  0  0  0  0  0
  -26.5627  -34.8911   22.4667 O   0  0  0  0  0  0
  -23.5450  -32.1374   23.7325 O   0  0  0  0  0  0
  -28.9098  -22.4314   19.9361 C   0  0  0  0  0  0
  -30.0583  -24.0500   21.2977 C   0  0  0  0  0  0
  -29.0431  -23.8062   20.3608 C   0  0  0  0  0  0
  -29.7652  -21.3768   20.4332 C   0  0  0  0  0  0
  -30.7421  -21.7989   21.3686 C   0  0  0  0  0  0
  -31.7688  -20.8500   21.9624 C   0  0  0  0  0  0
  -29.7705  -19.9000   19.8394 C   0  0  0  0  0  0
  -28.0775  -24.9586   19.8778 C   0  0  0  0  0  0
  -29.6294  -18.5521   20.7205 C   0  0  0  0  0  0
  -30.2839  -17.2154   20.1040 C   0  0  0  0  0  0
  -30.8697  -23.0817   21.7862 N   0  0  0  0  0  0
  -29.9211  -15.8308   20.6241 N   0  0  0  0  0  0
  -31.4702  -12.5041   19.1653 H   0  0  0  0  0  0
  -30.3483  -11.4298   19.9450 H   0  0  0  0  0  0
  -29.7776  -11.7226   17.5066 H   0  0  0  0  0  0
  -29.6538  -13.4502   17.7276 H   0  0  0  0  0  0
  -27.8704  -11.2853   18.8898 H   0  0  0  0  0  0
  -27.3822  -12.5448   17.7913 H   0  0  0  0  0  0
  -27.6468  -14.2527   19.4730 H   0  0  0  0  0  0
  -28.7079  -12.1627   21.4378 H   0  0  0  0  0  0
  -28.4410  -13.8506   21.7853 H   0  0  0  0  0  0
  -25.2795   -9.5683   22.4731 H   0  0  0  0  0  0
  -24.0032   -7.4640   22.7459 H   0  0  0  0  0  0
  -21.0875   -8.8797   19.8933 H   0  0  0  0  0  0
  -22.3750  -10.9681   19.6150 H   0  0  0  0  0  0
  -21.2020   -7.6151   23.9724 H   0  0  0  0  0  0
  -21.1461   -6.0516   25.9070 H   0  0  0  0  0  0
  -22.0609   -2.7624   23.2835 H   0  0  0  0  0  0
  -22.4172  -11.9894   22.4809 H   0  0  0  0  0  0
  -21.1111  -13.1189   22.2573 H   0  0  0  0  0  0
  -24.6530  -15.8448   20.5074 H   0  0  0  0  0  0
  -26.2658  -15.6322   20.0568 H   0  0  0  0  0  0
  -26.7199  -32.5401   23.1108 H   0  0  0  0  0  0
  -25.0084  -33.9719   25.0413 H   0  0  0  0  0  0
  -22.7208  -31.3033   21.4033 H   0  0  0  0  0  0
  -23.3736  -35.9630   23.3310 H   0  0  0  0  0  0
  -24.3572  -36.8909   22.2055 H   0  0  0  0  0  0
  -23.7246  -37.6496   23.6663 H   0  0  0  0  0  0
  -26.1125  -31.5394   20.6137 H   0  0  0  0  0  0
  -26.8463  -30.8189   22.0156 H   0  0  0  0  0  0
  -28.1149  -28.9459   21.2031 H   0  0  0  0  0  0
  -25.9511  -25.9551   18.9382 H   0  0  0  0  0  0
  -23.9771  -27.3365   18.9704 H   0  0  0  0  0  0
  -23.7592  -30.5965   19.4050 H   0  0  0  0  0  0
  -22.7581  -29.2512   19.8576 H   0  0  0  0  0  0
  -25.1293  -36.1931   25.0816 H   0  0  0  0  0  0
  -20.9983  -28.3271   24.1371 H   0  0  0  0  0  0
  -20.5643  -26.2314   23.3608 H   0  0  0  0  0  0
  -21.6638  -26.7409   22.1205 H   0  0  0  0  0  0
  -19.6908  -25.6276   21.1238 H   0  0  0  0  0  0
  -19.6675  -27.3169   20.6712 H   0  0  0  0  0  0
  -17.4187  -26.6644   21.4031 H   0  0  0  0  0  0
  -18.0345  -26.0070   22.9025 H   0  0  0  0  0  0
  -19.7951  -30.7284   24.2203 H   0  0  0  0  0  0
  -17.5027  -31.6251   24.5183 H   0  0  0  0  0  0
  -15.5359  -30.2970   23.7679 H   0  0  0  0  0  0
  -15.8676  -28.0832   22.7037 H   0  0  0  0  0  0
  -24.5885  -30.7114   25.7810 H   0  0  0  0  0  0
  -24.8934  -32.2916   26.4913 H   0  0  0  0  0  0
  -25.8044  -30.8913   27.0248 H   0  0  0  0  0  0
  -26.2946  -29.6757   24.1240 H   0  0  0  0  0  0
  -27.4006  -29.7282   25.4773 H   0  0  0  0  0  0
  -27.8834  -30.4287   23.9508 H   0  0  0  0  0  0
  -27.2644  -33.3660   26.2070 H   0  0  0  0  0  0
  -28.3859  -32.6908   25.0349 H   0  0  0  0  0  0
  -28.0708  -31.8499   26.5455 H   0  0  0  0  0  0
  -28.2591  -38.0099   24.7507 H   0  0  0  0  0  0
  -28.1073  -36.2626   24.6287 H   0  0  0  0  0  0
  -27.2292  -37.1451   25.8867 H   0  0  0  0  0  0
  -20.9396  -29.8817   21.6899 H   0  0  0  0  0  0
  -26.0161  -38.2848   24.1403 H   0  0  0  0  0  0
  -28.1563  -22.1871   19.2004 H   0  0  0  0  0  0
  -30.2275  -25.0470   21.6782 H   0  0  0  0  0  0
  -32.7109  -21.3641   22.1526 H   0  0  0  0  0  0
  -31.9975  -20.0140   21.3043 H   0  0  0  0  0  0
  -31.4055  -20.4536   22.9107 H   0  0  0  0  0  0
  -30.7137  -19.8257   19.2959 H   0  0  0  0  0  0
  -29.0172  -19.8611   19.0522 H   0  0  0  0  0  0
  -27.1190  -24.6804   20.3170 H   0  0  0  0  0  0
  -27.9710  -24.8581   18.7963 H   0  0  0  0  0  0
  -28.5713  -18.3842   20.9206 H   0  0  0  0  0  0
  -30.0787  -18.7026   21.7014 H   0  0  0  0  0  0
  -31.3690  -17.3260   20.1567 H   0  0  0  0  0  0
  -30.0547  -17.2006   19.0365 H   0  0  0  0  0  0
  -28.9613  -15.6932   20.9035 H   0  0  0  0  0  0
  1 25  1  0  0  0
  1 30  2  0  0  0
  1 82  1  0  0  0
  2  3  1  0  0  0
  2 25  1  0  0  0
  2 83  1  0  0  0
  2 84  1  0  0  0
  3  4  1  0  0  0
  3 85  1  0  0  0
  3 86  1  0  0  0
  4  5  1  0  0  0
  4 87  1  0  0  0
  4 88  1  0  0  0
  5  6  1  0  0  0
  5 26  1  0  0  0
  5 89  1  0  0  0
  6 25  1  0  0  0
  6 90  1  0  0  0
  6 91  1  0  0  0
  7  8  2  0  0  0
  7 26  1  0  0  0
  7 29  1  0  0  0
  8  9  1  0  0  0
  8 22  1  0  0  0
  9 10  1  0  0  0
  9 27  2  0  0  0
 10 11  2  0  0  0
 10 15  1  0  0  0
 11 12  1  0  0  0
 11 92  1  0  0  0
 12 13  2  0  0  0
 12 93  1  0  0  0
 13 14  1  0  0  0
 13 31  1  0  0  0
 14 15  2  0  0  0
 14 94  1  0  0  0
 15 95  1  0  0  0
 16 17  2  0  0  0
 16 21  1  0  0  0
 16 31  1  0  0  0
 17 18  1  0  0  0
 17 96  1  0  0  0
 18 19  2  0  0  0
 18 97  1  0  0  0
 19 20  1  0  0  0
 19 24  1  0  0  0
 20 21  2  0  0  0
 20 98  1  0  0  0
 21 23  1  0  0  0
 22 28  1  0  0  0
 22 32  2  0  0  0
 26 27  1  0  0  0
 28 99  1  0  0  0
 28100  1  0  0  0
 29101  1  0  0  0
 29102  1  0  0  0
 33 34  1  0  0  0
 33 66  1  0  0  0
 33 70  2  0  0  0
 34 36  1  0  0  0
 34 59  1  0  0  0
 34103  1  0  0  0
 35 44  2  0  0  0
 35 45  1  0  0  0
 35 68  1  0  0  0
 36 56  1  0  0  0
 36104  1  0  0  0
 37 39  1  0  0  0
 37 47  1  0  0  0
 37 66  1  0  0  0
 37105  1  0  0  0
 38 43  2  0  0  0
 38 46  1  0  0  0
 38 47  1  0  0  0
 39 64  1  0  0  0
 39 67  2  0  0  0
 40 52  1  0  0  0
 40 53  2  0  0  0
 40 58  1  0  0  0
 41106  1  0  0  0
 41107  1  0  0  0
 41108  1  0  0  0
 41 48  1  0  0  0
 42 43  1  0  0  0
 42 66  1  0  0  0
 42109  1  0  0  0
 42110  1  0  0  0
 43 44  1  0  0  0
 44111  1  0  0  0
 45 46  2  0  0  0
 45112  1  0  0  0
 46113  1  0  0  0
 47114  1  0  0  0
 47115  1  0  0  0
 48 56  1  0  0  0
 48 65  1  0  0  0
 48116  1  0  0  0
 49 50  1  0  0  0
 49 53  1  0  0  0
 49 64  1  0  0  0
 49117  1  0  0  0
 50 51  1  0  0  0
 50118  1  0  0  0
 50119  1  0  0  0
 51 52  1  0  0  0
 51120  1  0  0  0
 51121  1  0  0  0
 52122  1  0  0  0
 52123  1  0  0  0
 53 54  1  0  0  0
 54 55  2  0  0  0
 54124  1  0  0  0
 55 57  1  0  0  0
 55125  1  0  0  0
 56 69  2  0  0  0
 57 58  2  0  0  0
 57126  1  0  0  0
 58127  1  0  0  0
 59 60  1  0  0  0
 59 61  1  0  0  0
 59 62  1  0  0  0
 60128  1  0  0  0
 60129  1  0  0  0
 60130  1  0  0  0
 61131  1  0  0  0
 61132  1  0  0  0
 61133  1  0  0  0
 62134  1  0  0  0
 62135  1  0  0  0
 62136  1  0  0  0
 63 65  1  0  0  0
 63137  1  0  0  0
 63138  1  0  0  0
 63139  1  0  0  0
 64140  1  0  0  0
 65141  1  0  0  0
 68 78  1  0  0  0
 71 73  2  0  0  0
 71 74  1  0  0  0
 71142  1  0  0  0
 72 73  1  0  0  0
 72 81  2  0  0  0
 72143  1  0  0  0
 73 78  1  0  0  0
 74 75  2  0  0  0
 74 77  1  0  0  0
 75 76  1  0  0  0
 75 81  1  0  0  0
 76144  1  0  0  0
 76145  1  0  0  0
 76146  1  0  0  0
 77 79  1  0  0  0
 77147  1  0  0  0
 77148  1  0  0  0
 78149  1  0  0  0
 78150  1  0  0  0
 79 80  1  0  0  0
 79151  1  0  0  0
 79152  1  0  0  0
 80 82  1  0  0  0
 80153  1  0  0  0
 80154  1  0  0  0
 82155  1  0  0  0
M  ISO  4   1 100  68 101  78 101  82 100
M  END
> <chiral flag>
0

> <version>
0

> <s_m_source_file>
/data/baiqing/PycharmProjects/Reinvent-master-3.2/result/LINK_invent/BTK/process_docking_weight1_custom_sum_contain_oxygen_bond_distance_aromatic_linkinvent_7_9_3/rearranged_h_0037.sdf

> <i_m_source_file_index>
80

> <r_mmod_Potential_Energy-OPLS-2005>
-27.0072612762451

> <r_mmod_Stretch_Energy-OPLS-2005>
103.518646240234

> <r_mmod_Bend_Energy-OPLS-2005>
151.537292480469

> <r_mmod_Torsional_Energy-OPLS-2005>
218.263153076172

> <r_mmod_Improper_Torsional_Energy-OPLS-2005>
7.81759929656982

> <r_mmod_Van_der_Waal_Energy-OPLS-2005>
146.572799682617

> <r_mmod_Electrostatic_Energy-OPLS-2005>
-492.918426513672

> <r_mmod_Solvation_Energy-OPLS-2005>
-228.381744384766

> <b_mmod_Minimization_Converged-OPLS-2005>
0

> <r_mmod_RMS_Derivative-OPLS-2005>
2.01713824272156

$$$$
80
                    3D
 Structure written by MMmdl.
156164  0  0  1  0            999 V2000
  -30.6445  -14.6886   20.4786 C   0  0  0  0  0  0
  -30.4410  -12.4278   19.4428 C   0  0  0  0  0  0
  -29.5111  -12.5045   18.2121 C   0  0  0  0  0  0
  -28.0369  -12.3323   18.6336 C   0  0  0  0  0  0
  -27.6473  -13.2229   19.8457 C   0  0  2  0  0  0
  -28.6973  -13.1359   20.9747 C   0  0  0  0  0  0
  -25.2532  -13.8190   20.5643 C   0  0  0  0  0  0
  -24.1823  -13.0442   20.9183 C   0  0  0  0  0  0
  -24.6414  -11.6917   20.8731 C   0  0  0  0  0  0
  -23.9090  -10.4290   21.0413 C   0  0  0  0  0  0
  -24.3643   -9.4197   21.9179 C   0  0  0  0  0  0
  -23.6277   -8.2250   22.0756 C   0  0  0  0  0  0
  -22.4253   -8.0301   21.3554 C   0  0  0  0  0  0
  -21.9904   -9.0272   20.4663 C   0  0  0  0  0  0
  -22.7263  -10.2134   20.3054 C   0  0  0  0  0  0
  -21.6838   -6.0739   22.5258 C   0  0  0  0  0  0
  -21.4020   -6.5633   23.8196 C   0  0  0  0  0  0
  -21.3656   -5.6770   24.9148 C   0  0  0  0  0  0
  -21.6036   -4.3032   24.7200 C   0  0  0  0  0  0
  -21.8817   -3.8146   23.4316 C   0  0  0  0  0  0
  -21.9190   -4.6973   22.3381 C   0  0  0  0  0  0
  -22.7844  -13.5226   21.1837 C   0  0  0  0  0  0
  -22.1660   -4.2163   21.0956 F   0  0  0  0  0  0
  -21.5635   -3.4519   25.7721 F   0  0  0  0  0  0
  -30.0036  -13.4777   20.3878 N   0  0  0  0  0  0
  -26.2957  -12.9381   20.3212 N   0  0  0  0  0  0
  -25.9337  -11.6539   20.5719 N   0  0  0  0  0  0
  -22.0481  -12.8234   22.0401 N   0  0  0  0  0  0
  -25.4229  -15.1920   20.4065 N   0  0  0  0  0  0
  -31.8302  -14.8033   20.1687 O   0  0  0  0  0  0
  -21.6631   -6.8887   21.4219 O   0  0  0  0  0  0
  -22.3532  -14.5522   20.6662 O   0  0  0  0  0  0
  -24.6262  -31.8597   23.2005 C   0  0  0  0  0  0
  -25.9098  -32.4806   23.8312 C   0  0  1  0  0  0
  -27.2205  -27.2756   20.1140 C   0  0  0  0  0  0
  -25.5912  -33.8603   24.2258 N   0  0  0  0  0  0
  -23.4224  -30.4821   21.5471 C   0  0  2  0  0  0
  -24.8721  -28.9362   20.1144 C   0  0  0  0  0  0
  -22.7484  -29.4607   22.4943 C   0  0  0  0  0  0
  -18.0285  -28.1425   22.8463 C   0  0  0  0  0  0
  -24.1490  -36.7267   23.2629 C   0  0  0  0  0  0
  -25.9696  -30.7782   21.3777 C   0  0  0  0  0  0
  -26.0459  -29.4023   20.7183 C   0  0  0  0  0  0
  -27.2243  -28.5859   20.7057 C   0  0  0  0  0  0
  -26.0180  -26.8805   19.4826 C   0  0  0  0  0  0
  -24.8626  -27.6837   19.4880 C   0  0  0  0  0  0
  -23.6405  -29.8215   20.1620 C   0  0  0  0  0  0
  -25.4135  -36.3103   24.0312 C   0  0  1  0  0  0
  -20.5882  -28.3705   23.1295 C   0  0  2  0  0  0
  -20.6791  -26.9423   22.5419 C   0  0  0  0  0  0
  -19.5773  -26.6402   21.5219 C   0  0  0  0  0  0
  -18.1946  -26.7956   22.1622 C   0  0  0  0  0  0
  -19.1547  -28.8883   23.2868 C   0  0  0  0  0  0
  -18.9470  -30.1481   23.8887 C   0  0  0  0  0  0
  -17.6481  -30.6610   24.0567 C   0  0  0  0  0  0
  -25.9058  -34.9472   23.5098 C   0  0  0  0  0  0
  -16.5365  -29.9108   23.6354 C   0  0  0  0  0  0
  -16.7281  -28.6545   23.0334 C   0  0  0  0  0  0
  -26.4476  -31.6619   25.0692 C   0  0  0  0  0  0
  -25.3698  -31.3764   26.1419 C   0  0  0  0  0  0
  -27.0294  -30.3050   24.6133 C   0  0  0  0  0  0
  -27.6058  -32.4318   25.7457 C   0  0  0  0  0  0
  -27.5597  -37.1797   24.8465 C   0  0  0  0  0  0
  -21.4193  -29.3038   22.3684 N   0  0  0  0  0  0
  -26.4319  -37.3802   23.9410 N   0  0  0  0  0  0
  -24.6918  -31.0551   22.1001 N   0  0  0  0  0  0
  -23.4186  -28.8105   23.3015 O   0  0  0  0  0  0
  -28.3218  -26.3842   20.1512 O   0  0  0  0  0  0
  -26.5621  -34.8945   22.4649 O   0  0  0  0  0  0
  -23.5428  -32.1389   23.7335 O   0  0  0  0  0  0
  -30.2086  -18.3650   18.8589 C   0  0  0  0  0  0
  -30.0422  -19.4815   18.0194 C   0  0  0  0  0  0
  -29.5235  -19.7513   20.7339 C   0  0  0  0  0  0
  -29.9616  -18.4606   20.2401 C   0  0  0  0  0  0
  -29.5894  -20.7316   18.5042 C   0  0  0  0  0  0
  -29.3103  -20.9131   19.8901 C   0  0  0  0  0  0
  -29.3746  -21.8284   17.4761 C   0  0  0  0  0  0
  -28.5947  -22.2338   20.4182 C   0  0  0  0  0  0
  -30.2676  -17.2052   21.1514 C   0  0  0  0  0  0
  -29.1488  -23.7455   20.2463 C   0  0  0  0  0  0
  -28.0323  -24.9103   20.2163 C   0  0  0  0  0  0
  -29.8747  -15.7974   20.7548 N   0  0  0  0  0  0
  -31.4829  -12.5578   19.1384 H   0  0  0  0  0  0
  -30.3856  -11.4425   19.9068 H   0  0  0  0  0  0
  -29.7894  -11.7395   17.4834 H   0  0  0  0  0  0
  -29.6415  -13.4616   17.7013 H   0  0  0  0  0  0
  -27.8893  -11.2806   18.8862 H   0  0  0  0  0  0
  -27.3786  -12.5301   17.7890 H   0  0  0  0  0  0
  -27.6505  -14.2490   19.4762 H   0  0  0  0  0  0
  -28.7225  -12.1339   21.4063 H   0  0  0  0  0  0
  -28.4464  -13.8147   21.7907 H   0  0  0  0  0  0
  -25.2816   -9.5648   22.4724 H   0  0  0  0  0  0
  -23.9998   -7.4617   22.7445 H   0  0  0  0  0  0
  -21.0848   -8.8778   19.8940 H   0  0  0  0  0  0
  -22.3748  -10.9650   19.6130 H   0  0  0  0  0  0
  -21.2028   -7.6141   23.9701 H   0  0  0  0  0  0
  -21.1482   -6.0511   25.9047 H   0  0  0  0  0  0
  -22.0622   -2.7614   23.2802 H   0  0  0  0  0  0
  -22.4111  -11.9940   22.4858 H   0  0  0  0  0  0
  -21.1079  -13.1242   22.2559 H   0  0  0  0  0  0
  -24.6494  -15.8416   20.5067 H   0  0  0  0  0  0
  -26.2667  -15.6304   20.0600 H   0  0  0  0  0  0
  -26.7134  -32.5496   23.1027 H   0  0  0  0  0  0
  -25.0063  -33.9737   25.0413 H   0  0  0  0  0  0
  -22.7168  -31.3036   21.4080 H   0  0  0  0  0  0
  -23.3792  -35.9552   23.3298 H   0  0  0  0  0  0
  -24.3556  -36.8894   22.2039 H   0  0  0  0  0  0
  -23.7212  -37.6457   23.6642 H   0  0  0  0  0  0
  -26.1014  -31.5419   20.6105 H   0  0  0  0  0  0
  -26.8485  -30.8299   22.0060 H   0  0  0  0  0  0
  -28.1259  -28.9429   21.1814 H   0  0  0  0  0  0
  -25.9230  -25.9356   18.9709 H   0  0  0  0  0  0
  -23.9643  -27.3242   19.0074 H   0  0  0  0  0  0
  -23.7631  -30.6012   19.4095 H   0  0  0  0  0  0
  -22.7598  -29.2541   19.8545 H   0  0  0  0  0  0
  -25.1321  -36.1944   25.0802 H   0  0  0  0  0  0
  -20.9970  -28.3301   24.1427 H   0  0  0  0  0  0
  -20.5757  -26.2280   23.3592 H   0  0  0  0  0  0
  -21.6657  -26.7502   22.1190 H   0  0  0  0  0  0
  -19.6922  -25.6314   21.1253 H   0  0  0  0  0  0
  -19.6749  -27.3204   20.6735 H   0  0  0  0  0  0
  -17.4211  -26.6659   21.4039 H   0  0  0  0  0  0
  -18.0379  -26.0148   22.9075 H   0  0  0  0  0  0
  -19.7953  -30.7290   24.2263 H   0  0  0  0  0  0
  -17.5047  -31.6305   24.5135 H   0  0  0  0  0  0
  -15.5376  -30.3002   23.7728 H   0  0  0  0  0  0
  -15.8667  -28.0877   22.7046 H   0  0  0  0  0  0
  -24.5851  -30.7136   25.7750 H   0  0  0  0  0  0
  -24.8893  -32.2932   26.4850 H   0  0  0  0  0  0
  -25.8019  -30.8933   27.0189 H   0  0  0  0  0  0
  -26.2841  -29.6847   24.1152 H   0  0  0  0  0  0
  -27.3993  -29.7296   25.4624 H   0  0  0  0  0  0
  -27.8709  -30.4357   23.9328 H   0  0  0  0  0  0
  -27.2692  -33.3629   26.2014 H   0  0  0  0  0  0
  -28.3868  -32.6859   25.0279 H   0  0  0  0  0  0
  -28.0672  -31.8422   26.5383 H   0  0  0  0  0  0
  -28.2628  -38.0096   24.7576 H   0  0  0  0  0  0
  -28.1097  -36.2641   24.6241 H   0  0  0  0  0  0
  -27.2283  -37.1378   25.8859 H   0  0  0  0  0  0
  -20.9356  -29.8729   21.6879 H   0  0  0  0  0  0
  -26.0197  -38.2861   24.1487 H   0  0  0  0  0  0
  -30.5488  -17.4280   18.4357 H   0  0  0  0  0  0
  -30.2455  -19.3613   16.9634 H   0  0  0  0  0  0
  -29.3124  -19.8456   21.7917 H   0  0  0  0  0  0
  -29.1698  -21.4012   16.4912 H   0  0  0  0  0  0
  -30.2720  -22.4380   17.3848 H   0  0  0  0  0  0
  -28.5293  -22.4683   17.7277 H   0  0  0  0  0  0
  -28.3725  -22.0852   21.4756 H   0  0  0  0  0  0
  -27.6103  -22.2066   19.9488 H   0  0  0  0  0  0
  -29.7955  -17.3930   22.1169 H   0  0  0  0  0  0
  -31.3407  -17.2110   21.3515 H   0  0  0  0  0  0
  -29.7312  -23.8238   19.3302 H   0  0  0  0  0  0
  -29.8552  -23.9392   21.0552 H   0  0  0  0  0  0
  -27.3931  -24.7645   21.0887 H   0  0  0  0  0  0
  -27.4312  -24.6327   19.3553 H   0  0  0  0  0  0
  -28.8918  -15.5975   20.8564 H   0  0  0  0  0  0
  1 25  1  0  0  0
  1 30  2  0  0  0
  1 82  1  0  0  0
  2  3  1  0  0  0
  2 25  1  0  0  0
  2 83  1  0  0  0
  2 84  1  0  0  0
  3  4  1  0  0  0
  3 85  1  0  0  0
  3 86  1  0  0  0
  4  5  1  0  0  0
  4 87  1  0  0  0
  4 88  1  0  0  0
  5  6  1  0  0  0
  5 26  1  0  0  0
  5 89  1  0  0  0
  6 25  1  0  0  0
  6 90  1  0  0  0
  6 91  1  0  0  0
  7  8  2  0  0  0
  7 26  1  0  0  0
  7 29  1  0  0  0
  8  9  1  0  0  0
  8 22  1  0  0  0
  9 10  1  0  0  0
  9 27  2  0  0  0
 10 11  2  0  0  0
 10 15  1  0  0  0
 11 12  1  0  0  0
 11 92  1  0  0  0
 12 13  2  0  0  0
 12 93  1  0  0  0
 13 14  1  0  0  0
 13 31  1  0  0  0
 14 15  2  0  0  0
 14 94  1  0  0  0
 15 95  1  0  0  0
 16 17  2  0  0  0
 16 21  1  0  0  0
 16 31  1  0  0  0
 17 18  1  0  0  0
 17 96  1  0  0  0
 18 19  2  0  0  0
 18 97  1  0  0  0
 19 20  1  0  0  0
 19 24  1  0  0  0
 20 21  2  0  0  0
 20 98  1  0  0  0
 21 23  1  0  0  0
 22 28  1  0  0  0
 22 32  2  0  0  0
 26 27  1  0  0  0
 28 99  1  0  0  0
 28100  1  0  0  0
 29101  1  0  0  0
 29102  1  0  0  0
 33 34  1  0  0  0
 33 66  1  0  0  0
 33 70  2  0  0  0
 34 36  1  0  0  0
 34 59  1  0  0  0
 34103  1  0  0  0
 35 44  2  0  0  0
 35 45  1  0  0  0
 35 68  1  0  0  0
 36 56  1  0  0  0
 36104  1  0  0  0
 37 39  1  0  0  0
 37 47  1  0  0  0
 37 66  1  0  0  0
 37105  1  0  0  0
 38 43  2  0  0  0
 38 46  1  0  0  0
 38 47  1  0  0  0
 39 64  1  0  0  0
 39 67  2  0  0  0
 40 52  1  0  0  0
 40 53  2  0  0  0
 40 58  1  0  0  0
 41106  1  0  0  0
 41107  1  0  0  0
 41108  1  0  0  0
 41 48  1  0  0  0
 42 43  1  0  0  0
 42 66  1  0  0  0
 42109  1  0  0  0
 42110  1  0  0  0
 43 44  1  0  0  0
 44111  1  0  0  0
 45 46  2  0  0  0
 45112  1  0  0  0
 46113  1  0  0  0
 47114  1  0  0  0
 47115  1  0  0  0
 48 56  1  0  0  0
 48 65  1  0  0  0
 48116  1  0  0  0
 49 50  1  0  0  0
 49 53  1  0  0  0
 49 64  1  0  0  0
 49117  1  0  0  0
 50 51  1  0  0  0
 50118  1  0  0  0
 50119  1  0  0  0
 51 52  1  0  0  0
 51120  1  0  0  0
 51121  1  0  0  0
 52122  1  0  0  0
 52123  1  0  0  0
 53 54  1  0  0  0
 54 55  2  0  0  0
 54124  1  0  0  0
 55 57  1  0  0  0
 55125  1  0  0  0
 56 69  2  0  0  0
 57 58  2  0  0  0
 57126  1  0  0  0
 58127  1  0  0  0
 59 60  1  0  0  0
 59 61  1  0  0  0
 59 62  1  0  0  0
 60128  1  0  0  0
 60129  1  0  0  0
 60130  1  0  0  0
 61131  1  0  0  0
 61132  1  0  0  0
 61133  1  0  0  0
 62134  1  0  0  0
 62135  1  0  0  0
 62136  1  0  0  0
 63 65  1  0  0  0
 63137  1  0  0  0
 63138  1  0  0  0
 63139  1  0  0  0
 64140  1  0  0  0
 65141  1  0  0  0
 68 81  1  0  0  0
 71 72  2  0  0  0
 71 74  1  0  0  0
 71142  1  0  0  0
 72 75  1  0  0  0
 72143  1  0  0  0
 73 74  2  0  0  0
 73 76  1  0  0  0
 73144  1  0  0  0
 74 79  1  0  0  0
 75 76  2  0  0  0
 75 77  1  0  0  0
 76 78  1  0  0  0
 77145  1  0  0  0
 77146  1  0  0  0
 77147  1  0  0  0
 78 80  1  0  0  0
 78148  1  0  0  0
 78149  1  0  0  0
 79 82  1  0  0  0
 79150  1  0  0  0
 79151  1  0  0  0
 80 81  1  0  0  0
 80152  1  0  0  0
 80153  1  0  0  0
 81154  1  0  0  0
 81155  1  0  0  0
 82156  1  0  0  0
M  ISO  4   1 100  68 101  81 101  82 100
M  END
> <chiral flag>
0

> <version>
0

> <s_m_source_file>
/data/baiqing/PycharmProjects/Reinvent-master-3.2/result/LINK_invent/BTK/process_docking_weight1_custom_sum_contain_oxygen_bond_distance_aromatic_linkinvent_7_9_3/rearranged_h_0037.sdf

> <i_m_source_file_index>
81

> <r_mmod_Potential_Energy-OPLS-2005>
72.9677047729492

> <r_mmod_Stretch_Energy-OPLS-2005>
109.39542388916

> <r_mmod_Bend_Energy-OPLS-2005>
160.433547973633

> <r_mmod_Torsional_Energy-OPLS-2005>
212.313430786133

> <r_mmod_Improper_Torsional_Energy-OPLS-2005>
5.19227647781372

> <r_mmod_Van_der_Waal_Energy-OPLS-2005>
141.021835327148

> <r_mmod_Electrostatic_Energy-OPLS-2005>
-416.343658447266

> <r_mmod_Solvation_Energy-OPLS-2005>
-208.573013305664

> <b_mmod_Minimization_Converged-OPLS-2005>
0

> <r_mmod_RMS_Derivative-OPLS-2005>
4.58122444152832

$$$$
81
                    3D
 Structure written by MMmdl.
168176  0  0  1  0            999 V2000
  -30.6669  -14.4387   20.5818 C   0  0  0  0  0  0
  -30.4206  -12.2825   19.4216 C   0  0  0  0  0  0
  -29.4938  -12.5096   18.2078 C   0  0  0  0  0  0
  -28.0119  -12.3721   18.6157 C   0  0  0  0  0  0
  -27.6605  -13.1932   19.8874 C   0  0  2  0  0  0
  -28.6981  -12.9370   21.0021 C   0  0  0  0  0  0
  -25.2625  -13.8084   20.5899 C   0  0  0  0  0  0
  -24.1808  -13.0402   20.9219 C   0  0  0  0  0  0
  -24.6328  -11.6869   20.8696 C   0  0  0  0  0  0
  -23.8968  -10.4291   21.0377 C   0  0  0  0  0  0
  -24.3528   -9.4233   21.9177 C   0  0  0  0  0  0
  -23.6241   -8.2247   22.0764 C   0  0  0  0  0  0
  -22.4235   -8.0257   21.3543 C   0  0  0  0  0  0
  -21.9841   -9.0205   20.4633 C   0  0  0  0  0  0
  -22.7142  -10.2103   20.3034 C   0  0  0  0  0  0
  -21.6841   -6.0700   22.5254 C   0  0  0  0  0  0
  -21.3997   -6.5615   23.8182 C   0  0  0  0  0  0
  -21.3695   -5.6794   24.9165 C   0  0  0  0  0  0
  -21.6067   -4.3057   24.7223 C   0  0  0  0  0  0
  -21.8820   -3.8124   23.4356 C   0  0  0  0  0  0
  -21.9199   -4.6924   22.3397 C   0  0  0  0  0  0
  -22.7846  -13.5229   21.1868 C   0  0  0  0  0  0
  -22.1678   -4.2107   21.0982 F   0  0  0  0  0  0
  -21.5660   -3.4556   25.7753 F   0  0  0  0  0  0
  -30.0306  -13.2477   20.4564 N   0  0  0  0  0  0
  -26.3007  -12.9239   20.3442 N   0  0  0  0  0  0
  -25.9251  -11.6405   20.5698 N   0  0  0  0  0  0
  -22.0465  -12.8209   22.0419 N   0  0  0  0  0  0
  -25.4488  -15.1789   20.4727 N   0  0  0  0  0  0
  -31.7920  -14.6620   20.1208 O   0  0  0  0  0  0
  -21.6665   -6.8814   21.4209 O   0  0  0  0  0  0
  -22.3563  -14.5541   20.6729 O   0  0  0  0  0  0
  -24.6140  -31.8700   23.2098 C   0  0  0  0  0  0
  -25.9050  -32.4820   23.8386 C   0  0  1  0  0  0
  -27.2335  -27.4504   20.0768 C   0  0  0  0  0  0
  -25.5919  -33.8616   24.2345 N   0  0  0  0  0  0
  -23.4004  -30.4928   21.5540 C   0  0  2  0  0  0
  -24.8425  -28.9605   20.1199 C   0  0  0  0  0  0
  -22.7398  -29.4661   22.5019 C   0  0  0  0  0  0
  -18.0274  -28.1365   22.8492 C   0  0  0  0  0  0
  -24.1501  -36.7300   23.2634 C   0  0  0  0  0  0
  -25.9283  -30.8390   21.3615 C   0  0  0  0  0  0
  -26.0048  -29.4760   20.7043 C   0  0  0  0  0  0
  -27.2036  -28.7288   20.6767 C   0  0  0  0  0  0
  -26.0466  -26.9423   19.5001 C   0  0  0  0  0  0
  -24.8552  -27.6902   19.5206 C   0  0  0  0  0  0
  -23.6051  -29.8261   20.1692 C   0  0  0  0  0  0
  -25.4110  -36.3105   24.0356 C   0  0  1  0  0  0
  -20.5863  -28.3649   23.1337 C   0  0  2  0  0  0
  -20.6760  -26.9395   22.5418 C   0  0  0  0  0  0
  -19.5751  -26.6388   21.5203 C   0  0  0  0  0  0
  -18.1928  -26.7916   22.1609 C   0  0  0  0  0  0
  -19.1518  -28.8826   23.2906 C   0  0  0  0  0  0
  -18.9440  -30.1432   23.8921 C   0  0  0  0  0  0
  -17.6439  -30.6574   24.0561 C   0  0  0  0  0  0
  -25.9031  -34.9476   23.5142 C   0  0  0  0  0  0
  -16.5337  -29.9079   23.6317 C   0  0  0  0  0  0
  -16.7256  -28.6494   23.0343 C   0  0  0  0  0  0
  -26.4483  -31.6575   25.0697 C   0  0  0  0  0  0
  -25.3740  -31.3724   26.1453 C   0  0  0  0  0  0
  -27.0299  -30.3015   24.6057 C   0  0  0  0  0  0
  -27.6065  -32.4294   25.7442 C   0  0  0  0  0  0
  -27.5598  -37.1797   24.8465 C   0  0  0  0  0  0
  -21.4132  -29.3019   22.3743 N   0  0  0  0  0  0
  -26.4309  -37.3779   23.9412 N   0  0  0  0  0  0
  -24.6653  -31.0815   22.0987 N   0  0  0  0  0  0
  -23.4167  -28.8212   23.3058 O   0  0  0  0  0  0
  -28.4198  -26.7466   20.0624 O   0  0  0  0  0  0
  -26.5570  -34.8933   22.4690 O   0  0  0  0  0  0
  -23.5337  -32.1454   23.7516 O   0  0  0  0  0  0
  -26.5116  -20.6487   16.9224 C   0  0  0  0  0  0
  -28.1720  -19.9707   18.5635 C   0  0  0  0  0  0
  -27.6513  -20.9452   17.6858 C   0  0  0  0  0  0
  -25.9143  -19.3790   16.9981 C   0  0  0  0  0  0
  -27.6100  -18.6734   18.6431 C   0  0  0  0  0  0
  -26.4913  -18.3653   17.8083 C   0  0  0  0  0  0
  -24.6223  -19.1553   16.2243 C   0  0  0  0  0  0
  -25.8634  -16.9781   17.7871 C   0  0  0  0  0  0
  -28.2752  -22.3293   17.5982 C   0  0  0  0  0  0
  -28.1534  -17.7023   19.7125 C   0  0  0  0  0  0
  -28.0616  -23.1397   18.8833 C   0  0  0  0  0  0
  -29.6948  -17.5592   19.7980 C   0  0  0  0  0  0
  -28.4584  -24.6233   18.7745 C   0  0  0  0  0  0
  -30.2012  -16.8484   21.0793 C   0  0  0  0  0  0
  -28.3422  -25.3213   20.1421 C   0  0  0  0  0  0
  -29.9045  -15.4182   21.0950 N   0  0  0  0  0  0
  -31.4673  -12.3835   19.1292 H   0  0  0  0  0  0
  -30.3124  -11.2624   19.7942 H   0  0  0  0  0  0
  -29.7306  -11.8043   17.4100 H   0  0  0  0  0  0
  -29.6668  -13.5043   17.7941 H   0  0  0  0  0  0
  -27.8156  -11.3147   18.7944 H   0  0  0  0  0  0
  -27.3667  -12.6649   17.7877 H   0  0  0  0  0  0
  -27.7107  -14.2452   19.6071 H   0  0  0  0  0  0
  -28.6703  -11.8905   21.3113 H   0  0  0  0  0  0
  -28.4616  -13.5023   21.9046 H   0  0  0  0  0  0
  -25.2661   -9.5744   22.4755 H   0  0  0  0  0  0
  -23.9993   -7.4636   22.7470 H   0  0  0  0  0  0
  -21.0787   -8.8645   19.8909 H   0  0  0  0  0  0
  -22.3570  -10.9603   19.6116 H   0  0  0  0  0  0
  -21.1950   -7.6128   23.9677 H   0  0  0  0  0  0
  -21.1549   -6.0521   25.9071 H   0  0  0  0  0  0
  -22.0571   -2.7578   23.2841 H   0  0  0  0  0  0
  -22.4086  -11.9883   22.4837 H   0  0  0  0  0  0
  -21.1054  -13.1189   22.2588 H   0  0  0  0  0  0
  -24.6961  -15.8442   20.5937 H   0  0  0  0  0  0
  -26.3343  -15.6154   20.2623 H   0  0  0  0  0  0
  -26.7109  -32.5529   23.1135 H   0  0  0  0  0  0
  -25.0135  -33.9774   25.0534 H   0  0  0  0  0  0
  -22.6884  -31.3077   21.4156 H   0  0  0  0  0  0
  -23.3772  -35.9622   23.3294 H   0  0  0  0  0  0
  -24.3612  -36.8896   22.2049 H   0  0  0  0  0  0
  -23.7256  -37.6516   23.6621 H   0  0  0  0  0  0
  -26.0455  -31.6098   20.5997 H   0  0  0  0  0  0
  -26.8153  -30.8844   21.9814 H   0  0  0  0  0  0
  -28.1049  -29.1254   21.1231 H   0  0  0  0  0  0
  -26.0224  -25.9746   19.0226 H   0  0  0  0  0  0
  -23.9582  -27.2839   19.0733 H   0  0  0  0  0  0
  -23.7080  -30.6013   19.4090 H   0  0  0  0  0  0
  -22.7296  -29.2432   19.8790 H   0  0  0  0  0  0
  -25.1277  -36.1974   25.0850 H   0  0  0  0  0  0
  -20.9934  -28.3212   24.1460 H   0  0  0  0  0  0
  -20.5684  -26.2242   23.3586 H   0  0  0  0  0  0
  -21.6634  -26.7448   22.1205 H   0  0  0  0  0  0
  -19.6931  -25.6309   21.1217 H   0  0  0  0  0  0
  -19.6715  -27.3212   20.6753 H   0  0  0  0  0  0
  -17.4195  -26.6664   21.4014 H   0  0  0  0  0  0
  -18.0338  -26.0045   22.8995 H   0  0  0  0  0  0
  -19.7917  -30.7236   24.2308 H   0  0  0  0  0  0
  -17.4995  -31.6258   24.5156 H   0  0  0  0  0  0
  -15.5343  -30.2977   23.7629 H   0  0  0  0  0  0
  -15.8654  -28.0814   22.7046 H   0  0  0  0  0  0
  -24.5899  -30.7071   25.7817 H   0  0  0  0  0  0
  -24.8935  -32.2899   26.4862 H   0  0  0  0  0  0
  -25.8087  -30.8929   27.0232 H   0  0  0  0  0  0
  -26.2860  -29.6805   24.1051 H   0  0  0  0  0  0
  -27.4028  -29.7220   25.4513 H   0  0  0  0  0  0
  -27.8705  -30.4348   23.9241 H   0  0  0  0  0  0
  -27.2693  -33.3587   26.2050 H   0  0  0  0  0  0
  -28.3844  -32.6870   25.0236 H   0  0  0  0  0  0
  -28.0757  -31.8384   26.5322 H   0  0  0  0  0  0
  -28.2600  -38.0105   24.7505 H   0  0  0  0  0  0
  -28.1114  -36.2638   24.6280 H   0  0  0  0  0  0
  -27.2318  -37.1434   25.8869 H   0  0  0  0  0  0
  -20.9283  -29.8734   21.6960 H   0  0  0  0  0  0
  -26.0211  -38.2872   24.1370 H   0  0  0  0  0  0
  -26.0747  -21.4081   16.2863 H   0  0  0  0  0  0
  -28.9984  -20.2482   19.1999 H   0  0  0  0  0  0
  -24.1703  -20.1031   15.9348 H   0  0  0  0  0  0
  -23.8858  -18.6368   16.8374 H   0  0  0  0  0  0
  -24.7920  -18.5796   15.3154 H   0  0  0  0  0  0
  -25.3931  -16.7613   16.8281 H   0  0  0  0  0  0
  -25.0914  -16.9096   18.5518 H   0  0  0  0  0  0
  -26.5921  -16.1808   17.9216 H   0  0  0  0  0  0
  -27.8488  -22.8628   16.7475 H   0  0  0  0  0  0
  -29.3417  -22.2278   17.3902 H   0  0  0  0  0  0
  -27.7345  -16.7060   19.6192 H   0  0  0  0  0  0
  -27.7857  -18.0730   20.6706 H   0  0  0  0  0  0
  -28.6178  -22.6666   19.6932 H   0  0  0  0  0  0
  -27.0069  -23.0799   19.1625 H   0  0  0  0  0  0
  -30.1596  -18.5429   19.7955 H   0  0  0  0  0  0
  -30.0743  -17.0519   18.9113 H   0  0  0  0  0  0
  -27.8252  -25.1105   18.0331 H   0  0  0  0  0  0
  -29.4805  -24.7203   18.4085 H   0  0  0  0  0  0
  -29.7561  -17.3061   21.9660 H   0  0  0  0  0  0
  -31.2783  -16.9980   21.1800 H   0  0  0  0  0  0
  -29.1656  -24.9822   20.7718 H   0  0  0  0  0  0
  -27.4355  -25.0038   20.6600 H   0  0  0  0  0  0
  -29.0000  -15.1407   21.4471 H   0  0  0  0  0  0
  1 25  1  0  0  0
  1 30  2  0  0  0
  1 86  1  0  0  0
  2  3  1  0  0  0
  2 25  1  0  0  0
  2 87  1  0  0  0
  2 88  1  0  0  0
  3  4  1  0  0  0
  3 89  1  0  0  0
  3 90  1  0  0  0
  4  5  1  0  0  0
  4 91  1  0  0  0
  4 92  1  0  0  0
  5  6  1  0  0  0
  5 26  1  0  0  0
  5 93  1  0  0  0
  6 25  1  0  0  0
  6 94  1  0  0  0
  6 95  1  0  0  0
  7  8  2  0  0  0
  7 26  1  0  0  0
  7 29  1  0  0  0
  8  9  1  0  0  0
  8 22  1  0  0  0
  9 10  1  0  0  0
  9 27  2  0  0  0
 10 11  2  0  0  0
 10 15  1  0  0  0
 11 12  1  0  0  0
 11 96  1  0  0  0
 12 13  2  0  0  0
 12 97  1  0  0  0
 13 14  1  0  0  0
 13 31  1  0  0  0
 14 15  2  0  0  0
 14 98  1  0  0  0
 15 99  1  0  0  0
 16 17  2  0  0  0
 16 21  1  0  0  0
 16 31  1  0  0  0
 17 18  1  0  0  0
 17100  1  0  0  0
 18 19  2  0  0  0
 18101  1  0  0  0
 19 20  1  0  0  0
 19 24  1  0  0  0
 20 21  2  0  0  0
 20102  1  0  0  0
 21 23  1  0  0  0
 22 28  1  0  0  0
 22 32  2  0  0  0
 26 27  1  0  0  0
 28103  1  0  0  0
 28104  1  0  0  0
 29105  1  0  0  0
 29106  1  0  0  0
 33 34  1  0  0  0
 33 66  1  0  0  0
 33 70  2  0  0  0
 34 36  1  0  0  0
 34 59  1  0  0  0
 34107  1  0  0  0
 35 44  2  0  0  0
 35 45  1  0  0  0
 35 68  1  0  0  0
 36 56  1  0  0  0
 36108  1  0  0  0
 37 39  1  0  0  0
 37 47  1  0  0  0
 37 66  1  0  0  0
 37109  1  0  0  0
 38 43  2  0  0  0
 38 46  1  0  0  0
 38 47  1  0  0  0
 39 64  1  0  0  0
 39 67  2  0  0  0
 40 52  1  0  0  0
 40 53  2  0  0  0
 40 58  1  0  0  0
 41110  1  0  0  0
 41111  1  0  0  0
 41112  1  0  0  0
 41 48  1  0  0  0
 42 43  1  0  0  0
 42 66  1  0  0  0
 42113  1  0  0  0
 42114  1  0  0  0
 43 44  1  0  0  0
 44115  1  0  0  0
 45 46  2  0  0  0
 45116  1  0  0  0
 46117  1  0  0  0
 47118  1  0  0  0
 47119  1  0  0  0
 48 56  1  0  0  0
 48 65  1  0  0  0
 48120  1  0  0  0
 49 50  1  0  0  0
 49 53  1  0  0  0
 49 64  1  0  0  0
 49121  1  0  0  0
 50 51  1  0  0  0
 50122  1  0  0  0
 50123  1  0  0  0
 51 52  1  0  0  0
 51124  1  0  0  0
 51125  1  0  0  0
 52126  1  0  0  0
 52127  1  0  0  0
 53 54  1  0  0  0
 54 55  2  0  0  0
 54128  1  0  0  0
 55 57  1  0  0  0
 55129  1  0  0  0
 56 69  2  0  0  0
 57 58  2  0  0  0
 57130  1  0  0  0
 58131  1  0  0  0
 59 60  1  0  0  0
 59 61  1  0  0  0
 59 62  1  0  0  0
 60132  1  0  0  0
 60133  1  0  0  0
 60134  1  0  0  0
 61135  1  0  0  0
 61136  1  0  0  0
 61137  1  0  0  0
 62138  1  0  0  0
 62139  1  0  0  0
 62140  1  0  0  0
 63 65  1  0  0  0
 63141  1  0  0  0
 63142  1  0  0  0
 63143  1  0  0  0
 64144  1  0  0  0
 65145  1  0  0  0
 68 85  1  0  0  0
 71 73  2  0  0  0
 71 74  1  0  0  0
 71146  1  0  0  0
 72 73  1  0  0  0
 72 75  2  0  0  0
 72147  1  0  0  0
 73 79  1  0  0  0
 74 76  2  0  0  0
 74 77  1  0  0  0
 75 76  1  0  0  0
 75 80  1  0  0  0
 76 78  1  0  0  0
 77148  1  0  0  0
 77149  1  0  0  0
 77150  1  0  0  0
 78151  1  0  0  0
 78152  1  0  0  0
 78153  1  0  0  0
 79 81  1  0  0  0
 79154  1  0  0  0
 79155  1  0  0  0
 80 82  1  0  0  0
 80156  1  0  0  0
 80157  1  0  0  0
 81 83  1  0  0  0
 81158  1  0  0  0
 81159  1  0  0  0
 82 84  1  0  0  0
 82160  1  0  0  0
 82161  1  0  0  0
 83 85  1  0  0  0
 83162  1  0  0  0
 83163  1  0  0  0
 84 86  1  0  0  0
 84164  1  0  0  0
 84165  1  0  0  0
 85166  1  0  0  0
 85167  1  0  0  0
 86168  1  0  0  0
M  ISO  4   1 100  68 101  85 101  86 100
M  END
> <chiral flag>
0

> <version>
0

> <s_m_source_file>
/data/baiqing/PycharmProjects/Reinvent-master-3.2/result/LINK_invent/BTK/process_docking_weight1_custom_sum_contain_oxygen_bond_distance_aromatic_linkinvent_7_9_3/rearranged_h_0037.sdf

> <i_m_source_file_index>
82

> <r_mmod_Potential_Energy-OPLS-2005>
-85.7984313964844

> <r_mmod_Stretch_Energy-OPLS-2005>
36.0017929077148

> <r_mmod_Bend_Energy-OPLS-2005>
96.1359100341797

> <r_mmod_Torsional_Energy-OPLS-2005>
208.226989746094

> <r_mmod_Improper_Torsional_Energy-OPLS-2005>
4.24554634094238

> <r_mmod_Van_der_Waal_Energy-OPLS-2005>
155.868041992188

> <r_mmod_Electrostatic_Energy-OPLS-2005>
-393.803863525391

> <r_mmod_Solvation_Energy-OPLS-2005>
-203.771194458008

> <b_mmod_Minimization_Converged-OPLS-2005>
0

> <r_mmod_RMS_Derivative-OPLS-2005>
3.62580919265747

$$$$
82
                    3D
 Structure written by MMmdl.
156164  0  0  1  0            999 V2000
  -30.6078  -14.7685   20.4619 C   0  0  0  0  0  0
  -30.4267  -12.4709   19.4877 C   0  0  0  0  0  0
  -29.5131  -12.5019   18.2430 C   0  0  0  0  0  0
  -28.0400  -12.3216   18.6538 C   0  0  0  0  0  0
  -27.6349  -13.2345   19.8427 C   0  0  2  0  0  0
  -28.6745  -13.1920   20.9826 C   0  0  0  0  0  0
  -25.2486  -13.8200   20.5700 C   0  0  0  0  0  0
  -24.1767  -13.0442   20.9229 C   0  0  0  0  0  0
  -24.6357  -11.6934   20.8731 C   0  0  0  0  0  0
  -23.9038  -10.4307   21.0396 C   0  0  0  0  0  0
  -24.3599   -9.4232   21.9177 C   0  0  0  0  0  0
  -23.6294   -8.2251   22.0742 C   0  0  0  0  0  0
  -22.4282   -8.0255   21.3532 C   0  0  0  0  0  0
  -21.9904   -9.0231   20.4641 C   0  0  0  0  0  0
  -22.7213  -10.2121   20.3058 C   0  0  0  0  0  0
  -21.6858   -6.0728   22.5282 C   0  0  0  0  0  0
  -21.4017   -6.5638   23.8215 C   0  0  0  0  0  0
  -21.3672   -5.6794   24.9182 C   0  0  0  0  0  0
  -21.6052   -4.3055   24.7239 C   0  0  0  0  0  0
  -21.8824   -3.8144   23.4360 C   0  0  0  0  0  0
  -21.9201   -4.6955   22.3415 C   0  0  0  0  0  0
  -22.7789  -13.5210   21.1916 C   0  0  0  0  0  0
  -22.1659   -4.2146   21.0991 F   0  0  0  0  0  0
  -21.5643   -3.4540   25.7754 F   0  0  0  0  0  0
  -29.9741  -13.5448   20.4006 N   0  0  0  0  0  0
  -26.2885  -12.9402   20.3232 N   0  0  0  0  0  0
  -25.9282  -11.6541   20.5716 N   0  0  0  0  0  0
  -22.0437  -12.8159   22.0449 N   0  0  0  0  0  0
  -25.4182  -15.1925   20.4133 N   0  0  0  0  0  0
  -31.8008  -14.8507   20.1595 O   0  0  0  0  0  0
  -21.6638   -6.8853   21.4233 O   0  0  0  0  0  0
  -22.3468  -14.5535   20.6806 O   0  0  0  0  0  0
  -24.6314  -31.8546   23.1959 C   0  0  0  0  0  0
  -25.9136  -32.4746   23.8322 C   0  0  1  0  0  0
  -27.2234  -27.2588   20.1445 C   0  0  0  0  0  0
  -25.5938  -33.8552   24.2248 N   0  0  0  0  0  0
  -23.4278  -30.4760   21.5396 C   0  0  2  0  0  0
  -24.8778  -28.9127   20.1172 C   0  0  0  0  0  0
  -22.7499  -29.4611   22.4910 C   0  0  0  0  0  0
  -18.0293  -28.1374   22.8480 C   0  0  0  0  0  0
  -24.1488  -36.7278   23.2641 C   0  0  0  0  0  0
  -25.9728  -30.7669   21.3738 C   0  0  0  0  0  0
  -26.0493  -29.3847   20.7240 C   0  0  0  0  0  0
  -27.2292  -28.5721   20.7237 C   0  0  0  0  0  0
  -26.0307  -26.8445   19.5193 C   0  0  0  0  0  0
  -24.8726  -27.6488   19.5044 C   0  0  0  0  0  0
  -23.6485  -29.8015   20.1591 C   0  0  0  0  0  0
  -25.4108  -36.3055   24.0325 C   0  0  1  0  0  0
  -20.5904  -28.3698   23.1249 C   0  0  2  0  0  0
  -20.6779  -26.9415   22.5395 C   0  0  0  0  0  0
  -19.5756  -26.6374   21.5199 C   0  0  0  0  0  0
  -18.1935  -26.7915   22.1613 C   0  0  0  0  0  0
  -19.1551  -28.8848   23.2857 C   0  0  0  0  0  0
  -18.9486  -30.1448   23.8883 C   0  0  0  0  0  0
  -17.6492  -30.6588   24.0558 C   0  0  0  0  0  0
  -25.9054  -34.9432   23.5080 C   0  0  0  0  0  0
  -16.5376  -29.9090   23.6338 C   0  0  0  0  0  0
  -16.7276  -28.6499   23.0356 C   0  0  0  0  0  0
  -26.4518  -31.6578   25.0711 C   0  0  0  0  0  0
  -25.3753  -31.3742   26.1446 C   0  0  0  0  0  0
  -27.0372  -30.2999   24.6183 C   0  0  0  0  0  0
  -27.6062  -32.4339   25.7477 C   0  0  0  0  0  0
  -27.5567  -37.1780   24.8469 C   0  0  0  0  0  0
  -21.4209  -29.3053   22.3643 N   0  0  0  0  0  0
  -26.4276  -37.3756   23.9423 N   0  0  0  0  0  0
  -24.6963  -31.0526   22.0922 N   0  0  0  0  0  0
  -23.4201  -28.8143   23.3005 O   0  0  0  0  0  0
  -28.3124  -26.3606   20.1202 O   0  0  0  0  0  0
  -26.5620  -34.8909   22.4642 O   0  0  0  0  0  0
  -23.5473  -32.1370   23.7258 O   0  0  0  0  0  0
  -27.7892  -23.0517   19.2322 C   0  0  0  0  0  0
  -28.4597  -23.6463   20.3389 C   0  0  0  0  0  0
  -28.1199  -21.7098   19.2178 C   0  0  0  0  0  0
  -27.6548  -20.6598   18.2694 C   0  0  0  0  0  0
  -29.2648  -25.3800   22.0716 C   0  0  0  0  0  0
  -29.2647  -18.6356   20.4661 C   0  0  0  0  0  0
  -29.8217  -20.1691   20.5716 C   0  0  0  0  0  0
  -30.3092  -17.3903   20.6247 C   0  0  0  0  0  0
  -28.2460  -25.1131   20.9544 C   0  0  1  0  0  0
  -29.1795  -22.6406   20.9357 N   0  0  0  0  0  0
  -28.9924  -21.4301   20.2638 N   0  0  0  0  0  0
  -29.8516  -15.9220   20.6553 N   0  0  0  0  0  0
  -31.4697  -12.5944   19.1947 H   0  0  0  0  0  0
  -30.3700  -11.5033   19.9902 H   0  0  0  0  0  0
  -29.8040  -11.7208   17.5400 H   0  0  0  0  0  0
  -29.6371  -13.4473   17.7127 H   0  0  0  0  0  0
  -27.9060  -11.2734   18.9285 H   0  0  0  0  0  0
  -27.3853  -12.4979   17.7999 H   0  0  0  0  0  0
  -27.6233  -14.2517   19.4475 H   0  0  0  0  0  0
  -28.7091  -12.2036   21.4441 H   0  0  0  0  0  0
  -28.4001  -13.8894   21.7750 H   0  0  0  0  0  0
  -25.2738   -9.5737   22.4749 H   0  0  0  0  0  0
  -24.0033   -7.4647   22.7450 H   0  0  0  0  0  0
  -21.0850   -8.8733   19.8924 H   0  0  0  0  0  0
  -22.3659  -10.9649   19.6170 H   0  0  0  0  0  0
  -21.1984   -7.6144   23.9728 H   0  0  0  0  0  0
  -21.1488   -6.0516   25.9089 H   0  0  0  0  0  0
  -22.0589   -2.7602   23.2870 H   0  0  0  0  0  0
  -22.4048  -11.9796   22.4781 H   0  0  0  0  0  0
  -21.1064  -13.1170   22.2722 H   0  0  0  0  0  0
  -24.6507  -15.8457   20.5308 H   0  0  0  0  0  0
  -26.2666  -15.6313   20.0808 H   0  0  0  0  0  0
  -26.7192  -32.5411   23.1057 H   0  0  0  0  0  0
  -25.0122  -33.9708   25.0417 H   0  0  0  0  0  0
  -22.7236  -31.2967   21.3869 H   0  0  0  0  0  0
  -23.3758  -35.9609   23.3299 H   0  0  0  0  0  0
  -24.3580  -36.8903   22.2059 H   0  0  0  0  0  0
  -23.7246  -37.6471   23.6675 H   0  0  0  0  0  0
  -26.1084  -31.5215   20.5974 H   0  0  0  0  0  0
  -26.8501  -30.8231   22.0060 H   0  0  0  0  0  0
  -28.1301  -28.9342   21.1998 H   0  0  0  0  0  0
  -25.9906  -25.8735   19.0467 H   0  0  0  0  0  0
  -23.9759  -27.2792   19.0273 H   0  0  0  0  0  0
  -23.7744  -30.5721   19.3978 H   0  0  0  0  0  0
  -22.7668  -29.2349   19.8557 H   0  0  0  0  0  0
  -25.1293  -36.1886   25.0819 H   0  0  0  0  0  0
  -20.9995  -28.3267   24.1362 H   0  0  0  0  0  0
  -20.5660  -26.2319   23.3602 H   0  0  0  0  0  0
  -21.6648  -26.7410   22.1200 H   0  0  0  0  0  0
  -19.6928  -25.6274   21.1243 H   0  0  0  0  0  0
  -19.6690  -27.3169   20.6715 H   0  0  0  0  0  0
  -17.4202  -26.6656   21.4016 H   0  0  0  0  0  0
  -18.0336  -26.0041   22.8999 H   0  0  0  0  0  0
  -19.7969  -30.7256   24.2249 H   0  0  0  0  0  0
  -17.5060  -31.6274   24.5153 H   0  0  0  0  0  0
  -15.5380  -30.3006   23.7677 H   0  0  0  0  0  0
  -15.8660  -28.0830   22.7088 H   0  0  0  0  0  0
  -24.5919  -30.7083   25.7807 H   0  0  0  0  0  0
  -24.8966  -32.2922   26.4867 H   0  0  0  0  0  0
  -25.8088  -30.8941   27.0230 H   0  0  0  0  0  0
  -26.2944  -29.6720   24.1246 H   0  0  0  0  0  0
  -27.4114  -29.7287   25.4692 H   0  0  0  0  0  0
  -27.8794  -30.4293   23.9379 H   0  0  0  0  0  0
  -27.2651  -33.3650   26.2020 H   0  0  0  0  0  0
  -28.3875  -32.6884   25.0301 H   0  0  0  0  0  0
  -28.0720  -31.8495   26.5419 H   0  0  0  0  0  0
  -28.2580  -38.0079   24.7505 H   0  0  0  0  0  0
  -28.1056  -36.2605   24.6297 H   0  0  0  0  0  0
  -27.2291  -37.1438   25.8873 H   0  0  0  0  0  0
  -20.9392  -29.8792   21.6857 H   0  0  0  0  0  0
  -26.0151  -38.2821   24.1441 H   0  0  0  0  0  0
  -27.1116  -23.5499   18.5530 H   0  0  0  0  0  0
  -26.9816  -21.0800   17.5239 H   0  0  0  0  0  0
  -27.1043  -19.8798   18.7964 H   0  0  0  0  0  0
  -28.4949  -20.2032   17.7481 H   0  0  0  0  0  0
  -29.1636  -24.6582   22.8824 H   0  0  0  0  0  0
  -29.1313  -26.3735   22.4980 H   0  0  0  0  0  0
  -30.2823  -25.3089   21.6886 H   0  0  0  0  0  0
  -28.7897  -18.5044   19.4963 H   0  0  0  0  0  0
  -28.4638  -18.5194   21.1974 H   0  0  0  0  0  0
  -30.6902  -20.2347   19.9148 H   0  0  0  0  0  0
  -30.2250  -20.2967   21.5757 H   0  0  0  0  0  0
  -31.0331  -17.4749   19.8124 H   0  0  0  0  0  0
  -30.8856  -17.5544   21.5358 H   0  0  0  0  0  0
  -27.2613  -25.1048   21.4259 H   0  0  0  0  0  0
  -28.8703  -15.7695   20.8342 H   0  0  0  0  0  0
  1 25  1  0  0  0
  1 30  2  0  0  0
  1 82  1  0  0  0
  2  3  1  0  0  0
  2 25  1  0  0  0
  2 83  1  0  0  0
  2 84  1  0  0  0
  3  4  1  0  0  0
  3 85  1  0  0  0
  3 86  1  0  0  0
  4  5  1  0  0  0
  4 87  1  0  0  0
  4 88  1  0  0  0
  5  6  1  0  0  0
  5 26  1  0  0  0
  5 89  1  0  0  0
  6 25  1  0  0  0
  6 90  1  0  0  0
  6 91  1  0  0  0
  7  8  2  0  0  0
  7 26  1  0  0  0
  7 29  1  0  0  0
  8  9  1  0  0  0
  8 22  1  0  0  0
  9 10  1  0  0  0
  9 27  2  0  0  0
 10 11  2  0  0  0
 10 15  1  0  0  0
 11 12  1  0  0  0
 11 92  1  0  0  0
 12 13  2  0  0  0
 12 93  1  0  0  0
 13 14  1  0  0  0
 13 31  1  0  0  0
 14 15  2  0  0  0
 14 94  1  0  0  0
 15 95  1  0  0  0
 16 17  2  0  0  0
 16 21  1  0  0  0
 16 31  1  0  0  0
 17 18  1  0  0  0
 17 96  1  0  0  0
 18 19  2  0  0  0
 18 97  1  0  0  0
 19 20  1  0  0  0
 19 24  1  0  0  0
 20 21  2  0  0  0
 20 98  1  0  0  0
 21 23  1  0  0  0
 22 28  1  0  0  0
 22 32  2  0  0  0
 26 27  1  0  0  0
 28 99  1  0  0  0
 28100  1  0  0  0
 29101  1  0  0  0
 29102  1  0  0  0
 33 34  1  0  0  0
 33 66  1  0  0  0
 33 70  2  0  0  0
 34 36  1  0  0  0
 34 59  1  0  0  0
 34103  1  0  0  0
 35 44  2  0  0  0
 35 45  1  0  0  0
 35 68  1  0  0  0
 36 56  1  0  0  0
 36104  1  0  0  0
 37 39  1  0  0  0
 37 47  1  0  0  0
 37 66  1  0  0  0
 37105  1  0  0  0
 38 43  2  0  0  0
 38 46  1  0  0  0
 38 47  1  0  0  0
 39 64  1  0  0  0
 39 67  2  0  0  0
 40 52  1  0  0  0
 40 53  2  0  0  0
 40 58  1  0  0  0
 41106  1  0  0  0
 41107  1  0  0  0
 41108  1  0  0  0
 41 48  1  0  0  0
 42 43  1  0  0  0
 42 66  1  0  0  0
 42109  1  0  0  0
 42110  1  0  0  0
 43 44  1  0  0  0
 44111  1  0  0  0
 45 46  2  0  0  0
 45112  1  0  0  0
 46113  1  0  0  0
 47114  1  0  0  0
 47115  1  0  0  0
 48 56  1  0  0  0
 48 65  1  0  0  0
 48116  1  0  0  0
 49 50  1  0  0  0
 49 53  1  0  0  0
 49 64  1  0  0  0
 49117  1  0  0  0
 50 51  1  0  0  0
 50118  1  0  0  0
 50119  1  0  0  0
 51 52  1  0  0  0
 51120  1  0  0  0
 51121  1  0  0  0
 52122  1  0  0  0
 52123  1  0  0  0
 53 54  1  0  0  0
 54 55  2  0  0  0
 54124  1  0  0  0
 55 57  1  0  0  0
 55125  1  0  0  0
 56 69  2  0  0  0
 57 58  2  0  0  0
 57126  1  0  0  0
 58127  1  0  0  0
 59 60  1  0  0  0
 59 61  1  0  0  0
 59 62  1  0  0  0
 60128  1  0  0  0
 60129  1  0  0  0
 60130  1  0  0  0
 61131  1  0  0  0
 61132  1  0  0  0
 61133  1  0  0  0
 62134  1  0  0  0
 62135  1  0  0  0
 62136  1  0  0  0
 63 65  1  0  0  0
 63137  1  0  0  0
 63138  1  0  0  0
 63139  1  0  0  0
 64140  1  0  0  0
 65141  1  0  0  0
 68 79  1  0  0  0
 71 72  1  0  0  0
 71 73  2  0  0  0
 71142  1  0  0  0
 72 79  1  0  0  0
 72 80  2  0  0  0
 73 74  1  0  0  0
 73 81  1  0  0  0
 74143  1  0  0  0
 74144  1  0  0  0
 74145  1  0  0  0
 75146  1  0  0  0
 75147  1  0  0  0
 75148  1  0  0  0
 75 79  1  0  0  0
 76 77  1  0  0  0
 76 78  1  0  0  0
 76149  1  0  0  0
 76150  1  0  0  0
 77 81  1  0  0  0
 77151  1  0  0  0
 77152  1  0  0  0
 78 82  1  0  0  0
 78153  1  0  0  0
 78154  1  0  0  0
 79155  1  0  0  0
 80 81  1  0  0  0
 82156  1  0  0  0
M  ISO  4   1 100  68 101  79 101  82 100
M  END
> <chiral flag>
0

> <version>
0

> <s_m_source_file>
/data/baiqing/PycharmProjects/Reinvent-master-3.2/result/LINK_invent/BTK/process_docking_weight1_custom_sum_contain_oxygen_bond_distance_aromatic_linkinvent_7_9_3/rearranged_h_0037.sdf

> <i_m_source_file_index>
83

> <r_mmod_Potential_Energy-OPLS-2005>
158.691772460938

> <r_mmod_Stretch_Energy-OPLS-2005>
132.779022216797

> <r_mmod_Bend_Energy-OPLS-2005>
177.634094238281

> <r_mmod_Torsional_Energy-OPLS-2005>
251.759185791016

> <r_mmod_Improper_Torsional_Energy-OPLS-2005>
6.14219093322754

> <r_mmod_Van_der_Waal_Energy-OPLS-2005>
109.007888793945

> <r_mmod_Electrostatic_Energy-OPLS-2005>
-390.025695800781

> <r_mmod_Solvation_Energy-OPLS-2005>
-220.793670654297

> <b_mmod_Minimization_Converged-OPLS-2005>
0

> <r_mmod_RMS_Derivative-OPLS-2005>
3.06865692138672

$$$$
83
                    3D
 Structure written by MMmdl.
176184  0  0  1  0            999 V2000
  -30.7997  -14.2770   20.7729 C   0  0  0  0  0  0
  -30.4164  -12.2699   19.3758 C   0  0  0  0  0  0
  -29.4878  -12.5561   18.1835 C   0  0  0  0  0  0
  -28.0098  -12.4095   18.5915 C   0  0  0  0  0  0
  -27.6728  -13.1953   19.8836 C   0  0  2  0  0  0
  -28.7063  -12.8953   20.9917 C   0  0  0  0  0  0
  -25.2575  -13.8050   20.5521 C   0  0  0  0  0  0
  -24.1831  -13.0359   20.9141 C   0  0  0  0  0  0
  -24.6422  -11.6851   20.8739 C   0  0  0  0  0  0
  -23.9077  -10.4253   21.0433 C   0  0  0  0  0  0
  -24.3624   -9.4171   21.9210 C   0  0  0  0  0  0
  -23.6297   -8.2217   22.0770 C   0  0  0  0  0  0
  -22.4275   -8.0273   21.3569 C   0  0  0  0  0  0
  -21.9912   -9.0251   20.4665 C   0  0  0  0  0  0
  -22.7256  -10.2117   20.3073 C   0  0  0  0  0  0
  -21.6844   -6.0724   22.5302 C   0  0  0  0  0  0
  -21.4020   -6.5626   23.8241 C   0  0  0  0  0  0
  -21.3667   -5.6769   24.9195 C   0  0  0  0  0  0
  -21.6043   -4.3040   24.7246 C   0  0  0  0  0  0
  -21.8814   -3.8132   23.4374 C   0  0  0  0  0  0
  -21.9198   -4.6951   22.3420 C   0  0  0  0  0  0
  -22.7887  -13.5214   21.1827 C   0  0  0  0  0  0
  -22.1660   -4.2135   21.0999 F   0  0  0  0  0  0
  -21.5638   -3.4522   25.7755 F   0  0  0  0  0  0
  -30.0617  -13.1745   20.4770 N   0  0  0  0  0  0
  -26.3062  -12.9246   20.3332 N   0  0  0  0  0  0
  -25.9342  -11.6423   20.5746 N   0  0  0  0  0  0
  -22.0509  -12.8237   22.0412 N   0  0  0  0  0  0
  -25.4153  -15.1687   20.3680 N   0  0  0  0  0  0
  -31.7104  -14.7045   20.0544 O   0  0  0  0  0  0
  -21.6644   -6.8865   21.4251 O   0  0  0  0  0  0
  -22.3587  -14.5540   20.6698 O   0  0  0  0  0  0
  -24.6065  -31.8736   23.2121 C   0  0  0  0  0  0
  -25.8977  -32.4853   23.8431 C   0  0  1  0  0  0
  -27.2402  -27.4893   20.0983 C   0  0  0  0  0  0
  -25.5864  -33.8651   24.2377 N   0  0  0  0  0  0
  -23.3914  -30.4961   21.5496 C   0  0  2  0  0  0
  -24.8438  -28.9654   20.1141 C   0  0  0  0  0  0
  -22.7380  -29.4674   22.4989 C   0  0  0  0  0  0
  -18.0285  -28.1387   22.8516 C   0  0  0  0  0  0
  -24.1481  -36.7337   23.2623 C   0  0  0  0  0  0
  -25.9104  -30.8571   21.3514 C   0  0  0  0  0  0
  -25.9934  -29.4860   20.7239 C   0  0  0  0  0  0
  -27.1945  -28.7486   20.7300 C   0  0  0  0  0  0
  -26.0871  -26.9769   19.4741 C   0  0  0  0  0  0
  -24.8822  -27.7066   19.4865 C   0  0  0  0  0  0
  -23.5978  -29.8226   20.1642 C   0  0  0  0  0  0
  -25.4102  -36.3137   24.0324 C   0  0  1  0  0  0
  -20.5869  -28.3670   23.1351 C   0  0  2  0  0  0
  -20.6767  -26.9417   22.5422 C   0  0  0  0  0  0
  -19.5736  -26.6412   21.5222 C   0  0  0  0  0  0
  -18.1917  -26.7939   22.1631 C   0  0  0  0  0  0
  -19.1527  -28.8841   23.2936 C   0  0  0  0  0  0
  -18.9450  -30.1449   23.8938 C   0  0  0  0  0  0
  -17.6446  -30.6578   24.0602 C   0  0  0  0  0  0
  -25.9016  -34.9493   23.5154 C   0  0  0  0  0  0
  -16.5349  -29.9093   23.6312 C   0  0  0  0  0  0
  -16.7268  -28.6518   23.0320 C   0  0  0  0  0  0
  -26.4423  -31.6595   25.0718 C   0  0  0  0  0  0
  -25.3726  -31.3706   26.1499 C   0  0  0  0  0  0
  -27.0226  -30.3060   24.5987 C   0  0  0  0  0  0
  -27.6007  -32.4295   25.7480 C   0  0  0  0  0  0
  -27.5581  -37.1835   24.8461 C   0  0  0  0  0  0
  -21.4104  -29.3047   22.3741 N   0  0  0  0  0  0
  -26.4299  -37.3816   23.9402 N   0  0  0  0  0  0
  -24.6537  -31.0911   22.0977 N   0  0  0  0  0  0
  -23.4187  -28.8174   23.2963 O   0  0  0  0  0  0
  -28.3984  -26.7680   20.0122 O   0  0  0  0  0  0
  -26.5585  -34.8928   22.4719 O   0  0  0  0  0  0
  -23.5267  -32.1419   23.7578 O   0  0  0  0  0  0
  -29.6878  -23.8382   18.8029 C   0  0  0  0  0  0
  -28.1717  -23.3419   20.6160 C   0  0  0  0  0  0
  -29.2508  -24.0923   20.1167 C   0  0  0  0  0  0
  -29.0240  -22.8578   18.0452 C   0  0  0  0  0  0
  -27.5615  -22.3935   19.7826 C   0  0  0  0  0  0
  -30.4418  -21.3019   16.6563 C   0  0  0  0  0  0
  -31.1073  -14.2258   23.1838 C   0  0  0  0  0  0
  -29.8985  -25.1724   20.9633 C   0  0  0  0  0  0
  -29.5023  -22.5148   16.6470 C   0  0  0  0  0  0
  -26.4502  -21.5256   20.3339 C   0  0  0  0  0  0
  -27.0149  -20.1489   20.6861 C   0  0  0  0  0  0
  -26.1212  -19.3233   21.6215 C   0  0  0  0  0  0
  -26.6181  -17.8788   21.7441 C   0  0  0  0  0  0
  -28.0519  -17.7242   22.2823 C   0  0  0  0  0  0
  -28.5815  -16.3067   22.0509 C   0  0  0  0  0  0
  -30.1108  -16.2147   22.1352 C   0  0  0  0  0  0
  -28.9266  -26.3242   21.2529 C   0  0  0  0  0  0
  -27.9811  -22.1423   18.5226 N   0  0  0  0  0  0
  -30.5283  -14.8195   21.9796 N   0  0  0  0  0  0
  -31.4605  -12.3723   19.0746 H   0  0  0  0  0  0
  -30.3012  -11.2332   19.7003 H   0  0  0  0  0  0
  -29.7146  -11.8890   17.3510 H   0  0  0  0  0  0
  -29.6728  -13.5687   17.8203 H   0  0  0  0  0  0
  -27.7989  -11.3482   18.7331 H   0  0  0  0  0  0
  -27.3632  -12.7407   17.7774 H   0  0  0  0  0  0
  -27.7431  -14.2532   19.6374 H   0  0  0  0  0  0
  -28.6465  -11.8450   21.2847 H   0  0  0  0  0  0
  -28.4588  -13.4542   21.8931 H   0  0  0  0  0  0
  -25.2762   -9.5633   22.4773 H   0  0  0  0  0  0
  -23.9996   -7.4598   22.7476 H   0  0  0  0  0  0
  -21.0838   -8.8806   19.8975 H   0  0  0  0  0  0
  -22.3761  -10.9671   19.6170 H   0  0  0  0  0  0
  -21.2029   -7.6134   23.9740 H   0  0  0  0  0  0
  -21.1479   -6.0505   25.9092 H   0  0  0  0  0  0
  -22.0590   -2.7592   23.2887 H   0  0  0  0  0  0
  -22.4096  -11.9894   22.4797 H   0  0  0  0  0  0
  -21.1167  -13.1351   22.2648 H   0  0  0  0  0  0
  -24.6367  -15.8124   20.4471 H   0  0  0  0  0  0
  -26.2585  -15.6063   20.0218 H   0  0  0  0  0  0
  -26.7067  -32.5642   23.1228 H   0  0  0  0  0  0
  -25.0106  -33.9845   25.0581 H   0  0  0  0  0  0
  -22.6792  -31.3129   21.4171 H   0  0  0  0  0  0
  -23.3710  -35.9705   23.3304 H   0  0  0  0  0  0
  -24.3580  -36.8913   22.2033 H   0  0  0  0  0  0
  -23.7252  -37.6554   23.6630 H   0  0  0  0  0  0
  -25.9999  -31.6059   20.5619 H   0  0  0  0  0  0
  -26.8058  -30.9417   21.9525 H   0  0  0  0  0  0
  -28.0840  -29.1574   21.1895 H   0  0  0  0  0  0
  -26.1366  -26.0233   18.9708 H   0  0  0  0  0  0
  -24.0049  -27.3080   18.9954 H   0  0  0  0  0  0
  -23.6929  -30.5928   19.3989 H   0  0  0  0  0  0
  -22.7257  -29.2305   19.8783 H   0  0  0  0  0  0
  -25.1280  -36.2003   25.0813 H   0  0  0  0  0  0
  -21.0019  -28.3240   24.1453 H   0  0  0  0  0  0
  -20.5705  -26.2279   23.3599 H   0  0  0  0  0  0
  -21.6635  -26.7489   22.1200 H   0  0  0  0  0  0
  -19.6882  -25.6340   21.1202 H   0  0  0  0  0  0
  -19.6632  -27.3273   20.6794 H   0  0  0  0  0  0
  -17.4197  -26.6735   21.4010 H   0  0  0  0  0  0
  -18.0287  -26.0071   22.9017 H   0  0  0  0  0  0
  -19.7923  -30.7278   24.2289 H   0  0  0  0  0  0
  -17.4993  -31.6235   24.5248 H   0  0  0  0  0  0
  -15.5342  -30.3003   23.7579 H   0  0  0  0  0  0
  -15.8689  -28.0848   22.6967 H   0  0  0  0  0  0
  -24.5910  -30.6999   25.7891 H   0  0  0  0  0  0
  -24.8895  -32.2878   26.4915 H   0  0  0  0  0  0
  -25.8116  -30.8950   27.0286 H   0  0  0  0  0  0
  -26.2746  -29.6876   24.0996 H   0  0  0  0  0  0
  -27.4002  -29.7215   25.4388 H   0  0  0  0  0  0
  -27.8580  -30.4411   23.9099 H   0  0  0  0  0  0
  -27.2618  -33.3588   26.2087 H   0  0  0  0  0  0
  -28.3808  -32.6854   25.0293 H   0  0  0  0  0  0
  -28.0682  -31.8400   26.5379 H   0  0  0  0  0  0
  -28.2623  -38.0111   24.7521 H   0  0  0  0  0  0
  -28.1053  -36.2656   24.6278 H   0  0  0  0  0  0
  -27.2327  -37.1472   25.8871 H   0  0  0  0  0  0
  -20.9214  -29.8800   21.7020 H   0  0  0  0  0  0
  -26.0168  -38.2892   24.1385 H   0  0  0  0  0  0
  -30.5185  -24.3877   18.3814 H   0  0  0  0  0  0
  -27.8068  -23.4903   21.6234 H   0  0  0  0  0  0
  -30.7957  -21.0686   15.6518 H   0  0  0  0  0  0
  -29.9349  -20.4181   17.0430 H   0  0  0  0  0  0
  -31.3106  -21.4911   17.2884 H   0  0  0  0  0  0
  -32.1418  -14.5491   23.3069 H   0  0  0  0  0  0
  -31.0928  -13.1363   23.1491 H   0  0  0  0  0  0
  -30.5398  -14.5198   24.0674 H   0  0  0  0  0  0
  -30.7749  -25.5617   20.4457 H   0  0  0  0  0  0
  -30.2503  -24.7360   21.8983 H   0  0  0  0  0  0
  -30.0331  -23.3727   16.2336 H   0  0  0  0  0  0
  -28.6437  -22.3393   15.9931 H   0  0  0  0  0  0
  -26.0438  -22.0035   21.2280 H   0  0  0  0  0  0
  -25.6259  -21.4442   19.6251 H   0  0  0  0  0  0
  -27.9880  -20.2971   21.1581 H   0  0  0  0  0  0
  -27.2172  -19.6055   19.7629 H   0  0  0  0  0  0
  -25.1018  -19.3028   21.2302 H   0  0  0  0  0  0
  -26.0652  -19.7959   22.6034 H   0  0  0  0  0  0
  -25.9244  -17.2930   22.3501 H   0  0  0  0  0  0
  -26.5813  -17.4515   20.7445 H   0  0  0  0  0  0
  -28.0967  -17.9859   23.3409 H   0  0  0  0  0  0
  -28.7284  -18.4041   21.7684 H   0  0  0  0  0  0
  -28.2844  -15.9767   21.0571 H   0  0  0  0  0  0
  -28.1095  -15.6204   22.7538 H   0  0  0  0  0  0
  -30.4567  -16.6222   23.0880 H   0  0  0  0  0  0
  -30.5620  -16.8386   21.3605 H   0  0  0  0  0  0
  -29.4291  -27.1348   21.7821 H   0  0  0  0  0  0
  -28.1204  -25.9598   21.8912 H   0  0  0  0  0  0
  1 25  1  0  0  0
  1 30  2  0  0  0
  1 89  1  0  0  0
  2  3  1  0  0  0
  2 25  1  0  0  0
  2 90  1  0  0  0
  2 91  1  0  0  0
  3  4  1  0  0  0
  3 92  1  0  0  0
  3 93  1  0  0  0
  4  5  1  0  0  0
  4 94  1  0  0  0
  4 95  1  0  0  0
  5  6  1  0  0  0
  5 26  1  0  0  0
  5 96  1  0  0  0
  6 25  1  0  0  0
  6 97  1  0  0  0
  6 98  1  0  0  0
  7  8  2  0  0  0
  7 26  1  0  0  0
  7 29  1  0  0  0
  8  9  1  0  0  0
  8 22  1  0  0  0
  9 10  1  0  0  0
  9 27  2  0  0  0
 10 11  2  0  0  0
 10 15  1  0  0  0
 11 12  1  0  0  0
 11 99  1  0  0  0
 12 13  2  0  0  0
 12100  1  0  0  0
 13 14  1  0  0  0
 13 31  1  0  0  0
 14 15  2  0  0  0
 14101  1  0  0  0
 15102  1  0  0  0
 16 17  2  0  0  0
 16 21  1  0  0  0
 16 31  1  0  0  0
 17 18  1  0  0  0
 17103  1  0  0  0
 18 19  2  0  0  0
 18104  1  0  0  0
 19 20  1  0  0  0
 19 24  1  0  0  0
 20 21  2  0  0  0
 20105  1  0  0  0
 21 23  1  0  0  0
 22 28  1  0  0  0
 22 32  2  0  0  0
 26 27  1  0  0  0
 28106  1  0  0  0
 28107  1  0  0  0
 29108  1  0  0  0
 29109  1  0  0  0
 33 34  1  0  0  0
 33 66  1  0  0  0
 33 70  2  0  0  0
 34 36  1  0  0  0
 34 59  1  0  0  0
 34110  1  0  0  0
 35 44  2  0  0  0
 35 45  1  0  0  0
 35 68  1  0  0  0
 36 56  1  0  0  0
 36111  1  0  0  0
 37 39  1  0  0  0
 37 47  1  0  0  0
 37 66  1  0  0  0
 37112  1  0  0  0
 38 43  2  0  0  0
 38 46  1  0  0  0
 38 47  1  0  0  0
 39 64  1  0  0  0
 39 67  2  0  0  0
 40 52  1  0  0  0
 40 53  2  0  0  0
 40 58  1  0  0  0
 41113  1  0  0  0
 41114  1  0  0  0
 41115  1  0  0  0
 41 48  1  0  0  0
 42 43  1  0  0  0
 42 66  1  0  0  0
 42116  1  0  0  0
 42117  1  0  0  0
 43 44  1  0  0  0
 44118  1  0  0  0
 45 46  2  0  0  0
 45119  1  0  0  0
 46120  1  0  0  0
 47121  1  0  0  0
 47122  1  0  0  0
 48 56  1  0  0  0
 48 65  1  0  0  0
 48123  1  0  0  0
 49 50  1  0  0  0
 49 53  1  0  0  0
 49 64  1  0  0  0
 49124  1  0  0  0
 50 51  1  0  0  0
 50125  1  0  0  0
 50126  1  0  0  0
 51 52  1  0  0  0
 51127  1  0  0  0
 51128  1  0  0  0
 52129  1  0  0  0
 52130  1  0  0  0
 53 54  1  0  0  0
 54 55  2  0  0  0
 54131  1  0  0  0
 55 57  1  0  0  0
 55132  1  0  0  0
 56 69  2  0  0  0
 57 58  2  0  0  0
 57133  1  0  0  0
 58134  1  0  0  0
 59 60  1  0  0  0
 59 61  1  0  0  0
 59 62  1  0  0  0
 60135  1  0  0  0
 60136  1  0  0  0
 60137  1  0  0  0
 61138  1  0  0  0
 61139  1  0  0  0
 61140  1  0  0  0
 62141  1  0  0  0
 62142  1  0  0  0
 62143  1  0  0  0
 63 65  1  0  0  0
 63144  1  0  0  0
 63145  1  0  0  0
 63146  1  0  0  0
 64147  1  0  0  0
 65148  1  0  0  0
 68 87  1  0  0  0
 71 73  2  0  0  0
 71 74  1  0  0  0
 71149  1  0  0  0
 72 73  1  0  0  0
 72 75  2  0  0  0
 72150  1  0  0  0
 73 78  1  0  0  0
 74 79  1  0  0  0
 74 88  2  0  0  0
 75 80  1  0  0  0
 75 88  1  0  0  0
 76 79  1  0  0  0
 76151  1  0  0  0
 76152  1  0  0  0
 76153  1  0  0  0
 77 89  1  0  0  0
 77154  1  0  0  0
 77155  1  0  0  0
 77156  1  0  0  0
 78 87  1  0  0  0
 78157  1  0  0  0
 78158  1  0  0  0
 79159  1  0  0  0
 79160  1  0  0  0
 80 81  1  0  0  0
 80161  1  0  0  0
 80162  1  0  0  0
 81 82  1  0  0  0
 81163  1  0  0  0
 81164  1  0  0  0
 82 83  1  0  0  0
 82165  1  0  0  0
 82166  1  0  0  0
 83 84  1  0  0  0
 83167  1  0  0  0
 83168  1  0  0  0
 84 85  1  0  0  0
 84169  1  0  0  0
 84170  1  0  0  0
 85 86  1  0  0  0
 85171  1  0  0  0
 85172  1  0  0  0
 86 89  1  0  0  0
 86173  1  0  0  0
 86174  1  0  0  0
 87175  1  0  0  0
 87176  1  0  0  0
M  ISO  4   1 100  68 101  87 101  89 100
M  END
> <chiral flag>
0

> <version>
0

> <s_m_source_file>
/data/baiqing/PycharmProjects/Reinvent-master-3.2/result/LINK_invent/BTK/process_docking_weight1_custom_sum_contain_oxygen_bond_distance_aromatic_linkinvent_7_9_3/rearranged_h_0037.sdf

> <i_m_source_file_index>
84

> <r_mmod_Potential_Energy-OPLS-2005>
-43.6602363586426

> <r_mmod_Stretch_Energy-OPLS-2005>
30.5889720916748

> <r_mmod_Bend_Energy-OPLS-2005>
86.1631469726562

> <r_mmod_Torsional_Energy-OPLS-2005>
290.991912841797

> <r_mmod_Improper_Torsional_Energy-OPLS-2005>
4.17389726638794

> <r_mmod_Van_der_Waal_Energy-OPLS-2005>
146.098434448242

> <r_mmod_Electrostatic_Energy-OPLS-2005>
-419.131530761719

> <r_mmod_Solvation_Energy-OPLS-2005>
-191.652633666992

> <b_mmod_Minimization_Converged-OPLS-2005>
0

> <r_mmod_RMS_Derivative-OPLS-2005>
4.4430193901062

$$$$
84
                    3D
 Structure written by MMmdl.
167175  0  0  1  0            999 V2000
  -30.6466  -14.6996   20.4600 C   0  0  0  0  0  0
  -30.4334  -12.4286   19.4647 C   0  0  0  0  0  0
  -29.5063  -12.4926   18.2323 C   0  0  0  0  0  0
  -28.0299  -12.3354   18.6500 C   0  0  0  0  0  0
  -27.6454  -13.2341   19.8557 C   0  0  2  0  0  0
  -28.6955  -13.1589   20.9878 C   0  0  0  0  0  0
  -25.2526  -13.8221   20.5740 C   0  0  0  0  0  0
  -24.1805  -13.0443   20.9203 C   0  0  0  0  0  0
  -24.6412  -11.6939   20.8748 C   0  0  0  0  0  0
  -23.9073  -10.4306   21.0413 C   0  0  0  0  0  0
  -24.3625   -9.4216   21.9200 C   0  0  0  0  0  0
  -23.6280   -8.2252   22.0769 C   0  0  0  0  0  0
  -22.4261   -8.0291   21.3555 C   0  0  0  0  0  0
  -21.9886   -9.0282   20.4686 C   0  0  0  0  0  0
  -22.7240  -10.2151   20.3075 C   0  0  0  0  0  0
  -21.6869   -6.0736   22.5263 C   0  0  0  0  0  0
  -21.4032   -6.5655   23.8202 C   0  0  0  0  0  0
  -21.3640   -5.6800   24.9161 C   0  0  0  0  0  0
  -21.6036   -4.3060   24.7197 C   0  0  0  0  0  0
  -21.8824   -3.8156   23.4319 C   0  0  0  0  0  0
  -21.9203   -4.6969   22.3382 C   0  0  0  0  0  0
  -22.7817  -13.5226   21.1834 C   0  0  0  0  0  0
  -22.1670   -4.2160   21.0953 F   0  0  0  0  0  0
  -21.5593   -3.4534   25.7705 F   0  0  0  0  0  0
  -29.9981  -13.4904   20.3985 N   0  0  0  0  0  0
  -26.2956  -12.9435   20.3329 N   0  0  0  0  0  0
  -25.9341  -11.6567   20.5782 N   0  0  0  0  0  0
  -22.0514  -12.8270   22.0470 N   0  0  0  0  0  0
  -25.4208  -15.1934   20.4227 N   0  0  0  0  0  0
  -31.8354  -14.7848   20.1466 O   0  0  0  0  0  0
  -21.6622   -6.8875   21.4231 O   0  0  0  0  0  0
  -22.3466  -14.5478   20.6602 O   0  0  0  0  0  0
  -24.6297  -31.8596   23.2046 C   0  0  0  0  0  0
  -25.9140  -32.4769   23.8376 C   0  0  1  0  0  0
  -27.2010  -27.2801   20.1186 C   0  0  0  0  0  0
  -25.5939  -33.8566   24.2280 N   0  0  0  0  0  0
  -23.4243  -30.4840   21.5476 C   0  0  2  0  0  0
  -24.8705  -28.9442   20.1011 C   0  0  0  0  0  0
  -22.7499  -29.4610   22.4928 C   0  0  0  0  0  0
  -18.0301  -28.1383   22.8491 C   0  0  0  0  0  0
  -24.1493  -36.7278   23.2636 C   0  0  0  0  0  0
  -25.9698  -30.7708   21.3900 C   0  0  0  0  0  0
  -26.0389  -29.3945   20.7337 C   0  0  0  0  0  0
  -27.2067  -28.5671   20.7489 C   0  0  0  0  0  0
  -26.0552  -26.9505   19.3801 C   0  0  0  0  0  0
  -24.8831  -27.7266   19.4078 C   0  0  0  0  0  0
  -23.6403  -29.8286   20.1592 C   0  0  0  0  0  0
  -25.4116  -36.3063   24.0327 C   0  0  1  0  0  0
  -20.5912  -28.3685   23.1263 C   0  0  2  0  0  0
  -20.6790  -26.9403   22.5393 C   0  0  0  0  0  0
  -19.5753  -26.6380   21.5202 C   0  0  0  0  0  0
  -18.1938  -26.7926   22.1630 C   0  0  0  0  0  0
  -19.1561  -28.8850   23.2873 C   0  0  0  0  0  0
  -18.9476  -30.1457   23.8889 C   0  0  0  0  0  0
  -17.6469  -30.6582   24.0557 C   0  0  0  0  0  0
  -25.9061  -34.9437   23.5093 C   0  0  0  0  0  0
  -16.5360  -29.9079   23.6327 C   0  0  0  0  0  0
  -16.7286  -28.6496   23.0353 C   0  0  0  0  0  0
  -26.4500  -31.6579   25.0760 C   0  0  0  0  0  0
  -25.3719  -31.3724   26.1479 C   0  0  0  0  0  0
  -27.0338  -30.2987   24.6245 C   0  0  0  0  0  0
  -27.6054  -32.4319   25.7531 C   0  0  0  0  0  0
  -27.5570  -37.1792   24.8473 C   0  0  0  0  0  0
  -21.4215  -29.3031   22.3657 N   0  0  0  0  0  0
  -26.4289  -37.3760   23.9410 N   0  0  0  0  0  0
  -24.6927  -31.0579   22.1025 N   0  0  0  0  0  0
  -23.4202  -28.8169   23.3032 O   0  0  0  0  0  0
  -28.2502  -26.3426   20.1299 O   0  0  0  0  0  0
  -26.5645  -34.8908   22.4666 O   0  0  0  0  0  0
  -23.5451  -32.1422   23.7338 O   0  0  0  0  0  0
  -28.9912  -22.5805   20.5515 C   0  0  0  0  0  0
  -27.9789  -23.5974   20.3283 C   0  0  0  0  0  0
  -26.7904  -23.0869   19.7095 C   0  0  0  0  0  0
  -28.8404  -21.2169   20.0945 C   0  0  0  0  0  0
  -26.8295  -21.8067   19.0853 C   0  0  0  0  0  0
  -26.2439  -20.9775   16.7401 C   0  0  0  0  0  0
  -22.9297  -23.4770   19.9491 C   0  0  0  0  0  0
  -25.4494  -23.8240   19.7739 C   0  0  0  0  0  0
  -28.0919  -25.0821   20.9363 C   0  0  0  0  0  0
  -29.8587  -20.0206   20.3005 C   0  0  0  0  0  0
  -25.7344  -21.2782   18.1589 C   0  0  0  0  0  0
  -24.3081  -23.0469   20.4706 C   0  0  0  0  0  0
  -29.3233  -18.5075   20.5016 C   0  0  0  0  0  0
  -30.3793  -17.2869   20.5194 C   0  0  0  0  0  0
  -27.8136  -20.9104   19.2905 N   0  0  0  0  0  0
  -29.9004  -15.8466   20.6531 N   0  0  0  0  0  0
  -31.4716  -12.5501   19.1508 H   0  0  0  0  0  0
  -30.3788  -11.4511   19.9466 H   0  0  0  0  0  0
  -29.7751  -11.7167   17.5157 H   0  0  0  0  0  0
  -29.6468  -13.4413   17.7145 H   0  0  0  0  0  0
  -27.8746  -11.2871   18.9079 H   0  0  0  0  0  0
  -27.3731  -12.5410   17.8048 H   0  0  0  0  0  0
  -27.6430  -14.2579   19.4794 H   0  0  0  0  0  0
  -28.7207  -12.1639   21.4347 H   0  0  0  0  0  0
  -28.4489  -13.8514   21.7952 H   0  0  0  0  0  0
  -25.2803   -9.5672   22.4730 H   0  0  0  0  0  0
  -23.9982   -7.4662   22.7512 H   0  0  0  0  0  0
  -21.0804   -8.8828   19.9007 H   0  0  0  0  0  0
  -22.3699  -10.9697   19.6188 H   0  0  0  0  0  0
  -21.2043   -7.6176   23.9703 H   0  0  0  0  0  0
  -21.1450   -6.0533   25.9066 H   0  0  0  0  0  0
  -22.0615   -2.7609   23.2820 H   0  0  0  0  0  0
  -22.4199  -11.9988   22.4894 H   0  0  0  0  0  0
  -21.1131  -13.1273   22.2687 H   0  0  0  0  0  0
  -24.6552  -15.8450   20.5540 H   0  0  0  0  0  0
  -26.2653  -15.6349   20.0834 H   0  0  0  0  0  0
  -26.7203  -32.5432   23.1119 H   0  0  0  0  0  0
  -25.0061  -33.9700   25.0402 H   0  0  0  0  0  0
  -22.7183  -31.3055   21.4082 H   0  0  0  0  0  0
  -23.3747  -35.9615   23.3308 H   0  0  0  0  0  0
  -24.3574  -36.8896   22.2045 H   0  0  0  0  0  0
  -23.7261  -37.6484   23.6662 H   0  0  0  0  0  0
  -26.1105  -31.5279   20.6175 H   0  0  0  0  0  0
  -26.8453  -30.8166   22.0264 H   0  0  0  0  0  0
  -28.0951  -28.8977   21.2674 H   0  0  0  0  0  0
  -26.0789  -26.0729   18.7595 H   0  0  0  0  0  0
  -24.0148  -27.4030   18.8519 H   0  0  0  0  0  0
  -23.7515  -30.6088   19.4048 H   0  0  0  0  0  0
  -22.7607  -29.2578   19.8621 H   0  0  0  0  0  0
  -25.1291  -36.1890   25.0817 H   0  0  0  0  0  0
  -21.0000  -28.3247   24.1384 H   0  0  0  0  0  0
  -20.5680  -26.2290   23.3597 H   0  0  0  0  0  0
  -21.6655  -26.7416   22.1183 H   0  0  0  0  0  0
  -19.6902  -25.6284   21.1241 H   0  0  0  0  0  0
  -19.6685  -27.3190   20.6732 H   0  0  0  0  0  0
  -17.4205  -26.6684   21.4038 H   0  0  0  0  0  0
  -18.0328  -26.0066   22.9026 H   0  0  0  0  0  0
  -19.7949  -30.7281   24.2255 H   0  0  0  0  0  0
  -17.5020  -31.6263   24.5164 H   0  0  0  0  0  0
  -15.5360  -30.2971   23.7651 H   0  0  0  0  0  0
  -15.8698  -28.0807   22.7068 H   0  0  0  0  0  0
  -24.5916  -30.7046   25.7810 H   0  0  0  0  0  0
  -24.8902  -32.2898   26.4870 H   0  0  0  0  0  0
  -25.8047  -30.8936   27.0273 H   0  0  0  0  0  0
  -26.2932  -29.6747   24.1243 H   0  0  0  0  0  0
  -27.3968  -29.7228   25.4761 H   0  0  0  0  0  0
  -27.8827  -30.4236   23.9528 H   0  0  0  0  0  0
  -27.2658  -33.3625   26.2082 H   0  0  0  0  0  0
  -28.3882  -32.6868   25.0378 H   0  0  0  0  0  0
  -28.0700  -31.8474   26.5477 H   0  0  0  0  0  0
  -28.2599  -38.0081   24.7497 H   0  0  0  0  0  0
  -28.1065  -36.2608   24.6328 H   0  0  0  0  0  0
  -27.2296  -37.1471   25.8883 H   0  0  0  0  0  0
  -20.9392  -29.8738   21.6858 H   0  0  0  0  0  0
  -26.0162  -38.2830   24.1403 H   0  0  0  0  0  0
  -29.8753  -22.8372   21.1192 H   0  0  0  0  0  0
  -25.4232  -20.6681   16.0905 H   0  0  0  0  0  0
  -26.9866  -20.1788   16.7380 H   0  0  0  0  0  0
  -26.7070  -21.8615   16.3006 H   0  0  0  0  0  0
  -22.1328  -22.9147   20.4362 H   0  0  0  0  0  0
  -22.8368  -23.2995   18.8762 H   0  0  0  0  0  0
  -22.7444  -24.5370   20.1183 H   0  0  0  0  0  0
  -25.1602  -24.1118   18.7625 H   0  0  0  0  0  0
  -25.5358  -24.7356   20.3531 H   0  0  0  0  0  0
  -28.9833  -25.0644   21.5608 H   0  0  0  0  0  0
  -27.2808  -25.2114   21.6545 H   0  0  0  0  0  0
  -30.5190  -20.0350   19.4325 H   0  0  0  0  0  0
  -30.4948  -20.2777   21.1480 H   0  0  0  0  0  0
  -24.9118  -21.9806   18.0578 H   0  0  0  0  0  0
  -25.3101  -20.3789   18.6080 H   0  0  0  0  0  0
  -24.3966  -21.9714   20.3256 H   0  0  0  0  0  0
  -24.3646  -23.1900   21.5527 H   0  0  0  0  0  0
  -28.7373  -18.4841   21.4210 H   0  0  0  0  0  0
  -28.6195  -18.2986   19.6946 H   0  0  0  0  0  0
  -31.1060  -17.4640   21.3143 H   0  0  0  0  0  0
  -30.9551  -17.3438   19.5939 H   0  0  0  0  0  0
  -28.9233  -15.6993   20.8584 H   0  0  0  0  0  0
  1 25  1  0  0  0
  1 30  2  0  0  0
  1 86  1  0  0  0
  2  3  1  0  0  0
  2 25  1  0  0  0
  2 87  1  0  0  0
  2 88  1  0  0  0
  3  4  1  0  0  0
  3 89  1  0  0  0
  3 90  1  0  0  0
  4  5  1  0  0  0
  4 91  1  0  0  0
  4 92  1  0  0  0
  5  6  1  0  0  0
  5 26  1  0  0  0
  5 93  1  0  0  0
  6 25  1  0  0  0
  6 94  1  0  0  0
  6 95  1  0  0  0
  7  8  2  0  0  0
  7 26  1  0  0  0
  7 29  1  0  0  0
  8  9  1  0  0  0
  8 22  1  0  0  0
  9 10  1  0  0  0
  9 27  2  0  0  0
 10 11  2  0  0  0
 10 15  1  0  0  0
 11 12  1  0  0  0
 11 96  1  0  0  0
 12 13  2  0  0  0
 12 97  1  0  0  0
 13 14  1  0  0  0
 13 31  1  0  0  0
 14 15  2  0  0  0
 14 98  1  0  0  0
 15 99  1  0  0  0
 16 17  2  0  0  0
 16 21  1  0  0  0
 16 31  1  0  0  0
 17 18  1  0  0  0
 17100  1  0  0  0
 18 19  2  0  0  0
 18101  1  0  0  0
 19 20  1  0  0  0
 19 24  1  0  0  0
 20 21  2  0  0  0
 20102  1  0  0  0
 21 23  1  0  0  0
 22 28  1  0  0  0
 22 32  2  0  0  0
 26 27  1  0  0  0
 28103  1  0  0  0
 28104  1  0  0  0
 29105  1  0  0  0
 29106  1  0  0  0
 33 34  1  0  0  0
 33 66  1  0  0  0
 33 70  2  0  0  0
 34 36  1  0  0  0
 34 59  1  0  0  0
 34107  1  0  0  0
 35 44  2  0  0  0
 35 45  1  0  0  0
 35 68  1  0  0  0
 36 56  1  0  0  0
 36108  1  0  0  0
 37 39  1  0  0  0
 37 47  1  0  0  0
 37 66  1  0  0  0
 37109  1  0  0  0
 38 43  2  0  0  0
 38 46  1  0  0  0
 38 47  1  0  0  0
 39 64  1  0  0  0
 39 67  2  0  0  0
 40 52  1  0  0  0
 40 53  2  0  0  0
 40 58  1  0  0  0
 41110  1  0  0  0
 41111  1  0  0  0
 41112  1  0  0  0
 41 48  1  0  0  0
 42 43  1  0  0  0
 42 66  1  0  0  0
 42113  1  0  0  0
 42114  1  0  0  0
 43 44  1  0  0  0
 44115  1  0  0  0
 45 46  2  0  0  0
 45116  1  0  0  0
 46117  1  0  0  0
 47118  1  0  0  0
 47119  1  0  0  0
 48 56  1  0  0  0
 48 65  1  0  0  0
 48120  1  0  0  0
 49 50  1  0  0  0
 49 53  1  0  0  0
 49 64  1  0  0  0
 49121  1  0  0  0
 50 51  1  0  0  0
 50122  1  0  0  0
 50123  1  0  0  0
 51 52  1  0  0  0
 51124  1  0  0  0
 51125  1  0  0  0
 52126  1  0  0  0
 52127  1  0  0  0
 53 54  1  0  0  0
 54 55  2  0  0  0
 54128  1  0  0  0
 55 57  1  0  0  0
 55129  1  0  0  0
 56 69  2  0  0  0
 57 58  2  0  0  0
 57130  1  0  0  0
 58131  1  0  0  0
 59 60  1  0  0  0
 59 61  1  0  0  0
 59 62  1  0  0  0
 60132  1  0  0  0
 60133  1  0  0  0
 60134  1  0  0  0
 61135  1  0  0  0
 61136  1  0  0  0
 61137  1  0  0  0
 62138  1  0  0  0
 62139  1  0  0  0
 62140  1  0  0  0
 63 65  1  0  0  0
 63141  1  0  0  0
 63142  1  0  0  0
 63143  1  0  0  0
 64144  1  0  0  0
 65145  1  0  0  0
 68 79  1  0  0  0
 71 72  2  0  0  0
 71 74  1  0  0  0
 71146  1  0  0  0
 72 73  1  0  0  0
 72 79  1  0  0  0
 73 75  2  0  0  0
 73 78  1  0  0  0
 74 80  1  0  0  0
 74 85  2  0  0  0
 75 81  1  0  0  0
 75 85  1  0  0  0
 76 81  1  0  0  0
 76147  1  0  0  0
 76148  1  0  0  0
 76149  1  0  0  0
 77 82  1  0  0  0
 77150  1  0  0  0
 77151  1  0  0  0
 77152  1  0  0  0
 78 82  1  0  0  0
 78153  1  0  0  0
 78154  1  0  0  0
 79155  1  0  0  0
 79156  1  0  0  0
 80 83  1  0  0  0
 80157  1  0  0  0
 80158  1  0  0  0
 81159  1  0  0  0
 81160  1  0  0  0
 82161  1  0  0  0
 82162  1  0  0  0
 83 84  1  0  0  0
 83163  1  0  0  0
 83164  1  0  0  0
 84 86  1  0  0  0
 84165  1  0  0  0
 84166  1  0  0  0
 86167  1  0  0  0
M  ISO  4   1 100  68 101  79 101  86 100
M  END
> <chiral flag>
0

> <version>
0

> <s_m_source_file>
/data/baiqing/PycharmProjects/Reinvent-master-3.2/result/LINK_invent/BTK/process_docking_weight1_custom_sum_contain_oxygen_bond_distance_aromatic_linkinvent_7_9_3/rearranged_h_0037.sdf

> <i_m_source_file_index>
85

> <r_mmod_Potential_Energy-OPLS-2005>
13.9824934005737

> <r_mmod_Stretch_Energy-OPLS-2005>
115.405960083008

> <r_mmod_Bend_Energy-OPLS-2005>
166.643981933594

> <r_mmod_Torsional_Energy-OPLS-2005>
258.859191894531

> <r_mmod_Improper_Torsional_Energy-OPLS-2005>
6.72996139526367

> <r_mmod_Van_der_Waal_Energy-OPLS-2005>
144.659927368164

> <r_mmod_Electrostatic_Energy-OPLS-2005>
-542.492614746094

> <r_mmod_Solvation_Energy-OPLS-2005>
-214.581787109375

> <b_mmod_Minimization_Converged-OPLS-2005>
0

> <r_mmod_RMS_Derivative-OPLS-2005>
4.040283203125

$$$$
85
                    3D
 Structure written by MMmdl.
162170  0  0  1  0            999 V2000
  -30.6909  -14.4192   20.6467 C   0  0  0  0  0  0
  -30.4344  -12.2902   19.4238 C   0  0  0  0  0  0
  -29.5101  -12.5486   18.2127 C   0  0  0  0  0  0
  -28.0241  -12.4066   18.6121 C   0  0  0  0  0  0
  -27.6773  -13.2059   19.8978 C   0  0  2  0  0  0
  -28.7091  -12.9230   21.0128 C   0  0  0  0  0  0
  -25.2685  -13.8168   20.5799 C   0  0  0  0  0  0
  -24.1879  -13.0457   20.9204 C   0  0  0  0  0  0
  -24.6419  -11.6919   20.8686 C   0  0  0  0  0  0
  -23.9036  -10.4294   21.0355 C   0  0  0  0  0  0
  -24.3627   -9.4247   21.9138 C   0  0  0  0  0  0
  -23.6303   -8.2252   22.0736 C   0  0  0  0  0  0
  -22.4271   -8.0279   21.3555 C   0  0  0  0  0  0
  -21.9893   -9.0241   20.4641 C   0  0  0  0  0  0
  -22.7214  -10.2121   20.3023 C   0  0  0  0  0  0
  -21.6849   -6.0749   22.5274 C   0  0  0  0  0  0
  -21.4020   -6.5627   23.8220 C   0  0  0  0  0  0
  -21.3659   -5.6781   24.9168 C   0  0  0  0  0  0
  -21.6061   -4.3059   24.7226 C   0  0  0  0  0  0
  -21.8808   -3.8141   23.4361 C   0  0  0  0  0  0
  -21.9210   -4.6951   22.3391 C   0  0  0  0  0  0
  -22.7911  -13.5284   21.1843 C   0  0  0  0  0  0
  -22.1688   -4.2133   21.0995 F   0  0  0  0  0  0
  -21.5603   -3.4543   25.7749 F   0  0  0  0  0  0
  -30.0498  -13.2291   20.4849 N   0  0  0  0  0  0
  -26.3103  -12.9334   20.3482 N   0  0  0  0  0  0
  -25.9361  -11.6490   20.5728 N   0  0  0  0  0  0
  -22.0541  -12.8229   22.0380 N   0  0  0  0  0  0
  -25.4498  -15.1900   20.4358 N   0  0  0  0  0  0
  -31.7492  -14.7132   20.0831 O   0  0  0  0  0  0
  -21.6647   -6.8887   21.4236 O   0  0  0  0  0  0
  -22.3595  -14.5587   20.6706 O   0  0  0  0  0  0
  -24.6078  -31.8758   23.2139 C   0  0  0  0  0  0
  -25.8997  -32.4864   23.8421 C   0  0  1  0  0  0
  -27.2657  -27.4939   20.1006 C   0  0  0  0  0  0
  -25.5862  -33.8660   24.2354 N   0  0  0  0  0  0
  -23.3990  -30.4923   21.5526 C   0  0  2  0  0  0
  -24.8590  -28.9643   20.1212 C   0  0  0  0  0  0
  -22.7411  -29.4668   22.5011 C   0  0  0  0  0  0
  -18.0277  -28.1324   22.8537 C   0  0  0  0  0  0
  -24.1484  -36.7335   23.2634 C   0  0  0  0  0  0
  -25.9230  -30.8517   21.3705 C   0  0  0  0  0  0
  -26.0074  -29.4868   20.7289 C   0  0  0  0  0  0
  -27.2110  -28.7474   20.7439 C   0  0  0  0  0  0
  -26.1310  -27.0169   19.4282 C   0  0  0  0  0  0
  -24.9131  -27.7204   19.4645 C   0  0  0  0  0  0
  -23.6139  -29.8205   20.1692 C   0  0  0  0  0  0
  -25.4093  -36.3144   24.0345 C   0  0  1  0  0  0
  -20.5878  -28.3682   23.1339 C   0  0  2  0  0  0
  -20.6789  -26.9367   22.5573 C   0  0  0  0  0  0
  -19.5772  -26.6129   21.5418 C   0  0  0  0  0  0
  -18.1967  -26.7790   22.1855 C   0  0  0  0  0  0
  -19.1518  -28.8845   23.2869 C   0  0  0  0  0  0
  -18.9429  -30.1490   23.8755 C   0  0  0  0  0  0
  -17.6420  -30.6645   24.0406 C   0  0  0  0  0  0
  -25.9010  -34.9503   23.5142 C   0  0  0  0  0  0
  -16.5328  -29.9061   23.6268 C   0  0  0  0  0  0
  -16.7251  -28.6417   23.0368 C   0  0  0  0  0  0
  -26.4435  -31.6612   25.0730 C   0  0  0  0  0  0
  -25.3696  -31.3741   26.1478 C   0  0  0  0  0  0
  -27.0239  -30.3046   24.6088 C   0  0  0  0  0  0
  -27.6027  -32.4313   25.7465 C   0  0  0  0  0  0
  -27.5584  -37.1820   24.8463 C   0  0  0  0  0  0
  -21.4154  -29.2980   22.3670 N   0  0  0  0  0  0
  -26.4299  -37.3815   23.9400 N   0  0  0  0  0  0
  -24.6582  -31.0890   22.1024 N   0  0  0  0  0  0
  -23.4181  -28.8246   23.3088 O   0  0  0  0  0  0
  -28.4058  -26.7301   20.1167 O   0  0  0  0  0  0
  -26.5632  -34.8924   22.4734 O   0  0  0  0  0  0
  -23.5281  -32.1477   23.7567 O   0  0  0  0  0  0
  -27.2423  -21.9284   21.5122 C   0  0  0  0  0  0
  -25.3730  -20.5395   20.8413 C   0  0  0  0  0  0
  -26.6199  -20.6576   21.4718 C   0  0  0  0  0  0
  -26.5840  -23.0392   20.9234 C   0  0  0  0  0  0
  -25.3332  -22.7907   20.3103 C   0  0  0  0  0  0
  -24.5514  -23.8738   19.6051 C   0  0  0  0  0  0
  -27.2462  -19.4352   22.1234 C   0  0  0  0  0  0
  -28.3101  -18.7509   21.2416 C   0  0  0  0  0  0
  -28.8378  -17.4468   21.8690 C   0  0  0  0  0  0
  -29.8563  -16.7128   20.9751 C   0  0  0  0  0  0
  -28.6578  -26.1324   21.3988 C   0  0  0  0  0  0
  -28.3840  -24.6080   21.4011 C   0  0  0  0  0  0
  -24.7394  -21.5796   20.2826 N   0  0  0  0  0  0
  -29.9833  -15.3138   21.3505 N   0  0  0  0  0  0
  -27.0677  -24.3376   20.9123 O   0  0  0  0  0  0
  -31.4826  -12.3957   19.1362 H   0  0  0  0  0  0
  -30.3212  -11.2670   19.7837 H   0  0  0  0  0  0
  -29.7434  -11.8575   17.3994 H   0  0  0  0  0  0
  -29.6884  -13.5542   17.8247 H   0  0  0  0  0  0
  -27.8140  -11.3460   18.7636 H   0  0  0  0  0  0
  -27.3859  -12.7364   17.7918 H   0  0  0  0  0  0
  -27.7369  -14.2645   19.6444 H   0  0  0  0  0  0
  -28.6812  -11.8785   21.3116 H   0  0  0  0  0  0
  -28.4645  -13.4679   21.9260 H   0  0  0  0  0  0
  -25.2753   -9.5689   22.4732 H   0  0  0  0  0  0
  -23.9985   -7.4649   22.7445 H   0  0  0  0  0  0
  -21.0820   -8.8786   19.8954 H   0  0  0  0  0  0
  -22.3680  -10.9681   19.6131 H   0  0  0  0  0  0
  -21.2021   -7.6143   23.9705 H   0  0  0  0  0  0
  -21.1483   -6.0525   25.9077 H   0  0  0  0  0  0
  -22.0593   -2.7596   23.2858 H   0  0  0  0  0  0
  -22.4165  -11.9891   22.4747 H   0  0  0  0  0  0
  -21.1169  -13.1237   22.2535 H   0  0  0  0  0  0
  -24.6996  -15.8561   20.5727 H   0  0  0  0  0  0
  -26.3248  -15.6268   20.1725 H   0  0  0  0  0  0
  -26.7090  -32.5596   23.1202 H   0  0  0  0  0  0
  -24.9944  -33.9818   25.0453 H   0  0  0  0  0  0
  -22.6853  -31.3064   21.4107 H   0  0  0  0  0  0
  -23.3739  -35.9683   23.3351 H   0  0  0  0  0  0
  -24.3584  -36.8909   22.2045 H   0  0  0  0  0  0
  -23.7256  -37.6549   23.6625 H   0  0  0  0  0  0
  -26.0315  -31.6116   20.5946 H   0  0  0  0  0  0
  -26.8125  -30.9153   21.9861 H   0  0  0  0  0  0
  -28.0857  -29.1403   21.2412 H   0  0  0  0  0  0
  -26.2280  -26.1088   18.8589 H   0  0  0  0  0  0
  -24.0425  -27.3207   18.9609 H   0  0  0  0  0  0
  -23.7140  -30.5939   19.4067 H   0  0  0  0  0  0
  -22.7440  -29.2343   19.8710 H   0  0  0  0  0  0
  -25.1279  -36.2026   25.0853 H   0  0  0  0  0  0
  -20.9927  -28.3300   24.1481 H   0  0  0  0  0  0
  -21.6645  -26.7382   22.1364 H   0  0  0  0  0  0
  -20.5782  -26.2336   23.3866 H   0  0  0  0  0  0
  -19.6898  -25.5893   21.1758 H   0  0  0  0  0  0
  -19.6653  -27.2714   20.6759 H   0  0  0  0  0  0
  -17.4169  -26.6322   21.4369 H   0  0  0  0  0  0
  -18.0403  -26.0088   22.9415 H   0  0  0  0  0  0
  -19.7894  -30.7359   24.2012 H   0  0  0  0  0  0
  -17.4961  -31.6389   24.4885 H   0  0  0  0  0  0
  -15.5326  -30.2950   23.7556 H   0  0  0  0  0  0
  -15.8618  -28.0681   22.7173 H   0  0  0  0  0  0
  -24.5847  -30.7118   25.7818 H   0  0  0  0  0  0
  -24.8889  -32.2911   26.4906 H   0  0  0  0  0  0
  -25.8024  -30.8911   27.0247 H   0  0  0  0  0  0
  -26.2771  -29.6837   24.1117 H   0  0  0  0  0  0
  -27.3985  -29.7263   25.4545 H   0  0  0  0  0  0
  -27.8627  -30.4372   23.9244 H   0  0  0  0  0  0
  -27.2661  -33.3590   26.2096 H   0  0  0  0  0  0
  -28.3772  -32.6914   25.0246 H   0  0  0  0  0  0
  -28.0744  -31.8400   26.5318 H   0  0  0  0  0  0
  -28.2634  -38.0087   24.7481 H   0  0  0  0  0  0
  -28.1055  -36.2625   24.6322 H   0  0  0  0  0  0
  -27.2313  -37.1510   25.8871 H   0  0  0  0  0  0
  -20.9334  -29.8558   21.6744 H   0  0  0  0  0  0
  -26.0211  -38.2909   24.1378 H   0  0  0  0  0  0
  -28.2023  -22.0296   21.9950 H   0  0  0  0  0  0
  -24.8595  -19.5898   20.7980 H   0  0  0  0  0  0
  -24.1372  -24.5896   20.3157 H   0  0  0  0  0  0
  -23.7334  -23.4505   19.0193 H   0  0  0  0  0  0
  -25.1990  -24.3859   18.9017 H   0  0  0  0  0  0
  -26.4510  -18.7203   22.3359 H   0  0  0  0  0  0
  -27.6705  -19.7148   23.0864 H   0  0  0  0  0  0
  -29.1382  -19.4371   21.0536 H   0  0  0  0  0  0
  -27.8741  -18.5170   20.2669 H   0  0  0  0  0  0
  -27.9876  -16.7901   22.0714 H   0  0  0  0  0  0
  -29.2743  -17.6658   22.8487 H   0  0  0  0  0  0
  -30.8245  -17.2232   20.9705 H   0  0  0  0  0  0
  -29.4875  -16.6834   19.9457 H   0  0  0  0  0  0
  -29.7045  -26.3103   21.6506 H   0  0  0  0  0  0
  -28.0855  -26.6029   22.2055 H   0  0  0  0  0  0
  -28.4802  -24.2560   22.4308 H   0  0  0  0  0  0
  -29.1395  -24.1012   20.7943 H   0  0  0  0  0  0
  -29.1916  -14.9084   21.8292 H   0  0  0  0  0  0
  1 25  1  0  0  0
  1 30  2  0  0  0
  1 84  1  0  0  0
  2  3  1  0  0  0
  2 25  1  0  0  0
  2 86  1  0  0  0
  2 87  1  0  0  0
  3  4  1  0  0  0
  3 88  1  0  0  0
  3 89  1  0  0  0
  4  5  1  0  0  0
  4 90  1  0  0  0
  4 91  1  0  0  0
  5  6  1  0  0  0
  5 26  1  0  0  0
  5 92  1  0  0  0
  6 25  1  0  0  0
  6 93  1  0  0  0
  6 94  1  0  0  0
  7  8  2  0  0  0
  7 26  1  0  0  0
  7 29  1  0  0  0
  8  9  1  0  0  0
  8 22  1  0  0  0
  9 10  1  0  0  0
  9 27  2  0  0  0
 10 11  2  0  0  0
 10 15  1  0  0  0
 11 12  1  0  0  0
 11 95  1  0  0  0
 12 13  2  0  0  0
 12 96  1  0  0  0
 13 14  1  0  0  0
 13 31  1  0  0  0
 14 15  2  0  0  0
 14 97  1  0  0  0
 15 98  1  0  0  0
 16 17  2  0  0  0
 16 21  1  0  0  0
 16 31  1  0  0  0
 17 18  1  0  0  0
 17 99  1  0  0  0
 18 19  2  0  0  0
 18100  1  0  0  0
 19 20  1  0  0  0
 19 24  1  0  0  0
 20 21  2  0  0  0
 20101  1  0  0  0
 21 23  1  0  0  0
 22 28  1  0  0  0
 22 32  2  0  0  0
 26 27  1  0  0  0
 28102  1  0  0  0
 28103  1  0  0  0
 29104  1  0  0  0
 29105  1  0  0  0
 33 34  1  0  0  0
 33 66  1  0  0  0
 33 70  2  0  0  0
 34 36  1  0  0  0
 34 59  1  0  0  0
 34106  1  0  0  0
 35 44  2  0  0  0
 35 45  1  0  0  0
 35 68  1  0  0  0
 36 56  1  0  0  0
 36107  1  0  0  0
 37 39  1  0  0  0
 37 47  1  0  0  0
 37 66  1  0  0  0
 37108  1  0  0  0
 38 43  2  0  0  0
 38 46  1  0  0  0
 38 47  1  0  0  0
 39 64  1  0  0  0
 39 67  2  0  0  0
 40 52  1  0  0  0
 40 53  2  0  0  0
 40 58  1  0  0  0
 41109  1  0  0  0
 41110  1  0  0  0
 41111  1  0  0  0
 41 48  1  0  0  0
 42 43  1  0  0  0
 42 66  1  0  0  0
 42112  1  0  0  0
 42113  1  0  0  0
 43 44  1  0  0  0
 44114  1  0  0  0
 45 46  2  0  0  0
 45115  1  0  0  0
 46116  1  0  0  0
 47117  1  0  0  0
 47118  1  0  0  0
 48 56  1  0  0  0
 48 65  1  0  0  0
 48119  1  0  0  0
 49 50  1  0  0  0
 49 53  1  0  0  0
 49 64  1  0  0  0
 49120  1  0  0  0
 50 51  1  0  0  0
 50121  1  0  0  0
 50122  1  0  0  0
 51 52  1  0  0  0
 51123  1  0  0  0
 51124  1  0  0  0
 52125  1  0  0  0
 52126  1  0  0  0
 53 54  1  0  0  0
 54 55  2  0  0  0
 54127  1  0  0  0
 55 57  1  0  0  0
 55128  1  0  0  0
 56 69  2  0  0  0
 57 58  2  0  0  0
 57129  1  0  0  0
 58130  1  0  0  0
 59 60  1  0  0  0
 59 61  1  0  0  0
 59 62  1  0  0  0
 60131  1  0  0  0
 60132  1  0  0  0
 60133  1  0  0  0
 61134  1  0  0  0
 61135  1  0  0  0
 61136  1  0  0  0
 62137  1  0  0  0
 62138  1  0  0  0
 62139  1  0  0  0
 63 65  1  0  0  0
 63140  1  0  0  0
 63141  1  0  0  0
 63142  1  0  0  0
 64143  1  0  0  0
 65144  1  0  0  0
 68 81  1  0  0  0
 71 73  2  0  0  0
 71 74  1  0  0  0
 71145  1  0  0  0
 72 73  1  0  0  0
 72 83  2  0  0  0
 72146  1  0  0  0
 73 77  1  0  0  0
 74 75  2  0  0  0
 74 85  1  0  0  0
 75 76  1  0  0  0
 75 83  1  0  0  0
 76147  1  0  0  0
 76148  1  0  0  0
 76149  1  0  0  0
 77 78  1  0  0  0
 77150  1  0  0  0
 77151  1  0  0  0
 78 79  1  0  0  0
 78152  1  0  0  0
 78153  1  0  0  0
 79 80  1  0  0  0
 79154  1  0  0  0
 79155  1  0  0  0
 80 84  1  0  0  0
 80156  1  0  0  0
 80157  1  0  0  0
 81 82  1  0  0  0
 81158  1  0  0  0
 81159  1  0  0  0
 82 85  1  0  0  0
 82160  1  0  0  0
 82161  1  0  0  0
 84162  1  0  0  0
M  ISO  4   1 100  68 101  81 101  84 100
M  END
> <chiral flag>
0

> <version>
0

> <s_m_source_file>
/data/baiqing/PycharmProjects/Reinvent-master-3.2/result/LINK_invent/BTK/process_docking_weight1_custom_sum_contain_oxygen_bond_distance_aromatic_linkinvent_7_9_3/rearranged_h_0037.sdf

> <i_m_source_file_index>
86

> <r_mmod_Potential_Energy-OPLS-2005>
-168.473724365234

> <r_mmod_Stretch_Energy-OPLS-2005>
34.5922088623047

> <r_mmod_Bend_Energy-OPLS-2005>
95.9092636108398

> <r_mmod_Torsional_Energy-OPLS-2005>
237.794403076172

> <r_mmod_Improper_Torsional_Energy-OPLS-2005>
5.84920024871826

> <r_mmod_Van_der_Waal_Energy-OPLS-2005>
152.474899291992

> <r_mmod_Electrostatic_Energy-OPLS-2005>
-472.846466064453

> <r_mmod_Solvation_Energy-OPLS-2005>
-232.680068969727

> <b_mmod_Minimization_Converged-OPLS-2005>
0

> <r_mmod_RMS_Derivative-OPLS-2005>
9.12204074859619

$$$$
86
                    3D
 Structure written by MMmdl.
159167  0  0  1  0            999 V2000
  -30.6786  -14.5037   20.5829 C   0  0  0  0  0  0
  -30.4201  -12.3383   19.4229 C   0  0  0  0  0  0
  -29.4756  -12.5284   18.2173 C   0  0  0  0  0  0
  -27.9987  -12.3740   18.6268 C   0  0  0  0  0  0
  -27.6525  -13.2092   19.8833 C   0  0  2  0  0  0
  -28.6954  -12.9945   21.0018 C   0  0  0  0  0  0
  -25.2555  -13.8182   20.5665 C   0  0  0  0  0  0
  -24.1792  -13.0443   20.9147 C   0  0  0  0  0  0
  -24.6344  -11.6899   20.8713 C   0  0  0  0  0  0
  -23.9024  -10.4281   21.0345 C   0  0  0  0  0  0
  -24.3601   -9.4243   21.9156 C   0  0  0  0  0  0
  -23.6317   -8.2253   22.0715 C   0  0  0  0  0  0
  -22.4290   -8.0257   21.3525 C   0  0  0  0  0  0
  -21.9901   -9.0177   20.4632 C   0  0  0  0  0  0
  -22.7171  -10.2096   20.3023 C   0  0  0  0  0  0
  -21.6873   -6.0765   22.5280 C   0  0  0  0  0  0
  -21.4071   -6.5691   23.8212 C   0  0  0  0  0  0
  -21.3644   -5.6812   24.9162 C   0  0  0  0  0  0
  -21.6025   -4.3078   24.7199 C   0  0  0  0  0  0
  -21.8849   -3.8182   23.4318 C   0  0  0  0  0  0
  -21.9232   -4.6996   22.3389 C   0  0  0  0  0  0
  -22.7840  -13.5248   21.1799 C   0  0  0  0  0  0
  -22.1697   -4.2206   21.0953 F   0  0  0  0  0  0
  -21.5569   -3.4544   25.7695 F   0  0  0  0  0  0
  -30.0207  -13.3202   20.4445 N   0  0  0  0  0  0
  -26.2972  -12.9333   20.3442 N   0  0  0  0  0  0
  -25.9295  -11.6495   20.5860 N   0  0  0  0  0  0
  -22.0572  -12.8155   22.0369 N   0  0  0  0  0  0
  -25.4372  -15.1900   20.4034 N   0  0  0  0  0  0
  -31.8270  -14.6758   20.1643 O   0  0  0  0  0  0
  -21.6674   -6.8851   21.4206 O   0  0  0  0  0  0
  -22.3523  -14.5543   20.6646 O   0  0  0  0  0  0
  -24.6136  -31.8655   23.2044 C   0  0  0  0  0  0
  -25.9004  -32.4839   23.8333 C   0  0  1  0  0  0
  -27.2414  -27.4231   20.1014 C   0  0  0  0  0  0
  -25.5869  -33.8641   24.2270 N   0  0  0  0  0  0
  -23.3995  -30.4859   21.5509 C   0  0  2  0  0  0
  -24.8468  -28.9576   20.1112 C   0  0  0  0  0  0
  -22.7387  -29.4631   22.5017 C   0  0  0  0  0  0
  -18.0248  -28.1338   22.8460 C   0  0  0  0  0  0
  -24.1484  -36.7339   23.2642 C   0  0  0  0  0  0
  -25.9278  -30.8399   21.3446 C   0  0  0  0  0  0
  -26.0134  -29.4709   20.6968 C   0  0  0  0  0  0
  -27.2105  -28.7186   20.6763 C   0  0  0  0  0  0
  -26.0487  -26.9352   19.5071 C   0  0  0  0  0  0
  -24.8645  -27.6895   19.5095 C   0  0  0  0  0  0
  -23.6020  -29.8160   20.1672 C   0  0  0  0  0  0
  -25.4097  -36.3146   24.0336 C   0  0  1  0  0  0
  -20.5847  -28.3591   23.1353 C   0  0  2  0  0  0
  -20.6746  -26.9342   22.5422 C   0  0  0  0  0  0
  -19.5749  -26.6349   21.5203 C   0  0  0  0  0  0
  -18.1906  -26.7866   22.1597 C   0  0  0  0  0  0
  -19.1491  -28.8765   23.2900 C   0  0  0  0  0  0
  -18.9442  -30.1395   23.8903 C   0  0  0  0  0  0
  -17.6460  -30.6551   24.0546 C   0  0  0  0  0  0
  -25.9006  -34.9503   23.5098 C   0  0  0  0  0  0
  -16.5337  -29.9054   23.6351 C   0  0  0  0  0  0
  -16.7231  -28.6474   23.0338 C   0  0  0  0  0  0
  -26.4409  -31.6643   25.0687 C   0  0  0  0  0  0
  -25.3686  -31.3757   26.1467 C   0  0  0  0  0  0
  -27.0196  -30.3101   24.6002 C   0  0  0  0  0  0
  -27.5966  -32.4357   25.7463 C   0  0  0  0  0  0
  -27.5572  -37.1823   24.8461 C   0  0  0  0  0  0
  -21.4116  -29.2976   22.3795 N   0  0  0  0  0  0
  -26.4289  -37.3819   23.9408 N   0  0  0  0  0  0
  -24.6675  -31.0739   22.0956 N   0  0  0  0  0  0
  -23.4170  -28.8133   23.3041 O   0  0  0  0  0  0
  -28.4021  -26.6605   20.1481 O   0  0  0  0  0  0
  -26.5601  -34.8962   22.4682 O   0  0  0  0  0  0
  -23.5336  -32.1374   23.7467 O   0  0  0  0  0  0
  -27.8763  -21.1067   20.4566 C   0  0  0  0  0  0
  -29.0702  -20.6572   21.0887 C   0  0  0  0  0  0
  -29.8265  -21.8073   21.1726 C   0  0  0  0  0  0
  -32.2927  -21.9192   20.6480 C   0  0  0  0  0  0
  -29.3560  -19.2634   21.6515 C   0  0  0  0  0  0
  -31.2087  -21.9895   21.7280 C   0  0  0  0  0  0
  -29.6218  -18.0832   20.6545 C   0  0  0  0  0  0
  -29.3806  -24.3207   20.6117 C   0  0  0  0  0  0
  -30.4087  -16.9130   21.3453 C   0  0  0  0  0  0
  -28.2282  -25.2229   20.0647 C   0  0  0  0  0  0
  -27.8851  -22.4083   20.2021 N   0  0  0  0  0  0
  -29.0694  -22.8694   20.6666 N   0  0  0  0  0  0
  -29.9479  -15.5336   21.0680 N   0  0  0  0  0  0
  -31.4552  -12.4807   19.1111 H   0  0  0  0  0  0
  -30.3581  -11.3252   19.8242 H   0  0  0  0  0  0
  -29.7069  -11.8224   17.4200 H   0  0  0  0  0  0
  -29.6314  -13.5286   17.8094 H   0  0  0  0  0  0
  -27.8025  -11.3169   18.8098 H   0  0  0  0  0  0
  -27.3435  -12.6647   17.8021 H   0  0  0  0  0  0
  -27.6860  -14.2553   19.5790 H   0  0  0  0  0  0
  -28.6751  -11.9593   21.3484 H   0  0  0  0  0  0
  -28.4607  -13.5999   21.8772 H   0  0  0  0  0  0
  -25.2734   -9.5786   22.4742 H   0  0  0  0  0  0
  -24.0075   -7.4674   22.7425 H   0  0  0  0  0  0
  -21.0855   -8.8638   19.8942 H   0  0  0  0  0  0
  -22.3564  -10.9606   19.6150 H   0  0  0  0  0  0
  -21.2099   -7.6203   23.9722 H   0  0  0  0  0  0
  -21.1426   -6.0550   25.9065 H   0  0  0  0  0  0
  -22.0643   -2.7640   23.2783 H   0  0  0  0  0  0
  -22.4266  -11.9799   22.4645 H   0  0  0  0  0  0
  -21.1212  -13.1141   22.2700 H   0  0  0  0  0  0
  -24.6685  -15.8495   20.4450 H   0  0  0  0  0  0
  -26.2987  -15.6083   20.0709 H   0  0  0  0  0  0
  -26.7060  -32.5530   23.1073 H   0  0  0  0  0  0
  -24.9976  -33.9777   25.0395 H   0  0  0  0  0  0
  -22.6887  -31.3051   21.4123 H   0  0  0  0  0  0
  -23.3762  -35.9668   23.3303 H   0  0  0  0  0  0
  -24.3561  -36.8953   22.2065 H   0  0  0  0  0  0
  -23.7240  -37.6551   23.6619 H   0  0  0  0  0  0
  -26.0154  -31.6056   20.5719 H   0  0  0  0  0  0
  -26.8263  -30.9080   21.9451 H   0  0  0  0  0  0
  -28.1101  -29.1207   21.1188 H   0  0  0  0  0  0
  -26.0042  -25.9582   19.0486 H   0  0  0  0  0  0
  -23.9741  -27.2858   19.0446 H   0  0  0  0  0  0
  -23.6810  -30.5898   19.4035 H   0  0  0  0  0  0
  -22.7312  -29.2200   19.8892 H   0  0  0  0  0  0
  -25.1287  -36.2000   25.0832 H   0  0  0  0  0  0
  -20.9903  -28.3105   24.1489 H   0  0  0  0  0  0
  -20.5647  -26.2181   23.3560 H   0  0  0  0  0  0
  -21.6605  -26.7357   22.1230 H   0  0  0  0  0  0
  -19.6931  -25.6275   21.1197 H   0  0  0  0  0  0
  -19.6738  -27.3170   20.6746 H   0  0  0  0  0  0
  -17.4192  -26.6611   21.3995 H   0  0  0  0  0  0
  -18.0311  -26.0002   22.8990 H   0  0  0  0  0  0
  -19.7936  -30.7190   24.2278 H   0  0  0  0  0  0
  -17.5023  -31.6244   24.5118 H   0  0  0  0  0  0
  -15.5344  -30.2969   23.7672 H   0  0  0  0  0  0
  -15.8629  -28.0818   22.7060 H   0  0  0  0  0  0
  -24.5822  -30.7128   25.7814 H   0  0  0  0  0  0
  -24.8927  -32.2960   26.4904 H   0  0  0  0  0  0
  -25.8075  -30.8936   27.0231 H   0  0  0  0  0  0
  -26.2706  -29.6952   24.1008 H   0  0  0  0  0  0
  -27.3963  -29.7233   25.4392 H   0  0  0  0  0  0
  -27.8519  -30.4456   23.9087 H   0  0  0  0  0  0
  -27.2521  -33.3612   26.2067 H   0  0  0  0  0  0
  -28.3746  -32.7011   25.0295 H   0  0  0  0  0  0
  -28.0634  -31.8493   26.5382 H   0  0  0  0  0  0
  -28.2608  -38.0107   24.7499 H   0  0  0  0  0  0
  -28.1044  -36.2652   24.6259 H   0  0  0  0  0  0
  -27.2278  -37.1430   25.8861 H   0  0  0  0  0  0
  -20.9230  -29.8781   21.7116 H   0  0  0  0  0  0
  -26.0202  -38.2899   24.1444 H   0  0  0  0  0  0
  -26.9860  -20.5460   20.2097 H   0  0  0  0  0  0
  -32.3088  -20.9358   20.1744 H   0  0  0  0  0  0
  -33.2835  -22.0908   21.0744 H   0  0  0  0  0  0
  -32.1186  -22.6686   19.8717 H   0  0  0  0  0  0
  -28.5198  -18.9734   22.2964 H   0  0  0  0  0  0
  -30.1941  -19.3282   22.3452 H   0  0  0  0  0  0
  -31.4140  -21.2184   22.4702 H   0  0  0  0  0  0
  -31.2757  -22.9338   22.2713 H   0  0  0  0  0  0
  -30.2135  -18.4409   19.8038 H   0  0  0  0  0  0
  -28.6742  -17.7366   20.2289 H   0  0  0  0  0  0
  -29.6111  -24.6430   21.6281 H   0  0  0  0  0  0
  -30.2886  -24.4549   20.0210 H   0  0  0  0  0  0
  -31.4695  -17.0198   21.1072 H   0  0  0  0  0  0
  -30.3534  -17.0257   22.4294 H   0  0  0  0  0  0
  -27.3380  -24.9647   20.6432 H   0  0  0  0  0  0
  -28.0367  -24.9660   19.0210 H   0  0  0  0  0  0
  -29.0207  -15.2970   21.3875 H   0  0  0  0  0  0
  1 25  1  0  0  0
  1 30  2  0  0  0
  1 83  1  0  0  0
  2  3  1  0  0  0
  2 25  1  0  0  0
  2 84  1  0  0  0
  2 85  1  0  0  0
  3  4  1  0  0  0
  3 86  1  0  0  0
  3 87  1  0  0  0
  4  5  1  0  0  0
  4 88  1  0  0  0
  4 89  1  0  0  0
  5  6  1  0  0  0
  5 26  1  0  0  0
  5 90  1  0  0  0
  6 25  1  0  0  0
  6 91  1  0  0  0
  6 92  1  0  0  0
  7  8  2  0  0  0
  7 26  1  0  0  0
  7 29  1  0  0  0
  8  9  1  0  0  0
  8 22  1  0  0  0
  9 10  1  0  0  0
  9 27  2  0  0  0
 10 11  2  0  0  0
 10 15  1  0  0  0
 11 12  1  0  0  0
 11 93  1  0  0  0
 12 13  2  0  0  0
 12 94  1  0  0  0
 13 14  1  0  0  0
 13 31  1  0  0  0
 14 15  2  0  0  0
 14 95  1  0  0  0
 15 96  1  0  0  0
 16 17  2  0  0  0
 16 21  1  0  0  0
 16 31  1  0  0  0
 17 18  1  0  0  0
 17 97  1  0  0  0
 18 19  2  0  0  0
 18 98  1  0  0  0
 19 20  1  0  0  0
 19 24  1  0  0  0
 20 21  2  0  0  0
 20 99  1  0  0  0
 21 23  1  0  0  0
 22 28  1  0  0  0
 22 32  2  0  0  0
 26 27  1  0  0  0
 28100  1  0  0  0
 28101  1  0  0  0
 29102  1  0  0  0
 29103  1  0  0  0
 33 34  1  0  0  0
 33 66  1  0  0  0
 33 70  2  0  0  0
 34 36  1  0  0  0
 34 59  1  0  0  0
 34104  1  0  0  0
 35 44  2  0  0  0
 35 45  1  0  0  0
 35 68  1  0  0  0
 36 56  1  0  0  0
 36105  1  0  0  0
 37 39  1  0  0  0
 37 47  1  0  0  0
 37 66  1  0  0  0
 37106  1  0  0  0
 38 43  2  0  0  0
 38 46  1  0  0  0
 38 47  1  0  0  0
 39 64  1  0  0  0
 39 67  2  0  0  0
 40 52  1  0  0  0
 40 53  2  0  0  0
 40 58  1  0  0  0
 41107  1  0  0  0
 41108  1  0  0  0
 41109  1  0  0  0
 41 48  1  0  0  0
 42 43  1  0  0  0
 42 66  1  0  0  0
 42110  1  0  0  0
 42111  1  0  0  0
 43 44  1  0  0  0
 44112  1  0  0  0
 45 46  2  0  0  0
 45113  1  0  0  0
 46114  1  0  0  0
 47115  1  0  0  0
 47116  1  0  0  0
 48 56  1  0  0  0
 48 65  1  0  0  0
 48117  1  0  0  0
 49 50  1  0  0  0
 49 53  1  0  0  0
 49 64  1  0  0  0
 49118  1  0  0  0
 50 51  1  0  0  0
 50119  1  0  0  0
 50120  1  0  0  0
 51 52  1  0  0  0
 51121  1  0  0  0
 51122  1  0  0  0
 52123  1  0  0  0
 52124  1  0  0  0
 53 54  1  0  0  0
 54 55  2  0  0  0
 54125  1  0  0  0
 55 57  1  0  0  0
 55126  1  0  0  0
 56 69  2  0  0  0
 57 58  2  0  0  0
 57127  1  0  0  0
 58128  1  0  0  0
 59 60  1  0  0  0
 59 61  1  0  0  0
 59 62  1  0  0  0
 60129  1  0  0  0
 60130  1  0  0  0
 60131  1  0  0  0
 61132  1  0  0  0
 61133  1  0  0  0
 61134  1  0  0  0
 62135  1  0  0  0
 62136  1  0  0  0
 62137  1  0  0  0
 63 65  1  0  0  0
 63138  1  0  0  0
 63139  1  0  0  0
 63140  1  0  0  0
 64141  1  0  0  0
 65142  1  0  0  0
 68 80  1  0  0  0
 71 72  1  0  0  0
 71 81  2  0  0  0
 71143  1  0  0  0
 72 73  2  0  0  0
 72 75  1  0  0  0
 73 76  1  0  0  0
 73 82  1  0  0  0
 74 76  1  0  0  0
 74144  1  0  0  0
 74145  1  0  0  0
 74146  1  0  0  0
 75 77  1  0  0  0
 75147  1  0  0  0
 75148  1  0  0  0
 76149  1  0  0  0
 76150  1  0  0  0
 77 79  1  0  0  0
 77151  1  0  0  0
 77152  1  0  0  0
 78 80  1  0  0  0
 78 82  1  0  0  0
 78153  1  0  0  0
 78154  1  0  0  0
 79 83  1  0  0  0
 79155  1  0  0  0
 79156  1  0  0  0
 80157  1  0  0  0
 80158  1  0  0  0
 81 82  1  0  0  0
 83159  1  0  0  0
M  ISO  4   1 100  68 101  80 101  83 100
M  END
> <chiral flag>
0

> <version>
0

> <s_m_source_file>
/data/baiqing/PycharmProjects/Reinvent-master-3.2/result/LINK_invent/BTK/process_docking_weight1_custom_sum_contain_oxygen_bond_distance_aromatic_linkinvent_7_9_3/rearranged_h_0037.sdf

> <i_m_source_file_index>
87

> <r_mmod_Potential_Energy-OPLS-2005>
-52.887035369873

> <r_mmod_Stretch_Energy-OPLS-2005>
44.9012985229492

> <r_mmod_Bend_Energy-OPLS-2005>
106.367950439453

> <r_mmod_Torsional_Energy-OPLS-2005>
224.214569091797

> <r_mmod_Improper_Torsional_Energy-OPLS-2005>
4.20177221298218

> <r_mmod_Van_der_Waal_Energy-OPLS-2005>
133.36865234375

> <r_mmod_Electrostatic_Energy-OPLS-2005>
-363.743041992188

> <r_mmod_Solvation_Energy-OPLS-2005>
-219.357971191406

> <b_mmod_Minimization_Converged-OPLS-2005>
0

> <r_mmod_RMS_Derivative-OPLS-2005>
6.96512985229492

$$$$
87
                    3D
 Structure written by MMmdl.
162170  0  0  1  0            999 V2000
  -30.6804  -14.4366   20.5747 C   0  0  0  0  0  0
  -30.4378  -12.2806   19.4194 C   0  0  0  0  0  0
  -29.5103  -12.4958   18.2061 C   0  0  0  0  0  0
  -28.0263  -12.3600   18.6091 C   0  0  0  0  0  0
  -27.6681  -13.1943   19.8703 C   0  0  2  0  0  0
  -28.7028  -12.9427   20.9898 C   0  0  0  0  0  0
  -25.2630  -13.8140   20.5763 C   0  0  0  0  0  0
  -24.1856  -13.0425   20.9178 C   0  0  0  0  0  0
  -24.6379  -11.6876   20.8643 C   0  0  0  0  0  0
  -23.9022  -10.4274   21.0346 C   0  0  0  0  0  0
  -24.3583   -9.4204   21.9163 C   0  0  0  0  0  0
  -23.6262   -8.2233   22.0750 C   0  0  0  0  0  0
  -22.4246   -8.0268   21.3533 C   0  0  0  0  0  0
  -21.9861   -9.0248   20.4646 C   0  0  0  0  0  0
  -22.7174  -10.2122   20.3015 C   0  0  0  0  0  0
  -21.6868   -6.0702   22.5291 C   0  0  0  0  0  0
  -21.4026   -6.5601   23.8217 C   0  0  0  0  0  0
  -21.3668   -5.6751   24.9199 C   0  0  0  0  0  0
  -21.6042   -4.3013   24.7247 C   0  0  0  0  0  0
  -21.8829   -3.8106   23.4365 C   0  0  0  0  0  0
  -21.9192   -4.6930   22.3408 C   0  0  0  0  0  0
  -22.7871  -13.5243   21.1827 C   0  0  0  0  0  0
  -22.1660   -4.2090   21.0991 F   0  0  0  0  0  0
  -21.5649   -3.4514   25.7772 F   0  0  0  0  0  0
  -30.0434  -13.2484   20.4508 N   0  0  0  0  0  0
  -26.3047  -12.9276   20.3287 N   0  0  0  0  0  0
  -25.9276  -11.6436   20.5598 N   0  0  0  0  0  0
  -22.0440  -12.8304   22.0381 N   0  0  0  0  0  0
  -25.4431  -15.1895   20.4607 N   0  0  0  0  0  0
  -31.7972  -14.6708   20.0895 O   0  0  0  0  0  0
  -21.6633   -6.8856   21.4233 O   0  0  0  0  0  0
  -22.3583  -14.5565   20.6678 O   0  0  0  0  0  0
  -24.6190  -31.8650   23.2080 C   0  0  0  0  0  0
  -25.9117  -32.4787   23.8376 C   0  0  1  0  0  0
  -27.2391  -27.4403   20.1327 C   0  0  0  0  0  0
  -25.5990  -33.8573   24.2341 N   0  0  0  0  0  0
  -23.4066  -30.4873   21.5449 C   0  0  2  0  0  0
  -24.8574  -28.9435   20.1247 C   0  0  0  0  0  0
  -22.7410  -29.4682   22.4990 C   0  0  0  0  0  0
  -18.0231  -28.1379   22.8479 C   0  0  0  0  0  0
  -24.1487  -36.7274   23.2606 C   0  0  0  0  0  0
  -25.9313  -30.8375   21.3601 C   0  0  0  0  0  0
  -26.0135  -29.4643   20.7268 C   0  0  0  0  0  0
  -27.2078  -28.7148   20.7409 C   0  0  0  0  0  0
  -26.0817  -26.9321   19.5175 C   0  0  0  0  0  0
  -24.8840  -27.6732   19.5171 C   0  0  0  0  0  0
  -23.6190  -29.8063   20.1649 C   0  0  0  0  0  0
  -25.4099  -36.3061   24.0313 C   0  0  1  0  0  0
  -20.5819  -28.3699   23.1266 C   0  0  2  0  0  0
  -20.6751  -26.9470   22.5376 C   0  0  0  0  0  0
  -19.5733  -26.6457   21.5167 C   0  0  0  0  0  0
  -18.1891  -26.7925   22.1536 C   0  0  0  0  0  0
  -19.1484  -28.8860   23.2888 C   0  0  0  0  0  0
  -18.9381  -30.1444   23.8909 C   0  0  0  0  0  0
  -17.6373  -30.6572   24.0556 C   0  0  0  0  0  0
  -25.9044  -34.9443   23.5102 C   0  0  0  0  0  0
  -16.5283  -29.9070   23.6305 C   0  0  0  0  0  0
  -16.7224  -28.6477   23.0355 C   0  0  0  0  0  0
  -26.4509  -31.6575   25.0708 C   0  0  0  0  0  0
  -25.3761  -31.3773   26.1445 C   0  0  0  0  0  0
  -27.0292  -30.3013   24.6072 C   0  0  0  0  0  0
  -27.6108  -32.4257   25.7479 C   0  0  0  0  0  0
  -27.5589  -37.1801   24.8470 C   0  0  0  0  0  0
  -21.4135  -29.3068   22.3725 N   0  0  0  0  0  0
  -26.4301  -37.3750   23.9383 N   0  0  0  0  0  0
  -24.6699  -31.0790   22.0969 N   0  0  0  0  0  0
  -23.4162  -28.8244   23.3066 O   0  0  0  0  0  0
  -28.3812  -26.6828   20.1032 O   0  0  0  0  0  0
  -26.5566  -34.8893   22.4635 O   0  0  0  0  0  0
  -23.5396  -32.1410   23.7490 O   0  0  0  0  0  0
  -28.1430  -20.1979   21.1666 C   0  0  0  0  0  0
  -27.3800  -20.3700   22.3645 C   0  0  0  0  0  0
  -28.2641  -21.4705   20.6712 C   0  0  0  0  0  0
  -26.9460  -19.3363   23.3754 C   0  0  0  0  0  0
  -28.9748  -21.9167   19.4387 C   0  0  0  0  0  0
  -28.7424  -18.9707   20.5037 C   0  0  0  0  0  0
  -28.9896  -17.7315   21.3804 C   0  0  0  0  0  0
  -28.8204  -24.5565   21.2119 C   0  0  0  0  0  0
  -27.4735  -23.8026   21.4704 C   0  0  0  0  0  0
  -30.0660  -16.8254   20.7342 C   0  0  0  0  0  0
  -28.7538  -26.0937   21.3538 C   0  0  0  0  0  0
  -27.0661  -21.6472   22.5630 N   0  0  0  0  0  0
  -27.6283  -22.3389   21.5420 N   0  0  0  0  0  0
  -29.9188  -15.4159   21.0803 N   0  0  0  0  0  0
  -31.4845  -12.3849   19.1217 H   0  0  0  0  0  0
  -30.3499  -11.2645   19.8049 H   0  0  0  0  0  0
  -29.7512  -11.7725   17.4258 H   0  0  0  0  0  0
  -29.6929  -13.4838   17.7768 H   0  0  0  0  0  0
  -27.8335  -11.3052   18.8052 H   0  0  0  0  0  0
  -27.3848  -12.6396   17.7704 H   0  0  0  0  0  0
  -27.7237  -14.2418   19.5737 H   0  0  0  0  0  0
  -28.6652  -11.9012   21.3091 H   0  0  0  0  0  0
  -28.4575  -13.5251   21.8812 H   0  0  0  0  0  0
  -25.2739   -9.5722   22.4739 H   0  0  0  0  0  0
  -23.9976   -7.4634   22.7492 H   0  0  0  0  0  0
  -21.0775   -8.8773   19.8969 H   0  0  0  0  0  0
  -22.3631  -10.9672   19.6124 H   0  0  0  0  0  0
  -21.2002   -7.6109   23.9722 H   0  0  0  0  0  0
  -21.1496   -6.0484   25.9099 H   0  0  0  0  0  0
  -22.0592   -2.7562   23.2905 H   0  0  0  0  0  0
  -22.3992  -11.9994   22.4872 H   0  0  0  0  0  0
  -21.1061  -13.1396   22.2471 H   0  0  0  0  0  0
  -24.6959  -15.8424   20.6724 H   0  0  0  0  0  0
  -26.3273  -15.6506   20.2886 H   0  0  0  0  0  0
  -26.7210  -32.5473   23.1156 H   0  0  0  0  0  0
  -25.0289  -33.9707   25.0593 H   0  0  0  0  0  0
  -22.7016  -31.3071   21.3951 H   0  0  0  0  0  0
  -23.3722  -35.9660   23.3274 H   0  0  0  0  0  0
  -24.3627  -36.8876   22.2045 H   0  0  0  0  0  0
  -23.7288  -37.6486   23.6617 H   0  0  0  0  0  0
  -26.0385  -31.5947   20.5820 H   0  0  0  0  0  0
  -26.8238  -30.9048   21.9715 H   0  0  0  0  0  0
  -28.1010  -29.0985   21.2131 H   0  0  0  0  0  0
  -26.1124  -25.9583   19.0487 H   0  0  0  0  0  0
  -24.0009  -27.2648   19.0450 H   0  0  0  0  0  0
  -23.7294  -30.5676   19.3909 H   0  0  0  0  0  0
  -22.7464  -29.2193   19.8708 H   0  0  0  0  0  0
  -25.1288  -36.1906   25.0827 H   0  0  0  0  0  0
  -20.9920  -28.3220   24.1387 H   0  0  0  0  0  0
  -20.5648  -26.2318   23.3547 H   0  0  0  0  0  0
  -21.6641  -26.7502   22.1192 H   0  0  0  0  0  0
  -19.6908  -25.6385   21.1173 H   0  0  0  0  0  0
  -19.6691  -27.3213   20.6673 H   0  0  0  0  0  0
  -17.4228  -26.6813   21.3848 H   0  0  0  0  0  0
  -18.0244  -25.9954   22.8834 H   0  0  0  0  0  0
  -19.7827  -30.7247   24.2341 H   0  0  0  0  0  0
  -17.4879  -31.6266   24.5114 H   0  0  0  0  0  0
  -15.5275  -30.2980   23.7505 H   0  0  0  0  0  0
  -15.8629  -28.0771   22.7051 H   0  0  0  0  0  0
  -24.5953  -30.7062   25.7864 H   0  0  0  0  0  0
  -24.8898  -32.2943   26.4797 H   0  0  0  0  0  0
  -25.8089  -30.9075   27.0276 H   0  0  0  0  0  0
  -26.2860  -29.6847   24.1002 H   0  0  0  0  0  0
  -27.3929  -29.7183   25.4545 H   0  0  0  0  0  0
  -27.8735  -30.4303   23.9293 H   0  0  0  0  0  0
  -27.2778  -33.3585   26.2026 H   0  0  0  0  0  0
  -28.3933  -32.6760   25.0309 H   0  0  0  0  0  0
  -28.0702  -31.8359   26.5413 H   0  0  0  0  0  0
  -28.2600  -38.0108   24.7471 H   0  0  0  0  0  0
  -28.1060  -36.2612   24.6293 H   0  0  0  0  0  0
  -27.2288  -37.1478   25.8879 H   0  0  0  0  0  0
  -20.9322  -29.8754   21.6901 H   0  0  0  0  0  0
  -26.0136  -38.2816   24.1387 H   0  0  0  0  0  0
  -27.8075  -18.9169   23.8999 H   0  0  0  0  0  0
  -26.4181  -18.5081   22.9016 H   0  0  0  0  0  0
  -26.2868  -19.7535   24.1368 H   0  0  0  0  0  0
  -29.3261  -21.0793   18.8428 H   0  0  0  0  0  0
  -29.8667  -22.4855   19.6940 H   0  0  0  0  0  0
  -28.3235  -22.5207   18.8055 H   0  0  0  0  0  0
  -29.7099  -19.2409   20.0838 H   0  0  0  0  0  0
  -28.1364  -18.6706   19.6459 H   0  0  0  0  0  0
  -28.0499  -17.2008   21.5307 H   0  0  0  0  0  0
  -29.3582  -18.0309   22.3611 H   0  0  0  0  0  0
  -29.2139  -24.3813   20.2103 H   0  0  0  0  0  0
  -29.5783  -24.1653   21.8989 H   0  0  0  0  0  0
  -26.7255  -24.0401   20.7034 H   0  0  0  0  0  0
  -27.0376  -24.1377   22.4210 H   0  0  0  0  0  0
  -31.0653  -17.1782   20.9932 H   0  0  0  0  0  0
  -29.9886  -16.8965   19.6492 H   0  0  0  0  0  0
  -29.7415  -26.4754   21.6087 H   0  0  0  0  0  0
  -28.1053  -26.3752   22.1889 H   0  0  0  0  0  0
  -29.0294  -15.1199   21.4520 H   0  0  0  0  0  0
  1 25  1  0  0  0
  1 30  2  0  0  0
  1 84  1  0  0  0
  2  3  1  0  0  0
  2 25  1  0  0  0
  2 85  1  0  0  0
  2 86  1  0  0  0
  3  4  1  0  0  0
  3 87  1  0  0  0
  3 88  1  0  0  0
  4  5  1  0  0  0
  4 89  1  0  0  0
  4 90  1  0  0  0
  5  6  1  0  0  0
  5 26  1  0  0  0
  5 91  1  0  0  0
  6 25  1  0  0  0
  6 92  1  0  0  0
  6 93  1  0  0  0
  7  8  2  0  0  0
  7 26  1  0  0  0
  7 29  1  0  0  0
  8  9  1  0  0  0
  8 22  1  0  0  0
  9 10  1  0  0  0
  9 27  2  0  0  0
 10 11  2  0  0  0
 10 15  1  0  0  0
 11 12  1  0  0  0
 11 94  1  0  0  0
 12 13  2  0  0  0
 12 95  1  0  0  0
 13 14  1  0  0  0
 13 31  1  0  0  0
 14 15  2  0  0  0
 14 96  1  0  0  0
 15 97  1  0  0  0
 16 17  2  0  0  0
 16 21  1  0  0  0
 16 31  1  0  0  0
 17 18  1  0  0  0
 17 98  1  0  0  0
 18 19  2  0  0  0
 18 99  1  0  0  0
 19 20  1  0  0  0
 19 24  1  0  0  0
 20 21  2  0  0  0
 20100  1  0  0  0
 21 23  1  0  0  0
 22 28  1  0  0  0
 22 32  2  0  0  0
 26 27  1  0  0  0
 28101  1  0  0  0
 28102  1  0  0  0
 29103  1  0  0  0
 29104  1  0  0  0
 33 34  1  0  0  0
 33 66  1  0  0  0
 33 70  2  0  0  0
 34 36  1  0  0  0
 34 59  1  0  0  0
 34105  1  0  0  0
 35 44  2  0  0  0
 35 45  1  0  0  0
 35 68  1  0  0  0
 36 56  1  0  0  0
 36106  1  0  0  0
 37 39  1  0  0  0
 37 47  1  0  0  0
 37 66  1  0  0  0
 37107  1  0  0  0
 38 43  2  0  0  0
 38 46  1  0  0  0
 38 47  1  0  0  0
 39 64  1  0  0  0
 39 67  2  0  0  0
 40 52  1  0  0  0
 40 53  2  0  0  0
 40 58  1  0  0  0
 41108  1  0  0  0
 41109  1  0  0  0
 41110  1  0  0  0
 41 48  1  0  0  0
 42 43  1  0  0  0
 42 66  1  0  0  0
 42111  1  0  0  0
 42112  1  0  0  0
 43 44  1  0  0  0
 44113  1  0  0  0
 45 46  2  0  0  0
 45114  1  0  0  0
 46115  1  0  0  0
 47116  1  0  0  0
 47117  1  0  0  0
 48 56  1  0  0  0
 48 65  1  0  0  0
 48118  1  0  0  0
 49 50  1  0  0  0
 49 53  1  0  0  0
 49 64  1  0  0  0
 49119  1  0  0  0
 50 51  1  0  0  0
 50120  1  0  0  0
 50121  1  0  0  0
 51 52  1  0  0  0
 51122  1  0  0  0
 51123  1  0  0  0
 52124  1  0  0  0
 52125  1  0  0  0
 53 54  1  0  0  0
 54 55  2  0  0  0
 54126  1  0  0  0
 55 57  1  0  0  0
 55127  1  0  0  0
 56 69  2  0  0  0
 57 58  2  0  0  0
 57128  1  0  0  0
 58129  1  0  0  0
 59 60  1  0  0  0
 59 61  1  0  0  0
 59 62  1  0  0  0
 60130  1  0  0  0
 60131  1  0  0  0
 60132  1  0  0  0
 61133  1  0  0  0
 61134  1  0  0  0
 61135  1  0  0  0
 62136  1  0  0  0
 62137  1  0  0  0
 62138  1  0  0  0
 63 65  1  0  0  0
 63139  1  0  0  0
 63140  1  0  0  0
 63141  1  0  0  0
 64142  1  0  0  0
 65143  1  0  0  0
 68 81  1  0  0  0
 71 72  1  0  0  0
 71 73  2  0  0  0
 71 76  1  0  0  0
 72 74  1  0  0  0
 72 82  2  0  0  0
 73 75  1  0  0  0
 73 83  1  0  0  0
 74144  1  0  0  0
 74145  1  0  0  0
 74146  1  0  0  0
 75147  1  0  0  0
 75148  1  0  0  0
 75149  1  0  0  0
 76 77  1  0  0  0
 76150  1  0  0  0
 76151  1  0  0  0
 77 80  1  0  0  0
 77152  1  0  0  0
 77153  1  0  0  0
 78 79  1  0  0  0
 78 81  1  0  0  0
 78154  1  0  0  0
 78155  1  0  0  0
 79 83  1  0  0  0
 79156  1  0  0  0
 79157  1  0  0  0
 80 84  1  0  0  0
 80158  1  0  0  0
 80159  1  0  0  0
 81160  1  0  0  0
 81161  1  0  0  0
 82 83  1  0  0  0
 84162  1  0  0  0
M  ISO  4   1 100  68 101  81 101  84 100
M  END
> <chiral flag>
0

> <version>
0

> <s_m_source_file>
/data/baiqing/PycharmProjects/Reinvent-master-3.2/result/LINK_invent/BTK/process_docking_weight1_custom_sum_contain_oxygen_bond_distance_aromatic_linkinvent_7_9_3/rearranged_h_0037.sdf

> <i_m_source_file_index>
88

> <r_mmod_Potential_Energy-OPLS-2005>
-116.23860168457

> <r_mmod_Stretch_Energy-OPLS-2005>
34.9965286254883

> <r_mmod_Bend_Energy-OPLS-2005>
97.8351440429688

> <r_mmod_Torsional_Energy-OPLS-2005>
250.741485595703

> <r_mmod_Improper_Torsional_Energy-OPLS-2005>
6.03379344940186

> <r_mmod_Van_der_Waal_Energy-OPLS-2005>
127.57689666748

> <r_mmod_Electrostatic_Energy-OPLS-2005>
-421.936920166016

> <r_mmod_Solvation_Energy-OPLS-2005>
-222.839340209961

> <b_mmod_Minimization_Converged-OPLS-2005>
0

> <r_mmod_RMS_Derivative-OPLS-2005>
8.08786773681641

$$$$
88
                    3D
 Structure written by MMmdl.
162170  0  0  1  0            999 V2000
  -30.7518  -14.3957   20.6454 C   0  0  0  0  0  0
  -30.4125  -12.2924   19.4015 C   0  0  0  0  0  0
  -29.4823  -12.5171   18.1954 C   0  0  0  0  0  0
  -28.0053  -12.3766   18.6096 C   0  0  0  0  0  0
  -27.6630  -13.2035   19.8785 C   0  0  2  0  0  0
  -28.7035  -12.9607   20.9962 C   0  0  0  0  0  0
  -25.2597  -13.8182   20.5707 C   0  0  0  0  0  0
  -24.1847  -13.0457   20.9195 C   0  0  0  0  0  0
  -24.6393  -11.6914   20.8756 C   0  0  0  0  0  0
  -23.9060  -10.4295   21.0415 C   0  0  0  0  0  0
  -24.3612   -9.4215   21.9198 C   0  0  0  0  0  0
  -23.6294   -8.2240   22.0757 C   0  0  0  0  0  0
  -22.4283   -8.0282   21.3548 C   0  0  0  0  0  0
  -21.9919   -9.0258   20.4651 C   0  0  0  0  0  0
  -22.7232  -10.2141   20.3058 C   0  0  0  0  0  0
  -21.6850   -6.0753   22.5291 C   0  0  0  0  0  0
  -21.4018   -6.5653   23.8225 C   0  0  0  0  0  0
  -21.3660   -5.6802   24.9184 C   0  0  0  0  0  0
  -21.6046   -4.3062   24.7226 C   0  0  0  0  0  0
  -21.8826   -3.8167   23.4343 C   0  0  0  0  0  0
  -21.9194   -4.6989   22.3408 C   0  0  0  0  0  0
  -22.7860  -13.5240   21.1857 C   0  0  0  0  0  0
  -22.1650   -4.2180   21.0976 F   0  0  0  0  0  0
  -21.5625   -3.4536   25.7732 F   0  0  0  0  0  0
  -30.0413  -13.2539   20.4508 N   0  0  0  0  0  0
  -26.3032  -12.9343   20.3396 N   0  0  0  0  0  0
  -25.9321  -11.6498   20.5796 N   0  0  0  0  0  0
  -22.0501  -12.8216   22.0389 N   0  0  0  0  0  0
  -25.4361  -15.1911   20.4136 N   0  0  0  0  0  0
  -31.8112  -14.6375   20.0602 O   0  0  0  0  0  0
  -21.6645   -6.8886   21.4237 O   0  0  0  0  0  0
  -22.3528  -14.5539   20.6697 O   0  0  0  0  0  0
  -24.6106  -31.8703   23.2127 C   0  0  0  0  0  0
  -25.9015  -32.4833   23.8406 C   0  0  1  0  0  0
  -27.2430  -27.4736   20.0794 C   0  0  0  0  0  0
  -25.5883  -33.8629   24.2338 N   0  0  0  0  0  0
  -23.3979  -30.4919   21.5525 C   0  0  2  0  0  0
  -24.8464  -28.9571   20.1202 C   0  0  0  0  0  0
  -22.7387  -29.4664   22.5021 C   0  0  0  0  0  0
  -18.0263  -28.1369   22.8499 C   0  0  0  0  0  0
  -24.1489  -36.7319   23.2638 C   0  0  0  0  0  0
  -25.9226  -30.8426   21.3642 C   0  0  0  0  0  0
  -26.0021  -29.4757   20.7190 C   0  0  0  0  0  0
  -27.2027  -28.7345   20.7092 C   0  0  0  0  0  0
  -26.0717  -26.9517   19.4926 C   0  0  0  0  0  0
  -24.8724  -27.6893   19.5111 C   0  0  0  0  0  0
  -23.6062  -29.8204   20.1679 C   0  0  0  0  0  0
  -25.4111  -36.3112   24.0336 C   0  0  1  0  0  0
  -20.5847  -28.3647   23.1333 C   0  0  2  0  0  0
  -20.6757  -26.9388   22.5422 C   0  0  0  0  0  0
  -19.5738  -26.6385   21.5212 C   0  0  0  0  0  0
  -18.1916  -26.7919   22.1623 C   0  0  0  0  0  0
  -19.1511  -28.8827   23.2913 C   0  0  0  0  0  0
  -18.9443  -30.1439   23.8918 C   0  0  0  0  0  0
  -17.6449  -30.6582   24.0566 C   0  0  0  0  0  0
  -25.9029  -34.9474   23.5130 C   0  0  0  0  0  0
  -16.5339  -29.9088   23.6324 C   0  0  0  0  0  0
  -16.7256  -28.6500   23.0352 C   0  0  0  0  0  0
  -26.4466  -31.6601   25.0717 C   0  0  0  0  0  0
  -25.3748  -31.3698   26.1476 C   0  0  0  0  0  0
  -27.0289  -30.3046   24.6065 C   0  0  0  0  0  0
  -27.6054  -32.4311   25.7474 C   0  0  0  0  0  0
  -27.5580  -37.1817   24.8472 C   0  0  0  0  0  0
  -21.4118  -29.3026   22.3759 N   0  0  0  0  0  0
  -26.4304  -37.3793   23.9399 N   0  0  0  0  0  0
  -24.6614  -31.0818   22.1023 N   0  0  0  0  0  0
  -23.4173  -28.8216   23.3059 O   0  0  0  0  0  0
  -28.4166  -26.7675   20.0199 O   0  0  0  0  0  0
  -26.5591  -34.8923   22.4692 O   0  0  0  0  0  0
  -23.5309  -32.1455   23.7536 O   0  0  0  0  0  0
  -29.7813  -23.6195   17.8846 C   0  0  0  0  0  0
  -29.7987  -22.2213   18.0648 C   0  0  0  0  0  0
  -30.5803  -23.9172   20.1659 C   0  0  0  0  0  0
  -30.1994  -24.4748   18.9268 C   0  0  0  0  0  0
  -30.2397  -21.6594   19.2837 C   0  0  0  0  0  0
  -30.6014  -22.5192   20.3495 C   0  0  0  0  0  0
  -30.3113  -25.9750   18.6869 C   0  0  0  0  0  0
  -30.4033  -20.1467   19.3967 C   0  0  0  0  0  0
  -29.1539  -19.3955   19.8927 C   0  0  0  0  0  0
  -29.4642  -17.9263   20.2555 C   0  0  0  0  0  0
  -29.9803  -17.7643   21.6990 C   0  0  0  0  0  0
  -30.8510  -16.5181   21.9484 C   0  0  0  0  0  0
  -28.9737  -26.7298   18.7084 C   0  0  0  0  0  0
  -30.2251  -15.2664   21.5175 N   0  0  0  0  0  0
  -31.1168  -21.8883   21.8747 Cl  0  0  0  0  0  0
  -31.4568  -12.3859   19.0984 H   0  0  0  0  0  0
  -30.3018  -11.2745   19.7772 H   0  0  0  0  0  0
  -29.7150  -11.8046   17.4026 H   0  0  0  0  0  0
  -29.6565  -13.5082   17.7757 H   0  0  0  0  0  0
  -27.8090  -11.3186   18.7903 H   0  0  0  0  0  0
  -27.3536  -12.6649   17.7838 H   0  0  0  0  0  0
  -27.7190  -14.2554   19.5996 H   0  0  0  0  0  0
  -28.6683  -11.9229   21.3313 H   0  0  0  0  0  0
  -28.4558  -13.5513   21.8785 H   0  0  0  0  0  0
  -25.2752   -9.5694   22.4777 H   0  0  0  0  0  0
  -24.0034   -7.4616   22.7436 H   0  0  0  0  0  0
  -21.0879   -8.8741   19.8931 H   0  0  0  0  0  0
  -22.3685  -10.9680   19.6159 H   0  0  0  0  0  0
  -21.1998   -7.6164   23.9741 H   0  0  0  0  0  0
  -21.1468   -6.0523   25.9089 H   0  0  0  0  0  0
  -22.0601   -2.7632   23.2826 H   0  0  0  0  0  0
  -22.4143  -11.9894   22.4796 H   0  0  0  0  0  0
  -21.1114  -13.1241   22.2583 H   0  0  0  0  0  0
  -24.6795  -15.8550   20.5399 H   0  0  0  0  0  0
  -26.3003  -15.6305   20.1206 H   0  0  0  0  0  0
  -26.7088  -32.5565   23.1180 H   0  0  0  0  0  0
  -25.0047  -33.9809   25.0488 H   0  0  0  0  0  0
  -22.6839  -31.3059   21.4119 H   0  0  0  0  0  0
  -23.3731  -35.9675   23.3344 H   0  0  0  0  0  0
  -24.3577  -36.8887   22.2043 H   0  0  0  0  0  0
  -23.7267  -37.6549   23.6622 H   0  0  0  0  0  0
  -26.0283  -31.6064   20.5924 H   0  0  0  0  0  0
  -26.8131  -30.9010   21.9784 H   0  0  0  0  0  0
  -28.1003  -29.1342   21.1614 H   0  0  0  0  0  0
  -26.0906  -25.9813   19.0166 H   0  0  0  0  0  0
  -23.9837  -27.2800   19.0510 H   0  0  0  0  0  0
  -23.7110  -30.5925   19.4045 H   0  0  0  0  0  0
  -22.7323  -29.2350   19.8760 H   0  0  0  0  0  0
  -25.1289  -36.1988   25.0832 H   0  0  0  0  0  0
  -20.9934  -28.3197   24.1454 H   0  0  0  0  0  0
  -20.5654  -26.2247   23.3599 H   0  0  0  0  0  0
  -21.6629  -26.7443   22.1209 H   0  0  0  0  0  0
  -19.6895  -25.6302   21.1227 H   0  0  0  0  0  0
  -19.6673  -27.3209   20.6752 H   0  0  0  0  0  0
  -17.4182  -26.6664   21.4030 H   0  0  0  0  0  0
  -18.0318  -26.0059   22.9015 H   0  0  0  0  0  0
  -19.7924  -30.7247   24.2291 H   0  0  0  0  0  0
  -17.5007  -31.6266   24.5158 H   0  0  0  0  0  0
  -15.5340  -30.2995   23.7641 H   0  0  0  0  0  0
  -15.8654  -28.0828   22.7056 H   0  0  0  0  0  0
  -24.5904  -30.7067   25.7813 H   0  0  0  0  0  0
  -24.8967  -32.2856   26.4958 H   0  0  0  0  0  0
  -25.8113  -30.8836   27.0209 H   0  0  0  0  0  0
  -26.2818  -29.6807   24.1144 H   0  0  0  0  0  0
  -27.4099  -29.7275   25.4503 H   0  0  0  0  0  0
  -27.8637  -30.4371   23.9178 H   0  0  0  0  0  0
  -27.2676  -33.3594   26.2093 H   0  0  0  0  0  0
  -28.3840  -32.6895   25.0284 H   0  0  0  0  0  0
  -28.0744  -31.8406   26.5355 H   0  0  0  0  0  0
  -28.2627  -38.0087   24.7475 H   0  0  0  0  0  0
  -28.1041  -36.2610   24.6350 H   0  0  0  0  0  0
  -27.2286  -37.1538   25.8876 H   0  0  0  0  0  0
  -20.9269  -29.8746   21.6990 H   0  0  0  0  0  0
  -26.0191  -38.2879   24.1374 H   0  0  0  0  0  0
  -29.4820  -24.0309   16.9290 H   0  0  0  0  0  0
  -29.5121  -21.5792   17.2436 H   0  0  0  0  0  0
  -30.8963  -24.5595   20.9745 H   0  0  0  0  0  0
  -30.7817  -26.1245   17.7135 H   0  0  0  0  0  0
  -30.9959  -26.4148   19.4138 H   0  0  0  0  0  0
  -31.2554  -19.9246   20.0402 H   0  0  0  0  0  0
  -30.6860  -19.7600   18.4176 H   0  0  0  0  0  0
  -28.3879  -19.4335   19.1171 H   0  0  0  0  0  0
  -28.7290  -19.8998   20.7608 H   0  0  0  0  0  0
  -28.5619  -17.3232   20.1471 H   0  0  0  0  0  0
  -30.1815  -17.5185   19.5411 H   0  0  0  0  0  0
  -29.1298  -17.7713   22.3811 H   0  0  0  0  0  0
  -30.5770  -18.6360   21.9726 H   0  0  0  0  0  0
  -31.0701  -16.4346   23.0138 H   0  0  0  0  0  0
  -31.8166  -16.6642   21.4644 H   0  0  0  0  0  0
  -28.2823  -26.2818   17.9936 H   0  0  0  0  0  0
  -29.1474  -27.7568   18.3787 H   0  0  0  0  0  0
  -29.3538  -15.0080   21.9544 H   0  0  0  0  0  0
  1 25  1  0  0  0
  1 30  2  0  0  0
  1 84  1  0  0  0
  2  3  1  0  0  0
  2 25  1  0  0  0
  2 86  1  0  0  0
  2 87  1  0  0  0
  3  4  1  0  0  0
  3 88  1  0  0  0
  3 89  1  0  0  0
  4  5  1  0  0  0
  4 90  1  0  0  0
  4 91  1  0  0  0
  5  6  1  0  0  0
  5 26  1  0  0  0
  5 92  1  0  0  0
  6 25  1  0  0  0
  6 93  1  0  0  0
  6 94  1  0  0  0
  7  8  2  0  0  0
  7 26  1  0  0  0
  7 29  1  0  0  0
  8  9  1  0  0  0
  8 22  1  0  0  0
  9 10  1  0  0  0
  9 27  2  0  0  0
 10 11  2  0  0  0
 10 15  1  0  0  0
 11 12  1  0  0  0
 11 95  1  0  0  0
 12 13  2  0  0  0
 12 96  1  0  0  0
 13 14  1  0  0  0
 13 31  1  0  0  0
 14 15  2  0  0  0
 14 97  1  0  0  0
 15 98  1  0  0  0
 16 17  2  0  0  0
 16 21  1  0  0  0
 16 31  1  0  0  0
 17 18  1  0  0  0
 17 99  1  0  0  0
 18 19  2  0  0  0
 18100  1  0  0  0
 19 20  1  0  0  0
 19 24  1  0  0  0
 20 21  2  0  0  0
 20101  1  0  0  0
 21 23  1  0  0  0
 22 28  1  0  0  0
 22 32  2  0  0  0
 26 27  1  0  0  0
 28102  1  0  0  0
 28103  1  0  0  0
 29104  1  0  0  0
 29105  1  0  0  0
 33 34  1  0  0  0
 33 66  1  0  0  0
 33 70  2  0  0  0
 34 36  1  0  0  0
 34 59  1  0  0  0
 34106  1  0  0  0
 35 44  2  0  0  0
 35 45  1  0  0  0
 35 68  1  0  0  0
 36 56  1  0  0  0
 36107  1  0  0  0
 37 39  1  0  0  0
 37 47  1  0  0  0
 37 66  1  0  0  0
 37108  1  0  0  0
 38 43  2  0  0  0
 38 46  1  0  0  0
 38 47  1  0  0  0
 39 64  1  0  0  0
 39 67  2  0  0  0
 40 52  1  0  0  0
 40 53  2  0  0  0
 40 58  1  0  0  0
 41109  1  0  0  0
 41110  1  0  0  0
 41111  1  0  0  0
 41 48  1  0  0  0
 42 43  1  0  0  0
 42 66  1  0  0  0
 42112  1  0  0  0
 42113  1  0  0  0
 43 44  1  0  0  0
 44114  1  0  0  0
 45 46  2  0  0  0
 45115  1  0  0  0
 46116  1  0  0  0
 47117  1  0  0  0
 47118  1  0  0  0
 48 56  1  0  0  0
 48 65  1  0  0  0
 48119  1  0  0  0
 49 50  1  0  0  0
 49 53  1  0  0  0
 49 64  1  0  0  0
 49120  1  0  0  0
 50 51  1  0  0  0
 50121  1  0  0  0
 50122  1  0  0  0
 51 52  1  0  0  0
 51123  1  0  0  0
 51124  1  0  0  0
 52125  1  0  0  0
 52126  1  0  0  0
 53 54  1  0  0  0
 54 55  2  0  0  0
 54127  1  0  0  0
 55 57  1  0  0  0
 55128  1  0  0  0
 56 69  2  0  0  0
 57 58  2  0  0  0
 57129  1  0  0  0
 58130  1  0  0  0
 59 60  1  0  0  0
 59 61  1  0  0  0
 59 62  1  0  0  0
 60131  1  0  0  0
 60132  1  0  0  0
 60133  1  0  0  0
 61134  1  0  0  0
 61135  1  0  0  0
 61136  1  0  0  0
 62137  1  0  0  0
 62138  1  0  0  0
 62139  1  0  0  0
 63 65  1  0  0  0
 63140  1  0  0  0
 63141  1  0  0  0
 63142  1  0  0  0
 64143  1  0  0  0
 65144  1  0  0  0
 68 83  1  0  0  0
 71 72  2  0  0  0
 71 74  1  0  0  0
 71145  1  0  0  0
 72 75  1  0  0  0
 72146  1  0  0  0
 73 74  2  0  0  0
 73 76  1  0  0  0
 73147  1  0  0  0
 74 77  1  0  0  0
 75 76  2  0  0  0
 75 78  1  0  0  0
 76 85  1  0  0  0
 77 83  1  0  0  0
 77148  1  0  0  0
 77149  1  0  0  0
 78 79  1  0  0  0
 78150  1  0  0  0
 78151  1  0  0  0
 79 80  1  0  0  0
 79152  1  0  0  0
 79153  1  0  0  0
 80 81  1  0  0  0
 80154  1  0  0  0
 80155  1  0  0  0
 81 82  1  0  0  0
 81156  1  0  0  0
 81157  1  0  0  0
 82 84  1  0  0  0
 82158  1  0  0  0
 82159  1  0  0  0
 83160  1  0  0  0
 83161  1  0  0  0
 84162  1  0  0  0
M  ISO  4   1 100  68 101  83 101  84 100
M  END
> <chiral flag>
0

> <version>
0

> <s_m_source_file>
/data/baiqing/PycharmProjects/Reinvent-master-3.2/result/LINK_invent/BTK/process_docking_weight1_custom_sum_contain_oxygen_bond_distance_aromatic_linkinvent_7_9_3/rearranged_h_0037.sdf

> <i_m_source_file_index>
89

> <r_mmod_Potential_Energy-OPLS-2005>
-55.798511505127

> <r_mmod_Stretch_Energy-OPLS-2005>
32.2601470947266

> <r_mmod_Bend_Energy-OPLS-2005>
85.3865203857422

> <r_mmod_Torsional_Energy-OPLS-2005>
228.482635498047

> <r_mmod_Improper_Torsional_Energy-OPLS-2005>
2.02190685272217

> <r_mmod_Van_der_Waal_Energy-OPLS-2005>
145.595687866211

> <r_mmod_Electrostatic_Energy-OPLS-2005>
-354.495666503906

> <r_mmod_Solvation_Energy-OPLS-2005>
-201.825561523438

> <b_mmod_Minimization_Converged-OPLS-2005>
0

> <r_mmod_RMS_Derivative-OPLS-2005>
2.0856568813324

$$$$
89
                    3D
 Structure written by MMmdl.
150158  0  0  1  0            999 V2000
  -30.5029  -14.9851   20.4756 C   0  0  0  0  0  0
  -30.4661  -12.6231   19.4824 C   0  0  0  0  0  0
  -29.5254  -12.5656   18.2503 C   0  0  0  0  0  0
  -28.0565  -12.3303   18.6664 C   0  0  0  0  0  0
  -27.6439  -13.2203   19.8643 C   0  0  2  0  0  0
  -28.7109  -13.1577   20.9876 C   0  0  0  0  0  0
  -25.2397  -13.8075   20.5569 C   0  0  0  0  0  0
  -24.1752  -13.0325   20.9207 C   0  0  0  0  0  0
  -24.6406  -11.6837   20.8790 C   0  0  0  0  0  0
  -23.9089  -10.4228   21.0420 C   0  0  0  0  0  0
  -24.3632   -9.4150   21.9197 C   0  0  0  0  0  0
  -23.6302   -8.2194   22.0754 C   0  0  0  0  0  0
  -22.4283   -8.0258   21.3541 C   0  0  0  0  0  0
  -21.9928   -9.0228   20.4637 C   0  0  0  0  0  0
  -22.7267  -10.2097   20.3059 C   0  0  0  0  0  0
  -21.6843   -6.0738   22.5284 C   0  0  0  0  0  0
  -21.4001   -6.5635   23.8220 C   0  0  0  0  0  0
  -21.3662   -5.6779   24.9177 C   0  0  0  0  0  0
  -21.6054   -4.3045   24.7219 C   0  0  0  0  0  0
  -21.8810   -3.8146   23.4334 C   0  0  0  0  0  0
  -21.9182   -4.6969   22.3396 C   0  0  0  0  0  0
  -22.7775  -13.5123   21.1864 C   0  0  0  0  0  0
  -22.1658   -4.2168   21.0968 F   0  0  0  0  0  0
  -21.5649   -3.4520   25.7722 F   0  0  0  0  0  0
  -29.9644  -13.6819   20.4142 N   0  0  0  0  0  0
  -26.2939  -12.9315   20.3372 N   0  0  0  0  0  0
  -25.9359  -11.6470   20.5866 N   0  0  0  0  0  0
  -22.0438  -12.8139   22.0454 N   0  0  0  0  0  0
  -25.3735  -15.1766   20.3675 N   0  0  0  0  0  0
  -31.6749  -15.0734   20.0830 O   0  0  0  0  0  0
  -21.6626   -6.8877   21.4245 O   0  0  0  0  0  0
  -22.3450  -14.5430   20.6717 O   0  0  0  0  0  0
  -24.6442  -31.8448   23.1873 C   0  0  0  0  0  0
  -25.9211  -32.4700   23.8272 C   0  0  1  0  0  0
  -27.2311  -27.1444   20.1566 C   0  0  0  0  0  0
  -25.5961  -33.8505   24.2202 N   0  0  0  0  0  0
  -23.4491  -30.4637   21.5321 C   0  0  2  0  0  0
  -24.9007  -28.8883   20.1134 C   0  0  0  0  0  0
  -22.7578  -29.4544   22.4843 C   0  0  0  0  0  0
  -18.0313  -28.1381   22.8478 C   0  0  0  0  0  0
  -24.1494  -36.7266   23.2639 C   0  0  0  0  0  0
  -26.0033  -30.7219   21.3832 C   0  0  0  0  0  0
  -26.0767  -29.3314   20.7312 C   0  0  0  0  0  0
  -27.2423  -28.4779   20.7329 C   0  0  0  0  0  0
  -26.0258  -26.8020   19.5011 C   0  0  0  0  0  0
  -24.8870  -27.6371   19.4822 C   0  0  0  0  0  0
  -23.6778  -29.7915   20.1523 C   0  0  0  0  0  0
  -25.4122  -36.3046   24.0321 C   0  0  1  0  0  0
  -20.5927  -28.3725   23.1224 C   0  0  2  0  0  0
  -20.6807  -26.9428   22.5398 C   0  0  0  0  0  0
  -19.5772  -26.6371   21.5215 C   0  0  0  0  0  0
  -18.1953  -26.7922   22.1627 C   0  0  0  0  0  0
  -19.1567  -28.8869   23.2847 C   0  0  0  0  0  0
  -18.9475  -30.1457   23.8882 C   0  0  0  0  0  0
  -17.6473  -30.6581   24.0548 C   0  0  0  0  0  0
  -25.9072  -34.9417   23.5071 C   0  0  0  0  0  0
  -16.5367  -29.9075   23.6314 C   0  0  0  0  0  0
  -16.7297  -28.6483   23.0361 C   0  0  0  0  0  0
  -26.4529  -31.6547   25.0699 C   0  0  0  0  0  0
  -25.3710  -31.3742   26.1388 C   0  0  0  0  0  0
  -27.0378  -30.2948   24.6243 C   0  0  0  0  0  0
  -27.6077  -32.4282   25.7496 C   0  0  0  0  0  0
  -27.5579  -37.1793   24.8459 C   0  0  0  0  0  0
  -21.4267  -29.3060   22.3602 N   0  0  0  0  0  0
  -26.4287  -37.3755   23.9406 N   0  0  0  0  0  0
  -24.7188  -31.0310   22.0901 N   0  0  0  0  0  0
  -23.4220  -28.8080   23.2982 O   0  0  0  0  0  0
  -28.3035  -26.1773   20.2076 O   0  0  0  0  0  0
  -26.5649  -34.8923   22.4646 O   0  0  0  0  0  0
  -23.5557  -32.1313   23.7100 O   0  0  0  0  0  0
  -29.5971  -19.1784   21.2701 C   0  0  0  0  0  0
  -29.4357  -20.3192   20.3515 C   0  0  0  0  0  0
  -29.9480  -17.9803   20.5974 C   0  0  0  0  0  0
  -28.1970  -16.3284   20.9347 C   0  0  0  0  0  0
  -28.6245  -21.7535   20.4878 C   0  0  0  0  0  0
  -29.1170  -23.3483   20.2823 C   0  0  0  0  0  0
  -28.0330  -24.6433   20.2714 C   0  0  0  0  0  0
  -29.7291  -16.3991   20.9947 C   0  0  1  0  0  0
  -29.7895  -19.8034   19.1660 N   0  0  0  0  0  0
  -30.0653  -18.4026   19.2954 O   0  0  0  0  0  0
  -31.4864  -12.8196   19.1523 H   0  0  0  0  0  0
  -30.5102  -11.6523   19.9786 H   0  0  0  0  0  0
  -29.8479  -11.7872   17.5573 H   0  0  0  0  0  0
  -29.5983  -13.5078   17.7047 H   0  0  0  0  0  0
  -27.9471  -11.2792   18.9346 H   0  0  0  0  0  0
  -27.3891  -12.4985   17.8192 H   0  0  0  0  0  0
  -27.6203  -14.2266   19.4573 H   0  0  0  0  0  0
  -28.8332  -12.1239   21.3152 H   0  0  0  0  0  0
  -28.4354  -13.6669   21.9072 H   0  0  0  0  0  0
  -25.2767   -9.5624   22.4781 H   0  0  0  0  0  0
  -24.0012   -7.4569   22.7454 H   0  0  0  0  0  0
  -21.0873   -8.8751   19.8921 H   0  0  0  0  0  0
  -22.3743  -10.9651   19.6177 H   0  0  0  0  0  0
  -21.1993   -7.6140   23.9742 H   0  0  0  0  0  0
  -21.1508   -6.0497   25.9088 H   0  0  0  0  0  0
  -22.0598   -2.7616   23.2815 H   0  0  0  0  0  0
  -22.4067  -11.9836   22.4889 H   0  0  0  0  0  0
  -21.1062  -13.1176   22.2653 H   0  0  0  0  0  0
  -24.5835  -15.8063   20.4572 H   0  0  0  0  0  0
  -26.2114  -15.6344   20.0354 H   0  0  0  0  0  0
  -26.7281  -32.5317   23.1010 H   0  0  0  0  0  0
  -25.0098  -33.9600   25.0345 H   0  0  0  0  0  0
  -22.7516  -31.2892   21.3760 H   0  0  0  0  0  0
  -23.3763  -35.9584   23.3277 H   0  0  0  0  0  0
  -24.3581  -36.8918   22.2057 H   0  0  0  0  0  0
  -23.7251  -37.6463   23.6681 H   0  0  0  0  0  0
  -26.1526  -31.4736   20.6070 H   0  0  0  0  0  0
  -26.8752  -30.7786   22.0215 H   0  0  0  0  0  0
  -28.1393  -28.8169   21.2325 H   0  0  0  0  0  0
  -25.9287  -25.8535   18.9980 H   0  0  0  0  0  0
  -23.9901  -27.2959   18.9830 H   0  0  0  0  0  0
  -23.8204  -30.5668   19.3976 H   0  0  0  0  0  0
  -22.7926  -29.2358   19.8386 H   0  0  0  0  0  0
  -25.1316  -36.1874   25.0813 H   0  0  0  0  0  0
  -21.0017  -28.3323   24.1347 H   0  0  0  0  0  0
  -20.5706  -26.2344   23.3621 H   0  0  0  0  0  0
  -21.6671  -26.7435   22.1186 H   0  0  0  0  0  0
  -19.6936  -25.6268   21.1274 H   0  0  0  0  0  0
  -19.6709  -27.3157   20.6723 H   0  0  0  0  0  0
  -17.4232  -26.6668   21.4028 H   0  0  0  0  0  0
  -18.0345  -26.0060   22.9019 H   0  0  0  0  0  0
  -19.7946  -30.7274   24.2267 H   0  0  0  0  0  0
  -17.5021  -31.6264   24.5147 H   0  0  0  0  0  0
  -15.5365  -30.2976   23.7623 H   0  0  0  0  0  0
  -15.8702  -28.0785   22.7099 H   0  0  0  0  0  0
  -24.5844  -30.7163   25.7679 H   0  0  0  0  0  0
  -24.8957  -32.2939   26.4814 H   0  0  0  0  0  0
  -25.7958  -30.8873   27.0176 H   0  0  0  0  0  0
  -26.2980  -29.6683   24.1247 H   0  0  0  0  0  0
  -27.4019  -29.7236   25.4794 H   0  0  0  0  0  0
  -27.8884  -30.4205   23.9535 H   0  0  0  0  0  0
  -27.2679  -33.3572   26.2085 H   0  0  0  0  0  0
  -28.3894  -32.6848   25.0333 H   0  0  0  0  0  0
  -28.0737  -31.8394   26.5407 H   0  0  0  0  0  0
  -28.2587  -38.0099   24.7513 H   0  0  0  0  0  0
  -28.1092  -36.2637   24.6279 H   0  0  0  0  0  0
  -27.2295  -37.1428   25.8860 H   0  0  0  0  0  0
  -20.9477  -29.8789   21.6794 H   0  0  0  0  0  0
  -26.0162  -38.2829   24.1398 H   0  0  0  0  0  0
  -29.2979  -19.1962   22.3086 H   0  0  0  0  0  0
  -27.7512  -17.1790   21.4528 H   0  0  0  0  0  0
  -27.7570  -15.4862   21.4393 H   0  0  0  0  0  0
  -27.8537  -16.3848   19.9016 H   0  0  0  0  0  0
  -28.1619  -21.7354   21.4747 H   0  0  0  0  0  0
  -27.7690  -21.6562   19.8185 H   0  0  0  0  0  0
  -29.6616  -23.3937   19.3396 H   0  0  0  0  0  0
  -29.8623  -23.5515   21.0512 H   0  0  0  0  0  0
  -27.4150  -24.5157   21.1620 H   0  0  0  0  0  0
  -27.3705  -24.4089   19.4413 H   0  0  0  0  0  0
  -29.9722  -16.3606   22.0560 H   0  0  0  0  0  0
  1 25  1  0  0  0
  1 30  2  0  0  0
  1 78  1  0  0  0
  2  3  1  0  0  0
  2 25  1  0  0  0
  2 81  1  0  0  0
  2 82  1  0  0  0
  3  4  1  0  0  0
  3 83  1  0  0  0
  3 84  1  0  0  0
  4  5  1  0  0  0
  4 85  1  0  0  0
  4 86  1  0  0  0
  5  6  1  0  0  0
  5 26  1  0  0  0
  5 87  1  0  0  0
  6 25  1  0  0  0
  6 88  1  0  0  0
  6 89  1  0  0  0
  7  8  2  0  0  0
  7 26  1  0  0  0
  7 29  1  0  0  0
  8  9  1  0  0  0
  8 22  1  0  0  0
  9 10  1  0  0  0
  9 27  2  0  0  0
 10 11  2  0  0  0
 10 15  1  0  0  0
 11 12  1  0  0  0
 11 90  1  0  0  0
 12 13  2  0  0  0
 12 91  1  0  0  0
 13 14  1  0  0  0
 13 31  1  0  0  0
 14 15  2  0  0  0
 14 92  1  0  0  0
 15 93  1  0  0  0
 16 17  2  0  0  0
 16 21  1  0  0  0
 16 31  1  0  0  0
 17 18  1  0  0  0
 17 94  1  0  0  0
 18 19  2  0  0  0
 18 95  1  0  0  0
 19 20  1  0  0  0
 19 24  1  0  0  0
 20 21  2  0  0  0
 20 96  1  0  0  0
 21 23  1  0  0  0
 22 28  1  0  0  0
 22 32  2  0  0  0
 26 27  1  0  0  0
 28 97  1  0  0  0
 28 98  1  0  0  0
 29 99  1  0  0  0
 29100  1  0  0  0
 33 34  1  0  0  0
 33 66  1  0  0  0
 33 70  2  0  0  0
 34 36  1  0  0  0
 34 59  1  0  0  0
 34101  1  0  0  0
 35 44  2  0  0  0
 35 45  1  0  0  0
 35 68  1  0  0  0
 36 56  1  0  0  0
 36102  1  0  0  0
 37 39  1  0  0  0
 37 47  1  0  0  0
 37 66  1  0  0  0
 37103  1  0  0  0
 38 43  2  0  0  0
 38 46  1  0  0  0
 38 47  1  0  0  0
 39 64  1  0  0  0
 39 67  2  0  0  0
 40 52  1  0  0  0
 40 53  2  0  0  0
 40 58  1  0  0  0
 41104  1  0  0  0
 41105  1  0  0  0
 41106  1  0  0  0
 41 48  1  0  0  0
 42 43  1  0  0  0
 42 66  1  0  0  0
 42107  1  0  0  0
 42108  1  0  0  0
 43 44  1  0  0  0
 44109  1  0  0  0
 45 46  2  0  0  0
 45110  1  0  0  0
 46111  1  0  0  0
 47112  1  0  0  0
 47113  1  0  0  0
 48 56  1  0  0  0
 48 65  1  0  0  0
 48114  1  0  0  0
 49 50  1  0  0  0
 49 53  1  0  0  0
 49 64  1  0  0  0
 49115  1  0  0  0
 50 51  1  0  0  0
 50116  1  0  0  0
 50117  1  0  0  0
 51 52  1  0  0  0
 51118  1  0  0  0
 51119  1  0  0  0
 52120  1  0  0  0
 52121  1  0  0  0
 53 54  1  0  0  0
 54 55  2  0  0  0
 54122  1  0  0  0
 55 57  1  0  0  0
 55123  1  0  0  0
 56 69  2  0  0  0
 57 58  2  0  0  0
 57124  1  0  0  0
 58125  1  0  0  0
 59 60  1  0  0  0
 59 61  1  0  0  0
 59 62  1  0  0  0
 60126  1  0  0  0
 60127  1  0  0  0
 60128  1  0  0  0
 61129  1  0  0  0
 61130  1  0  0  0
 61131  1  0  0  0
 62132  1  0  0  0
 62133  1  0  0  0
 62134  1  0  0  0
 63 65  1  0  0  0
 63135  1  0  0  0
 63136  1  0  0  0
 63137  1  0  0  0
 64138  1  0  0  0
 65139  1  0  0  0
 68 77  1  0  0  0
 71 72  1  0  0  0
 71 73  2  0  0  0
 71140  1  0  0  0
 72 75  1  0  0  0
 72 79  2  0  0  0
 73 78  1  0  0  0
 73 80  1  0  0  0
 74141  1  0  0  0
 74142  1  0  0  0
 74143  1  0  0  0
 74 78  1  0  0  0
 75 76  1  0  0  0
 75144  1  0  0  0
 75145  1  0  0  0
 76 77  1  0  0  0
 76146  1  0  0  0
 76147  1  0  0  0
 77148  1  0  0  0
 77149  1  0  0  0
 78150  1  0  0  0
 79 80  1  0  0  0
M  ISO  4   1 100  68 101  77 101  78 100
M  END
> <chiral flag>
0

> <version>
0

> <s_m_source_file>
/data/baiqing/PycharmProjects/Reinvent-master-3.2/result/LINK_invent/BTK/process_docking_weight1_custom_sum_contain_oxygen_bond_distance_aromatic_linkinvent_7_9_3/rearranged_h_0037.sdf

> <i_m_source_file_index>
90

> <r_mmod_Potential_Energy-OPLS-2005>
567.360656738281

> <r_mmod_Stretch_Energy-OPLS-2005>
266.606628417969

> <r_mmod_Bend_Energy-OPLS-2005>
315.523223876953

> <r_mmod_Torsional_Energy-OPLS-2005>
203.435760498047

> <r_mmod_Improper_Torsional_Energy-OPLS-2005>
8.24095058441162

> <r_mmod_Van_der_Waal_Energy-OPLS-2005>
127.430885314941

> <r_mmod_Electrostatic_Energy-OPLS-2005>
-324.071105957031

> <r_mmod_Solvation_Energy-OPLS-2005>
-219.94938659668

> <b_mmod_Minimization_Converged-OPLS-2005>
0

> <r_mmod_RMS_Derivative-OPLS-2005>
1.85349094867706

$$$$
90
                    3D
 Structure written by MMmdl.
165173  0  0  1  0            999 V2000
  -30.7032  -14.3839   20.6139 C   0  0  0  0  0  0
  -30.4246  -12.2611   19.4055 C   0  0  0  0  0  0
  -29.4961  -12.5144   18.1997 C   0  0  0  0  0  0
  -28.0132  -12.3848   18.6053 C   0  0  0  0  0  0
  -27.6697  -13.1930   19.8854 C   0  0  2  0  0  0
  -28.7046  -12.9032   20.9969 C   0  0  0  0  0  0
  -25.2611  -13.8126   20.5650 C   0  0  0  0  0  0
  -24.1848  -13.0425   20.9143 C   0  0  0  0  0  0
  -24.6385  -11.6888   20.8710 C   0  0  0  0  0  0
  -23.9045  -10.4284   21.0392 C   0  0  0  0  0  0
  -24.3604   -9.4207   21.9176 C   0  0  0  0  0  0
  -23.6287   -8.2240   22.0753 C   0  0  0  0  0  0
  -22.4268   -8.0274   21.3544 C   0  0  0  0  0  0
  -21.9897   -9.0244   20.4642 C   0  0  0  0  0  0
  -22.7218  -10.2123   20.3045 C   0  0  0  0  0  0
  -21.6851   -6.0731   22.5283 C   0  0  0  0  0  0
  -21.4012   -6.5637   23.8216 C   0  0  0  0  0  0
  -21.3661   -5.6791   24.9180 C   0  0  0  0  0  0
  -21.6043   -4.3055   24.7232 C   0  0  0  0  0  0
  -21.8818   -3.8143   23.4356 C   0  0  0  0  0  0
  -21.9192   -4.6958   22.3409 C   0  0  0  0  0  0
  -22.7877  -13.5239   21.1827 C   0  0  0  0  0  0
  -22.1660   -4.2143   21.0987 F   0  0  0  0  0  0
  -21.5631   -3.4540   25.7746 F   0  0  0  0  0  0
  -30.0482  -13.2050   20.4650 N   0  0  0  0  0  0
  -26.3052  -12.9275   20.3375 N   0  0  0  0  0  0
  -25.9303  -11.6443   20.5734 N   0  0  0  0  0  0
  -22.0513  -12.8236   22.0384 N   0  0  0  0  0  0
  -25.4339  -15.1846   20.4075 N   0  0  0  0  0  0
  -31.7861  -14.6411   20.0788 O   0  0  0  0  0  0
  -21.6637   -6.8871   21.4244 O   0  0  0  0  0  0
  -22.3566  -14.5551   20.6684 O   0  0  0  0  0  0
  -24.6081  -31.8699   23.2109 C   0  0  0  0  0  0
  -25.9004  -32.4823   23.8385 C   0  0  1  0  0  0
  -27.2503  -27.4858   20.0866 C   0  0  0  0  0  0
  -25.5896  -33.8619   24.2332 N   0  0  0  0  0  0
  -23.3940  -30.4898   21.5500 C   0  0  2  0  0  0
  -24.8437  -28.9516   20.1230 C   0  0  0  0  0  0
  -22.7372  -29.4650   22.5010 C   0  0  0  0  0  0
  -18.0256  -28.1359   22.8466 C   0  0  0  0  0  0
  -24.1489  -36.7305   23.2643 C   0  0  0  0  0  0
  -25.9162  -30.8503   21.3557 C   0  0  0  0  0  0
  -25.9978  -29.4857   20.7088 C   0  0  0  0  0  0
  -27.2034  -28.7589   20.6839 C   0  0  0  0  0  0
  -26.0811  -26.9423   19.5131 C   0  0  0  0  0  0
  -24.8772  -27.6754   19.5284 C   0  0  0  0  0  0
  -23.6026  -29.8125   20.1675 C   0  0  0  0  0  0
  -25.4108  -36.3114   24.0342 C   0  0  1  0  0  0
  -20.5843  -28.3641   23.1323 C   0  0  2  0  0  0
  -20.6751  -26.9381   22.5414 C   0  0  0  0  0  0
  -19.5749  -26.6368   21.5190 C   0  0  0  0  0  0
  -18.1917  -26.7899   22.1594 C   0  0  0  0  0  0
  -19.1510  -28.8810   23.2887 C   0  0  0  0  0  0
  -18.9456  -30.1410   23.8907 C   0  0  0  0  0  0
  -17.6475  -30.6582   24.0547 C   0  0  0  0  0  0
  -25.9030  -34.9480   23.5135 C   0  0  0  0  0  0
  -16.5353  -29.9089   23.6316 C   0  0  0  0  0  0
  -16.7251  -28.6497   23.0336 C   0  0  0  0  0  0
  -26.4465  -31.6595   25.0698 C   0  0  0  0  0  0
  -25.3751  -31.3703   26.1471 C   0  0  0  0  0  0
  -27.0297  -30.3052   24.6028 C   0  0  0  0  0  0
  -27.6043  -32.4313   25.7475 C   0  0  0  0  0  0
  -27.5583  -37.1808   24.8465 C   0  0  0  0  0  0
  -21.4108  -29.3016   22.3740 N   0  0  0  0  0  0
  -26.4296  -37.3794   23.9413 N   0  0  0  0  0  0
  -24.6572  -31.0833   22.0996 N   0  0  0  0  0  0
  -23.4148  -28.8193   23.3044 O   0  0  0  0  0  0
  -28.4607  -26.8468   20.0177 O   0  0  0  0  0  0
  -26.5578  -34.8941   22.4685 O   0  0  0  0  0  0
  -23.5283  -32.1448   23.7536 O   0  0  0  0  0  0
  -31.3045  -23.4530   21.6014 C   0  0  0  0  0  0
  -29.1064  -23.3012   22.6334 C   0  0  0  0  0  0
  -30.0513  -24.0283   21.8880 C   0  0  0  0  0  0
  -31.6074  -22.1448   22.0278 C   0  0  0  0  0  0
  -29.3908  -21.9904   23.0650 C   0  0  0  0  0  0
  -30.6417  -21.3956   22.7509 C   0  0  0  0  0  0
  -32.9741  -21.5685   21.6870 C   0  0  0  0  0  0
  -28.3249  -21.2468   23.8553 C   0  0  0  0  0  0
  -29.7269  -25.4305   21.4082 C   0  0  0  0  0  0
  -30.9105  -19.9364   23.1108 C   0  0  0  0  0  0
  -30.4518  -19.0314   21.9605 C   0  0  0  0  0  0
  -30.5820  -17.5297   22.2341 C   0  0  0  0  0  0
  -30.0830  -16.7472   21.0149 C   0  0  0  0  0  0
  -28.5221  -25.5000   20.4554 C   0  0  0  0  0  0
  -29.9941  -15.3156   21.2583 N   0  0  0  0  0  0
  -31.4707  -12.3606   19.1101 H   0  0  0  0  0  0
  -30.3154  -11.2358   19.7629 H   0  0  0  0  0  0
  -29.7263  -11.8161   17.3936 H   0  0  0  0  0  0
  -29.6802  -13.5127   17.7993 H   0  0  0  0  0  0
  -27.8031  -11.3267   18.7668 H   0  0  0  0  0  0
  -27.3721  -12.6989   17.7808 H   0  0  0  0  0  0
  -27.7355  -14.2506   19.6288 H   0  0  0  0  0  0
  -28.6590  -11.8507   21.2817 H   0  0  0  0  0  0
  -28.4650  -13.4504   21.9095 H   0  0  0  0  0  0
  -25.2755   -9.5687   22.4742 H   0  0  0  0  0  0
  -24.0000   -7.4635   22.7476 H   0  0  0  0  0  0
  -21.0828   -8.8754   19.8951 H   0  0  0  0  0  0
  -22.3679  -10.9657   19.6148 H   0  0  0  0  0  0
  -21.2001   -7.6142   23.9717 H   0  0  0  0  0  0
  -21.1484   -6.0523   25.9081 H   0  0  0  0  0  0
  -22.0594   -2.7605   23.2859 H   0  0  0  0  0  0
  -22.4129  -11.9902   22.4778 H   0  0  0  0  0  0
  -21.1131  -13.1264   22.2584 H   0  0  0  0  0  0
  -24.6674  -15.8399   20.5156 H   0  0  0  0  0  0
  -26.2908  -15.6261   20.0983 H   0  0  0  0  0  0
  -26.7073  -32.5581   23.1154 H   0  0  0  0  0  0
  -25.0069  -33.9754   25.0498 H   0  0  0  0  0  0
  -22.6821  -31.3053   21.4035 H   0  0  0  0  0  0
  -23.3740  -35.9647   23.3318 H   0  0  0  0  0  0
  -24.3587  -36.8905   22.2055 H   0  0  0  0  0  0
  -23.7252  -37.6520   23.6647 H   0  0  0  0  0  0
  -26.0141  -31.6170   20.5858 H   0  0  0  0  0  0
  -26.8099  -30.9077   21.9649 H   0  0  0  0  0  0
  -28.1040  -29.1741   21.1147 H   0  0  0  0  0  0
  -26.1044  -25.9726   19.0358 H   0  0  0  0  0  0
  -23.9909  -27.2547   19.0753 H   0  0  0  0  0  0
  -23.7078  -30.5837   19.4037 H   0  0  0  0  0  0
  -22.7303  -29.2254   19.8732 H   0  0  0  0  0  0
  -25.1280  -36.1990   25.0832 H   0  0  0  0  0  0
  -20.9908  -28.3215   24.1454 H   0  0  0  0  0  0
  -20.5642  -26.2242   23.3591 H   0  0  0  0  0  0
  -21.6626  -26.7426   22.1215 H   0  0  0  0  0  0
  -19.6928  -25.6280   21.1216 H   0  0  0  0  0  0
  -19.6722  -27.3174   20.6722 H   0  0  0  0  0  0
  -17.4182  -26.6624   21.4001 H   0  0  0  0  0  0
  -18.0344  -26.0042   22.8997 H   0  0  0  0  0  0
  -19.7952  -30.7189   24.2299 H   0  0  0  0  0  0
  -17.5056  -31.6276   24.5131 H   0  0  0  0  0  0
  -15.5360  -30.3006   23.7663 H   0  0  0  0  0  0
  -15.8631  -28.0838   22.7054 H   0  0  0  0  0  0
  -24.5907  -30.7051   25.7844 H   0  0  0  0  0  0
  -24.8940  -32.2855   26.4936 H   0  0  0  0  0  0
  -25.8120  -30.8886   27.0223 H   0  0  0  0  0  0
  -26.2821  -29.6798   24.1130 H   0  0  0  0  0  0
  -27.4155  -29.7299   25.4450 H   0  0  0  0  0  0
  -27.8609  -30.4385   23.9094 H   0  0  0  0  0  0
  -27.2649  -33.3591   26.2091 H   0  0  0  0  0  0
  -28.3849  -32.6916   25.0313 H   0  0  0  0  0  0
  -28.0717  -31.8412   26.5369 H   0  0  0  0  0  0
  -28.2602  -38.0102   24.7505 H   0  0  0  0  0  0
  -28.1077  -36.2633   24.6302 H   0  0  0  0  0  0
  -27.2289  -37.1465   25.8864 H   0  0  0  0  0  0
  -20.9266  -29.8741   21.6971 H   0  0  0  0  0  0
  -26.0188  -38.2868   24.1435 H   0  0  0  0  0  0
  -32.0378  -24.0165   21.0399 H   0  0  0  0  0  0
  -28.1491  -23.7494   22.8647 H   0  0  0  0  0  0
  -33.5506  -22.2529   21.0642 H   0  0  0  0  0  0
  -32.8887  -20.6307   21.1393 H   0  0  0  0  0  0
  -33.5484  -21.3871   22.5963 H   0  0  0  0  0  0
  -27.4033  -21.8258   23.9264 H   0  0  0  0  0  0
  -28.6707  -21.0549   24.8712 H   0  0  0  0  0  0
  -28.0743  -20.2942   23.3896 H   0  0  0  0  0  0
  -30.6032  -25.8482   20.9108 H   0  0  0  0  0  0
  -29.5397  -26.0596   22.2788 H   0  0  0  0  0  0
  -30.3952  -19.6692   24.0333 H   0  0  0  0  0  0
  -31.9663  -19.7700   23.3222 H   0  0  0  0  0  0
  -31.0065  -19.2833   21.0564 H   0  0  0  0  0  0
  -29.4088  -19.2553   21.7339 H   0  0  0  0  0  0
  -29.9997  -17.2647   23.1177 H   0  0  0  0  0  0
  -31.6216  -17.2729   22.4448 H   0  0  0  0  0  0
  -30.7059  -16.9650   20.1444 H   0  0  0  0  0  0
  -29.0772  -17.0801   20.7528 H   0  0  0  0  0  0
  -27.6099  -25.1796   20.9626 H   0  0  0  0  0  0
  -28.6666  -24.8520   19.5898 H   0  0  0  0  0  0
  -29.1416  -14.9880   21.6887 H   0  0  0  0  0  0
  1 25  1  0  0  0
  1 30  2  0  0  0
  1 85  1  0  0  0
  2  3  1  0  0  0
  2 25  1  0  0  0
  2 86  1  0  0  0
  2 87  1  0  0  0
  3  4  1  0  0  0
  3 88  1  0  0  0
  3 89  1  0  0  0
  4  5  1  0  0  0
  4 90  1  0  0  0
  4 91  1  0  0  0
  5  6  1  0  0  0
  5 26  1  0  0  0
  5 92  1  0  0  0
  6 25  1  0  0  0
  6 93  1  0  0  0
  6 94  1  0  0  0
  7  8  2  0  0  0
  7 26  1  0  0  0
  7 29  1  0  0  0
  8  9  1  0  0  0
  8 22  1  0  0  0
  9 10  1  0  0  0
  9 27  2  0  0  0
 10 11  2  0  0  0
 10 15  1  0  0  0
 11 12  1  0  0  0
 11 95  1  0  0  0
 12 13  2  0  0  0
 12 96  1  0  0  0
 13 14  1  0  0  0
 13 31  1  0  0  0
 14 15  2  0  0  0
 14 97  1  0  0  0
 15 98  1  0  0  0
 16 17  2  0  0  0
 16 21  1  0  0  0
 16 31  1  0  0  0
 17 18  1  0  0  0
 17 99  1  0  0  0
 18 19  2  0  0  0
 18100  1  0  0  0
 19 20  1  0  0  0
 19 24  1  0  0  0
 20 21  2  0  0  0
 20101  1  0  0  0
 21 23  1  0  0  0
 22 28  1  0  0  0
 22 32  2  0  0  0
 26 27  1  0  0  0
 28102  1  0  0  0
 28103  1  0  0  0
 29104  1  0  0  0
 29105  1  0  0  0
 33 34  1  0  0  0
 33 66  1  0  0  0
 33 70  2  0  0  0
 34 36  1  0  0  0
 34 59  1  0  0  0
 34106  1  0  0  0
 35 44  2  0  0  0
 35 45  1  0  0  0
 35 68  1  0  0  0
 36 56  1  0  0  0
 36107  1  0  0  0
 37 39  1  0  0  0
 37 47  1  0  0  0
 37 66  1  0  0  0
 37108  1  0  0  0
 38 43  2  0  0  0
 38 46  1  0  0  0
 38 47  1  0  0  0
 39 64  1  0  0  0
 39 67  2  0  0  0
 40 52  1  0  0  0
 40 53  2  0  0  0
 40 58  1  0  0  0
 41109  1  0  0  0
 41110  1  0  0  0
 41111  1  0  0  0
 41 48  1  0  0  0
 42 43  1  0  0  0
 42 66  1  0  0  0
 42112  1  0  0  0
 42113  1  0  0  0
 43 44  1  0  0  0
 44114  1  0  0  0
 45 46  2  0  0  0
 45115  1  0  0  0
 46116  1  0  0  0
 47117  1  0  0  0
 47118  1  0  0  0
 48 56  1  0  0  0
 48 65  1  0  0  0
 48119  1  0  0  0
 49 50  1  0  0  0
 49 53  1  0  0  0
 49 64  1  0  0  0
 49120  1  0  0  0
 50 51  1  0  0  0
 50121  1  0  0  0
 50122  1  0  0  0
 51 52  1  0  0  0
 51123  1  0  0  0
 51124  1  0  0  0
 52125  1  0  0  0
 52126  1  0  0  0
 53 54  1  0  0  0
 54 55  2  0  0  0
 54127  1  0  0  0
 55 57  1  0  0  0
 55128  1  0  0  0
 56 69  2  0  0  0
 57 58  2  0  0  0
 57129  1  0  0  0
 58130  1  0  0  0
 59 60  1  0  0  0
 59 61  1  0  0  0
 59 62  1  0  0  0
 60131  1  0  0  0
 60132  1  0  0  0
 60133  1  0  0  0
 61134  1  0  0  0
 61135  1  0  0  0
 61136  1  0  0  0
 62137  1  0  0  0
 62138  1  0  0  0
 62139  1  0  0  0
 63 65  1  0  0  0
 63140  1  0  0  0
 63141  1  0  0  0
 63142  1  0  0  0
 64143  1  0  0  0
 65144  1  0  0  0
 68 84  1  0  0  0
 71 73  2  0  0  0
 71 74  1  0  0  0
 71145  1  0  0  0
 72 73  1  0  0  0
 72 75  2  0  0  0
 72146  1  0  0  0
 73 79  1  0  0  0
 74 76  2  0  0  0
 74 77  1  0  0  0
 75 76  1  0  0  0
 75 78  1  0  0  0
 76 80  1  0  0  0
 77147  1  0  0  0
 77148  1  0  0  0
 77149  1  0  0  0
 78150  1  0  0  0
 78151  1  0  0  0
 78152  1  0  0  0
 79 84  1  0  0  0
 79153  1  0  0  0
 79154  1  0  0  0
 80 81  1  0  0  0
 80155  1  0  0  0
 80156  1  0  0  0
 81 82  1  0  0  0
 81157  1  0  0  0
 81158  1  0  0  0
 82 83  1  0  0  0
 82159  1  0  0  0
 82160  1  0  0  0
 83 85  1  0  0  0
 83161  1  0  0  0
 83162  1  0  0  0
 84163  1  0  0  0
 84164  1  0  0  0
 85165  1  0  0  0
M  ISO  4   1 100  68 101  84 101  85 100
M  END
> <chiral flag>
0

> <version>
0

> <s_m_source_file>
/data/baiqing/PycharmProjects/Reinvent-master-3.2/result/LINK_invent/BTK/process_docking_weight1_custom_sum_contain_oxygen_bond_distance_aromatic_linkinvent_7_9_3/rearranged_h_0037.sdf

> <i_m_source_file_index>
91

> <r_mmod_Potential_Energy-OPLS-2005>
-84.8200454711914

> <r_mmod_Stretch_Energy-OPLS-2005>
31.6137523651123

> <r_mmod_Bend_Energy-OPLS-2005>
90.5004959106445

> <r_mmod_Torsional_Energy-OPLS-2005>
215.492614746094

> <r_mmod_Improper_Torsional_Energy-OPLS-2005>
5.22196674346924

> <r_mmod_Van_der_Waal_Energy-OPLS-2005>
157.007659912109

> <r_mmod_Electrostatic_Energy-OPLS-2005>
-389.483978271484

> <r_mmod_Solvation_Energy-OPLS-2005>
-203.65380859375

> <b_mmod_Minimization_Converged-OPLS-2005>
0

> <r_mmod_RMS_Derivative-OPLS-2005>
1.78947520256042

$$$$
91
                    3D
 Structure written by MMmdl.
162170  0  0  1  0            999 V2000
  -30.7271  -14.4288   20.5349 C   0  0  0  0  0  0
  -30.4049  -12.2653   19.4314 C   0  0  0  0  0  0
  -29.4926  -12.4703   18.2045 C   0  0  0  0  0  0
  -28.0083  -12.3680   18.6116 C   0  0  0  0  0  0
  -27.6509  -13.2184   19.8649 C   0  0  2  0  0  0
  -28.6913  -13.0150   20.9907 C   0  0  0  0  0  0
  -25.2489  -13.8179   20.5680 C   0  0  0  0  0  0
  -24.1761  -13.0414   20.9209 C   0  0  0  0  0  0
  -24.6345  -11.6888   20.8717 C   0  0  0  0  0  0
  -23.9042  -10.4274   21.0397 C   0  0  0  0  0  0
  -24.3605   -9.4189   21.9194 C   0  0  0  0  0  0
  -23.6282   -8.2227   22.0760 C   0  0  0  0  0  0
  -22.4256   -8.0272   21.3559 C   0  0  0  0  0  0
  -21.9866   -9.0249   20.4681 C   0  0  0  0  0  0
  -22.7186  -10.2138   20.3077 C   0  0  0  0  0  0
  -21.6841   -6.0740   22.5299 C   0  0  0  0  0  0
  -21.4025   -6.5648   23.8242 C   0  0  0  0  0  0
  -21.3654   -5.6807   24.9194 C   0  0  0  0  0  0
  -21.6031   -4.3075   24.7234 C   0  0  0  0  0  0
  -21.8798   -3.8149   23.4362 C   0  0  0  0  0  0
  -21.9184   -4.6961   22.3417 C   0  0  0  0  0  0
  -22.7789  -13.5222   21.1906 C   0  0  0  0  0  0
  -22.1643   -4.2155   21.0989 F   0  0  0  0  0  0
  -21.5628   -3.4552   25.7753 F   0  0  0  0  0  0
  -30.0279  -13.2728   20.4285 N   0  0  0  0  0  0
  -26.2938  -12.9388   20.3286 N   0  0  0  0  0  0
  -25.9275  -11.6527   20.5698 N   0  0  0  0  0  0
  -22.0400  -12.8244   22.0444 N   0  0  0  0  0  0
  -25.4114  -15.1904   20.4119 N   0  0  0  0  0  0
  -31.8831  -14.5599   20.1227 O   0  0  0  0  0  0
  -21.6608   -6.8885   21.4261 O   0  0  0  0  0  0
  -22.3465  -14.5541   20.6765 O   0  0  0  0  0  0
  -24.6165  -31.8687   23.2131 C   0  0  0  0  0  0
  -25.9059  -32.4832   23.8397 C   0  0  1  0  0  0
  -27.1970  -27.4192   20.0941 C   0  0  0  0  0  0
  -25.5916  -33.8630   24.2297 N   0  0  0  0  0  0
  -23.4029  -30.4986   21.5544 C   0  0  2  0  0  0
  -24.8424  -28.9811   20.0952 C   0  0  0  0  0  0
  -22.7433  -29.4659   22.4956 C   0  0  0  0  0  0
  -18.0278  -28.1371   22.8478 C   0  0  0  0  0  0
  -24.1475  -36.7329   23.2638 C   0  0  0  0  0  0
  -25.9366  -30.8283   21.3709 C   0  0  0  0  0  0
  -26.0073  -29.4698   20.7042 C   0  0  0  0  0  0
  -27.1935  -28.6956   20.7042 C   0  0  0  0  0  0
  -26.0348  -26.9820   19.4205 C   0  0  0  0  0  0
  -24.8540  -27.7413   19.4434 C   0  0  0  0  0  0
  -23.6066  -29.8473   20.1629 C   0  0  0  0  0  0
  -25.4110  -36.3118   24.0303 C   0  0  1  0  0  0
  -20.5875  -28.3662   23.1289 C   0  0  2  0  0  0
  -20.6760  -26.9385   22.5423 C   0  0  0  0  0  0
  -19.5752  -26.6365   21.5201 C   0  0  0  0  0  0
  -18.1924  -26.7928   22.1589 C   0  0  0  0  0  0
  -19.1535  -28.8836   23.2888 C   0  0  0  0  0  0
  -18.9458  -30.1434   23.8905 C   0  0  0  0  0  0
  -17.6463  -30.6576   24.0568 C   0  0  0  0  0  0
  -25.9040  -34.9478   23.5089 C   0  0  0  0  0  0
  -16.5350  -29.9069   23.6345 C   0  0  0  0  0  0
  -16.7266  -28.6490   23.0362 C   0  0  0  0  0  0
  -26.4493  -31.6641   25.0740 C   0  0  0  0  0  0
  -25.3774  -31.3777   26.1517 C   0  0  0  0  0  0
  -27.0359  -30.3089   24.6150 C   0  0  0  0  0  0
  -27.6033  -32.4428   25.7506 C   0  0  0  0  0  0
  -27.5576  -37.1817   24.8450 C   0  0  0  0  0  0
  -21.4156  -29.3032   22.3704 N   0  0  0  0  0  0
  -26.4290  -37.3806   23.9391 N   0  0  0  0  0  0
  -24.6706  -31.0785   22.1039 N   0  0  0  0  0  0
  -23.4195  -28.8198   23.3007 O   0  0  0  0  0  0
  -28.2542  -26.5471   20.2477 O   0  0  0  0  0  0
  -26.5609  -34.8915   22.4663 O   0  0  0  0  0  0
  -23.5364  -32.1452   23.7536 O   0  0  0  0  0  0
  -30.4778  -22.1500   22.0583 C   0  0  0  0  0  0
  -29.8504  -24.5126   22.1547 C   0  0  0  0  0  0
  -28.5967  -22.9564   20.7556 C   0  0  0  0  0  0
  -30.6838  -23.4524   22.5680 C   0  0  0  0  0  0
  -29.4095  -21.8798   21.1756 C   0  0  0  0  0  0
  -28.8095  -24.2694   21.2374 C   0  0  0  0  0  0
  -31.3671  -23.2322   25.0074 C   0  0  0  0  0  0
  -31.7719  -23.6958   23.6007 C   0  0  0  0  0  0
  -29.0453  -20.4604   20.7251 C   0  0  0  0  0  0
  -27.7895  -25.3553   20.9319 C   0  0  0  0  0  0
  -30.0259  -19.3397   21.1226 C   0  0  0  0  0  0
  -29.4820  -17.9333   20.8160 C   0  0  0  0  0  0
  -30.5697  -16.8579   20.9555 C   0  0  0  0  0  0
  -30.0299  -15.4973   20.9434 N   0  0  0  0  0  0
  -31.4595  -12.3218   19.1500 H   0  0  0  0  0  0
  -30.2622  -11.2689   19.8519 H   0  0  0  0  0  0
  -29.7209  -11.7180   17.4471 H   0  0  0  0  0  0
  -29.6943  -13.4387   17.7448 H   0  0  0  0  0  0
  -27.7988  -11.3166   18.8069 H   0  0  0  0  0  0
  -27.3670  -12.6558   17.7754 H   0  0  0  0  0  0
  -27.6863  -14.2651   19.5570 H   0  0  0  0  0  0
  -28.6411  -11.9956   21.3777 H   0  0  0  0  0  0
  -28.4712  -13.6651   21.8413 H   0  0  0  0  0  0
  -25.2747   -9.5686   22.4768 H   0  0  0  0  0  0
  -24.0015   -7.4601   22.7427 H   0  0  0  0  0  0
  -21.0822   -8.8775   19.8983 H   0  0  0  0  0  0
  -22.3635  -10.9698   19.6219 H   0  0  0  0  0  0
  -21.2042   -7.6169   23.9752 H   0  0  0  0  0  0
  -21.1491   -6.0542   25.9122 H   0  0  0  0  0  0
  -22.0576   -2.7600   23.2842 H   0  0  0  0  0  0
  -22.3966  -11.9965   22.5008 H   0  0  0  0  0  0
  -21.1014  -13.1316   22.2610 H   0  0  0  0  0  0
  -24.6293  -15.8277   20.5246 H   0  0  0  0  0  0
  -26.2494  -15.6436   20.0757 H   0  0  0  0  0  0
  -26.7114  -32.5519   23.1137 H   0  0  0  0  0  0
  -25.0094  -33.9799   25.0464 H   0  0  0  0  0  0
  -22.6908  -31.3166   21.4274 H   0  0  0  0  0  0
  -23.3711  -35.9691   23.3347 H   0  0  0  0  0  0
  -24.3580  -36.8936   22.2052 H   0  0  0  0  0  0
  -23.7228  -37.6534   23.6664 H   0  0  0  0  0  0
  -26.0579  -31.5963   20.6059 H   0  0  0  0  0  0
  -26.8213  -30.8738   21.9948 H   0  0  0  0  0  0
  -28.0787  -29.0435   21.2180 H   0  0  0  0  0  0
  -26.0162  -26.0358   18.8995 H   0  0  0  0  0  0
  -23.9641  -27.3711   18.9538 H   0  0  0  0  0  0
  -23.7140  -30.6308   19.4138 H   0  0  0  0  0  0
  -22.7265  -29.2754   19.8656 H   0  0  0  0  0  0
  -25.1282  -36.1992   25.0785 H   0  0  0  0  0  0
  -20.9958  -28.3241   24.1410 H   0  0  0  0  0  0
  -20.5636  -26.2264   23.3617 H   0  0  0  0  0  0
  -21.6643  -26.7431   22.1244 H   0  0  0  0  0  0
  -19.6927  -25.6277   21.1226 H   0  0  0  0  0  0
  -19.6705  -27.3185   20.6742 H   0  0  0  0  0  0
  -17.4201  -26.6680   21.3982 H   0  0  0  0  0  0
  -18.0329  -26.0060   22.8972 H   0  0  0  0  0  0
  -19.7933  -30.7261   24.2266 H   0  0  0  0  0  0
  -17.5016  -31.6260   24.5166 H   0  0  0  0  0  0
  -15.5356  -30.2973   23.7687 H   0  0  0  0  0  0
  -15.8651  -28.0818   22.7080 H   0  0  0  0  0  0
  -24.5821  -30.7277   25.7851 H   0  0  0  0  0  0
  -24.9131  -32.2974   26.5094 H   0  0  0  0  0  0
  -25.8122  -30.8809   27.0202 H   0  0  0  0  0  0
  -26.2929  -29.6826   24.1198 H   0  0  0  0  0  0
  -27.4135  -29.7357   25.4628 H   0  0  0  0  0  0
  -27.8753  -30.4420   23.9317 H   0  0  0  0  0  0
  -27.2564  -33.3663   26.2161 H   0  0  0  0  0  0
  -28.3778  -32.7140   25.0317 H   0  0  0  0  0  0
  -28.0787  -31.8556   26.5375 H   0  0  0  0  0  0
  -28.2605  -38.0106   24.7514 H   0  0  0  0  0  0
  -28.1051  -36.2642   24.6252 H   0  0  0  0  0  0
  -27.2326  -37.1454   25.8862 H   0  0  0  0  0  0
  -20.9297  -29.8725   21.6920 H   0  0  0  0  0  0
  -26.0174  -38.2875   24.1434 H   0  0  0  0  0  0
  -31.1261  -21.3565   22.4001 H   0  0  0  0  0  0
  -29.9653  -25.5045   22.5734 H   0  0  0  0  0  0
  -27.7592  -22.7581   20.0988 H   0  0  0  0  0  0
  -32.1729  -23.4062   25.7222 H   0  0  0  0  0  0
  -31.1296  -22.1674   25.0287 H   0  0  0  0  0  0
  -30.4925  -23.7764   25.3646 H   0  0  0  0  0  0
  -32.0094  -24.7592   23.6295 H   0  0  0  0  0  0
  -32.6810  -23.1749   23.2961 H   0  0  0  0  0  0
  -28.9195  -20.4515   19.6415 H   0  0  0  0  0  0
  -28.0616  -20.2252   21.1356 H   0  0  0  0  0  0
  -27.3468  -25.6417   21.8896 H   0  0  0  0  0  0
  -26.9856  -24.8573   20.3904 H   0  0  0  0  0  0
  -30.2255  -19.3742   22.1956 H   0  0  0  0  0  0
  -30.9865  -19.5002   20.6262 H   0  0  0  0  0  0
  -29.0802  -17.9022   19.8008 H   0  0  0  0  0  0
  -28.6480  -17.7169   21.4880 H   0  0  0  0  0  0
  -31.1363  -16.9963   21.8782 H   0  0  0  0  0  0
  -31.2839  -16.9948   20.1386 H   0  0  0  0  0  0
  -29.0668  -15.3497   21.2130 H   0  0  0  0  0  0
  1 25  1  0  0  0
  1 30  2  0  0  0
  1 84  1  0  0  0
  2  3  1  0  0  0
  2 25  1  0  0  0
  2 85  1  0  0  0
  2 86  1  0  0  0
  3  4  1  0  0  0
  3 87  1  0  0  0
  3 88  1  0  0  0
  4  5  1  0  0  0
  4 89  1  0  0  0
  4 90  1  0  0  0
  5  6  1  0  0  0
  5 26  1  0  0  0
  5 91  1  0  0  0
  6 25  1  0  0  0
  6 92  1  0  0  0
  6 93  1  0  0  0
  7  8  2  0  0  0
  7 26  1  0  0  0
  7 29  1  0  0  0
  8  9  1  0  0  0
  8 22  1  0  0  0
  9 10  1  0  0  0
  9 27  2  0  0  0
 10 11  2  0  0  0
 10 15  1  0  0  0
 11 12  1  0  0  0
 11 94  1  0  0  0
 12 13  2  0  0  0
 12 95  1  0  0  0
 13 14  1  0  0  0
 13 31  1  0  0  0
 14 15  2  0  0  0
 14 96  1  0  0  0
 15 97  1  0  0  0
 16 17  2  0  0  0
 16 21  1  0  0  0
 16 31  1  0  0  0
 17 18  1  0  0  0
 17 98  1  0  0  0
 18 19  2  0  0  0
 18 99  1  0  0  0
 19 20  1  0  0  0
 19 24  1  0  0  0
 20 21  2  0  0  0
 20100  1  0  0  0
 21 23  1  0  0  0
 22 28  1  0  0  0
 22 32  2  0  0  0
 26 27  1  0  0  0
 28101  1  0  0  0
 28102  1  0  0  0
 29103  1  0  0  0
 29104  1  0  0  0
 33 34  1  0  0  0
 33 66  1  0  0  0
 33 70  2  0  0  0
 34 36  1  0  0  0
 34 59  1  0  0  0
 34105  1  0  0  0
 35 44  2  0  0  0
 35 45  1  0  0  0
 35 68  1  0  0  0
 36 56  1  0  0  0
 36106  1  0  0  0
 37 39  1  0  0  0
 37 47  1  0  0  0
 37 66  1  0  0  0
 37107  1  0  0  0
 38 43  2  0  0  0
 38 46  1  0  0  0
 38 47  1  0  0  0
 39 64  1  0  0  0
 39 67  2  0  0  0
 40 52  1  0  0  0
 40 53  2  0  0  0
 40 58  1  0  0  0
 41108  1  0  0  0
 41109  1  0  0  0
 41110  1  0  0  0
 41 48  1  0  0  0
 42 43  1  0  0  0
 42 66  1  0  0  0
 42111  1  0  0  0
 42112  1  0  0  0
 43 44  1  0  0  0
 44113  1  0  0  0
 45 46  2  0  0  0
 45114  1  0  0  0
 46115  1  0  0  0
 47116  1  0  0  0
 47117  1  0  0  0
 48 56  1  0  0  0
 48 65  1  0  0  0
 48118  1  0  0  0
 49 50  1  0  0  0
 49 53  1  0  0  0
 49 64  1  0  0  0
 49119  1  0  0  0
 50 51  1  0  0  0
 50120  1  0  0  0
 50121  1  0  0  0
 51 52  1  0  0  0
 51122  1  0  0  0
 51123  1  0  0  0
 52124  1  0  0  0
 52125  1  0  0  0
 53 54  1  0  0  0
 54 55  2  0  0  0
 54126  1  0  0  0
 55 57  1  0  0  0
 55127  1  0  0  0
 56 69  2  0  0  0
 57 58  2  0  0  0
 57128  1  0  0  0
 58129  1  0  0  0
 59 60  1  0  0  0
 59 61  1  0  0  0
 59 62  1  0  0  0
 60130  1  0  0  0
 60131  1  0  0  0
 60132  1  0  0  0
 61133  1  0  0  0
 61134  1  0  0  0
 61135  1  0  0  0
 62136  1  0  0  0
 62137  1  0  0  0
 62138  1  0  0  0
 63 65  1  0  0  0
 63139  1  0  0  0
 63140  1  0  0  0
 63141  1  0  0  0
 64142  1  0  0  0
 65143  1  0  0  0
 68 80  1  0  0  0
 71 74  2  0  0  0
 71 75  1  0  0  0
 71144  1  0  0  0
 72 74  1  0  0  0
 72 76  2  0  0  0
 72145  1  0  0  0
 73 75  2  0  0  0
 73 76  1  0  0  0
 73146  1  0  0  0
 74 78  1  0  0  0
 75 79  1  0  0  0
 76 80  1  0  0  0
 77 78  1  0  0  0
 77147  1  0  0  0
 77148  1  0  0  0
 77149  1  0  0  0
 78150  1  0  0  0
 78151  1  0  0  0
 79 81  1  0  0  0
 79152  1  0  0  0
 79153  1  0  0  0
 80154  1  0  0  0
 80155  1  0  0  0
 81 82  1  0  0  0
 81156  1  0  0  0
 81157  1  0  0  0
 82 83  1  0  0  0
 82158  1  0  0  0
 82159  1  0  0  0
 83 84  1  0  0  0
 83160  1  0  0  0
 83161  1  0  0  0
 84162  1  0  0  0
M  ISO  4   1 100  68 101  80 101  84 100
M  END
> <chiral flag>
0

> <version>
0

> <s_m_source_file>
/data/baiqing/PycharmProjects/Reinvent-master-3.2/result/LINK_invent/BTK/process_docking_weight1_custom_sum_contain_oxygen_bond_distance_aromatic_linkinvent_7_9_3/rearranged_h_0037.sdf

> <i_m_source_file_index>
92

> <r_mmod_Potential_Energy-OPLS-2005>
-19.9599132537842

> <r_mmod_Stretch_Energy-OPLS-2005>
34.8997116088867

> <r_mmod_Bend_Energy-OPLS-2005>
89.9273300170898

> <r_mmod_Torsional_Energy-OPLS-2005>
231.740997314453

> <r_mmod_Improper_Torsional_Energy-OPLS-2005>
5.66648292541504

> <r_mmod_Van_der_Waal_Energy-OPLS-2005>
160.748641967773

> <r_mmod_Electrostatic_Energy-OPLS-2005>
-369.593505859375

> <r_mmod_Solvation_Energy-OPLS-2005>
-201.486175537109

> <b_mmod_Minimization_Converged-OPLS-2005>
0

> <r_mmod_RMS_Derivative-OPLS-2005>
5.7799072265625

$$$$
92
                    3D
 Structure written by MMmdl.
170179  0  0  1  0            999 V2000
  -30.6721  -14.6106   20.5101 C   0  0  0  0  0  0
  -30.4207  -12.3798   19.4529 C   0  0  0  0  0  0
  -29.4992  -12.5025   18.2213 C   0  0  0  0  0  0
  -28.0225  -12.3487   18.6337 C   0  0  0  0  0  0
  -27.6472  -13.2252   19.8588 C   0  0  2  0  0  0
  -28.6916  -13.0986   20.9895 C   0  0  0  0  0  0
  -25.2481  -13.8164   20.5603 C   0  0  0  0  0  0
  -24.1795  -13.0420   20.9193 C   0  0  0  0  0  0
  -24.6396  -11.6905   20.8762 C   0  0  0  0  0  0
  -23.9076  -10.4283   21.0418 C   0  0  0  0  0  0
  -24.3622   -9.4199   21.9192 C   0  0  0  0  0  0
  -23.6293   -8.2237   22.0757 C   0  0  0  0  0  0
  -22.4275   -8.0282   21.3546 C   0  0  0  0  0  0
  -21.9912   -9.0260   20.4651 C   0  0  0  0  0  0
  -22.7250  -10.2133   20.3064 C   0  0  0  0  0  0
  -21.6853   -6.0739   22.5281 C   0  0  0  0  0  0
  -21.4017   -6.5639   23.8216 C   0  0  0  0  0  0
  -21.3656   -5.6792   24.9176 C   0  0  0  0  0  0
  -21.6040   -4.3056   24.7226 C   0  0  0  0  0  0
  -21.8819   -3.8150   23.4347 C   0  0  0  0  0  0
  -21.9193   -4.6966   22.3404 C   0  0  0  0  0  0
  -22.7819  -13.5210   21.1859 C   0  0  0  0  0  0
  -22.1665   -4.2152   21.0979 F   0  0  0  0  0  0
  -21.5622   -3.4538   25.7739 F   0  0  0  0  0  0
  -30.0053  -13.4186   20.4173 N   0  0  0  0  0  0
  -26.2952  -12.9390   20.3308 N   0  0  0  0  0  0
  -25.9329  -11.6535   20.5794 N   0  0  0  0  0  0
  -22.0468  -12.8219   22.0429 N   0  0  0  0  0  0
  -25.4056  -15.1860   20.3821 N   0  0  0  0  0  0
  -31.8454  -14.7106   20.1448 O   0  0  0  0  0  0
  -21.6637   -6.8880   21.4242 O   0  0  0  0  0  0
  -22.3501  -14.5514   20.6706 O   0  0  0  0  0  0
  -24.6236  -31.8617   23.2039 C   0  0  0  0  0  0
  -25.9097  -32.4787   23.8360 C   0  0  1  0  0  0
  -27.2226  -27.3442   20.1142 C   0  0  0  0  0  0
  -25.5927  -33.8587   24.2297 N   0  0  0  0  0  0
  -23.4152  -30.4855   21.5465 C   0  0  2  0  0  0
  -24.8602  -28.9418   20.1139 C   0  0  0  0  0  0
  -22.7457  -29.4633   22.4951 C   0  0  0  0  0  0
  -18.0283  -28.1377   22.8485 C   0  0  0  0  0  0
  -24.1490  -36.7295   23.2637 C   0  0  0  0  0  0
  -25.9539  -30.8018   21.3690 C   0  0  0  0  0  0
  -26.0287  -29.4313   20.7110 C   0  0  0  0  0  0
  -27.2156  -28.6455   20.6960 C   0  0  0  0  0  0
  -26.0296  -26.8937   19.5085 C   0  0  0  0  0  0
  -24.8608  -27.6775   19.5043 C   0  0  0  0  0  0
  -23.6277  -29.8195   20.1619 C   0  0  0  0  0  0
  -25.4113  -36.3089   24.0331 C   0  0  1  0  0  0
  -20.5880  -28.3677   23.1289 C   0  0  2  0  0  0
  -20.6776  -26.9404   22.5408 C   0  0  0  0  0  0
  -19.5753  -26.6380   21.5207 C   0  0  0  0  0  0
  -18.1933  -26.7921   22.1620 C   0  0  0  0  0  0
  -19.1535  -28.8844   23.2884 C   0  0  0  0  0  0
  -18.9460  -30.1447   23.8899 C   0  0  0  0  0  0
  -17.6461  -30.6582   24.0561 C   0  0  0  0  0  0
  -25.9046  -34.9455   23.5114 C   0  0  0  0  0  0
  -16.5352  -29.9080   23.6325 C   0  0  0  0  0  0
  -16.7272  -28.6497   23.0349 C   0  0  0  0  0  0
  -26.4494  -31.6582   25.0715 C   0  0  0  0  0  0
  -25.3739  -31.3717   26.1453 C   0  0  0  0  0  0
  -27.0324  -30.3008   24.6142 C   0  0  0  0  0  0
  -27.6065  -32.4304   25.7481 C   0  0  0  0  0  0
  -27.5580  -37.1802   24.8464 C   0  0  0  0  0  0
  -21.4175  -29.3038   22.3690 N   0  0  0  0  0  0
  -26.4294  -37.3779   23.9405 N   0  0  0  0  0  0
  -24.6831  -31.0654   22.0974 N   0  0  0  0  0  0
  -23.4192  -28.8174   23.3021 O   0  0  0  0  0  0
  -28.3590  -26.5320   20.1301 O   0  0  0  0  0  0
  -26.5606  -34.8918   22.4673 O   0  0  0  0  0  0
  -23.5408  -32.1405   23.7387 O   0  0  0  0  0  0
  -29.9288  -19.5877   20.3419 C   0  0  0  0  0  0
  -28.3335  -20.1073   21.7631 C   0  0  0  0  0  0
  -29.6816  -18.4195   21.0523 C   0  0  0  0  0  0
  -28.6518  -18.7843   22.0032 C   0  0  0  0  0  0
  -28.0923  -22.6232   19.5078 C   0  0  0  0  0  0
  -29.2834  -23.0666   21.6570 C   0  0  0  0  0  0
  -28.2031  -24.1505   19.1526 C   0  0  0  0  0  0
  -29.3600  -24.5880   21.3049 C   0  0  0  0  0  0
  -29.2375  -22.1128   20.4262 C   0  0  1  0  0  0
  -28.2062  -25.0897   20.3979 C   0  0  1  0  0  0
  -26.7702  -18.6735   23.7103 C   0  0  0  0  0  0
  -29.0766  -17.9198   24.3051 C   0  0  0  0  0  0
  -27.6489  -16.5573   22.7679 C   0  0  0  0  0  0
  -30.5387  -17.1135   20.8897 C   0  0  0  0  0  0
  -28.0438  -17.9856   23.1670 C   0  0  0  0  0  0
  -29.1632  -20.6594   20.8112 N   0  0  0  0  0  0
  -29.9615  -15.7325   20.8354 N   0  0  0  0  0  0
  -31.4653  -12.4790   19.1526 H   0  0  0  0  0  0
  -30.3331  -11.3901   19.9035 H   0  0  0  0  0  0
  -29.7590  -11.7485   17.4768 H   0  0  0  0  0  0
  -29.6493  -13.4713   17.7421 H   0  0  0  0  0  0
  -27.8552  -11.2967   18.8679 H   0  0  0  0  0  0
  -27.3695  -12.5787   17.7909 H   0  0  0  0  0  0
  -27.6615  -14.2589   19.5128 H   0  0  0  0  0  0
  -28.6964  -12.0870   21.3977 H   0  0  0  0  0  0
  -28.4443  -13.7567   21.8221 H   0  0  0  0  0  0
  -25.2760   -9.5674   22.4776 H   0  0  0  0  0  0
  -24.0000   -7.4624   22.7473 H   0  0  0  0  0  0
  -21.0843   -8.8791   19.8955 H   0  0  0  0  0  0
  -22.3714  -10.9681   19.6182 H   0  0  0  0  0  0
  -21.2013   -7.6148   23.9725 H   0  0  0  0  0  0
  -21.1473   -6.0516   25.9079 H   0  0  0  0  0  0
  -22.0598   -2.7613   23.2849 H   0  0  0  0  0  0
  -22.4080  -11.9887   22.4834 H   0  0  0  0  0  0
  -21.1086  -13.1259   22.2626 H   0  0  0  0  0  0
  -24.6326  -15.8328   20.4918 H   0  0  0  0  0  0
  -26.2452  -15.6306   20.0347 H   0  0  0  0  0  0
  -26.7165  -32.5468   23.1111 H   0  0  0  0  0  0
  -25.0092  -33.9735   25.0455 H   0  0  0  0  0  0
  -22.7077  -31.3050   21.4044 H   0  0  0  0  0  0
  -23.3750  -35.9631   23.3311 H   0  0  0  0  0  0
  -24.3584  -36.8897   22.2049 H   0  0  0  0  0  0
  -23.7245  -37.6503   23.6648 H   0  0  0  0  0  0
  -26.0810  -31.5673   20.6022 H   0  0  0  0  0  0
  -26.8359  -30.8501   21.9960 H   0  0  0  0  0  0
  -28.1171  -29.0195   21.1610 H   0  0  0  0  0  0
  -25.9807  -25.9256   19.0376 H   0  0  0  0  0  0
  -23.9633  -27.2951   19.0377 H   0  0  0  0  0  0
  -23.7450  -30.5952   19.4043 H   0  0  0  0  0  0
  -22.7483  -29.2470   19.8614 H   0  0  0  0  0  0
  -25.1292  -36.1947   25.0823 H   0  0  0  0  0  0
  -20.9972  -28.3250   24.1410 H   0  0  0  0  0  0
  -20.5674  -26.2287   23.3603 H   0  0  0  0  0  0
  -21.6648  -26.7438   22.1203 H   0  0  0  0  0  0
  -19.6918  -25.6292   21.1235 H   0  0  0  0  0  0
  -19.6690  -27.3191   20.6738 H   0  0  0  0  0  0
  -17.4201  -26.6662   21.4025 H   0  0  0  0  0  0
  -18.0338  -26.0060   22.9013 H   0  0  0  0  0  0
  -19.7937  -30.7261   24.2268 H   0  0  0  0  0  0
  -17.5016  -31.6263   24.5159 H   0  0  0  0  0  0
  -15.5353  -30.2984   23.7646 H   0  0  0  0  0  0
  -15.8672  -28.0815   22.7065 H   0  0  0  0  0  0
  -24.5914  -30.7062   25.7792 H   0  0  0  0  0  0
  -24.8934  -32.2883   26.4882 H   0  0  0  0  0  0
  -25.8076  -30.8898   27.0223 H   0  0  0  0  0  0
  -26.2882  -29.6763   24.1184 H   0  0  0  0  0  0
  -27.4054  -29.7254   25.4625 H   0  0  0  0  0  0
  -27.8741  -30.4300   23.9332 H   0  0  0  0  0  0
  -27.2691  -33.3605   26.2065 H   0  0  0  0  0  0
  -28.3874  -32.6854   25.0305 H   0  0  0  0  0  0
  -28.0733  -31.8419   26.5391 H   0  0  0  0  0  0
  -28.2605  -38.0093   24.7507 H   0  0  0  0  0  0
  -28.1072  -36.2626   24.6298 H   0  0  0  0  0  0
  -27.2301  -37.1459   25.8868 H   0  0  0  0  0  0
  -20.9346  -29.8763   21.6908 H   0  0  0  0  0  0
  -26.0181  -38.2858   24.1399 H   0  0  0  0  0  0
  -30.6618  -19.7710   19.5667 H   0  0  0  0  0  0
  -27.6251  -20.7522   22.2641 H   0  0  0  0  0  0
  -28.0830  -22.0386   18.5875 H   0  0  0  0  0  0
  -27.1322  -22.4381   19.9909 H   0  0  0  0  0  0
  -28.3980  -22.9101   22.2729 H   0  0  0  0  0  0
  -30.1344  -22.8002   22.2843 H   0  0  0  0  0  0
  -27.3917  -24.4115   18.4765 H   0  0  0  0  0  0
  -29.1186  -24.3145   18.5832 H   0  0  0  0  0  0
  -30.3137  -24.7917   20.8169 H   0  0  0  0  0  0
  -29.3658  -25.1683   22.2282 H   0  0  0  0  0  0
  -30.1737  -22.2390   19.8797 H   0  0  0  0  0  0
  -27.2754  -24.9358   20.9474 H   0  0  0  0  0  0
  -26.9787  -19.6634   24.1173 H   0  0  0  0  0  0
  -26.3195  -18.0999   24.5210 H   0  0  0  0  0  0
  -26.0136  -18.7823   22.9317 H   0  0  0  0  0  0
  -29.3553  -18.9181   24.6448 H   0  0  0  0  0  0
  -29.9913  -17.4184   23.9869 H   0  0  0  0  0  0
  -28.6876  -17.3767   25.1670 H   0  0  0  0  0  0
  -27.1970  -16.5371   21.7786 H   0  0  0  0  0  0
  -26.9306  -16.1254   23.4655 H   0  0  0  0  0  0
  -28.5010  -15.8867   22.7943 H   0  0  0  0  0  0
  -31.2616  -17.1195   21.7067 H   0  0  0  0  0  0
  -31.1335  -17.2491   19.9844 H   0  0  0  0  0  0
  -28.9868  -15.6278   21.0678 H   0  0  0  0  0  0
  1 25  1  0  0  0
  1 30  2  0  0  0
  1 87  1  0  0  0
  2  3  1  0  0  0
  2 25  1  0  0  0
  2 88  1  0  0  0
  2 89  1  0  0  0
  3  4  1  0  0  0
  3 90  1  0  0  0
  3 91  1  0  0  0
  4  5  1  0  0  0
  4 92  1  0  0  0
  4 93  1  0  0  0
  5  6  1  0  0  0
  5 26  1  0  0  0
  5 94  1  0  0  0
  6 25  1  0  0  0
  6 95  1  0  0  0
  6 96  1  0  0  0
  7  8  2  0  0  0
  7 26  1  0  0  0
  7 29  1  0  0  0
  8  9  1  0  0  0
  8 22  1  0  0  0
  9 10  1  0  0  0
  9 27  2  0  0  0
 10 11  2  0  0  0
 10 15  1  0  0  0
 11 12  1  0  0  0
 11 97  1  0  0  0
 12 13  2  0  0  0
 12 98  1  0  0  0
 13 14  1  0  0  0
 13 31  1  0  0  0
 14 15  2  0  0  0
 14 99  1  0  0  0
 15100  1  0  0  0
 16 17  2  0  0  0
 16 21  1  0  0  0
 16 31  1  0  0  0
 17 18  1  0  0  0
 17101  1  0  0  0
 18 19  2  0  0  0
 18102  1  0  0  0
 19 20  1  0  0  0
 19 24  1  0  0  0
 20 21  2  0  0  0
 20103  1  0  0  0
 21 23  1  0  0  0
 22 28  1  0  0  0
 22 32  2  0  0  0
 26 27  1  0  0  0
 28104  1  0  0  0
 28105  1  0  0  0
 29106  1  0  0  0
 29107  1  0  0  0
 33 34  1  0  0  0
 33 66  1  0  0  0
 33 70  2  0  0  0
 34 36  1  0  0  0
 34 59  1  0  0  0
 34108  1  0  0  0
 35 44  2  0  0  0
 35 45  1  0  0  0
 35 68  1  0  0  0
 36 56  1  0  0  0
 36109  1  0  0  0
 37 39  1  0  0  0
 37 47  1  0  0  0
 37 66  1  0  0  0
 37110  1  0  0  0
 38 43  2  0  0  0
 38 46  1  0  0  0
 38 47  1  0  0  0
 39 64  1  0  0  0
 39 67  2  0  0  0
 40 52  1  0  0  0
 40 53  2  0  0  0
 40 58  1  0  0  0
 41111  1  0  0  0
 41112  1  0  0  0
 41113  1  0  0  0
 41 48  1  0  0  0
 42 43  1  0  0  0
 42 66  1  0  0  0
 42114  1  0  0  0
 42115  1  0  0  0
 43 44  1  0  0  0
 44116  1  0  0  0
 45 46  2  0  0  0
 45117  1  0  0  0
 46118  1  0  0  0
 47119  1  0  0  0
 47120  1  0  0  0
 48 56  1  0  0  0
 48 65  1  0  0  0
 48121  1  0  0  0
 49 50  1  0  0  0
 49 53  1  0  0  0
 49 64  1  0  0  0
 49122  1  0  0  0
 50 51  1  0  0  0
 50123  1  0  0  0
 50124  1  0  0  0
 51 52  1  0  0  0
 51125  1  0  0  0
 51126  1  0  0  0
 52127  1  0  0  0
 52128  1  0  0  0
 53 54  1  0  0  0
 54 55  2  0  0  0
 54129  1  0  0  0
 55 57  1  0  0  0
 55130  1  0  0  0
 56 69  2  0  0  0
 57 58  2  0  0  0
 57131  1  0  0  0
 58132  1  0  0  0
 59 60  1  0  0  0
 59 61  1  0  0  0
 59 62  1  0  0  0
 60133  1  0  0  0
 60134  1  0  0  0
 60135  1  0  0  0
 61136  1  0  0  0
 61137  1  0  0  0
 61138  1  0  0  0
 62139  1  0  0  0
 62140  1  0  0  0
 62141  1  0  0  0
 63 65  1  0  0  0
 63142  1  0  0  0
 63143  1  0  0  0
 63144  1  0  0  0
 64145  1  0  0  0
 65146  1  0  0  0
 68 80  1  0  0  0
 71 73  2  0  0  0
 71 86  1  0  0  0
 71147  1  0  0  0
 72 74  2  0  0  0
 72 86  1  0  0  0
 72148  1  0  0  0
 73 74  1  0  0  0
 73 84  1  0  0  0
 74 85  1  0  0  0
 75 77  1  0  0  0
 75 79  1  0  0  0
 75149  1  0  0  0
 75150  1  0  0  0
 76 78  1  0  0  0
 76 79  1  0  0  0
 76151  1  0  0  0
 76152  1  0  0  0
 77 80  1  0  0  0
 77153  1  0  0  0
 77154  1  0  0  0
 78 80  1  0  0  0
 78155  1  0  0  0
 78156  1  0  0  0
 79 86  1  0  0  0
 79157  1  0  0  0
 80158  1  0  0  0
 81159  1  0  0  0
 81160  1  0  0  0
 81161  1  0  0  0
 81 85  1  0  0  0
 82 85  1  0  0  0
 82162  1  0  0  0
 82163  1  0  0  0
 82164  1  0  0  0
 83 85  1  0  0  0
 83165  1  0  0  0
 83166  1  0  0  0
 83167  1  0  0  0
 84 87  1  0  0  0
 84168  1  0  0  0
 84169  1  0  0  0
 87170  1  0  0  0
M  ISO  4   1 100  68 101  80 101  87 100
M  END
> <chiral flag>
0

> <version>
0

> <s_m_source_file>
/data/baiqing/PycharmProjects/Reinvent-master-3.2/result/LINK_invent/BTK/process_docking_weight1_custom_sum_contain_oxygen_bond_distance_aromatic_linkinvent_7_9_3/rearranged_h_0037.sdf

> <i_m_source_file_index>
93

> <r_mmod_Potential_Energy-OPLS-2005>
-22.2168979644775

> <r_mmod_Stretch_Energy-OPLS-2005>
68.6158447265625

> <r_mmod_Bend_Energy-OPLS-2005>
145.415084838867

> <r_mmod_Torsional_Energy-OPLS-2005>
261.922821044922

> <r_mmod_Improper_Torsional_Energy-OPLS-2005>
5.44112348556519

> <r_mmod_Van_der_Waal_Energy-OPLS-2005>
125.25520324707

> <r_mmod_Electrostatic_Energy-OPLS-2005>
-476.765838623047

> <r_mmod_Solvation_Energy-OPLS-2005>
-191.284378051758

> <b_mmod_Minimization_Converged-OPLS-2005>
0

> <r_mmod_RMS_Derivative-OPLS-2005>
0.742451369762421

$$$$
93
                    3D
 Structure written by MMmdl.
192200  0  0  1  0            999 V2000
  -30.8301  -14.2468   20.7841 C   0  0  0  0  0  0
  -30.4187  -12.2868   19.3473 C   0  0  0  0  0  0
  -29.4652  -12.5333   18.1666 C   0  0  0  0  0  0
  -27.9939  -12.3902   18.5973 C   0  0  0  0  0  0
  -27.6699  -13.1996   19.8765 C   0  0  2  0  0  0
  -28.7084  -12.9071   20.9788 C   0  0  0  0  0  0
  -25.2640  -13.8168   20.5706 C   0  0  0  0  0  0
  -24.1873  -13.0487   20.9190 C   0  0  0  0  0  0
  -24.6394  -11.6923   20.8768 C   0  0  0  0  0  0
  -23.9073  -10.4318   21.0439 C   0  0  0  0  0  0
  -24.3629   -9.4204   21.9209 C   0  0  0  0  0  0
  -23.6310   -8.2252   22.0746 C   0  0  0  0  0  0
  -22.4283   -8.0293   21.3555 C   0  0  0  0  0  0
  -21.9934   -9.0287   20.4649 C   0  0  0  0  0  0
  -22.7264  -10.2148   20.3066 C   0  0  0  0  0  0
  -21.6853   -6.0764   22.5284 C   0  0  0  0  0  0
  -21.3999   -6.5656   23.8215 C   0  0  0  0  0  0
  -21.3648   -5.6790   24.9179 C   0  0  0  0  0  0
  -21.6047   -4.3070   24.7214 C   0  0  0  0  0  0
  -21.8819   -3.8158   23.4347 C   0  0  0  0  0  0
  -21.9193   -4.6996   22.3389 C   0  0  0  0  0  0
  -22.7870  -13.5246   21.1872 C   0  0  0  0  0  0
  -22.1667   -4.2193   21.0982 F   0  0  0  0  0  0
  -21.5632   -3.4527   25.7726 F   0  0  0  0  0  0
  -30.0603  -13.1849   20.4489 N   0  0  0  0  0  0
  -26.3069  -12.9341   20.3397 N   0  0  0  0  0  0
  -25.9317  -11.6508   20.5791 N   0  0  0  0  0  0
  -22.0491  -12.8265   22.0385 N   0  0  0  0  0  0
  -25.4410  -15.1901   20.4071 N   0  0  0  0  0  0
  -31.7644  -14.6675   20.0921 O   0  0  0  0  0  0
  -21.6633   -6.8916   21.4243 O   0  0  0  0  0  0
  -22.3567  -14.5598   20.6730 O   0  0  0  0  0  0
  -24.6162  -31.8706   23.2067 C   0  0  0  0  0  0
  -25.9101  -32.4819   23.8288 C   0  0  1  0  0  0
  -27.2430  -27.4703   19.9370 C   0  0  0  0  0  0
  -25.5935  -33.8631   24.2309 N   0  0  0  0  0  0
  -23.3938  -30.4941   21.5598 C   0  0  2  0  0  0
  -24.8365  -28.9393   20.1342 C   0  0  0  0  0  0
  -22.7480  -29.4653   22.5154 C   0  0  0  0  0  0
  -18.0404  -28.1203   22.8360 C   0  0  0  0  0  0
  -24.1547  -36.7254   23.2614 C   0  0  0  0  0  0
  -25.9281  -30.8111   21.3790 C   0  0  0  0  0  0
  -26.0034  -29.4463   20.7203 C   0  0  0  0  0  0
  -27.2078  -28.7037   20.6336 C   0  0  0  0  0  0
  -26.0368  -26.9368   19.4489 C   0  0  0  0  0  0
  -24.8418  -27.6790   19.5225 C   0  0  0  0  0  0
  -23.5981  -29.8090   20.1831 C   0  0  0  0  0  0
  -25.4199  -36.3115   24.0282 C   0  0  1  0  0  0
  -20.5969  -28.3315   23.1189 C   0  0  2  0  0  0
  -20.6930  -26.9474   22.4307 C   0  0  0  0  0  0
  -19.5780  -26.7338   21.4037 C   0  0  0  0  0  0
  -18.2094  -26.8136   22.0814 C   0  0  0  0  0  0
  -19.1641  -28.8529   23.2923 C   0  0  0  0  0  0
  -18.9548  -30.1036   23.9101 C   0  0  0  0  0  0
  -17.6566  -30.6191   24.0822 C   0  0  0  0  0  0
  -25.9116  -34.9469   23.5114 C   0  0  0  0  0  0
  -16.5459  -29.8789   23.6464 C   0  0  0  0  0  0
  -16.7378  -28.6347   23.0247 C   0  0  0  0  0  0
  -26.4542  -31.6574   25.0549 C   0  0  0  0  0  0
  -25.3728  -31.3704   26.1165 C   0  0  0  0  0  0
  -27.0378  -30.2966   24.5994 C   0  0  0  0  0  0
  -27.6130  -32.4327   25.7309 C   0  0  0  0  0  0
  -27.5601  -37.1768   24.8427 C   0  0  0  0  0  0
  -21.4204  -29.2996   22.4014 N   0  0  0  0  0  0
  -26.4392  -37.3779   23.9333 N   0  0  0  0  0  0
  -24.6585  -31.0772   22.1017 N   0  0  0  0  0  0
  -23.4342  -28.8234   23.3115 O   0  0  0  0  0  0
  -28.4540  -26.8461   19.7037 O   0  0  0  0  0  0
  -26.5743  -34.8892   22.4701 O   0  0  0  0  0  0
  -23.5383  -32.1541   23.7556 O   0  0  0  0  0  0
  -26.3809  -27.8411   16.4616 C   0  0  0  0  0  0
  -25.0331  -25.6092   15.5196 C   0  0  0  0  0  0
  -25.0058  -27.9507   16.1754 C   0  0  0  0  0  0
  -24.2940  -26.7830   15.8147 C   0  0  0  0  0  0
  -27.0892  -26.6081   16.3893 C   0  0  0  0  0  0
  -26.4374  -25.4827   15.7534 C   0  0  0  0  0  0
  -24.3483  -29.3241   16.3356 C   0  0  0  0  0  0
  -22.7670  -26.7751   15.7910 C   0  0  0  0  0  0
  -28.4898  -26.6654   17.0438 C   0  0  0  0  0  0
  -27.0339  -24.0938   15.3270 C   0  0  0  0  0  0
  -29.5690  -19.5459   18.2579 C   0  0  0  0  0  0
  -29.1295  -18.7570   19.4897 C   0  0  0  0  0  0
  -28.5307  -19.7575   17.1487 C   0  0  0  0  0  0
  -30.3167  -18.6537   20.4651 C   0  0  0  0  0  0
  -29.2556  -20.4248   15.9682 C   0  0  0  0  0  0
  -30.1194  -17.5498   21.4978 C   0  0  0  0  0  0
  -28.3589  -20.8103   14.7805 C   0  0  0  0  0  0
  -31.4327  -17.0708   22.1496 C   0  0  0  0  0  0
  -29.0416  -21.7888   13.7787 C   0  0  0  0  0  0
  -31.3005  -15.6878   22.8216 C   0  0  0  0  0  0
  -29.2006  -23.3105   14.1448 C   0  0  0  0  0  0
  -28.6764  -26.0570   18.4905 C   0  0  0  0  0  0
  -30.5893  -14.6869   22.0262 N   0  0  0  0  0  0
  -28.5020  -23.8438   15.3621 N   0  3  0  0  0  0
  -31.4500  -12.4241   19.0193 H   0  0  0  0  0  0
  -30.3528  -11.2520   19.6848 H   0  0  0  0  0  0
  -29.6808  -11.8371   17.3545 H   0  0  0  0  0  0
  -29.6308  -13.5331   17.7616 H   0  0  0  0  0  0
  -27.7893  -11.3326   18.7674 H   0  0  0  0  0  0
  -27.3333  -12.7005   17.7855 H   0  0  0  0  0  0
  -27.7394  -14.2581   19.6236 H   0  0  0  0  0  0
  -28.6563  -11.8573   21.2745 H   0  0  0  0  0  0
  -28.4544  -13.4724   21.8745 H   0  0  0  0  0  0
  -25.2774   -9.5691   22.4791 H   0  0  0  0  0  0
  -24.0035   -7.4618   22.7437 H   0  0  0  0  0  0
  -21.0879   -8.8823   19.8938 H   0  0  0  0  0  0
  -22.3761  -10.9711   19.6172 H   0  0  0  0  0  0
  -21.1970   -7.6147   23.9745 H   0  0  0  0  0  0
  -21.1470   -6.0509   25.9092 H   0  0  0  0  0  0
  -22.0609   -2.7629   23.2815 H   0  0  0  0  0  0
  -22.4043  -11.9868   22.4752 H   0  0  0  0  0  0
  -21.1105  -13.1321   22.2591 H   0  0  0  0  0  0
  -24.6960  -15.8653   20.5390 H   0  0  0  0  0  0
  -26.3092  -15.6121   20.1020 H   0  0  0  0  0  0
  -26.7126  -32.5474   23.0983 H   0  0  0  0  0  0
  -24.9949  -33.9881   25.0336 H   0  0  0  0  0  0
  -22.6597  -31.2934   21.4254 H   0  0  0  0  0  0
  -23.3941  -35.9463   23.3394 H   0  0  0  0  0  0
  -24.3545  -36.8847   22.2005 H   0  0  0  0  0  0
  -23.7253  -37.6422   23.6619 H   0  0  0  0  0  0
  -26.0425  -31.5957   20.6314 H   0  0  0  0  0  0
  -26.8163  -30.8349   21.9984 H   0  0  0  0  0  0
  -28.1388  -29.0969   21.0169 H   0  0  0  0  0  0
  -26.0419  -25.9993   18.9168 H   0  0  0  0  0  0
  -23.9457  -27.2984   19.0540 H   0  0  0  0  0  0
  -23.6724  -30.5506   19.3872 H   0  0  0  0  0  0
  -22.7255  -29.2139   19.9254 H   0  0  0  0  0  0
  -25.1454  -36.1884   25.0793 H   0  0  0  0  0  0
  -20.9994  -28.2158   24.1227 H   0  0  0  0  0  0
  -20.6137  -26.1553   23.1717 H   0  0  0  0  0  0
  -21.6701  -26.8023   21.9580 H   0  0  0  0  0  0
  -19.6964  -25.7952   20.8619 H   0  0  0  0  0  0
  -19.6481  -27.5166   20.6441 H   0  0  0  0  0  0
  -17.4288  -26.7340   21.3219 H   0  0  0  0  0  0
  -18.0707  -25.9615   22.7484 H   0  0  0  0  0  0
  -19.7943  -30.6793   24.2711 H   0  0  0  0  0  0
  -17.5138  -31.5701   24.5727 H   0  0  0  0  0  0
  -15.5436  -30.2610   23.7810 H   0  0  0  0  0  0
  -15.8798  -28.0813   22.6696 H   0  0  0  0  0  0
  -24.5926  -30.7110   25.7326 H   0  0  0  0  0  0
  -24.8883  -32.2911   26.4442 H   0  0  0  0  0  0
  -25.7833  -30.8793   26.9988 H   0  0  0  0  0  0
  -26.2783  -29.6685   24.1246 H   0  0  0  0  0  0
  -27.4357  -29.7206   25.4392 H   0  0  0  0  0  0
  -27.8620  -30.4327   23.8971 H   0  0  0  0  0  0
  -27.2748  -33.3718   26.1758 H   0  0  0  0  0  0
  -28.3881  -32.6824   25.0032 H   0  0  0  0  0  0
  -28.0814  -31.8479   26.5256 H   0  0  0  0  0  0
  -28.2673  -38.0022   24.7547 H   0  0  0  0  0  0
  -28.1056  -36.2573   24.6269 H   0  0  0  0  0  0
  -27.2214  -37.1411   25.8789 H   0  0  0  0  0  0
  -20.9326  -29.8708   21.7265 H   0  0  0  0  0  0
  -26.0338  -38.2844   24.1393 H   0  0  0  0  0  0
  -26.8861  -28.7171   16.8449 H   0  0  0  0  0  0
  -24.4837  -24.7517   15.1403 H   0  0  0  0  0  0
  -24.7782  -30.0122   15.6090 H   0  0  0  0  0  0
  -24.5453  -29.7403   17.3231 H   0  0  0  0  0  0
  -23.2661  -29.3367   16.1906 H   0  0  0  0  0  0
  -22.3757  -25.7648   15.6487 H   0  0  0  0  0  0
  -22.3634  -27.4134   15.0067 H   0  0  0  0  0  0
  -22.3752  -27.1429   16.7435 H   0  0  0  0  0  0
  -28.7950  -27.7116   17.1222 H   0  0  0  0  0  0
  -29.2274  -26.2612   16.3507 H   0  0  0  0  0  0
  -26.6812  -23.8438   14.3214 H   0  0  0  0  0  0
  -26.5933  -23.3467   15.9839 H   0  0  0  0  0  0
  -30.4223  -19.0268   17.8182 H   0  0  0  0  0  0
  -29.9381  -20.5168   18.5920 H   0  0  0  0  0  0
  -28.8126  -17.7588   19.1779 H   0  0  0  0  0  0
  -28.2688  -19.2163   19.9824 H   0  0  0  0  0  0
  -27.7243  -20.4014   17.5017 H   0  0  0  0  0  0
  -28.0635  -18.8156   16.8426 H   0  0  0  0  0  0
  -30.5038  -19.6103   20.9517 H   0  0  0  0  0  0
  -31.2179  -18.4401   19.8872 H   0  0  0  0  0  0
  -30.0268  -19.7369   15.6119 H   0  0  0  0  0  0
  -29.7850  -21.3069   16.3287 H   0  0  0  0  0  0
  -29.6525  -16.7304   20.9608 H   0  0  0  0  0  0
  -29.3947  -17.8476   22.2543 H   0  0  0  0  0  0
  -27.3939  -21.1949   15.1056 H   0  0  0  0  0  0
  -28.1228  -19.8801   14.2568 H   0  0  0  0  0  0
  -31.7715  -17.8007   22.8883 H   0  0  0  0  0  0
  -32.2345  -17.0113   21.4097 H   0  0  0  0  0  0
  -28.5639  -21.6862   12.7992 H   0  0  0  0  0  0
  -30.0495  -21.4042   13.5897 H   0  0  0  0  0  0
  -30.7398  -15.7921   23.7526 H   0  0  0  0  0  0
  -32.2807  -15.2955   23.0953 H   0  0  0  0  0  0
  -29.0432  -23.9562   13.2720 H   0  0  0  0  0  0
  -30.2580  -23.4339   14.4006 H   0  0  0  0  0  0
  -29.7517  -25.8956   18.5557 H   0  0  0  0  0  0
  -28.2385  -25.0696   18.5529 H   0  0  0  0  0  0
  -29.8244  -14.2197   22.4938 H   0  0  0  0  0  0
  -28.6880  -23.1692   16.0875 H   0  0  0  0  0  0
  -28.9501  -24.7127   15.5853 H   0  0  0  0  0  0
  1 25  1  0  0  0
  1 30  2  0  0  0
  1 93  1  0  0  0
  2  3  1  0  0  0
  2 25  1  0  0  0
  2 95  1  0  0  0
  2 96  1  0  0  0
  3  4  1  0  0  0
  3 97  1  0  0  0
  3 98  1  0  0  0
  4  5  1  0  0  0
  4 99  1  0  0  0
  4100  1  0  0  0
  5  6  1  0  0  0
  5 26  1  0  0  0
  5101  1  0  0  0
  6 25  1  0  0  0
  6102  1  0  0  0
  6103  1  0  0  0
  7  8  2  0  0  0
  7 26  1  0  0  0
  7 29  1  0  0  0
  8  9  1  0  0  0
  8 22  1  0  0  0
  9 10  1  0  0  0
  9 27  2  0  0  0
 10 11  2  0  0  0
 10 15  1  0  0  0
 11 12  1  0  0  0
 11104  1  0  0  0
 12 13  2  0  0  0
 12105  1  0  0  0
 13 14  1  0  0  0
 13 31  1  0  0  0
 14 15  2  0  0  0
 14106  1  0  0  0
 15107  1  0  0  0
 16 17  2  0  0  0
 16 21  1  0  0  0
 16 31  1  0  0  0
 17 18  1  0  0  0
 17108  1  0  0  0
 18 19  2  0  0  0
 18109  1  0  0  0
 19 20  1  0  0  0
 19 24  1  0  0  0
 20 21  2  0  0  0
 20110  1  0  0  0
 21 23  1  0  0  0
 22 28  1  0  0  0
 22 32  2  0  0  0
 26 27  1  0  0  0
 28111  1  0  0  0
 28112  1  0  0  0
 29113  1  0  0  0
 29114  1  0  0  0
 33 34  1  0  0  0
 33 66  1  0  0  0
 33 70  2  0  0  0
 34 36  1  0  0  0
 34 59  1  0  0  0
 34115  1  0  0  0
 35 44  2  0  0  0
 35 45  1  0  0  0
 35 68  1  0  0  0
 36 56  1  0  0  0
 36116  1  0  0  0
 37 39  1  0  0  0
 37 47  1  0  0  0
 37 66  1  0  0  0
 37117  1  0  0  0
 38 43  2  0  0  0
 38 46  1  0  0  0
 38 47  1  0  0  0
 39 64  1  0  0  0
 39 67  2  0  0  0
 40 52  1  0  0  0
 40 53  2  0  0  0
 40 58  1  0  0  0
 41118  1  0  0  0
 41119  1  0  0  0
 41120  1  0  0  0
 41 48  1  0  0  0
 42 43  1  0  0  0
 42 66  1  0  0  0
 42121  1  0  0  0
 42122  1  0  0  0
 43 44  1  0  0  0
 44123  1  0  0  0
 45 46  2  0  0  0
 45124  1  0  0  0
 46125  1  0  0  0
 47126  1  0  0  0
 47127  1  0  0  0
 48 56  1  0  0  0
 48 65  1  0  0  0
 48128  1  0  0  0
 49 50  1  0  0  0
 49 53  1  0  0  0
 49 64  1  0  0  0
 49129  1  0  0  0
 50 51  1  0  0  0
 50130  1  0  0  0
 50131  1  0  0  0
 51 52  1  0  0  0
 51132  1  0  0  0
 51133  1  0  0  0
 52134  1  0  0  0
 52135  1  0  0  0
 53 54  1  0  0  0
 54 55  2  0  0  0
 54136  1  0  0  0
 55 57  1  0  0  0
 55137  1  0  0  0
 56 69  2  0  0  0
 57 58  2  0  0  0
 57138  1  0  0  0
 58139  1  0  0  0
 59 60  1  0  0  0
 59 61  1  0  0  0
 59 62  1  0  0  0
 60140  1  0  0  0
 60141  1  0  0  0
 60142  1  0  0  0
 61143  1  0  0  0
 61144  1  0  0  0
 61145  1  0  0  0
 62146  1  0  0  0
 62147  1  0  0  0
 62148  1  0  0  0
 63 65  1  0  0  0
 63149  1  0  0  0
 63150  1  0  0  0
 63151  1  0  0  0
 64152  1  0  0  0
 65153  1  0  0  0
 68 92  1  0  0  0
 71 73  2  0  0  0
 71 75  1  0  0  0
 71154  1  0  0  0
 72 74  2  0  0  0
 72 76  1  0  0  0
 72155  1  0  0  0
 73 74  1  0  0  0
 73 77  1  0  0  0
 74 78  1  0  0  0
 75 76  2  0  0  0
 75 79  1  0  0  0
 76 80  1  0  0  0
 77156  1  0  0  0
 77157  1  0  0  0
 77158  1  0  0  0
 78159  1  0  0  0
 78160  1  0  0  0
 78161  1  0  0  0
 79 92  1  0  0  0
 79162  1  0  0  0
 79163  1  0  0  0
 80 94  1  0  0  0
 80164  1  0  0  0
 80165  1  0  0  0
 81 82  1  0  0  0
 81 83  1  0  0  0
 81166  1  0  0  0
 81167  1  0  0  0
 82 84  1  0  0  0
 82168  1  0  0  0
 82169  1  0  0  0
 83 85  1  0  0  0
 83170  1  0  0  0
 83171  1  0  0  0
 84 86  1  0  0  0
 84172  1  0  0  0
 84173  1  0  0  0
 85 87  1  0  0  0
 85174  1  0  0  0
 85175  1  0  0  0
 86 88  1  0  0  0
 86176  1  0  0  0
 86177  1  0  0  0
 87 89  1  0  0  0
 87178  1  0  0  0
 87179  1  0  0  0
 88 90  1  0  0  0
 88180  1  0  0  0
 88181  1  0  0  0
 89 91  1  0  0  0
 89182  1  0  0  0
 89183  1  0  0  0
 90 93  1  0  0  0
 90184  1  0  0  0
 90185  1  0  0  0
 91 94  1  0  0  0
 91186  1  0  0  0
 91187  1  0  0  0
 92188  1  0  0  0
 92189  1  0  0  0
 93190  1  0  0  0
 94191  1  0  0  0
 94192  1  0  0  0
M  CHG  1  94   1
M  ISO  4   1 100  68 101  92 101  93 100
M  END
> <chiral flag>
0

> <version>
0

> <s_m_source_file>
/data/baiqing/PycharmProjects/Reinvent-master-3.2/result/LINK_invent/BTK/process_docking_weight1_custom_sum_contain_oxygen_bond_distance_aromatic_linkinvent_7_9_3/rearranged_h_0037.sdf

> <i_m_source_file_index>
94

> <r_mmod_Potential_Energy-OPLS-2005>
-60.6508102416992

> <r_mmod_Stretch_Energy-OPLS-2005>
58.4198036193848

> <r_mmod_Bend_Energy-OPLS-2005>
192.863265991211

> <r_mmod_Torsional_Energy-OPLS-2005>
268.209167480469

> <r_mmod_Improper_Torsional_Energy-OPLS-2005>
4.01145792007446

> <r_mmod_Van_der_Waal_Energy-OPLS-2005>
140.158813476562

> <r_mmod_Electrostatic_Energy-OPLS-2005>
-309.863800048828

> <r_mmod_Solvation_Energy-OPLS-2005>
-447.067260742188

> <b_mmod_Minimization_Converged-OPLS-2005>
0

> <r_mmod_RMS_Derivative-OPLS-2005>
13.4245347976685

$$$$
94
                    3D
 Structure written by MMmdl.
165173  0  0  1  0            999 V2000
  -30.6807  -14.3675   20.6749 C   0  0  0  0  0  0
  -30.4387  -12.2765   19.3877 C   0  0  0  0  0  0
  -29.4984  -12.5389   18.1932 C   0  0  0  0  0  0
  -28.0165  -12.3953   18.6003 C   0  0  0  0  0  0
  -27.6753  -13.1840   19.8929 C   0  0  2  0  0  0
  -28.7079  -12.8402   20.9891 C   0  0  0  0  0  0
  -25.2659  -13.8125   20.5653 C   0  0  0  0  0  0
  -24.1865  -13.0456   20.9165 C   0  0  0  0  0  0
  -24.6370  -11.6903   20.8744 C   0  0  0  0  0  0
  -23.9026  -10.4310   21.0440 C   0  0  0  0  0  0
  -24.3584   -9.4222   21.9204 C   0  0  0  0  0  0
  -23.6265   -8.2253   22.0752 C   0  0  0  0  0  0
  -22.4255   -8.0285   21.3539 C   0  0  0  0  0  0
  -21.9894   -9.0272   20.4654 C   0  0  0  0  0  0
  -22.7215  -10.2156   20.3071 C   0  0  0  0  0  0
  -21.6852   -6.0733   22.5273 C   0  0  0  0  0  0
  -21.4019   -6.5633   23.8212 C   0  0  0  0  0  0
  -21.3653   -5.6780   24.9167 C   0  0  0  0  0  0
  -21.6051   -4.3043   24.7200 C   0  0  0  0  0  0
  -21.8829   -3.8136   23.4323 C   0  0  0  0  0  0
  -21.9191   -4.6962   22.3388 C   0  0  0  0  0  0
  -22.7895  -13.5311   21.1801 C   0  0  0  0  0  0
  -22.1665   -4.2156   21.0963 F   0  0  0  0  0  0
  -21.5617   -3.4524   25.7709 F   0  0  0  0  0  0
  -30.0508  -13.1830   20.4749 N   0  0  0  0  0  0
  -26.3074  -12.9240   20.3398 N   0  0  0  0  0  0
  -25.9283  -11.6418   20.5727 N   0  0  0  0  0  0
  -22.0459  -12.8366   22.0347 N   0  0  0  0  0  0
  -25.4463  -15.1830   20.4027 N   0  0  0  0  0  0
  -31.7139  -14.7108   20.0889 O   0  0  0  0  0  0
  -21.6627   -6.8879   21.4235 O   0  0  0  0  0  0
  -22.3635  -14.5619   20.6610 O   0  0  0  0  0  0
  -24.6119  -31.8711   23.2098 C   0  0  0  0  0  0
  -25.9022  -32.4841   23.8402 C   0  0  1  0  0  0
  -27.2311  -27.4538   20.0945 C   0  0  0  0  0  0
  -25.5891  -33.8643   24.2324 N   0  0  0  0  0  0
  -23.3989  -30.4964   21.5490 C   0  0  2  0  0  0
  -24.8443  -28.9659   20.1111 C   0  0  0  0  0  0
  -22.7390  -29.4696   22.4967 C   0  0  0  0  0  0
  -18.0274  -28.1397   22.8500 C   0  0  0  0  0  0
  -24.1480  -36.7320   23.2639 C   0  0  0  0  0  0
  -25.9267  -30.8412   21.3595 C   0  0  0  0  0  0
  -26.0031  -29.4793   20.7038 C   0  0  0  0  0  0
  -27.2027  -28.7362   20.6850 C   0  0  0  0  0  0
  -26.0571  -26.9556   19.4859 C   0  0  0  0  0  0
  -24.8658  -27.7027   19.4954 C   0  0  0  0  0  0
  -23.6040  -29.8287   20.1634 C   0  0  0  0  0  0
  -25.4105  -36.3114   24.0335 C   0  0  1  0  0  0
  -20.5853  -28.3682   23.1311 C   0  0  2  0  0  0
  -20.6755  -26.9422   22.5407 C   0  0  0  0  0  0
  -19.5718  -26.6391   21.5213 C   0  0  0  0  0  0
  -18.1905  -26.7941   22.1624 C   0  0  0  0  0  0
  -19.1520  -28.8858   23.2909 C   0  0  0  0  0  0
  -18.9447  -30.1469   23.8928 C   0  0  0  0  0  0
  -17.6443  -30.6605   24.0587 C   0  0  0  0  0  0
  -25.9030  -34.9483   23.5133 C   0  0  0  0  0  0
  -16.5339  -29.9110   23.6340 C   0  0  0  0  0  0
  -16.7255  -28.6523   23.0366 C   0  0  0  0  0  0
  -26.4466  -31.6603   25.0708 C   0  0  0  0  0  0
  -25.3758  -31.3700   26.1480 C   0  0  0  0  0  0
  -27.0295  -30.3052   24.6044 C   0  0  0  0  0  0
  -27.6043  -32.4328   25.7477 C   0  0  0  0  0  0
  -27.5575  -37.1823   24.8464 C   0  0  0  0  0  0
  -21.4125  -29.3067   22.3733 N   0  0  0  0  0  0
  -26.4289  -37.3796   23.9410 N   0  0  0  0  0  0
  -24.6649  -31.0841   22.0971 N   0  0  0  0  0  0
  -23.4179  -28.8237   23.2998 O   0  0  0  0  0  0
  -28.3910  -26.7134   20.1473 O   0  0  0  0  0  0
  -26.5589  -34.8924   22.4680 O   0  0  0  0  0  0
  -23.5321  -32.1448   23.7508 O   0  0  0  0  0  0
  -29.5209  -21.3645   23.4653 C   0  0  0  0  0  0
  -29.0191  -20.9586   22.1993 C   0  0  0  0  0  0
  -28.9105  -22.5632   23.7183 C   0  0  0  0  0  0
  -29.3602  -22.7594   26.2176 C   0  0  0  0  0  0
  -29.3244  -19.6748   21.4660 C   0  0  0  0  0  0
  -29.0412  -23.4796   24.8988 C   0  0  0  0  0  0
  -28.3382  -18.5596   21.8500 C   0  0  0  0  0  0
  -28.6503  -17.1745   21.2598 C   0  0  0  0  0  0
  -27.7760  -25.2599   22.0479 C   0  0  0  0  0  0
  -27.1381  -23.9158   22.4481 C   0  0  0  0  0  0
  -30.0420  -16.6110   21.6302 C   0  0  0  0  0  0
  -28.2488  -25.3487   20.5760 C   0  0  0  0  0  0
  -28.1549  -21.8375   21.7081 N   0  0  0  0  0  0
  -28.0843  -22.8234   22.6349 N   0  0  0  0  0  0
  -30.0161  -15.1614   21.5219 N   0  0  0  0  0  0
  -31.4807  -12.4090   19.0920 H   0  0  0  0  0  0
  -30.3528  -11.2400   19.7161 H   0  0  0  0  0  0
  -29.7314  -11.8536   17.3786 H   0  0  0  0  0  0
  -29.6732  -13.5431   17.8050 H   0  0  0  0  0  0
  -27.8194  -11.3337   18.7540 H   0  0  0  0  0  0
  -27.3671  -12.7083   17.7808 H   0  0  0  0  0  0
  -27.7587  -14.2480   19.6684 H   0  0  0  0  0  0
  -28.6752  -11.7705   21.2054 H   0  0  0  0  0  0
  -28.4479  -13.3163   21.9345 H   0  0  0  0  0  0
  -25.2724   -9.5709   22.4790 H   0  0  0  0  0  0
  -23.9974   -7.4658   22.7482 H   0  0  0  0  0  0
  -21.0819   -8.8815   19.8965 H   0  0  0  0  0  0
  -22.3684  -10.9707   19.6178 H   0  0  0  0  0  0
  -21.2026   -7.6145   23.9722 H   0  0  0  0  0  0
  -21.1463   -6.0497   25.9078 H   0  0  0  0  0  0
  -22.0608   -2.7595   23.2809 H   0  0  0  0  0  0
  -22.3953  -12.0033   22.4848 H   0  0  0  0  0  0
  -21.1079  -13.1477   22.2430 H   0  0  0  0  0  0
  -24.6905  -15.8515   20.5112 H   0  0  0  0  0  0
  -26.3069  -15.6061   20.0775 H   0  0  0  0  0  0
  -26.7109  -32.5560   23.1190 H   0  0  0  0  0  0
  -25.0079  -33.9798   25.0500 H   0  0  0  0  0  0
  -22.6859  -31.3139   21.4159 H   0  0  0  0  0  0
  -23.3721  -35.9672   23.3314 H   0  0  0  0  0  0
  -24.3576  -36.8899   22.2045 H   0  0  0  0  0  0
  -23.7238  -37.6534   23.6649 H   0  0  0  0  0  0
  -26.0396  -31.6069   20.5902 H   0  0  0  0  0  0
  -26.8144  -30.8892   21.9799 H   0  0  0  0  0  0
  -28.0945  -29.1306   21.1494 H   0  0  0  0  0  0
  -26.0477  -25.9938   18.9953 H   0  0  0  0  0  0
  -23.9779  -27.3055   19.0244 H   0  0  0  0  0  0
  -23.7038  -30.6025   19.4016 H   0  0  0  0  0  0
  -22.7310  -29.2412   19.8749 H   0  0  0  0  0  0
  -25.1283  -36.1987   25.0828 H   0  0  0  0  0  0
  -20.9976  -28.3249   24.1417 H   0  0  0  0  0  0
  -20.5641  -26.2304   23.3596 H   0  0  0  0  0  0
  -21.6633  -26.7454   22.1228 H   0  0  0  0  0  0
  -19.6855  -25.6299   21.1249 H   0  0  0  0  0  0
  -19.6656  -27.3202   20.6747 H   0  0  0  0  0  0
  -17.4182  -26.6720   21.4018 H   0  0  0  0  0  0
  -18.0305  -26.0074   22.9013 H   0  0  0  0  0  0
  -19.7923  -30.7297   24.2276 H   0  0  0  0  0  0
  -17.5005  -31.6283   24.5199 H   0  0  0  0  0  0
  -15.5345  -30.3036   23.7636 H   0  0  0  0  0  0
  -15.8654  -28.0864   22.7057 H   0  0  0  0  0  0
  -24.5927  -30.7042   25.7828 H   0  0  0  0  0  0
  -24.8973  -32.2854   26.4965 H   0  0  0  0  0  0
  -25.8133  -30.8855   27.0214 H   0  0  0  0  0  0
  -26.2806  -29.6814   24.1144 H   0  0  0  0  0  0
  -27.4129  -29.7278   25.4464 H   0  0  0  0  0  0
  -27.8618  -30.4375   23.9129 H   0  0  0  0  0  0
  -27.2650  -33.3611   26.2097 H   0  0  0  0  0  0
  -28.3840  -32.6915   25.0300 H   0  0  0  0  0  0
  -28.0739  -31.8437   26.5364 H   0  0  0  0  0  0
  -28.2627  -38.0094   24.7520 H   0  0  0  0  0  0
  -28.1043  -36.2636   24.6300 H   0  0  0  0  0  0
  -27.2316  -37.1486   25.8873 H   0  0  0  0  0  0
  -20.9253  -29.8832   21.7015 H   0  0  0  0  0  0
  -26.0169  -38.2867   24.1399 H   0  0  0  0  0  0
  -30.2163  -20.8363   24.1037 H   0  0  0  0  0  0
  -29.4046  -23.4616   27.0509 H   0  0  0  0  0  0
  -30.3200  -22.2457   26.1665 H   0  0  0  0  0  0
  -28.5965  -22.0170   26.4504 H   0  0  0  0  0  0
  -30.3398  -19.3603   21.7087 H   0  0  0  0  0  0
  -29.3080  -19.8309   20.3864 H   0  0  0  0  0  0
  -28.1304  -24.0590   25.0365 H   0  0  0  0  0  0
  -29.8245  -24.2089   24.6909 H   0  0  0  0  0  0
  -27.3326  -18.8549   21.5471 H   0  0  0  0  0  0
  -28.3055  -18.4715   22.9372 H   0  0  0  0  0  0
  -28.5352  -17.1939   20.1754 H   0  0  0  0  0  0
  -27.8744  -16.4970   21.6241 H   0  0  0  0  0  0
  -28.5988  -25.5104   22.7222 H   0  0  0  0  0  0
  -27.0153  -26.0170   22.2332 H   0  0  0  0  0  0
  -26.3799  -23.6245   21.7197 H   0  0  0  0  0  0
  -26.5939  -24.0455   23.3831 H   0  0  0  0  0  0
  -30.2979  -16.8650   22.6594 H   0  0  0  0  0  0
  -30.8140  -17.0403   20.9910 H   0  0  0  0  0  0
  -27.5812  -24.7953   19.9148 H   0  0  0  0  0  0
  -29.2151  -24.8545   20.4805 H   0  0  0  0  0  0
  -29.2585  -14.7000   22.0049 H   0  0  0  0  0  0
  1 25  1  0  0  0
  1 30  2  0  0  0
  1 85  1  0  0  0
  2  3  1  0  0  0
  2 25  1  0  0  0
  2 86  1  0  0  0
  2 87  1  0  0  0
  3  4  1  0  0  0
  3 88  1  0  0  0
  3 89  1  0  0  0
  4  5  1  0  0  0
  4 90  1  0  0  0
  4 91  1  0  0  0
  5  6  1  0  0  0
  5 26  1  0  0  0
  5 92  1  0  0  0
  6 25  1  0  0  0
  6 93  1  0  0  0
  6 94  1  0  0  0
  7  8  2  0  0  0
  7 26  1  0  0  0
  7 29  1  0  0  0
  8  9  1  0  0  0
  8 22  1  0  0  0
  9 10  1  0  0  0
  9 27  2  0  0  0
 10 11  2  0  0  0
 10 15  1  0  0  0
 11 12  1  0  0  0
 11 95  1  0  0  0
 12 13  2  0  0  0
 12 96  1  0  0  0
 13 14  1  0  0  0
 13 31  1  0  0  0
 14 15  2  0  0  0
 14 97  1  0  0  0
 15 98  1  0  0  0
 16 17  2  0  0  0
 16 21  1  0  0  0
 16 31  1  0  0  0
 17 18  1  0  0  0
 17 99  1  0  0  0
 18 19  2  0  0  0
 18100  1  0  0  0
 19 20  1  0  0  0
 19 24  1  0  0  0
 20 21  2  0  0  0
 20101  1  0  0  0
 21 23  1  0  0  0
 22 28  1  0  0  0
 22 32  2  0  0  0
 26 27  1  0  0  0
 28102  1  0  0  0
 28103  1  0  0  0
 29104  1  0  0  0
 29105  1  0  0  0
 33 34  1  0  0  0
 33 66  1  0  0  0
 33 70  2  0  0  0
 34 36  1  0  0  0
 34 59  1  0  0  0
 34106  1  0  0  0
 35 44  2  0  0  0
 35 45  1  0  0  0
 35 68  1  0  0  0
 36 56  1  0  0  0
 36107  1  0  0  0
 37 39  1  0  0  0
 37 47  1  0  0  0
 37 66  1  0  0  0
 37108  1  0  0  0
 38 43  2  0  0  0
 38 46  1  0  0  0
 38 47  1  0  0  0
 39 64  1  0  0  0
 39 67  2  0  0  0
 40 52  1  0  0  0
 40 53  2  0  0  0
 40 58  1  0  0  0
 41109  1  0  0  0
 41110  1  0  0  0
 41111  1  0  0  0
 41 48  1  0  0  0
 42 43  1  0  0  0
 42 66  1  0  0  0
 42112  1  0  0  0
 42113  1  0  0  0
 43 44  1  0  0  0
 44114  1  0  0  0
 45 46  2  0  0  0
 45115  1  0  0  0
 46116  1  0  0  0
 47117  1  0  0  0
 47118  1  0  0  0
 48 56  1  0  0  0
 48 65  1  0  0  0
 48119  1  0  0  0
 49 50  1  0  0  0
 49 53  1  0  0  0
 49 64  1  0  0  0
 49120  1  0  0  0
 50 51  1  0  0  0
 50121  1  0  0  0
 50122  1  0  0  0
 51 52  1  0  0  0
 51123  1  0  0  0
 51124  1  0  0  0
 52125  1  0  0  0
 52126  1  0  0  0
 53 54  1  0  0  0
 54 55  2  0  0  0
 54127  1  0  0  0
 55 57  1  0  0  0
 55128  1  0  0  0
 56 69  2  0  0  0
 57 58  2  0  0  0
 57129  1  0  0  0
 58130  1  0  0  0
 59 60  1  0  0  0
 59 61  1  0  0  0
 59 62  1  0  0  0
 60131  1  0  0  0
 60132  1  0  0  0
 60133  1  0  0  0
 61134  1  0  0  0
 61135  1  0  0  0
 61136  1  0  0  0
 62137  1  0  0  0
 62138  1  0  0  0
 62139  1  0  0  0
 63 65  1  0  0  0
 63140  1  0  0  0
 63141  1  0  0  0
 63142  1  0  0  0
 64143  1  0  0  0
 65144  1  0  0  0
 68 82  1  0  0  0
 71 72  1  0  0  0
 71 73  2  0  0  0
 71145  1  0  0  0
 72 75  1  0  0  0
 72 83  2  0  0  0
 73 76  1  0  0  0
 73 84  1  0  0  0
 74 76  1  0  0  0
 74146  1  0  0  0
 74147  1  0  0  0
 74148  1  0  0  0
 75 77  1  0  0  0
 75149  1  0  0  0
 75150  1  0  0  0
 76151  1  0  0  0
 76152  1  0  0  0
 77 78  1  0  0  0
 77153  1  0  0  0
 77154  1  0  0  0
 78 81  1  0  0  0
 78155  1  0  0  0
 78156  1  0  0  0
 79 80  1  0  0  0
 79 82  1  0  0  0
 79157  1  0  0  0
 79158  1  0  0  0
 80 84  1  0  0  0
 80159  1  0  0  0
 80160  1  0  0  0
 81 85  1  0  0  0
 81161  1  0  0  0
 81162  1  0  0  0
 82163  1  0  0  0
 82164  1  0  0  0
 83 84  1  0  0  0
 85165  1  0  0  0
M  ISO  4   1 100  68 101  82 101  85 100
M  END
> <chiral flag>
0

> <version>
0

> <s_m_source_file>
/data/baiqing/PycharmProjects/Reinvent-master-3.2/result/LINK_invent/BTK/process_docking_weight1_custom_sum_contain_oxygen_bond_distance_aromatic_linkinvent_7_9_3/rearranged_h_0037.sdf

> <i_m_source_file_index>
95

> <r_mmod_Potential_Energy-OPLS-2005>
-144.221313476562

> <r_mmod_Stretch_Energy-OPLS-2005>
32.1070213317871

> <r_mmod_Bend_Energy-OPLS-2005>
94.7411651611328

> <r_mmod_Torsional_Energy-OPLS-2005>
221.384643554688

> <r_mmod_Improper_Torsional_Energy-OPLS-2005>
3.29129862785339

> <r_mmod_Van_der_Waal_Energy-OPLS-2005>
125.496971130371

> <r_mmod_Electrostatic_Energy-OPLS-2005>
-418.541473388672

> <r_mmod_Solvation_Energy-OPLS-2005>
-214.379211425781

> <b_mmod_Minimization_Converged-OPLS-2005>
0

> <r_mmod_RMS_Derivative-OPLS-2005>
3.52057576179504

$$$$
95
                    3D
 Structure written by MMmdl.
165173  0  0  1  0            999 V2000
  -30.7159  -14.4495   20.5800 C   0  0  0  0  0  0
  -30.4285  -12.2838   19.4467 C   0  0  0  0  0  0
  -29.5043  -12.4860   18.2261 C   0  0  0  0  0  0
  -28.0264  -12.3350   18.6425 C   0  0  0  0  0  0
  -27.6687  -13.1995   19.8858 C   0  0  2  0  0  0
  -28.7099  -12.9851   21.0100 C   0  0  0  0  0  0
  -25.2637  -13.8144   20.5692 C   0  0  0  0  0  0
  -24.1872  -13.0441   20.9205 C   0  0  0  0  0  0
  -24.6406  -11.6911   20.8757 C   0  0  0  0  0  0
  -23.9069  -10.4308   21.0383 C   0  0  0  0  0  0
  -24.3630   -9.4217   21.9148 C   0  0  0  0  0  0
  -23.6317   -8.2246   22.0727 C   0  0  0  0  0  0
  -22.4289   -8.0288   21.3535 C   0  0  0  0  0  0
  -21.9913   -9.0251   20.4637 C   0  0  0  0  0  0
  -22.7245  -10.2139   20.3044 C   0  0  0  0  0  0
  -21.6842   -6.0759   22.5282 C   0  0  0  0  0  0
  -21.4008   -6.5655   23.8225 C   0  0  0  0  0  0
  -21.3671   -5.6797   24.9174 C   0  0  0  0  0  0
  -21.6033   -4.3052   24.7191 C   0  0  0  0  0  0
  -21.8833   -3.8168   23.4316 C   0  0  0  0  0  0
  -21.9203   -4.7000   22.3386 C   0  0  0  0  0  0
  -22.7900  -13.5259   21.1842 C   0  0  0  0  0  0
  -22.1662   -4.2190   21.0951 F   0  0  0  0  0  0
  -21.5638   -3.4541   25.7702 F   0  0  0  0  0  0
  -30.0417  -13.2752   20.4578 N   0  0  0  0  0  0
  -26.3070  -12.9300   20.3436 N   0  0  0  0  0  0
  -25.9342  -11.6481   20.5830 N   0  0  0  0  0  0
  -22.0549  -12.8265   22.0424 N   0  0  0  0  0  0
  -25.4337  -15.1842   20.4037 N   0  0  0  0  0  0
  -31.8462  -14.6064   20.1090 O   0  0  0  0  0  0
  -21.6628   -6.8912   21.4260 O   0  0  0  0  0  0
  -22.3597  -14.5551   20.6667 O   0  0  0  0  0  0
  -24.6056  -31.8687   23.2108 C   0  0  0  0  0  0
  -25.8964  -32.4836   23.8387 C   0  0  1  0  0  0
  -27.2527  -27.4810   20.0923 C   0  0  0  0  0  0
  -25.5862  -33.8650   24.2331 N   0  0  0  0  0  0
  -23.3950  -30.4923   21.5486 C   0  0  2  0  0  0
  -24.8444  -28.9540   20.1166 C   0  0  0  0  0  0
  -22.7351  -29.4653   22.4986 C   0  0  0  0  0  0
  -18.0270  -28.1357   22.8505 C   0  0  0  0  0  0
  -24.1494  -36.7307   23.2645 C   0  0  0  0  0  0
  -25.9158  -30.8486   21.3517 C   0  0  0  0  0  0
  -25.9947  -29.4831   20.7065 C   0  0  0  0  0  0
  -27.1974  -28.7540   20.6927 C   0  0  0  0  0  0
  -26.0822  -26.9434   19.5081 C   0  0  0  0  0  0
  -24.8781  -27.6785   19.5207 C   0  0  0  0  0  0
  -23.6017  -29.8156   20.1627 C   0  0  0  0  0  0
  -25.4115  -36.3143   24.0354 C   0  0  1  0  0  0
  -20.5854  -28.3607   23.1350 C   0  0  2  0  0  0
  -20.6756  -26.9353   22.5417 C   0  0  0  0  0  0
  -19.5764  -26.6375   21.5195 C   0  0  0  0  0  0
  -18.1938  -26.7913   22.1599 C   0  0  0  0  0  0
  -19.1524  -28.8806   23.2929 C   0  0  0  0  0  0
  -18.9449  -30.1407   23.8925 C   0  0  0  0  0  0
  -17.6460  -30.6576   24.0579 C   0  0  0  0  0  0
  -25.9028  -34.9494   23.5135 C   0  0  0  0  0  0
  -16.5349  -29.9078   23.6328 C   0  0  0  0  0  0
  -16.7255  -28.6506   23.0348 C   0  0  0  0  0  0
  -26.4422  -31.6615   25.0703 C   0  0  0  0  0  0
  -25.3717  -31.3714   26.1481 C   0  0  0  0  0  0
  -27.0194  -30.3083   24.5960 C   0  0  0  0  0  0
  -27.6027  -32.4296   25.7450 C   0  0  0  0  0  0
  -27.5593  -37.1817   24.8477 C   0  0  0  0  0  0
  -21.4088  -29.2998   22.3748 N   0  0  0  0  0  0
  -26.4316  -37.3808   23.9417 N   0  0  0  0  0  0
  -24.6583  -31.0840   22.0966 N   0  0  0  0  0  0
  -23.4176  -28.8190   23.2986 O   0  0  0  0  0  0
  -28.4802  -26.8710   20.0953 O   0  0  0  0  0  0
  -26.5591  -34.8942   22.4700 O   0  0  0  0  0  0
  -23.5263  -32.1366   23.7569 O   0  0  0  0  0  0
  -32.7731  -22.6698   23.2747 C   0  0  0  0  0  0
  -32.0262  -21.5454   23.6593 C   0  0  0  0  0  0
  -32.3148  -23.4481   22.1932 C   0  0  0  0  0  0
  -30.8541  -21.2327   22.9522 C   0  0  0  0  0  0
  -31.1324  -23.0484   21.5280 C   0  0  0  0  0  0
  -33.0892  -24.6954   21.8013 C   0  0  0  0  0  0
  -30.0468  -19.9959   23.2996 C   0  0  0  0  0  0
  -30.5340  -23.8180   20.3618 C   0  0  0  0  0  0
  -30.0310  -15.7090   21.1484 C   0  0  0  0  0  0
  -30.6470  -18.7282   22.6649 C   0  0  0  0  0  0
  -29.7698  -25.0678   20.8210 C   0  0  0  0  0  0
  -30.5911  -16.1549   22.5153 C   0  0  0  0  0  0
  -29.9249  -17.4311   23.0815 C   0  0  0  0  0  0
  -28.6149  -25.4777   19.8967 C   0  0  0  0  0  0
  -30.4207  -21.9664   21.9080 N   0  0  0  0  0  0
  -31.4800  -12.3608   19.1640 H   0  0  0  0  0  0
  -30.3053  -11.2787   19.8501 H   0  0  0  0  0  0
  -29.7524  -11.7593   17.4492 H   0  0  0  0  0  0
  -29.6685  -13.4716   17.7929 H   0  0  0  0  0  0
  -27.8622  -11.2806   18.8767 H   0  0  0  0  0  0
  -27.3606  -12.5647   17.8096 H   0  0  0  0  0  0
  -27.7193  -14.2446   19.5822 H   0  0  0  0  0  0
  -28.6775  -11.9496   21.3545 H   0  0  0  0  0  0
  -28.4872  -13.5884   21.8915 H   0  0  0  0  0  0
  -25.2767   -9.5689   22.4724 H   0  0  0  0  0  0
  -24.0048   -7.4622   22.7418 H   0  0  0  0  0  0
  -21.0851   -8.8771   19.8921 H   0  0  0  0  0  0
  -22.3683  -10.9685   19.6173 H   0  0  0  0  0  0
  -21.1988   -7.6151   23.9744 H   0  0  0  0  0  0
  -21.1478   -6.0499   25.9078 H   0  0  0  0  0  0
  -22.0594   -2.7630   23.2776 H   0  0  0  0  0  0
  -22.4181  -11.9955   22.4855 H   0  0  0  0  0  0
  -21.1141  -13.1246   22.2577 H   0  0  0  0  0  0
  -24.6665  -15.8364   20.5260 H   0  0  0  0  0  0
  -26.2869  -15.6272   20.0842 H   0  0  0  0  0  0
  -26.7036  -32.5565   23.1171 H   0  0  0  0  0  0
  -25.0118  -33.9842   25.0541 H   0  0  0  0  0  0
  -22.6826  -31.3083   21.4079 H   0  0  0  0  0  0
  -23.3775  -35.9628   23.3328 H   0  0  0  0  0  0
  -24.3600  -36.8860   22.2054 H   0  0  0  0  0  0
  -23.7210  -37.6516   23.6602 H   0  0  0  0  0  0
  -26.0125  -31.6114   20.5767 H   0  0  0  0  0  0
  -26.8110  -30.9111   21.9590 H   0  0  0  0  0  0
  -28.0906  -29.1718   21.1319 H   0  0  0  0  0  0
  -26.0906  -25.9756   19.0289 H   0  0  0  0  0  0
  -23.9922  -27.2608   19.0656 H   0  0  0  0  0  0
  -23.7031  -30.5887   19.4005 H   0  0  0  0  0  0
  -22.7300  -29.2285   19.8693 H   0  0  0  0  0  0
  -25.1277  -36.2039   25.0848 H   0  0  0  0  0  0
  -20.9956  -28.3140   24.1467 H   0  0  0  0  0  0
  -20.5645  -26.2177   23.3560 H   0  0  0  0  0  0
  -21.6634  -26.7393   22.1227 H   0  0  0  0  0  0
  -19.6921  -25.6294   21.1195 H   0  0  0  0  0  0
  -19.6755  -27.3225   20.6779 H   0  0  0  0  0  0
  -17.4198  -26.6686   21.3994 H   0  0  0  0  0  0
  -18.0331  -26.0030   22.8976 H   0  0  0  0  0  0
  -19.7935  -30.7239   24.2286 H   0  0  0  0  0  0
  -17.5019  -31.6266   24.5163 H   0  0  0  0  0  0
  -15.5355  -30.3011   23.7627 H   0  0  0  0  0  0
  -15.8649  -28.0854   22.7014 H   0  0  0  0  0  0
  -24.6004  -30.6880   25.7899 H   0  0  0  0  0  0
  -24.8763  -32.2836   26.4813 H   0  0  0  0  0  0
  -25.8138  -30.9075   27.0301 H   0  0  0  0  0  0
  -26.2673  -29.6957   24.0983 H   0  0  0  0  0  0
  -27.3976  -29.7214   25.4327 H   0  0  0  0  0  0
  -27.8499  -30.4455   23.9043 H   0  0  0  0  0  0
  -27.2694  -33.3635   26.1986 H   0  0  0  0  0  0
  -28.3862  -32.6757   25.0271 H   0  0  0  0  0  0
  -28.0622  -31.8405   26.5393 H   0  0  0  0  0  0
  -28.2627  -38.0102   24.7519 H   0  0  0  0  0  0
  -28.1063  -36.2630   24.6306 H   0  0  0  0  0  0
  -27.2297  -37.1464   25.8877 H   0  0  0  0  0  0
  -20.9175  -29.8758   21.7048 H   0  0  0  0  0  0
  -26.0218  -38.2892   24.1438 H   0  0  0  0  0  0
  -33.6775  -22.9239   23.8069 H   0  0  0  0  0  0
  -32.3623  -20.9319   24.4848 H   0  0  0  0  0  0
  -34.1210  -24.6435   22.1523 H   0  0  0  0  0  0
  -32.6343  -25.5778   22.2513 H   0  0  0  0  0  0
  -33.1116  -24.8366   20.7208 H   0  0  0  0  0  0
  -29.0171  -20.1410   22.9664 H   0  0  0  0  0  0
  -30.0112  -19.9045   24.3858 H   0  0  0  0  0  0
  -29.8565  -23.1574   19.8176 H   0  0  0  0  0  0
  -31.3123  -24.0842   19.6475 H   0  0  0  0  0  0
  -30.2184  -16.5130   20.4365 H   0  0  0  0  0  0
  -28.9468  -15.6125   21.1655 H   0  0  0  0  0  0
  -31.6957  -18.6622   22.9610 H   0  0  0  0  0  0
  -30.6385  -18.8384   21.5806 H   0  0  0  0  0  0
  -30.4848  -25.8841   20.9338 H   0  0  0  0  0  0
  -29.3526  -24.9106   21.8152 H   0  0  0  0  0  0
  -30.4587  -15.3370   23.2241 H   0  0  0  0  0  0
  -31.6716  -16.3056   22.4348 H   0  0  0  0  0  0
  -28.8725  -17.4724   22.7928 H   0  0  0  0  0  0
  -29.9328  -17.3753   24.1713 H   0  0  0  0  0  0
  -27.7215  -24.9129   20.1646 H   0  0  0  0  0  0
  -28.8520  -25.2882   18.8501 H   0  0  0  0  0  0
  1 25  1  0  0  0
  1 30  2  0  0  0
  1 79  1  0  0  0
  2  3  1  0  0  0
  2 25  1  0  0  0
  2 86  1  0  0  0
  2 87  1  0  0  0
  3  4  1  0  0  0
  3 88  1  0  0  0
  3 89  1  0  0  0
  4  5  1  0  0  0
  4 90  1  0  0  0
  4 91  1  0  0  0
  5  6  1  0  0  0
  5 26  1  0  0  0
  5 92  1  0  0  0
  6 25  1  0  0  0
  6 93  1  0  0  0
  6 94  1  0  0  0
  7  8  2  0  0  0
  7 26  1  0  0  0
  7 29  1  0  0  0
  8  9  1  0  0  0
  8 22  1  0  0  0
  9 10  1  0  0  0
  9 27  2  0  0  0
 10 11  2  0  0  0
 10 15  1  0  0  0
 11 12  1  0  0  0
 11 95  1  0  0  0
 12 13  2  0  0  0
 12 96  1  0  0  0
 13 14  1  0  0  0
 13 31  1  0  0  0
 14 15  2  0  0  0
 14 97  1  0  0  0
 15 98  1  0  0  0
 16 17  2  0  0  0
 16 21  1  0  0  0
 16 31  1  0  0  0
 17 18  1  0  0  0
 17 99  1  0  0  0
 18 19  2  0  0  0
 18100  1  0  0  0
 19 20  1  0  0  0
 19 24  1  0  0  0
 20 21  2  0  0  0
 20101  1  0  0  0
 21 23  1  0  0  0
 22 28  1  0  0  0
 22 32  2  0  0  0
 26 27  1  0  0  0
 28102  1  0  0  0
 28103  1  0  0  0
 29104  1  0  0  0
 29105  1  0  0  0
 33 34  1  0  0  0
 33 66  1  0  0  0
 33 70  2  0  0  0
 34 36  1  0  0  0
 34 59  1  0  0  0
 34106  1  0  0  0
 35 44  2  0  0  0
 35 45  1  0  0  0
 35 68  1  0  0  0
 36 56  1  0  0  0
 36107  1  0  0  0
 37 39  1  0  0  0
 37 47  1  0  0  0
 37 66  1  0  0  0
 37108  1  0  0  0
 38 43  2  0  0  0
 38 46  1  0  0  0
 38 47  1  0  0  0
 39 64  1  0  0  0
 39 67  2  0  0  0
 40 52  1  0  0  0
 40 53  2  0  0  0
 40 58  1  0  0  0
 41109  1  0  0  0
 41110  1  0  0  0
 41111  1  0  0  0
 41 48  1  0  0  0
 42 43  1  0  0  0
 42 66  1  0  0  0
 42112  1  0  0  0
 42113  1  0  0  0
 43 44  1  0  0  0
 44114  1  0  0  0
 45 46  2  0  0  0
 45115  1  0  0  0
 46116  1  0  0  0
 47117  1  0  0  0
 47118  1  0  0  0
 48 56  1  0  0  0
 48 65  1  0  0  0
 48119  1  0  0  0
 49 50  1  0  0  0
 49 53  1  0  0  0
 49 64  1  0  0  0
 49120  1  0  0  0
 50 51  1  0  0  0
 50121  1  0  0  0
 50122  1  0  0  0
 51 52  1  0  0  0
 51123  1  0  0  0
 51124  1  0  0  0
 52125  1  0  0  0
 52126  1  0  0  0
 53 54  1  0  0  0
 54 55  2  0  0  0
 54127  1  0  0  0
 55 57  1  0  0  0
 55128  1  0  0  0
 56 69  2  0  0  0
 57 58  2  0  0  0
 57129  1  0  0  0
 58130  1  0  0  0
 59 60  1  0  0  0
 59 61  1  0  0  0
 59 62  1  0  0  0
 60131  1  0  0  0
 60132  1  0  0  0
 60133  1  0  0  0
 61134  1  0  0  0
 61135  1  0  0  0
 61136  1  0  0  0
 62137  1  0  0  0
 62138  1  0  0  0
 62139  1  0  0  0
 63 65  1  0  0  0
 63140  1  0  0  0
 63141  1  0  0  0
 63142  1  0  0  0
 64143  1  0  0  0
 65144  1  0  0  0
 68 84  1  0  0  0
 71 72  2  0  0  0
 71 73  1  0  0  0
 71145  1  0  0  0
 72 74  1  0  0  0
 72146  1  0  0  0
 73 75  2  0  0  0
 73 76  1  0  0  0
 74 77  1  0  0  0
 74 85  2  0  0  0
 75 78  1  0  0  0
 75 85  1  0  0  0
 76147  1  0  0  0
 76148  1  0  0  0
 76149  1  0  0  0
 77 80  1  0  0  0
 77150  1  0  0  0
 77151  1  0  0  0
 78 81  1  0  0  0
 78152  1  0  0  0
 78153  1  0  0  0
 79 82  1  0  0  0
 79154  1  0  0  0
 79155  1  0  0  0
 80 83  1  0  0  0
 80156  1  0  0  0
 80157  1  0  0  0
 81 84  1  0  0  0
 81158  1  0  0  0
 81159  1  0  0  0
 82 83  1  0  0  0
 82160  1  0  0  0
 82161  1  0  0  0
 83162  1  0  0  0
 83163  1  0  0  0
 84164  1  0  0  0
 84165  1  0  0  0
M  ISO  4   1 100  68 101  79 100  84 101
M  END
> <chiral flag>
0

> <version>
0

> <s_m_source_file>
/data/baiqing/PycharmProjects/Reinvent-master-3.2/result/LINK_invent/BTK/process_docking_weight1_custom_sum_contain_oxygen_bond_distance_aromatic_linkinvent_7_9_3/rearranged_h_0037.sdf

> <i_m_source_file_index>
96

> <r_mmod_Potential_Energy-OPLS-2005>
-217.479797363281

> <r_mmod_Stretch_Energy-OPLS-2005>
31.8538208007812

> <r_mmod_Bend_Energy-OPLS-2005>
105.183494567871

> <r_mmod_Torsional_Energy-OPLS-2005>
176.918182373047

> <r_mmod_Improper_Torsional_Energy-OPLS-2005>
3.66976308822632

> <r_mmod_Van_der_Waal_Energy-OPLS-2005>
151.801712036133

> <r_mmod_Electrostatic_Energy-OPLS-2005>
-497.215484619141

> <r_mmod_Solvation_Energy-OPLS-2005>
-203.308303833008

> <b_mmod_Minimization_Converged-OPLS-2005>
0

> <r_mmod_RMS_Derivative-OPLS-2005>
5.2468638420105

$$$$
