0
                    3D
 Structure written by MMmdl.
182190  0  0  1  0            999 V2000
  -30.7885  -14.3582   20.7055 C   0  0  0  0  0  0
  -30.4004  -12.2952   19.4014 C   0  0  0  0  0  0
  -29.4768  -12.5361   18.1925 C   0  0  0  0  0  0
  -28.0076  -12.3680   18.6148 C   0  0  0  0  0  0
  -27.6608  -13.2055   19.8728 C   0  0  2  0  0  0
  -28.6952  -12.9713   20.9984 C   0  0  0  0  0  0
  -25.2567  -13.8154   20.5644 C   0  0  0  0  0  0
  -24.1779  -13.0422   20.9147 C   0  0  0  0  0  0
  -24.6347  -11.6915   20.8684 C   0  0  0  0  0  0
  -23.9015  -10.4300   21.0397 C   0  0  0  0  0  0
  -24.3575   -9.4219   21.9173 C   0  0  0  0  0  0
  -23.6262   -8.2244   22.0739 C   0  0  0  0  0  0
  -22.4247   -8.0266   21.3543 C   0  0  0  0  0  0
  -21.9878   -9.0232   20.4641 C   0  0  0  0  0  0
  -22.7190  -10.2126   20.3059 C   0  0  0  0  0  0
  -21.6855   -6.0708   22.5276 C   0  0  0  0  0  0
  -21.4012   -6.5624   23.8196 C   0  0  0  0  0  0
  -21.3658   -5.6792   24.9171 C   0  0  0  0  0  0
  -21.6047   -4.3053   24.7240 C   0  0  0  0  0  0
  -21.8806   -3.8126   23.4370 C   0  0  0  0  0  0
  -21.9188   -4.6931   22.3410 C   0  0  0  0  0  0
  -22.7832  -13.5253   21.1829 C   0  0  0  0  0  0
  -22.1659   -4.2104   21.0994 F   0  0  0  0  0  0
  -21.5627   -3.4538   25.7758 F   0  0  0  0  0  0
  -30.0434  -13.2457   20.4682 N   0  0  0  0  0  0
  -26.2995  -12.9318   20.3334 N   0  0  0  0  0  0
  -25.9282  -11.6488   20.5732 N   0  0  0  0  0  0
  -22.0497  -12.8235   22.0422 N   0  0  0  0  0  0
  -25.4330  -15.1843   20.4023 N   0  0  0  0  0  0
  -31.7861  -14.6520   20.0430 O   0  0  0  0  0  0
  -21.6645   -6.8835   21.4232 O   0  0  0  0  0  0
  -22.3546  -14.5580   20.6717 O   0  0  0  0  0  0
  -24.6085  -31.8682   23.2173 C   0  0  0  0  0  0
  -25.8989  -32.4804   23.8481 C   0  0  1  0  0  0
  -27.2555  -27.4770   20.1408 C   0  0  0  0  0  0
  -25.5884  -33.8623   24.2436 N   0  0  0  0  0  0
  -23.4009  -30.4897   21.5484 C   0  0  2  0  0  0
  -24.8579  -28.9710   20.1076 C   0  0  0  0  0  0
  -22.7382  -29.4637   22.4941 C   0  0  0  0  0  0
  -18.0256  -28.1382   22.8498 C   0  0  0  0  0  0
  -24.1516  -36.7265   23.2631 C   0  0  0  0  0  0
  -25.9156  -30.8624   21.3543 C   0  0  0  0  0  0
  -26.0029  -29.4951   20.7163 C   0  0  0  0  0  0
  -27.2003  -28.7568   20.7368 C   0  0  0  0  0  0
  -26.1061  -26.9692   19.5030 C   0  0  0  0  0  0
  -24.9026  -27.7045   19.4935 C   0  0  0  0  0  0
  -23.6124  -29.8241   20.1599 C   0  0  0  0  0  0
  -25.4109  -36.3123   24.0400 C   0  0  1  0  0  0
  -20.5829  -28.3635   23.1278 C   0  0  2  0  0  0
  -20.6733  -26.9372   22.5388 C   0  0  0  0  0  0
  -19.5701  -26.6363   21.5211 C   0  0  0  0  0  0
  -18.1867  -26.7924   22.1630 C   0  0  0  0  0  0
  -19.1508  -28.8839   23.2864 C   0  0  0  0  0  0
  -18.9476  -30.1452   23.8869 C   0  0  0  0  0  0
  -17.6493  -30.6610   24.0553 C   0  0  0  0  0  0
  -25.9035  -34.9480   23.5218 C   0  0  0  0  0  0
  -16.5360  -29.9094   23.6406 C   0  0  0  0  0  0
  -16.7243  -28.6500   23.0430 C   0  0  0  0  0  0
  -26.4438  -31.6518   25.0760 C   0  0  0  0  0  0
  -25.3815  -31.3511   26.1575 C   0  0  0  0  0  0
  -27.0314  -30.2968   24.6058 C   0  0  0  0  0  0
  -27.5961  -32.4271   25.7579 C   0  0  0  0  0  0
  -27.5615  -37.1835   24.8476 C   0  0  0  0  0  0
  -21.4107  -29.3002   22.3680 N   0  0  0  0  0  0
  -26.4287  -37.3839   23.9469 N   0  0  0  0  0  0
  -24.6602  -31.0864   22.1020 N   0  0  0  0  0  0
  -23.4167  -28.8204   23.2996 O   0  0  0  0  0  0
  -28.3861  -26.6903   20.1671 O   0  0  0  0  0  0
  -26.5601  -34.8906   22.4773 O   0  0  0  0  0  0
  -23.5292  -32.1363   23.7606 O   0  0  0  0  0  0
  -29.3000  -19.6759   22.6996 C   0  0  0  0  0  0
  -30.2401  -18.7050   22.3161 C   0  0  0  0  0  0
  -29.0707  -17.0621   23.7141 C   0  0  0  0  0  0
  -30.1116  -17.3669   22.7822 C   0  0  0  0  0  0
  -28.0708  -18.0325   24.0141 C   0  0  0  0  0  0
  -28.1917  -19.3472   23.5005 C   0  0  0  0  0  0
  -31.3682  -19.1715   21.4054 C   0  0  0  0  0  0
  -29.0295  -15.7099   24.4250 C   0  0  0  0  0  0
  -26.8345  -17.6678   24.8456 C   0  0  0  0  0  0
  -26.0918  -20.1517   22.7523 C   0  0  0  0  0  0
  -31.0877  -16.2822   22.2886 C   0  0  0  0  0  0
  -28.2179  -24.3934   25.4323 C   0  0  0  0  0  0
  -28.6951  -25.8465   25.2147 C   0  0  0  0  0  0
  -26.8845  -24.0091   24.7586 C   0  0  0  0  0  0
  -29.3963  -26.1657   23.8652 C   0  0  0  0  0  0
  -26.5814  -22.4978   24.7572 C   0  0  0  0  0  0
  -28.4789  -26.3610   22.6344 C   0  0  0  0  0  0
  -27.6311  -21.6695   23.9895 C   0  0  0  0  0  0
  -29.2240  -26.7571   21.3348 C   0  0  0  0  0  0
  -30.4185  -15.0847   21.7690 N   0  0  0  0  0  0
  -27.1809  -20.3047   23.7167 N   0  0  0  0  0  0
  -31.4504  -12.3616   19.1079 H   0  0  0  0  0  0
  -30.2646  -11.2795   19.7709 H   0  0  0  0  0  0
  -29.7169  -11.8396   17.3862 H   0  0  0  0  0  0
  -29.6313  -13.5390   17.7883 H   0  0  0  0  0  0
  -27.8384  -11.3082   18.8162 H   0  0  0  0  0  0
  -27.3414  -12.6271   17.7943 H   0  0  0  0  0  0
  -27.7180  -14.2556   19.5856 H   0  0  0  0  0  0
  -28.6550  -11.9352   21.3387 H   0  0  0  0  0  0
  -28.4339  -13.5761   21.8652 H   0  0  0  0  0  0
  -25.2716   -9.5680   22.4758 H   0  0  0  0  0  0
  -23.9964   -7.4634   22.7474 H   0  0  0  0  0  0
  -21.0790   -8.8729   19.8978 H   0  0  0  0  0  0
  -22.3613  -10.9640   19.6162 H   0  0  0  0  0  0
  -21.2023   -7.6125   23.9677 H   0  0  0  0  0  0
  -21.1494   -6.0534   25.9059 H   0  0  0  0  0  0
  -22.0595   -2.7576   23.2889 H   0  0  0  0  0  0
  -22.4141  -11.9905   22.4791 H   0  0  0  0  0  0
  -21.1137  -13.1267   22.2695 H   0  0  0  0  0  0
  -24.6700  -15.8434   20.4957 H   0  0  0  0  0  0
  -26.3012  -15.6162   20.1067 H   0  0  0  0  0  0
  -26.7050  -32.5573   23.1244 H   0  0  0  0  0  0
  -25.0137  -33.9812   25.0645 H   0  0  0  0  0  0
  -22.6876  -31.3042   21.4080 H   0  0  0  0  0  0
  -23.3812  -35.9568   23.3319 H   0  0  0  0  0  0
  -24.3657  -36.8797   22.2028 H   0  0  0  0  0  0
  -23.7213  -37.6469   23.6566 H   0  0  0  0  0  0
  -25.9960  -31.6280   20.5805 H   0  0  0  0  0  0
  -26.8156  -30.9414   21.9497 H   0  0  0  0  0  0
  -28.0715  -29.1780   21.2168 H   0  0  0  0  0  0
  -26.1344  -25.9937   19.0360 H   0  0  0  0  0  0
  -24.0275  -27.2921   19.0148 H   0  0  0  0  0  0
  -23.7090  -30.6002   19.4013 H   0  0  0  0  0  0
  -22.7444  -29.2332   19.8623 H   0  0  0  0  0  0
  -25.1274  -36.2010   25.0894 H   0  0  0  0  0  0
  -20.9898  -28.3223   24.1398 H   0  0  0  0  0  0
  -20.5651  -26.2239   23.3557 H   0  0  0  0  0  0
  -21.6593  -26.7425   22.1162 H   0  0  0  0  0  0
  -19.6849  -25.6284   21.1226 H   0  0  0  0  0  0
  -19.6643  -27.3178   20.6749 H   0  0  0  0  0  0
  -17.4097  -26.6682   21.4056 H   0  0  0  0  0  0
  -18.0252  -26.0092   22.9046 H   0  0  0  0  0  0
  -19.7980  -30.7242   24.2181 H   0  0  0  0  0  0
  -17.5107  -31.6321   24.5101 H   0  0  0  0  0  0
  -15.5362  -30.2994   23.7808 H   0  0  0  0  0  0
  -15.8615  -28.0805   22.7231 H   0  0  0  0  0  0
  -25.8393  -30.8526   27.0136 H   0  0  0  0  0  0
  -24.5885  -30.6885   25.8031 H   0  0  0  0  0  0
  -24.9250  -32.2671   26.5344 H   0  0  0  0  0  0
  -27.8336  -30.4315   23.8802 H   0  0  0  0  0  0
  -26.2717  -29.6619   24.1490 H   0  0  0  0  0  0
  -27.4567  -29.7294   25.4353 H   0  0  0  0  0  0
  -27.2538  -33.3517   26.2198 H   0  0  0  0  0  0
  -28.3721  -32.6882   25.0405 H   0  0  0  0  0  0
  -28.0687  -31.8369   26.5453 H   0  0  0  0  0  0
  -28.2627  -38.0125   24.7508 H   0  0  0  0  0  0
  -28.1108  -36.2674   24.6311 H   0  0  0  0  0  0
  -27.2373  -37.1551   25.8887 H   0  0  0  0  0  0
  -20.9243  -29.8620   21.6817 H   0  0  0  0  0  0
  -26.0193  -38.2906   24.1600 H   0  0  0  0  0  0
  -29.4089  -20.6823   22.3242 H   0  0  0  0  0  0
  -31.2081  -20.1972   21.0719 H   0  0  0  0  0  0
  -31.4387  -18.5680   20.5005 H   0  0  0  0  0  0
  -32.3209  -19.1452   21.9366 H   0  0  0  0  0  0
  -29.9683  -15.1643   24.3583 H   0  0  0  0  0  0
  -28.2348  -15.0795   24.0233 H   0  0  0  0  0  0
  -28.8706  -15.8410   25.4953 H   0  0  0  0  0  0
  -27.0031  -16.8947   25.5895 H   0  0  0  0  0  0
  -26.0429  -17.3107   24.1863 H   0  0  0  0  0  0
  -26.4413  -18.5234   25.3940 H   0  0  0  0  0  0
  -26.3103  -19.3860   22.0056 H   0  0  0  0  0  0
  -25.9010  -21.0818   22.2149 H   0  0  0  0  0  0
  -25.1750  -19.8577   23.2652 H   0  0  0  0  0  0
  -31.7475  -15.9990   23.1080 H   0  0  0  0  0  0
  -31.7544  -16.6711   21.5211 H   0  0  0  0  0  0
  -28.0922  -24.2324   26.5036 H   0  0  0  0  0  0
  -29.0119  -23.7126   25.1374 H   0  0  0  0  0  0
  -27.8967  -26.5606   25.4240 H   0  0  0  0  0  0
  -29.4410  -26.0303   25.9906 H   0  0  0  0  0  0
  -26.8651  -24.3479   23.7319 H   0  0  0  0  0  0
  -26.0683  -24.5416   25.2506 H   0  0  0  0  0  0
  -30.1488  -25.4055   23.6521 H   0  0  0  0  0  0
  -29.9560  -27.0929   24.0093 H   0  0  0  0  0  0
  -25.6050  -22.3624   24.2888 H   0  0  0  0  0  0
  -26.4783  -22.1230   25.7768 H   0  0  0  0  0  0
  -27.7128  -27.0993   22.8750 H   0  0  0  0  0  0
  -27.9681  -25.4319   22.4073 H   0  0  0  0  0  0
  -28.5522  -21.6282   24.5735 H   0  0  0  0  0  0
  -27.8733  -22.1696   23.0492 H   0  0  0  0  0  0
  -29.7086  -27.7302   21.4190 H   0  0  0  0  0  0
  -30.0343  -26.0460   21.1728 H   0  0  0  0  0  0
  -29.6287  -14.7461   22.2905 H   0  0  0  0  0  0
  1 25  1  0  0  0
  1 30  2  0  0  0
  1 90  1  0  0  0
  2  3  1  0  0  0
  2 25  1  0  0  0
  2 92  1  0  0  0
  2 93  1  0  0  0
  3  4  1  0  0  0
  3 94  1  0  0  0
  3 95  1  0  0  0
  4  5  1  0  0  0
  4 96  1  0  0  0
  4 97  1  0  0  0
  5  6  1  0  0  0
  5 26  1  0  0  0
  5 98  1  0  0  0
  6 25  1  0  0  0
  6 99  1  0  0  0
  6100  1  0  0  0
  7  8  2  0  0  0
  7 26  1  0  0  0
  7 29  1  0  0  0
  8  9  1  0  0  0
  8 22  1  0  0  0
  9 10  1  0  0  0
  9 27  2  0  0  0
 10 11  2  0  0  0
 10 15  1  0  0  0
 11 12  1  0  0  0
 11101  1  0  0  0
 12 13  2  0  0  0
 12102  1  0  0  0
 13 14  1  0  0  0
 13 31  1  0  0  0
 14 15  2  0  0  0
 14103  1  0  0  0
 15104  1  0  0  0
 16 17  2  0  0  0
 16 21  1  0  0  0
 16 31  1  0  0  0
 17 18  1  0  0  0
 17105  1  0  0  0
 18 19  2  0  0  0
 18106  1  0  0  0
 19 20  1  0  0  0
 19 24  1  0  0  0
 20 21  2  0  0  0
 20107  1  0  0  0
 21 23  1  0  0  0
 22 28  1  0  0  0
 22 32  2  0  0  0
 26 27  1  0  0  0
 28108  1  0  0  0
 28109  1  0  0  0
 29110  1  0  0  0
 29111  1  0  0  0
 33 34  1  0  0  0
 33 66  1  0  0  0
 33 70  2  0  0  0
 34 36  1  0  0  0
 34 59  1  0  0  0
 34112  1  0  0  0
 35 44  2  0  0  0
 35 45  1  0  0  0
 35 68  1  0  0  0
 36 56  1  0  0  0
 36113  1  0  0  0
 37 39  1  0  0  0
 37 47  1  0  0  0
 37 66  1  0  0  0
 37114  1  0  0  0
 38 43  2  0  0  0
 38 46  1  0  0  0
 38 47  1  0  0  0
 39 64  1  0  0  0
 39 67  2  0  0  0
 40 52  1  0  0  0
 40 53  2  0  0  0
 40 58  1  0  0  0
 41115  1  0  0  0
 41116  1  0  0  0
 41117  1  0  0  0
 41 48  1  0  0  0
 42 43  1  0  0  0
 42 66  1  0  0  0
 42118  1  0  0  0
 42119  1  0  0  0
 43 44  1  0  0  0
 44120  1  0  0  0
 45 46  2  0  0  0
 45121  1  0  0  0
 46122  1  0  0  0
 47123  1  0  0  0
 47124  1  0  0  0
 48 56  1  0  0  0
 48 65  1  0  0  0
 48125  1  0  0  0
 49 50  1  0  0  0
 49 53  1  0  0  0
 49 64  1  0  0  0
 49126  1  0  0  0
 50 51  1  0  0  0
 50127  1  0  0  0
 50128  1  0  0  0
 51 52  1  0  0  0
 51129  1  0  0  0
 51130  1  0  0  0
 52131  1  0  0  0
 52132  1  0  0  0
 53 54  1  0  0  0
 54 55  2  0  0  0
 54133  1  0  0  0
 55 57  1  0  0  0
 55134  1  0  0  0
 56 69  2  0  0  0
 57 58  2  0  0  0
 57135  1  0  0  0
 58136  1  0  0  0
 59 60  1  0  0  0
 59 61  1  0  0  0
 59 62  1  0  0  0
 60137  1  0  0  0
 60138  1  0  0  0
 60139  1  0  0  0
 61140  1  0  0  0
 61141  1  0  0  0
 61142  1  0  0  0
 62143  1  0  0  0
 62144  1  0  0  0
 62145  1  0  0  0
 63 65  1  0  0  0
 63146  1  0  0  0
 63147  1  0  0  0
 63148  1  0  0  0
 64149  1  0  0  0
 65150  1  0  0  0
 68 89  1  0  0  0
 71 72  2  0  0  0
 71 76  1  0  0  0
 71151  1  0  0  0
 72 74  1  0  0  0
 72 77  1  0  0  0
 73 74  2  0  0  0
 73 75  1  0  0  0
 73 78  1  0  0  0
 74 81  1  0  0  0
 75 76  2  0  0  0
 75 79  1  0  0  0
 76 91  1  0  0  0
 77152  1  0  0  0
 77153  1  0  0  0
 77154  1  0  0  0
 78155  1  0  0  0
 78156  1  0  0  0
 78157  1  0  0  0
 79158  1  0  0  0
 79159  1  0  0  0
 79160  1  0  0  0
 80 91  1  0  0  0
 80161  1  0  0  0
 80162  1  0  0  0
 80163  1  0  0  0
 81 90  1  0  0  0
 81164  1  0  0  0
 81165  1  0  0  0
 82 83  1  0  0  0
 82 84  1  0  0  0
 82166  1  0  0  0
 82167  1  0  0  0
 83 85  1  0  0  0
 83168  1  0  0  0
 83169  1  0  0  0
 84 86  1  0  0  0
 84170  1  0  0  0
 84171  1  0  0  0
 85 87  1  0  0  0
 85172  1  0  0  0
 85173  1  0  0  0
 86 88  1  0  0  0
 86174  1  0  0  0
 86175  1  0  0  0
 87 89  1  0  0  0
 87176  1  0  0  0
 87177  1  0  0  0
 88 91  1  0  0  0
 88178  1  0  0  0
 88179  1  0  0  0
 89180  1  0  0  0
 89181  1  0  0  0
 90182  1  0  0  0
M  ISO  4   1 100  68 101  89 101  90 100
M  END
> <chiral flag>
0

> <version>
0

> <s_m_source_file>
/data/baiqing/PycharmProjects/Reinvent-master-3.2/result/LINK_invent/BTK/process_docking_weight1_custom_sum_contain_oxygen_bond_distance_aromatic_linkinvent_7_9_3/rearranged_h_0020.sdf

> <i_m_source_file_index>
1

> <r_mmod_Potential_Energy-OPLS-2005>
-71.3248977661133

> <r_mmod_Stretch_Energy-OPLS-2005>
41.8669319152832

> <r_mmod_Bend_Energy-OPLS-2005>
110.60814666748

> <r_mmod_Torsional_Energy-OPLS-2005>
230.420028686523

> <r_mmod_Improper_Torsional_Energy-OPLS-2005>
6.19015169143677

> <r_mmod_Van_der_Waal_Energy-OPLS-2005>
170.816741943359

> <r_mmod_Electrostatic_Energy-OPLS-2005>
-438.382843017578

> <r_mmod_Solvation_Energy-OPLS-2005>
-201.536346435547

> <b_mmod_Minimization_Converged-OPLS-2005>
0

> <r_mmod_RMS_Derivative-OPLS-2005>
5.98628234863281

$$$$
1
                    3D
 Structure written by MMmdl.
160168  0  0  1  0            999 V2000
  -30.4236  -15.3259   20.3761 C   0  0  0  0  0  0
  -30.4373  -12.8502   19.5400 C   0  0  0  0  0  0
  -29.5361  -12.5871   18.3062 C   0  0  0  0  0  0
  -28.0903  -12.2960   18.7394 C   0  0  0  0  0  0
  -27.6101  -13.2821   19.8312 C   0  0  2  0  0  0
  -28.6412  -13.4826   20.9622 C   0  0  0  0  0  0
  -25.2354  -13.8242   20.5762 C   0  0  0  0  0  0
  -24.1714  -13.0430   20.9282 C   0  0  0  0  0  0
  -24.6389  -11.6931   20.8797 C   0  0  0  0  0  0
  -23.9096  -10.4282   21.0424 C   0  0  0  0  0  0
  -24.3632   -9.4200   21.9197 C   0  0  0  0  0  0
  -23.6305   -8.2240   22.0759 C   0  0  0  0  0  0
  -22.4293   -8.0277   21.3550 C   0  0  0  0  0  0
  -21.9932   -9.0258   20.4656 C   0  0  0  0  0  0
  -22.7273  -10.2133   20.3069 C   0  0  0  0  0  0
  -21.6848   -6.0734   22.5281 C   0  0  0  0  0  0
  -21.4006   -6.5633   23.8216 C   0  0  0  0  0  0
  -21.3666   -5.6791   24.9177 C   0  0  0  0  0  0
  -21.6039   -4.3057   24.7229 C   0  0  0  0  0  0
  -21.8819   -3.8150   23.4356 C   0  0  0  0  0  0
  -21.9189   -4.6961   22.3408 C   0  0  0  0  0  0
  -22.7735  -13.5177   21.1945 C   0  0  0  0  0  0
  -22.1658   -4.2144   21.0985 F   0  0  0  0  0  0
  -21.5640   -3.4547   25.7746 F   0  0  0  0  0  0
  -29.8684  -14.0061   20.3368 N   0  0  0  0  0  0
  -26.2808  -12.9547   20.3284 N   0  0  0  0  0  0
  -25.9328  -11.6643   20.5756 N   0  0  0  0  0  0
  -22.0394  -12.8139   22.0486 N   0  0  0  0  0  0
  -25.3975  -15.1966   20.4181 N   0  0  0  0  0  0
  -31.6418  -15.2948   20.1554 O   0  0  0  0  0  0
  -21.6641   -6.8880   21.4239 O   0  0  0  0  0  0
  -22.3413  -14.5482   20.6793 O   0  0  0  0  0  0
  -24.6660  -31.8164   23.1610 C   0  0  0  0  0  0
  -25.9337  -32.4521   23.8073 C   0  0  1  0  0  0
  -27.2176  -26.8845   20.1941 C   0  0  0  0  0  0
  -25.5967  -33.8345   24.1972 N   0  0  0  0  0  0
  -23.4821  -30.4247   21.5104 C   0  0  2  0  0  0
  -24.9379  -28.8000   20.1017 C   0  0  0  0  0  0
  -22.7693  -29.4384   22.4718 C   0  0  0  0  0  0
  -18.0334  -28.1421   22.8426 C   0  0  0  0  0  0
  -24.1498  -36.7198   23.2654 C   0  0  0  0  0  0
  -26.0529  -30.6084   21.4008 C   0  0  0  0  0  0
  -26.1173  -29.1947   20.7450 C   0  0  0  0  0  0
  -27.2428  -28.2537   20.7746 C   0  0  0  0  0  0
  -26.0187  -26.6505   19.4849 C   0  0  0  0  0  0
  -24.9168  -27.5516   19.4519 C   0  0  0  0  0  0
  -23.7246  -29.7360   20.1376 C   0  0  0  0  0  0
  -25.4142  -36.2923   24.0284 C   0  0  1  0  0  0
  -20.5970  -28.3738   23.1182 C   0  0  2  0  0  0
  -20.6814  -26.9418   22.5420 C   0  0  0  0  0  0
  -19.5792  -26.6365   21.5238 C   0  0  0  0  0  0
  -18.1967  -26.7945   22.1617 C   0  0  0  0  0  0
  -19.1610  -28.8910   23.2775 C   0  0  0  0  0  0
  -18.9522  -30.1500   23.8811 C   0  0  0  0  0  0
  -17.6513  -30.6594   24.0564 C   0  0  0  0  0  0
  -25.9119  -34.9316   23.4962 C   0  0  0  0  0  0
  -16.5402  -29.9078   23.6368 C   0  0  0  0  0  0
  -16.7323  -28.6526   23.0327 C   0  0  0  0  0  0
  -26.4554  -31.6507   25.0638 C   0  0  0  0  0  0
  -25.3640  -31.3801   26.1244 C   0  0  0  0  0  0
  -27.0491  -30.2870   24.6452 C   0  0  0  0  0  0
  -27.5991  -32.4380   25.7456 C   0  0  0  0  0  0
  -27.5575  -37.1724   24.8475 C   0  0  0  0  0  0
  -21.4359  -29.3002   22.3500 N   0  0  0  0  0  0
  -26.4272  -37.3677   23.9432 N   0  0  0  0  0  0
  -24.7548  -30.9787   22.0766 N   0  0  0  0  0  0
  -23.4238  -28.7957   23.2980 O   0  0  0  0  0  0
  -28.2218  -25.7854   20.3636 O   0  0  0  0  0  0
  -26.5758  -34.8869   22.4574 O   0  0  0  0  0  0
  -23.5735  -32.1158   23.6681 O   0  0  0  0  0  0
  -30.5320  -21.1818   20.2021 C   0  0  0  0  0  0
  -29.1444  -20.9874   20.3410 C   0  0  0  0  0  0
  -31.4826  -20.1239   20.1681 C   0  0  0  0  0  0
  -29.8321  -18.2383   20.3752 C   0  0  0  0  0  0
  -28.8476  -19.4511   20.4119 C   0  0  0  0  0  0
  -31.1583  -18.7353   20.2604 C   0  0  0  0  0  0
  -32.9499  -20.5010   20.0547 C   0  0  0  0  0  0
  -28.1996  -22.7137   22.0736 C   0  0  0  0  0  0
  -26.7707  -22.1278   20.1295 C   0  0  0  0  0  0
  -26.9663  -18.2975   19.5521 C   0  0  0  0  0  0
  -28.3907  -24.1860   19.8925 C   0  0  0  0  0  0
  -28.2071  -22.4848   20.5515 C   0  0  0  0  0  0
  -29.6431  -16.6046   20.4791 N   0  0  0  0  0  0
  -27.5169  -19.1403   20.5599 O   0  0  0  0  0  0
  -32.1937  -17.8661   20.2576 F   0  0  0  0  0  0
  -31.4513  -13.0569   19.1951 H   0  0  0  0  0  0
  -30.5228  -11.9549   20.1583 H   0  0  0  0  0  0
  -29.9261  -11.7569   17.7164 H   0  0  0  0  0  0
  -29.5489  -13.4611   17.6548 H   0  0  0  0  0  0
  -28.0624  -11.2790   19.1314 H   0  0  0  0  0  0
  -27.4185  -12.3114   17.8814 H   0  0  0  0  0  0
  -27.5173  -14.2401   19.3187 H   0  0  0  0  0  0
  -28.8186  -12.5560   21.5106 H   0  0  0  0  0  0
  -28.2682  -14.2060   21.6899 H   0  0  0  0  0  0
  -25.2776   -9.5671   22.4783 H   0  0  0  0  0  0
  -24.0012   -7.4619   22.7474 H   0  0  0  0  0  0
  -21.0860   -8.8790   19.8949 H   0  0  0  0  0  0
  -22.3743  -10.9678   19.6174 H   0  0  0  0  0  0
  -21.1984   -7.6142   23.9714 H   0  0  0  0  0  0
  -21.1489   -6.0523   25.9076 H   0  0  0  0  0  0
  -22.0589   -2.7605   23.2860 H   0  0  0  0  0  0
  -22.4034  -11.9803   22.4860 H   0  0  0  0  0  0
  -21.1014  -13.1153   22.2727 H   0  0  0  0  0  0
  -24.6239  -15.8440   20.5250 H   0  0  0  0  0  0
  -26.2308  -15.6277   20.0445 H   0  0  0  0  0  0
  -26.7393  -32.5022   23.0764 H   0  0  0  0  0  0
  -25.0033  -33.9408   25.0067 H   0  0  0  0  0  0
  -22.7989  -31.2564   21.3325 H   0  0  0  0  0  0
  -23.3763  -35.9520   23.3280 H   0  0  0  0  0  0
  -24.3586  -36.8914   22.2091 H   0  0  0  0  0  0
  -23.7281  -37.6365   23.6766 H   0  0  0  0  0  0
  -26.2516  -31.3534   20.6291 H   0  0  0  0  0  0
  -26.9062  -30.6524   22.0637 H   0  0  0  0  0  0
  -28.1253  -28.5451   21.3305 H   0  0  0  0  0  0
  -25.8963  -25.6955   18.9968 H   0  0  0  0  0  0
  -24.0205  -27.2474   18.9276 H   0  0  0  0  0  0
  -23.8756  -30.5040   19.3785 H   0  0  0  0  0  0
  -22.8343  -29.1901   19.8187 H   0  0  0  0  0  0
  -25.1342  -36.1674   25.0765 H   0  0  0  0  0  0
  -21.0052  -28.3361   24.1320 H   0  0  0  0  0  0
  -20.5799  -26.2322   23.3637 H   0  0  0  0  0  0
  -21.6653  -26.7429   22.1174 H   0  0  0  0  0  0
  -19.6981  -25.6268   21.1292 H   0  0  0  0  0  0
  -19.6782  -27.3139   20.6743 H   0  0  0  0  0  0
  -17.4254  -26.6701   21.4003 H   0  0  0  0  0  0
  -18.0321  -26.0102   22.9035 H   0  0  0  0  0  0
  -19.8010  -30.7328   24.2121 H   0  0  0  0  0  0
  -17.5082  -31.6268   24.5162 H   0  0  0  0  0  0
  -15.5409  -30.2961   23.7752 H   0  0  0  0  0  0
  -15.8712  -28.0865   22.7039 H   0  0  0  0  0  0
  -24.5823  -30.7184   25.7500 H   0  0  0  0  0  0
  -24.8816  -32.3021   26.4507 H   0  0  0  0  0  0
  -25.7749  -30.9041   27.0160 H   0  0  0  0  0  0
  -26.3187  -29.6444   24.1497 H   0  0  0  0  0  0
  -27.4080  -29.7315   25.5133 H   0  0  0  0  0  0
  -27.9081  -30.4055   23.9824 H   0  0  0  0  0  0
  -27.2520  -33.3761   26.1811 H   0  0  0  0  0  0
  -28.3854  -32.6853   25.0309 H   0  0  0  0  0  0
  -28.0577  -31.8698   26.5559 H   0  0  0  0  0  0
  -28.2499  -38.0098   24.7509 H   0  0  0  0  0  0
  -28.1128  -36.2606   24.6259 H   0  0  0  0  0  0
  -27.2278  -37.1311   25.8865 H   0  0  0  0  0  0
  -20.9622  -29.8702   21.6628 H   0  0  0  0  0  0
  -26.0102  -38.2720   24.1458 H   0  0  0  0  0  0
  -30.8919  -22.2007   20.1617 H   0  0  0  0  0  0
  -33.0860  -21.5720   19.8912 H   0  0  0  0  0  0
  -33.4165  -19.9758   19.2215 H   0  0  0  0  0  0
  -33.4804  -20.2336   20.9679 H   0  0  0  0  0  0
  -27.8392  -21.8359   22.6109 H   0  0  0  0  0  0
  -27.5597  -23.5535   22.3459 H   0  0  0  0  0  0
  -29.1982  -22.9415   22.4451 H   0  0  0  0  0  0
  -26.3448  -21.3304   20.7379 H   0  0  0  0  0  0
  -26.7416  -21.7963   19.0909 H   0  0  0  0  0  0
  -26.1027  -22.9864   20.2137 H   0  0  0  0  0  0
  -25.8967  -18.1781   19.7256 H   0  0  0  0  0  0
  -27.3919  -17.2956   19.5402 H   0  0  0  0  0  0
  -27.0884  -18.7335   18.5597 H   0  0  0  0  0  0
  -27.9623  -24.1632   18.8902 H   0  0  0  0  0  0
  -29.4623  -24.1995   19.6915 H   0  0  0  0  0  0
  -28.6802  -16.3698   20.6594 H   0  0  0  0  0  0
  1 25  1  0  0  0
  1 30  2  0  0  0
  1 83  1  0  0  0
  2  3  1  0  0  0
  2 25  1  0  0  0
  2 86  1  0  0  0
  2 87  1  0  0  0
  3  4  1  0  0  0
  3 88  1  0  0  0
  3 89  1  0  0  0
  4  5  1  0  0  0
  4 90  1  0  0  0
  4 91  1  0  0  0
  5  6  1  0  0  0
  5 26  1  0  0  0
  5 92  1  0  0  0
  6 25  1  0  0  0
  6 93  1  0  0  0
  6 94  1  0  0  0
  7  8  2  0  0  0
  7 26  1  0  0  0
  7 29  1  0  0  0
  8  9  1  0  0  0
  8 22  1  0  0  0
  9 10  1  0  0  0
  9 27  2  0  0  0
 10 11  2  0  0  0
 10 15  1  0  0  0
 11 12  1  0  0  0
 11 95  1  0  0  0
 12 13  2  0  0  0
 12 96  1  0  0  0
 13 14  1  0  0  0
 13 31  1  0  0  0
 14 15  2  0  0  0
 14 97  1  0  0  0
 15 98  1  0  0  0
 16 17  2  0  0  0
 16 21  1  0  0  0
 16 31  1  0  0  0
 17 18  1  0  0  0
 17 99  1  0  0  0
 18 19  2  0  0  0
 18100  1  0  0  0
 19 20  1  0  0  0
 19 24  1  0  0  0
 20 21  2  0  0  0
 20101  1  0  0  0
 21 23  1  0  0  0
 22 28  1  0  0  0
 22 32  2  0  0  0
 26 27  1  0  0  0
 28102  1  0  0  0
 28103  1  0  0  0
 29104  1  0  0  0
 29105  1  0  0  0
 33 34  1  0  0  0
 33 66  1  0  0  0
 33 70  2  0  0  0
 34 36  1  0  0  0
 34 59  1  0  0  0
 34106  1  0  0  0
 35 44  2  0  0  0
 35 45  1  0  0  0
 35 68  1  0  0  0
 36 56  1  0  0  0
 36107  1  0  0  0
 37 39  1  0  0  0
 37 47  1  0  0  0
 37 66  1  0  0  0
 37108  1  0  0  0
 38 43  2  0  0  0
 38 46  1  0  0  0
 38 47  1  0  0  0
 39 64  1  0  0  0
 39 67  2  0  0  0
 40 52  1  0  0  0
 40 53  2  0  0  0
 40 58  1  0  0  0
 41109  1  0  0  0
 41110  1  0  0  0
 41111  1  0  0  0
 41 48  1  0  0  0
 42 43  1  0  0  0
 42 66  1  0  0  0
 42112  1  0  0  0
 42113  1  0  0  0
 43 44  1  0  0  0
 44114  1  0  0  0
 45 46  2  0  0  0
 45115  1  0  0  0
 46116  1  0  0  0
 47117  1  0  0  0
 47118  1  0  0  0
 48 56  1  0  0  0
 48 65  1  0  0  0
 48119  1  0  0  0
 49 50  1  0  0  0
 49 53  1  0  0  0
 49 64  1  0  0  0
 49120  1  0  0  0
 50 51  1  0  0  0
 50121  1  0  0  0
 50122  1  0  0  0
 51 52  1  0  0  0
 51123  1  0  0  0
 51124  1  0  0  0
 52125  1  0  0  0
 52126  1  0  0  0
 53 54  1  0  0  0
 54 55  2  0  0  0
 54127  1  0  0  0
 55 57  1  0  0  0
 55128  1  0  0  0
 56 69  2  0  0  0
 57 58  2  0  0  0
 57129  1  0  0  0
 58130  1  0  0  0
 59 60  1  0  0  0
 59 61  1  0  0  0
 59 62  1  0  0  0
 60131  1  0  0  0
 60132  1  0  0  0
 60133  1  0  0  0
 61134  1  0  0  0
 61135  1  0  0  0
 61136  1  0  0  0
 62137  1  0  0  0
 62138  1  0  0  0
 62139  1  0  0  0
 63 65  1  0  0  0
 63140  1  0  0  0
 63141  1  0  0  0
 63142  1  0  0  0
 64143  1  0  0  0
 65144  1  0  0  0
 68 81  1  0  0  0
 71 72  2  0  0  0
 71 73  1  0  0  0
 71145  1  0  0  0
 72 75  1  0  0  0
 72 82  1  0  0  0
 73 76  2  0  0  0
 73 77  1  0  0  0
 74 75  2  0  0  0
 74 76  1  0  0  0
 74 83  1  0  0  0
 75 84  1  0  0  0
 76 85  1  0  0  0
 77146  1  0  0  0
 77147  1  0  0  0
 77148  1  0  0  0
 78149  1  0  0  0
 78150  1  0  0  0
 78151  1  0  0  0
 78 82  1  0  0  0
 79 82  1  0  0  0
 79152  1  0  0  0
 79153  1  0  0  0
 79154  1  0  0  0
 80 84  1  0  0  0
 80155  1  0  0  0
 80156  1  0  0  0
 80157  1  0  0  0
 81 82  1  0  0  0
 81158  1  0  0  0
 81159  1  0  0  0
 83160  1  0  0  0
M  ISO  4   1 100  68 101  81 101  83 100
M  END
> <chiral flag>
0

> <version>
0

> <s_m_source_file>
/data/baiqing/PycharmProjects/Reinvent-master-3.2/result/LINK_invent/BTK/process_docking_weight1_custom_sum_contain_oxygen_bond_distance_aromatic_linkinvent_7_9_3/rearranged_h_0020.sdf

> <i_m_source_file_index>
2

> <r_mmod_Potential_Energy-OPLS-2005>
1444.22998046875

> <r_mmod_Stretch_Energy-OPLS-2005>
672.930725097656

> <r_mmod_Bend_Energy-OPLS-2005>
488.426239013672

> <r_mmod_Torsional_Energy-OPLS-2005>
248.301422119141

> <r_mmod_Improper_Torsional_Energy-OPLS-2005>
4.56660795211792

> <r_mmod_Van_der_Waal_Energy-OPLS-2005>
122.949150085449

> <r_mmod_Electrostatic_Energy-OPLS-2005>
-405.837768554688

> <r_mmod_Solvation_Energy-OPLS-2005>
-209.821716308594

> <b_mmod_Minimization_Converged-OPLS-2005>
0

> <r_mmod_RMS_Derivative-OPLS-2005>
3.98532605171204

$$$$
2
                    3D
 Structure written by MMmdl.
165173  0  0  1  0            999 V2000
  -30.6733  -14.4774   20.4822 C   0  0  0  0  0  0
  -30.4239  -12.2887   19.4157 C   0  0  0  0  0  0
  -29.4942  -12.5127   18.1999 C   0  0  0  0  0  0
  -28.0162  -12.3638   18.6110 C   0  0  0  0  0  0
  -27.6625  -13.1993   19.8693 C   0  0  2  0  0  0
  -28.7078  -12.9851   20.9927 C   0  0  0  0  0  0
  -25.2624  -13.8143   20.5685 C   0  0  0  0  0  0
  -24.1847  -13.0447   20.9174 C   0  0  0  0  0  0
  -24.6386  -11.6900   20.8714 C   0  0  0  0  0  0
  -23.9040  -10.4287   21.0377 C   0  0  0  0  0  0
  -24.3594   -9.4211   21.9157 C   0  0  0  0  0  0
  -23.6284   -8.2244   22.0736 C   0  0  0  0  0  0
  -22.4263   -8.0274   21.3532 C   0  0  0  0  0  0
  -21.9883   -9.0252   20.4650 C   0  0  0  0  0  0
  -22.7203  -10.2131   20.3035 C   0  0  0  0  0  0
  -21.6858   -6.0730   22.5273 C   0  0  0  0  0  0
  -21.4033   -6.5635   23.8213 C   0  0  0  0  0  0
  -21.3660   -5.6784   24.9167 C   0  0  0  0  0  0
  -21.6015   -4.3047   24.7211 C   0  0  0  0  0  0
  -21.8822   -3.8142   23.4335 C   0  0  0  0  0  0
  -21.9204   -4.6962   22.3396 C   0  0  0  0  0  0
  -22.7850  -13.5272   21.1797 C   0  0  0  0  0  0
  -22.1660   -4.2143   21.0978 F   0  0  0  0  0  0
  -21.5634   -3.4536   25.7731 F   0  0  0  0  0  0
  -30.0450  -13.2721   20.4419 N   0  0  0  0  0  0
  -26.3042  -12.9285   20.3326 N   0  0  0  0  0  0
  -25.9307  -11.6452   20.5700 N   0  0  0  0  0  0
  -22.0467  -12.8292   22.0343 N   0  0  0  0  0  0
  -25.4381  -15.1852   20.4111 N   0  0  0  0  0  0
  -31.8207  -14.6609   20.0703 O   0  0  0  0  0  0
  -21.6638   -6.8865   21.4229 O   0  0  0  0  0  0
  -22.3521  -14.5566   20.6616 O   0  0  0  0  0  0
  -24.6138  -31.8693   23.2124 C   0  0  0  0  0  0
  -25.9034  -32.4826   23.8393 C   0  0  1  0  0  0
  -27.2368  -27.4565   20.0608 C   0  0  0  0  0  0
  -25.5884  -33.8625   24.2313 N   0  0  0  0  0  0
  -23.3973  -30.4959   21.5545 C   0  0  2  0  0  0
  -24.8424  -28.9651   20.1160 C   0  0  0  0  0  0
  -22.7382  -29.4675   22.5017 C   0  0  0  0  0  0
  -18.0266  -28.1376   22.8499 C   0  0  0  0  0  0
  -24.1484  -36.7307   23.2634 C   0  0  0  0  0  0
  -25.9273  -30.8373   21.3662 C   0  0  0  0  0  0
  -26.0017  -29.4738   20.7117 C   0  0  0  0  0  0
  -27.1974  -28.7206   20.6923 C   0  0  0  0  0  0
  -26.0431  -26.9459   19.4958 C   0  0  0  0  0  0
  -24.8549  -27.6977   19.5129 C   0  0  0  0  0  0
  -23.6046  -29.8304   20.1684 C   0  0  0  0  0  0
  -25.4102  -36.3104   24.0331 C   0  0  1  0  0  0
  -20.5851  -28.3651   23.1335 C   0  0  2  0  0  0
  -20.6750  -26.9391   22.5430 C   0  0  0  0  0  0
  -19.5741  -26.6402   21.5206 C   0  0  0  0  0  0
  -18.1915  -26.7939   22.1612 C   0  0  0  0  0  0
  -19.1512  -28.8830   23.2916 C   0  0  0  0  0  0
  -18.9448  -30.1440   23.8923 C   0  0  0  0  0  0
  -17.6451  -30.6587   24.0574 C   0  0  0  0  0  0
  -25.9037  -34.9474   23.5124 C   0  0  0  0  0  0
  -16.5347  -29.9098   23.6334 C   0  0  0  0  0  0
  -16.7252  -28.6520   23.0348 C   0  0  0  0  0  0
  -26.4480  -31.6602   25.0707 C   0  0  0  0  0  0
  -25.3752  -31.3699   26.1458 C   0  0  0  0  0  0
  -27.0315  -30.3046   24.6080 C   0  0  0  0  0  0
  -27.6073  -32.4306   25.7457 C   0  0  0  0  0  0
  -27.5576  -37.1810   24.8454 C   0  0  0  0  0  0
  -21.4113  -29.3025   22.3746 N   0  0  0  0  0  0
  -26.4276  -37.3791   23.9412 N   0  0  0  0  0  0
  -24.6642  -31.0806   22.1037 N   0  0  0  0  0  0
  -23.4168  -28.8219   23.3042 O   0  0  0  0  0  0
  -28.4316  -26.7622   20.0509 O   0  0  0  0  0  0
  -26.5602  -34.8925   22.4686 O   0  0  0  0  0  0
  -23.5332  -32.1453   23.7533 O   0  0  0  0  0  0
  -30.8577  -20.9644   19.6131 C   0  0  0  0  0  0
  -30.4515  -20.1984   18.5544 C   0  0  0  0  0  0
  -30.5839  -21.0811   17.4384 C   0  0  0  0  0  0
  -30.2297  -20.8407   15.9977 C   0  0  0  0  0  0
  -33.1921  -23.5576   19.6319 C   0  0  0  0  0  0
  -29.9248  -18.7770   18.5254 C   0  0  0  0  0  0
  -30.3220  -17.8696   19.7196 C   0  0  0  0  0  0
  -29.3764  -24.5826   19.4304 C   0  0  0  0  0  0
  -30.9100  -24.6900   19.5854 C   0  0  0  0  0  0
  -29.6062  -16.5042   19.6012 C   0  0  0  0  0  0
  -28.7193  -25.8897   18.9515 C   0  0  0  0  0  0
  -31.6832  -23.3727   19.8739 C   0  0  1  0  0  0
  -31.0685  -22.2637   17.7829 N   0  0  0  0  0  0
  -31.1941  -22.2123   19.1279 N   0  0  0  0  0  0
  -29.8434  -15.5139   20.6671 N   0  0  0  0  0  0
  -31.4697  -12.3854   19.1146 H   0  0  0  0  0  0
  -30.3195  -11.2744   19.8023 H   0  0  0  0  0  0
  -29.7376  -11.8080   17.4019 H   0  0  0  0  0  0
  -29.6537  -13.5090   17.7874 H   0  0  0  0  0  0
  -27.8325  -11.3061   18.8016 H   0  0  0  0  0  0
  -27.3618  -12.6391   17.7809 H   0  0  0  0  0  0
  -27.7001  -14.2434   19.5605 H   0  0  0  0  0  0
  -28.6698  -11.9550   21.3536 H   0  0  0  0  0  0
  -28.4826  -13.6124   21.8553 H   0  0  0  0  0  0
  -25.2758   -9.5708   22.4703 H   0  0  0  0  0  0
  -24.0011   -7.4635   22.7446 H   0  0  0  0  0  0
  -21.0811   -8.8769   19.8952 H   0  0  0  0  0  0
  -22.3668  -10.9656   19.6132 H   0  0  0  0  0  0
  -21.2038   -7.6143   23.9717 H   0  0  0  0  0  0
  -21.1472   -6.0510   25.9068 H   0  0  0  0  0  0
  -22.0605   -2.7604   23.2841 H   0  0  0  0  0  0
  -22.4087  -11.9987   22.4794 H   0  0  0  0  0  0
  -21.1053  -13.1255   22.2466 H   0  0  0  0  0  0
  -24.6755  -15.8448   20.5224 H   0  0  0  0  0  0
  -26.2901  -15.6161   20.0783 H   0  0  0  0  0  0
  -26.7097  -32.5550   23.1148 H   0  0  0  0  0  0
  -24.9996  -33.9788   25.0431 H   0  0  0  0  0  0
  -22.6848  -31.3126   21.4176 H   0  0  0  0  0  0
  -23.3750  -35.9636   23.3281 H   0  0  0  0  0  0
  -24.3582  -36.8946   22.2054 H   0  0  0  0  0  0
  -23.7230  -37.6500   23.6667 H   0  0  0  0  0  0
  -26.0359  -31.6048   20.5991 H   0  0  0  0  0  0
  -26.8175  -30.8905   21.9812 H   0  0  0  0  0  0
  -28.0967  -29.1126   21.1466 H   0  0  0  0  0  0
  -25.9886  -25.9639   19.0503 H   0  0  0  0  0  0
  -23.9568  -27.2942   19.0656 H   0  0  0  0  0  0
  -23.7097  -30.6059   19.4080 H   0  0  0  0  0  0
  -22.7296  -29.2483   19.8747 H   0  0  0  0  0  0
  -25.1280  -36.1956   25.0821 H   0  0  0  0  0  0
  -20.9939  -28.3214   24.1457 H   0  0  0  0  0  0
  -20.5628  -26.2251   23.3607 H   0  0  0  0  0  0
  -21.6631  -26.7439   22.1237 H   0  0  0  0  0  0
  -19.6903  -25.6324   21.1213 H   0  0  0  0  0  0
  -19.6696  -27.3233   20.6751 H   0  0  0  0  0  0
  -17.4189  -26.6692   21.4014 H   0  0  0  0  0  0
  -18.0318  -26.0074   22.8998 H   0  0  0  0  0  0
  -19.7924  -30.7253   24.2307 H   0  0  0  0  0  0
  -17.5012  -31.6273   24.5182 H   0  0  0  0  0  0
  -15.5343  -30.3008   23.7661 H   0  0  0  0  0  0
  -15.8650  -28.0854   22.7044 H   0  0  0  0  0  0
  -24.5920  -30.7060   25.7775 H   0  0  0  0  0  0
  -24.8952  -32.2863   26.4910 H   0  0  0  0  0  0
  -25.8105  -30.8845   27.0202 H   0  0  0  0  0  0
  -26.2856  -29.6783   24.1172 H   0  0  0  0  0  0
  -27.4140  -29.7298   25.4525 H   0  0  0  0  0  0
  -27.8666  -30.4363   23.9192 H   0  0  0  0  0  0
  -27.2731  -33.3633   26.2007 H   0  0  0  0  0  0
  -28.3895  -32.6809   25.0279 H   0  0  0  0  0  0
  -28.0719  -31.8430   26.5385 H   0  0  0  0  0  0
  -28.2586  -38.0116   24.7495 H   0  0  0  0  0  0
  -28.1075  -36.2638   24.6266 H   0  0  0  0  0  0
  -27.2297  -37.1457   25.8860 H   0  0  0  0  0  0
  -20.9262  -29.8718   21.6955 H   0  0  0  0  0  0
  -26.0159  -38.2867   24.1418 H   0  0  0  0  0  0
  -30.9162  -20.7387   20.6698 H   0  0  0  0  0  0
  -30.6145  -19.8843   15.6448 H   0  0  0  0  0  0
  -30.6349  -21.6163   15.3487 H   0  0  0  0  0  0
  -29.1481  -20.8332   15.8569 H   0  0  0  0  0  0
  -33.6099  -24.3211   20.2891 H   0  0  0  0  0  0
  -33.3947  -23.8614   18.6038 H   0  0  0  0  0  0
  -33.7390  -22.6330   19.8108 H   0  0  0  0  0  0
  -30.2456  -18.2857   17.6048 H   0  0  0  0  0  0
  -28.8354  -18.8062   18.4643 H   0  0  0  0  0  0
  -30.0493  -18.3458   20.6621 H   0  0  0  0  0  0
  -31.4039  -17.7279   19.7341 H   0  0  0  0  0  0
  -28.9083  -24.2299   20.3489 H   0  0  0  0  0  0
  -29.1481  -23.8289   18.6781 H   0  0  0  0  0  0
  -31.1391  -25.4138   20.3682 H   0  0  0  0  0  0
  -31.3063  -25.1192   18.6651 H   0  0  0  0  0  0
  -29.8411  -16.0580   18.6314 H   0  0  0  0  0  0
  -28.5311  -16.6801   19.5756 H   0  0  0  0  0  0
  -27.8629  -25.6252   18.3378 H   0  0  0  0  0  0
  -29.3832  -26.4118   18.2627 H   0  0  0  0  0  0
  -31.5473  -23.1363   20.9304 H   0  0  0  0  0  0
  -29.0164  -15.2707   21.1960 H   0  0  0  0  0  0
  1 25  1  0  0  0
  1 30  2  0  0  0
  1 85  1  0  0  0
  2  3  1  0  0  0
  2 25  1  0  0  0
  2 86  1  0  0  0
  2 87  1  0  0  0
  3  4  1  0  0  0
  3 88  1  0  0  0
  3 89  1  0  0  0
  4  5  1  0  0  0
  4 90  1  0  0  0
  4 91  1  0  0  0
  5  6  1  0  0  0
  5 26  1  0  0  0
  5 92  1  0  0  0
  6 25  1  0  0  0
  6 93  1  0  0  0
  6 94  1  0  0  0
  7  8  2  0  0  0
  7 26  1  0  0  0
  7 29  1  0  0  0
  8  9  1  0  0  0
  8 22  1  0  0  0
  9 10  1  0  0  0
  9 27  2  0  0  0
 10 11  2  0  0  0
 10 15  1  0  0  0
 11 12  1  0  0  0
 11 95  1  0  0  0
 12 13  2  0  0  0
 12 96  1  0  0  0
 13 14  1  0  0  0
 13 31  1  0  0  0
 14 15  2  0  0  0
 14 97  1  0  0  0
 15 98  1  0  0  0
 16 17  2  0  0  0
 16 21  1  0  0  0
 16 31  1  0  0  0
 17 18  1  0  0  0
 17 99  1  0  0  0
 18 19  2  0  0  0
 18100  1  0  0  0
 19 20  1  0  0  0
 19 24  1  0  0  0
 20 21  2  0  0  0
 20101  1  0  0  0
 21 23  1  0  0  0
 22 28  1  0  0  0
 22 32  2  0  0  0
 26 27  1  0  0  0
 28102  1  0  0  0
 28103  1  0  0  0
 29104  1  0  0  0
 29105  1  0  0  0
 33 34  1  0  0  0
 33 66  1  0  0  0
 33 70  2  0  0  0
 34 36  1  0  0  0
 34 59  1  0  0  0
 34106  1  0  0  0
 35 44  2  0  0  0
 35 45  1  0  0  0
 35 68  1  0  0  0
 36 56  1  0  0  0
 36107  1  0  0  0
 37 39  1  0  0  0
 37 47  1  0  0  0
 37 66  1  0  0  0
 37108  1  0  0  0
 38 43  2  0  0  0
 38 46  1  0  0  0
 38 47  1  0  0  0
 39 64  1  0  0  0
 39 67  2  0  0  0
 40 52  1  0  0  0
 40 53  2  0  0  0
 40 58  1  0  0  0
 41109  1  0  0  0
 41110  1  0  0  0
 41111  1  0  0  0
 41 48  1  0  0  0
 42 43  1  0  0  0
 42 66  1  0  0  0
 42112  1  0  0  0
 42113  1  0  0  0
 43 44  1  0  0  0
 44114  1  0  0  0
 45 46  2  0  0  0
 45115  1  0  0  0
 46116  1  0  0  0
 47117  1  0  0  0
 47118  1  0  0  0
 48 56  1  0  0  0
 48 65  1  0  0  0
 48119  1  0  0  0
 49 50  1  0  0  0
 49 53  1  0  0  0
 49 64  1  0  0  0
 49120  1  0  0  0
 50 51  1  0  0  0
 50121  1  0  0  0
 50122  1  0  0  0
 51 52  1  0  0  0
 51123  1  0  0  0
 51124  1  0  0  0
 52125  1  0  0  0
 52126  1  0  0  0
 53 54  1  0  0  0
 54 55  2  0  0  0
 54127  1  0  0  0
 55 57  1  0  0  0
 55128  1  0  0  0
 56 69  2  0  0  0
 57 58  2  0  0  0
 57129  1  0  0  0
 58130  1  0  0  0
 59 60  1  0  0  0
 59 61  1  0  0  0
 59 62  1  0  0  0
 60131  1  0  0  0
 60132  1  0  0  0
 60133  1  0  0  0
 61134  1  0  0  0
 61135  1  0  0  0
 61136  1  0  0  0
 62137  1  0  0  0
 62138  1  0  0  0
 62139  1  0  0  0
 63 65  1  0  0  0
 63140  1  0  0  0
 63141  1  0  0  0
 63142  1  0  0  0
 64143  1  0  0  0
 65144  1  0  0  0
 68 81  1  0  0  0
 71 72  2  0  0  0
 71 84  1  0  0  0
 71145  1  0  0  0
 72 73  1  0  0  0
 72 76  1  0  0  0
 73 74  1  0  0  0
 73 83  2  0  0  0
 74146  1  0  0  0
 74147  1  0  0  0
 74148  1  0  0  0
 75149  1  0  0  0
 75150  1  0  0  0
 75151  1  0  0  0
 75 82  1  0  0  0
 76 77  1  0  0  0
 76152  1  0  0  0
 76153  1  0  0  0
 77 80  1  0  0  0
 77154  1  0  0  0
 77155  1  0  0  0
 78 79  1  0  0  0
 78 81  1  0  0  0
 78156  1  0  0  0
 78157  1  0  0  0
 79 82  1  0  0  0
 79158  1  0  0  0
 79159  1  0  0  0
 80 85  1  0  0  0
 80160  1  0  0  0
 80161  1  0  0  0
 81162  1  0  0  0
 81163  1  0  0  0
 82 84  1  0  0  0
 82164  1  0  0  0
 83 84  1  0  0  0
 85165  1  0  0  0
M  ISO  4   1 100  68 101  81 101  85 100
M  END
> <chiral flag>
0

> <version>
0

> <s_m_source_file>
/data/baiqing/PycharmProjects/Reinvent-master-3.2/result/LINK_invent/BTK/process_docking_weight1_custom_sum_contain_oxygen_bond_distance_aromatic_linkinvent_7_9_3/rearranged_h_0020.sdf

> <i_m_source_file_index>
3

> <r_mmod_Potential_Energy-OPLS-2005>
-66.9249877929688

> <r_mmod_Stretch_Energy-OPLS-2005>
34.6186943054199

> <r_mmod_Bend_Energy-OPLS-2005>
106.044776916504

> <r_mmod_Torsional_Energy-OPLS-2005>
262.072113037109

> <r_mmod_Improper_Torsional_Energy-OPLS-2005>
13.0068197250366

> <r_mmod_Van_der_Waal_Energy-OPLS-2005>
130.256042480469

> <r_mmod_Electrostatic_Energy-OPLS-2005>
-403.211242675781

> <r_mmod_Solvation_Energy-OPLS-2005>
-223.856323242188

> <b_mmod_Minimization_Converged-OPLS-2005>
0

> <r_mmod_RMS_Derivative-OPLS-2005>
3.80891895294189

$$$$
3
                    3D
 Structure written by MMmdl.
180188  0  0  1  0            999 V2000
  -30.6707  -14.4417   20.5518 C   0  0  0  0  0  0
  -30.4358  -12.2708   19.4200 C   0  0  0  0  0  0
  -29.5029  -12.4599   18.2053 C   0  0  0  0  0  0
  -28.0153  -12.3688   18.6116 C   0  0  0  0  0  0
  -27.6693  -13.1897   19.8852 C   0  0  2  0  0  0
  -28.7105  -12.9269   20.9959 C   0  0  0  0  0  0
  -25.2644  -13.8140   20.5684 C   0  0  0  0  0  0
  -24.1862  -13.0446   20.9154 C   0  0  0  0  0  0
  -24.6374  -11.6901   20.8715 C   0  0  0  0  0  0
  -23.9038  -10.4294   21.0384 C   0  0  0  0  0  0
  -24.3593   -9.4222   21.9165 C   0  0  0  0  0  0
  -23.6274   -8.2264   22.0753 C   0  0  0  0  0  0
  -22.4263   -8.0290   21.3552 C   0  0  0  0  0  0
  -21.9887   -9.0250   20.4655 C   0  0  0  0  0  0
  -22.7207  -10.2132   20.3046 C   0  0  0  0  0  0
  -21.6861   -6.0734   22.5268 C   0  0  0  0  0  0
  -21.4025   -6.5635   23.8203 C   0  0  0  0  0  0
  -21.3661   -5.6787   24.9158 C   0  0  0  0  0  0
  -21.6048   -4.3050   24.7215 C   0  0  0  0  0  0
  -21.8824   -3.8148   23.4334 C   0  0  0  0  0  0
  -21.9206   -4.6960   22.3387 C   0  0  0  0  0  0
  -22.7891  -13.5266   21.1829 C   0  0  0  0  0  0
  -22.1668   -4.2153   21.0955 F   0  0  0  0  0  0
  -21.5631   -3.4534   25.7718 F   0  0  0  0  0  0
  -30.0458  -13.2397   20.4513 N   0  0  0  0  0  0
  -26.3067  -12.9260   20.3422 N   0  0  0  0  0  0
  -25.9301  -11.6439   20.5793 N   0  0  0  0  0  0
  -22.0529  -12.8264   22.0390 N   0  0  0  0  0  0
  -25.4418  -15.1856   20.4113 N   0  0  0  0  0  0
  -31.7917  -14.6741   20.0885 O   0  0  0  0  0  0
  -21.6657   -6.8869   21.4229 O   0  0  0  0  0  0
  -22.3579  -14.5568   20.6679 O   0  0  0  0  0  0
  -24.6072  -31.8713   23.2124 C   0  0  0  0  0  0
  -25.8988  -32.4838   23.8409 C   0  0  1  0  0  0
  -27.2642  -27.4844   20.1034 C   0  0  0  0  0  0
  -25.5866  -33.8638   24.2346 N   0  0  0  0  0  0
  -23.3947  -30.4914   21.5499 C   0  0  2  0  0  0
  -24.8492  -28.9608   20.1174 C   0  0  0  0  0  0
  -22.7375  -29.4665   22.5006 C   0  0  0  0  0  0
  -18.0260  -28.1376   22.8495 C   0  0  0  0  0  0
  -24.1476  -36.7324   23.2640 C   0  0  0  0  0  0
  -25.9147  -30.8547   21.3567 C   0  0  0  0  0  0
  -25.9987  -29.4893   20.7135 C   0  0  0  0  0  0
  -27.2033  -28.7615   20.7110 C   0  0  0  0  0  0
  -26.0985  -26.9656   19.5021 C   0  0  0  0  0  0
  -24.8911  -27.6931   19.5078 C   0  0  0  0  0  0
  -23.6037  -29.8163   20.1659 C   0  0  0  0  0  0
  -25.4095  -36.3125   24.0345 C   0  0  1  0  0  0
  -20.5846  -28.3646   23.1336 C   0  0  2  0  0  0
  -20.6750  -26.9387   22.5426 C   0  0  0  0  0  0
  -19.5734  -26.6381   21.5216 C   0  0  0  0  0  0
  -18.1908  -26.7926   22.1618 C   0  0  0  0  0  0
  -19.1510  -28.8830   23.2915 C   0  0  0  0  0  0
  -18.9444  -30.1441   23.8918 C   0  0  0  0  0  0
  -17.6451  -30.6586   24.0565 C   0  0  0  0  0  0
  -25.9022  -34.9487   23.5143 C   0  0  0  0  0  0
  -16.5339  -29.9089   23.6332 C   0  0  0  0  0  0
  -16.7252  -28.6508   23.0347 C   0  0  0  0  0  0
  -26.4444  -31.6600   25.0715 C   0  0  0  0  0  0
  -25.3732  -31.3692   26.1478 C   0  0  0  0  0  0
  -27.0266  -30.3054   24.6044 C   0  0  0  0  0  0
  -27.6025  -32.4314   25.7479 C   0  0  0  0  0  0
  -27.5585  -37.1806   24.8462 C   0  0  0  0  0  0
  -21.4112  -29.3023   22.3749 N   0  0  0  0  0  0
  -26.4288  -37.3803   23.9421 N   0  0  0  0  0  0
  -24.6564  -31.0855   22.0994 N   0  0  0  0  0  0
  -23.4167  -28.8216   23.3040 O   0  0  0  0  0  0
  -28.4015  -26.7043   20.0584 O   0  0  0  0  0  0
  -26.5585  -34.8930   22.4709 O   0  0  0  0  0  0
  -23.5282  -32.1434   23.7553 O   0  0  0  0  0  0
  -29.1867  -18.4958   19.0608 C   0  0  0  0  0  0
  -29.4969  -17.6877   21.7179 C   0  0  0  0  0  0
  -28.9601  -19.4306   20.0893 C   0  0  0  0  0  0
  -29.5549  -17.1626   19.3357 C   0  0  0  0  0  0
  -29.1323  -19.0230   21.4354 C   0  0  0  0  0  0
  -29.7132  -16.7452   20.6898 C   0  0  0  0  0  0
  -29.6759  -16.2311   18.1415 C   0  0  0  0  0  0
  -28.8867  -19.9761   22.5948 C   0  0  0  0  0  0
  -28.4611  -20.8280   19.7084 C   0  0  0  0  0  0
  -33.4009  -25.6822   18.7881 C   0  0  0  0  0  0
  -32.6653  -24.7006   17.8560 C   0  0  0  0  0  0
  -32.5100  -26.3918   19.8270 C   0  0  0  0  0  0
  -32.0465  -23.4855   18.5718 C   0  0  0  0  0  0
  -31.3814  -27.2496   19.2197 C   0  0  0  0  0  0
  -31.0715  -22.7181   17.6629 C   0  0  0  0  0  0
  -30.5090  -27.9441   20.2808 C   0  0  0  0  0  0
  -30.4404  -21.4671   18.3054 C   0  0  0  0  0  0
  -29.4808  -27.0081   20.9450 C   0  0  0  0  0  0
  -29.9127  -15.3976   21.1082 N   0  0  0  0  0  0
  -29.5434  -21.7981   19.4379 N   0  3  0  0  0  0
  -31.4771  -12.3862   19.1154 H   0  0  0  0  0  0
  -30.3530  -11.2560   19.8115 H   0  0  0  0  0  0
  -29.7234  -11.7027   17.4517 H   0  0  0  0  0  0
  -29.7105  -13.4129   17.7243 H   0  0  0  0  0  0
  -27.7912  -11.3151   18.7840 H   0  0  0  0  0  0
  -27.3802  -12.6780   17.7814 H   0  0  0  0  0  0
  -27.7209  -14.2438   19.6229 H   0  0  0  0  0  0
  -28.6810  -11.8789   21.2997 H   0  0  0  0  0  0
  -28.4753  -13.4898   21.9006 H   0  0  0  0  0  0
  -25.2726   -9.5722   22.4739 H   0  0  0  0  0  0
  -24.0001   -7.4664   22.7458 H   0  0  0  0  0  0
  -21.0837   -8.8748   19.8942 H   0  0  0  0  0  0
  -22.3646  -10.9667   19.6157 H   0  0  0  0  0  0
  -21.2010   -7.6143   23.9699 H   0  0  0  0  0  0
  -21.1485   -6.0518   25.9054 H   0  0  0  0  0  0
  -22.0605   -2.7613   23.2840 H   0  0  0  0  0  0
  -22.4134  -11.9897   22.4732 H   0  0  0  0  0  0
  -21.1140  -13.1293   22.2586 H   0  0  0  0  0  0
  -24.6849  -15.8481   20.5361 H   0  0  0  0  0  0
  -26.3077  -15.6252   20.1269 H   0  0  0  0  0  0
  -26.7069  -32.5581   23.1195 H   0  0  0  0  0  0
  -25.0008  -33.9808   25.0483 H   0  0  0  0  0  0
  -22.6810  -31.3053   21.4087 H   0  0  0  0  0  0
  -23.3737  -35.9657   23.3291 H   0  0  0  0  0  0
  -24.3577  -36.8948   22.2058 H   0  0  0  0  0  0
  -23.7223  -37.6524   23.6654 H   0  0  0  0  0  0
  -26.0132  -31.6186   20.5840 H   0  0  0  0  0  0
  -26.8063  -30.9191   21.9676 H   0  0  0  0  0  0
  -28.0744  -29.2041   21.1697 H   0  0  0  0  0  0
  -26.1275  -25.9922   19.0324 H   0  0  0  0  0  0
  -24.0085  -27.2764   19.0425 H   0  0  0  0  0  0
  -23.7010  -30.5879   19.4013 H   0  0  0  0  0  0
  -22.7328  -29.2252   19.8759 H   0  0  0  0  0  0
  -25.1271  -36.1996   25.0838 H   0  0  0  0  0  0
  -20.9937  -28.3208   24.1453 H   0  0  0  0  0  0
  -20.5643  -26.2257   23.3602 H   0  0  0  0  0  0
  -21.6624  -26.7426   22.1225 H   0  0  0  0  0  0
  -19.6890  -25.6293   21.1236 H   0  0  0  0  0  0
  -19.6691  -27.3199   20.6749 H   0  0  0  0  0  0
  -17.4187  -26.6692   21.4008 H   0  0  0  0  0  0
  -18.0291  -26.0055   22.8999 H   0  0  0  0  0  0
  -19.7918  -30.7253   24.2288 H   0  0  0  0  0  0
  -17.5005  -31.6267   24.5158 H   0  0  0  0  0  0
  -15.5342  -30.3002   23.7645 H   0  0  0  0  0  0
  -15.8650  -28.0842   22.7048 H   0  0  0  0  0  0
  -24.5904  -30.7038   25.7825 H   0  0  0  0  0  0
  -24.8924  -32.2843   26.4950 H   0  0  0  0  0  0
  -25.8107  -30.8853   27.0218 H   0  0  0  0  0  0
  -26.2799  -29.6842   24.1089 H   0  0  0  0  0  0
  -27.4045  -29.7264   25.4478 H   0  0  0  0  0  0
  -27.8624  -30.4393   23.9173 H   0  0  0  0  0  0
  -27.2640  -33.3588   26.2111 H   0  0  0  0  0  0
  -28.3811  -32.6916   25.0297 H   0  0  0  0  0  0
  -28.0713  -31.8405   26.5356 H   0  0  0  0  0  0
  -28.2588  -38.0117   24.7532 H   0  0  0  0  0  0
  -28.1095  -36.2653   24.6248 H   0  0  0  0  0  0
  -27.2311  -37.1418   25.8866 H   0  0  0  0  0  0
  -20.9256  -29.8742   21.6979 H   0  0  0  0  0  0
  -26.0180  -38.2878   24.1441 H   0  0  0  0  0  0
  -29.0340  -18.7958   18.0325 H   0  0  0  0  0  0
  -29.5802  -17.3701   22.7486 H   0  0  0  0  0  0
  -29.4735  -16.7509   17.2051 H   0  0  0  0  0  0
  -28.9481  -15.4289   18.2136 H   0  0  0  0  0  0
  -30.6765  -15.8116   18.0581 H   0  0  0  0  0  0
  -29.1918  -19.5381   23.5454 H   0  0  0  0  0  0
  -27.8264  -20.2171   22.6736 H   0  0  0  0  0  0
  -29.4470  -20.9029   22.4701 H   0  0  0  0  0  0
  -27.8182  -21.2273   20.4932 H   0  0  0  0  0  0
  -27.8195  -20.7542   18.8281 H   0  0  0  0  0  0
  -33.9001  -26.4372   18.1790 H   0  0  0  0  0  0
  -34.1978  -25.1497   19.3095 H   0  0  0  0  0  0
  -33.3692  -24.3403   17.1044 H   0  0  0  0  0  0
  -31.9002  -25.2371   17.2949 H   0  0  0  0  0  0
  -33.1460  -27.0339   20.4391 H   0  0  0  0  0  0
  -32.0973  -25.6604   20.5197 H   0  0  0  0  0  0
  -31.5123  -23.8102   19.4630 H   0  0  0  0  0  0
  -32.8429  -22.8217   18.9141 H   0  0  0  0  0  0
  -30.7356  -26.6514   18.5767 H   0  0  0  0  0  0
  -31.8284  -28.0085   18.5764 H   0  0  0  0  0  0
  -31.6006  -22.4098   16.7596 H   0  0  0  0  0  0
  -30.2786  -23.3882   17.3257 H   0  0  0  0  0  0
  -29.9878  -28.7857   19.8243 H   0  0  0  0  0  0
  -31.1542  -28.3766   21.0469 H   0  0  0  0  0  0
  -31.2111  -20.7676   18.6335 H   0  0  0  0  0  0
  -29.8671  -20.9546   17.5325 H   0  0  0  0  0  0
  -29.1270  -27.4204   21.8895 H   0  0  0  0  0  0
  -29.9570  -26.0686   21.2229 H   0  0  0  0  0  0
  -29.1840  -15.0353   21.7044 H   0  0  0  0  0  0
  -30.0863  -21.9233   20.2761 H   0  0  0  0  0  0
  -29.0916  -22.6742   19.2330 H   0  0  0  0  0  0
  1 25  1  0  0  0
  1 30  2  0  0  0
  1 89  1  0  0  0
  2  3  1  0  0  0
  2 25  1  0  0  0
  2 91  1  0  0  0
  2 92  1  0  0  0
  3  4  1  0  0  0
  3 93  1  0  0  0
  3 94  1  0  0  0
  4  5  1  0  0  0
  4 95  1  0  0  0
  4 96  1  0  0  0
  5  6  1  0  0  0
  5 26  1  0  0  0
  5 97  1  0  0  0
  6 25  1  0  0  0
  6 98  1  0  0  0
  6 99  1  0  0  0
  7  8  2  0  0  0
  7 26  1  0  0  0
  7 29  1  0  0  0
  8  9  1  0  0  0
  8 22  1  0  0  0
  9 10  1  0  0  0
  9 27  2  0  0  0
 10 11  2  0  0  0
 10 15  1  0  0  0
 11 12  1  0  0  0
 11100  1  0  0  0
 12 13  2  0  0  0
 12101  1  0  0  0
 13 14  1  0  0  0
 13 31  1  0  0  0
 14 15  2  0  0  0
 14102  1  0  0  0
 15103  1  0  0  0
 16 17  2  0  0  0
 16 21  1  0  0  0
 16 31  1  0  0  0
 17 18  1  0  0  0
 17104  1  0  0  0
 18 19  2  0  0  0
 18105  1  0  0  0
 19 20  1  0  0  0
 19 24  1  0  0  0
 20 21  2  0  0  0
 20106  1  0  0  0
 21 23  1  0  0  0
 22 28  1  0  0  0
 22 32  2  0  0  0
 26 27  1  0  0  0
 28107  1  0  0  0
 28108  1  0  0  0
 29109  1  0  0  0
 29110  1  0  0  0
 33 34  1  0  0  0
 33 66  1  0  0  0
 33 70  2  0  0  0
 34 36  1  0  0  0
 34 59  1  0  0  0
 34111  1  0  0  0
 35 44  2  0  0  0
 35 45  1  0  0  0
 35 68  1  0  0  0
 36 56  1  0  0  0
 36112  1  0  0  0
 37 39  1  0  0  0
 37 47  1  0  0  0
 37 66  1  0  0  0
 37113  1  0  0  0
 38 43  2  0  0  0
 38 46  1  0  0  0
 38 47  1  0  0  0
 39 64  1  0  0  0
 39 67  2  0  0  0
 40 52  1  0  0  0
 40 53  2  0  0  0
 40 58  1  0  0  0
 41114  1  0  0  0
 41115  1  0  0  0
 41116  1  0  0  0
 41 48  1  0  0  0
 42 43  1  0  0  0
 42 66  1  0  0  0
 42117  1  0  0  0
 42118  1  0  0  0
 43 44  1  0  0  0
 44119  1  0  0  0
 45 46  2  0  0  0
 45120  1  0  0  0
 46121  1  0  0  0
 47122  1  0  0  0
 47123  1  0  0  0
 48 56  1  0  0  0
 48 65  1  0  0  0
 48124  1  0  0  0
 49 50  1  0  0  0
 49 53  1  0  0  0
 49 64  1  0  0  0
 49125  1  0  0  0
 50 51  1  0  0  0
 50126  1  0  0  0
 50127  1  0  0  0
 51 52  1  0  0  0
 51128  1  0  0  0
 51129  1  0  0  0
 52130  1  0  0  0
 52131  1  0  0  0
 53 54  1  0  0  0
 54 55  2  0  0  0
 54132  1  0  0  0
 55 57  1  0  0  0
 55133  1  0  0  0
 56 69  2  0  0  0
 57 58  2  0  0  0
 57134  1  0  0  0
 58135  1  0  0  0
 59 60  1  0  0  0
 59 61  1  0  0  0
 59 62  1  0  0  0
 60136  1  0  0  0
 60137  1  0  0  0
 60138  1  0  0  0
 61139  1  0  0  0
 61140  1  0  0  0
 61141  1  0  0  0
 62142  1  0  0  0
 62143  1  0  0  0
 62144  1  0  0  0
 63 65  1  0  0  0
 63145  1  0  0  0
 63146  1  0  0  0
 63147  1  0  0  0
 64148  1  0  0  0
 65149  1  0  0  0
 68 88  1  0  0  0
 71 73  2  0  0  0
 71 74  1  0  0  0
 71150  1  0  0  0
 72 75  2  0  0  0
 72 76  1  0  0  0
 72151  1  0  0  0
 73 75  1  0  0  0
 73 79  1  0  0  0
 74 76  2  0  0  0
 74 77  1  0  0  0
 75 78  1  0  0  0
 76 89  1  0  0  0
 77152  1  0  0  0
 77153  1  0  0  0
 77154  1  0  0  0
 78155  1  0  0  0
 78156  1  0  0  0
 78157  1  0  0  0
 79 90  1  0  0  0
 79158  1  0  0  0
 79159  1  0  0  0
 80 81  1  0  0  0
 80 82  1  0  0  0
 80160  1  0  0  0
 80161  1  0  0  0
 81 83  1  0  0  0
 81162  1  0  0  0
 81163  1  0  0  0
 82 84  1  0  0  0
 82164  1  0  0  0
 82165  1  0  0  0
 83 85  1  0  0  0
 83166  1  0  0  0
 83167  1  0  0  0
 84 86  1  0  0  0
 84168  1  0  0  0
 84169  1  0  0  0
 85 87  1  0  0  0
 85170  1  0  0  0
 85171  1  0  0  0
 86 88  1  0  0  0
 86172  1  0  0  0
 86173  1  0  0  0
 87 90  1  0  0  0
 87174  1  0  0  0
 87175  1  0  0  0
 88176  1  0  0  0
 88177  1  0  0  0
 89178  1  0  0  0
 90179  1  0  0  0
 90180  1  0  0  0
M  CHG  1  90   1
M  ISO  4   1 100  68 101  88 101  89 100
M  END
> <chiral flag>
0

> <version>
0

> <s_m_source_file>
/data/baiqing/PycharmProjects/Reinvent-master-3.2/result/LINK_invent/BTK/process_docking_weight1_custom_sum_contain_oxygen_bond_distance_aromatic_linkinvent_7_9_3/rearranged_h_0020.sdf

> <i_m_source_file_index>
4

> <r_mmod_Potential_Energy-OPLS-2005>
-205.338592529297

> <r_mmod_Stretch_Energy-OPLS-2005>
35.4557800292969

> <r_mmod_Bend_Energy-OPLS-2005>
110.595649719238

> <r_mmod_Torsional_Energy-OPLS-2005>
248.382385253906

> <r_mmod_Improper_Torsional_Energy-OPLS-2005>
4.92015981674194

> <r_mmod_Van_der_Waal_Energy-OPLS-2005>
152.196350097656

> <r_mmod_Electrostatic_Energy-OPLS-2005>
-326.246032714844

> <r_mmod_Solvation_Energy-OPLS-2005>
-440.116546630859

> <b_mmod_Minimization_Converged-OPLS-2005>
0

> <r_mmod_RMS_Derivative-OPLS-2005>
2.02328395843506

$$$$
4
                    3D
 Structure written by MMmdl.
187195  0  0  1  0            999 V2000
  -30.7506  -14.4015   20.6727 C   0  0  0  0  0  0
  -30.4158  -12.3020   19.4045 C   0  0  0  0  0  0
  -29.4864  -12.5215   18.1954 C   0  0  0  0  0  0
  -28.0104  -12.3642   18.6091 C   0  0  0  0  0  0
  -27.6610  -13.1953   19.8685 C   0  0  2  0  0  0
  -28.7007  -12.9560   20.9860 C   0  0  0  0  0  0
  -25.2600  -13.8126   20.5678 C   0  0  0  0  0  0
  -24.1847  -13.0425   20.9181 C   0  0  0  0  0  0
  -24.6393  -11.6885   20.8725 C   0  0  0  0  0  0
  -23.9062  -10.4285   21.0397 C   0  0  0  0  0  0
  -24.3614   -9.4204   21.9178 C   0  0  0  0  0  0
  -23.6290   -8.2247   22.0745 C   0  0  0  0  0  0
  -22.4261   -8.0296   21.3547 C   0  0  0  0  0  0
  -21.9898   -9.0265   20.4644 C   0  0  0  0  0  0
  -22.7241  -10.2134   20.3049 C   0  0  0  0  0  0
  -21.6864   -6.0733   22.5279 C   0  0  0  0  0  0
  -21.4030   -6.5632   23.8216 C   0  0  0  0  0  0
  -21.3647   -5.6786   24.9181 C   0  0  0  0  0  0
  -21.6032   -4.3050   24.7227 C   0  0  0  0  0  0
  -21.8823   -3.8143   23.4352 C   0  0  0  0  0  0
  -21.9191   -4.6959   22.3405 C   0  0  0  0  0  0
  -22.7859  -13.5216   21.1856 C   0  0  0  0  0  0
  -22.1649   -4.2149   21.0980 F   0  0  0  0  0  0
  -21.5628   -3.4530   25.7735 F   0  0  0  0  0  0
  -30.0365  -13.2629   20.4538 N   0  0  0  0  0  0
  -26.3022  -12.9274   20.3329 N   0  0  0  0  0  0
  -25.9307  -11.6442   20.5723 N   0  0  0  0  0  0
  -22.0515  -12.8193   22.0408 N   0  0  0  0  0  0
  -25.4353  -15.1838   20.4070 N   0  0  0  0  0  0
  -31.7996  -14.6283   20.0618 O   0  0  0  0  0  0
  -21.6652   -6.8879   21.4239 O   0  0  0  0  0  0
  -22.3524  -14.5525   20.6718 O   0  0  0  0  0  0
  -24.6106  -31.8695   23.2104 C   0  0  0  0  0  0
  -25.9014  -32.4828   23.8393 C   0  0  1  0  0  0
  -27.2414  -27.4565   20.0915 C   0  0  0  0  0  0
  -25.5886  -33.8625   24.2334 N   0  0  0  0  0  0
  -23.3973  -30.4910   21.5504 C   0  0  2  0  0  0
  -24.8434  -28.9550   20.1162 C   0  0  0  0  0  0
  -22.7387  -29.4662   22.5008 C   0  0  0  0  0  0
  -18.0268  -28.1369   22.8495 C   0  0  0  0  0  0
  -24.1488  -36.7318   23.2639 C   0  0  0  0  0  0
  -25.9219  -30.8403   21.3592 C   0  0  0  0  0  0
  -25.9991  -29.4748   20.7097 C   0  0  0  0  0  0
  -27.1964  -28.7300   20.6970 C   0  0  0  0  0  0
  -26.0653  -26.9386   19.5004 C   0  0  0  0  0  0
  -24.8701  -27.6844   19.5120 C   0  0  0  0  0  0
  -23.6037  -29.8191   20.1658 C   0  0  0  0  0  0
  -25.4109  -36.3116   24.0339 C   0  0  1  0  0  0
  -20.5857  -28.3649   23.1334 C   0  0  2  0  0  0
  -20.6761  -26.9392   22.5423 C   0  0  0  0  0  0
  -19.5744  -26.6383   21.5215 C   0  0  0  0  0  0
  -18.1920  -26.7917   22.1621 C   0  0  0  0  0  0
  -19.1517  -28.8824   23.2912 C   0  0  0  0  0  0
  -18.9448  -30.1434   23.8917 C   0  0  0  0  0  0
  -17.6452  -30.6579   24.0565 C   0  0  0  0  0  0
  -25.9033  -34.9479   23.5135 C   0  0  0  0  0  0
  -16.5344  -29.9084   23.6323 C   0  0  0  0  0  0
  -16.7258  -28.6499   23.0346 C   0  0  0  0  0  0
  -26.4458  -31.6599   25.0708 C   0  0  0  0  0  0
  -25.3737  -31.3689   26.1465 C   0  0  0  0  0  0
  -27.0285  -30.3051   24.6051 C   0  0  0  0  0  0
  -27.6046  -32.4311   25.7463 C   0  0  0  0  0  0
  -27.5586  -37.1813   24.8466 C   0  0  0  0  0  0
  -21.4121  -29.3022   22.3741 N   0  0  0  0  0  0
  -26.4302  -37.3797   23.9407 N   0  0  0  0  0  0
  -24.6613  -31.0814   22.0989 N   0  0  0  0  0  0
  -23.4174  -28.8213   23.3042 O   0  0  0  0  0  0
  -28.4461  -26.7911   20.1078 O   0  0  0  0  0  0
  -26.5597  -34.8929   22.4696 O   0  0  0  0  0  0
  -23.5308  -32.1436   23.7519 O   0  0  0  0  0  0
  -29.7210  -17.9012   18.4028 C   0  0  0  0  0  0
  -30.9286  -17.9767   17.6881 C   0  0  0  0  0  0
  -31.9223  -18.8912   18.1274 C   0  0  0  0  0  0
  -29.5509  -18.7145   19.5298 C   0  0  0  0  0  0
  -31.5868  -19.7758   19.1885 C   0  0  0  0  0  0
  -31.1206  -17.0388   16.5072 C   0  0  0  0  0  0
  -34.1203  -17.6156   17.8420 C   0  0  0  0  0  0
  -32.6419  -20.5362   22.0880 C   0  0  0  0  0  0
  -30.3854  -15.0438   23.1530 C   0  0  0  0  0  0
  -33.7252  -22.4777   18.2182 C   0  0  0  0  0  0
  -33.3183  -18.8813   17.5021 C   0  0  0  0  0  0
  -30.3205  -23.5740   19.4750 C   0  0  0  0  0  0
  -29.9473  -24.9688   20.0107 C   0  0  0  0  0  0
  -31.8196  -23.2787   19.6802 C   0  0  0  0  0  0
  -28.9627  -16.1947   21.2889 C   0  0  0  0  0  0
  -33.3354  -20.5891   20.7176 C   0  0  0  0  0  0
  -28.9215  -17.7156   21.5739 C   0  0  0  0  0  0
  -28.5173  -25.4318   19.6912 C   0  0  0  0  0  0
  -30.2861  -15.4865   21.6802 C   0  0  2  0  0  0
  -32.3665  -22.0953   18.8445 C   0  0  2  0  0  0
  -30.4357  -19.6613   19.8817 N   0  0  0  0  0  0
  -28.4908  -18.4906   20.4080 N   0  0  0  0  0  0
  -32.4228  -20.8309   19.5976 N   0  0  0  0  0  0
  -31.4598  -12.3932   19.1008 H   0  0  0  0  0  0
  -30.3135  -11.2838   19.7842 H   0  0  0  0  0  0
  -29.7289  -11.8137   17.4018 H   0  0  0  0  0  0
  -29.6511  -13.5168   17.7791 H   0  0  0  0  0  0
  -27.8272  -11.3062   18.8025 H   0  0  0  0  0  0
  -27.3554  -12.6442   17.7841 H   0  0  0  0  0  0
  -27.7033  -14.2398   19.5666 H   0  0  0  0  0  0
  -28.6739  -11.9153   21.3125 H   0  0  0  0  0  0
  -28.4388  -13.5309   21.8661 H   0  0  0  0  0  0
  -25.2754   -9.5676   22.4754 H   0  0  0  0  0  0
  -24.0019   -7.4625   22.7433 H   0  0  0  0  0  0
  -21.0846   -8.8787   19.8917 H   0  0  0  0  0  0
  -22.3728  -10.9681   19.6158 H   0  0  0  0  0  0
  -21.2051   -7.6144   23.9730 H   0  0  0  0  0  0
  -21.1457   -6.0514   25.9085 H   0  0  0  0  0  0
  -22.0622   -2.7607   23.2871 H   0  0  0  0  0  0
  -22.4135  -11.9840   22.4755 H   0  0  0  0  0  0
  -21.1146  -13.1216   22.2675 H   0  0  0  0  0  0
  -24.6736  -15.8459   20.5092 H   0  0  0  0  0  0
  -26.2925  -15.6093   20.0822 H   0  0  0  0  0  0
  -26.7081  -32.5553   23.1160 H   0  0  0  0  0  0
  -25.0035  -33.9788   25.0475 H   0  0  0  0  0  0
  -22.6846  -31.3064   21.4109 H   0  0  0  0  0  0
  -23.3748  -35.9658   23.3317 H   0  0  0  0  0  0
  -24.3582  -36.8914   22.2053 H   0  0  0  0  0  0
  -23.7245  -37.6530   23.6638 H   0  0  0  0  0  0
  -26.0294  -31.6054   20.5892 H   0  0  0  0  0  0
  -26.8117  -30.8968   21.9741 H   0  0  0  0  0  0
  -28.0904  -29.1303   21.1551 H   0  0  0  0  0  0
  -26.0559  -25.9689   19.0250 H   0  0  0  0  0  0
  -23.9794  -27.2767   19.0543 H   0  0  0  0  0  0
  -23.7083  -30.5911   19.4026 H   0  0  0  0  0  0
  -22.7288  -29.2345   19.8748 H   0  0  0  0  0  0
  -25.1286  -36.1990   25.0835 H   0  0  0  0  0  0
  -20.9950  -28.3212   24.1455 H   0  0  0  0  0  0
  -20.5674  -26.2253   23.3600 H   0  0  0  0  0  0
  -21.6633  -26.7444   22.1217 H   0  0  0  0  0  0
  -19.6909  -25.6300   21.1226 H   0  0  0  0  0  0
  -19.6691  -27.3207   20.6757 H   0  0  0  0  0  0
  -17.4197  -26.6676   21.4015 H   0  0  0  0  0  0
  -18.0315  -26.0049   22.9005 H   0  0  0  0  0  0
  -19.7926  -30.7240   24.2304 H   0  0  0  0  0  0
  -17.5010  -31.6266   24.5156 H   0  0  0  0  0  0
  -15.5346  -30.2994   23.7631 H   0  0  0  0  0  0
  -15.8659  -28.0824   22.7052 H   0  0  0  0  0  0
  -24.5915  -30.7028   25.7802 H   0  0  0  0  0  0
  -24.8919  -32.2835   26.4930 H   0  0  0  0  0  0
  -25.8104  -30.8851   27.0209 H   0  0  0  0  0  0
  -26.2808  -29.6814   24.1133 H   0  0  0  0  0  0
  -27.4104  -29.7282   25.4483 H   0  0  0  0  0  0
  -27.8620  -30.4388   23.9152 H   0  0  0  0  0  0
  -27.2678  -33.3600   26.2077 H   0  0  0  0  0  0
  -28.3833  -32.6886   25.0270 H   0  0  0  0  0  0
  -28.0737  -31.8408   26.5344 H   0  0  0  0  0  0
  -28.2614  -38.0101   24.7511 H   0  0  0  0  0  0
  -28.1072  -36.2632   24.6297 H   0  0  0  0  0  0
  -27.2301  -37.1473   25.8870 H   0  0  0  0  0  0
  -20.9271  -29.8737   21.6964 H   0  0  0  0  0  0
  -26.0195  -38.2881   24.1400 H   0  0  0  0  0  0
  -28.9763  -17.1669   18.1254 H   0  0  0  0  0  0
  -30.1758  -16.8789   15.9876 H   0  0  0  0  0  0
  -31.4776  -16.0684   16.8507 H   0  0  0  0  0  0
  -31.8216  -17.4267   15.7707 H   0  0  0  0  0  0
  -35.1188  -17.6670   17.4069 H   0  0  0  0  0  0
  -33.6505  -16.7080   17.4680 H   0  0  0  0  0  0
  -34.2392  -17.5036   18.9203 H   0  0  0  0  0  0
  -33.3804  -20.4516   22.8855 H   0  0  0  0  0  0
  -31.9783  -19.6750   22.1700 H   0  0  0  0  0  0
  -32.0512  -21.4304   22.2828 H   0  0  0  0  0  0
  -30.4183  -15.9124   23.8105 H   0  0  0  0  0  0
  -31.2939  -14.4664   23.3316 H   0  0  0  0  0  0
  -29.5447  -14.4305   23.4721 H   0  0  0  0  0  0
  -33.6421  -23.4152   17.6668 H   0  0  0  0  0  0
  -34.0800  -21.7500   17.4938 H   0  0  0  0  0  0
  -34.5038  -22.6182   18.9672 H   0  0  0  0  0  0
  -33.9093  -19.7089   17.8741 H   0  0  0  0  0  0
  -33.2482  -19.0266   16.4242 H   0  0  0  0  0  0
  -30.0854  -23.5352   18.4108 H   0  0  0  0  0  0
  -29.7171  -22.8024   19.9547 H   0  0  0  0  0  0
  -30.6335  -25.7018   19.5844 H   0  0  0  0  0  0
  -30.1051  -25.0004   21.0896 H   0  0  0  0  0  0
  -32.0461  -23.1616   20.7393 H   0  0  0  0  0  0
  -32.3594  -24.1805   19.3877 H   0  0  0  0  0  0
  -28.7880  -16.0289   20.2280 H   0  0  0  0  0  0
  -28.1170  -15.7276   21.7923 H   0  0  0  0  0  0
  -33.8683  -19.6545   20.5397 H   0  0  0  0  0  0
  -34.0931  -21.3707   20.7428 H   0  0  0  0  0  0
  -29.8900  -18.0761   21.9248 H   0  0  0  0  0  0
  -28.2308  -17.9105   22.3947 H   0  0  0  0  0  0
  -27.7922  -24.8125   20.2219 H   0  0  0  0  0  0
  -28.3199  -25.3587   18.6205 H   0  0  0  0  0  0
  -31.0601  -16.2502   21.5766 H   0  0  0  0  0  0
  -31.6879  -21.9439   18.0025 H   0  0  0  0  0  0
  -27.6908  -18.0661   19.9535 H   0  0  0  0  0  0
  1 25  1  0  0  0
  1 30  2  0  0  0
  1 89  1  0  0  0
  2  3  1  0  0  0
  2 25  1  0  0  0
  2 94  1  0  0  0
  2 95  1  0  0  0
  3  4  1  0  0  0
  3 96  1  0  0  0
  3 97  1  0  0  0
  4  5  1  0  0  0
  4 98  1  0  0  0
  4 99  1  0  0  0
  5  6  1  0  0  0
  5 26  1  0  0  0
  5100  1  0  0  0
  6 25  1  0  0  0
  6101  1  0  0  0
  6102  1  0  0  0
  7  8  2  0  0  0
  7 26  1  0  0  0
  7 29  1  0  0  0
  8  9  1  0  0  0
  8 22  1  0  0  0
  9 10  1  0  0  0
  9 27  2  0  0  0
 10 11  2  0  0  0
 10 15  1  0  0  0
 11 12  1  0  0  0
 11103  1  0  0  0
 12 13  2  0  0  0
 12104  1  0  0  0
 13 14  1  0  0  0
 13 31  1  0  0  0
 14 15  2  0  0  0
 14105  1  0  0  0
 15106  1  0  0  0
 16 17  2  0  0  0
 16 21  1  0  0  0
 16 31  1  0  0  0
 17 18  1  0  0  0
 17107  1  0  0  0
 18 19  2  0  0  0
 18108  1  0  0  0
 19 20  1  0  0  0
 19 24  1  0  0  0
 20 21  2  0  0  0
 20109  1  0  0  0
 21 23  1  0  0  0
 22 28  1  0  0  0
 22 32  2  0  0  0
 26 27  1  0  0  0
 28110  1  0  0  0
 28111  1  0  0  0
 29112  1  0  0  0
 29113  1  0  0  0
 33 34  1  0  0  0
 33 66  1  0  0  0
 33 70  2  0  0  0
 34 36  1  0  0  0
 34 59  1  0  0  0
 34114  1  0  0  0
 35 44  2  0  0  0
 35 45  1  0  0  0
 35 68  1  0  0  0
 36 56  1  0  0  0
 36115  1  0  0  0
 37 39  1  0  0  0
 37 47  1  0  0  0
 37 66  1  0  0  0
 37116  1  0  0  0
 38 43  2  0  0  0
 38 46  1  0  0  0
 38 47  1  0  0  0
 39 64  1  0  0  0
 39 67  2  0  0  0
 40 52  1  0  0  0
 40 53  2  0  0  0
 40 58  1  0  0  0
 41117  1  0  0  0
 41118  1  0  0  0
 41119  1  0  0  0
 41 48  1  0  0  0
 42 43  1  0  0  0
 42 66  1  0  0  0
 42120  1  0  0  0
 42121  1  0  0  0
 43 44  1  0  0  0
 44122  1  0  0  0
 45 46  2  0  0  0
 45123  1  0  0  0
 46124  1  0  0  0
 47125  1  0  0  0
 47126  1  0  0  0
 48 56  1  0  0  0
 48 65  1  0  0  0
 48127  1  0  0  0
 49 50  1  0  0  0
 49 53  1  0  0  0
 49 64  1  0  0  0
 49128  1  0  0  0
 50 51  1  0  0  0
 50129  1  0  0  0
 50130  1  0  0  0
 51 52  1  0  0  0
 51131  1  0  0  0
 51132  1  0  0  0
 52133  1  0  0  0
 52134  1  0  0  0
 53 54  1  0  0  0
 54 55  2  0  0  0
 54135  1  0  0  0
 55 57  1  0  0  0
 55136  1  0  0  0
 56 69  2  0  0  0
 57 58  2  0  0  0
 57137  1  0  0  0
 58138  1  0  0  0
 59 60  1  0  0  0
 59 61  1  0  0  0
 59 62  1  0  0  0
 60139  1  0  0  0
 60140  1  0  0  0
 60141  1  0  0  0
 61142  1  0  0  0
 61143  1  0  0  0
 61144  1  0  0  0
 62145  1  0  0  0
 62146  1  0  0  0
 62147  1  0  0  0
 63 65  1  0  0  0
 63148  1  0  0  0
 63149  1  0  0  0
 63150  1  0  0  0
 64151  1  0  0  0
 65152  1  0  0  0
 68 88  1  0  0  0
 71 72  2  0  0  0
 71 74  1  0  0  0
 71153  1  0  0  0
 72 73  1  0  0  0
 72 76  1  0  0  0
 73 75  2  0  0  0
 73 81  1  0  0  0
 74 91  2  0  0  0
 74 92  1  0  0  0
 75 91  1  0  0  0
 75 93  1  0  0  0
 76154  1  0  0  0
 76155  1  0  0  0
 76156  1  0  0  0
 77 81  1  0  0  0
 77157  1  0  0  0
 77158  1  0  0  0
 77159  1  0  0  0
 78 86  1  0  0  0
 78160  1  0  0  0
 78161  1  0  0  0
 78162  1  0  0  0
 79163  1  0  0  0
 79164  1  0  0  0
 79165  1  0  0  0
 79 89  1  0  0  0
 80166  1  0  0  0
 80167  1  0  0  0
 80168  1  0  0  0
 80 90  1  0  0  0
 81169  1  0  0  0
 81170  1  0  0  0
 82 83  1  0  0  0
 82 84  1  0  0  0
 82171  1  0  0  0
 82172  1  0  0  0
 83 88  1  0  0  0
 83173  1  0  0  0
 83174  1  0  0  0
 84 90  1  0  0  0
 84175  1  0  0  0
 84176  1  0  0  0
 85 87  1  0  0  0
 85 89  1  0  0  0
 85177  1  0  0  0
 85178  1  0  0  0
 86 93  1  0  0  0
 86179  1  0  0  0
 86180  1  0  0  0
 87 92  1  0  0  0
 87181  1  0  0  0
 87182  1  0  0  0
 88183  1  0  0  0
 88184  1  0  0  0
 89185  1  0  0  0
 90 93  1  0  0  0
 90186  1  0  0  0
 92187  1  0  0  0
M  ISO  4   1 100  68 101  88 101  89 100
M  END
> <chiral flag>
0

> <version>
0

> <s_m_source_file>
/data/baiqing/PycharmProjects/Reinvent-master-3.2/result/LINK_invent/BTK/process_docking_weight1_custom_sum_contain_oxygen_bond_distance_aromatic_linkinvent_7_9_3/rearranged_h_0020.sdf

> <i_m_source_file_index>
5

> <r_mmod_Potential_Energy-OPLS-2005>
-168.5078125

> <r_mmod_Stretch_Energy-OPLS-2005>
37.7212104797363

> <r_mmod_Bend_Energy-OPLS-2005>
129.085693359375

> <r_mmod_Torsional_Energy-OPLS-2005>
275.543884277344

> <r_mmod_Improper_Torsional_Energy-OPLS-2005>
7.59607601165771

> <r_mmod_Van_der_Waal_Energy-OPLS-2005>
146.031097412109

> <r_mmod_Electrostatic_Energy-OPLS-2005>
-551.475158691406

> <r_mmod_Solvation_Energy-OPLS-2005>
-221.960571289062

> <b_mmod_Minimization_Converged-OPLS-2005>
0

> <r_mmod_RMS_Derivative-OPLS-2005>
1.56825244426727

$$$$
5
                    3D
 Structure written by MMmdl.
163171  0  0  1  0            999 V2000
  -30.7687  -14.3786   20.6385 C   0  0  0  0  0  0
  -30.4133  -12.2763   19.4072 C   0  0  0  0  0  0
  -29.4866  -12.5095   18.1996 C   0  0  0  0  0  0
  -28.0115  -12.3694   18.6163 C   0  0  0  0  0  0
  -27.6687  -13.2022   19.8799 C   0  0  2  0  0  0
  -28.7073  -12.9604   21.0001 C   0  0  0  0  0  0
  -25.2629  -13.8163   20.5670 C   0  0  0  0  0  0
  -24.1853  -13.0445   20.9147 C   0  0  0  0  0  0
  -24.6389  -11.6904   20.8705 C   0  0  0  0  0  0
  -23.9039  -10.4293   21.0386 C   0  0  0  0  0  0
  -24.3595   -9.4221   21.9174 C   0  0  0  0  0  0
  -23.6277   -8.2249   22.0750 C   0  0  0  0  0  0
  -22.4264   -8.0275   21.3540 C   0  0  0  0  0  0
  -21.9894   -9.0241   20.4639 C   0  0  0  0  0  0
  -22.7208  -10.2125   20.3039 C   0  0  0  0  0  0
  -21.6854   -6.0728   22.5273 C   0  0  0  0  0  0
  -21.4013   -6.5632   23.8205 C   0  0  0  0  0  0
  -21.3655   -5.6790   24.9172 C   0  0  0  0  0  0
  -21.6048   -4.3051   24.7231 C   0  0  0  0  0  0
  -21.8821   -3.8136   23.4354 C   0  0  0  0  0  0
  -21.9190   -4.6952   22.3404 C   0  0  0  0  0  0
  -22.7882  -13.5255   21.1831 C   0  0  0  0  0  0
  -22.1665   -4.2134   21.0986 F   0  0  0  0  0  0
  -21.5629   -3.4538   25.7749 F   0  0  0  0  0  0
  -30.0506  -13.2383   20.4595 N   0  0  0  0  0  0
  -26.3066  -12.9318   20.3387 N   0  0  0  0  0  0
  -25.9317  -11.6483   20.5749 N   0  0  0  0  0  0
  -22.0518  -12.8224   22.0370 N   0  0  0  0  0  0
  -25.4412  -15.1872   20.4098 N   0  0  0  0  0  0
  -31.8137  -14.6139   20.0229 O   0  0  0  0  0  0
  -21.6639   -6.8870   21.4236 O   0  0  0  0  0  0
  -22.3571  -14.5568   20.6697 O   0  0  0  0  0  0
  -24.6128  -31.8692   23.2119 C   0  0  0  0  0  0
  -25.9042  -32.4828   23.8394 C   0  0  1  0  0  0
  -27.2322  -27.4537   20.1005 C   0  0  0  0  0  0
  -25.5918  -33.8621   24.2325 N   0  0  0  0  0  0
  -23.3986  -30.4916   21.5546 C   0  0  2  0  0  0
  -24.8451  -28.9612   20.1173 C   0  0  0  0  0  0
  -22.7387  -29.4659   22.5034 C   0  0  0  0  0  0
  -18.0261  -28.1392   22.8494 C   0  0  0  0  0  0
  -24.1485  -36.7302   23.2637 C   0  0  0  0  0  0
  -25.9247  -30.8420   21.3614 C   0  0  0  0  0  0
  -26.0037  -29.4779   20.7113 C   0  0  0  0  0  0
  -27.2034  -28.7317   20.6985 C   0  0  0  0  0  0
  -26.0592  -26.9471   19.5001 C   0  0  0  0  0  0
  -24.8659  -27.6939   19.5101 C   0  0  0  0  0  0
  -23.6052  -29.8247   20.1682 C   0  0  0  0  0  0
  -25.4116  -36.3110   24.0327 C   0  0  1  0  0  0
  -20.5845  -28.3661   23.1334 C   0  0  2  0  0  0
  -20.6755  -26.9402   22.5421 C   0  0  0  0  0  0
  -19.5739  -26.6384   21.5214 C   0  0  0  0  0  0
  -18.1901  -26.7930   22.1616 C   0  0  0  0  0  0
  -19.1511  -28.8842   23.2899 C   0  0  0  0  0  0
  -18.9445  -30.1444   23.8917 C   0  0  0  0  0  0
  -17.6457  -30.6598   24.0572 C   0  0  0  0  0  0
  -25.9047  -34.9474   23.5119 C   0  0  0  0  0  0
  -16.5348  -29.9108   23.6337 C   0  0  0  0  0  0
  -16.7256  -28.6524   23.0364 C   0  0  0  0  0  0
  -26.4491  -31.6612   25.0717 C   0  0  0  0  0  0
  -25.3768  -31.3707   26.1470 C   0  0  0  0  0  0
  -27.0310  -30.3051   24.6061 C   0  0  0  0  0  0
  -27.6054  -32.4330   25.7505 C   0  0  0  0  0  0
  -27.5582  -37.1806   24.8465 C   0  0  0  0  0  0
  -21.4123  -29.3021   22.3754 N   0  0  0  0  0  0
  -26.4303  -37.3796   23.9414 N   0  0  0  0  0  0
  -24.6628  -31.0812   22.1015 N   0  0  0  0  0  0
  -23.4162  -28.8191   23.3064 O   0  0  0  0  0  0
  -28.4027  -26.7335   20.0814 O   0  0  0  0  0  0
  -26.5595  -34.8919   22.4667 O   0  0  0  0  0  0
  -23.5330  -32.1439   23.7534 O   0  0  0  0  0  0
  -30.8265  -16.5357   21.7427 C   0  0  0  0  0  0
  -31.5197  -16.9465   22.9025 C   0  0  0  0  0  0
  -30.7816  -17.5842   20.8651 C   0  0  0  0  0  0
  -31.9440  -18.2316   22.7240 C   0  0  0  0  0  0
  -30.1502  -17.6955   19.5092 C   0  0  0  0  0  0
  -32.7437  -19.1276   23.6215 C   0  0  0  0  0  0
  -30.7179  -22.3152   20.6095 C   0  0  0  0  0  0
  -29.5484  -23.2286   21.0136 C   0  0  0  0  0  0
  -30.5954  -20.9282   21.2640 C   0  0  0  0  0  0
  -29.5636  -24.6103   20.3368 C   0  0  0  0  0  0
  -31.7097  -19.9491   20.8665 C   0  0  0  0  0  0
  -28.3270  -25.4491   20.7022 C   0  0  0  0  0  0
  -31.4901  -18.6328   21.4619 N   0  0  0  0  0  0
  -30.2790  -15.2491   21.5292 N   0  0  0  0  0  0
  -31.8141  -15.9665   24.2938 Cl  0  0  0  0  0  0
  -31.4583  -12.3564   19.1026 H   0  0  0  0  0  0
  -30.2984  -11.2583   19.7821 H   0  0  0  0  0  0
  -29.7174  -11.7990   17.4050 H   0  0  0  0  0  0
  -29.6602  -13.5032   17.7831 H   0  0  0  0  0  0
  -27.8209  -11.3128   18.8074 H   0  0  0  0  0  0
  -27.3564  -12.6508   17.7907 H   0  0  0  0  0  0
  -27.7235  -14.2530   19.5949 H   0  0  0  0  0  0
  -28.6659  -11.9226   21.3338 H   0  0  0  0  0  0
  -28.4643  -13.5546   21.8809 H   0  0  0  0  0  0
  -25.2736   -9.5706   22.4744 H   0  0  0  0  0  0
  -23.9988   -7.4655   22.7474 H   0  0  0  0  0  0
  -21.0825   -8.8743   19.8947 H   0  0  0  0  0  0
  -22.3657  -10.9657   19.6139 H   0  0  0  0  0  0
  -21.2000   -7.6135   23.9701 H   0  0  0  0  0  0
  -21.1481   -6.0524   25.9074 H   0  0  0  0  0  0
  -22.0599   -2.7598   23.2861 H   0  0  0  0  0  0
  -22.4125  -11.9860   22.4722 H   0  0  0  0  0  0
  -21.1132  -13.1246   22.2582 H   0  0  0  0  0  0
  -24.6871  -15.8548   20.5253 H   0  0  0  0  0  0
  -26.3095  -15.6163   20.1120 H   0  0  0  0  0  0
  -26.7112  -32.5559   23.1164 H   0  0  0  0  0  0
  -25.0123  -33.9790   25.0504 H   0  0  0  0  0  0
  -22.6871  -31.3080   21.4157 H   0  0  0  0  0  0
  -23.3757  -35.9626   23.3306 H   0  0  0  0  0  0
  -24.3583  -36.8917   22.2053 H   0  0  0  0  0  0
  -23.7207  -37.6488   23.6658 H   0  0  0  0  0  0
  -26.0282  -31.6093   20.5936 H   0  0  0  0  0  0
  -26.8126  -30.8951   21.9801 H   0  0  0  0  0  0
  -28.0991  -29.1260   21.1560 H   0  0  0  0  0  0
  -26.0624  -25.9807   19.0163 H   0  0  0  0  0  0
  -23.9755  -27.2904   19.0479 H   0  0  0  0  0  0
  -23.7065  -30.5992   19.4065 H   0  0  0  0  0  0
  -22.7310  -29.2411   19.8778 H   0  0  0  0  0  0
  -25.1283  -36.1992   25.0813 H   0  0  0  0  0  0
  -20.9908  -28.3231   24.1468 H   0  0  0  0  0  0
  -20.5677  -26.2270   23.3607 H   0  0  0  0  0  0
  -21.6630  -26.7468   22.1207 H   0  0  0  0  0  0
  -19.6912  -25.6298   21.1241 H   0  0  0  0  0  0
  -19.6699  -27.3207   20.6755 H   0  0  0  0  0  0
  -17.4180  -26.6699   21.4002 H   0  0  0  0  0  0
  -18.0286  -26.0061   22.8986 H   0  0  0  0  0  0
  -19.7937  -30.7232   24.2314 H   0  0  0  0  0  0
  -17.5035  -31.6296   24.5147 H   0  0  0  0  0  0
  -15.5353  -30.3032   23.7667 H   0  0  0  0  0  0
  -15.8641  -28.0858   22.7095 H   0  0  0  0  0  0
  -24.5950  -30.7038   25.7810 H   0  0  0  0  0  0
  -24.8959  -32.2868   26.4910 H   0  0  0  0  0  0
  -25.8128  -30.8888   27.0231 H   0  0  0  0  0  0
  -26.2824  -29.6833   24.1136 H   0  0  0  0  0  0
  -27.4110  -29.7274   25.4497 H   0  0  0  0  0  0
  -27.8657  -30.4363   23.9165 H   0  0  0  0  0  0
  -27.2643  -33.3621   26.2088 H   0  0  0  0  0  0
  -28.3887  -32.6907   25.0362 H   0  0  0  0  0  0
  -28.0696  -31.8453   26.5435 H   0  0  0  0  0  0
  -28.2591  -38.0111   24.7529 H   0  0  0  0  0  0
  -28.1072  -36.2635   24.6275 H   0  0  0  0  0  0
  -27.2291  -37.1448   25.8863 H   0  0  0  0  0  0
  -20.9289  -29.8768   21.6995 H   0  0  0  0  0  0
  -26.0188  -38.2871   24.1435 H   0  0  0  0  0  0
  -29.4998  -16.8441   19.3093 H   0  0  0  0  0  0
  -30.9059  -17.7244   18.7236 H   0  0  0  0  0  0
  -29.5388  -18.5939   19.4282 H   0  0  0  0  0  0
  -32.9662  -18.6387   24.5711 H   0  0  0  0  0  0
  -32.2058  -20.0482   23.8460 H   0  0  0  0  0  0
  -33.6960  -19.3932   23.1632 H   0  0  0  0  0  0
  -31.6652  -22.7771   20.8918 H   0  0  0  0  0  0
  -30.7399  -22.2027   19.5245 H   0  0  0  0  0  0
  -29.5516  -23.3578   22.0974 H   0  0  0  0  0  0
  -28.6092  -22.7276   20.7738 H   0  0  0  0  0  0
  -29.6341  -20.4898   20.9948 H   0  0  0  0  0  0
  -30.5886  -21.0409   22.3477 H   0  0  0  0  0  0
  -29.5957  -24.4838   19.2544 H   0  0  0  0  0  0
  -30.4700  -25.1493   20.6149 H   0  0  0  0  0  0
  -32.6846  -20.3294   21.1741 H   0  0  0  0  0  0
  -31.7596  -19.8466   19.7820 H   0  0  0  0  0  0
  -28.2747  -25.5856   21.7841 H   0  0  0  0  0  0
  -27.4318  -24.8962   20.4138 H   0  0  0  0  0  0
  -29.5038  -14.9584   22.1049 H   0  0  0  0  0  0
  1 25  1  0  0  0
  1 30  2  0  0  0
  1 84  1  0  0  0
  2  3  1  0  0  0
  2 25  1  0  0  0
  2 86  1  0  0  0
  2 87  1  0  0  0
  3  4  1  0  0  0
  3 88  1  0  0  0
  3 89  1  0  0  0
  4  5  1  0  0  0
  4 90  1  0  0  0
  4 91  1  0  0  0
  5  6  1  0  0  0
  5 26  1  0  0  0
  5 92  1  0  0  0
  6 25  1  0  0  0
  6 93  1  0  0  0
  6 94  1  0  0  0
  7  8  2  0  0  0
  7 26  1  0  0  0
  7 29  1  0  0  0
  8  9  1  0  0  0
  8 22  1  0  0  0
  9 10  1  0  0  0
  9 27  2  0  0  0
 10 11  2  0  0  0
 10 15  1  0  0  0
 11 12  1  0  0  0
 11 95  1  0  0  0
 12 13  2  0  0  0
 12 96  1  0  0  0
 13 14  1  0  0  0
 13 31  1  0  0  0
 14 15  2  0  0  0
 14 97  1  0  0  0
 15 98  1  0  0  0
 16 17  2  0  0  0
 16 21  1  0  0  0
 16 31  1  0  0  0
 17 18  1  0  0  0
 17 99  1  0  0  0
 18 19  2  0  0  0
 18100  1  0  0  0
 19 20  1  0  0  0
 19 24  1  0  0  0
 20 21  2  0  0  0
 20101  1  0  0  0
 21 23  1  0  0  0
 22 28  1  0  0  0
 22 32  2  0  0  0
 26 27  1  0  0  0
 28102  1  0  0  0
 28103  1  0  0  0
 29104  1  0  0  0
 29105  1  0  0  0
 33 34  1  0  0  0
 33 66  1  0  0  0
 33 70  2  0  0  0
 34 36  1  0  0  0
 34 59  1  0  0  0
 34106  1  0  0  0
 35 44  2  0  0  0
 35 45  1  0  0  0
 35 68  1  0  0  0
 36 56  1  0  0  0
 36107  1  0  0  0
 37 39  1  0  0  0
 37 47  1  0  0  0
 37 66  1  0  0  0
 37108  1  0  0  0
 38 43  2  0  0  0
 38 46  1  0  0  0
 38 47  1  0  0  0
 39 64  1  0  0  0
 39 67  2  0  0  0
 40 52  1  0  0  0
 40 53  2  0  0  0
 40 58  1  0  0  0
 41109  1  0  0  0
 41110  1  0  0  0
 41111  1  0  0  0
 41 48  1  0  0  0
 42 43  1  0  0  0
 42 66  1  0  0  0
 42112  1  0  0  0
 42113  1  0  0  0
 43 44  1  0  0  0
 44114  1  0  0  0
 45 46  2  0  0  0
 45115  1  0  0  0
 46116  1  0  0  0
 47117  1  0  0  0
 47118  1  0  0  0
 48 56  1  0  0  0
 48 65  1  0  0  0
 48119  1  0  0  0
 49 50  1  0  0  0
 49 53  1  0  0  0
 49 64  1  0  0  0
 49120  1  0  0  0
 50 51  1  0  0  0
 50121  1  0  0  0
 50122  1  0  0  0
 51 52  1  0  0  0
 51123  1  0  0  0
 51124  1  0  0  0
 52125  1  0  0  0
 52126  1  0  0  0
 53 54  1  0  0  0
 54 55  2  0  0  0
 54127  1  0  0  0
 55 57  1  0  0  0
 55128  1  0  0  0
 56 69  2  0  0  0
 57 58  2  0  0  0
 57129  1  0  0  0
 58130  1  0  0  0
 59 60  1  0  0  0
 59 61  1  0  0  0
 59 62  1  0  0  0
 60131  1  0  0  0
 60132  1  0  0  0
 60133  1  0  0  0
 61134  1  0  0  0
 61135  1  0  0  0
 61136  1  0  0  0
 62137  1  0  0  0
 62138  1  0  0  0
 62139  1  0  0  0
 63 65  1  0  0  0
 63140  1  0  0  0
 63141  1  0  0  0
 63142  1  0  0  0
 64143  1  0  0  0
 65144  1  0  0  0
 68 82  1  0  0  0
 71 72  1  0  0  0
 71 73  2  0  0  0
 71 84  1  0  0  0
 72 74  2  0  0  0
 72 85  1  0  0  0
 73 75  1  0  0  0
 73 83  1  0  0  0
 74 76  1  0  0  0
 74 83  1  0  0  0
 75145  1  0  0  0
 75146  1  0  0  0
 75147  1  0  0  0
 76148  1  0  0  0
 76149  1  0  0  0
 76150  1  0  0  0
 77 78  1  0  0  0
 77 79  1  0  0  0
 77151  1  0  0  0
 77152  1  0  0  0
 78 80  1  0  0  0
 78153  1  0  0  0
 78154  1  0  0  0
 79 81  1  0  0  0
 79155  1  0  0  0
 79156  1  0  0  0
 80 82  1  0  0  0
 80157  1  0  0  0
 80158  1  0  0  0
 81 83  1  0  0  0
 81159  1  0  0  0
 81160  1  0  0  0
 82161  1  0  0  0
 82162  1  0  0  0
 84163  1  0  0  0
M  ISO  4   1 100  68 101  82 101  84 100
M  END
> <chiral flag>
0

> <version>
0

> <s_m_source_file>
/data/baiqing/PycharmProjects/Reinvent-master-3.2/result/LINK_invent/BTK/process_docking_weight1_custom_sum_contain_oxygen_bond_distance_aromatic_linkinvent_7_9_3/rearranged_h_0020.sdf

> <i_m_source_file_index>
6

> <r_mmod_Potential_Energy-OPLS-2005>
-75.3432083129883

> <r_mmod_Stretch_Energy-OPLS-2005>
32.0380668640137

> <r_mmod_Bend_Energy-OPLS-2005>
98.3055725097656

> <r_mmod_Torsional_Energy-OPLS-2005>
254.540161132812

> <r_mmod_Improper_Torsional_Energy-OPLS-2005>
1.7805722951889

> <r_mmod_Van_der_Waal_Energy-OPLS-2005>
124.671913146973

> <r_mmod_Electrostatic_Energy-OPLS-2005>
-392.757934570312

> <r_mmod_Solvation_Energy-OPLS-2005>
-201.59375

> <b_mmod_Minimization_Converged-OPLS-2005>
0

> <r_mmod_RMS_Derivative-OPLS-2005>
2.22331047058105

$$$$
6
                    3D
 Structure written by MMmdl.
168176  0  0  1  0            999 V2000
  -30.5509  -14.8484   20.4559 C   0  0  0  0  0  0
  -30.4582  -12.5327   19.4570 C   0  0  0  0  0  0
  -29.5249  -12.5537   18.2247 C   0  0  0  0  0  0
  -28.0486  -12.3544   18.6287 C   0  0  0  0  0  0
  -27.6486  -13.2295   19.8475 C   0  0  2  0  0  0
  -28.7047  -13.1304   20.9678 C   0  0  0  0  0  0
  -25.2503  -13.8130   20.5560 C   0  0  0  0  0  0
  -24.1814  -13.0409   20.9153 C   0  0  0  0  0  0
  -24.6412  -11.6892   20.8760 C   0  0  0  0  0  0
  -23.9069  -10.4262   21.0422 C   0  0  0  0  0  0
  -24.3604   -9.4179   21.9214 C   0  0  0  0  0  0
  -23.6267   -8.2216   22.0791 C   0  0  0  0  0  0
  -22.4266   -8.0247   21.3556 C   0  0  0  0  0  0
  -21.9910   -9.0225   20.4659 C   0  0  0  0  0  0
  -22.7250  -10.2096   20.3072 C   0  0  0  0  0  0
  -21.6842   -6.0718   22.5281 C   0  0  0  0  0  0
  -21.4020   -6.5626   23.8224 C   0  0  0  0  0  0
  -21.3693   -5.6785   24.9198 C   0  0  0  0  0  0
  -21.6038   -4.3047   24.7255 C   0  0  0  0  0  0
  -21.8791   -3.8129   23.4376 C   0  0  0  0  0  0
  -21.9170   -4.6942   22.3419 C   0  0  0  0  0  0
  -22.7832  -13.5203   21.1745 C   0  0  0  0  0  0
  -22.1622   -4.2120   21.1002 F   0  0  0  0  0  0
  -21.5662   -3.4531   25.7768 F   0  0  0  0  0  0
  -29.9844  -13.5797   20.3980 N   0  0  0  0  0  0
  -26.2979  -12.9354   20.3226 N   0  0  0  0  0  0
  -25.9349  -11.6509   20.5745 N   0  0  0  0  0  0
  -22.0419  -12.8282   22.0314 N   0  0  0  0  0  0
  -25.4061  -15.1842   20.3821 N   0  0  0  0  0  0
  -31.7456  -14.9605   20.1603 O   0  0  0  0  0  0
  -21.6616   -6.8857   21.4246 O   0  0  0  0  0  0
  -22.3529  -14.5461   20.6498 O   0  0  0  0  0  0
  -24.6383  -31.8507   23.1915 C   0  0  0  0  0  0
  -25.9210  -32.4700   23.8257 C   0  0  1  0  0  0
  -27.2368  -27.2085   20.1201 C   0  0  0  0  0  0
  -25.6008  -33.8504   24.2230 N   0  0  0  0  0  0
  -23.4362  -30.4744   21.5349 C   0  0  2  0  0  0
  -24.8879  -28.9116   20.1039 C   0  0  0  0  0  0
  -22.7497  -29.4633   22.4871 C   0  0  0  0  0  0
  -18.0313  -28.1399   22.8483 C   0  0  0  0  0  0
  -24.1507  -36.7252   23.2633 C   0  0  0  0  0  0
  -25.9857  -30.7474   21.3780 C   0  0  0  0  0  0
  -26.0612  -29.3620   20.7223 C   0  0  0  0  0  0
  -27.2318  -28.5227   20.7244 C   0  0  0  0  0  0
  -26.0385  -26.8526   19.4590 C   0  0  0  0  0  0
  -24.8880  -27.6667   19.4598 C   0  0  0  0  0  0
  -23.6556  -29.7997   20.1538 C   0  0  0  0  0  0
  -25.4128  -36.3030   24.0331 C   0  0  1  0  0  0
  -20.5919  -28.3738   23.1256 C   0  0  2  0  0  0
  -20.6820  -26.9462   22.5412 C   0  0  0  0  0  0
  -19.5786  -26.6388   21.5237 C   0  0  0  0  0  0
  -18.1955  -26.7946   22.1619 C   0  0  0  0  0  0
  -19.1557  -28.8888   23.2859 C   0  0  0  0  0  0
  -18.9465  -30.1483   23.8888 C   0  0  0  0  0  0
  -17.6456  -30.6601   24.0559 C   0  0  0  0  0  0
  -25.9086  -34.9406   23.5074 C   0  0  0  0  0  0
  -16.5360  -29.9089   23.6338 C   0  0  0  0  0  0
  -16.7291  -28.6511   23.0363 C   0  0  0  0  0  0
  -26.4550  -31.6507   25.0652 C   0  0  0  0  0  0
  -25.3722  -31.3710   26.1336 C   0  0  0  0  0  0
  -27.0429  -30.2910   24.6198 C   0  0  0  0  0  0
  -27.6099  -32.4226   25.7449 C   0  0  0  0  0  0
  -27.5584  -37.1775   24.8457 C   0  0  0  0  0  0
  -21.4200  -29.3074   22.3597 N   0  0  0  0  0  0
  -26.4287  -37.3742   23.9415 N   0  0  0  0  0  0
  -24.7063  -31.0429   22.0913 N   0  0  0  0  0  0
  -23.4181  -28.8187   23.3008 O   0  0  0  0  0  0
  -28.3199  -26.2700   20.1762 O   0  0  0  0  0  0
  -26.5615  -34.8907   22.4617 O   0  0  0  0  0  0
  -23.5532  -32.1378   23.7192 O   0  0  0  0  0  0
  -28.6261  -19.6882   21.3184 C   0  0  0  0  0  0
  -29.1976  -20.4923   20.2969 C   0  0  0  0  0  0
  -28.7826  -18.2597   21.4885 C   0  0  0  0  0  0
  -30.1224  -19.7426   19.4906 C   0  0  0  0  0  0
  -30.3817  -18.3094   19.6722 C   0  0  0  0  0  0
  -29.6813  -17.4786   20.6400 C   0  0  0  0  0  0
  -30.7994  -20.4927   18.3475 C   0  0  0  0  0  0
  -31.4087  -17.6286   18.7652 C   0  0  0  0  0  0
  -26.3626  -18.0014   22.1664 C   0  0  0  0  0  0
  -28.0769  -18.3272   23.9591 C   0  0  0  0  0  0
  -27.8739  -16.1629   22.8275 C   0  0  0  0  0  0
  -28.5398  -21.9556   19.9621 C   0  0  0  0  0  0
  -29.0778  -23.4969   20.2325 C   0  0  0  0  0  0
  -28.0924  -24.7839   19.8721 C   0  0  0  0  0  0
  -27.8175  -17.6797   22.5780 C   0  0  0  0  0  0
  -29.7041  -15.9494   20.6896 N   0  0  0  0  0  0
  -31.4864  -12.7112   19.1410 H   0  0  0  0  0  0
  -30.4626  -11.5521   19.9352 H   0  0  0  0  0  0
  -29.8327  -11.7901   17.5096 H   0  0  0  0  0  0
  -29.6258  -13.5129   17.7121 H   0  0  0  0  0  0
  -27.9077  -11.3005   18.8673 H   0  0  0  0  0  0
  -27.4041  -12.5633   17.7747 H   0  0  0  0  0  0
  -27.6420  -14.2595   19.4918 H   0  0  0  0  0  0
  -28.7772  -12.0977   21.3152 H   0  0  0  0  0  0
  -28.4330  -13.7072   21.8452 H   0  0  0  0  0  0
  -25.2727   -9.5666   22.4839 H   0  0  0  0  0  0
  -23.9959   -7.4619   22.7535 H   0  0  0  0  0  0
  -21.0845   -8.8718   19.8979 H   0  0  0  0  0  0
  -22.3673  -10.9637   19.6190 H   0  0  0  0  0  0
  -21.1989   -7.6123   23.9738 H   0  0  0  0  0  0
  -21.1582   -6.0519   25.9106 H   0  0  0  0  0  0
  -22.0540   -2.7581   23.2894 H   0  0  0  0  0  0
  -22.3952  -12.0025   22.4902 H   0  0  0  0  0  0
  -21.1038  -13.1421   22.2328 H   0  0  0  0  0  0
  -24.6458  -15.8398   20.5366 H   0  0  0  0  0  0
  -26.2381  -15.6314   20.0262 H   0  0  0  0  0  0
  -26.7270  -32.5361   23.0988 H   0  0  0  0  0  0
  -25.0199  -33.9623   25.0407 H   0  0  0  0  0  0
  -22.7380  -31.3005   21.3828 H   0  0  0  0  0  0
  -23.3789  -35.9559   23.3249 H   0  0  0  0  0  0
  -24.3619  -36.8917   22.2057 H   0  0  0  0  0  0
  -23.7254  -37.6438   23.6682 H   0  0  0  0  0  0
  -26.1212  -31.5049   20.6043 H   0  0  0  0  0  0
  -26.8648  -30.8076   22.0073 H   0  0  0  0  0  0
  -28.1205  -28.8640   21.2381 H   0  0  0  0  0  0
  -25.9627  -25.9115   18.9376 H   0  0  0  0  0  0
  -23.9961  -27.3225   18.9523 H   0  0  0  0  0  0
  -23.7628  -30.5724   19.3916 H   0  0  0  0  0  0
  -22.7756  -29.2241   19.8566 H   0  0  0  0  0  0
  -25.1313  -36.1840   25.0822 H   0  0  0  0  0  0
  -21.0035  -28.3370   24.1364 H   0  0  0  0  0  0
  -20.5794  -26.2356   23.3627 H   0  0  0  0  0  0
  -21.6672  -26.7521   22.1151 H   0  0  0  0  0  0
  -19.6955  -25.6290   21.1284 H   0  0  0  0  0  0
  -19.6742  -27.3181   20.6757 H   0  0  0  0  0  0
  -17.4252  -26.6738   21.3993 H   0  0  0  0  0  0
  -18.0314  -26.0082   22.8993 H   0  0  0  0  0  0
  -19.7943  -30.7301   24.2250 H   0  0  0  0  0  0
  -17.5024  -31.6292   24.5126 H   0  0  0  0  0  0
  -15.5363  -30.2978   23.7694 H   0  0  0  0  0  0
  -15.8689  -28.0825   22.7088 H   0  0  0  0  0  0
  -24.5900  -30.7078   25.7639 H   0  0  0  0  0  0
  -24.8910  -32.2904   26.4665 H   0  0  0  0  0  0
  -25.7968  -30.8912   27.0155 H   0  0  0  0  0  0
  -26.3052  -29.6588   24.1248 H   0  0  0  0  0  0
  -27.4133  -29.7246   25.4755 H   0  0  0  0  0  0
  -27.8901  -30.4182   23.9457 H   0  0  0  0  0  0
  -27.2712  -33.3527   26.2020 H   0  0  0  0  0  0
  -28.3918  -32.6753   25.0271 H   0  0  0  0  0  0
  -28.0734  -31.8310   26.5359 H   0  0  0  0  0  0
  -28.2556  -38.0108   24.7522 H   0  0  0  0  0  0
  -28.1111  -36.2637   24.6232 H   0  0  0  0  0  0
  -27.2296  -37.1353   25.8852 H   0  0  0  0  0  0
  -20.9402  -29.8734   21.6733 H   0  0  0  0  0  0
  -26.0151  -38.2805   24.1420 H   0  0  0  0  0  0
  -27.9211  -20.2045   21.9535 H   0  0  0  0  0  0
  -30.5666  -21.5554   18.3460 H   0  0  0  0  0  0
  -30.4796  -20.0903   17.3860 H   0  0  0  0  0  0
  -31.8848  -20.4131   18.4089 H   0  0  0  0  0  0
  -31.7310  -18.2131   17.9041 H   0  0  0  0  0  0
  -31.0134  -16.7040   18.3491 H   0  0  0  0  0  0
  -32.3050  -17.3968   19.3448 H   0  0  0  0  0  0
  -26.1183  -19.0576   22.2800 H   0  0  0  0  0  0
  -25.6387  -17.4517   22.7672 H   0  0  0  0  0  0
  -26.1780  -17.7452   21.1230 H   0  0  0  0  0  0
  -27.9086  -19.4025   23.9655 H   0  0  0  0  0  0
  -29.0948  -18.1503   24.3069 H   0  0  0  0  0  0
  -27.3958  -17.9244   24.7111 H   0  0  0  0  0  0
  -27.5364  -15.6245   21.9495 H   0  0  0  0  0  0
  -27.1981  -15.8579   23.6266 H   0  0  0  0  0  0
  -28.8679  -15.8243   23.1215 H   0  0  0  0  0  0
  -27.5754  -21.9300   20.4705 H   0  0  0  0  0  0
  -28.2627  -21.9064   18.9087 H   0  0  0  0  0  0
  -30.0027  -23.6325   19.6713 H   0  0  0  0  0  0
  -29.3598  -23.5767   21.2810 H   0  0  0  0  0  0
  -27.1291  -24.5299   20.3121 H   0  0  0  0  0  0
  -27.9345  -24.7383   18.7930 H   0  0  0  0  0  0
  -28.8167  -15.5930   21.0116 H   0  0  0  0  0  0
  1 25  1  0  0  0
  1 30  2  0  0  0
  1 86  1  0  0  0
  2  3  1  0  0  0
  2 25  1  0  0  0
  2 87  1  0  0  0
  2 88  1  0  0  0
  3  4  1  0  0  0
  3 89  1  0  0  0
  3 90  1  0  0  0
  4  5  1  0  0  0
  4 91  1  0  0  0
  4 92  1  0  0  0
  5  6  1  0  0  0
  5 26  1  0  0  0
  5 93  1  0  0  0
  6 25  1  0  0  0
  6 94  1  0  0  0
  6 95  1  0  0  0
  7  8  2  0  0  0
  7 26  1  0  0  0
  7 29  1  0  0  0
  8  9  1  0  0  0
  8 22  1  0  0  0
  9 10  1  0  0  0
  9 27  2  0  0  0
 10 11  2  0  0  0
 10 15  1  0  0  0
 11 12  1  0  0  0
 11 96  1  0  0  0
 12 13  2  0  0  0
 12 97  1  0  0  0
 13 14  1  0  0  0
 13 31  1  0  0  0
 14 15  2  0  0  0
 14 98  1  0  0  0
 15 99  1  0  0  0
 16 17  2  0  0  0
 16 21  1  0  0  0
 16 31  1  0  0  0
 17 18  1  0  0  0
 17100  1  0  0  0
 18 19  2  0  0  0
 18101  1  0  0  0
 19 20  1  0  0  0
 19 24  1  0  0  0
 20 21  2  0  0  0
 20102  1  0  0  0
 21 23  1  0  0  0
 22 28  1  0  0  0
 22 32  2  0  0  0
 26 27  1  0  0  0
 28103  1  0  0  0
 28104  1  0  0  0
 29105  1  0  0  0
 29106  1  0  0  0
 33 34  1  0  0  0
 33 66  1  0  0  0
 33 70  2  0  0  0
 34 36  1  0  0  0
 34 59  1  0  0  0
 34107  1  0  0  0
 35 44  2  0  0  0
 35 45  1  0  0  0
 35 68  1  0  0  0
 36 56  1  0  0  0
 36108  1  0  0  0
 37 39  1  0  0  0
 37 47  1  0  0  0
 37 66  1  0  0  0
 37109  1  0  0  0
 38 43  2  0  0  0
 38 46  1  0  0  0
 38 47  1  0  0  0
 39 64  1  0  0  0
 39 67  2  0  0  0
 40 52  1  0  0  0
 40 53  2  0  0  0
 40 58  1  0  0  0
 41110  1  0  0  0
 41111  1  0  0  0
 41112  1  0  0  0
 41 48  1  0  0  0
 42 43  1  0  0  0
 42 66  1  0  0  0
 42113  1  0  0  0
 42114  1  0  0  0
 43 44  1  0  0  0
 44115  1  0  0  0
 45 46  2  0  0  0
 45116  1  0  0  0
 46117  1  0  0  0
 47118  1  0  0  0
 47119  1  0  0  0
 48 56  1  0  0  0
 48 65  1  0  0  0
 48120  1  0  0  0
 49 50  1  0  0  0
 49 53  1  0  0  0
 49 64  1  0  0  0
 49121  1  0  0  0
 50 51  1  0  0  0
 50122  1  0  0  0
 50123  1  0  0  0
 51 52  1  0  0  0
 51124  1  0  0  0
 51125  1  0  0  0
 52126  1  0  0  0
 52127  1  0  0  0
 53 54  1  0  0  0
 54 55  2  0  0  0
 54128  1  0  0  0
 55 57  1  0  0  0
 55129  1  0  0  0
 56 69  2  0  0  0
 57 58  2  0  0  0
 57130  1  0  0  0
 58131  1  0  0  0
 59 60  1  0  0  0
 59 61  1  0  0  0
 59 62  1  0  0  0
 60132  1  0  0  0
 60133  1  0  0  0
 60134  1  0  0  0
 61135  1  0  0  0
 61136  1  0  0  0
 61137  1  0  0  0
 62138  1  0  0  0
 62139  1  0  0  0
 62140  1  0  0  0
 63 65  1  0  0  0
 63141  1  0  0  0
 63142  1  0  0  0
 63143  1  0  0  0
 64144  1  0  0  0
 65145  1  0  0  0
 68 84  1  0  0  0
 71 72  2  0  0  0
 71 73  1  0  0  0
 71146  1  0  0  0
 72 74  1  0  0  0
 72 82  1  0  0  0
 73 76  2  0  0  0
 73 85  1  0  0  0
 74 75  2  0  0  0
 74 77  1  0  0  0
 75 76  1  0  0  0
 75 78  1  0  0  0
 76 86  1  0  0  0
 77147  1  0  0  0
 77148  1  0  0  0
 77149  1  0  0  0
 78150  1  0  0  0
 78151  1  0  0  0
 78152  1  0  0  0
 79153  1  0  0  0
 79154  1  0  0  0
 79155  1  0  0  0
 79 85  1  0  0  0
 80 85  1  0  0  0
 80156  1  0  0  0
 80157  1  0  0  0
 80158  1  0  0  0
 81 85  1  0  0  0
 81159  1  0  0  0
 81160  1  0  0  0
 81161  1  0  0  0
 82 83  1  0  0  0
 82162  1  0  0  0
 82163  1  0  0  0
 83 84  1  0  0  0
 83164  1  0  0  0
 83165  1  0  0  0
 84166  1  0  0  0
 84167  1  0  0  0
 86168  1  0  0  0
M  ISO  4   1 100  68 101  84 101  86 100
M  END
> <chiral flag>
0

> <version>
0

> <s_m_source_file>
/data/baiqing/PycharmProjects/Reinvent-master-3.2/result/LINK_invent/BTK/process_docking_weight1_custom_sum_contain_oxygen_bond_distance_aromatic_linkinvent_7_9_3/rearranged_h_0020.sdf

> <i_m_source_file_index>
7

> <r_mmod_Potential_Energy-OPLS-2005>
396.418609619141

> <r_mmod_Stretch_Energy-OPLS-2005>
206.126586914062

> <r_mmod_Bend_Energy-OPLS-2005>
275.828826904297

> <r_mmod_Torsional_Energy-OPLS-2005>
235.138961791992

> <r_mmod_Improper_Torsional_Energy-OPLS-2005>
7.03074836730957

> <r_mmod_Van_der_Waal_Energy-OPLS-2005>
160.703247070312

> <r_mmod_Electrostatic_Energy-OPLS-2005>
-422.713745117188

> <r_mmod_Solvation_Energy-OPLS-2005>
-191.007308959961

> <b_mmod_Minimization_Converged-OPLS-2005>
0

> <r_mmod_RMS_Derivative-OPLS-2005>
4.70595550537109

$$$$
7
                    3D
 Structure written by MMmdl.
156164  0  0  1  0            999 V2000
  -30.2753  -15.8554   20.3247 C   0  0  0  0  0  0
  -30.3953  -13.2626   19.5266 C   0  0  0  0  0  0
  -29.5487  -12.7183   18.3364 C   0  0  0  0  0  0
  -28.1512  -12.2984   18.8054 C   0  0  0  0  0  0
  -27.5852  -13.3284   19.8053 C   0  0  2  0  0  0
  -28.5872  -13.7821   20.9015 C   0  0  0  0  0  0
  -25.2293  -13.8312   20.5842 C   0  0  0  0  0  0
  -24.1691  -13.0438   20.9291 C   0  0  0  0  0  0
  -24.6411  -11.6950   20.8752 C   0  0  0  0  0  0
  -23.9117  -10.4294   21.0381 C   0  0  0  0  0  0
  -24.3648   -9.4206   21.9165 C   0  0  0  0  0  0
  -23.6303   -8.2248   22.0747 C   0  0  0  0  0  0
  -22.4285   -8.0291   21.3544 C   0  0  0  0  0  0
  -21.9932   -9.0263   20.4635 C   0  0  0  0  0  0
  -22.7278  -10.2132   20.3034 C   0  0  0  0  0  0
  -21.6861   -6.0732   22.5279 C   0  0  0  0  0  0
  -21.4011   -6.5631   23.8212 C   0  0  0  0  0  0
  -21.3660   -5.6783   24.9172 C   0  0  0  0  0  0
  -21.6045   -4.3045   24.7222 C   0  0  0  0  0  0
  -21.8819   -3.8141   23.4342 C   0  0  0  0  0  0
  -21.9192   -4.6960   22.3399 C   0  0  0  0  0  0
  -22.7701  -13.5170   21.1891 C   0  0  0  0  0  0
  -22.1669   -4.2146   21.0977 F   0  0  0  0  0  0
  -21.5629   -3.4531   25.7735 F   0  0  0  0  0  0
  -29.7142  -14.4777   20.2129 N   0  0  0  0  0  0
  -26.2755  -12.9672   20.3280 N   0  0  0  0  0  0
  -25.9369  -11.6723   20.5676 N   0  0  0  0  0  0
  -22.0362  -12.8170   22.0442 N   0  0  0  0  0  0
  -25.3870  -15.2051   20.4295 N   0  0  0  0  0  0
  -31.5103  -15.6694   20.2275 O   0  0  0  0  0  0
  -21.6644   -6.8889   21.4249 O   0  0  0  0  0  0
  -22.3392  -14.5466   20.6706 O   0  0  0  0  0  0
  -24.7022  -31.7808   23.1392 C   0  0  0  0  0  0
  -25.9531  -32.4376   23.7989 C   0  0  1  0  0  0
  -27.2352  -26.5378   20.2294 C   0  0  0  0  0  0
  -25.6048  -33.8206   24.1875 N   0  0  0  0  0  0
  -23.5355  -30.3771   21.4940 C   0  0  2  0  0  0
  -24.9940  -28.6799   20.1223 C   0  0  0  0  0  0
  -22.7852  -29.4232   22.4649 C   0  0  0  0  0  0
  -18.0348  -28.1441   22.8445 C   0  0  0  0  0  0
  -24.1468  -36.7083   23.2655 C   0  0  0  0  0  0
  -26.1218  -30.4602   21.4260 C   0  0  0  0  0  0
  -26.1854  -29.0046   20.7810 C   0  0  0  0  0  0
  -27.2811  -27.9656   20.8004 C   0  0  0  0  0  0
  -26.0115  -26.4649   19.5063 C   0  0  0  0  0  0
  -24.9559  -27.4381   19.4610 C   0  0  0  0  0  0
  -23.7997  -29.6587   20.1359 C   0  0  0  0  0  0
  -25.4128  -36.2835   24.0277 C   0  0  1  0  0  0
  -20.5996  -28.3814   23.1094 C   0  0  2  0  0  0
  -20.6802  -26.9456   22.5394 C   0  0  0  0  0  0
  -19.5772  -26.6375   21.5212 C   0  0  0  0  0  0
  -18.1958  -26.7967   22.1610 C   0  0  0  0  0  0
  -19.1621  -28.8956   23.2745 C   0  0  0  0  0  0
  -18.9526  -30.1532   23.8807 C   0  0  0  0  0  0
  -17.6514  -30.6620   24.0550 C   0  0  0  0  0  0
  -25.9134  -34.9237   23.4915 C   0  0  0  0  0  0
  -16.5402  -29.9094   23.6366 C   0  0  0  0  0  0
  -16.7330  -28.6516   23.0391 C   0  0  0  0  0  0
  -26.4655  -31.6482   25.0684 C   0  0  0  0  0  0
  -25.3698  -31.3852   26.1294 C   0  0  0  0  0  0
  -27.0625  -30.2812   24.6691 C   0  0  0  0  0  0
  -27.6071  -32.4375   25.7520 C   0  0  0  0  0  0
  -27.5530  -37.1700   24.8478 C   0  0  0  0  0  0
  -21.4486  -29.3026   22.3402 N   0  0  0  0  0  0
  -26.4230  -37.3625   23.9430 N   0  0  0  0  0  0
  -24.8116  -30.9109   22.0709 N   0  0  0  0  0  0
  -23.4214  -28.7860   23.3075 O   0  0  0  0  0  0
  -28.1782  -25.2464   20.3247 O   0  0  0  0  0  0
  -26.5761  -34.8858   22.4526 O   0  0  0  0  0  0
  -23.6010  -32.0927   23.6271 O   0  0  0  0  0  0
  -29.9648  -20.4769   19.8128 C   0  0  0  0  0  0
  -27.9673  -19.9942   20.3374 C   0  0  0  0  0  0
  -30.4794  -18.8043   20.2226 C   0  0  0  0  0  0
  -28.4107  -18.2716   20.6616 C   0  0  0  0  0  0
  -28.7796  -21.5315   20.5149 C   0  0  0  0  0  0
  -30.2878  -22.6352   22.2887 C   0  0  0  0  0  0
  -27.9504  -21.9464   22.9239 C   0  0  0  0  0  0
  -28.0866  -23.4202   20.0730 C   0  0  0  0  0  0
  -29.1525  -21.6342   22.0181 C   0  0  0  0  0  0
  -29.7042  -17.3799   20.2823 N   0  0  0  0  0  0
  -31.3678  -13.5477   19.1243 H   0  0  0  0  0  0
  -30.6169  -12.4708   20.2448 H   0  0  0  0  0  0
  -30.0555  -11.8856   17.8461 H   0  0  0  0  0  0
  -29.4528  -13.5037   17.5854 H   0  0  0  0  0  0
  -28.2367  -11.3290   19.2964 H   0  0  0  0  0  0
  -27.4814  -12.1577   17.9562 H   0  0  0  0  0  0
  -27.4103  -14.2082   19.1848 H   0  0  0  0  0  0
  -28.9091  -12.9516   21.5320 H   0  0  0  0  0  0
  -28.1036  -14.4993   21.5667 H   0  0  0  0  0  0
  -25.2793   -9.5679   22.4734 H   0  0  0  0  0  0
  -24.0004   -7.4648   22.7477 H   0  0  0  0  0  0
  -21.0854   -8.8781   19.8946 H   0  0  0  0  0  0
  -22.3737  -10.9659   19.6127 H   0  0  0  0  0  0
  -21.2006   -7.6139   23.9716 H   0  0  0  0  0  0
  -21.1479   -6.0509   25.9075 H   0  0  0  0  0  0
  -22.0594   -2.7603   23.2840 H   0  0  0  0  0  0
  -22.4017  -11.9889   22.4891 H   0  0  0  0  0  0
  -21.0953  -13.1164   22.2575 H   0  0  0  0  0  0
  -24.6132  -15.8519   20.5380 H   0  0  0  0  0  0
  -26.2374  -15.6516   20.1121 H   0  0  0  0  0  0
  -26.7632  -32.4814   23.0711 H   0  0  0  0  0  0
  -25.0207  -33.9191   25.0044 H   0  0  0  0  0  0
  -22.8719  -31.2195   21.2916 H   0  0  0  0  0  0
  -23.3765  -35.9375   23.3275 H   0  0  0  0  0  0
  -24.3518  -36.8795   22.2076 H   0  0  0  0  0  0
  -23.7188  -37.6229   23.6767 H   0  0  0  0  0  0
  -26.3384  -31.1706   20.6275 H   0  0  0  0  0  0
  -26.9677  -30.5382   22.0965 H   0  0  0  0  0  0
  -28.1725  -28.2237   21.3544 H   0  0  0  0  0  0
  -25.8203  -25.5350   18.9895 H   0  0  0  0  0  0
  -24.0621  -27.1776   18.9109 H   0  0  0  0  0  0
  -23.9974  -30.4111   19.3721 H   0  0  0  0  0  0
  -22.8995  -29.1402   19.8028 H   0  0  0  0  0  0
  -25.1338  -36.1560   25.0762 H   0  0  0  0  0  0
  -21.0073  -28.3457   24.1220 H   0  0  0  0  0  0
  -20.5635  -26.2451   23.3673 H   0  0  0  0  0  0
  -21.6663  -26.7354   22.1234 H   0  0  0  0  0  0
  -19.6906  -25.6257   21.1302 H   0  0  0  0  0  0
  -19.6714  -27.3131   20.6698 H   0  0  0  0  0  0
  -17.4230  -26.6738   21.4008 H   0  0  0  0  0  0
  -18.0329  -26.0115   22.9008 H   0  0  0  0  0  0
  -19.8012  -30.7377   24.2126 H   0  0  0  0  0  0
  -17.5077  -31.6292   24.5175 H   0  0  0  0  0  0
  -15.5405  -30.2979   23.7749 H   0  0  0  0  0  0
  -15.8730  -28.0813   22.7160 H   0  0  0  0  0  0
  -24.5893  -30.7177   25.7629 H   0  0  0  0  0  0
  -24.8879  -32.3098   26.4485 H   0  0  0  0  0  0
  -25.7864  -30.9185   27.0233 H   0  0  0  0  0  0
  -26.3393  -29.6390   24.1662 H   0  0  0  0  0  0
  -27.3993  -29.7300   25.5481 H   0  0  0  0  0  0
  -27.9387  -30.3930   24.0301 H   0  0  0  0  0  0
  -27.2596  -33.3774   26.1822 H   0  0  0  0  0  0
  -28.4037  -32.6779   25.0468 H   0  0  0  0  0  0
  -28.0577  -31.8687   26.5665 H   0  0  0  0  0  0
  -28.2538  -38.0003   24.7515 H   0  0  0  0  0  0
  -28.1026  -36.2527   24.6314 H   0  0  0  0  0  0
  -27.2250  -37.1363   25.8882 H   0  0  0  0  0  0
  -20.9843  -29.8658   21.6415 H   0  0  0  0  0  0
  -26.0034  -38.2654   24.1485 H   0  0  0  0  0  0
  -29.7594  -20.4519   18.7388 H   0  0  0  0  0  0
  -30.8901  -21.0515   19.8447 H   0  0  0  0  0  0
  -27.0342  -20.1217   20.8829 H   0  0  0  0  0  0
  -27.6066  -19.9870   19.3056 H   0  0  0  0  0  0
  -30.9142  -18.8893   21.2198 H   0  0  0  0  0  0
  -31.3461  -18.6026   19.5922 H   0  0  0  0  0  0
  -27.5710  -17.6816   20.2918 H   0  0  0  0  0  0
  -28.3430  -18.1629   21.7454 H   0  0  0  0  0  0
  -31.1762  -22.4171   21.6971 H   0  0  0  0  0  0
  -30.5858  -22.5982   23.3372 H   0  0  0  0  0  0
  -29.9848  -23.6597   22.0730 H   0  0  0  0  0  0
  -27.1736  -21.1865   22.8490 H   0  0  0  0  0  0
  -27.4998  -22.9106   22.6895 H   0  0  0  0  0  0
  -28.2588  -21.9792   23.9695 H   0  0  0  0  0  0
  -27.0470  -23.2934   20.3728 H   0  0  0  0  0  0
  -28.0322  -23.3820   18.9847 H   0  0  0  0  0  0
  -29.5231  -20.6582   22.3360 H   0  0  0  0  0  0
  1 25  1  0  0  0
  1 30  2  0  0  0
  1 80  1  0  0  0
  2  3  1  0  0  0
  2 25  1  0  0  0
  2 81  1  0  0  0
  2 82  1  0  0  0
  3  4  1  0  0  0
  3 83  1  0  0  0
  3 84  1  0  0  0
  4  5  1  0  0  0
  4 85  1  0  0  0
  4 86  1  0  0  0
  5  6  1  0  0  0
  5 26  1  0  0  0
  5 87  1  0  0  0
  6 25  1  0  0  0
  6 88  1  0  0  0
  6 89  1  0  0  0
  7  8  2  0  0  0
  7 26  1  0  0  0
  7 29  1  0  0  0
  8  9  1  0  0  0
  8 22  1  0  0  0
  9 10  1  0  0  0
  9 27  2  0  0  0
 10 11  2  0  0  0
 10 15  1  0  0  0
 11 12  1  0  0  0
 11 90  1  0  0  0
 12 13  2  0  0  0
 12 91  1  0  0  0
 13 14  1  0  0  0
 13 31  1  0  0  0
 14 15  2  0  0  0
 14 92  1  0  0  0
 15 93  1  0  0  0
 16 17  2  0  0  0
 16 21  1  0  0  0
 16 31  1  0  0  0
 17 18  1  0  0  0
 17 94  1  0  0  0
 18 19  2  0  0  0
 18 95  1  0  0  0
 19 20  1  0  0  0
 19 24  1  0  0  0
 20 21  2  0  0  0
 20 96  1  0  0  0
 21 23  1  0  0  0
 22 28  1  0  0  0
 22 32  2  0  0  0
 26 27  1  0  0  0
 28 97  1  0  0  0
 28 98  1  0  0  0
 29 99  1  0  0  0
 29100  1  0  0  0
 33 34  1  0  0  0
 33 66  1  0  0  0
 33 70  2  0  0  0
 34 36  1  0  0  0
 34 59  1  0  0  0
 34101  1  0  0  0
 35 44  2  0  0  0
 35 45  1  0  0  0
 35 68  1  0  0  0
 36 56  1  0  0  0
 36102  1  0  0  0
 37 39  1  0  0  0
 37 47  1  0  0  0
 37 66  1  0  0  0
 37103  1  0  0  0
 38 43  2  0  0  0
 38 46  1  0  0  0
 38 47  1  0  0  0
 39 64  1  0  0  0
 39 67  2  0  0  0
 40 52  1  0  0  0
 40 53  2  0  0  0
 40 58  1  0  0  0
 41104  1  0  0  0
 41105  1  0  0  0
 41106  1  0  0  0
 41 48  1  0  0  0
 42 43  1  0  0  0
 42 66  1  0  0  0
 42107  1  0  0  0
 42108  1  0  0  0
 43 44  1  0  0  0
 44109  1  0  0  0
 45 46  2  0  0  0
 45110  1  0  0  0
 46111  1  0  0  0
 47112  1  0  0  0
 47113  1  0  0  0
 48 56  1  0  0  0
 48 65  1  0  0  0
 48114  1  0  0  0
 49 50  1  0  0  0
 49 53  1  0  0  0
 49 64  1  0  0  0
 49115  1  0  0  0
 50 51  1  0  0  0
 50116  1  0  0  0
 50117  1  0  0  0
 51 52  1  0  0  0
 51118  1  0  0  0
 51119  1  0  0  0
 52120  1  0  0  0
 52121  1  0  0  0
 53 54  1  0  0  0
 54 55  2  0  0  0
 54122  1  0  0  0
 55 57  1  0  0  0
 55123  1  0  0  0
 56 69  2  0  0  0
 57 58  2  0  0  0
 57124  1  0  0  0
 58125  1  0  0  0
 59 60  1  0  0  0
 59 61  1  0  0  0
 59 62  1  0  0  0
 60126  1  0  0  0
 60127  1  0  0  0
 60128  1  0  0  0
 61129  1  0  0  0
 61130  1  0  0  0
 61131  1  0  0  0
 62132  1  0  0  0
 62133  1  0  0  0
 62134  1  0  0  0
 63 65  1  0  0  0
 63135  1  0  0  0
 63136  1  0  0  0
 63137  1  0  0  0
 64138  1  0  0  0
 65139  1  0  0  0
 68 78  1  0  0  0
 71 73  1  0  0  0
 71 75  1  0  0  0
 71140  1  0  0  0
 71141  1  0  0  0
 72 74  1  0  0  0
 72 75  1  0  0  0
 72142  1  0  0  0
 72143  1  0  0  0
 73 80  1  0  0  0
 73144  1  0  0  0
 73145  1  0  0  0
 74 80  1  0  0  0
 74146  1  0  0  0
 74147  1  0  0  0
 75 78  1  0  0  0
 75 79  1  0  0  0
 76148  1  0  0  0
 76149  1  0  0  0
 76150  1  0  0  0
 76 79  1  0  0  0
 77 79  1  0  0  0
 77151  1  0  0  0
 77152  1  0  0  0
 77153  1  0  0  0
 78154  1  0  0  0
 78155  1  0  0  0
 79156  1  0  0  0
M  ISO  4   1 100  68 101  78 101  80 100
M  END
> <chiral flag>
0

> <version>
0

> <s_m_source_file>
/data/baiqing/PycharmProjects/Reinvent-master-3.2/result/LINK_invent/BTK/process_docking_weight1_custom_sum_contain_oxygen_bond_distance_aromatic_linkinvent_7_9_3/rearranged_h_0020.sdf

> <i_m_source_file_index>
8

> <r_mmod_Potential_Energy-OPLS-2005>
3599.98803710938

> <r_mmod_Stretch_Energy-OPLS-2005>
1389.81701660156

> <r_mmod_Bend_Energy-OPLS-2005>
962.874755859375

> <r_mmod_Torsional_Energy-OPLS-2005>
330.786590576172

> <r_mmod_Improper_Torsional_Energy-OPLS-2005>
8.34340763092041

> <r_mmod_Van_der_Waal_Energy-OPLS-2005>
122.477897644043

> <r_mmod_Electrostatic_Energy-OPLS-2005>
-271.371276855469

> <r_mmod_Solvation_Energy-OPLS-2005>
-204.826690673828

> <b_mmod_Minimization_Converged-OPLS-2005>
0

> <r_mmod_RMS_Derivative-OPLS-2005>
2.20195293426514

$$$$
8
                    3D
 Structure written by MMmdl.
160168  0  0  1  0            999 V2000
  -30.2976  -15.6338   20.3178 C   0  0  0  0  0  0
  -30.4233  -13.0738   19.5510 C   0  0  0  0  0  0
  -29.5514  -12.6542   18.3319 C   0  0  0  0  0  0
  -28.1252  -12.2973   18.7738 C   0  0  0  0  0  0
  -27.5981  -13.3059   19.8187 C   0  0  2  0  0  0
  -28.6108  -13.6399   20.9410 C   0  0  0  0  0  0
  -25.2336  -13.8284   20.5796 C   0  0  0  0  0  0
  -24.1720  -13.0435   20.9279 C   0  0  0  0  0  0
  -24.6413  -11.6944   20.8761 C   0  0  0  0  0  0
  -23.9116  -10.4293   21.0396 C   0  0  0  0  0  0
  -24.3653   -9.4209   21.9182 C   0  0  0  0  0  0
  -23.6312   -8.2253   22.0762 C   0  0  0  0  0  0
  -22.4299   -8.0285   21.3546 C   0  0  0  0  0  0
  -21.9939   -9.0259   20.4646 C   0  0  0  0  0  0
  -22.7280  -10.2132   20.3049 C   0  0  0  0  0  0
  -21.6862   -6.0735   22.5276 C   0  0  0  0  0  0
  -21.4020   -6.5640   23.8207 C   0  0  0  0  0  0
  -21.3662   -5.6794   24.9170 C   0  0  0  0  0  0
  -21.6043   -4.3056   24.7223 C   0  0  0  0  0  0
  -21.8821   -3.8146   23.4346 C   0  0  0  0  0  0
  -21.9195   -4.6961   22.3401 C   0  0  0  0  0  0
  -22.7736  -13.5168   21.1905 C   0  0  0  0  0  0
  -22.1665   -4.2144   21.0978 F   0  0  0  0  0  0
  -21.5626   -3.4543   25.7738 F   0  0  0  0  0  0
  -29.7894  -14.2596   20.2917 N   0  0  0  0  0  0
  -26.2781  -12.9608   20.3254 N   0  0  0  0  0  0
  -25.9365  -11.6682   20.5719 N   0  0  0  0  0  0
  -22.0400  -12.8150   22.0455 N   0  0  0  0  0  0
  -25.3930  -15.2022   20.4235 N   0  0  0  0  0  0
  -31.5237  -15.5815   20.1047 O   0  0  0  0  0  0
  -21.6656   -6.8884   21.4242 O   0  0  0  0  0  0
  -22.3412  -14.5461   20.6729 O   0  0  0  0  0  0
  -24.6860  -31.7982   23.1487 C   0  0  0  0  0  0
  -25.9444  -32.4445   23.8041 C   0  0  1  0  0  0
  -27.2293  -26.6932   20.2124 C   0  0  0  0  0  0
  -25.6041  -33.8267   24.1950 N   0  0  0  0  0  0
  -23.5111  -30.3992   21.5029 C   0  0  2  0  0  0
  -24.9676  -28.7365   20.1135 C   0  0  0  0  0  0
  -22.7779  -29.4304   22.4699 C   0  0  0  0  0  0
  -18.0351  -28.1427   22.8451 C   0  0  0  0  0  0
  -24.1505  -36.7122   23.2652 C   0  0  0  0  0  0
  -26.0903  -30.5293   21.4098 C   0  0  0  0  0  0
  -26.1551  -29.0917   20.7633 C   0  0  0  0  0  0
  -27.2672  -28.0966   20.7816 C   0  0  0  0  0  0
  -26.0105  -26.5498   19.4999 C   0  0  0  0  0  0
  -24.9346  -27.4919   19.4585 C   0  0  0  0  0  0
  -23.7632  -29.6929   20.1384 C   0  0  0  0  0  0
  -25.4156  -36.2869   24.0283 C   0  0  1  0  0  0
  -20.5990  -28.3774   23.1144 C   0  0  2  0  0  0
  -20.6815  -26.9432   22.5407 C   0  0  0  0  0  0
  -19.5787  -26.6374   21.5221 C   0  0  0  0  0  0
  -18.1970  -26.7958   22.1620 C   0  0  0  0  0  0
  -19.1618  -28.8927   23.2781 C   0  0  0  0  0  0
  -18.9521  -30.1512   23.8824 C   0  0  0  0  0  0
  -17.6509  -30.6604   24.0552 C   0  0  0  0  0  0
  -25.9141  -34.9263   23.4947 C   0  0  0  0  0  0
  -16.5399  -29.9085   23.6352 C   0  0  0  0  0  0
  -16.7332  -28.6516   23.0355 C   0  0  0  0  0  0
  -26.4606  -31.6470   25.0659 C   0  0  0  0  0  0
  -25.3660  -31.3785   26.1265 C   0  0  0  0  0  0
  -27.0518  -30.2811   24.6521 C   0  0  0  0  0  0
  -27.6064  -32.4303   25.7496 C   0  0  0  0  0  0
  -27.5564  -37.1713   24.8477 C   0  0  0  0  0  0
  -21.4425  -29.3019   22.3456 N   0  0  0  0  0  0
  -26.4278  -37.3635   23.9411 N   0  0  0  0  0  0
  -24.7865  -30.9422   22.0735 N   0  0  0  0  0  0
  -23.4223  -28.7918   23.3054 O   0  0  0  0  0  0
  -28.2065  -25.4859   20.3255 O   0  0  0  0  0  0
  -26.5758  -34.8849   22.4550 O   0  0  0  0  0  0
  -23.5882  -32.1065   23.6443 O   0  0  0  0  0  0
  -28.9146  -20.3623   20.8528 C   0  0  0  0  0  0
  -28.4247  -21.9906   20.7740 C   0  0  0  0  0  0
  -28.8635  -20.1716   22.2374 C   0  0  0  0  0  0
  -27.5515  -21.9109   21.8353 C   0  0  0  0  0  0
  -31.1247  -19.0124   22.6574 C   0  0  0  0  0  0
  -29.0199  -17.9385   23.5228 C   0  0  0  0  0  0
  -29.9873  -20.0251   24.5296 C   0  0  0  0  0  0
  -26.9695  -20.6999   23.9148 C   0  0  0  0  0  0
  -29.5473  -18.7559   20.0749 C   0  0  0  0  0  0
  -28.2070  -23.7381   20.0166 C   0  0  0  0  0  0
  -29.6966  -19.2892   23.1949 C   0  0  0  0  0  0
  -27.7594  -20.8766   22.6983 N   0  0  0  0  0  0
  -29.5228  -16.9893   20.3934 N   0  0  0  0  0  0
  -26.2972  -23.0473   22.2305 Cl  0  0  0  0  0  0
  -31.4196  -13.3290   19.1883 H   0  0  0  0  0  0
  -30.5779  -12.2283   20.2239 H   0  0  0  0  0  0
  -30.0058  -11.8118   17.8084 H   0  0  0  0  0  0
  -29.5146  -13.4770   17.6161 H   0  0  0  0  0  0
  -28.1527  -11.2998   19.2149 H   0  0  0  0  0  0
  -27.4559  -12.2367   17.9150 H   0  0  0  0  0  0
  -27.4626  -14.2269   19.2501 H   0  0  0  0  0  0
  -28.8677  -12.7607   21.5340 H   0  0  0  0  0  0
  -28.1764  -14.3603   21.6355 H   0  0  0  0  0  0
  -25.2795   -9.5684   22.4763 H   0  0  0  0  0  0
  -24.0007   -7.4653   22.7500 H   0  0  0  0  0  0
  -21.0864   -8.8785   19.8961 H   0  0  0  0  0  0
  -22.3736  -10.9671   19.6160 H   0  0  0  0  0  0
  -21.2022   -7.6150   23.9706 H   0  0  0  0  0  0
  -21.1480   -6.0528   25.9069 H   0  0  0  0  0  0
  -22.0597   -2.7608   23.2850 H   0  0  0  0  0  0
  -22.4057  -11.9825   22.4837 H   0  0  0  0  0  0
  -21.1005  -13.1145   22.2655 H   0  0  0  0  0  0
  -24.6180  -15.8464   20.5373 H   0  0  0  0  0  0
  -26.2256  -15.6449   20.0595 H   0  0  0  0  0  0
  -26.7532  -32.4913   23.0757 H   0  0  0  0  0  0
  -25.0150  -33.9302   25.0080 H   0  0  0  0  0  0
  -22.8375  -31.2373   21.3124 H   0  0  0  0  0  0
  -23.3793  -35.9425   23.3260 H   0  0  0  0  0  0
  -24.3576  -36.8833   22.2077 H   0  0  0  0  0  0
  -23.7245  -37.6281   23.6756 H   0  0  0  0  0  0
  -26.2863  -31.2509   20.6152 H   0  0  0  0  0  0
  -26.9450  -30.6020   22.0696 H   0  0  0  0  0  0
  -28.1579  -28.3727   21.3288 H   0  0  0  0  0  0
  -25.8429  -25.6085   18.9970 H   0  0  0  0  0  0
  -24.0378  -27.2111   18.9229 H   0  0  0  0  0  0
  -23.9352  -30.4516   19.3743 H   0  0  0  0  0  0
  -22.8668  -29.1596   19.8169 H   0  0  0  0  0  0
  -25.1365  -36.1615   25.0770 H   0  0  0  0  0  0
  -21.0082  -28.3397   24.1266 H   0  0  0  0  0  0
  -20.5686  -26.2387   23.3664 H   0  0  0  0  0  0
  -21.6672  -26.7378   22.1212 H   0  0  0  0  0  0
  -19.6939  -25.6271   21.1284 H   0  0  0  0  0  0
  -19.6739  -27.3153   20.6728 H   0  0  0  0  0  0
  -17.4245  -26.6713   21.4020 H   0  0  0  0  0  0
  -18.0349  -26.0122   22.9034 H   0  0  0  0  0  0
  -19.7993  -30.7354   24.2151 H   0  0  0  0  0  0
  -17.5055  -31.6271   24.5175 H   0  0  0  0  0  0
  -15.5392  -30.2957   23.7718 H   0  0  0  0  0  0
  -15.8739  -28.0814   22.7087 H   0  0  0  0  0  0
  -24.5904  -30.7068   25.7564 H   0  0  0  0  0  0
  -24.8781  -32.2998   26.4453 H   0  0  0  0  0  0
  -25.7831  -30.9120   27.0199 H   0  0  0  0  0  0
  -26.3216  -29.6450   24.1507 H   0  0  0  0  0  0
  -27.3954  -29.7216   25.5231 H   0  0  0  0  0  0
  -27.9195  -30.3948   24.0022 H   0  0  0  0  0  0
  -27.2633  -33.3690   26.1855 H   0  0  0  0  0  0
  -28.4008  -32.6710   25.0417 H   0  0  0  0  0  0
  -28.0576  -31.8562   26.5604 H   0  0  0  0  0  0
  -28.2546  -38.0037   24.7529 H   0  0  0  0  0  0
  -28.1095  -36.2560   24.6307 H   0  0  0  0  0  0
  -27.2271  -37.1349   25.8876 H   0  0  0  0  0  0
  -20.9728  -29.8674   21.6520 H   0  0  0  0  0  0
  -26.0095  -38.2681   24.1423 H   0  0  0  0  0  0
  -31.1729  -18.2472   21.8929 H   0  0  0  0  0  0
  -31.7860  -18.6369   23.4392 H   0  0  0  0  0  0
  -31.5839  -19.9189   22.2612 H   0  0  0  0  0  0
  -28.5496  -17.4916   22.6526 H   0  0  0  0  0  0
  -28.2456  -18.0122   24.2802 H   0  0  0  0  0  0
  -29.7421  -17.2219   23.9162 H   0  0  0  0  0  0
  -30.4565  -20.9941   24.3530 H   0  0  0  0  0  0
  -30.6593  -19.4496   25.1680 H   0  0  0  0  0  0
  -29.1110  -20.1972   25.1453 H   0  0  0  0  0  0
  -27.2511  -21.4482   24.6559 H   0  0  0  0  0  0
  -27.0759  -19.7093   24.3360 H   0  0  0  0  0  0
  -25.9096  -20.8174   23.6906 H   0  0  0  0  0  0
  -30.5932  -18.9696   19.8510 H   0  0  0  0  0  0
  -29.0842  -18.8010   19.0886 H   0  0  0  0  0  0
  -28.3503  -23.9559   21.0707 H   0  0  0  0  0  0
  -27.1731  -23.6490   19.6832 H   0  0  0  0  0  0
  -28.5685  -16.7458   20.6136 H   0  0  0  0  0  0
  1 25  1  0  0  0
  1 30  2  0  0  0
  1 83  1  0  0  0
  2  3  1  0  0  0
  2 25  1  0  0  0
  2 85  1  0  0  0
  2 86  1  0  0  0
  3  4  1  0  0  0
  3 87  1  0  0  0
  3 88  1  0  0  0
  4  5  1  0  0  0
  4 89  1  0  0  0
  4 90  1  0  0  0
  5  6  1  0  0  0
  5 26  1  0  0  0
  5 91  1  0  0  0
  6 25  1  0  0  0
  6 92  1  0  0  0
  6 93  1  0  0  0
  7  8  2  0  0  0
  7 26  1  0  0  0
  7 29  1  0  0  0
  8  9  1  0  0  0
  8 22  1  0  0  0
  9 10  1  0  0  0
  9 27  2  0  0  0
 10 11  2  0  0  0
 10 15  1  0  0  0
 11 12  1  0  0  0
 11 94  1  0  0  0
 12 13  2  0  0  0
 12 95  1  0  0  0
 13 14  1  0  0  0
 13 31  1  0  0  0
 14 15  2  0  0  0
 14 96  1  0  0  0
 15 97  1  0  0  0
 16 17  2  0  0  0
 16 21  1  0  0  0
 16 31  1  0  0  0
 17 18  1  0  0  0
 17 98  1  0  0  0
 18 19  2  0  0  0
 18 99  1  0  0  0
 19 20  1  0  0  0
 19 24  1  0  0  0
 20 21  2  0  0  0
 20100  1  0  0  0
 21 23  1  0  0  0
 22 28  1  0  0  0
 22 32  2  0  0  0
 26 27  1  0  0  0
 28101  1  0  0  0
 28102  1  0  0  0
 29103  1  0  0  0
 29104  1  0  0  0
 33 34  1  0  0  0
 33 66  1  0  0  0
 33 70  2  0  0  0
 34 36  1  0  0  0
 34 59  1  0  0  0
 34105  1  0  0  0
 35 44  2  0  0  0
 35 45  1  0  0  0
 35 68  1  0  0  0
 36 56  1  0  0  0
 36106  1  0  0  0
 37 39  1  0  0  0
 37 47  1  0  0  0
 37 66  1  0  0  0
 37107  1  0  0  0
 38 43  2  0  0  0
 38 46  1  0  0  0
 38 47  1  0  0  0
 39 64  1  0  0  0
 39 67  2  0  0  0
 40 52  1  0  0  0
 40 53  2  0  0  0
 40 58  1  0  0  0
 41108  1  0  0  0
 41109  1  0  0  0
 41110  1  0  0  0
 41 48  1  0  0  0
 42 43  1  0  0  0
 42 66  1  0  0  0
 42111  1  0  0  0
 42112  1  0  0  0
 43 44  1  0  0  0
 44113  1  0  0  0
 45 46  2  0  0  0
 45114  1  0  0  0
 46115  1  0  0  0
 47116  1  0  0  0
 47117  1  0  0  0
 48 56  1  0  0  0
 48 65  1  0  0  0
 48118  1  0  0  0
 49 50  1  0  0  0
 49 53  1  0  0  0
 49 64  1  0  0  0
 49119  1  0  0  0
 50 51  1  0  0  0
 50120  1  0  0  0
 50121  1  0  0  0
 51 52  1  0  0  0
 51122  1  0  0  0
 51123  1  0  0  0
 52124  1  0  0  0
 52125  1  0  0  0
 53 54  1  0  0  0
 54 55  2  0  0  0
 54126  1  0  0  0
 55 57  1  0  0  0
 55127  1  0  0  0
 56 69  2  0  0  0
 57 58  2  0  0  0
 57128  1  0  0  0
 58129  1  0  0  0
 59 60  1  0  0  0
 59 61  1  0  0  0
 59 62  1  0  0  0
 60130  1  0  0  0
 60131  1  0  0  0
 60132  1  0  0  0
 61133  1  0  0  0
 61134  1  0  0  0
 61135  1  0  0  0
 62136  1  0  0  0
 62137  1  0  0  0
 62138  1  0  0  0
 63 65  1  0  0  0
 63139  1  0  0  0
 63140  1  0  0  0
 63141  1  0  0  0
 64142  1  0  0  0
 65143  1  0  0  0
 68 80  1  0  0  0
 71 72  1  0  0  0
 71 73  2  0  0  0
 71 79  1  0  0  0
 72 74  2  0  0  0
 72 80  1  0  0  0
 73 81  1  0  0  0
 73 82  1  0  0  0
 74 82  1  0  0  0
 74 84  1  0  0  0
 75144  1  0  0  0
 75145  1  0  0  0
 75146  1  0  0  0
 75 81  1  0  0  0
 76 81  1  0  0  0
 76147  1  0  0  0
 76148  1  0  0  0
 76149  1  0  0  0
 77 81  1  0  0  0
 77150  1  0  0  0
 77151  1  0  0  0
 77152  1  0  0  0
 78 82  1  0  0  0
 78153  1  0  0  0
 78154  1  0  0  0
 78155  1  0  0  0
 79 83  1  0  0  0
 79156  1  0  0  0
 79157  1  0  0  0
 80158  1  0  0  0
 80159  1  0  0  0
 83160  1  0  0  0
M  ISO  4   1 100  68 101  80 101  83 100
M  END
> <chiral flag>
0

> <version>
0

> <s_m_source_file>
/data/baiqing/PycharmProjects/Reinvent-master-3.2/result/LINK_invent/BTK/process_docking_weight1_custom_sum_contain_oxygen_bond_distance_aromatic_linkinvent_7_9_3/rearranged_h_0020.sdf

> <i_m_source_file_index>
9

> <r_mmod_Potential_Energy-OPLS-2005>
2839.53784179688

> <r_mmod_Stretch_Energy-OPLS-2005>
1209.53833007812

> <r_mmod_Bend_Energy-OPLS-2005>
904.495300292969

> <r_mmod_Torsional_Energy-OPLS-2005>
317.827056884766

> <r_mmod_Improper_Torsional_Energy-OPLS-2005>
7.4951605796814

> <r_mmod_Van_der_Waal_Energy-OPLS-2005>
142.184219360352

> <r_mmod_Electrostatic_Energy-OPLS-2005>
-441.737762451172

> <r_mmod_Solvation_Energy-OPLS-2005>
-206.650344848633

> <b_mmod_Minimization_Converged-OPLS-2005>
0

> <r_mmod_RMS_Derivative-OPLS-2005>
1.14985775947571

$$$$
9
                    3D
 Structure written by MMmdl.
162170  0  0  1  0            999 V2000
  -30.6142  -14.6014   20.5336 C   0  0  0  0  0  0
  -30.4425  -12.3752   19.4345 C   0  0  0  0  0  0
  -29.5039  -12.5184   18.2137 C   0  0  0  0  0  0
  -28.0271  -12.3579   18.6267 C   0  0  0  0  0  0
  -27.6597  -13.2059   19.8735 C   0  0  2  0  0  0
  -28.7052  -13.0059   20.9960 C   0  0  0  0  0  0
  -25.2586  -13.8150   20.5679 C   0  0  0  0  0  0
  -24.1853  -13.0436   20.9175 C   0  0  0  0  0  0
  -24.6393  -11.6884   20.8743 C   0  0  0  0  0  0
  -23.9064  -10.4279   21.0406 C   0  0  0  0  0  0
  -24.3614   -9.4192   21.9184 C   0  0  0  0  0  0
  -23.6289   -8.2237   22.0762 C   0  0  0  0  0  0
  -22.4270   -8.0281   21.3550 C   0  0  0  0  0  0
  -21.9901   -9.0252   20.4650 C   0  0  0  0  0  0
  -22.7233  -10.2126   20.3052 C   0  0  0  0  0  0
  -21.6853   -6.0731   22.5279 C   0  0  0  0  0  0
  -21.4009   -6.5636   23.8211 C   0  0  0  0  0  0
  -21.3660   -5.6793   24.9172 C   0  0  0  0  0  0
  -21.6047   -4.3055   24.7223 C   0  0  0  0  0  0
  -21.8821   -3.8147   23.4344 C   0  0  0  0  0  0
  -21.9186   -4.6960   22.3401 C   0  0  0  0  0  0
  -22.7863  -13.5232   21.1840 C   0  0  0  0  0  0
  -22.1661   -4.2145   21.0980 F   0  0  0  0  0  0
  -21.5626   -3.4540   25.7739 F   0  0  0  0  0  0
  -30.0233  -13.3671   20.4419 N   0  0  0  0  0  0
  -26.3024  -12.9317   20.3361 N   0  0  0  0  0  0
  -25.9319  -11.6473   20.5758 N   0  0  0  0  0  0
  -22.0506  -12.8240   22.0393 N   0  0  0  0  0  0
  -25.4358  -15.1882   20.4116 N   0  0  0  0  0  0
  -31.7459  -14.8194   20.0904 O   0  0  0  0  0  0
  -21.6638   -6.8874   21.4243 O   0  0  0  0  0  0
  -22.3559  -14.5542   20.6676 O   0  0  0  0  0  0
  -24.6299  -31.8558   23.2010 C   0  0  0  0  0  0
  -25.9126  -32.4787   23.8346 C   0  0  1  0  0  0
  -27.2032  -27.2975   20.1049 C   0  0  0  0  0  0
  -25.5925  -33.8582   24.2265 N   0  0  0  0  0  0
  -23.4206  -30.4834   21.5450 C   0  0  2  0  0  0
  -24.8609  -28.9376   20.1091 C   0  0  0  0  0  0
  -22.7509  -29.4615   22.4939 C   0  0  0  0  0  0
  -18.0277  -28.1399   22.8464 C   0  0  0  0  0  0
  -24.1490  -36.7306   23.2647 C   0  0  0  0  0  0
  -25.9639  -30.7777   21.3748 C   0  0  0  0  0  0
  -26.0320  -29.4029   20.7216 C   0  0  0  0  0  0
  -27.2061  -28.5912   20.7143 C   0  0  0  0  0  0
  -26.0145  -26.9007   19.4496 C   0  0  0  0  0  0
  -24.8556  -27.6955   19.4620 C   0  0  0  0  0  0
  -23.6323  -29.8180   20.1605 C   0  0  0  0  0  0
  -25.4107  -36.3081   24.0334 C   0  0  1  0  0  0
  -20.5891  -28.3696   23.1286 C   0  0  2  0  0  0
  -20.6757  -26.9405   22.5430 C   0  0  0  0  0  0
  -19.5742  -26.6386   21.5227 C   0  0  0  0  0  0
  -18.1920  -26.7942   22.1628 C   0  0  0  0  0  0
  -19.1537  -28.8852   23.2872 C   0  0  0  0  0  0
  -18.9469  -30.1453   23.8891 C   0  0  0  0  0  0
  -17.6469  -30.6595   24.0562 C   0  0  0  0  0  0
  -25.9055  -34.9456   23.5105 C   0  0  0  0  0  0
  -16.5357  -29.9082   23.6327 C   0  0  0  0  0  0
  -16.7267  -28.6503   23.0339 C   0  0  0  0  0  0
  -26.4494  -31.6582   25.0726 C   0  0  0  0  0  0
  -25.3721  -31.3730   26.1454 C   0  0  0  0  0  0
  -27.0312  -30.3006   24.6145 C   0  0  0  0  0  0
  -27.6061  -32.4312   25.7491 C   0  0  0  0  0  0
  -27.5574  -37.1805   24.8461 C   0  0  0  0  0  0
  -21.4220  -29.3053   22.3694 N   0  0  0  0  0  0
  -26.4274  -37.3776   23.9427 N   0  0  0  0  0  0
  -24.6915  -31.0563   22.0971 N   0  0  0  0  0  0
  -23.4238  -28.8156   23.3023 O   0  0  0  0  0  0
  -28.3083  -26.4339   20.1675 O   0  0  0  0  0  0
  -26.5622  -34.8916   22.4678 O   0  0  0  0  0  0
  -23.5461  -32.1373   23.7314 O   0  0  0  0  0  0
  -29.9613  -19.2612   20.0141 C   0  0  0  0  0  0
  -29.7654  -19.9618   21.2360 C   0  0  0  0  0  0
  -29.6844  -19.1337   22.4113 C   0  0  0  0  0  0
  -29.6603  -17.7010   22.3240 C   0  0  0  0  0  0
  -29.8963  -17.0253   21.0977 C   0  0  0  0  0  0
  -30.0399  -17.8361   19.9428 C   0  0  0  0  0  0
  -29.6997  -19.7471   23.8138 C   0  0  0  0  0  0
  -29.3829  -16.8346   23.5557 C   0  0  0  0  0  0
  -28.9721  -24.3449   22.2671 C   0  0  0  0  0  0
  -29.8245  -21.5487   21.3019 C   0  0  0  0  0  0
  -28.1089  -24.9734   19.9554 C   0  0  0  0  0  0
  -29.0632  -23.9776   20.7657 C   0  0  2  0  0  0
  -29.8207  -15.5716   21.0693 N   0  0  0  0  0  0
  -28.8727  -22.4677   20.5431 N   0  3  0  0  0  0
  -30.1963  -17.2467   18.7331 F   0  0  0  0  0  0
  -31.4823  -12.5103   19.1321 H   0  0  0  0  0  0
  -30.3880  -11.3657   19.8442 H   0  0  0  0  0  0
  -29.7609  -11.7829   17.4514 H   0  0  0  0  0  0
  -29.6511  -13.4966   17.7542 H   0  0  0  0  0  0
  -27.8543  -11.3018   18.8345 H   0  0  0  0  0  0
  -27.3716  -12.6111   17.7933 H   0  0  0  0  0  0
  -27.6955  -14.2507   19.5649 H   0  0  0  0  0  0
  -28.7117  -11.9642   21.3200 H   0  0  0  0  0  0
  -28.4487  -13.5800   21.8868 H   0  0  0  0  0  0
  -25.2751   -9.5669   22.4749 H   0  0  0  0  0  0
  -23.9991   -7.4631   22.7474 H   0  0  0  0  0  0
  -21.0831   -8.8773   19.8951 H   0  0  0  0  0  0
  -22.3700  -10.9666   19.6162 H   0  0  0  0  0  0
  -21.2009   -7.6147   23.9712 H   0  0  0  0  0  0
  -21.1479   -6.0524   25.9076 H   0  0  0  0  0  0
  -22.0599   -2.7610   23.2850 H   0  0  0  0  0  0
  -22.4117  -11.9894   22.4774 H   0  0  0  0  0  0
  -21.1122  -13.1265   22.2592 H   0  0  0  0  0  0
  -24.6737  -15.8460   20.5258 H   0  0  0  0  0  0
  -26.2895  -15.6234   20.0909 H   0  0  0  0  0  0
  -26.7159  -32.5411   23.1054 H   0  0  0  0  0  0
  -25.0063  -33.9698   25.0405 H   0  0  0  0  0  0
  -22.7185  -31.3061   21.4008 H   0  0  0  0  0  0
  -23.3739  -35.9649   23.3311 H   0  0  0  0  0  0
  -24.3568  -36.8925   22.2060 H   0  0  0  0  0  0
  -23.7250  -37.6522   23.6649 H   0  0  0  0  0  0
  -26.0938  -31.5278   20.5948 H   0  0  0  0  0  0
  -26.8503  -30.8343   21.9916 H   0  0  0  0  0  0
  -28.1039  -28.9351   21.2077 H   0  0  0  0  0  0
  -25.9504  -25.9602   18.9218 H   0  0  0  0  0  0
  -23.9628  -27.3396   18.9672 H   0  0  0  0  0  0
  -23.7613  -30.5927   19.4058 H   0  0  0  0  0  0
  -22.7496  -29.2536   19.8559 H   0  0  0  0  0  0
  -25.1282  -36.1939   25.0818 H   0  0  0  0  0  0
  -20.9956  -28.3255   24.1420 H   0  0  0  0  0  0
  -20.5678  -26.2299   23.3624 H   0  0  0  0  0  0
  -21.6628  -26.7449   22.1231 H   0  0  0  0  0  0
  -19.6931  -25.6297   21.1238 H   0  0  0  0  0  0
  -19.6703  -27.3202   20.6754 H   0  0  0  0  0  0
  -17.4206  -26.6688   21.4002 H   0  0  0  0  0  0
  -18.0319  -26.0088   22.9027 H   0  0  0  0  0  0
  -19.7946  -30.7262   24.2297 H   0  0  0  0  0  0
  -17.5026  -31.6289   24.5164 H   0  0  0  0  0  0
  -15.5361  -30.3002   23.7658 H   0  0  0  0  0  0
  -15.8669  -28.0838   22.7067 H   0  0  0  0  0  0
  -24.5878  -30.7102   25.7783 H   0  0  0  0  0  0
  -24.8947  -32.2909   26.4909 H   0  0  0  0  0  0
  -25.8061  -30.8881   27.0221 H   0  0  0  0  0  0
  -26.2861  -29.6792   24.1166 H   0  0  0  0  0  0
  -27.4033  -29.7226   25.4624 H   0  0  0  0  0  0
  -27.8730  -30.4329   23.9342 H   0  0  0  0  0  0
  -27.2679  -33.3611   26.2076 H   0  0  0  0  0  0
  -28.3871  -32.6887   25.0321 H   0  0  0  0  0  0
  -28.0726  -31.8439   26.5408 H   0  0  0  0  0  0
  -28.2590  -38.0108   24.7507 H   0  0  0  0  0  0
  -28.1075  -36.2644   24.6275 H   0  0  0  0  0  0
  -27.2298  -37.1445   25.8864 H   0  0  0  0  0  0
  -20.9412  -29.8814   21.6911 H   0  0  0  0  0  0
  -26.0171  -38.2859   24.1425 H   0  0  0  0  0  0
  -30.0939  -19.8206   19.1010 H   0  0  0  0  0  0
  -30.2351  -20.6915   23.8931 H   0  0  0  0  0  0
  -30.2432  -19.1054   24.5075 H   0  0  0  0  0  0
  -28.6813  -19.8682   24.1851 H   0  0  0  0  0  0
  -28.9480  -17.3692   24.3989 H   0  0  0  0  0  0
  -30.2934  -16.3355   23.8875 H   0  0  0  0  0  0
  -28.6563  -16.0600   23.3140 H   0  0  0  0  0  0
  -29.0500  -25.4224   22.4001 H   0  0  0  0  0  0
  -29.7787  -23.9148   22.8597 H   0  0  0  0  0  0
  -28.0259  -24.0256   22.6998 H   0  0  0  0  0  0
  -30.8555  -21.8638   21.1221 H   0  0  0  0  0  0
  -29.6088  -21.8093   22.3265 H   0  0  0  0  0  0
  -28.2085  -24.7857   18.8850 H   0  0  0  0  0  0
  -27.0891  -24.6819   20.2096 H   0  0  0  0  0  0
  -30.0744  -24.1928   20.4213 H   0  0  0  0  0  0
  -29.0065  -15.1876   21.5209 H   0  0  0  0  0  0
  -28.9660  -22.2733   19.5579 H   0  0  0  0  0  0
  -27.9296  -22.2188   20.7960 H   0  0  0  0  0  0
  1 25  1  0  0  0
  1 30  2  0  0  0
  1 83  1  0  0  0
  2  3  1  0  0  0
  2 25  1  0  0  0
  2 86  1  0  0  0
  2 87  1  0  0  0
  3  4  1  0  0  0
  3 88  1  0  0  0
  3 89  1  0  0  0
  4  5  1  0  0  0
  4 90  1  0  0  0
  4 91  1  0  0  0
  5  6  1  0  0  0
  5 26  1  0  0  0
  5 92  1  0  0  0
  6 25  1  0  0  0
  6 93  1  0  0  0
  6 94  1  0  0  0
  7  8  2  0  0  0
  7 26  1  0  0  0
  7 29  1  0  0  0
  8  9  1  0  0  0
  8 22  1  0  0  0
  9 10  1  0  0  0
  9 27  2  0  0  0
 10 11  2  0  0  0
 10 15  1  0  0  0
 11 12  1  0  0  0
 11 95  1  0  0  0
 12 13  2  0  0  0
 12 96  1  0  0  0
 13 14  1  0  0  0
 13 31  1  0  0  0
 14 15  2  0  0  0
 14 97  1  0  0  0
 15 98  1  0  0  0
 16 17  2  0  0  0
 16 21  1  0  0  0
 16 31  1  0  0  0
 17 18  1  0  0  0
 17 99  1  0  0  0
 18 19  2  0  0  0
 18100  1  0  0  0
 19 20  1  0  0  0
 19 24  1  0  0  0
 20 21  2  0  0  0
 20101  1  0  0  0
 21 23  1  0  0  0
 22 28  1  0  0  0
 22 32  2  0  0  0
 26 27  1  0  0  0
 28102  1  0  0  0
 28103  1  0  0  0
 29104  1  0  0  0
 29105  1  0  0  0
 33 34  1  0  0  0
 33 66  1  0  0  0
 33 70  2  0  0  0
 34 36  1  0  0  0
 34 59  1  0  0  0
 34106  1  0  0  0
 35 44  2  0  0  0
 35 45  1  0  0  0
 35 68  1  0  0  0
 36 56  1  0  0  0
 36107  1  0  0  0
 37 39  1  0  0  0
 37 47  1  0  0  0
 37 66  1  0  0  0
 37108  1  0  0  0
 38 43  2  0  0  0
 38 46  1  0  0  0
 38 47  1  0  0  0
 39 64  1  0  0  0
 39 67  2  0  0  0
 40 52  1  0  0  0
 40 53  2  0  0  0
 40 58  1  0  0  0
 41109  1  0  0  0
 41110  1  0  0  0
 41111  1  0  0  0
 41 48  1  0  0  0
 42 43  1  0  0  0
 42 66  1  0  0  0
 42112  1  0  0  0
 42113  1  0  0  0
 43 44  1  0  0  0
 44114  1  0  0  0
 45 46  2  0  0  0
 45115  1  0  0  0
 46116  1  0  0  0
 47117  1  0  0  0
 47118  1  0  0  0
 48 56  1  0  0  0
 48 65  1  0  0  0
 48119  1  0  0  0
 49 50  1  0  0  0
 49 53  1  0  0  0
 49 64  1  0  0  0
 49120  1  0  0  0
 50 51  1  0  0  0
 50121  1  0  0  0
 50122  1  0  0  0
 51 52  1  0  0  0
 51123  1  0  0  0
 51124  1  0  0  0
 52125  1  0  0  0
 52126  1  0  0  0
 53 54  1  0  0  0
 54 55  2  0  0  0
 54127  1  0  0  0
 55 57  1  0  0  0
 55128  1  0  0  0
 56 69  2  0  0  0
 57 58  2  0  0  0
 57129  1  0  0  0
 58130  1  0  0  0
 59 60  1  0  0  0
 59 61  1  0  0  0
 59 62  1  0  0  0
 60131  1  0  0  0
 60132  1  0  0  0
 60133  1  0  0  0
 61134  1  0  0  0
 61135  1  0  0  0
 61136  1  0  0  0
 62137  1  0  0  0
 62138  1  0  0  0
 62139  1  0  0  0
 63 65  1  0  0  0
 63140  1  0  0  0
 63141  1  0  0  0
 63142  1  0  0  0
 64143  1  0  0  0
 65144  1  0  0  0
 68 81  1  0  0  0
 71 72  2  0  0  0
 71 76  1  0  0  0
 71145  1  0  0  0
 72 73  1  0  0  0
 72 80  1  0  0  0
 73 74  2  0  0  0
 73 77  1  0  0  0
 74 75  1  0  0  0
 74 78  1  0  0  0
 75 76  2  0  0  0
 75 83  1  0  0  0
 76 85  1  0  0  0
 77146  1  0  0  0
 77147  1  0  0  0
 77148  1  0  0  0
 78149  1  0  0  0
 78150  1  0  0  0
 78151  1  0  0  0
 79152  1  0  0  0
 79153  1  0  0  0
 79154  1  0  0  0
 79 82  1  0  0  0
 80 84  1  0  0  0
 80155  1  0  0  0
 80156  1  0  0  0
 81 82  1  0  0  0
 81157  1  0  0  0
 81158  1  0  0  0
 82 84  1  0  0  0
 82159  1  0  0  0
 83160  1  0  0  0
 84161  1  0  0  0
 84162  1  0  0  0
M  CHG  1  84   1
M  ISO  4   1 100  68 101  81 101  83 100
M  END
> <chiral flag>
0

> <version>
0

> <s_m_source_file>
/data/baiqing/PycharmProjects/Reinvent-master-3.2/result/LINK_invent/BTK/process_docking_weight1_custom_sum_contain_oxygen_bond_distance_aromatic_linkinvent_7_9_3/rearranged_h_0020.sdf

> <i_m_source_file_index>
10

> <r_mmod_Potential_Energy-OPLS-2005>
-80.5911560058594

> <r_mmod_Stretch_Energy-OPLS-2005>
88.8890075683594

> <r_mmod_Bend_Energy-OPLS-2005>
149.482543945312

> <r_mmod_Torsional_Energy-OPLS-2005>
229.332901000977

> <r_mmod_Improper_Torsional_Energy-OPLS-2005>
4.03157329559326

> <r_mmod_Van_der_Waal_Energy-OPLS-2005>
162.452743530273

> <r_mmod_Electrostatic_Energy-OPLS-2005>
-302.242797851562

> <r_mmod_Solvation_Energy-OPLS-2005>
-460.8095703125

> <b_mmod_Minimization_Converged-OPLS-2005>
0

> <r_mmod_RMS_Derivative-OPLS-2005>
5.4452657699585

$$$$
10
                    3D
 Structure written by MMmdl.
168176  0  0  1  0            999 V2000
  -30.8018  -14.3334   20.7354 C   0  0  0  0  0  0
  -30.4049  -12.3047   19.3840 C   0  0  0  0  0  0
  -29.4704  -12.5431   18.1848 C   0  0  0  0  0  0
  -27.9970  -12.3869   18.6028 C   0  0  0  0  0  0
  -27.6577  -13.1989   19.8794 C   0  0  2  0  0  0
  -28.6977  -12.9231   20.9878 C   0  0  0  0  0  0
  -25.2484  -13.8019   20.5584 C   0  0  0  0  0  0
  -24.1774  -13.0329   20.9171 C   0  0  0  0  0  0
  -24.6361  -11.6826   20.8741 C   0  0  0  0  0  0
  -23.9028  -10.4233   21.0398 C   0  0  0  0  0  0
  -24.3590   -9.4163   21.9175 C   0  0  0  0  0  0
  -23.6263   -8.2209   22.0763 C   0  0  0  0  0  0
  -22.4244   -8.0262   21.3561 C   0  0  0  0  0  0
  -21.9877   -9.0218   20.4658 C   0  0  0  0  0  0
  -22.7206  -10.2092   20.3048 C   0  0  0  0  0  0
  -21.6841   -6.0718   22.5289 C   0  0  0  0  0  0
  -21.3999   -6.5626   23.8219 C   0  0  0  0  0  0
  -21.3660   -5.6791   24.9189 C   0  0  0  0  0  0
  -21.6040   -4.3050   24.7247 C   0  0  0  0  0  0
  -21.8811   -3.8138   23.4367 C   0  0  0  0  0  0
  -21.9184   -4.6946   22.3421 C   0  0  0  0  0  0
  -22.7817  -13.5182   21.1838 C   0  0  0  0  0  0
  -22.1651   -4.2131   21.0995 F   0  0  0  0  0  0
  -21.5629   -3.4529   25.7752 F   0  0  0  0  0  0
  -30.0377  -13.2393   20.4607 N   0  0  0  0  0  0
  -26.2980  -12.9252   20.3365 N   0  0  0  0  0  0
  -25.9290  -11.6415   20.5774 N   0  0  0  0  0  0
  -22.0445  -12.8210   22.0409 N   0  0  0  0  0  0
  -25.3971  -15.1677   20.3787 N   0  0  0  0  0  0
  -31.7856  -14.6515   20.0611 O   0  0  0  0  0  0
  -21.6625   -6.8855   21.4248 O   0  0  0  0  0  0
  -22.3548  -14.5514   20.6713 O   0  0  0  0  0  0
  -24.6110  -31.8709   23.2126 C   0  0  0  0  0  0
  -25.9025  -32.4827   23.8410 C   0  0  1  0  0  0
  -27.2401  -27.4703   20.0833 C   0  0  0  0  0  0
  -25.5905  -33.8629   24.2345 N   0  0  0  0  0  0
  -23.3960  -30.4959   21.5524 C   0  0  2  0  0  0
  -24.8400  -28.9643   20.1200 C   0  0  0  0  0  0
  -22.7388  -29.4669   22.4999 C   0  0  0  0  0  0
  -18.0270  -28.1357   22.8508 C   0  0  0  0  0  0
  -24.1485  -36.7316   23.2639 C   0  0  0  0  0  0
  -25.9222  -30.8458   21.3618 C   0  0  0  0  0  0
  -25.9984  -29.4839   20.7096 C   0  0  0  0  0  0
  -27.1984  -28.7453   20.6848 C   0  0  0  0  0  0
  -26.0550  -26.9498   19.5080 C   0  0  0  0  0  0
  -24.8609  -27.6943   19.5208 C   0  0  0  0  0  0
  -23.6024  -29.8280   20.1677 C   0  0  0  0  0  0
  -25.4109  -36.3116   24.0342 C   0  0  1  0  0  0
  -20.5862  -28.3645   23.1326 C   0  0  2  0  0  0
  -20.6763  -26.9385   22.5419 C   0  0  0  0  0  0
  -19.5740  -26.6379   21.5213 C   0  0  0  0  0  0
  -18.1920  -26.7912   22.1625 C   0  0  0  0  0  0
  -19.1522  -28.8818   23.2914 C   0  0  0  0  0  0
  -18.9449  -30.1424   23.8919 C   0  0  0  0  0  0
  -17.6454  -30.6574   24.0566 C   0  0  0  0  0  0
  -25.9036  -34.9476   23.5140 C   0  0  0  0  0  0
  -16.5342  -29.9077   23.6329 C   0  0  0  0  0  0
  -16.7259  -28.6485   23.0368 C   0  0  0  0  0  0
  -26.4472  -31.6596   25.0715 C   0  0  0  0  0  0
  -25.3772  -31.3688   26.1490 C   0  0  0  0  0  0
  -27.0305  -30.3049   24.6055 C   0  0  0  0  0  0
  -27.6047  -32.4318   25.7482 C   0  0  0  0  0  0
  -27.5581  -37.1816   24.8465 C   0  0  0  0  0  0
  -21.4120  -29.3028   22.3744 N   0  0  0  0  0  0
  -26.4291  -37.3798   23.9409 N   0  0  0  0  0  0
  -24.6610  -31.0851   22.1002 N   0  0  0  0  0  0
  -23.4178  -28.8225   23.3044 O   0  0  0  0  0  0
  -28.4488  -26.8066   20.0742 O   0  0  0  0  0  0
  -26.5573  -34.8914   22.4683 O   0  0  0  0  0  0
  -23.5314  -32.1436   23.7550 O   0  0  0  0  0  0
  -28.6843  -16.4674   21.2484 C   0  0  0  0  0  0
  -28.9565  -15.7752   23.5702 C   0  0  0  0  0  0
  -27.0309  -17.1638   22.9197 C   0  0  0  0  0  0
  -29.3954  -15.7372   22.2249 C   0  0  0  0  0  0
  -27.7723  -16.4698   23.9018 C   0  0  0  0  0  0
  -27.5173  -17.1803   21.5857 C   0  0  0  0  0  0
  -29.7084  -15.0462   24.6757 C   0  0  0  0  0  0
  -25.6972  -17.7984   23.3336 C   0  0  0  0  0  0
  -27.3367  -22.4703   22.3118 C   0  0  0  0  0  0
  -27.5534  -23.2731   21.0188 C   0  0  0  0  0  0
  -26.4258  -21.2661   22.0407 C   0  0  0  0  0  0
  -28.0169  -24.7135   21.2518 C   0  0  0  0  0  0
  -26.3675  -20.2222   23.1682 C   0  0  0  0  0  0
  -28.4571  -25.3896   19.9402 C   0  0  0  0  0  0
  -30.5578  -14.9917   21.8804 N   0  0  0  0  0  0
  -25.4287  -19.1459   22.7891 N   0  3  0  0  0  0
  -27.3318  -16.4461   25.1840 F   0  0  0  0  0  0
  -26.7154  -18.0422   20.3146 Cl  0  0  0  0  0  0
  -31.4464  -12.4051   19.0754 H   0  0  0  0  0  0
  -30.3050  -11.2782   19.7399 H   0  0  0  0  0  0
  -29.7054  -11.8459   17.3783 H   0  0  0  0  0  0
  -29.6348  -13.5442   17.7838 H   0  0  0  0  0  0
  -27.8068  -11.3266   18.7732 H   0  0  0  0  0  0
  -27.3392  -12.6844   17.7853 H   0  0  0  0  0  0
  -27.7131  -14.2550   19.6137 H   0  0  0  0  0  0
  -28.6691  -11.8701   21.2717 H   0  0  0  0  0  0
  -28.4380  -13.4531   21.9000 H   0  0  0  0  0  0
  -25.2729   -9.5648   22.4745 H   0  0  0  0  0  0
  -23.9969   -7.4600   22.7494 H   0  0  0  0  0  0
  -21.0802   -8.8738   19.8970 H   0  0  0  0  0  0
  -22.3658  -10.9630   19.6164 H   0  0  0  0  0  0
  -21.1987   -7.6133   23.9717 H   0  0  0  0  0  0
  -21.1494   -6.0522   25.9093 H   0  0  0  0  0  0
  -22.0594   -2.7597   23.2882 H   0  0  0  0  0  0
  -22.4031  -11.9833   22.4743 H   0  0  0  0  0  0
  -21.1071  -13.1263   22.2623 H   0  0  0  0  0  0
  -24.5757  -15.7582   20.3470 H   0  0  0  0  0  0
  -26.1983  -15.5846   19.9232 H   0  0  0  0  0  0
  -26.7097  -32.5540   23.1179 H   0  0  0  0  0  0
  -25.0108  -33.9804   25.0527 H   0  0  0  0  0  0
  -22.6821  -31.3108   21.4165 H   0  0  0  0  0  0
  -23.3735  -35.9662   23.3312 H   0  0  0  0  0  0
  -24.3586  -36.8909   22.2050 H   0  0  0  0  0  0
  -23.7245  -37.6528   23.6643 H   0  0  0  0  0  0
  -26.0356  -31.6139   20.5951 H   0  0  0  0  0  0
  -26.8106  -30.8938   21.9799 H   0  0  0  0  0  0
  -28.0967  -29.1510   21.1289 H   0  0  0  0  0  0
  -26.0232  -25.9818   19.0328 H   0  0  0  0  0  0
  -23.9688  -27.2831   19.0679 H   0  0  0  0  0  0
  -23.7101  -30.6017   19.4065 H   0  0  0  0  0  0
  -22.7274  -29.2468   19.8720 H   0  0  0  0  0  0
  -25.1286  -36.1987   25.0836 H   0  0  0  0  0  0
  -20.9959  -28.3201   24.1441 H   0  0  0  0  0  0
  -20.5673  -26.2244   23.3597 H   0  0  0  0  0  0
  -21.6633  -26.7437   22.1207 H   0  0  0  0  0  0
  -19.6895  -25.6297   21.1219 H   0  0  0  0  0  0
  -19.6676  -27.3207   20.6758 H   0  0  0  0  0  0
  -17.4200  -26.6684   21.4011 H   0  0  0  0  0  0
  -18.0301  -26.0030   22.8992 H   0  0  0  0  0  0
  -19.7922  -30.7241   24.2291 H   0  0  0  0  0  0
  -17.5007  -31.6260   24.5152 H   0  0  0  0  0  0
  -15.5338  -30.2990   23.7629 H   0  0  0  0  0  0
  -15.8660  -28.0802   22.7083 H   0  0  0  0  0  0
  -24.5934  -30.7034   25.7845 H   0  0  0  0  0  0
  -24.8983  -32.2840   26.4975 H   0  0  0  0  0  0
  -25.8164  -30.8843   27.0221 H   0  0  0  0  0  0
  -26.2818  -29.6794   24.1168 H   0  0  0  0  0  0
  -27.4158  -29.7289   25.4479 H   0  0  0  0  0  0
  -27.8623  -30.4375   23.9135 H   0  0  0  0  0  0
  -27.2649  -33.3600   26.2093 H   0  0  0  0  0  0
  -28.3843  -32.6911   25.0305 H   0  0  0  0  0  0
  -28.0734  -31.8427   26.5373 H   0  0  0  0  0  0
  -28.2612  -38.0101   24.7509 H   0  0  0  0  0  0
  -28.1064  -36.2634   24.6304 H   0  0  0  0  0  0
  -27.2302  -37.1479   25.8869 H   0  0  0  0  0  0
  -20.9261  -29.8746   21.6978 H   0  0  0  0  0  0
  -26.0177  -38.2875   24.1410 H   0  0  0  0  0  0
  -29.0232  -16.4878   20.2235 H   0  0  0  0  0  0
  -30.7645  -14.9086   24.4468 H   0  0  0  0  0  0
  -29.2670  -14.0655   24.8532 H   0  0  0  0  0  0
  -29.6585  -15.6113   25.6062 H   0  0  0  0  0  0
  -25.6173  -17.8560   24.4198 H   0  0  0  0  0  0
  -24.8994  -17.1297   23.0074 H   0  0  0  0  0  0
  -26.8908  -23.0964   23.0861 H   0  0  0  0  0  0
  -28.3033  -22.1404   22.6965 H   0  0  0  0  0  0
  -26.6231  -23.3120   20.4491 H   0  0  0  0  0  0
  -28.2726  -22.7455   20.3900 H   0  0  0  0  0  0
  -26.7691  -20.7763   21.1289 H   0  0  0  0  0  0
  -25.4202  -21.6326   21.8275 H   0  0  0  0  0  0
  -28.8366  -24.7439   21.9696 H   0  0  0  0  0  0
  -27.1958  -25.2669   21.7082 H   0  0  0  0  0  0
  -26.0488  -20.6693   24.1111 H   0  0  0  0  0  0
  -27.3678  -19.8218   23.3337 H   0  0  0  0  0  0
  -27.8758  -25.0541   19.0826 H   0  0  0  0  0  0
  -29.4799  -25.0844   19.7147 H   0  0  0  0  0  0
  -31.4002  -15.3909   22.2672 H   0  0  0  0  0  0
  -24.4948  -19.4201   23.0522 H   0  0  0  0  0  0
  -25.4471  -19.0509   21.7848 H   0  0  0  0  0  0
  1 25  1  0  0  0
  1 30  2  0  0  0
  1 85  1  0  0  0
  2  3  1  0  0  0
  2 25  1  0  0  0
  2 89  1  0  0  0
  2 90  1  0  0  0
  3  4  1  0  0  0
  3 91  1  0  0  0
  3 92  1  0  0  0
  4  5  1  0  0  0
  4 93  1  0  0  0
  4 94  1  0  0  0
  5  6  1  0  0  0
  5 26  1  0  0  0
  5 95  1  0  0  0
  6 25  1  0  0  0
  6 96  1  0  0  0
  6 97  1  0  0  0
  7  8  2  0  0  0
  7 26  1  0  0  0
  7 29  1  0  0  0
  8  9  1  0  0  0
  8 22  1  0  0  0
  9 10  1  0  0  0
  9 27  2  0  0  0
 10 11  2  0  0  0
 10 15  1  0  0  0
 11 12  1  0  0  0
 11 98  1  0  0  0
 12 13  2  0  0  0
 12 99  1  0  0  0
 13 14  1  0  0  0
 13 31  1  0  0  0
 14 15  2  0  0  0
 14100  1  0  0  0
 15101  1  0  0  0
 16 17  2  0  0  0
 16 21  1  0  0  0
 16 31  1  0  0  0
 17 18  1  0  0  0
 17102  1  0  0  0
 18 19  2  0  0  0
 18103  1  0  0  0
 19 20  1  0  0  0
 19 24  1  0  0  0
 20 21  2  0  0  0
 20104  1  0  0  0
 21 23  1  0  0  0
 22 28  1  0  0  0
 22 32  2  0  0  0
 26 27  1  0  0  0
 28105  1  0  0  0
 28106  1  0  0  0
 29107  1  0  0  0
 29108  1  0  0  0
 33 34  1  0  0  0
 33 66  1  0  0  0
 33 70  2  0  0  0
 34 36  1  0  0  0
 34 59  1  0  0  0
 34109  1  0  0  0
 35 44  2  0  0  0
 35 45  1  0  0  0
 35 68  1  0  0  0
 36 56  1  0  0  0
 36110  1  0  0  0
 37 39  1  0  0  0
 37 47  1  0  0  0
 37 66  1  0  0  0
 37111  1  0  0  0
 38 43  2  0  0  0
 38 46  1  0  0  0
 38 47  1  0  0  0
 39 64  1  0  0  0
 39 67  2  0  0  0
 40 52  1  0  0  0
 40 53  2  0  0  0
 40 58  1  0  0  0
 41112  1  0  0  0
 41113  1  0  0  0
 41114  1  0  0  0
 41 48  1  0  0  0
 42 43  1  0  0  0
 42 66  1  0  0  0
 42115  1  0  0  0
 42116  1  0  0  0
 43 44  1  0  0  0
 44117  1  0  0  0
 45 46  2  0  0  0
 45118  1  0  0  0
 46119  1  0  0  0
 47120  1  0  0  0
 47121  1  0  0  0
 48 56  1  0  0  0
 48 65  1  0  0  0
 48122  1  0  0  0
 49 50  1  0  0  0
 49 53  1  0  0  0
 49 64  1  0  0  0
 49123  1  0  0  0
 50 51  1  0  0  0
 50124  1  0  0  0
 50125  1  0  0  0
 51 52  1  0  0  0
 51126  1  0  0  0
 51127  1  0  0  0
 52128  1  0  0  0
 52129  1  0  0  0
 53 54  1  0  0  0
 54 55  2  0  0  0
 54130  1  0  0  0
 55 57  1  0  0  0
 55131  1  0  0  0
 56 69  2  0  0  0
 57 58  2  0  0  0
 57132  1  0  0  0
 58133  1  0  0  0
 59 60  1  0  0  0
 59 61  1  0  0  0
 59 62  1  0  0  0
 60134  1  0  0  0
 60135  1  0  0  0
 60136  1  0  0  0
 61137  1  0  0  0
 61138  1  0  0  0
 61139  1  0  0  0
 62140  1  0  0  0
 62141  1  0  0  0
 62142  1  0  0  0
 63 65  1  0  0  0
 63143  1  0  0  0
 63144  1  0  0  0
 63145  1  0  0  0
 64146  1  0  0  0
 65147  1  0  0  0
 68 84  1  0  0  0
 71 74  2  0  0  0
 71 76  1  0  0  0
 71148  1  0  0  0
 72 74  1  0  0  0
 72 75  2  0  0  0
 72 77  1  0  0  0
 73 75  1  0  0  0
 73 76  2  0  0  0
 73 78  1  0  0  0
 74 85  1  0  0  0
 75 87  1  0  0  0
 76 88  1  0  0  0
 77149  1  0  0  0
 77150  1  0  0  0
 77151  1  0  0  0
 78 86  1  0  0  0
 78152  1  0  0  0
 78153  1  0  0  0
 79 80  1  0  0  0
 79 81  1  0  0  0
 79154  1  0  0  0
 79155  1  0  0  0
 80 82  1  0  0  0
 80156  1  0  0  0
 80157  1  0  0  0
 81 83  1  0  0  0
 81158  1  0  0  0
 81159  1  0  0  0
 82 84  1  0  0  0
 82160  1  0  0  0
 82161  1  0  0  0
 83 86  1  0  0  0
 83162  1  0  0  0
 83163  1  0  0  0
 84164  1  0  0  0
 84165  1  0  0  0
 85166  1  0  0  0
 86167  1  0  0  0
 86168  1  0  0  0
M  CHG  1  86   1
M  ISO  4   1 100  68 101  84 101  85 100
M  END
> <chiral flag>
0

> <version>
0

> <s_m_source_file>
/data/baiqing/PycharmProjects/Reinvent-master-3.2/result/LINK_invent/BTK/process_docking_weight1_custom_sum_contain_oxygen_bond_distance_aromatic_linkinvent_7_9_3/rearranged_h_0020.sdf

> <i_m_source_file_index>
11

> <r_mmod_Potential_Energy-OPLS-2005>
-206.983932495117

> <r_mmod_Stretch_Energy-OPLS-2005>
33.3791923522949

> <r_mmod_Bend_Energy-OPLS-2005>
110.636192321777

> <r_mmod_Torsional_Energy-OPLS-2005>
250.288284301758

> <r_mmod_Improper_Torsional_Energy-OPLS-2005>
7.37805032730103

> <r_mmod_Van_der_Waal_Energy-OPLS-2005>
154.978164672852

> <r_mmod_Electrostatic_Energy-OPLS-2005>
-329.329498291016

> <r_mmod_Solvation_Energy-OPLS-2005>
-443.154388427734

> <b_mmod_Minimization_Converged-OPLS-2005>
0

> <r_mmod_RMS_Derivative-OPLS-2005>
1.90516543388367

$$$$
11
                    3D
 Structure written by MMmdl.
171179  0  0  1  0            999 V2000
  -30.7774  -14.4601   20.3503 C   0  0  0  0  0  0
  -30.3973  -12.2605   19.4159 C   0  0  0  0  0  0
  -29.4739  -12.4232   18.1939 C   0  0  0  0  0  0
  -27.9999  -12.2854   18.6257 C   0  0  0  0  0  0
  -27.6420  -13.1802   19.8407 C   0  0  2  0  0  0
  -28.7072  -13.1130   20.9599 C   0  0  0  0  0  0
  -25.2534  -13.8029   20.5687 C   0  0  0  0  0  0
  -24.1789  -13.0336   20.9207 C   0  0  0  0  0  0
  -24.6364  -11.6828   20.8792 C   0  0  0  0  0  0
  -23.9042  -10.4231   21.0436 C   0  0  0  0  0  0
  -24.3615   -9.4154   21.9210 C   0  0  0  0  0  0
  -23.6287   -8.2191   22.0760 C   0  0  0  0  0  0
  -22.4271   -8.0254   21.3548 C   0  0  0  0  0  0
  -21.9909   -9.0222   20.4647 C   0  0  0  0  0  0
  -22.7228  -10.2095   20.3060 C   0  0  0  0  0  0
  -21.6831   -6.0743   22.5293 C   0  0  0  0  0  0
  -21.4004   -6.5658   23.8229 C   0  0  0  0  0  0
  -21.3629   -5.6823   24.9194 C   0  0  0  0  0  0
  -21.6022   -4.3081   24.7252 C   0  0  0  0  0  0
  -21.8805   -3.8168   23.4380 C   0  0  0  0  0  0
  -21.9174   -4.6977   22.3426 C   0  0  0  0  0  0
  -22.7823  -13.5165   21.1910 C   0  0  0  0  0  0
  -22.1642   -4.2154   21.1014 F   0  0  0  0  0  0
  -21.5622   -3.4573   25.7773 F   0  0  0  0  0  0
  -30.0240  -13.3308   20.3454 N   0  0  0  0  0  0
  -26.2950  -12.9175   20.3320 N   0  0  0  0  0  0
  -25.9283  -11.6375   20.5851 N   0  0  0  0  0  0
  -22.0484  -12.8128   22.0467 N   0  0  0  0  0  0
  -25.4194  -15.1727   20.4132 N   0  0  0  0  0  0
  -32.0031  -14.4164   20.4241 O   0  0  0  0  0  0
  -21.6609   -6.8881   21.4249 O   0  0  0  0  0  0
  -22.3531  -14.5516   20.6818 O   0  0  0  0  0  0
  -24.6092  -31.8726   23.2137 C   0  0  0  0  0  0
  -25.9007  -32.4844   23.8425 C   0  0  1  0  0  0
  -27.2384  -27.4904   20.0805 C   0  0  0  0  0  0
  -25.5898  -33.8636   24.2376 N   0  0  0  0  0  0
  -23.3949  -30.4957   21.5527 C   0  0  2  0  0  0
  -24.8439  -28.9681   20.1121 C   0  0  0  0  0  0
  -22.7380  -29.4673   22.5003 C   0  0  0  0  0  0
  -18.0261  -28.1367   22.8484 C   0  0  0  0  0  0
  -24.1486  -36.7320   23.2628 C   0  0  0  0  0  0
  -25.9166  -30.8527   21.3607 C   0  0  0  0  0  0
  -25.9966  -29.4895   20.7129 C   0  0  0  0  0  0
  -27.1981  -28.7540   20.7040 C   0  0  0  0  0  0
  -26.0814  -26.9793   19.4631 C   0  0  0  0  0  0
  -24.8771  -27.7087   19.4875 C   0  0  0  0  0  0
  -23.6016  -29.8274   20.1661 C   0  0  0  0  0  0
  -25.4092  -36.3115   24.0353 C   0  0  1  0  0  0
  -20.5849  -28.3641   23.1322 C   0  0  2  0  0  0
  -20.6749  -26.9384   22.5404 C   0  0  0  0  0  0
  -19.5738  -26.6376   21.5194 C   0  0  0  0  0  0
  -18.1916  -26.7911   22.1609 C   0  0  0  0  0  0
  -19.1509  -28.8820   23.2902 C   0  0  0  0  0  0
  -18.9442  -30.1431   23.8913 C   0  0  0  0  0  0
  -17.6449  -30.6575   24.0557 C   0  0  0  0  0  0
  -25.9022  -34.9483   23.5163 C   0  0  0  0  0  0
  -16.5342  -29.9083   23.6315 C   0  0  0  0  0  0
  -16.7252  -28.6493   23.0340 C   0  0  0  0  0  0
  -26.4466  -31.6578   25.0711 C   0  0  0  0  0  0
  -25.3778  -31.3669   26.1500 C   0  0  0  0  0  0
  -27.0237  -30.3012   24.6013 C   0  0  0  0  0  0
  -27.6061  -32.4268   25.7469 C   0  0  0  0  0  0
  -27.5601  -37.1794   24.8449 C   0  0  0  0  0  0
  -21.4115  -29.3032   22.3741 N   0  0  0  0  0  0
  -26.4274  -37.3810   23.9443 N   0  0  0  0  0  0
  -24.6571  -31.0868   22.1021 N   0  0  0  0  0  0
  -23.4169  -28.8209   23.3023 O   0  0  0  0  0  0
  -28.3876  -26.7473   20.0409 O   0  0  0  0  0  0
  -26.5560  -34.8931   22.4704 O   0  0  0  0  0  0
  -23.5296  -32.1452   23.7580 O   0  0  0  0  0  0
  -27.0895  -18.1536   20.6377 C   0  0  0  0  0  0
  -27.9424  -17.6537   21.6614 C   0  0  0  0  0  0
  -27.1926  -17.6286   19.3165 C   0  0  0  0  0  0
  -29.0982  -16.2498   20.0273 C   0  0  0  0  0  0
  -28.9356  -16.7022   21.3522 C   0  0  0  0  0  0
  -28.1927  -16.6734   19.0218 C   0  0  0  0  0  0
  -27.8664  -18.1701   23.0919 C   0  0  0  0  0  0
  -26.2797  -18.0765   18.1727 C   0  0  0  0  0  0
  -31.1562  -16.2106   18.7144 C   0  0  0  0  0  0
  -26.1819  -19.3490   20.9265 C   0  0  0  0  0  0
  -27.7043  -24.1681   21.3757 C   0  0  0  0  0  0
  -27.9117  -22.6723   21.1300 C   0  0  0  0  0  0
  -29.0576  -24.9029   21.3891 C   0  0  0  0  0  0
  -26.6278  -21.8247   21.1158 C   0  0  0  0  0  0
  -28.9277  -26.4255   21.3176 C   0  0  0  0  0  0
  -30.2590  -15.5146   19.6649 N   0  0  0  0  0  0
  -26.9446  -20.5301   20.4907 N   0  3  0  0  0  0
  -29.7843  -16.2773   22.3209 F   0  0  0  0  0  0
  -28.3009  -16.0217   17.4133 Cl  0  0  0  0  0  0
  -31.4424  -12.3124   19.1055 H   0  0  0  0  0  0
  -30.2697  -11.2822   19.8831 H   0  0  0  0  0  0
  -29.7126  -11.6772   17.4349 H   0  0  0  0  0  0
  -29.6348  -13.3941   17.7240 H   0  0  0  0  0  0
  -27.8309  -11.2364   18.8752 H   0  0  0  0  0  0
  -27.3343  -12.5024   17.7879 H   0  0  0  0  0  0
  -27.6260  -14.1851   19.4485 H   0  0  0  0  0  0
  -28.6853  -12.1467   21.4659 H   0  0  0  0  0  0
  -28.5134  -13.8633   21.7288 H   0  0  0  0  0  0
  -25.2753   -9.5620   22.4803 H   0  0  0  0  0  0
  -23.9976   -7.4576   22.7471 H   0  0  0  0  0  0
  -21.0830   -8.8742   19.8956 H   0  0  0  0  0  0
  -22.3685  -10.9658   19.6195 H   0  0  0  0  0  0
  -21.2001   -7.6177   23.9735 H   0  0  0  0  0  0
  -21.1448   -6.0566   25.9097 H   0  0  0  0  0  0
  -22.0602   -2.7630   23.2892 H   0  0  0  0  0  0
  -22.4087  -11.9706   22.4702 H   0  0  0  0  0  0
  -21.1122  -13.1161   22.2803 H   0  0  0  0  0  0
  -24.6471  -15.8180   20.5312 H   0  0  0  0  0  0
  -26.2722  -15.6272   20.1243 H   0  0  0  0  0  0
  -26.7077  -32.5590   23.1194 H   0  0  0  0  0  0
  -25.0121  -33.9797   25.0573 H   0  0  0  0  0  0
  -22.6808  -31.3102   21.4162 H   0  0  0  0  0  0
  -23.3761  -35.9639   23.3243 H   0  0  0  0  0  0
  -24.3621  -36.8967   22.2058 H   0  0  0  0  0  0
  -23.7210  -37.6509   23.6649 H   0  0  0  0  0  0
  -26.0201  -31.6189   20.5907 H   0  0  0  0  0  0
  -26.8076  -30.9111   21.9734 H   0  0  0  0  0  0
  -28.0898  -29.1594   21.1602 H   0  0  0  0  0  0
  -26.1132  -26.0191   18.9682 H   0  0  0  0  0  0
  -23.9927  -27.3068   19.0123 H   0  0  0  0  0  0
  -23.7028  -30.6023   19.4051 H   0  0  0  0  0  0
  -22.7279  -29.2422   19.8735 H   0  0  0  0  0  0
  -25.1249  -36.1984   25.0845 H   0  0  0  0  0  0
  -20.9940  -28.3206   24.1447 H   0  0  0  0  0  0
  -20.5632  -26.2263   23.3586 H   0  0  0  0  0  0
  -21.6629  -26.7426   22.1227 H   0  0  0  0  0  0
  -19.6904  -25.6291   21.1219 H   0  0  0  0  0  0
  -19.6673  -27.3186   20.6723 H   0  0  0  0  0  0
  -17.4181  -26.6644   21.4015 H   0  0  0  0  0  0
  -18.0328  -26.0048   22.9003 H   0  0  0  0  0  0
  -19.7923  -30.7225   24.2301 H   0  0  0  0  0  0
  -17.5012  -31.6258   24.5145 H   0  0  0  0  0  0
  -15.5347  -30.2990   23.7624 H   0  0  0  0  0  0
  -15.8652  -28.0814   22.7056 H   0  0  0  0  0  0
  -24.5929  -30.7026   25.7872 H   0  0  0  0  0  0
  -24.9007  -32.2821   26.5008 H   0  0  0  0  0  0
  -25.8192  -30.8813   27.0212 H   0  0  0  0  0  0
  -26.2726  -29.6830   24.1083 H   0  0  0  0  0  0
  -27.4028  -29.7184   25.4416 H   0  0  0  0  0  0
  -27.8569  -30.4314   23.9102 H   0  0  0  0  0  0
  -27.2691  -33.3561   26.2074 H   0  0  0  0  0  0
  -28.3866  -32.6836   25.0294 H   0  0  0  0  0  0
  -28.0724  -31.8367   26.5368 H   0  0  0  0  0  0
  -28.2542  -38.0168   24.7616 H   0  0  0  0  0  0
  -28.1170  -36.2713   24.6096 H   0  0  0  0  0  0
  -27.2355  -37.1234   25.8855 H   0  0  0  0  0  0
  -20.9254  -29.8781   21.6997 H   0  0  0  0  0  0
  -26.0165  -38.2878   24.1500 H   0  0  0  0  0  0
  -28.0506  -19.2435   23.1333 H   0  0  0  0  0  0
  -28.6070  -17.7065   23.7424 H   0  0  0  0  0  0
  -26.8869  -17.9626   23.5218 H   0  0  0  0  0  0
  -25.6297  -18.9185   18.3901 H   0  0  0  0  0  0
  -25.6456  -17.2434   17.8631 H   0  0  0  0  0  0
  -26.8728  -18.3759   17.3090 H   0  0  0  0  0  0
  -31.3534  -15.5809   17.8454 H   0  0  0  0  0  0
  -32.1170  -16.4740   19.1596 H   0  0  0  0  0  0
  -30.7428  -17.1512   18.3511 H   0  0  0  0  0  0
  -25.9375  -19.4171   21.9845 H   0  0  0  0  0  0
  -25.2176  -19.2846   20.4227 H   0  0  0  0  0  0
  -27.1708  -24.3450   22.3114 H   0  0  0  0  0  0
  -27.0732  -24.5627   20.5796 H   0  0  0  0  0  0
  -28.5962  -22.2693   21.8792 H   0  0  0  0  0  0
  -28.4201  -22.5725   20.1695 H   0  0  0  0  0  0
  -29.6674  -24.5721   20.5468 H   0  0  0  0  0  0
  -29.6098  -24.6243   22.2872 H   0  0  0  0  0  0
  -25.8292  -22.3051   20.5485 H   0  0  0  0  0  0
  -26.2656  -21.6924   22.1364 H   0  0  0  0  0  0
  -29.9098  -26.8893   21.4131 H   0  0  0  0  0  0
  -28.3190  -26.7841   22.1506 H   0  0  0  0  0  0
  -26.8908  -20.6165   19.4898 H   0  0  0  0  0  0
  -27.9034  -20.3348   20.7190 H   0  0  0  0  0  0
  1 25  1  0  0  0
  1 30  2  0  0  0
  1 86  1  0  0  0
  2  3  1  0  0  0
  2 25  1  0  0  0
  2 90  1  0  0  0
  2 91  1  0  0  0
  3  4  1  0  0  0
  3 92  1  0  0  0
  3 93  1  0  0  0
  4  5  1  0  0  0
  4 94  1  0  0  0
  4 95  1  0  0  0
  5  6  1  0  0  0
  5 26  1  0  0  0
  5 96  1  0  0  0
  6 25  1  0  0  0
  6 97  1  0  0  0
  6 98  1  0  0  0
  7  8  2  0  0  0
  7 26  1  0  0  0
  7 29  1  0  0  0
  8  9  1  0  0  0
  8 22  1  0  0  0
  9 10  1  0  0  0
  9 27  2  0  0  0
 10 11  2  0  0  0
 10 15  1  0  0  0
 11 12  1  0  0  0
 11 99  1  0  0  0
 12 13  2  0  0  0
 12100  1  0  0  0
 13 14  1  0  0  0
 13 31  1  0  0  0
 14 15  2  0  0  0
 14101  1  0  0  0
 15102  1  0  0  0
 16 17  2  0  0  0
 16 21  1  0  0  0
 16 31  1  0  0  0
 17 18  1  0  0  0
 17103  1  0  0  0
 18 19  2  0  0  0
 18104  1  0  0  0
 19 20  1  0  0  0
 19 24  1  0  0  0
 20 21  2  0  0  0
 20105  1  0  0  0
 21 23  1  0  0  0
 22 28  1  0  0  0
 22 32  2  0  0  0
 26 27  1  0  0  0
 28106  1  0  0  0
 28107  1  0  0  0
 29108  1  0  0  0
 29109  1  0  0  0
 33 34  1  0  0  0
 33 66  1  0  0  0
 33 70  2  0  0  0
 34 36  1  0  0  0
 34 59  1  0  0  0
 34110  1  0  0  0
 35 44  2  0  0  0
 35 45  1  0  0  0
 35 68  1  0  0  0
 36 56  1  0  0  0
 36111  1  0  0  0
 37 39  1  0  0  0
 37 47  1  0  0  0
 37 66  1  0  0  0
 37112  1  0  0  0
 38 43  2  0  0  0
 38 46  1  0  0  0
 38 47  1  0  0  0
 39 64  1  0  0  0
 39 67  2  0  0  0
 40 52  1  0  0  0
 40 53  2  0  0  0
 40 58  1  0  0  0
 41113  1  0  0  0
 41114  1  0  0  0
 41115  1  0  0  0
 41 48  1  0  0  0
 42 43  1  0  0  0
 42 66  1  0  0  0
 42116  1  0  0  0
 42117  1  0  0  0
 43 44  1  0  0  0
 44118  1  0  0  0
 45 46  2  0  0  0
 45119  1  0  0  0
 46120  1  0  0  0
 47121  1  0  0  0
 47122  1  0  0  0
 48 56  1  0  0  0
 48 65  1  0  0  0
 48123  1  0  0  0
 49 50  1  0  0  0
 49 53  1  0  0  0
 49 64  1  0  0  0
 49124  1  0  0  0
 50 51  1  0  0  0
 50125  1  0  0  0
 50126  1  0  0  0
 51 52  1  0  0  0
 51127  1  0  0  0
 51128  1  0  0  0
 52129  1  0  0  0
 52130  1  0  0  0
 53 54  1  0  0  0
 54 55  2  0  0  0
 54131  1  0  0  0
 55 57  1  0  0  0
 55132  1  0  0  0
 56 69  2  0  0  0
 57 58  2  0  0  0
 57133  1  0  0  0
 58134  1  0  0  0
 59 60  1  0  0  0
 59 61  1  0  0  0
 59 62  1  0  0  0
 60135  1  0  0  0
 60136  1  0  0  0
 60137  1  0  0  0
 61138  1  0  0  0
 61139  1  0  0  0
 61140  1  0  0  0
 62141  1  0  0  0
 62142  1  0  0  0
 62143  1  0  0  0
 63 65  1  0  0  0
 63144  1  0  0  0
 63145  1  0  0  0
 63146  1  0  0  0
 64147  1  0  0  0
 65148  1  0  0  0
 68 85  1  0  0  0
 71 72  2  0  0  0
 71 73  1  0  0  0
 71 80  1  0  0  0
 72 75  1  0  0  0
 72 77  1  0  0  0
 73 76  2  0  0  0
 73 78  1  0  0  0
 74 75  2  0  0  0
 74 76  1  0  0  0
 74 86  1  0  0  0
 75 88  1  0  0  0
 76 89  1  0  0  0
 77149  1  0  0  0
 77150  1  0  0  0
 77151  1  0  0  0
 78152  1  0  0  0
 78153  1  0  0  0
 78154  1  0  0  0
 79 86  1  0  0  0
 79155  1  0  0  0
 79156  1  0  0  0
 79157  1  0  0  0
 80 87  1  0  0  0
 80158  1  0  0  0
 80159  1  0  0  0
 81 82  1  0  0  0
 81 83  1  0  0  0
 81160  1  0  0  0
 81161  1  0  0  0
 82 84  1  0  0  0
 82162  1  0  0  0
 82163  1  0  0  0
 83 85  1  0  0  0
 83164  1  0  0  0
 83165  1  0  0  0
 84 87  1  0  0  0
 84166  1  0  0  0
 84167  1  0  0  0
 85168  1  0  0  0
 85169  1  0  0  0
 87170  1  0  0  0
 87171  1  0  0  0
M  CHG  1  87   1
M  ISO  4   1 100  68 101  85 101  86 100
M  END
> <chiral flag>
0

> <version>
0

> <s_m_source_file>
/data/baiqing/PycharmProjects/Reinvent-master-3.2/result/LINK_invent/BTK/process_docking_weight1_custom_sum_contain_oxygen_bond_distance_aromatic_linkinvent_7_9_3/rearranged_h_0020.sdf

> <i_m_source_file_index>
12

> <r_mmod_Potential_Energy-OPLS-2005>
-0.0297435242682695

> <r_mmod_Stretch_Energy-OPLS-2005>
35.7417030334473

> <r_mmod_Bend_Energy-OPLS-2005>
112.158157348633

> <r_mmod_Torsional_Energy-OPLS-2005>
323.8349609375

> <r_mmod_Improper_Torsional_Energy-OPLS-2005>
23.7483749389648

> <r_mmod_Van_der_Waal_Energy-OPLS-2005>
162.405731201172

> <r_mmod_Electrostatic_Energy-OPLS-2005>
-248.180114746094

> <r_mmod_Solvation_Energy-OPLS-2005>
-460.377655029297

> <b_mmod_Minimization_Converged-OPLS-2005>
0

> <r_mmod_RMS_Derivative-OPLS-2005>
3.04392552375793

$$$$
12
                    3D
 Structure written by MMmdl.
162170  0  0  1  0            999 V2000
  -30.7441  -14.7829   20.6895 C   0  0  0  0  0  0
  -31.0570  -12.8275   18.9522 C   0  0  0  0  0  0
  -29.8798  -12.4346   17.9960 C   0  0  0  0  0  0
  -28.6947  -13.3783   18.2387 C   0  0  0  0  0  0
  -28.1690  -13.7809   19.8000 C   0  0  2  0  0  0
  -29.5074  -12.9187   20.4307 C   0  0  0  0  0  0
  -24.8457  -14.2877   20.7195 C   0  0  0  0  0  0
  -23.8566  -13.3300   20.9079 C   0  0  0  0  0  0
  -24.3736  -12.0516   20.9631 C   0  0  0  0  0  0
  -23.8094  -10.6356   21.1050 C   0  0  0  0  0  0
  -24.2211   -9.6394   22.0405 C   0  0  0  0  0  0
  -23.5907   -8.3676   22.1327 C   0  0  0  0  0  0
  -22.4514   -8.0789   21.3467 C   0  0  0  0  0  0
  -22.0391   -9.0458   20.4114 C   0  0  0  0  0  0
  -22.7186  -10.2770   20.2780 C   0  0  0  0  0  0
  -21.7110   -6.0923   22.5194 C   0  0  0  0  0  0
  -21.4155   -6.5767   23.8135 C   0  0  0  0  0  0
  -21.3692   -5.6896   24.9095 C   0  0  0  0  0  0
  -21.6027   -4.3147   24.7162 C   0  0  0  0  0  0
  -21.8792   -3.8251   23.4278 C   0  0  0  0  0  0
  -21.9273   -4.7094   22.3345 C   0  0  0  0  0  0
  -22.4468  -13.6280   21.1337 C   0  0  0  0  0  0
  -22.1715   -4.2220   21.0944 F   0  0  0  0  0  0
  -21.5570   -3.4626   25.7675 F   0  0  0  0  0  0
  -30.5632  -13.5733   20.1133 N   0  0  0  0  0  0
  -26.1401  -13.7581   20.7509 N   0  0  0  0  0  0
  -25.4647  -12.5567   21.4168 N   0  0  0  0  0  0
  -21.8163  -12.8607   22.0122 N   0  0  0  0  0  0
  -24.5981  -15.6113   20.5488 N   0  0  0  0  0  0
  -31.8179  -15.2985   20.4155 O   0  0  0  0  0  0
  -21.7168   -6.9099   21.4112 O   0  0  0  0  0  0
  -21.9438  -14.6121   20.6133 O   0  0  0  0  0  0
  -24.7168  -31.7568   23.1284 C   0  0  0  0  0  0
  -25.9603  -32.4229   23.7920 C   0  0  1  0  0  0
  -26.9352  -26.2224   20.2567 C   0  0  0  0  0  0
  -25.6049  -33.8093   24.1757 N   0  0  0  0  0  0
  -23.5400  -30.3659   21.4960 C   0  0  2  0  0  0
  -24.9405  -28.6328   20.1012 C   0  0  0  0  0  0
  -22.7841  -29.4116   22.4620 C   0  0  0  0  0  0
  -18.0340  -28.1427   22.8441 C   0  0  0  0  0  0
  -24.1497  -36.7054   23.2660 C   0  0  0  0  0  0
  -26.1288  -30.3202   21.4583 C   0  0  0  0  0  0
  -26.1285  -28.8445   20.8055 C   0  0  0  0  0  0
  -27.1107  -27.6687   20.8483 C   0  0  0  0  0  0
  -25.7870  -26.3543   19.4389 C   0  0  0  0  0  0
  -24.8418  -27.4301   19.3836 C   0  0  0  0  0  0
  -23.7948  -29.6670   20.1265 C   0  0  0  0  0  0
  -25.4160  -36.2766   24.0258 C   0  0  1  0  0  0
  -20.5981  -28.3787   23.1098 C   0  0  2  0  0  0
  -20.6787  -26.9424   22.5410 C   0  0  0  0  0  0
  -19.5772  -26.6352   21.5216 C   0  0  0  0  0  0
  -18.1953  -26.7949   22.1611 C   0  0  0  0  0  0
  -19.1614  -28.8939   23.2743 C   0  0  0  0  0  0
  -18.9516  -30.1518   23.8798 C   0  0  0  0  0  0
  -17.6505  -30.6605   24.0542 C   0  0  0  0  0  0
  -25.9173  -34.9163   23.4868 C   0  0  0  0  0  0
  -16.5393  -29.9083   23.6358 C   0  0  0  0  0  0
  -16.7318  -28.6508   23.0372 C   0  0  0  0  0  0
  -26.4652  -31.6443   25.0710 C   0  0  0  0  0  0
  -25.3629  -31.3877   26.1270 C   0  0  0  0  0  0
  -27.0628  -30.2735   24.6908 C   0  0  0  0  0  0
  -27.6035  -32.4397   25.7530 C   0  0  0  0  0  0
  -27.5553  -37.1687   24.8469 C   0  0  0  0  0  0
  -21.4469  -29.2983   22.3385 N   0  0  0  0  0  0
  -26.4252  -37.3572   23.9417 N   0  0  0  0  0  0
  -24.8279  -30.8609   22.0767 N   0  0  0  0  0  0
  -23.4163  -28.7737   23.3071 O   0  0  0  0  0  0
  -27.6098  -24.7171   20.3770 O   0  0  0  0  0  0
  -26.5855  -34.8810   22.4515 O   0  0  0  0  0  0
  -23.6132  -32.0882   23.6019 O   0  0  0  0  0  0
  -26.2866  -12.8982   18.6453 C   0  0  0  0  0  0
  -26.5066  -15.0998   18.7356 C   0  0  0  0  0  0
  -27.2666  -11.7245   20.2004 C   0  0  1  0  0  0
  -27.2694  -16.3632   20.2997 C   0  0  1  0  0  0
  -27.8433  -13.0058   22.0809 C   0  0  2  0  0  0
  -28.1548  -15.1093   21.7368 C   0  0  2  0  0  0
  -28.6454  -12.2686   23.2099 C   0  0  0  0  0  0
  -27.3517  -18.5476   19.9807 C   0  0  0  0  0  0
  -27.5013  -20.6676   20.5271 C   0  0  0  0  0  0
  -27.2489  -22.8026   20.0736 C   0  0  0  0  0  0
  -27.0768  -10.2006   20.4392 C   0  0  0  0  0  0
  -29.7244  -15.3211   21.5406 N   0  0  0  0  0  0
  -28.1610   -9.4893   20.0985 F   0  0  0  0  0  0
  -26.9199   -9.9593   21.7321 F   0  0  0  0  0  0
  -26.0660   -9.7238   19.7168 F   0  0  0  0  0  0
  -31.7444  -13.4791   18.4082 H   0  0  0  0  0  0
  -31.6442  -11.9578   19.2535 H   0  0  0  0  0  0
  -29.6051  -11.3874   18.1167 H   0  0  0  0  0  0
  -30.2146  -12.5084   16.9603 H   0  0  0  0  0  0
  -29.2086  -14.2861   17.8995 H   0  0  0  0  0  0
  -28.0857  -13.4083   17.3403 H   0  0  0  0  0  0
  -28.5552  -14.7521   19.5653 H   0  0  0  0  0  0
  -29.6303  -11.8343   20.3443 H   0  0  0  0  0  0
  -29.9136  -12.8614   21.4327 H   0  0  0  0  0  0
  -24.9771   -9.8801   22.7696 H   0  0  0  0  0  0
  -23.9447   -7.6531   22.8614 H   0  0  0  0  0  0
  -21.1864   -8.8414   19.7795 H   0  0  0  0  0  0
  -22.3584  -10.9865   19.5466 H   0  0  0  0  0  0
  -21.2198   -7.6279   23.9666 H   0  0  0  0  0  0
  -21.1499   -6.0626   25.8995 H   0  0  0  0  0  0
  -22.0491   -2.7702   23.2770 H   0  0  0  0  0  0
  -22.2894  -12.0965   22.4711 H   0  0  0  0  0  0
  -20.8520  -13.0515   22.2418 H   0  0  0  0  0  0
  -23.6444  -15.9397   20.4335 H   0  0  0  0  0  0
  -25.2995  -16.2386   20.1800 H   0  0  0  0  0  0
  -26.7698  -32.4547   23.0623 H   0  0  0  0  0  0
  -25.0066  -33.9079   24.9825 H   0  0  0  0  0  0
  -22.8877  -31.2196   21.3037 H   0  0  0  0  0  0
  -23.3793  -35.9346   23.3228 H   0  0  0  0  0  0
  -24.3556  -36.8835   22.2095 H   0  0  0  0  0  0
  -23.7220  -37.6179   23.6828 H   0  0  0  0  0  0
  -26.3908  -31.0109   20.6555 H   0  0  0  0  0  0
  -26.9697  -30.3750   22.1354 H   0  0  0  0  0  0
  -27.9831  -27.8138   21.4701 H   0  0  0  0  0  0
  -25.5120  -25.4737   18.8747 H   0  0  0  0  0  0
  -23.9586  -27.2743   18.7790 H   0  0  0  0  0  0
  -24.0296  -30.4281   19.3818 H   0  0  0  0  0  0
  -22.8750  -29.1955   19.7759 H   0  0  0  0  0  0
  -25.1381  -36.1479   25.0745 H   0  0  0  0  0  0
  -21.0050  -28.3431   24.1230 H   0  0  0  0  0  0
  -20.5617  -26.2417   23.3693 H   0  0  0  0  0  0
  -21.6647  -26.7322   22.1250 H   0  0  0  0  0  0
  -19.6920  -25.6237   21.1308 H   0  0  0  0  0  0
  -19.6728  -27.3110   20.6706 H   0  0  0  0  0  0
  -17.4224  -26.6694   21.4012 H   0  0  0  0  0  0
  -18.0330  -26.0114   22.9027 H   0  0  0  0  0  0
  -19.7995  -30.7355   24.2123 H   0  0  0  0  0  0
  -17.5057  -31.6276   24.5163 H   0  0  0  0  0  0
  -15.5389  -30.2954   23.7742 H   0  0  0  0  0  0
  -15.8716  -28.0794   22.7144 H   0  0  0  0  0  0
  -24.5877  -30.7144   25.7597 H   0  0  0  0  0  0
  -24.8747  -32.3125   26.4356 H   0  0  0  0  0  0
  -25.7739  -30.9292   27.0273 H   0  0  0  0  0  0
  -26.3381  -29.6215   24.2026 H   0  0  0  0  0  0
  -27.3992  -29.7364   25.5788 H   0  0  0  0  0  0
  -27.9402  -30.3761   24.0520 H   0  0  0  0  0  0
  -27.2543  -33.3830   26.1742 H   0  0  0  0  0  0
  -28.4021  -32.6743   25.0482 H   0  0  0  0  0  0
  -28.0506  -31.8782   26.5744 H   0  0  0  0  0  0
  -28.2509  -38.0037   24.7523 H   0  0  0  0  0  0
  -28.1109  -36.2554   24.6286 H   0  0  0  0  0  0
  -27.2274  -37.1301   25.8872 H   0  0  0  0  0  0
  -20.9821  -29.8642   21.6423 H   0  0  0  0  0  0
  -26.0043  -38.2601   24.1446 H   0  0  0  0  0  0
  -26.4121  -12.4480   17.6592 H   0  0  0  0  0  0
  -25.2171  -12.7002   18.6691 H   0  0  0  0  0  0
  -25.5842  -15.5218   18.3340 H   0  0  0  0  0  0
  -27.1306  -15.3644   17.8815 H   0  0  0  0  0  0
  -27.9955  -11.4287   19.4708 H   0  0  0  0  0  0
  -26.5334  -16.5900   21.0504 H   0  0  0  0  0  0
  -27.0610  -13.1469   22.8340 H   0  0  0  0  0  0
  -27.9400  -15.5742   22.6986 H   0  0  0  0  0  0
  -29.2590  -11.4515   22.8278 H   0  0  0  0  0  0
  -27.9922  -11.8020   23.9502 H   0  0  0  0  0  0
  -29.2945  -12.9624   23.7449 H   0  0  0  0  0  0
  -26.3878  -18.6275   19.4777 H   0  0  0  0  0  0
  -28.0675  -18.5563   19.1592 H   0  0  0  0  0  0
  -28.5541  -20.6884   20.8070 H   0  0  0  0  0  0
  -26.9921  -20.6383   21.4906 H   0  0  0  0  0  0
  -26.1611  -22.8538   20.0316 H   0  0  0  0  0  0
  -27.5352  -22.7859   19.0223 H   0  0  0  0  0  0
  -30.0466  -16.1580   22.0050 H   0  0  0  0  0  0
  1 25  1  0  0  0
  1 30  2  0  0  0
  1 82  1  0  0  0
  2  3  1  0  0  0
  2 25  1  0  0  0
  2 86  1  0  0  0
  2 87  1  0  0  0
  3  4  1  0  0  0
  3 88  1  0  0  0
  3 89  1  0  0  0
  4  5  1  0  0  0
  4 90  1  0  0  0
  4 91  1  0  0  0
  5  6  1  0  0  0
  5 26  1  0  0  0
  5 92  1  0  0  0
  6 25  1  0  0  0
  6 93  1  0  0  0
  6 94  1  0  0  0
  7  8  2  0  0  0
  7 26  1  0  0  0
  7 29  1  0  0  0
  8  9  1  0  0  0
  8 22  1  0  0  0
  9 10  1  0  0  0
  9 27  2  0  0  0
 10 11  2  0  0  0
 10 15  1  0  0  0
 11 12  1  0  0  0
 11 95  1  0  0  0
 12 13  2  0  0  0
 12 96  1  0  0  0
 13 14  1  0  0  0
 13 31  1  0  0  0
 14 15  2  0  0  0
 14 97  1  0  0  0
 15 98  1  0  0  0
 16 17  2  0  0  0
 16 21  1  0  0  0
 16 31  1  0  0  0
 17 18  1  0  0  0
 17 99  1  0  0  0
 18 19  2  0  0  0
 18100  1  0  0  0
 19 20  1  0  0  0
 19 24  1  0  0  0
 20 21  2  0  0  0
 20101  1  0  0  0
 21 23  1  0  0  0
 22 28  1  0  0  0
 22 32  2  0  0  0
 26 27  1  0  0  0
 28102  1  0  0  0
 28103  1  0  0  0
 29104  1  0  0  0
 29105  1  0  0  0
 33 34  1  0  0  0
 33 66  1  0  0  0
 33 70  2  0  0  0
 34 36  1  0  0  0
 34 59  1  0  0  0
 34106  1  0  0  0
 35 44  2  0  0  0
 35 45  1  0  0  0
 35 68  1  0  0  0
 36 56  1  0  0  0
 36107  1  0  0  0
 37 39  1  0  0  0
 37 47  1  0  0  0
 37 66  1  0  0  0
 37108  1  0  0  0
 38 43  2  0  0  0
 38 46  1  0  0  0
 38 47  1  0  0  0
 39 64  1  0  0  0
 39 67  2  0  0  0
 40 52  1  0  0  0
 40 53  2  0  0  0
 40 58  1  0  0  0
 41109  1  0  0  0
 41110  1  0  0  0
 41111  1  0  0  0
 41 48  1  0  0  0
 42 43  1  0  0  0
 42 66  1  0  0  0
 42112  1  0  0  0
 42113  1  0  0  0
 43 44  1  0  0  0
 44114  1  0  0  0
 45 46  2  0  0  0
 45115  1  0  0  0
 46116  1  0  0  0
 47117  1  0  0  0
 47118  1  0  0  0
 48 56  1  0  0  0
 48 65  1  0  0  0
 48119  1  0  0  0
 49 50  1  0  0  0
 49 53  1  0  0  0
 49 64  1  0  0  0
 49120  1  0  0  0
 50 51  1  0  0  0
 50121  1  0  0  0
 50122  1  0  0  0
 51 52  1  0  0  0
 51123  1  0  0  0
 51124  1  0  0  0
 52125  1  0  0  0
 52126  1  0  0  0
 53 54  1  0  0  0
 54 55  2  0  0  0
 54127  1  0  0  0
 55 57  1  0  0  0
 55128  1  0  0  0
 56 69  2  0  0  0
 57 58  2  0  0  0
 57129  1  0  0  0
 58130  1  0  0  0
 59 60  1  0  0  0
 59 61  1  0  0  0
 59 62  1  0  0  0
 60131  1  0  0  0
 60132  1  0  0  0
 60133  1  0  0  0
 61134  1  0  0  0
 61135  1  0  0  0
 61136  1  0  0  0
 62137  1  0  0  0
 62138  1  0  0  0
 62139  1  0  0  0
 63 65  1  0  0  0
 63140  1  0  0  0
 63141  1  0  0  0
 63142  1  0  0  0
 64143  1  0  0  0
 65144  1  0  0  0
 68 80  1  0  0  0
 71 72  1  0  0  0
 71145  1  0  0  0
 71146  1  0  0  0
 71 73  1  0  0  0
 72 74  1  0  0  0
 72147  1  0  0  0
 72148  1  0  0  0
 73 75  1  0  0  0
 73 81  1  0  0  0
 73149  1  0  0  0
 74 76  1  0  0  0
 74 78  1  0  0  0
 74150  1  0  0  0
 75 76  1  0  0  0
 75 77  1  0  0  0
 75151  1  0  0  0
 76 82  1  0  0  0
 76152  1  0  0  0
 77153  1  0  0  0
 77154  1  0  0  0
 77155  1  0  0  0
 78 79  1  0  0  0
 78156  1  0  0  0
 78157  1  0  0  0
 79 80  1  0  0  0
 79158  1  0  0  0
 79159  1  0  0  0
 80160  1  0  0  0
 80161  1  0  0  0
 81 83  1  0  0  0
 81 84  1  0  0  0
 81 85  1  0  0  0
 82162  1  0  0  0
M  ISO  4   1 100  68 101  80 101  82 100
M  END
> <chiral flag>
0

> <version>
0

> <s_m_source_file>
/data/baiqing/PycharmProjects/Reinvent-master-3.2/result/LINK_invent/BTK/process_docking_weight1_custom_sum_contain_oxygen_bond_distance_aromatic_linkinvent_7_9_3/rearranged_h_0020.sdf

> <i_m_source_file_index>
13

> <r_mmod_Potential_Energy-OPLS-2005>
11940.9775390625

> <r_mmod_Stretch_Energy-OPLS-2005>
6336.13037109375

> <r_mmod_Bend_Energy-OPLS-2005>
1558.43872070312

> <r_mmod_Torsional_Energy-OPLS-2005>
479.498138427734

> <r_mmod_Improper_Torsional_Energy-OPLS-2005>
13.6617527008057

> <r_mmod_Van_der_Waal_Energy-OPLS-2005>
2113.12158203125

> <r_mmod_Electrostatic_Energy-OPLS-2005>
-378.18603515625

> <r_mmod_Solvation_Energy-OPLS-2005>
-189.147338867188

> <b_mmod_Minimization_Converged-OPLS-2005>
0

> <r_mmod_RMS_Derivative-OPLS-2005>
2.84280943870544

$$$$
13
                    3D
 Structure written by MMmdl.
168176  0  0  1  0            999 V2000
  -30.6456  -14.7239   20.4468 C   0  0  0  0  0  0
  -30.4266  -12.4426   19.4652 C   0  0  0  0  0  0
  -29.4967  -12.5036   18.2322 C   0  0  0  0  0  0
  -28.0244  -12.3268   18.6492 C   0  0  0  0  0  0
  -27.6370  -13.2265   19.8529 C   0  0  2  0  0  0
  -28.6919  -13.1734   20.9824 C   0  0  0  0  0  0
  -25.2432  -13.7982   20.5810 C   0  0  0  0  0  0
  -24.1731  -13.0248   20.9299 C   0  0  0  0  0  0
  -24.6391  -11.6789   20.8780 C   0  0  0  0  0  0
  -23.9093  -10.4184   21.0397 C   0  0  0  0  0  0
  -24.3637   -9.4121   21.9192 C   0  0  0  0  0  0
  -23.6305   -8.2175   22.0756 C   0  0  0  0  0  0
  -22.4277   -8.0251   21.3529 C   0  0  0  0  0  0
  -21.9919   -9.0204   20.4619 C   0  0  0  0  0  0
  -22.7274  -10.2061   20.3036 C   0  0  0  0  0  0
  -21.6834   -6.0760   22.5272 C   0  0  0  0  0  0
  -21.4040   -6.5666   23.8234 C   0  0  0  0  0  0
  -21.3645   -5.6796   24.9159 C   0  0  0  0  0  0
  -21.6007   -4.3053   24.7202 C   0  0  0  0  0  0
  -21.8835   -3.8175   23.4300 C   0  0  0  0  0  0
  -21.9202   -4.7010   22.3393 C   0  0  0  0  0  0
  -22.7749  -13.5074   21.1897 C   0  0  0  0  0  0
  -22.1689   -4.2215   21.0955 F   0  0  0  0  0  0
  -21.5587   -3.4522   25.7686 F   0  0  0  0  0  0
  -29.9913  -13.5155   20.3870 N   0  0  0  0  0  0
  -26.2908  -12.9290   20.3339 N   0  0  0  0  0  0
  -25.9341  -11.6412   20.5814 N   0  0  0  0  0  0
  -22.0370  -12.8079   22.0466 N   0  0  0  0  0  0
  -25.3852  -15.1614   20.4345 N   0  0  0  0  0  0
  -31.8423  -14.7879   20.1595 O   0  0  0  0  0  0
  -21.6618   -6.8867   21.4231 O   0  0  0  0  0  0
  -22.3429  -14.5368   20.6731 O   0  0  0  0  0  0
  -24.6293  -31.8542   23.1949 C   0  0  0  0  0  0
  -25.9146  -32.4732   23.8300 C   0  0  1  0  0  0
  -27.2575  -27.2934   20.1042 C   0  0  0  0  0  0
  -25.5957  -33.8535   24.2233 N   0  0  0  0  0  0
  -23.4252  -30.4748   21.5315 C   0  0  2  0  0  0
  -24.8868  -28.9212   20.1098 C   0  0  0  0  0  0
  -22.7412  -29.4627   22.4841 C   0  0  0  0  0  0
  -18.0218  -28.1406   22.8340 C   0  0  0  0  0  0
  -24.1503  -36.7268   23.2638 C   0  0  0  0  0  0
  -25.9709  -30.7746   21.3773 C   0  0  0  0  0  0
  -26.0518  -29.3998   20.7201 C   0  0  0  0  0  0
  -27.2311  -28.5907   20.7204 C   0  0  0  0  0  0
  -26.0653  -26.8800   19.4635 C   0  0  0  0  0  0
  -24.8954  -27.6670   19.4772 C   0  0  0  0  0  0
  -23.6546  -29.8030   20.1515 C   0  0  0  0  0  0
  -25.4120  -36.3027   24.0318 C   0  0  1  0  0  0
  -20.5823  -28.3682   23.1132 C   0  0  2  0  0  0
  -20.6628  -26.9405   22.5228 C   0  0  0  0  0  0
  -19.5618  -26.6395   21.5027 C   0  0  0  0  0  0
  -18.1822  -26.7969   22.1419 C   0  0  0  0  0  0
  -19.1477  -28.8865   23.2760 C   0  0  0  0  0  0
  -18.9411  -30.1434   23.8852 C   0  0  0  0  0  0
  -17.6414  -30.6552   24.0589 C   0  0  0  0  0  0
  -25.9054  -34.9407   23.5053 C   0  0  0  0  0  0
  -16.5295  -29.9089   23.6244 C   0  0  0  0  0  0
  -16.7206  -28.6558   23.0207 C   0  0  0  0  0  0
  -26.4537  -31.6553   25.0686 C   0  0  0  0  0  0
  -25.3750  -31.3730   26.1385 C   0  0  0  0  0  0
  -27.0420  -30.2966   24.6217 C   0  0  0  0  0  0
  -27.6064  -32.4300   25.7504 C   0  0  0  0  0  0
  -27.5565  -37.1797   24.8464 C   0  0  0  0  0  0
  -21.4128  -29.3041   22.3542 N   0  0  0  0  0  0
  -26.4278  -37.3739   23.9397 N   0  0  0  0  0  0
  -24.6914  -31.0499   22.0908 N   0  0  0  0  0  0
  -23.4073  -28.8185   23.3004 O   0  0  0  0  0  0
  -28.3974  -26.4589   20.1588 O   0  0  0  0  0  0
  -26.5610  -34.8894   22.4617 O   0  0  0  0  0  0
  -23.5454  -32.1362   23.7254 O   0  0  0  0  0  0
  -27.9920  -21.0651   19.8527 C   0  0  0  0  0  0
  -29.3703  -21.2042   19.9784 C   0  0  0  0  0  0
  -27.3306  -19.8289   20.0034 C   0  0  0  0  0  0
  -30.1291  -19.9983   20.2556 C   0  0  0  0  0  0
  -29.5339  -18.6661   20.2755 C   0  0  0  0  0  0
  -28.1273  -18.6318   20.0337 C   0  0  0  0  0  0
  -31.6219  -20.1672   20.4643 C   0  0  0  0  0  0
  -25.1454  -20.5628   18.9219 C   0  0  0  0  0  0
  -25.5706  -20.9236   21.3939 C   0  0  0  0  0  0
  -29.9413  -22.6563   19.7122 C   0  0  0  0  0  0
  -30.4214  -17.3332   20.5138 C   0  0  0  0  0  0
  -29.3504  -23.9770   20.4309 C   0  0  0  0  0  0
  -28.3747  -25.0293   19.7106 C   0  0  0  0  0  0
  -25.7875  -19.9523   20.1941 C   0  0  0  0  0  0
  -25.0034  -18.6630   20.5944 C   0  0  0  0  0  0
  -29.9149  -15.8872   20.6088 N   0  0  0  0  0  0
  -25.6227  -18.0075   21.5793 F   0  0  0  0  0  0
  -24.8041  -17.8694   19.5468 F   0  0  0  0  0  0
  -23.7829  -18.9699   21.0458 F   0  0  0  0  0  0
  -27.4534  -17.1213   19.5715 Cl  0  0  0  0  0  0
  -31.4676  -12.5614   19.1538 H   0  0  0  0  0  0
  -30.3693  -11.4703   19.9565 H   0  0  0  0  0  0
  -29.7766  -11.7400   17.5056 H   0  0  0  0  0  0
  -29.6069  -13.4666   17.7335 H   0  0  0  0  0  0
  -27.8707  -11.2768   18.8991 H   0  0  0  0  0  0
  -27.3645  -12.5326   17.8059 H   0  0  0  0  0  0
  -27.6228  -14.2428   19.4632 H   0  0  0  0  0  0
  -28.7328  -12.1813   21.4366 H   0  0  0  0  0  0
  -28.4310  -13.8677   21.7837 H   0  0  0  0  0  0
  -25.2759   -9.5587   22.4805 H   0  0  0  0  0  0
  -23.9978   -7.4561   22.7489 H   0  0  0  0  0  0
  -21.0862   -8.8754   19.8911 H   0  0  0  0  0  0
  -22.3789  -10.9631   19.6168 H   0  0  0  0  0  0
  -21.2114   -7.6191   23.9764 H   0  0  0  0  0  0
  -21.1419   -6.0504   25.9062 H   0  0  0  0  0  0
  -22.0636   -2.7659   23.2766 H   0  0  0  0  0  0
  -22.3914  -11.9718   22.4865 H   0  0  0  0  0  0
  -21.0986  -13.1132   22.2614 H   0  0  0  0  0  0
  -24.6153  -15.8028   20.5712 H   0  0  0  0  0  0
  -26.2089  -15.6265   20.0731 H   0  0  0  0  0  0
  -26.7225  -32.5430   23.1067 H   0  0  0  0  0  0
  -25.0173  -33.9681   25.0420 H   0  0  0  0  0  0
  -22.7237  -31.2962   21.3752 H   0  0  0  0  0  0
  -23.3731  -35.9629   23.3298 H   0  0  0  0  0  0
  -24.3601  -36.8910   22.2054 H   0  0  0  0  0  0
  -23.7309  -37.6495   23.6664 H   0  0  0  0  0  0
  -26.1063  -31.5411   20.6131 H   0  0  0  0  0  0
  -26.8478  -30.8242   22.0114 H   0  0  0  0  0  0
  -28.1228  -28.9449   21.2175 H   0  0  0  0  0  0
  -26.0069  -25.9363   18.9439 H   0  0  0  0  0  0
  -24.0057  -27.2969   18.9835 H   0  0  0  0  0  0
  -23.7794  -30.5744   19.3898 H   0  0  0  0  0  0
  -22.7798  -29.2304   19.8409 H   0  0  0  0  0  0
  -25.1308  -36.1854   25.0812 H   0  0  0  0  0  0
  -20.9965  -28.3203   24.1241 H   0  0  0  0  0  0
  -20.5482  -26.2235   23.3381 H   0  0  0  0  0  0
  -21.6460  -26.7424   22.0963 H   0  0  0  0  0  0
  -19.6722  -25.6291   21.1027 H   0  0  0  0  0  0
  -19.6560  -27.3198   20.6563 H   0  0  0  0  0  0
  -17.4031  -26.6779   21.3861 H   0  0  0  0  0  0
  -18.0213  -26.0082   22.8753 H   0  0  0  0  0  0
  -19.7872  -30.7208   24.2253 H   0  0  0  0  0  0
  -17.4947  -31.6153   24.5369 H   0  0  0  0  0  0
  -15.5287  -30.2963   23.7640 H   0  0  0  0  0  0
  -15.8594  -28.0950   22.6845 H   0  0  0  0  0  0
  -24.5886  -30.7143   25.7682 H   0  0  0  0  0  0
  -24.8985  -32.2930   26.4777 H   0  0  0  0  0  0
  -25.8036  -30.8899   27.0168 H   0  0  0  0  0  0
  -26.3041  -29.6682   24.1219 H   0  0  0  0  0  0
  -27.4076  -29.7268   25.4767 H   0  0  0  0  0  0
  -27.8908  -30.4215   23.9489 H   0  0  0  0  0  0
  -27.2614  -33.3559   26.2106 H   0  0  0  0  0  0
  -28.3885  -32.6934   25.0372 H   0  0  0  0  0  0
  -28.0702  -31.8410   26.5431 H   0  0  0  0  0  0
  -28.2567  -38.0103   24.7463 H   0  0  0  0  0  0
  -28.1082  -36.2625   24.6328 H   0  0  0  0  0  0
  -27.2276  -37.1488   25.8871 H   0  0  0  0  0  0
  -20.9371  -29.8626   21.6595 H   0  0  0  0  0  0
  -26.0140  -38.2805   24.1411 H   0  0  0  0  0  0
  -27.4198  -21.9605   19.6565 H   0  0  0  0  0  0
  -32.0761  -20.4736   19.5238 H   0  0  0  0  0  0
  -32.1415  -19.2803   20.8218 H   0  0  0  0  0  0
  -31.7956  -20.9429   21.2084 H   0  0  0  0  0  0
  -25.4859  -21.5788   18.7260 H   0  0  0  0  0  0
  -24.0595  -20.6088   19.0148 H   0  0  0  0  0  0
  -25.3842  -19.9695   18.0387 H   0  0  0  0  0  0
  -25.9709  -21.9228   21.2306 H   0  0  0  0  0  0
  -26.0578  -20.5258   22.2846 H   0  0  0  0  0  0
  -24.5202  -21.0709   21.6416 H   0  0  0  0  0  0
  -29.9350  -22.8101   18.6306 H   0  0  0  0  0  0
  -31.0027  -22.6328   19.9520 H   0  0  0  0  0  0
  -30.9638  -17.4918   21.4506 H   0  0  0  0  0  0
  -31.1839  -17.3356   19.7348 H   0  0  0  0  0  0
  -30.2357  -24.5725   20.6474 H   0  0  0  0  0  0
  -28.9637  -23.7168   21.4153 H   0  0  0  0  0  0
  -28.5902  -25.0372   18.6408 H   0  0  0  0  0  0
  -27.3765  -24.6102   19.8168 H   0  0  0  0  0  0
  -28.9197  -15.7742   20.7348 H   0  0  0  0  0  0
  1 25  1  0  0  0
  1 30  2  0  0  0
  1 86  1  0  0  0
  2  3  1  0  0  0
  2 25  1  0  0  0
  2 91  1  0  0  0
  2 92  1  0  0  0
  3  4  1  0  0  0
  3 93  1  0  0  0
  3 94  1  0  0  0
  4  5  1  0  0  0
  4 95  1  0  0  0
  4 96  1  0  0  0
  5  6  1  0  0  0
  5 26  1  0  0  0
  5 97  1  0  0  0
  6 25  1  0  0  0
  6 98  1  0  0  0
  6 99  1  0  0  0
  7  8  2  0  0  0
  7 26  1  0  0  0
  7 29  1  0  0  0
  8  9  1  0  0  0
  8 22  1  0  0  0
  9 10  1  0  0  0
  9 27  2  0  0  0
 10 11  2  0  0  0
 10 15  1  0  0  0
 11 12  1  0  0  0
 11100  1  0  0  0
 12 13  2  0  0  0
 12101  1  0  0  0
 13 14  1  0  0  0
 13 31  1  0  0  0
 14 15  2  0  0  0
 14102  1  0  0  0
 15103  1  0  0  0
 16 17  2  0  0  0
 16 21  1  0  0  0
 16 31  1  0  0  0
 17 18  1  0  0  0
 17104  1  0  0  0
 18 19  2  0  0  0
 18105  1  0  0  0
 19 20  1  0  0  0
 19 24  1  0  0  0
 20 21  2  0  0  0
 20106  1  0  0  0
 21 23  1  0  0  0
 22 28  1  0  0  0
 22 32  2  0  0  0
 26 27  1  0  0  0
 28107  1  0  0  0
 28108  1  0  0  0
 29109  1  0  0  0
 29110  1  0  0  0
 33 34  1  0  0  0
 33 66  1  0  0  0
 33 70  2  0  0  0
 34 36  1  0  0  0
 34 59  1  0  0  0
 34111  1  0  0  0
 35 44  2  0  0  0
 35 45  1  0  0  0
 35 68  1  0  0  0
 36 56  1  0  0  0
 36112  1  0  0  0
 37 39  1  0  0  0
 37 47  1  0  0  0
 37 66  1  0  0  0
 37113  1  0  0  0
 38 43  2  0  0  0
 38 46  1  0  0  0
 38 47  1  0  0  0
 39 64  1  0  0  0
 39 67  2  0  0  0
 40 52  1  0  0  0
 40 53  2  0  0  0
 40 58  1  0  0  0
 41114  1  0  0  0
 41115  1  0  0  0
 41116  1  0  0  0
 41 48  1  0  0  0
 42 43  1  0  0  0
 42 66  1  0  0  0
 42117  1  0  0  0
 42118  1  0  0  0
 43 44  1  0  0  0
 44119  1  0  0  0
 45 46  2  0  0  0
 45120  1  0  0  0
 46121  1  0  0  0
 47122  1  0  0  0
 47123  1  0  0  0
 48 56  1  0  0  0
 48 65  1  0  0  0
 48124  1  0  0  0
 49 50  1  0  0  0
 49 53  1  0  0  0
 49 64  1  0  0  0
 49125  1  0  0  0
 50 51  1  0  0  0
 50126  1  0  0  0
 50127  1  0  0  0
 51 52  1  0  0  0
 51128  1  0  0  0
 51129  1  0  0  0
 52130  1  0  0  0
 52131  1  0  0  0
 53 54  1  0  0  0
 54 55  2  0  0  0
 54132  1  0  0  0
 55 57  1  0  0  0
 55133  1  0  0  0
 56 69  2  0  0  0
 57 58  2  0  0  0
 57134  1  0  0  0
 58135  1  0  0  0
 59 60  1  0  0  0
 59 61  1  0  0  0
 59 62  1  0  0  0
 60136  1  0  0  0
 60137  1  0  0  0
 60138  1  0  0  0
 61139  1  0  0  0
 61140  1  0  0  0
 61141  1  0  0  0
 62142  1  0  0  0
 62143  1  0  0  0
 62144  1  0  0  0
 63 65  1  0  0  0
 63145  1  0  0  0
 63146  1  0  0  0
 63147  1  0  0  0
 64148  1  0  0  0
 65149  1  0  0  0
 68 83  1  0  0  0
 71 72  2  0  0  0
 71 73  1  0  0  0
 71150  1  0  0  0
 72 74  1  0  0  0
 72 80  1  0  0  0
 73 76  2  0  0  0
 73 84  1  0  0  0
 74 75  2  0  0  0
 74 77  1  0  0  0
 75 76  1  0  0  0
 75 81  1  0  0  0
 76 90  1  0  0  0
 77151  1  0  0  0
 77152  1  0  0  0
 77153  1  0  0  0
 78154  1  0  0  0
 78155  1  0  0  0
 78156  1  0  0  0
 78 84  1  0  0  0
 79 84  1  0  0  0
 79157  1  0  0  0
 79158  1  0  0  0
 79159  1  0  0  0
 80 82  1  0  0  0
 80160  1  0  0  0
 80161  1  0  0  0
 81 86  1  0  0  0
 81162  1  0  0  0
 81163  1  0  0  0
 82 83  1  0  0  0
 82164  1  0  0  0
 82165  1  0  0  0
 83166  1  0  0  0
 83167  1  0  0  0
 84 85  1  0  0  0
 85 87  1  0  0  0
 85 88  1  0  0  0
 85 89  1  0  0  0
 86168  1  0  0  0
M  ISO  4   1 100  68 101  83 101  86 100
M  END
> <chiral flag>
0

> <version>
0

> <s_m_source_file>
/data/baiqing/PycharmProjects/Reinvent-master-3.2/result/LINK_invent/BTK/process_docking_weight1_custom_sum_contain_oxygen_bond_distance_aromatic_linkinvent_7_9_3/rearranged_h_0020.sdf

> <i_m_source_file_index>
14

> <r_mmod_Potential_Energy-OPLS-2005>
260.273742675781

> <r_mmod_Stretch_Energy-OPLS-2005>
128.906295776367

> <r_mmod_Bend_Energy-OPLS-2005>
207.830673217773

> <r_mmod_Torsional_Energy-OPLS-2005>
256.907073974609

> <r_mmod_Improper_Torsional_Energy-OPLS-2005>
5.84945297241211

> <r_mmod_Van_der_Waal_Energy-OPLS-2005>
176.343338012695

> <r_mmod_Electrostatic_Energy-OPLS-2005>
-401.279510498047

> <r_mmod_Solvation_Energy-OPLS-2005>
-186.911666870117

> <b_mmod_Minimization_Converged-OPLS-2005>
0

> <r_mmod_RMS_Derivative-OPLS-2005>
6.03618717193604

$$$$
14
                    3D
 Structure written by MMmdl.
153161  0  0  1  0            999 V2000
  -30.2962  -15.6115   20.3651 C   0  0  0  0  0  0
  -30.4386  -13.0641   19.5458 C   0  0  0  0  0  0
  -29.5582  -12.6687   18.3231 C   0  0  0  0  0  0
  -28.1240  -12.3145   18.7496 C   0  0  0  0  0  0
  -27.6066  -13.2990   19.8222 C   0  0  2  0  0  0
  -28.6324  -13.5474   20.9510 C   0  0  0  0  0  0
  -25.2335  -13.8233   20.5724 C   0  0  0  0  0  0
  -24.1726  -13.0402   20.9255 C   0  0  0  0  0  0
  -24.6420  -11.6919   20.8721 C   0  0  0  0  0  0
  -23.9104  -10.4278   21.0368 C   0  0  0  0  0  0
  -24.3641   -9.4202   21.9163 C   0  0  0  0  0  0
  -23.6302   -8.2242   22.0743 C   0  0  0  0  0  0
  -22.4283   -8.0270   21.3532 C   0  0  0  0  0  0
  -21.9929   -9.0242   20.4629 C   0  0  0  0  0  0
  -22.7265  -10.2119   20.3026 C   0  0  0  0  0  0
  -21.6862   -6.0731   22.5275 C   0  0  0  0  0  0
  -21.4014   -6.5636   23.8207 C   0  0  0  0  0  0
  -21.3653   -5.6782   24.9163 C   0  0  0  0  0  0
  -21.6048   -4.3046   24.7212 C   0  0  0  0  0  0
  -21.8825   -3.8136   23.4334 C   0  0  0  0  0  0
  -21.9200   -4.6956   22.3394 C   0  0  0  0  0  0
  -22.7740  -13.5152   21.1898 C   0  0  0  0  0  0
  -22.1670   -4.2143   21.0970 F   0  0  0  0  0  0
  -21.5627   -3.4530   25.7725 F   0  0  0  0  0  0
  -29.8060  -14.2239   20.3304 N   0  0  0  0  0  0
  -26.2805  -12.9573   20.3207 N   0  0  0  0  0  0
  -25.9377  -11.6645   20.5673 N   0  0  0  0  0  0
  -22.0399  -12.8134   22.0443 N   0  0  0  0  0  0
  -25.3872  -15.1961   20.4102 N   0  0  0  0  0  0
  -31.5053  -15.5850   20.0624 O   0  0  0  0  0  0
  -21.6647   -6.8871   21.4235 O   0  0  0  0  0  0
  -22.3420  -14.5456   20.6746 O   0  0  0  0  0  0
  -24.6840  -31.8015   23.1530 C   0  0  0  0  0  0
  -25.9435  -32.4472   23.8080 C   0  0  1  0  0  0
  -27.2308  -26.7202   20.2092 C   0  0  0  0  0  0
  -25.6037  -33.8295   24.1982 N   0  0  0  0  0  0
  -23.5097  -30.4039   21.5060 C   0  0  2  0  0  0
  -24.9689  -28.7501   20.1156 C   0  0  0  0  0  0
  -22.7773  -29.4317   22.4706 C   0  0  0  0  0  0
  -18.0339  -28.1434   22.8452 C   0  0  0  0  0  0
  -24.1465  -36.7103   23.2653 C   0  0  0  0  0  0
  -26.0904  -30.5401   21.4151 C   0  0  0  0  0  0
  -26.1571  -29.1064   20.7645 C   0  0  0  0  0  0
  -27.2738  -28.1189   20.7810 C   0  0  0  0  0  0
  -26.0118  -26.5719   19.4992 C   0  0  0  0  0  0
  -24.9351  -27.5085   19.4582 C   0  0  0  0  0  0
  -23.7643  -29.7042   20.1401 C   0  0  0  0  0  0
  -25.4111  -36.2875   24.0304 C   0  0  1  0  0  0
  -20.5982  -28.3783   23.1137 C   0  0  2  0  0  0
  -20.6807  -26.9441   22.5398 C   0  0  0  0  0  0
  -19.5772  -26.6377   21.5220 C   0  0  0  0  0  0
  -18.1955  -26.7964   22.1611 C   0  0  0  0  0  0
  -19.1611  -28.8929   23.2779 C   0  0  0  0  0  0
  -18.9518  -30.1521   23.8820 C   0  0  0  0  0  0
  -17.6505  -30.6611   24.0562 C   0  0  0  0  0  0
  -25.9115  -34.9283   23.4957 C   0  0  0  0  0  0
  -16.5393  -29.9095   23.6376 C   0  0  0  0  0  0
  -16.7321  -28.6526   23.0376 C   0  0  0  0  0  0
  -26.4631  -31.6497   25.0690 C   0  0  0  0  0  0
  -25.3718  -31.3816   26.1321 C   0  0  0  0  0  0
  -27.0575  -30.2842   24.6568 C   0  0  0  0  0  0
  -27.6087  -32.4354   25.7496 C   0  0  0  0  0  0
  -27.5536  -37.1689   24.8482 C   0  0  0  0  0  0
  -21.4422  -29.3026   22.3455 N   0  0  0  0  0  0
  -26.4218  -37.3650   23.9457 N   0  0  0  0  0  0
  -24.7844  -30.9474   22.0777 N   0  0  0  0  0  0
  -23.4227  -28.7916   23.3042 O   0  0  0  0  0  0
  -28.1818  -25.4956   20.2934 O   0  0  0  0  0  0
  -26.5716  -34.8871   22.4554 O   0  0  0  0  0  0
  -23.5859  -32.1082   23.6485 O   0  0  0  0  0  0
  -29.9643  -19.8415   21.0249 C   0  0  0  0  0  0
  -29.6158  -21.3419   20.9596 C   0  0  0  0  0  0
  -28.5627  -22.0512   20.1692 C   0  0  0  0  0  0
  -27.9826  -20.8421   19.4886 C   0  0  0  0  0  0
  -29.4046  -18.6405   20.3265 C   0  0  0  0  0  0
  -28.3594  -19.3531   19.5527 C   0  0  0  0  0  0
  -30.4403  -22.2442   21.8632 C   0  0  0  0  0  0
  -26.7612  -21.1301   18.6157 C   0  0  0  0  0  0
  -28.5443  -16.6988   21.6928 C   0  0  0  0  0  0
  -27.8704  -23.7946   20.0583 C   0  0  0  0  0  0
  -29.5142  -16.9466   20.6270 N   0  0  0  0  0  0
  -27.4008  -18.2567   18.6110 Cl  0  0  0  0  0  0
  -31.4296  -13.3329   19.1799 H   0  0  0  0  0  0
  -30.6131  -12.2004   20.1896 H   0  0  0  0  0  0
  -30.0106  -11.8361   17.7834 H   0  0  0  0  0  0
  -29.5286  -13.5042   17.6234 H   0  0  0  0  0  0
  -28.1363  -11.3045   19.1599 H   0  0  0  0  0  0
  -27.4591  -12.2879   17.8859 H   0  0  0  0  0  0
  -27.4896  -14.2462   19.2933 H   0  0  0  0  0  0
  -28.8998  -12.6144   21.4485 H   0  0  0  0  0  0
  -28.1874  -14.1500   21.7361 H   0  0  0  0  0  0
  -25.2771   -9.5694   22.4757 H   0  0  0  0  0  0
  -24.0002   -7.4645   22.7476 H   0  0  0  0  0  0
  -21.0858   -8.8762   19.8940 H   0  0  0  0  0  0
  -22.3706  -10.9660   19.6140 H   0  0  0  0  0  0
  -21.2005   -7.6148   23.9713 H   0  0  0  0  0  0
  -21.1469   -6.0502   25.9066 H   0  0  0  0  0  0
  -22.0611   -2.7598   23.2828 H   0  0  0  0  0  0
  -22.4029  -11.9812   22.4853 H   0  0  0  0  0  0
  -21.0999  -13.1141   22.2610 H   0  0  0  0  0  0
  -24.6208  -15.8451   20.5467 H   0  0  0  0  0  0
  -26.2215  -15.6396   20.0504 H   0  0  0  0  0  0
  -26.7512  -32.4959   23.0788 H   0  0  0  0  0  0
  -25.0260  -33.9355   25.0189 H   0  0  0  0  0  0
  -22.8337  -31.2411   21.3178 H   0  0  0  0  0  0
  -23.3774  -35.9385   23.3257 H   0  0  0  0  0  0
  -24.3534  -36.8802   22.2078 H   0  0  0  0  0  0
  -23.7157  -37.6239   23.6751 H   0  0  0  0  0  0
  -26.2914  -31.2655   20.6258 H   0  0  0  0  0  0
  -26.9421  -30.6093   22.0793 H   0  0  0  0  0  0
  -28.1653  -28.3975   21.3250 H   0  0  0  0  0  0
  -25.8498  -25.6312   18.9932 H   0  0  0  0  0  0
  -24.0411  -27.2272   18.9188 H   0  0  0  0  0  0
  -23.9398  -30.4693   19.3833 H   0  0  0  0  0  0
  -22.8703  -29.1726   19.8099 H   0  0  0  0  0  0
  -25.1295  -36.1622   25.0788 H   0  0  0  0  0  0
  -21.0067  -28.3405   24.1262 H   0  0  0  0  0  0
  -20.5674  -26.2404   23.3664 H   0  0  0  0  0  0
  -21.6664  -26.7382   22.1203 H   0  0  0  0  0  0
  -19.6928  -25.6270   21.1289 H   0  0  0  0  0  0
  -19.6722  -27.3169   20.6743 H   0  0  0  0  0  0
  -17.4224  -26.6734   21.4013 H   0  0  0  0  0  0
  -18.0319  -26.0123   22.9013 H   0  0  0  0  0  0
  -19.7994  -30.7372   24.2132 H   0  0  0  0  0  0
  -17.5060  -31.6287   24.5169 H   0  0  0  0  0  0
  -15.5392  -30.2975   23.7753 H   0  0  0  0  0  0
  -15.8720  -28.0835   22.7127 H   0  0  0  0  0  0
  -24.5965  -30.7073   25.7658 H   0  0  0  0  0  0
  -24.8850  -32.3040   26.4497 H   0  0  0  0  0  0
  -25.7939  -30.9182   27.0249 H   0  0  0  0  0  0
  -26.3322  -29.6451   24.1523 H   0  0  0  0  0  0
  -27.3990  -29.7266   25.5299 H   0  0  0  0  0  0
  -27.9291  -30.3976   24.0118 H   0  0  0  0  0  0
  -27.2657  -33.3759   26.1811 H   0  0  0  0  0  0
  -28.4034  -32.6729   25.0416 H   0  0  0  0  0  0
  -28.0606  -31.8651   26.5615 H   0  0  0  0  0  0
  -28.2504  -38.0032   24.7551 H   0  0  0  0  0  0
  -28.1061  -36.2548   24.6244 H   0  0  0  0  0  0
  -27.2273  -37.1255   25.8890 H   0  0  0  0  0  0
  -20.9719  -29.8679   21.6525 H   0  0  0  0  0  0
  -26.0032  -38.2668   24.1556 H   0  0  0  0  0  0
  -30.7334  -19.5905   21.7411 H   0  0  0  0  0  0
  -30.8829  -21.6960   22.6975 H   0  0  0  0  0  0
  -29.8248  -23.0388   22.2879 H   0  0  0  0  0  0
  -31.2489  -22.7084   21.2960 H   0  0  0  0  0  0
  -26.3470  -22.1257   18.7412 H   0  0  0  0  0  0
  -25.9408  -20.4543   18.8602 H   0  0  0  0  0  0
  -27.0031  -21.0005   17.5604 H   0  0  0  0  0  0
  -28.2312  -17.6216   22.1815 H   0  0  0  0  0  0
  -28.9515  -16.0729   22.4893 H   0  0  0  0  0  0
  -27.6420  -16.2476   21.2893 H   0  0  0  0  0  0
  -26.9146  -23.6780   20.5708 H   0  0  0  0  0  0
  -27.6113  -23.8354   19.0014 H   0  0  0  0  0  0
  1 25  1  0  0  0
  1 30  2  0  0  0
  1 81  1  0  0  0
  2  3  1  0  0  0
  2 25  1  0  0  0
  2 83  1  0  0  0
  2 84  1  0  0  0
  3  4  1  0  0  0
  3 85  1  0  0  0
  3 86  1  0  0  0
  4  5  1  0  0  0
  4 87  1  0  0  0
  4 88  1  0  0  0
  5  6  1  0  0  0
  5 26  1  0  0  0
  5 89  1  0  0  0
  6 25  1  0  0  0
  6 90  1  0  0  0
  6 91  1  0  0  0
  7  8  2  0  0  0
  7 26  1  0  0  0
  7 29  1  0  0  0
  8  9  1  0  0  0
  8 22  1  0  0  0
  9 10  1  0  0  0
  9 27  2  0  0  0
 10 11  2  0  0  0
 10 15  1  0  0  0
 11 12  1  0  0  0
 11 92  1  0  0  0
 12 13  2  0  0  0
 12 93  1  0  0  0
 13 14  1  0  0  0
 13 31  1  0  0  0
 14 15  2  0  0  0
 14 94  1  0  0  0
 15 95  1  0  0  0
 16 17  2  0  0  0
 16 21  1  0  0  0
 16 31  1  0  0  0
 17 18  1  0  0  0
 17 96  1  0  0  0
 18 19  2  0  0  0
 18 97  1  0  0  0
 19 20  1  0  0  0
 19 24  1  0  0  0
 20 21  2  0  0  0
 20 98  1  0  0  0
 21 23  1  0  0  0
 22 28  1  0  0  0
 22 32  2  0  0  0
 26 27  1  0  0  0
 28 99  1  0  0  0
 28100  1  0  0  0
 29101  1  0  0  0
 29102  1  0  0  0
 33 34  1  0  0  0
 33 66  1  0  0  0
 33 70  2  0  0  0
 34 36  1  0  0  0
 34 59  1  0  0  0
 34103  1  0  0  0
 35 44  2  0  0  0
 35 45  1  0  0  0
 35 68  1  0  0  0
 36 56  1  0  0  0
 36104  1  0  0  0
 37 39  1  0  0  0
 37 47  1  0  0  0
 37 66  1  0  0  0
 37105  1  0  0  0
 38 43  2  0  0  0
 38 46  1  0  0  0
 38 47  1  0  0  0
 39 64  1  0  0  0
 39 67  2  0  0  0
 40 52  1  0  0  0
 40 53  2  0  0  0
 40 58  1  0  0  0
 41106  1  0  0  0
 41107  1  0  0  0
 41108  1  0  0  0
 41 48  1  0  0  0
 42 43  1  0  0  0
 42 66  1  0  0  0
 42109  1  0  0  0
 42110  1  0  0  0
 43 44  1  0  0  0
 44111  1  0  0  0
 45 46  2  0  0  0
 45112  1  0  0  0
 46113  1  0  0  0
 47114  1  0  0  0
 47115  1  0  0  0
 48 56  1  0  0  0
 48 65  1  0  0  0
 48116  1  0  0  0
 49 50  1  0  0  0
 49 53  1  0  0  0
 49 64  1  0  0  0
 49117  1  0  0  0
 50 51  1  0  0  0
 50118  1  0  0  0
 50119  1  0  0  0
 51 52  1  0  0  0
 51120  1  0  0  0
 51121  1  0  0  0
 52122  1  0  0  0
 52123  1  0  0  0
 53 54  1  0  0  0
 54 55  2  0  0  0
 54124  1  0  0  0
 55 57  1  0  0  0
 55125  1  0  0  0
 56 69  2  0  0  0
 57 58  2  0  0  0
 57126  1  0  0  0
 58127  1  0  0  0
 59 60  1  0  0  0
 59 61  1  0  0  0
 59 62  1  0  0  0
 60128  1  0  0  0
 60129  1  0  0  0
 60130  1  0  0  0
 61131  1  0  0  0
 61132  1  0  0  0
 61133  1  0  0  0
 62134  1  0  0  0
 62135  1  0  0  0
 62136  1  0  0  0
 63 65  1  0  0  0
 63137  1  0  0  0
 63138  1  0  0  0
 63139  1  0  0  0
 64140  1  0  0  0
 65141  1  0  0  0
 68 80  1  0  0  0
 71 72  2  0  0  0
 71 75  1  0  0  0
 71142  1  0  0  0
 72 73  1  0  0  0
 72 77  1  0  0  0
 73 74  2  0  0  0
 73 80  1  0  0  0
 74 76  1  0  0  0
 74 78  1  0  0  0
 75 76  2  0  0  0
 75 81  1  0  0  0
 76 82  1  0  0  0
 77143  1  0  0  0
 77144  1  0  0  0
 77145  1  0  0  0
 78146  1  0  0  0
 78147  1  0  0  0
 78148  1  0  0  0
 79 81  1  0  0  0
 79149  1  0  0  0
 79150  1  0  0  0
 79151  1  0  0  0
 80152  1  0  0  0
 80153  1  0  0  0
M  ISO  4   1 100  68 101  80 101  81 100
M  END
> <chiral flag>
0

> <version>
0

> <s_m_source_file>
/data/baiqing/PycharmProjects/Reinvent-master-3.2/result/LINK_invent/BTK/process_docking_weight1_custom_sum_contain_oxygen_bond_distance_aromatic_linkinvent_7_9_3/rearranged_h_0020.sdf

> <i_m_source_file_index>
15

> <r_mmod_Potential_Energy-OPLS-2005>
2479.28149414062

> <r_mmod_Stretch_Energy-OPLS-2005>
950.735412597656

> <r_mmod_Bend_Energy-OPLS-2005>
684.590515136719

> <r_mmod_Torsional_Energy-OPLS-2005>
316.469970703125

> <r_mmod_Improper_Torsional_Energy-OPLS-2005>
7.93487119674683

> <r_mmod_Van_der_Waal_Energy-OPLS-2005>
143.237014770508

> <r_mmod_Electrostatic_Energy-OPLS-2005>
-294.077484130859

> <r_mmod_Solvation_Energy-OPLS-2005>
-188.249633789062

> <b_mmod_Minimization_Converged-OPLS-2005>
0

> <r_mmod_RMS_Derivative-OPLS-2005>
1.87046134471893

$$$$
15
                    3D
 Structure written by MMmdl.
162170  0  0  1  0            999 V2000
  -30.4355  -15.3178   20.3771 C   0  0  0  0  0  0
  -30.4272  -12.8408   19.5435 C   0  0  0  0  0  0
  -29.5362  -12.5914   18.3006 C   0  0  0  0  0  0
  -28.0881  -12.3017   18.7260 C   0  0  0  0  0  0
  -27.6069  -13.2827   19.8242 C   0  0  2  0  0  0
  -28.6344  -13.4921   20.9597 C   0  0  0  0  0  0
  -25.2362  -13.8258   20.5766 C   0  0  0  0  0  0
  -24.1726  -13.0434   20.9275 C   0  0  0  0  0  0
  -24.6399  -11.6934   20.8773 C   0  0  0  0  0  0
  -23.9101  -10.4290   21.0404 C   0  0  0  0  0  0
  -24.3646   -9.4204   21.9181 C   0  0  0  0  0  0
  -23.6313   -8.2245   22.0749 C   0  0  0  0  0  0
  -22.4287   -8.0288   21.3545 C   0  0  0  0  0  0
  -21.9931   -9.0262   20.4648 C   0  0  0  0  0  0
  -22.7267  -10.2137   20.3055 C   0  0  0  0  0  0
  -21.6859   -6.0750   22.5287 C   0  0  0  0  0  0
  -21.4025   -6.5654   23.8222 C   0  0  0  0  0  0
  -21.3652   -5.6804   24.9180 C   0  0  0  0  0  0
  -21.6031   -4.3062   24.7225 C   0  0  0  0  0  0
  -21.8813   -3.8160   23.4346 C   0  0  0  0  0  0
  -21.9191   -4.6977   22.3404 C   0  0  0  0  0  0
  -22.7749  -13.5191   21.1913 C   0  0  0  0  0  0
  -22.1657   -4.2161   21.0980 F   0  0  0  0  0  0
  -21.5612   -3.4547   25.7736 F   0  0  0  0  0  0
  -29.8636  -14.0047   20.3329 N   0  0  0  0  0  0
  -26.2794  -12.9546   20.3232 N   0  0  0  0  0  0
  -25.9336  -11.6645   20.5732 N   0  0  0  0  0  0
  -22.0395  -12.8187   22.0462 N   0  0  0  0  0  0
  -25.3970  -15.2002   20.4223 N   0  0  0  0  0  0
  -31.6441  -15.2720   20.1112 O   0  0  0  0  0  0
  -21.6641   -6.8896   21.4252 O   0  0  0  0  0  0
  -22.3432  -14.5493   20.6747 O   0  0  0  0  0  0
  -24.6642  -31.8183   23.1645 C   0  0  0  0  0  0
  -25.9315  -32.4550   23.8123 C   0  0  1  0  0  0
  -27.2263  -26.8962   20.1879 C   0  0  0  0  0  0
  -25.5968  -33.8373   24.2022 N   0  0  0  0  0  0
  -23.4810  -30.4263   21.5127 C   0  0  2  0  0  0
  -24.9369  -28.8035   20.1049 C   0  0  0  0  0  0
  -22.7671  -29.4412   22.4746 C   0  0  0  0  0  0
  -18.0327  -28.1408   22.8460 C   0  0  0  0  0  0
  -24.1500  -36.7199   23.2648 C   0  0  0  0  0  0
  -26.0499  -30.6124   21.4020 C   0  0  0  0  0  0
  -26.1165  -29.1991   20.7461 C   0  0  0  0  0  0
  -27.2482  -28.2641   20.7663 C   0  0  0  0  0  0
  -26.0237  -26.6595   19.4849 C   0  0  0  0  0  0
  -24.9180  -27.5562   19.4535 C   0  0  0  0  0  0
  -23.7226  -29.7337   20.1407 C   0  0  0  0  0  0
  -25.4142  -36.2946   24.0290 C   0  0  1  0  0  0
  -20.5952  -28.3755   23.1170 C   0  0  2  0  0  0
  -20.6802  -26.9429   22.5399 C   0  0  0  0  0  0
  -19.5780  -26.6370   21.5208 C   0  0  0  0  0  0
  -18.1962  -26.7942   22.1612 C   0  0  0  0  0  0
  -19.1591  -28.8901   23.2806 C   0  0  0  0  0  0
  -18.9501  -30.1489   23.8848 C   0  0  0  0  0  0
  -17.6498  -30.6598   24.0551 C   0  0  0  0  0  0
  -25.9105  -34.9330   23.4986 C   0  0  0  0  0  0
  -16.5385  -29.9085   23.6345 C   0  0  0  0  0  0
  -16.7310  -28.6502   23.0365 C   0  0  0  0  0  0
  -26.4564  -31.6522   25.0676 C   0  0  0  0  0  0
  -25.3673  -31.3798   26.1317 C   0  0  0  0  0  0
  -27.0473  -30.2878   24.6460 C   0  0  0  0  0  0
  -27.6033  -32.4363   25.7485 C   0  0  0  0  0  0
  -27.5575  -37.1754   24.8463 C   0  0  0  0  0  0
  -21.4335  -29.3038   22.3503 N   0  0  0  0  0  0
  -26.4284  -37.3685   23.9407 N   0  0  0  0  0  0
  -24.7531  -30.9812   22.0796 N   0  0  0  0  0  0
  -23.4197  -28.7997   23.3015 O   0  0  0  0  0  0
  -28.2352  -25.7970   20.3450 O   0  0  0  0  0  0
  -26.5729  -34.8883   22.4591 O   0  0  0  0  0  0
  -23.5711  -32.1174   23.6716 O   0  0  0  0  0  0
  -31.5374  -20.1238   21.0274 C   0  0  0  0  0  0
  -30.6772  -21.2038   20.7147 C   0  0  0  0  0  0
  -31.1977  -18.7421   21.1185 C   0  0  0  0  0  0
  -29.3028  -21.0176   20.4500 C   0  0  0  0  0  0
  -29.0096  -19.4804   20.3603 C   0  0  0  0  0  0
  -29.9452  -18.2470   20.6065 C   0  0  0  0  0  0
  -31.2705  -22.6029   20.7846 C   0  0  0  0  0  0
  -27.5775  -19.1238   20.0188 C   0  0  0  0  0  0
  -33.4924  -17.6216   21.0620 C   0  0  0  0  0  0
  -32.6476  -18.5692   23.2357 C   0  0  0  0  0  0
  -28.3245  -22.5006   20.5230 C   0  0  0  0  0  0
  -28.3692  -24.2047   19.8517 C   0  0  0  0  0  0
  -32.2355  -17.9034   21.9026 C   0  0  0  0  0  0
  -29.6878  -16.6200   20.4929 N   0  0  0  0  0  0
  -31.7282  -16.7701   22.3758 F   0  0  0  0  0  0
  -31.4495  -13.0301   19.2159 H   0  0  0  0  0  0
  -30.4841  -11.9432   20.1629 H   0  0  0  0  0  0
  -29.9280  -11.7642   17.7075 H   0  0  0  0  0  0
  -29.5607  -13.4706   17.6550 H   0  0  0  0  0  0
  -28.0573  -11.2817   19.1110 H   0  0  0  0  0  0
  -27.4193  -12.3246   17.8638 H   0  0  0  0  0  0
  -27.5109  -14.2404   19.3112 H   0  0  0  0  0  0
  -28.8105  -12.5735   21.5213 H   0  0  0  0  0  0
  -28.2605  -14.2257   21.6762 H   0  0  0  0  0  0
  -25.2771   -9.5684   22.4785 H   0  0  0  0  0  0
  -23.9999   -7.4638   22.7484 H   0  0  0  0  0  0
  -21.0838   -8.8801   19.8979 H   0  0  0  0  0  0
  -22.3700  -10.9691   19.6190 H   0  0  0  0  0  0
  -21.2036   -7.6163   23.9736 H   0  0  0  0  0  0
  -21.1474   -6.0528   25.9084 H   0  0  0  0  0  0
  -22.0597   -2.7624   23.2845 H   0  0  0  0  0  0
  -22.4012  -11.9846   22.4845 H   0  0  0  0  0  0
  -21.1017  -13.1231   22.2660 H   0  0  0  0  0  0
  -24.6231  -15.8453   20.5404 H   0  0  0  0  0  0
  -26.2299  -15.6468   20.0644 H   0  0  0  0  0  0
  -26.7376  -32.5080   23.0827 H   0  0  0  0  0  0
  -25.0047  -33.9437   25.0126 H   0  0  0  0  0  0
  -22.7968  -31.2590   21.3367 H   0  0  0  0  0  0
  -23.3769  -35.9523   23.3275 H   0  0  0  0  0  0
  -24.3568  -36.8889   22.2069 H   0  0  0  0  0  0
  -23.7255  -37.6372   23.6738 H   0  0  0  0  0  0
  -26.2392  -31.3510   20.6222 H   0  0  0  0  0  0
  -26.9059  -30.6657   22.0624 H   0  0  0  0  0  0
  -28.1346  -28.5598   21.3099 H   0  0  0  0  0  0
  -25.8999  -25.7028   18.9978 H   0  0  0  0  0  0
  -24.0222  -27.2478   18.9322 H   0  0  0  0  0  0
  -23.8776  -30.4988   19.3793 H   0  0  0  0  0  0
  -22.8333  -29.1872   19.8236 H   0  0  0  0  0  0
  -25.1347  -36.1728   25.0780 H   0  0  0  0  0  0
  -21.0047  -28.3380   24.1291 H   0  0  0  0  0  0
  -20.5670  -26.2379   23.3647 H   0  0  0  0  0  0
  -21.6668  -26.7402   22.1218 H   0  0  0  0  0  0
  -19.6944  -25.6265   21.1280 H   0  0  0  0  0  0
  -19.6727  -27.3143   20.6709 H   0  0  0  0  0  0
  -17.4231  -26.6679   21.4017 H   0  0  0  0  0  0
  -18.0364  -26.0093   22.9017 H   0  0  0  0  0  0
  -19.7978  -30.7313   24.2199 H   0  0  0  0  0  0
  -17.5052  -31.6273   24.5156 H   0  0  0  0  0  0
  -15.5385  -30.2973   23.7698 H   0  0  0  0  0  0
  -15.8708  -28.0800   22.7120 H   0  0  0  0  0  0
  -24.5848  -30.7166   25.7611 H   0  0  0  0  0  0
  -24.8876  -32.3016   26.4620 H   0  0  0  0  0  0
  -25.7877  -30.9022   27.0173 H   0  0  0  0  0  0
  -26.3145  -29.6522   24.1470 H   0  0  0  0  0  0
  -27.3979  -29.7290   25.5147 H   0  0  0  0  0  0
  -27.9103  -30.4044   23.9900 H   0  0  0  0  0  0
  -27.2565  -33.3702   26.1925 H   0  0  0  0  0  0
  -28.3906  -32.6864   25.0360 H   0  0  0  0  0  0
  -28.0630  -31.8586   26.5513 H   0  0  0  0  0  0
  -28.2561  -38.0075   24.7508 H   0  0  0  0  0  0
  -28.1100  -36.2600   24.6295 H   0  0  0  0  0  0
  -27.2289  -37.1399   25.8862 H   0  0  0  0  0  0
  -20.9595  -29.8701   21.6607 H   0  0  0  0  0  0
  -26.0126  -38.2745   24.1398 H   0  0  0  0  0  0
  -32.5424  -20.3968   21.3072 H   0  0  0  0  0  0
  -32.3192  -22.5877   21.0836 H   0  0  0  0  0  0
  -30.7424  -23.2258   21.5079 H   0  0  0  0  0  0
  -31.2318  -23.0787   19.8055 H   0  0  0  0  0  0
  -27.1245  -19.8834   19.3820 H   0  0  0  0  0  0
  -26.9824  -19.0331   20.9277 H   0  0  0  0  0  0
  -27.5291  -18.1749   19.4850 H   0  0  0  0  0  0
  -34.0398  -18.5404   20.8513 H   0  0  0  0  0  0
  -33.2471  -17.1751   20.1007 H   0  0  0  0  0  0
  -34.1717  -16.9454   21.5803 H   0  0  0  0  0  0
  -33.2239  -19.4836   23.1056 H   0  0  0  0  0  0
  -33.2690  -17.8991   23.8299 H   0  0  0  0  0  0
  -31.7712  -18.8101   23.8387 H   0  0  0  0  0  0
  -28.2928  -22.6744   21.5986 H   0  0  0  0  0  0
  -27.3145  -22.1528   20.3089 H   0  0  0  0  0  0
  -27.7501  -24.1571   18.9567 H   0  0  0  0  0  0
  -29.3693  -24.2516   19.4263 H   0  0  0  0  0  0
  -28.7017  -16.4113   20.5117 H   0  0  0  0  0  0
  1 25  1  0  0  0
  1 30  2  0  0  0
  1 84  1  0  0  0
  2  3  1  0  0  0
  2 25  1  0  0  0
  2 86  1  0  0  0
  2 87  1  0  0  0
  3  4  1  0  0  0
  3 88  1  0  0  0
  3 89  1  0  0  0
  4  5  1  0  0  0
  4 90  1  0  0  0
  4 91  1  0  0  0
  5  6  1  0  0  0
  5 26  1  0  0  0
  5 92  1  0  0  0
  6 25  1  0  0  0
  6 93  1  0  0  0
  6 94  1  0  0  0
  7  8  2  0  0  0
  7 26  1  0  0  0
  7 29  1  0  0  0
  8  9  1  0  0  0
  8 22  1  0  0  0
  9 10  1  0  0  0
  9 27  2  0  0  0
 10 11  2  0  0  0
 10 15  1  0  0  0
 11 12  1  0  0  0
 11 95  1  0  0  0
 12 13  2  0  0  0
 12 96  1  0  0  0
 13 14  1  0  0  0
 13 31  1  0  0  0
 14 15  2  0  0  0
 14 97  1  0  0  0
 15 98  1  0  0  0
 16 17  2  0  0  0
 16 21  1  0  0  0
 16 31  1  0  0  0
 17 18  1  0  0  0
 17 99  1  0  0  0
 18 19  2  0  0  0
 18100  1  0  0  0
 19 20  1  0  0  0
 19 24  1  0  0  0
 20 21  2  0  0  0
 20101  1  0  0  0
 21 23  1  0  0  0
 22 28  1  0  0  0
 22 32  2  0  0  0
 26 27  1  0  0  0
 28102  1  0  0  0
 28103  1  0  0  0
 29104  1  0  0  0
 29105  1  0  0  0
 33 34  1  0  0  0
 33 66  1  0  0  0
 33 70  2  0  0  0
 34 36  1  0  0  0
 34 59  1  0  0  0
 34106  1  0  0  0
 35 44  2  0  0  0
 35 45  1  0  0  0
 35 68  1  0  0  0
 36 56  1  0  0  0
 36107  1  0  0  0
 37 39  1  0  0  0
 37 47  1  0  0  0
 37 66  1  0  0  0
 37108  1  0  0  0
 38 43  2  0  0  0
 38 46  1  0  0  0
 38 47  1  0  0  0
 39 64  1  0  0  0
 39 67  2  0  0  0
 40 52  1  0  0  0
 40 53  2  0  0  0
 40 58  1  0  0  0
 41109  1  0  0  0
 41110  1  0  0  0
 41111  1  0  0  0
 41 48  1  0  0  0
 42 43  1  0  0  0
 42 66  1  0  0  0
 42112  1  0  0  0
 42113  1  0  0  0
 43 44  1  0  0  0
 44114  1  0  0  0
 45 46  2  0  0  0
 45115  1  0  0  0
 46116  1  0  0  0
 47117  1  0  0  0
 47118  1  0  0  0
 48 56  1  0  0  0
 48 65  1  0  0  0
 48119  1  0  0  0
 49 50  1  0  0  0
 49 53  1  0  0  0
 49 64  1  0  0  0
 49120  1  0  0  0
 50 51  1  0  0  0
 50121  1  0  0  0
 50122  1  0  0  0
 51 52  1  0  0  0
 51123  1  0  0  0
 51124  1  0  0  0
 52125  1  0  0  0
 52126  1  0  0  0
 53 54  1  0  0  0
 54 55  2  0  0  0
 54127  1  0  0  0
 55 57  1  0  0  0
 55128  1  0  0  0
 56 69  2  0  0  0
 57 58  2  0  0  0
 57129  1  0  0  0
 58130  1  0  0  0
 59 60  1  0  0  0
 59 61  1  0  0  0
 59 62  1  0  0  0
 60131  1  0  0  0
 60132  1  0  0  0
 60133  1  0  0  0
 61134  1  0  0  0
 61135  1  0  0  0
 61136  1  0  0  0
 62137  1  0  0  0
 62138  1  0  0  0
 62139  1  0  0  0
 63 65  1  0  0  0
 63140  1  0  0  0
 63141  1  0  0  0
 63142  1  0  0  0
 64143  1  0  0  0
 65144  1  0  0  0
 68 82  1  0  0  0
 71 72  2  0  0  0
 71 73  1  0  0  0
 71145  1  0  0  0
 72 74  1  0  0  0
 72 77  1  0  0  0
 73 76  2  0  0  0
 73 83  1  0  0  0
 74 75  2  0  0  0
 74 81  1  0  0  0
 75 76  1  0  0  0
 75 78  1  0  0  0
 76 84  1  0  0  0
 77146  1  0  0  0
 77147  1  0  0  0
 77148  1  0  0  0
 78149  1  0  0  0
 78150  1  0  0  0
 78151  1  0  0  0
 79152  1  0  0  0
 79153  1  0  0  0
 79154  1  0  0  0
 79 83  1  0  0  0
 80 83  1  0  0  0
 80155  1  0  0  0
 80156  1  0  0  0
 80157  1  0  0  0
 81 82  1  0  0  0
 81158  1  0  0  0
 81159  1  0  0  0
 82160  1  0  0  0
 82161  1  0  0  0
 83 85  1  0  0  0
 84162  1  0  0  0
M  ISO  4   1 100  68 101  82 101  84 100
M  END
> <chiral flag>
0

> <version>
0

> <s_m_source_file>
/data/baiqing/PycharmProjects/Reinvent-master-3.2/result/LINK_invent/BTK/process_docking_weight1_custom_sum_contain_oxygen_bond_distance_aromatic_linkinvent_7_9_3/rearranged_h_0020.sdf

> <i_m_source_file_index>
16

> <r_mmod_Potential_Energy-OPLS-2005>
1510.87731933594

> <r_mmod_Stretch_Energy-OPLS-2005>
682.316772460938

> <r_mmod_Bend_Energy-OPLS-2005>
502.368347167969

> <r_mmod_Torsional_Energy-OPLS-2005>
249.066146850586

> <r_mmod_Improper_Torsional_Energy-OPLS-2005>
6.85548305511475

> <r_mmod_Van_der_Waal_Energy-OPLS-2005>
143.336791992188

> <r_mmod_Electrostatic_Energy-OPLS-2005>
-381.116241455078

> <r_mmod_Solvation_Energy-OPLS-2005>
-199.467590332031

> <b_mmod_Minimization_Converged-OPLS-2005>
0

> <r_mmod_RMS_Derivative-OPLS-2005>
1.61810231208801

$$$$
16
                    3D
 Structure written by MMmdl.
166174  0  0  1  0            999 V2000
  -30.6984  -14.4432   20.6169 C   0  0  0  0  0  0
  -30.4358  -12.3040   19.4022 C   0  0  0  0  0  0
  -29.4916  -12.5016   18.1957 C   0  0  0  0  0  0
  -28.0142  -12.3617   18.6142 C   0  0  0  0  0  0
  -27.6668  -13.1908   19.8791 C   0  0  2  0  0  0
  -28.7105  -12.9359   20.9896 C   0  0  0  0  0  0
  -25.2647  -13.8108   20.5634 C   0  0  0  0  0  0
  -24.1876  -13.0435   20.9130 C   0  0  0  0  0  0
  -24.6387  -11.6877   20.8706 C   0  0  0  0  0  0
  -23.9037  -10.4285   21.0395 C   0  0  0  0  0  0
  -24.3603   -9.4207   21.9181 C   0  0  0  0  0  0
  -23.6296   -8.2230   22.0745 C   0  0  0  0  0  0
  -22.4274   -8.0270   21.3540 C   0  0  0  0  0  0
  -21.9892   -9.0244   20.4643 C   0  0  0  0  0  0
  -22.7197  -10.2132   20.3059 C   0  0  0  0  0  0
  -21.6858   -6.0729   22.5279 C   0  0  0  0  0  0
  -21.4028   -6.5648   23.8207 C   0  0  0  0  0  0
  -21.3662   -5.6800   24.9174 C   0  0  0  0  0  0
  -21.6042   -4.3054   24.7232 C   0  0  0  0  0  0
  -21.8834   -3.8140   23.4357 C   0  0  0  0  0  0
  -21.9202   -4.6953   22.3401 C   0  0  0  0  0  0
  -22.7914  -13.5280   21.1826 C   0  0  0  0  0  0
  -22.1657   -4.2157   21.0970 F   0  0  0  0  0  0
  -21.5632   -3.4520   25.7729 F   0  0  0  0  0  0
  -30.0453  -13.2592   20.4482 N   0  0  0  0  0  0
  -26.3068  -12.9245   20.3395 N   0  0  0  0  0  0
  -25.9324  -11.6424   20.5802 N   0  0  0  0  0  0
  -22.0579  -12.8293   22.0419 N   0  0  0  0  0  0
  -25.4416  -15.1818   20.3975 N   0  0  0  0  0  0
  -31.8010  -14.6892   20.1193 O   0  0  0  0  0  0
  -21.6631   -6.8869   21.4248 O   0  0  0  0  0  0
  -22.3583  -14.5578   20.6660 O   0  0  0  0  0  0
  -24.6152  -31.8688   23.2086 C   0  0  0  0  0  0
  -25.9036  -32.4817   23.8401 C   0  0  1  0  0  0
  -27.2470  -27.4418   20.0897 C   0  0  0  0  0  0
  -25.5902  -33.8623   24.2337 N   0  0  0  0  0  0
  -23.4010  -30.4908   21.5520 C   0  0  2  0  0  0
  -24.8490  -28.9618   20.1113 C   0  0  0  0  0  0
  -22.7416  -29.4650   22.5012 C   0  0  0  0  0  0
  -18.0272  -28.1392   22.8481 C   0  0  0  0  0  0
  -24.1486  -36.7317   23.2639 C   0  0  0  0  0  0
  -25.9286  -30.8406   21.3554 C   0  0  0  0  0  0
  -26.0097  -29.4755   20.7025 C   0  0  0  0  0  0
  -27.2085  -28.7257   20.6844 C   0  0  0  0  0  0
  -26.0637  -26.9476   19.4876 C   0  0  0  0  0  0
  -24.8736  -27.6998   19.4966 C   0  0  0  0  0  0
  -23.6067  -29.8243   20.1673 C   0  0  0  0  0  0
  -25.4093  -36.3119   24.0343 C   0  0  1  0  0  0
  -20.5865  -28.3650   23.1339 C   0  0  2  0  0  0
  -20.6779  -26.9396   22.5420 C   0  0  0  0  0  0
  -19.5747  -26.6401   21.5225 C   0  0  0  0  0  0
  -18.1913  -26.7940   22.1619 C   0  0  0  0  0  0
  -19.1528  -28.8832   23.2909 C   0  0  0  0  0  0
  -18.9448  -30.1446   23.8909 C   0  0  0  0  0  0
  -17.6450  -30.6582   24.0569 C   0  0  0  0  0  0
  -25.9029  -34.9485   23.5140 C   0  0  0  0  0  0
  -16.5336  -29.9072   23.6345 C   0  0  0  0  0  0
  -16.7268  -28.6506   23.0329 C   0  0  0  0  0  0
  -26.4477  -31.6576   25.0718 C   0  0  0  0  0  0
  -25.3739  -31.3650   26.1458 C   0  0  0  0  0  0
  -27.0297  -30.3023   24.6050 C   0  0  0  0  0  0
  -27.6101  -32.4260   25.7447 C   0  0  0  0  0  0
  -27.5572  -37.1798   24.8472 C   0  0  0  0  0  0
  -21.4146  -29.3021   22.3759 N   0  0  0  0  0  0
  -26.4290  -37.3792   23.9416 N   0  0  0  0  0  0
  -24.6674  -31.0792   22.0990 N   0  0  0  0  0  0
  -23.4196  -28.8195   23.3055 O   0  0  0  0  0  0
  -28.4328  -26.7274   20.1116 O   0  0  0  0  0  0
  -26.5591  -34.8934   22.4702 O   0  0  0  0  0  0
  -23.5348  -32.1432   23.7487 O   0  0  0  0  0  0
  -31.0403  -18.7984   22.2898 C   0  0  0  0  0  0
  -30.0983  -19.5995   21.6022 C   0  0  0  0  0  0
  -29.2627  -18.9860   20.6271 C   0  0  0  0  0  0
  -30.1574  -16.7754   21.2433 C   0  0  0  0  0  0
  -29.2727  -17.5743   20.4796 C   0  0  0  0  0  0
  -31.0723  -17.3985   22.1185 C   0  0  0  0  0  0
  -28.3295  -19.8255   19.7639 C   0  0  0  0  0  0
  -31.5375  -22.8161   21.8614 C   0  0  0  0  0  0
  -28.8566  -16.5936   18.3930 C   0  0  0  0  0  0
  -29.8471  -21.0343   22.1031 C   0  0  0  0  0  0
  -29.6042  -24.5597   20.4662 C   0  0  0  0  0  0
  -29.2383  -23.1195   20.9216 C   0  0  0  0  0  0
  -28.3574  -25.3060   19.9344 C   0  0  0  0  0  0
  -29.9783  -15.3678   21.2669 N   0  0  0  0  0  0
  -30.3460  -22.1648   21.2589 N   0  3  1  0  0  0
  -28.3464  -16.9727   19.6625 O   0  0  0  0  0  0
  -31.9135  -16.6503   22.8725 F   0  0  0  0  0  0
  -31.4714  -12.4394   19.0905 H   0  0  0  0  0  0
  -30.3671  -11.2817   19.7807 H   0  0  0  0  0  0
  -29.7182  -11.7754   17.4152 H   0  0  0  0  0  0
  -29.6636  -13.4818   17.7512 H   0  0  0  0  0  0
  -27.8286  -11.3056   18.8111 H   0  0  0  0  0  0
  -27.3565  -12.6350   17.7883 H   0  0  0  0  0  0
  -27.7155  -14.2416   19.6027 H   0  0  0  0  0  0
  -28.6923  -11.8850   21.2864 H   0  0  0  0  0  0
  -28.4635  -13.4894   21.8958 H   0  0  0  0  0  0
  -25.2753   -9.5715   22.4748 H   0  0  0  0  0  0
  -24.0032   -7.4643   22.7463 H   0  0  0  0  0  0
  -21.0816   -8.8755   19.8970 H   0  0  0  0  0  0
  -22.3629  -10.9679   19.6180 H   0  0  0  0  0  0
  -21.2024   -7.6159   23.9708 H   0  0  0  0  0  0
  -21.1454   -6.0524   25.9068 H   0  0  0  0  0  0
  -22.0605   -2.7600   23.2842 H   0  0  0  0  0  0
  -22.4168  -11.9948   22.4806 H   0  0  0  0  0  0
  -21.1197  -13.1322   22.2606 H   0  0  0  0  0  0
  -24.6726  -15.8367   20.4761 H   0  0  0  0  0  0
  -26.2986  -15.6197   20.0830 H   0  0  0  0  0  0
  -26.7107  -32.5531   23.1178 H   0  0  0  0  0  0
  -25.0077  -33.9800   25.0495 H   0  0  0  0  0  0
  -22.6856  -31.3040   21.4160 H   0  0  0  0  0  0
  -23.3753  -35.9650   23.3321 H   0  0  0  0  0  0
  -24.3609  -36.8913   22.2060 H   0  0  0  0  0  0
  -23.7226  -37.6526   23.6629 H   0  0  0  0  0  0
  -26.0299  -31.6066   20.5845 H   0  0  0  0  0  0
  -26.8223  -30.9024   21.9648 H   0  0  0  0  0  0
  -28.1047  -29.1276   21.1358 H   0  0  0  0  0  0
  -26.0419  -25.9856   18.9959 H   0  0  0  0  0  0
  -23.9835  -27.3017   19.0293 H   0  0  0  0  0  0
  -23.6998  -30.6006   19.4068 H   0  0  0  0  0  0
  -22.7310  -29.2392   19.8835 H   0  0  0  0  0  0
  -25.1267  -36.2018   25.0832 H   0  0  0  0  0  0
  -20.9935  -28.3210   24.1470 H   0  0  0  0  0  0
  -20.5741  -26.2222   23.3590 H   0  0  0  0  0  0
  -21.6627  -26.7483   22.1157 H   0  0  0  0  0  0
  -19.6912  -25.6339   21.1177 H   0  0  0  0  0  0
  -19.6697  -27.3283   20.6823 H   0  0  0  0  0  0
  -17.4200  -26.6722   21.4011 H   0  0  0  0  0  0
  -18.0292  -26.0099   22.9028 H   0  0  0  0  0  0
  -19.7921  -30.7279   24.2264 H   0  0  0  0  0  0
  -17.4990  -31.6262   24.5184 H   0  0  0  0  0  0
  -15.5326  -30.2964   23.7672 H   0  0  0  0  0  0
  -15.8674  -28.0840   22.6999 H   0  0  0  0  0  0
  -24.5946  -30.6965   25.7780 H   0  0  0  0  0  0
  -24.8874  -32.2792   26.4891 H   0  0  0  0  0  0
  -25.8102  -30.8831   27.0218 H   0  0  0  0  0  0
  -26.2838  -29.6785   24.1100 H   0  0  0  0  0  0
  -27.4129  -29.7257   25.4485 H   0  0  0  0  0  0
  -27.8644  -30.4388   23.9162 H   0  0  0  0  0  0
  -27.2789  -33.3558   26.2075 H   0  0  0  0  0  0
  -28.3861  -32.6804   25.0214 H   0  0  0  0  0  0
  -28.0817  -31.8322   26.5298 H   0  0  0  0  0  0
  -28.2601  -38.0085   24.7522 H   0  0  0  0  0  0
  -28.1051  -36.2621   24.6291 H   0  0  0  0  0  0
  -27.2297  -37.1457   25.8878 H   0  0  0  0  0  0
  -20.9307  -29.8719   21.6958 H   0  0  0  0  0  0
  -26.0197  -38.2872   24.1426 H   0  0  0  0  0  0
  -31.6877  -19.2383   23.0366 H   0  0  0  0  0  0
  -27.6615  -20.4454   20.3602 H   0  0  0  0  0  0
  -27.7023  -19.2179   19.1135 H   0  0  0  0  0  0
  -28.9164  -20.4698   19.1063 H   0  0  0  0  0  0
  -31.2594  -23.4007   22.7400 H   0  0  0  0  0  0
  -32.0374  -23.4812   21.1579 H   0  0  0  0  0  0
  -32.2696  -22.0710   22.1711 H   0  0  0  0  0  0
  -29.3440  -15.6240   18.4504 H   0  0  0  0  0  0
  -29.5733  -17.3147   17.9986 H   0  0  0  0  0  0
  -28.0287  -16.5074   17.6867 H   0  0  0  0  0  0
  -30.2387  -21.1328   23.1181 H   0  0  0  0  0  0
  -28.7679  -21.1089   22.2463 H   0  0  0  0  0  0
  -30.3772  -24.5473   19.6966 H   0  0  0  0  0  0
  -30.0141  -25.1109   21.3139 H   0  0  0  0  0  0
  -28.6273  -22.6534   20.1523 H   0  0  0  0  0  0
  -28.5881  -23.2283   21.7921 H   0  0  0  0  0  0
  -27.4813  -24.9243   20.4604 H   0  0  0  0  0  0
  -28.2228  -25.0714   18.8767 H   0  0  0  0  0  0
  -29.0564  -15.0587   21.5309 H   0  0  0  0  0  0
  -30.6655  -21.7521   20.3946 H   0  0  0  0  0  0
  1 25  1  0  0  0
  1 30  2  0  0  0
  1 84  1  0  0  0
  2  3  1  0  0  0
  2 25  1  0  0  0
  2 88  1  0  0  0
  2 89  1  0  0  0
  3  4  1  0  0  0
  3 90  1  0  0  0
  3 91  1  0  0  0
  4  5  1  0  0  0
  4 92  1  0  0  0
  4 93  1  0  0  0
  5  6  1  0  0  0
  5 26  1  0  0  0
  5 94  1  0  0  0
  6 25  1  0  0  0
  6 95  1  0  0  0
  6 96  1  0  0  0
  7  8  2  0  0  0
  7 26  1  0  0  0
  7 29  1  0  0  0
  8  9  1  0  0  0
  8 22  1  0  0  0
  9 10  1  0  0  0
  9 27  2  0  0  0
 10 11  2  0  0  0
 10 15  1  0  0  0
 11 12  1  0  0  0
 11 97  1  0  0  0
 12 13  2  0  0  0
 12 98  1  0  0  0
 13 14  1  0  0  0
 13 31  1  0  0  0
 14 15  2  0  0  0
 14 99  1  0  0  0
 15100  1  0  0  0
 16 17  2  0  0  0
 16 21  1  0  0  0
 16 31  1  0  0  0
 17 18  1  0  0  0
 17101  1  0  0  0
 18 19  2  0  0  0
 18102  1  0  0  0
 19 20  1  0  0  0
 19 24  1  0  0  0
 20 21  2  0  0  0
 20103  1  0  0  0
 21 23  1  0  0  0
 22 28  1  0  0  0
 22 32  2  0  0  0
 26 27  1  0  0  0
 28104  1  0  0  0
 28105  1  0  0  0
 29106  1  0  0  0
 29107  1  0  0  0
 33 34  1  0  0  0
 33 66  1  0  0  0
 33 70  2  0  0  0
 34 36  1  0  0  0
 34 59  1  0  0  0
 34108  1  0  0  0
 35 44  2  0  0  0
 35 45  1  0  0  0
 35 68  1  0  0  0
 36 56  1  0  0  0
 36109  1  0  0  0
 37 39  1  0  0  0
 37 47  1  0  0  0
 37 66  1  0  0  0
 37110  1  0  0  0
 38 43  2  0  0  0
 38 46  1  0  0  0
 38 47  1  0  0  0
 39 64  1  0  0  0
 39 67  2  0  0  0
 40 52  1  0  0  0
 40 53  2  0  0  0
 40 58  1  0  0  0
 41111  1  0  0  0
 41112  1  0  0  0
 41113  1  0  0  0
 41 48  1  0  0  0
 42 43  1  0  0  0
 42 66  1  0  0  0
 42114  1  0  0  0
 42115  1  0  0  0
 43 44  1  0  0  0
 44116  1  0  0  0
 45 46  2  0  0  0
 45117  1  0  0  0
 46118  1  0  0  0
 47119  1  0  0  0
 47120  1  0  0  0
 48 56  1  0  0  0
 48 65  1  0  0  0
 48121  1  0  0  0
 49 50  1  0  0  0
 49 53  1  0  0  0
 49 64  1  0  0  0
 49122  1  0  0  0
 50 51  1  0  0  0
 50123  1  0  0  0
 50124  1  0  0  0
 51 52  1  0  0  0
 51125  1  0  0  0
 51126  1  0  0  0
 52127  1  0  0  0
 52128  1  0  0  0
 53 54  1  0  0  0
 54 55  2  0  0  0
 54129  1  0  0  0
 55 57  1  0  0  0
 55130  1  0  0  0
 56 69  2  0  0  0
 57 58  2  0  0  0
 57131  1  0  0  0
 58132  1  0  0  0
 59 60  1  0  0  0
 59 61  1  0  0  0
 59 62  1  0  0  0
 60133  1  0  0  0
 60134  1  0  0  0
 60135  1  0  0  0
 61136  1  0  0  0
 61137  1  0  0  0
 61138  1  0  0  0
 62139  1  0  0  0
 62140  1  0  0  0
 62141  1  0  0  0
 63 65  1  0  0  0
 63142  1  0  0  0
 63143  1  0  0  0
 63144  1  0  0  0
 64145  1  0  0  0
 65146  1  0  0  0
 68 83  1  0  0  0
 71 72  2  0  0  0
 71 76  1  0  0  0
 71147  1  0  0  0
 72 73  1  0  0  0
 72 80  1  0  0  0
 73 75  2  0  0  0
 73 77  1  0  0  0
 74 75  1  0  0  0
 74 76  2  0  0  0
 74 84  1  0  0  0
 75 86  1  0  0  0
 76 87  1  0  0  0
 77148  1  0  0  0
 77149  1  0  0  0
 77150  1  0  0  0
 78151  1  0  0  0
 78152  1  0  0  0
 78153  1  0  0  0
 78 85  1  0  0  0
 79 86  1  0  0  0
 79154  1  0  0  0
 79155  1  0  0  0
 79156  1  0  0  0
 80 85  1  0  0  0
 80157  1  0  0  0
 80158  1  0  0  0
 81 82  1  0  0  0
 81 83  1  0  0  0
 81159  1  0  0  0
 81160  1  0  0  0
 82 85  1  0  0  0
 82161  1  0  0  0
 82162  1  0  0  0
 83163  1  0  0  0
 83164  1  0  0  0
 84165  1  0  0  0
 85166  1  0  0  0
M  CHG  1  85   1
M  ISO  4   1 100  68 101  83 101  84 100
M  END
> <chiral flag>
0

> <version>
0

> <s_m_source_file>
/data/baiqing/PycharmProjects/Reinvent-master-3.2/result/LINK_invent/BTK/process_docking_weight1_custom_sum_contain_oxygen_bond_distance_aromatic_linkinvent_7_9_3/rearranged_h_0020.sdf

> <i_m_source_file_index>
17

> <r_mmod_Potential_Energy-OPLS-2005>
-195.537582397461

> <r_mmod_Stretch_Energy-OPLS-2005>
40.6859397888184

> <r_mmod_Bend_Energy-OPLS-2005>
106.118385314941

> <r_mmod_Torsional_Energy-OPLS-2005>
289.055633544922

> <r_mmod_Improper_Torsional_Energy-OPLS-2005>
6.73103618621826

> <r_mmod_Van_der_Waal_Energy-OPLS-2005>
154.166015625

> <r_mmod_Electrostatic_Energy-OPLS-2005>
-347.679779052734

> <r_mmod_Solvation_Energy-OPLS-2005>
-455.375335693359

> <b_mmod_Minimization_Converged-OPLS-2005>
0

> <r_mmod_RMS_Derivative-OPLS-2005>
4.22077465057373

$$$$
17
                    3D
 Structure written by MMmdl.
156164  0  0  1  0            999 V2000
  -30.4329  -15.1809   20.3791 C   0  0  0  0  0  0
  -30.4504  -12.7484   19.5106 C   0  0  0  0  0  0
  -29.5357  -12.5669   18.2733 C   0  0  0  0  0  0
  -28.0777  -12.3066   18.6970 C   0  0  0  0  0  0
  -27.6190  -13.2639   19.8263 C   0  0  2  0  0  0
  -28.6583  -13.3796   20.9608 C   0  0  0  0  0  0
  -25.2420  -13.8226   20.5716 C   0  0  0  0  0  0
  -24.1759  -13.0431   20.9239 C   0  0  0  0  0  0
  -24.6398  -11.6923   20.8749 C   0  0  0  0  0  0
  -23.9085  -10.4290   21.0403 C   0  0  0  0  0  0
  -24.3631   -9.4206   21.9183 C   0  0  0  0  0  0
  -23.6301   -8.2243   22.0752 C   0  0  0  0  0  0
  -22.4284   -8.0281   21.3543 C   0  0  0  0  0  0
  -21.9921   -9.0255   20.4647 C   0  0  0  0  0  0
  -22.7253  -10.2132   20.3056 C   0  0  0  0  0  0
  -21.6854   -6.0735   22.5278 C   0  0  0  0  0  0
  -21.4014   -6.5637   23.8212 C   0  0  0  0  0  0
  -21.3660   -5.6788   24.9173 C   0  0  0  0  0  0
  -21.6048   -4.3051   24.7223 C   0  0  0  0  0  0
  -21.8818   -3.8144   23.4340 C   0  0  0  0  0  0
  -21.9192   -4.6962   22.3398 C   0  0  0  0  0  0
  -22.7776  -13.5195   21.1888 C   0  0  0  0  0  0
  -22.1662   -4.2147   21.0976 F   0  0  0  0  0  0
  -21.5630   -3.4535   25.7735 F   0  0  0  0  0  0
  -29.9008  -13.8701   20.3445 N   0  0  0  0  0  0
  -26.2845  -12.9482   20.3201 N   0  0  0  0  0  0
  -25.9336  -11.6598   20.5706 N   0  0  0  0  0  0
  -22.0423  -12.8192   22.0446 N   0  0  0  0  0  0
  -25.4043  -15.1962   20.4148 N   0  0  0  0  0  0
  -31.6523  -15.2410   20.1675 O   0  0  0  0  0  0
  -21.6644   -6.8881   21.4242 O   0  0  0  0  0  0
  -22.3461  -14.5495   20.6721 O   0  0  0  0  0  0
  -24.6583  -31.8283   23.1745 C   0  0  0  0  0  0
  -25.9286  -32.4610   23.8193 C   0  0  1  0  0  0
  -27.2215  -26.9792   20.1791 C   0  0  0  0  0  0
  -25.5973  -33.8421   24.2103 N   0  0  0  0  0  0
  -23.4705  -30.4411   21.5230 C   0  0  2  0  0  0
  -24.9233  -28.8352   20.1144 C   0  0  0  0  0  0
  -22.7641  -29.4464   22.4803 C   0  0  0  0  0  0
  -18.0319  -28.1406   22.8470 C   0  0  0  0  0  0
  -24.1496  -36.7216   23.2646 C   0  0  0  0  0  0
  -26.0365  -30.6518   21.3965 C   0  0  0  0  0  0
  -26.1060  -29.2464   20.7412 C   0  0  0  0  0  0
  -27.2521  -28.3395   20.7469 C   0  0  0  0  0  0
  -26.0080  -26.7042   19.5107 C   0  0  0  0  0  0
  -24.8964  -27.5832   19.4797 C   0  0  0  0  0  0
  -23.7075  -29.7576   20.1487 C   0  0  0  0  0  0
  -25.4133  -36.2978   24.0304 C   0  0  1  0  0  0
  -20.5939  -28.3745   23.1203 C   0  0  2  0  0  0
  -20.6798  -26.9433   22.5406 C   0  0  0  0  0  0
  -19.5772  -26.6379   21.5214 C   0  0  0  0  0  0
  -18.1954  -26.7942   22.1620 C   0  0  0  0  0  0
  -19.1580  -28.8896   23.2825 C   0  0  0  0  0  0
  -18.9487  -30.1485   23.8859 C   0  0  0  0  0  0
  -17.6482  -30.6596   24.0553 C   0  0  0  0  0  0
  -25.9093  -34.9359   23.5021 C   0  0  0  0  0  0
  -16.5372  -29.9081   23.6344 C   0  0  0  0  0  0
  -16.7301  -28.6502   23.0363 C   0  0  0  0  0  0
  -26.4557  -31.6538   25.0700 C   0  0  0  0  0  0
  -25.3701  -31.3767   26.1367 C   0  0  0  0  0  0
  -27.0447  -30.2913   24.6394 C   0  0  0  0  0  0
  -27.6062  -32.4336   25.7496 C   0  0  0  0  0  0
  -27.5575  -37.1763   24.8464 C   0  0  0  0  0  0
  -21.4317  -29.3040   22.3553 N   0  0  0  0  0  0
  -26.4282  -37.3711   23.9407 N   0  0  0  0  0  0
  -24.7426  -30.9993   22.0855 N   0  0  0  0  0  0
  -23.4211  -28.8035   23.3030 O   0  0  0  0  0  0
  -28.2497  -25.9162   20.2387 O   0  0  0  0  0  0
  -26.5693  -34.8887   22.4610 O   0  0  0  0  0  0
  -23.5664  -32.1230   23.6872 O   0  0  0  0  0  0
  -30.1429  -18.9269   21.2441 C   0  0  0  0  0  0
  -29.9593  -20.3995   21.2512 C   0  0  0  0  0  0
  -28.5305  -20.2429   19.4235 C   0  0  0  0  0  0
  -29.1340  -21.2019   20.3429 C   0  0  0  0  0  0
  -28.7128  -18.7547   19.4317 C   0  0  0  0  0  0
  -29.5534  -17.9659   20.3374 C   0  0  0  0  0  0
  -30.7386  -21.1447   22.3216 C   0  0  0  0  0  0
  -27.6504  -20.8467   18.3363 C   0  0  0  0  0  0
  -27.9525  -17.9565   18.3768 C   0  0  0  0  0  0
  -29.1561  -22.9490   20.2712 C   0  0  0  0  0  0
  -28.0123  -24.3017   20.2021 C   0  0  0  0  0  0
  -29.5680  -16.3641   20.4351 N   0  0  0  0  0  0
  -31.4696  -12.9589   19.1836 H   0  0  0  0  0  0
  -30.5107  -11.8260   20.0901 H   0  0  0  0  0  0
  -29.8994  -11.7502   17.6481 H   0  0  0  0  0  0
  -29.5794  -13.4669   17.6575 H   0  0  0  0  0  0
  -28.0145  -11.2748   19.0446 H   0  0  0  0  0  0
  -27.4110  -12.3807   17.8367 H   0  0  0  0  0  0
  -27.5506  -14.2447   19.3547 H   0  0  0  0  0  0
  -28.8058  -12.4238   21.4656 H   0  0  0  0  0  0
  -28.3168  -14.0821   21.7226 H   0  0  0  0  0  0
  -25.2774   -9.5685   22.4758 H   0  0  0  0  0  0
  -24.0009   -7.4635   22.7474 H   0  0  0  0  0  0
  -21.0849   -8.8779   19.8955 H   0  0  0  0  0  0
  -22.3712  -10.9672   19.6166 H   0  0  0  0  0  0
  -21.2011   -7.6146   23.9715 H   0  0  0  0  0  0
  -21.1484   -6.0518   25.9077 H   0  0  0  0  0  0
  -22.0598   -2.7606   23.2837 H   0  0  0  0  0  0
  -22.4049  -11.9874   22.4864 H   0  0  0  0  0  0
  -21.1033  -13.1215   22.2631 H   0  0  0  0  0  0
  -24.6282  -15.8393   20.5283 H   0  0  0  0  0  0
  -26.2367  -15.6430   20.0569 H   0  0  0  0  0  0
  -26.7349  -32.5168   23.0906 H   0  0  0  0  0  0
  -25.0087  -33.9507   25.0230 H   0  0  0  0  0  0
  -22.7813  -31.2713   21.3550 H   0  0  0  0  0  0
  -23.3771  -35.9534   23.3277 H   0  0  0  0  0  0
  -24.3580  -36.8889   22.2068 H   0  0  0  0  0  0
  -23.7242  -37.6392   23.6718 H   0  0  0  0  0  0
  -26.2090  -31.3962   20.6181 H   0  0  0  0  0  0
  -26.8998  -30.7084   22.0478 H   0  0  0  0  0  0
  -28.1512  -28.6534   21.2583 H   0  0  0  0  0  0
  -25.8877  -25.7483   19.0228 H   0  0  0  0  0  0
  -23.9962  -27.2622   18.9733 H   0  0  0  0  0  0
  -23.8589  -30.5263   19.3899 H   0  0  0  0  0  0
  -22.8187  -29.2085   19.8330 H   0  0  0  0  0  0
  -25.1331  -36.1782   25.0797 H   0  0  0  0  0  0
  -21.0026  -28.3349   24.1326 H   0  0  0  0  0  0
  -20.5686  -26.2360   23.3639 H   0  0  0  0  0  0
  -21.6663  -26.7417   22.1208 H   0  0  0  0  0  0
  -19.6930  -25.6279   21.1275 H   0  0  0  0  0  0
  -19.6716  -27.3165   20.6726 H   0  0  0  0  0  0
  -17.4225  -26.6687   21.4020 H   0  0  0  0  0  0
  -18.0343  -26.0095   22.9026 H   0  0  0  0  0  0
  -19.7962  -30.7312   24.2213 H   0  0  0  0  0  0
  -17.5032  -31.6275   24.5156 H   0  0  0  0  0  0
  -15.5370  -30.2967   23.7692 H   0  0  0  0  0  0
  -15.8703  -28.0804   22.7102 H   0  0  0  0  0  0
  -24.5899  -30.7096   25.7679 H   0  0  0  0  0  0
  -24.8866  -32.2956   26.4691 H   0  0  0  0  0  0
  -25.7948  -30.9005   27.0212 H   0  0  0  0  0  0
  -26.3099  -29.6599   24.1385 H   0  0  0  0  0  0
  -27.3984  -29.7265   25.5030 H   0  0  0  0  0  0
  -27.9041  -30.4111   23.9793 H   0  0  0  0  0  0
  -27.2641  -33.3676   26.1967 H   0  0  0  0  0  0
  -28.3926  -32.6832   25.0360 H   0  0  0  0  0  0
  -28.0672  -31.8532   26.5497 H   0  0  0  0  0  0
  -28.2567  -38.0083   24.7517 H   0  0  0  0  0  0
  -28.1095  -36.2607   24.6281 H   0  0  0  0  0  0
  -27.2291  -37.1395   25.8866 H   0  0  0  0  0  0
  -20.9565  -29.8719   21.6678 H   0  0  0  0  0  0
  -26.0134  -38.2771   24.1417 H   0  0  0  0  0  0
  -30.7705  -18.5058   22.0169 H   0  0  0  0  0  0
  -31.2484  -20.4665   23.0066 H   0  0  0  0  0  0
  -30.0710  -21.7658   22.9196 H   0  0  0  0  0  0
  -31.4976  -21.7826   21.8677 H   0  0  0  0  0  0
  -27.4573  -21.9049   18.4993 H   0  0  0  0  0  0
  -26.6783  -20.3548   18.2941 H   0  0  0  0  0  0
  -28.1314  -20.7515   17.3624 H   0  0  0  0  0  0
  -28.1005  -18.3797   17.3835 H   0  0  0  0  0  0
  -26.8849  -17.9561   18.5968 H   0  0  0  0  0  0
  -28.2757  -16.9188   18.3113 H   0  0  0  0  0  0
  -29.8006  -23.1238   19.4099 H   0  0  0  0  0  0
  -29.7866  -23.2357   21.1093 H   0  0  0  0  0  0
  -27.3142  -24.1264   21.0209 H   0  0  0  0  0  0
  -27.4243  -24.1295   19.3019 H   0  0  0  0  0  0
  -28.6215  -16.0195   20.4712 H   0  0  0  0  0  0
  1 25  1  0  0  0
  1 30  2  0  0  0
  1 82  1  0  0  0
  2  3  1  0  0  0
  2 25  1  0  0  0
  2 83  1  0  0  0
  2 84  1  0  0  0
  3  4  1  0  0  0
  3 85  1  0  0  0
  3 86  1  0  0  0
  4  5  1  0  0  0
  4 87  1  0  0  0
  4 88  1  0  0  0
  5  6  1  0  0  0
  5 26  1  0  0  0
  5 89  1  0  0  0
  6 25  1  0  0  0
  6 90  1  0  0  0
  6 91  1  0  0  0
  7  8  2  0  0  0
  7 26  1  0  0  0
  7 29  1  0  0  0
  8  9  1  0  0  0
  8 22  1  0  0  0
  9 10  1  0  0  0
  9 27  2  0  0  0
 10 11  2  0  0  0
 10 15  1  0  0  0
 11 12  1  0  0  0
 11 92  1  0  0  0
 12 13  2  0  0  0
 12 93  1  0  0  0
 13 14  1  0  0  0
 13 31  1  0  0  0
 14 15  2  0  0  0
 14 94  1  0  0  0
 15 95  1  0  0  0
 16 17  2  0  0  0
 16 21  1  0  0  0
 16 31  1  0  0  0
 17 18  1  0  0  0
 17 96  1  0  0  0
 18 19  2  0  0  0
 18 97  1  0  0  0
 19 20  1  0  0  0
 19 24  1  0  0  0
 20 21  2  0  0  0
 20 98  1  0  0  0
 21 23  1  0  0  0
 22 28  1  0  0  0
 22 32  2  0  0  0
 26 27  1  0  0  0
 28 99  1  0  0  0
 28100  1  0  0  0
 29101  1  0  0  0
 29102  1  0  0  0
 33 34  1  0  0  0
 33 66  1  0  0  0
 33 70  2  0  0  0
 34 36  1  0  0  0
 34 59  1  0  0  0
 34103  1  0  0  0
 35 44  2  0  0  0
 35 45  1  0  0  0
 35 68  1  0  0  0
 36 56  1  0  0  0
 36104  1  0  0  0
 37 39  1  0  0  0
 37 47  1  0  0  0
 37 66  1  0  0  0
 37105  1  0  0  0
 38 43  2  0  0  0
 38 46  1  0  0  0
 38 47  1  0  0  0
 39 64  1  0  0  0
 39 67  2  0  0  0
 40 52  1  0  0  0
 40 53  2  0  0  0
 40 58  1  0  0  0
 41106  1  0  0  0
 41107  1  0  0  0
 41108  1  0  0  0
 41 48  1  0  0  0
 42 43  1  0  0  0
 42 66  1  0  0  0
 42109  1  0  0  0
 42110  1  0  0  0
 43 44  1  0  0  0
 44111  1  0  0  0
 45 46  2  0  0  0
 45112  1  0  0  0
 46113  1  0  0  0
 47114  1  0  0  0
 47115  1  0  0  0
 48 56  1  0  0  0
 48 65  1  0  0  0
 48116  1  0  0  0
 49 50  1  0  0  0
 49 53  1  0  0  0
 49 64  1  0  0  0
 49117  1  0  0  0
 50 51  1  0  0  0
 50118  1  0  0  0
 50119  1  0  0  0
 51 52  1  0  0  0
 51120  1  0  0  0
 51121  1  0  0  0
 52122  1  0  0  0
 52123  1  0  0  0
 53 54  1  0  0  0
 54 55  2  0  0  0
 54124  1  0  0  0
 55 57  1  0  0  0
 55125  1  0  0  0
 56 69  2  0  0  0
 57 58  2  0  0  0
 57126  1  0  0  0
 58127  1  0  0  0
 59 60  1  0  0  0
 59 61  1  0  0  0
 59 62  1  0  0  0
 60128  1  0  0  0
 60129  1  0  0  0
 60130  1  0  0  0
 61131  1  0  0  0
 61132  1  0  0  0
 61133  1  0  0  0
 62134  1  0  0  0
 62135  1  0  0  0
 62136  1  0  0  0
 63 65  1  0  0  0
 63137  1  0  0  0
 63138  1  0  0  0
 63139  1  0  0  0
 64140  1  0  0  0
 65141  1  0  0  0
 68 81  1  0  0  0
 71 72  2  0  0  0
 71 76  1  0  0  0
 71142  1  0  0  0
 72 74  1  0  0  0
 72 77  1  0  0  0
 73 74  2  0  0  0
 73 75  1  0  0  0
 73 78  1  0  0  0
 74 80  1  0  0  0
 75 76  2  0  0  0
 75 79  1  0  0  0
 76 82  1  0  0  0
 77143  1  0  0  0
 77144  1  0  0  0
 77145  1  0  0  0
 78146  1  0  0  0
 78147  1  0  0  0
 78148  1  0  0  0
 79149  1  0  0  0
 79150  1  0  0  0
 79151  1  0  0  0
 80 81  1  0  0  0
 80152  1  0  0  0
 80153  1  0  0  0
 81154  1  0  0  0
 81155  1  0  0  0
 82156  1  0  0  0
M  ISO  4   1 100  68 101  81 101  82 100
M  END
> <chiral flag>
0

> <version>
0

> <s_m_source_file>
/data/baiqing/PycharmProjects/Reinvent-master-3.2/result/LINK_invent/BTK/process_docking_weight1_custom_sum_contain_oxygen_bond_distance_aromatic_linkinvent_7_9_3/rearranged_h_0020.sdf

> <i_m_source_file_index>
18

> <r_mmod_Potential_Energy-OPLS-2005>
1018.62701416016

> <r_mmod_Stretch_Energy-OPLS-2005>
462.533325195312

> <r_mmod_Bend_Energy-OPLS-2005>
398.168395996094

> <r_mmod_Torsional_Energy-OPLS-2005>
239.641448974609

> <r_mmod_Improper_Torsional_Energy-OPLS-2005>
7.6815824508667

> <r_mmod_Van_der_Waal_Energy-OPLS-2005>
133.614715576172

> <r_mmod_Electrostatic_Energy-OPLS-2005>
-390.56103515625

> <r_mmod_Solvation_Energy-OPLS-2005>
-210.807479858398

> <b_mmod_Minimization_Converged-OPLS-2005>
0

> <r_mmod_RMS_Derivative-OPLS-2005>
0.66501247882843

$$$$
18
                    3D
 Structure written by MMmdl.
183191  0  0  1  0            999 V2000
  -31.1854  -14.3864   20.9117 C   0  0  0  0  0  0
  -31.0915  -12.5016   19.1666 C   0  0  0  0  0  0
  -29.7856  -12.0968   17.6931 C   0  0  0  0  0  0
  -27.7894  -12.4768   18.0632 C   0  0  0  0  0  0
  -27.3508  -13.3583   19.7916 C   0  0  2  0  0  0
  -28.7187  -13.5359   21.1971 C   0  0  0  0  0  0
  -25.1076  -13.8416   20.6408 C   0  0  0  0  0  0
  -24.0749  -13.0371   20.9810 C   0  0  0  0  0  0
  -24.5589  -11.6943   20.8954 C   0  0  0  0  0  0
  -23.8690  -10.4198   21.0400 C   0  0  0  0  0  0
  -24.3404   -9.4196   21.9165 C   0  0  0  0  0  0
  -23.6161   -8.2167   22.0724 C   0  0  0  0  0  0
  -22.4113   -8.0197   21.3534 C   0  0  0  0  0  0
  -21.9708   -9.0155   20.4593 C   0  0  0  0  0  0
  -22.6974  -10.2037   20.2977 C   0  0  0  0  0  0
  -21.6855   -6.0639   22.5260 C   0  0  0  0  0  0
  -21.4099   -6.5591   23.8196 C   0  0  0  0  0  0
  -21.3604   -5.6739   24.9122 C   0  0  0  0  0  0
  -21.6037   -4.3028   24.7189 C   0  0  0  0  0  0
  -21.8931   -3.8134   23.4308 C   0  0  0  0  0  0
  -21.9245   -4.6893   22.3360 C   0  0  0  0  0  0
  -22.6919  -13.5076   21.2381 C   0  0  0  0  0  0
  -22.1703   -4.2097   21.0945 F   0  0  0  0  0  0
  -21.5521   -3.4496   25.7688 F   0  0  0  0  0  0
  -30.4955  -13.2649   20.7530 N   0  0  0  0  0  0
  -26.1156  -12.9794   20.3287 N   0  0  0  0  0  0
  -25.8301  -11.6815   20.5363 N   0  0  0  0  0  0
  -21.9702  -12.7971   22.0861 N   0  0  0  0  0  0
  -25.2584  -15.2193   20.5246 N   0  0  0  0  0  0
  -32.3239  -14.5954   20.5188 O   0  0  0  0  0  0
  -21.6584   -6.8745   21.4200 O   0  0  0  0  0  0
  -22.2755  -14.5509   20.7208 O   0  0  0  0  0  0
  -24.6216  -31.8569   23.1940 C   0  0  0  0  0  0
  -25.9076  -32.4768   23.8298 C   0  0  1  0  0  0
  -27.2788  -27.3888   20.0924 C   0  0  0  0  0  0
  -25.5888  -33.8559   24.2249 N   0  0  0  0  0  0
  -23.4175  -30.4699   21.5348 C   0  0  2  0  0  0
  -24.8736  -28.9131   20.1182 C   0  0  0  0  0  0
  -22.7462  -29.4599   22.4930 C   0  0  0  0  0  0
  -18.0275  -28.1397   22.8487 C   0  0  0  0  0  0
  -24.1473  -36.7330   23.2642 C   0  0  0  0  0  0
  -25.9422  -30.8150   21.3360 C   0  0  0  0  0  0
  -26.0301  -29.4308   20.7118 C   0  0  0  0  0  0
  -27.2277  -28.6731   20.6982 C   0  0  0  0  0  0
  -26.0961  -26.8847   19.5065 C   0  0  0  0  0  0
  -24.9048  -27.6435   19.5090 C   0  0  0  0  0  0
  -23.6279  -29.7724   20.1594 C   0  0  0  0  0  0
  -25.4094  -36.3078   24.0310 C   0  0  1  0  0  0
  -20.5873  -28.3673   23.1294 C   0  0  2  0  0  0
  -20.6756  -26.9397   22.5408 C   0  0  0  0  0  0
  -19.5721  -26.6398   21.5216 C   0  0  0  0  0  0
  -18.1906  -26.7944   22.1637 C   0  0  0  0  0  0
  -19.1528  -28.8855   23.2901 C   0  0  0  0  0  0
  -18.9453  -30.1460   23.8923 C   0  0  0  0  0  0
  -17.6460  -30.6594   24.0577 C   0  0  0  0  0  0
  -25.9010  -34.9443   23.5069 C   0  0  0  0  0  0
  -16.5353  -29.9103   23.6317 C   0  0  0  0  0  0
  -16.7274  -28.6518   23.0340 C   0  0  0  0  0  0
  -26.4474  -31.6586   25.0654 C   0  0  0  0  0  0
  -25.3733  -31.3728   26.1393 C   0  0  0  0  0  0
  -27.0281  -30.3040   24.5985 C   0  0  0  0  0  0
  -27.5993  -32.4330   25.7489 C   0  0  0  0  0  0
  -27.5537  -37.1838   24.8477 C   0  0  0  0  0  0
  -21.4170  -29.3049   22.3709 N   0  0  0  0  0  0
  -26.4284  -37.3762   23.9366 N   0  0  0  0  0  0
  -24.6822  -31.0633   22.0852 N   0  0  0  0  0  0
  -23.4195  -28.8177   23.3030 O   0  0  0  0  0  0
  -28.4912  -26.7131   20.0767 O   0  0  0  0  0  0
  -26.5597  -34.8918   22.4643 O   0  0  0  0  0  0
  -23.5385  -32.1298   23.7344 O   0  0  0  0  0  0
  -30.1396  -15.8947   17.0427 C   0  0  0  0  0  0
  -29.3863  -14.7306   17.4385 C   0  0  0  0  0  0
  -30.5049  -16.9457   17.8885 C   0  0  0  0  0  0
  -29.3632  -14.1232   18.8519 C   0  0  0  0  0  0
  -29.7406  -15.4038   19.5981 C   0  0  0  0  0  0
  -30.0292  -16.7378   19.1800 C   0  0  0  0  0  0
  -28.6407  -14.3283   16.1338 C   0  0  0  0  0  0
  -29.0203  -11.7077   19.8311 C   0  0  0  0  0  0
  -35.2243  -18.5043   18.8505 C   0  0  0  0  0  0
  -31.9583  -17.9346   16.0264 C   0  0  0  0  0  0
  -34.1580  -18.0436   17.8560 C   0  0  0  0  0  0
  -29.2647  -22.6038   16.9993 C   0  0  0  0  0  0
  -28.7684  -21.1875   17.4630 C   0  0  0  0  0  0
  -29.7738  -23.5719   18.1233 C   0  0  0  0  0  0
  -29.4981  -19.8710   17.0089 C   0  0  0  0  0  0
  -29.0007  -24.9278   18.3716 C   0  0  0  0  0  0
  -32.7287  -18.0204   18.4602 C   0  0  0  0  0  0
  -30.8980  -19.5861   17.5978 C   0  0  0  0  0  0
  -28.6081  -25.2889   19.8399 C   0  0  0  0  0  0
  -31.4804  -18.1144   17.4911 C   0  0  2  0  0  0
  -30.3649  -15.3814   20.8492 N   0  0  0  0  0  0
  -30.1512  -18.0298   20.3498 Cl  0  0  0  0  0  0
  -31.8538  -13.1287   18.7071 H   0  0  0  0  0  0
  -31.6360  -11.5807   19.3858 H   0  0  0  0  0  0
  -29.9143  -11.0410   17.4543 H   0  0  0  0  0  0
  -30.2075  -12.4694   16.7628 H   0  0  0  0  0  0
  -27.2984  -11.4955   18.0805 H   0  0  0  0  0  0
  -27.1684  -12.8830   17.2754 H   0  0  0  0  0  0
  -27.1566  -14.3770   19.4654 H   0  0  0  0  0  0
  -28.5085  -12.8281   22.0075 H   0  0  0  0  0  0
  -28.4641  -14.4346   21.7646 H   0  0  0  0  0  0
  -25.2541   -9.5775   22.4696 H   0  0  0  0  0  0
  -23.9931   -7.4536   22.7392 H   0  0  0  0  0  0
  -21.0637   -8.8713   19.8880 H   0  0  0  0  0  0
  -22.3473  -10.9566   19.6100 H   0  0  0  0  0  0
  -21.2260   -7.6128   23.9669 H   0  0  0  0  0  0
  -21.1159   -6.0442   25.8972 H   0  0  0  0  0  0
  -22.0726   -2.7571   23.2811 H   0  0  0  0  0  0
  -22.3421  -11.9553   22.5056 H   0  0  0  0  0  0
  -21.0198  -13.0745   22.3046 H   0  0  0  0  0  0
  -24.4852  -15.8509   20.6837 H   0  0  0  0  0  0
  -26.1223  -15.6652   20.2432 H   0  0  0  0  0  0
  -26.7197  -32.5493   23.1109 H   0  0  0  0  0  0
  -25.0018  -33.9703   25.0387 H   0  0  0  0  0  0
  -22.7096  -31.2834   21.3696 H   0  0  0  0  0  0
  -23.3670  -35.9736   23.3369 H   0  0  0  0  0  0
  -24.3536  -36.8890   22.2043 H   0  0  0  0  0  0
  -23.7318  -37.6587   23.6626 H   0  0  0  0  0  0
  -25.9993  -31.5512   20.5312 H   0  0  0  0  0  0
  -26.8520  -30.9333   21.9150 H   0  0  0  0  0  0
  -28.1213  -29.0673   21.1658 H   0  0  0  0  0  0
  -26.0883  -25.9101   19.0407 H   0  0  0  0  0  0
  -24.0178  -27.2377   19.0450 H   0  0  0  0  0  0
  -23.7213  -30.5146   19.3666 H   0  0  0  0  0  0
  -22.7657  -29.1579   19.8903 H   0  0  0  0  0  0
  -25.1295  -36.1924   25.0810 H   0  0  0  0  0  0
  -20.9994  -28.3270   24.1410 H   0  0  0  0  0  0
  -20.5640  -26.2313   23.3613 H   0  0  0  0  0  0
  -21.6626  -26.7426   22.1225 H   0  0  0  0  0  0
  -19.6887  -25.6316   21.1225 H   0  0  0  0  0  0
  -19.6657  -27.3219   20.6748 H   0  0  0  0  0  0
  -17.4187  -26.6690   21.4040 H   0  0  0  0  0  0
  -18.0308  -26.0077   22.9019 H   0  0  0  0  0  0
  -19.7929  -30.7256   24.2318 H   0  0  0  0  0  0
  -17.5008  -31.6258   24.5189 H   0  0  0  0  0  0
  -15.5350  -30.3023   23.7604 H   0  0  0  0  0  0
  -15.8667  -28.0850   22.7042 H   0  0  0  0  0  0
  -24.5927  -30.7023   25.7799 H   0  0  0  0  0  0
  -24.8879  -32.2888   26.4766 H   0  0  0  0  0  0
  -25.8082  -30.9004   27.0207 H   0  0  0  0  0  0
  -26.2809  -29.6837   24.1009 H   0  0  0  0  0  0
  -27.4068  -29.7220   25.4404 H   0  0  0  0  0  0
  -27.8619  -30.4390   23.9080 H   0  0  0  0  0  0
  -27.2551  -33.3643   26.2008 H   0  0  0  0  0  0
  -28.3869  -32.6883   25.0391 H   0  0  0  0  0  0
  -28.0562  -31.8482   26.5476 H   0  0  0  0  0  0
  -28.2648  -38.0044   24.7357 H   0  0  0  0  0  0
  -28.0933  -36.2554   24.6514 H   0  0  0  0  0  0
  -27.2214  -37.1761   25.8878 H   0  0  0  0  0  0
  -20.9367  -29.8769   21.6894 H   0  0  0  0  0  0
  -26.0155  -38.2856   24.1275 H   0  0  0  0  0  0
  -30.3526  -16.0663   16.0034 H   0  0  0  0  0  0
  -28.9942  -14.8415   15.2356 H   0  0  0  0  0  0
  -27.6107  -14.6765   16.2234 H   0  0  0  0  0  0
  -28.6381  -13.2934   15.8071 H   0  0  0  0  0  0
  -28.8924  -10.7872   19.2456 H   0  0  0  0  0  0
  -28.2020  -11.4010   20.4902 H   0  0  0  0  0  0
  -29.7380  -11.1932   20.4912 H   0  0  0  0  0  0
  -36.2209  -18.2788   18.4664 H   0  0  0  0  0  0
  -35.1000  -18.0168   19.8124 H   0  0  0  0  0  0
  -35.1681  -19.5862   18.9991 H   0  0  0  0  0  0
  -32.5226  -17.0047   15.9165 H   0  0  0  0  0  0
  -32.6066  -18.7492   15.6996 H   0  0  0  0  0  0
  -31.1286  -17.9391   15.3163 H   0  0  0  0  0  0
  -34.4215  -17.0470   17.4955 H   0  0  0  0  0  0
  -34.2654  -18.7058   17.0007 H   0  0  0  0  0  0
  -28.4343  -23.0938   16.4940 H   0  0  0  0  0  0
  -30.0123  -22.5087   16.2129 H   0  0  0  0  0  0
  -27.7561  -21.1021   17.0587 H   0  0  0  0  0  0
  -28.6293  -21.1806   18.5435 H   0  0  0  0  0  0
  -30.7835  -23.8651   17.8167 H   0  0  0  0  0  0
  -29.9471  -23.0378   19.0627 H   0  0  0  0  0  0
  -29.5351  -19.8046   15.9212 H   0  0  0  0  0  0
  -28.8537  -19.0387   17.3105 H   0  0  0  0  0  0
  -28.1256  -25.0095   17.7307 H   0  0  0  0  0  0
  -29.6700  -25.7273   18.0487 H   0  0  0  0  0  0
  -32.6707  -18.7967   19.2269 H   0  0  0  0  0  0
  -32.6788  -17.0936   19.0394 H   0  0  0  0  0  0
  -30.8739  -19.9036   18.6362 H   0  0  0  0  0  0
  -31.5981  -20.2719   17.1184 H   0  0  0  0  0  0
  -29.4233  -24.9587   20.4872 H   0  0  0  0  0  0
  -27.7358  -24.7260   20.1794 H   0  0  0  0  0  0
  -30.7561  -16.2810   21.0946 H   0  0  0  0  0  0
  1 25  1  0  0  0
  1 30  2  0  0  0
  1 91  1  0  0  0
  2  3  1  0  0  0
  2 25  1  0  0  0
  2 93  1  0  0  0
  2 94  1  0  0  0
  3  4  1  0  0  0
  3 95  1  0  0  0
  3 96  1  0  0  0
  4  5  1  0  0  0
  4 97  1  0  0  0
  4 98  1  0  0  0
  5  6  1  0  0  0
  5 26  1  0  0  0
  5 99  1  0  0  0
  6 25  1  0  0  0
  6100  1  0  0  0
  6101  1  0  0  0
  7  8  2  0  0  0
  7 26  1  0  0  0
  7 29  1  0  0  0
  8  9  1  0  0  0
  8 22  1  0  0  0
  9 10  1  0  0  0
  9 27  2  0  0  0
 10 11  2  0  0  0
 10 15  1  0  0  0
 11 12  1  0  0  0
 11102  1  0  0  0
 12 13  2  0  0  0
 12103  1  0  0  0
 13 14  1  0  0  0
 13 31  1  0  0  0
 14 15  2  0  0  0
 14104  1  0  0  0
 15105  1  0  0  0
 16 17  2  0  0  0
 16 21  1  0  0  0
 16 31  1  0  0  0
 17 18  1  0  0  0
 17106  1  0  0  0
 18 19  2  0  0  0
 18107  1  0  0  0
 19 20  1  0  0  0
 19 24  1  0  0  0
 20 21  2  0  0  0
 20108  1  0  0  0
 21 23  1  0  0  0
 22 28  1  0  0  0
 22 32  2  0  0  0
 26 27  1  0  0  0
 28109  1  0  0  0
 28110  1  0  0  0
 29111  1  0  0  0
 29112  1  0  0  0
 33 34  1  0  0  0
 33 66  1  0  0  0
 33 70  2  0  0  0
 34 36  1  0  0  0
 34 59  1  0  0  0
 34113  1  0  0  0
 35 44  2  0  0  0
 35 45  1  0  0  0
 35 68  1  0  0  0
 36 56  1  0  0  0
 36114  1  0  0  0
 37 39  1  0  0  0
 37 47  1  0  0  0
 37 66  1  0  0  0
 37115  1  0  0  0
 38 43  2  0  0  0
 38 46  1  0  0  0
 38 47  1  0  0  0
 39 64  1  0  0  0
 39 67  2  0  0  0
 40 52  1  0  0  0
 40 53  2  0  0  0
 40 58  1  0  0  0
 41116  1  0  0  0
 41117  1  0  0  0
 41118  1  0  0  0
 41 48  1  0  0  0
 42 43  1  0  0  0
 42 66  1  0  0  0
 42119  1  0  0  0
 42120  1  0  0  0
 43 44  1  0  0  0
 44121  1  0  0  0
 45 46  2  0  0  0
 45122  1  0  0  0
 46123  1  0  0  0
 47124  1  0  0  0
 47125  1  0  0  0
 48 56  1  0  0  0
 48 65  1  0  0  0
 48126  1  0  0  0
 49 50  1  0  0  0
 49 53  1  0  0  0
 49 64  1  0  0  0
 49127  1  0  0  0
 50 51  1  0  0  0
 50128  1  0  0  0
 50129  1  0  0  0
 51 52  1  0  0  0
 51130  1  0  0  0
 51131  1  0  0  0
 52132  1  0  0  0
 52133  1  0  0  0
 53 54  1  0  0  0
 54 55  2  0  0  0
 54134  1  0  0  0
 55 57  1  0  0  0
 55135  1  0  0  0
 56 69  2  0  0  0
 57 58  2  0  0  0
 57136  1  0  0  0
 58137  1  0  0  0
 59 60  1  0  0  0
 59 61  1  0  0  0
 59 62  1  0  0  0
 60138  1  0  0  0
 60139  1  0  0  0
 60140  1  0  0  0
 61141  1  0  0  0
 61142  1  0  0  0
 61143  1  0  0  0
 62144  1  0  0  0
 62145  1  0  0  0
 62146  1  0  0  0
 63 65  1  0  0  0
 63147  1  0  0  0
 63148  1  0  0  0
 63149  1  0  0  0
 64150  1  0  0  0
 65151  1  0  0  0
 68 89  1  0  0  0
 71 72  2  0  0  0
 71 73  1  0  0  0
 71152  1  0  0  0
 72 74  1  0  0  0
 72 77  1  0  0  0
 73 76  2  0  0  0
 73 90  1  0  0  0
 74 75  2  0  0  0
 74 78  1  0  0  0
 75 76  1  0  0  0
 75 91  1  0  0  0
 76 92  1  0  0  0
 77153  1  0  0  0
 77154  1  0  0  0
 77155  1  0  0  0
 78156  1  0  0  0
 78157  1  0  0  0
 78158  1  0  0  0
 79 81  1  0  0  0
 79159  1  0  0  0
 79160  1  0  0  0
 79161  1  0  0  0
 80162  1  0  0  0
 80163  1  0  0  0
 80164  1  0  0  0
 80 90  1  0  0  0
 81 87  1  0  0  0
 81165  1  0  0  0
 81166  1  0  0  0
 82 83  1  0  0  0
 82 84  1  0  0  0
 82167  1  0  0  0
 82168  1  0  0  0
 83 85  1  0  0  0
 83169  1  0  0  0
 83170  1  0  0  0
 84 86  1  0  0  0
 84171  1  0  0  0
 84172  1  0  0  0
 85 88  1  0  0  0
 85173  1  0  0  0
 85174  1  0  0  0
 86 89  1  0  0  0
 86175  1  0  0  0
 86176  1  0  0  0
 87 90  1  0  0  0
 87177  1  0  0  0
 87178  1  0  0  0
 88 90  1  0  0  0
 88179  1  0  0  0
 88180  1  0  0  0
 89181  1  0  0  0
 89182  1  0  0  0
 91183  1  0  0  0
M  ISO  4   1 100  68 101  89 101  91 100
M  END
> <chiral flag>
0

> <version>
0

> <s_m_source_file>
/data/baiqing/PycharmProjects/Reinvent-master-3.2/result/LINK_invent/BTK/process_docking_weight1_custom_sum_contain_oxygen_bond_distance_aromatic_linkinvent_7_9_3/rearranged_h_0020.sdf

> <i_m_source_file_index>
19

> <r_mmod_Potential_Energy-OPLS-2005>
6043.22021484375

> <r_mmod_Stretch_Energy-OPLS-2005>
3303.88745117188

> <r_mmod_Bend_Energy-OPLS-2005>
505.405883789062

> <r_mmod_Torsional_Energy-OPLS-2005>
470.636383056641

> <r_mmod_Improper_Torsional_Energy-OPLS-2005>
40.2226028442383

> <r_mmod_Van_der_Waal_Energy-OPLS-2005>
2005.01257324219

> <r_mmod_Electrostatic_Energy-OPLS-2005>
-432.611389160156

> <r_mmod_Solvation_Energy-OPLS-2005>
-174.099014282227

> <b_mmod_Minimization_Converged-OPLS-2005>
0

> <r_mmod_RMS_Derivative-OPLS-2005>
12.8956775665283

$$$$
19
                    3D
 Structure written by MMmdl.
153161  0  0  1  0            999 V2000
  -30.4279  -15.1773   20.3813 C   0  0  0  0  0  0
  -30.4517  -12.7474   19.5094 C   0  0  0  0  0  0
  -29.5384  -12.5707   18.2700 C   0  0  0  0  0  0
  -28.0764  -12.3188   18.6868 C   0  0  0  0  0  0
  -27.6192  -13.2654   19.8258 C   0  0  2  0  0  0
  -28.6589  -13.3708   20.9602 C   0  0  0  0  0  0
  -25.2425  -13.8219   20.5740 C   0  0  0  0  0  0
  -24.1764  -13.0425   20.9247 C   0  0  0  0  0  0
  -24.6405  -11.6914   20.8740 C   0  0  0  0  0  0
  -23.9075  -10.4291   21.0399 C   0  0  0  0  0  0
  -24.3630   -9.4212   21.9173 C   0  0  0  0  0  0
  -23.6315   -8.2240   22.0743 C   0  0  0  0  0  0
  -22.4296   -8.0278   21.3534 C   0  0  0  0  0  0
  -21.9923   -9.0253   20.4645 C   0  0  0  0  0  0
  -22.7241  -10.2134   20.3066 C   0  0  0  0  0  0
  -21.6851   -6.0740   22.5278 C   0  0  0  0  0  0
  -21.4011   -6.5640   23.8214 C   0  0  0  0  0  0
  -21.3664   -5.6791   24.9172 C   0  0  0  0  0  0
  -21.6054   -4.3057   24.7213 C   0  0  0  0  0  0
  -21.8811   -3.8145   23.4329 C   0  0  0  0  0  0
  -21.9192   -4.6967   22.3389 C   0  0  0  0  0  0
  -22.7789  -13.5215   21.1881 C   0  0  0  0  0  0
  -22.1663   -4.2147   21.0961 F   0  0  0  0  0  0
  -21.5633   -3.4540   25.7725 F   0  0  0  0  0  0
  -29.8993  -13.8659   20.3443 N   0  0  0  0  0  0
  -26.2846  -12.9479   20.3190 N   0  0  0  0  0  0
  -25.9340  -11.6586   20.5678 N   0  0  0  0  0  0
  -22.0421  -12.8251   22.0445 N   0  0  0  0  0  0
  -25.4038  -15.1961   20.4244 N   0  0  0  0  0  0
  -31.6495  -15.2404   20.1791 O   0  0  0  0  0  0
  -21.6645   -6.8887   21.4245 O   0  0  0  0  0  0
  -22.3485  -14.5499   20.6679 O   0  0  0  0  0  0
  -24.6579  -31.8274   23.1749 C   0  0  0  0  0  0
  -25.9289  -32.4599   23.8196 C   0  0  1  0  0  0
  -27.2227  -26.9731   20.1747 C   0  0  0  0  0  0
  -25.5983  -33.8417   24.2104 N   0  0  0  0  0  0
  -23.4715  -30.4399   21.5216 C   0  0  2  0  0  0
  -24.9253  -28.8330   20.1116 C   0  0  0  0  0  0
  -22.7642  -29.4469   22.4791 C   0  0  0  0  0  0
  -18.0317  -28.1406   22.8453 C   0  0  0  0  0  0
  -24.1510  -36.7203   23.2646 C   0  0  0  0  0  0
  -26.0384  -30.6456   21.4016 C   0  0  0  0  0  0
  -26.1076  -29.2414   20.7424 C   0  0  0  0  0  0
  -27.2514  -28.3306   20.7495 C   0  0  0  0  0  0
  -26.0130  -26.7032   19.4985 C   0  0  0  0  0  0
  -24.9013  -27.5832   19.4705 C   0  0  0  0  0  0
  -23.7096  -29.7560   20.1477 C   0  0  0  0  0  0
  -25.4145  -36.2967   24.0306 C   0  0  1  0  0  0
  -20.5938  -28.3751   23.1193 C   0  0  2  0  0  0
  -20.6793  -26.9433   22.5409 C   0  0  0  0  0  0
  -19.5782  -26.6371   21.5211 C   0  0  0  0  0  0
  -18.1963  -26.7944   22.1609 C   0  0  0  0  0  0
  -19.1581  -28.8901   23.2810 C   0  0  0  0  0  0
  -18.9485  -30.1479   23.8854 C   0  0  0  0  0  0
  -17.6481  -30.6594   24.0543 C   0  0  0  0  0  0
  -25.9095  -34.9349   23.5024 C   0  0  0  0  0  0
  -16.5368  -29.9079   23.6340 C   0  0  0  0  0  0
  -16.7301  -28.6504   23.0361 C   0  0  0  0  0  0
  -26.4565  -31.6533   25.0709 C   0  0  0  0  0  0
  -25.3713  -31.3769   26.1385 C   0  0  0  0  0  0
  -27.0430  -30.2893   24.6421 C   0  0  0  0  0  0
  -27.6088  -32.4314   25.7479 C   0  0  0  0  0  0
  -27.5585  -37.1756   24.8451 C   0  0  0  0  0  0
  -21.4317  -29.3038   22.3537 N   0  0  0  0  0  0
  -26.4284  -37.3702   23.9407 N   0  0  0  0  0  0
  -24.7432  -30.9971   22.0865 N   0  0  0  0  0  0
  -23.4205  -28.8031   23.3018 O   0  0  0  0  0  0
  -28.2467  -25.9059   20.2524 O   0  0  0  0  0  0
  -26.5687  -34.8871   22.4601 O   0  0  0  0  0  0
  -23.5665  -32.1223   23.6881 O   0  0  0  0  0  0
  -30.4114  -18.9309   20.9665 C   0  0  0  0  0  0
  -30.2435  -20.4045   20.9735 C   0  0  0  0  0  0
  -29.1712  -21.1946   20.3571 C   0  0  0  0  0  0
  -28.3148  -20.2248   19.6856 C   0  0  0  0  0  0
  -29.5433  -17.9577   20.3454 C   0  0  0  0  0  0
  -28.4750  -18.7348   19.7150 C   0  0  0  0  0  0
  -31.3264  -21.1727   21.7131 C   0  0  0  0  0  0
  -27.1765  -20.8210   18.8691 C   0  0  0  0  0  0
  -29.1234  -22.9394   20.4476 C   0  0  0  0  0  0
  -28.0392  -24.2942   20.0779 C   0  0  0  0  0  0
  -29.5617  -16.3560   20.4169 N   0  0  0  0  0  0
  -27.2740  -17.7715   18.9230 Cl  0  0  0  0  0  0
  -31.4720  -12.9592   19.1861 H   0  0  0  0  0  0
  -30.5092  -11.8233   20.0856 H   0  0  0  0  0  0
  -29.9018  -11.7522   17.6466 H   0  0  0  0  0  0
  -29.5923  -13.4710   17.6558 H   0  0  0  0  0  0
  -28.0017  -11.2833   19.0178 H   0  0  0  0  0  0
  -27.4149  -12.4116   17.8242 H   0  0  0  0  0  0
  -27.5525  -14.2519   19.3661 H   0  0  0  0  0  0
  -28.8069  -12.4087   21.4531 H   0  0  0  0  0  0
  -28.3182  -14.0629   21.7313 H   0  0  0  0  0  0
  -25.2775   -9.5703   22.4745 H   0  0  0  0  0  0
  -24.0026   -7.4640   22.7473 H   0  0  0  0  0  0
  -21.0833   -8.8780   19.8976 H   0  0  0  0  0  0
  -22.3685  -10.9679   19.6191 H   0  0  0  0  0  0
  -21.2007   -7.6151   23.9726 H   0  0  0  0  0  0
  -21.1500   -6.0510   25.9078 H   0  0  0  0  0  0
  -22.0592   -2.7609   23.2816 H   0  0  0  0  0  0
  -22.4042  -11.9969   22.4934 H   0  0  0  0  0  0
  -21.1027  -13.1300   22.2590 H   0  0  0  0  0  0
  -24.6252  -15.8349   20.5412 H   0  0  0  0  0  0
  -26.2256  -15.6481   20.0470 H   0  0  0  0  0  0
  -26.7355  -32.5144   23.0906 H   0  0  0  0  0  0
  -25.0126  -33.9503   25.0255 H   0  0  0  0  0  0
  -22.7835  -31.2702   21.3531 H   0  0  0  0  0  0
  -23.3786  -35.9517   23.3262 H   0  0  0  0  0  0
  -24.3601  -36.8886   22.2068 H   0  0  0  0  0  0
  -23.7246  -37.6374   23.6723 H   0  0  0  0  0  0
  -26.2178  -31.3911   20.6260 H   0  0  0  0  0  0
  -26.8998  -30.6974   22.0567 H   0  0  0  0  0  0
  -28.1465  -28.6385   21.2722 H   0  0  0  0  0  0
  -25.8975  -25.7473   19.0082 H   0  0  0  0  0  0
  -24.0019  -27.2652   18.9605 H   0  0  0  0  0  0
  -23.8656  -30.5252   19.3910 H   0  0  0  0  0  0
  -22.8207  -29.2094   19.8271 H   0  0  0  0  0  0
  -25.1346  -36.1771   25.0799 H   0  0  0  0  0  0
  -21.0021  -28.3362   24.1316 H   0  0  0  0  0  0
  -20.5679  -26.2365   23.3645 H   0  0  0  0  0  0
  -21.6660  -26.7421   22.1216 H   0  0  0  0  0  0
  -19.6945  -25.6266   21.1280 H   0  0  0  0  0  0
  -19.6738  -27.3146   20.6714 H   0  0  0  0  0  0
  -17.4233  -26.6674   21.4005 H   0  0  0  0  0  0
  -18.0357  -26.0100   22.9023 H   0  0  0  0  0  0
  -19.7962  -30.7299   24.2218 H   0  0  0  0  0  0
  -17.5039  -31.6278   24.5134 H   0  0  0  0  0  0
  -15.5368  -30.2968   23.7703 H   0  0  0  0  0  0
  -15.8698  -28.0805   22.7112 H   0  0  0  0  0  0
  -24.5890  -30.7128   25.7694 H   0  0  0  0  0  0
  -24.8911  -32.2964   26.4742 H   0  0  0  0  0  0
  -25.7971  -30.8970   27.0209 H   0  0  0  0  0  0
  -26.3076  -29.6582   24.1419 H   0  0  0  0  0  0
  -27.3938  -29.7250   25.5073 H   0  0  0  0  0  0
  -27.9046  -30.4051   23.9839 H   0  0  0  0  0  0
  -27.2691  -33.3641   26.1990 H   0  0  0  0  0  0
  -28.3929  -32.6826   25.0321 H   0  0  0  0  0  0
  -28.0737  -31.8480   26.5437 H   0  0  0  0  0  0
  -28.2557  -38.0094   24.7528 H   0  0  0  0  0  0
  -28.1124  -36.2620   24.6241 H   0  0  0  0  0  0
  -27.2304  -37.1354   25.8850 H   0  0  0  0  0  0
  -20.9571  -29.8706   21.6648 H   0  0  0  0  0  0
  -26.0135  -38.2757   24.1422 H   0  0  0  0  0  0
  -31.2521  -18.5204   21.5071 H   0  0  0  0  0  0
  -32.2034  -20.5502   21.8938 H   0  0  0  0  0  0
  -30.9571  -21.5204   22.6785 H   0  0  0  0  0  0
  -31.6688  -22.0352   21.1410 H   0  0  0  0  0  0
  -27.4517  -21.7999   18.4789 H   0  0  0  0  0  0
  -26.2805  -20.9366   19.4785 H   0  0  0  0  0  0
  -26.9319  -20.2153   17.9967 H   0  0  0  0  0  0
  -30.0436  -23.2187   19.9355 H   0  0  0  0  0  0
  -29.3466  -23.1083   21.5013 H   0  0  0  0  0  0
  -27.1127  -24.0784   20.6105 H   0  0  0  0  0  0
  -27.7831  -24.1728   19.0253 H   0  0  0  0  0  0
  -28.6113  -16.0179   20.4098 H   0  0  0  0  0  0
  1 25  1  0  0  0
  1 30  2  0  0  0
  1 81  1  0  0  0
  2  3  1  0  0  0
  2 25  1  0  0  0
  2 83  1  0  0  0
  2 84  1  0  0  0
  3  4  1  0  0  0
  3 85  1  0  0  0
  3 86  1  0  0  0
  4  5  1  0  0  0
  4 87  1  0  0  0
  4 88  1  0  0  0
  5  6  1  0  0  0
  5 26  1  0  0  0
  5 89  1  0  0  0
  6 25  1  0  0  0
  6 90  1  0  0  0
  6 91  1  0  0  0
  7  8  2  0  0  0
  7 26  1  0  0  0
  7 29  1  0  0  0
  8  9  1  0  0  0
  8 22  1  0  0  0
  9 10  1  0  0  0
  9 27  2  0  0  0
 10 11  2  0  0  0
 10 15  1  0  0  0
 11 12  1  0  0  0
 11 92  1  0  0  0
 12 13  2  0  0  0
 12 93  1  0  0  0
 13 14  1  0  0  0
 13 31  1  0  0  0
 14 15  2  0  0  0
 14 94  1  0  0  0
 15 95  1  0  0  0
 16 17  2  0  0  0
 16 21  1  0  0  0
 16 31  1  0  0  0
 17 18  1  0  0  0
 17 96  1  0  0  0
 18 19  2  0  0  0
 18 97  1  0  0  0
 19 20  1  0  0  0
 19 24  1  0  0  0
 20 21  2  0  0  0
 20 98  1  0  0  0
 21 23  1  0  0  0
 22 28  1  0  0  0
 22 32  2  0  0  0
 26 27  1  0  0  0
 28 99  1  0  0  0
 28100  1  0  0  0
 29101  1  0  0  0
 29102  1  0  0  0
 33 34  1  0  0  0
 33 66  1  0  0  0
 33 70  2  0  0  0
 34 36  1  0  0  0
 34 59  1  0  0  0
 34103  1  0  0  0
 35 44  2  0  0  0
 35 45  1  0  0  0
 35 68  1  0  0  0
 36 56  1  0  0  0
 36104  1  0  0  0
 37 39  1  0  0  0
 37 47  1  0  0  0
 37 66  1  0  0  0
 37105  1  0  0  0
 38 43  2  0  0  0
 38 46  1  0  0  0
 38 47  1  0  0  0
 39 64  1  0  0  0
 39 67  2  0  0  0
 40 52  1  0  0  0
 40 53  2  0  0  0
 40 58  1  0  0  0
 41106  1  0  0  0
 41107  1  0  0  0
 41108  1  0  0  0
 41 48  1  0  0  0
 42 43  1  0  0  0
 42 66  1  0  0  0
 42109  1  0  0  0
 42110  1  0  0  0
 43 44  1  0  0  0
 44111  1  0  0  0
 45 46  2  0  0  0
 45112  1  0  0  0
 46113  1  0  0  0
 47114  1  0  0  0
 47115  1  0  0  0
 48 56  1  0  0  0
 48 65  1  0  0  0
 48116  1  0  0  0
 49 50  1  0  0  0
 49 53  1  0  0  0
 49 64  1  0  0  0
 49117  1  0  0  0
 50 51  1  0  0  0
 50118  1  0  0  0
 50119  1  0  0  0
 51 52  1  0  0  0
 51120  1  0  0  0
 51121  1  0  0  0
 52122  1  0  0  0
 52123  1  0  0  0
 53 54  1  0  0  0
 54 55  2  0  0  0
 54124  1  0  0  0
 55 57  1  0  0  0
 55125  1  0  0  0
 56 69  2  0  0  0
 57 58  2  0  0  0
 57126  1  0  0  0
 58127  1  0  0  0
 59 60  1  0  0  0
 59 61  1  0  0  0
 59 62  1  0  0  0
 60128  1  0  0  0
 60129  1  0  0  0
 60130  1  0  0  0
 61131  1  0  0  0
 61132  1  0  0  0
 61133  1  0  0  0
 62134  1  0  0  0
 62135  1  0  0  0
 62136  1  0  0  0
 63 65  1  0  0  0
 63137  1  0  0  0
 63138  1  0  0  0
 63139  1  0  0  0
 64140  1  0  0  0
 65141  1  0  0  0
 68 80  1  0  0  0
 71 72  2  0  0  0
 71 75  1  0  0  0
 71142  1  0  0  0
 72 73  1  0  0  0
 72 77  1  0  0  0
 73 74  2  0  0  0
 73 79  1  0  0  0
 74 76  1  0  0  0
 74 78  1  0  0  0
 75 76  2  0  0  0
 75 81  1  0  0  0
 76 82  1  0  0  0
 77143  1  0  0  0
 77144  1  0  0  0
 77145  1  0  0  0
 78146  1  0  0  0
 78147  1  0  0  0
 78148  1  0  0  0
 79 80  1  0  0  0
 79149  1  0  0  0
 79150  1  0  0  0
 80151  1  0  0  0
 80152  1  0  0  0
 81153  1  0  0  0
M  ISO  4   1 100  68 101  80 101  81 100
M  END
> <chiral flag>
0

> <version>
0

> <s_m_source_file>
/data/baiqing/PycharmProjects/Reinvent-master-3.2/result/LINK_invent/BTK/process_docking_weight1_custom_sum_contain_oxygen_bond_distance_aromatic_linkinvent_7_9_3/rearranged_h_0020.sdf

> <i_m_source_file_index>
20

> <r_mmod_Potential_Energy-OPLS-2005>
1019.47631835938

> <r_mmod_Stretch_Energy-OPLS-2005>
459.921722412109

> <r_mmod_Bend_Energy-OPLS-2005>
411.353271484375

> <r_mmod_Torsional_Energy-OPLS-2005>
223.557952880859

> <r_mmod_Improper_Torsional_Energy-OPLS-2005>
5.82087087631226

> <r_mmod_Van_der_Waal_Energy-OPLS-2005>
127.030174255371

> <r_mmod_Electrostatic_Energy-OPLS-2005>
-389.224212646484

> <r_mmod_Solvation_Energy-OPLS-2005>
-200.408721923828

> <b_mmod_Minimization_Converged-OPLS-2005>
0

> <r_mmod_RMS_Derivative-OPLS-2005>
2.30452418327332

$$$$
20
                    3D
 Structure written by MMmdl.
150158  0  0  1  0            999 V2000
  -30.5235  -14.9434   20.4450 C   0  0  0  0  0  0
  -30.4332  -12.5856   19.5073 C   0  0  0  0  0  0
  -29.5299  -12.5830   18.2544 C   0  0  0  0  0  0
  -28.0473  -12.3893   18.6353 C   0  0  0  0  0  0
  -27.6274  -13.2673   19.8465 C   0  0  2  0  0  0
  -28.6652  -13.2470   20.9867 C   0  0  0  0  0  0
  -25.2418  -13.8237   20.5658 C   0  0  0  0  0  0
  -24.1780  -13.0430   20.9210 C   0  0  0  0  0  0
  -24.6414  -11.6933   20.8708 C   0  0  0  0  0  0
  -23.9095  -10.4304   21.0364 C   0  0  0  0  0  0
  -24.3639   -9.4229   21.9168 C   0  0  0  0  0  0
  -23.6312   -8.2266   22.0738 C   0  0  0  0  0  0
  -22.4286   -8.0307   21.3547 C   0  0  0  0  0  0
  -21.9926   -9.0267   20.4624 C   0  0  0  0  0  0
  -22.7249  -10.2142   20.3021 C   0  0  0  0  0  0
  -21.6864   -6.0737   22.5289 C   0  0  0  0  0  0
  -21.4009   -6.5638   23.8223 C   0  0  0  0  0  0
  -21.3676   -5.6784   24.9186 C   0  0  0  0  0  0
  -21.6061   -4.3049   24.7229 C   0  0  0  0  0  0
  -21.8827   -3.8150   23.4345 C   0  0  0  0  0  0
  -21.9194   -4.6969   22.3390 C   0  0  0  0  0  0
  -22.7807  -13.5184   21.1922 C   0  0  0  0  0  0
  -22.1678   -4.2158   21.0970 F   0  0  0  0  0  0
  -21.5625   -3.4535   25.7740 F   0  0  0  0  0  0
  -29.9449  -13.6722   20.4065 N   0  0  0  0  0  0
  -26.2875  -12.9511   20.3221 N   0  0  0  0  0  0
  -25.9360  -11.6598   20.5671 N   0  0  0  0  0  0
  -22.0445  -12.8158   22.0454 N   0  0  0  0  0  0
  -25.4033  -15.1956   20.4021 N   0  0  0  0  0  0
  -31.7171  -15.0229   20.1397 O   0  0  0  0  0  0
  -21.6668   -6.8895   21.4249 O   0  0  0  0  0  0
  -22.3455  -14.5449   20.6741 O   0  0  0  0  0  0
  -24.6460  -31.8442   23.1888 C   0  0  0  0  0  0
  -25.9231  -32.4710   23.8283 C   0  0  1  0  0  0
  -27.1996  -27.1096   20.1742 C   0  0  0  0  0  0
  -25.5985  -33.8519   24.2201 N   0  0  0  0  0  0
  -23.4509  -30.4615   21.5383 C   0  0  2  0  0  0
  -24.8946  -28.8876   20.1107 C   0  0  0  0  0  0
  -22.7600  -29.4521   22.4905 C   0  0  0  0  0  0
  -18.0311  -28.1353   22.8479 C   0  0  0  0  0  0
  -24.1481  -36.7254   23.2643 C   0  0  0  0  0  0
  -26.0087  -30.7101   21.3925 C   0  0  0  0  0  0
  -26.0742  -29.3215   20.7304 C   0  0  0  0  0  0
  -27.2294  -28.4499   20.7390 C   0  0  0  0  0  0
  -25.9988  -26.7874   19.5048 C   0  0  0  0  0  0
  -24.8740  -27.6380   19.4744 C   0  0  0  0  0  0
  -23.6720  -29.7913   20.1561 C   0  0  0  0  0  0
  -25.4125  -36.3065   24.0314 C   0  0  1  0  0  0
  -20.5942  -28.3685   23.1230 C   0  0  2  0  0  0
  -20.6777  -26.9382   22.5416 C   0  0  0  0  0  0
  -19.5742  -26.6339   21.5225 C   0  0  0  0  0  0
  -18.1919  -26.7889   22.1632 C   0  0  0  0  0  0
  -19.1578  -28.8845   23.2840 C   0  0  0  0  0  0
  -18.9480  -30.1457   23.8843 C   0  0  0  0  0  0
  -17.6461  -30.6557   24.0551 C   0  0  0  0  0  0
  -25.9086  -34.9434   23.5072 C   0  0  0  0  0  0
  -16.5353  -29.9031   23.6350 C   0  0  0  0  0  0
  -16.7287  -28.6462   23.0349 C   0  0  0  0  0  0
  -26.4503  -31.6573   25.0745 C   0  0  0  0  0  0
  -25.3667  -31.3776   26.1426 C   0  0  0  0  0  0
  -27.0396  -30.2976   24.6367 C   0  0  0  0  0  0
  -27.6036  -32.4328   25.7526 C   0  0  0  0  0  0
  -27.5586  -37.1789   24.8461 C   0  0  0  0  0  0
  -21.4303  -29.3023   22.3646 N   0  0  0  0  0  0
  -26.4295  -37.3782   23.9406 N   0  0  0  0  0  0
  -24.7224  -31.0260   22.0950 N   0  0  0  0  0  0
  -23.4224  -28.8093   23.3082 O   0  0  0  0  0  0
  -28.2318  -26.0996   20.2680 O   0  0  0  0  0  0
  -26.5669  -34.8922   22.4652 O   0  0  0  0  0  0
  -23.5563  -32.1332   23.7080 O   0  0  0  0  0  0
  -27.1306  -19.9212   21.9577 C   0  0  0  0  0  0
  -28.5352  -21.6194   20.8232 C   0  0  0  0  0  0
  -29.0848  -18.9915   20.7838 C   0  0  0  0  0  0
  -29.3505  -20.4244   20.4315 C   0  0  0  0  0  0
  -27.4158  -21.2647   21.6240 C   0  0  0  0  0  0
  -27.9189  -18.8199   21.5672 C   0  0  0  0  0  0
  -28.9097  -23.2332   20.5823 C   0  0  0  0  0  0
  -30.0187  -17.6689   20.3947 C   0  0  0  0  0  0
  -27.8903  -24.5671   20.2905 C   0  0  0  0  0  0
  -29.7355  -16.1152   20.6246 N   0  0  0  0  0  0
  -30.4714  -20.6678   19.7107 F   0  0  0  0  0  0
  -26.3619  -22.4475   22.3144 Cl  0  0  0  0  0  0
  -27.4084  -17.2627   22.1221 Cl  0  0  0  0  0  0
  -31.4759  -12.7295   19.2138 H   0  0  0  0  0  0
  -30.3984  -11.6151   20.0051 H   0  0  0  0  0  0
  -29.8440  -11.8199   17.5425 H   0  0  0  0  0  0
  -29.6480  -13.5382   17.7415 H   0  0  0  0  0  0
  -27.8859  -11.3337   18.8547 H   0  0  0  0  0  0
  -27.4169  -12.6256   17.7766 H   0  0  0  0  0  0
  -27.5908  -14.2886   19.4653 H   0  0  0  0  0  0
  -28.7370  -12.2486   21.4185 H   0  0  0  0  0  0
  -28.3630  -13.9146   21.7978 H   0  0  0  0  0  0
  -25.2781   -9.5698   22.4744 H   0  0  0  0  0  0
  -24.0045   -7.4630   22.7418 H   0  0  0  0  0  0
  -21.0890   -8.8733   19.8891 H   0  0  0  0  0  0
  -22.3706  -10.9669   19.6125 H   0  0  0  0  0  0
  -21.1979   -7.6139   23.9722 H   0  0  0  0  0  0
  -21.1511   -6.0517   25.9083 H   0  0  0  0  0  0
  -22.0582   -2.7613   23.2841 H   0  0  0  0  0  0
  -22.4084  -11.9852   22.4878 H   0  0  0  0  0  0
  -21.1012  -13.1125   22.2546 H   0  0  0  0  0  0
  -24.6447  -15.8537   20.5320 H   0  0  0  0  0  0
  -26.2662  -15.6413   20.1220 H   0  0  0  0  0  0
  -26.7328  -32.5272   23.1033 H   0  0  0  0  0  0
  -25.0155  -33.9640   25.0365 H   0  0  0  0  0  0
  -22.7574  -31.2908   21.3856 H   0  0  0  0  0  0
  -23.3788  -35.9548   23.3291 H   0  0  0  0  0  0
  -24.3560  -36.8880   22.2063 H   0  0  0  0  0  0
  -23.7174  -37.6414   23.6684 H   0  0  0  0  0  0
  -26.1768  -31.4681   20.6265 H   0  0  0  0  0  0
  -26.8760  -30.7501   22.0371 H   0  0  0  0  0  0
  -28.1288  -28.7749   21.2427 H   0  0  0  0  0  0
  -25.8917  -25.8316   19.0158 H   0  0  0  0  0  0
  -23.9773  -27.3032   18.9685 H   0  0  0  0  0  0
  -23.8044  -30.5661   19.4001 H   0  0  0  0  0  0
  -22.7853  -29.2319   19.8493 H   0  0  0  0  0  0
  -25.1319  -36.1918   25.0806 H   0  0  0  0  0  0
  -21.0015  -28.3243   24.1352 H   0  0  0  0  0  0
  -20.5617  -26.2319   23.3661 H   0  0  0  0  0  0
  -21.6643  -26.7325   22.1240 H   0  0  0  0  0  0
  -19.6893  -25.6240   21.1265 H   0  0  0  0  0  0
  -19.6646  -27.3156   20.6755 H   0  0  0  0  0  0
  -17.4208  -26.6675   21.4009 H   0  0  0  0  0  0
  -18.0262  -26.0016   22.9002 H   0  0  0  0  0  0
  -19.7956  -30.7321   24.2127 H   0  0  0  0  0  0
  -17.4999  -31.6229   24.5166 H   0  0  0  0  0  0
  -15.5346  -30.2889   23.7697 H   0  0  0  0  0  0
  -15.8698  -28.0760   22.7036 H   0  0  0  0  0  0
  -24.5885  -30.7072   25.7746 H   0  0  0  0  0  0
  -24.8824  -32.2968   26.4744 H   0  0  0  0  0  0
  -25.7932  -30.9037   27.0286 H   0  0  0  0  0  0
  -26.3063  -29.6683   24.1334 H   0  0  0  0  0  0
  -27.3945  -29.7263   25.4952 H   0  0  0  0  0  0
  -27.8978  -30.4193   23.9766 H   0  0  0  0  0  0
  -27.2662  -33.3663   26.2031 H   0  0  0  0  0  0
  -28.3904  -32.6809   25.0398 H   0  0  0  0  0  0
  -28.0671  -31.8522   26.5504 H   0  0  0  0  0  0
  -28.2600  -38.0091   24.7572 H   0  0  0  0  0  0
  -28.1096  -36.2643   24.6244 H   0  0  0  0  0  0
  -27.2330  -37.1379   25.8864 H   0  0  0  0  0  0
  -20.9531  -29.8783   21.6852 H   0  0  0  0  0  0
  -26.0180  -38.2859   24.1381 H   0  0  0  0  0  0
  -26.2674  -19.7224   22.5749 H   0  0  0  0  0  0
  -29.6730  -23.2429   19.8061 H   0  0  0  0  0  0
  -29.4496  -23.4966   21.4916 H   0  0  0  0  0  0
  -30.9892  -17.8671   20.8512 H   0  0  0  0  0  0
  -30.2003  -17.7651   19.3240 H   0  0  0  0  0  0
  -27.0712  -24.5158   20.9986 H   0  0  0  0  0  0
  -27.4334  -24.3487   19.3293 H   0  0  0  0  0  0
  -28.7821  -15.9173   20.8928 H   0  0  0  0  0  0
  1 25  1  0  0  0
  1 30  2  0  0  0
  1 80  1  0  0  0
  2  3  1  0  0  0
  2 25  1  0  0  0
  2 84  1  0  0  0
  2 85  1  0  0  0
  3  4  1  0  0  0
  3 86  1  0  0  0
  3 87  1  0  0  0
  4  5  1  0  0  0
  4 88  1  0  0  0
  4 89  1  0  0  0
  5  6  1  0  0  0
  5 26  1  0  0  0
  5 90  1  0  0  0
  6 25  1  0  0  0
  6 91  1  0  0  0
  6 92  1  0  0  0
  7  8  2  0  0  0
  7 26  1  0  0  0
  7 29  1  0  0  0
  8  9  1  0  0  0
  8 22  1  0  0  0
  9 10  1  0  0  0
  9 27  2  0  0  0
 10 11  2  0  0  0
 10 15  1  0  0  0
 11 12  1  0  0  0
 11 93  1  0  0  0
 12 13  2  0  0  0
 12 94  1  0  0  0
 13 14  1  0  0  0
 13 31  1  0  0  0
 14 15  2  0  0  0
 14 95  1  0  0  0
 15 96  1  0  0  0
 16 17  2  0  0  0
 16 21  1  0  0  0
 16 31  1  0  0  0
 17 18  1  0  0  0
 17 97  1  0  0  0
 18 19  2  0  0  0
 18 98  1  0  0  0
 19 20  1  0  0  0
 19 24  1  0  0  0
 20 21  2  0  0  0
 20 99  1  0  0  0
 21 23  1  0  0  0
 22 28  1  0  0  0
 22 32  2  0  0  0
 26 27  1  0  0  0
 28100  1  0  0  0
 28101  1  0  0  0
 29102  1  0  0  0
 29103  1  0  0  0
 33 34  1  0  0  0
 33 66  1  0  0  0
 33 70  2  0  0  0
 34 36  1  0  0  0
 34 59  1  0  0  0
 34104  1  0  0  0
 35 44  2  0  0  0
 35 45  1  0  0  0
 35 68  1  0  0  0
 36 56  1  0  0  0
 36105  1  0  0  0
 37 39  1  0  0  0
 37 47  1  0  0  0
 37 66  1  0  0  0
 37106  1  0  0  0
 38 43  2  0  0  0
 38 46  1  0  0  0
 38 47  1  0  0  0
 39 64  1  0  0  0
 39 67  2  0  0  0
 40 52  1  0  0  0
 40 53  2  0  0  0
 40 58  1  0  0  0
 41107  1  0  0  0
 41108  1  0  0  0
 41109  1  0  0  0
 41 48  1  0  0  0
 42 43  1  0  0  0
 42 66  1  0  0  0
 42110  1  0  0  0
 42111  1  0  0  0
 43 44  1  0  0  0
 44112  1  0  0  0
 45 46  2  0  0  0
 45113  1  0  0  0
 46114  1  0  0  0
 47115  1  0  0  0
 47116  1  0  0  0
 48 56  1  0  0  0
 48 65  1  0  0  0
 48117  1  0  0  0
 49 50  1  0  0  0
 49 53  1  0  0  0
 49 64  1  0  0  0
 49118  1  0  0  0
 50 51  1  0  0  0
 50119  1  0  0  0
 50120  1  0  0  0
 51 52  1  0  0  0
 51121  1  0  0  0
 51122  1  0  0  0
 52123  1  0  0  0
 52124  1  0  0  0
 53 54  1  0  0  0
 54 55  2  0  0  0
 54125  1  0  0  0
 55 57  1  0  0  0
 55126  1  0  0  0
 56 69  2  0  0  0
 57 58  2  0  0  0
 57127  1  0  0  0
 58128  1  0  0  0
 59 60  1  0  0  0
 59 61  1  0  0  0
 59 62  1  0  0  0
 60129  1  0  0  0
 60130  1  0  0  0
 60131  1  0  0  0
 61132  1  0  0  0
 61133  1  0  0  0
 61134  1  0  0  0
 62135  1  0  0  0
 62136  1  0  0  0
 62137  1  0  0  0
 63 65  1  0  0  0
 63138  1  0  0  0
 63139  1  0  0  0
 63140  1  0  0  0
 64141  1  0  0  0
 65142  1  0  0  0
 68 79  1  0  0  0
 71 75  2  0  0  0
 71 76  1  0  0  0
 71143  1  0  0  0
 72 74  2  0  0  0
 72 75  1  0  0  0
 72 77  1  0  0  0
 73 74  1  0  0  0
 73 76  2  0  0  0
 73 78  1  0  0  0
 74 81  1  0  0  0
 75 82  1  0  0  0
 76 83  1  0  0  0
 77 79  1  0  0  0
 77144  1  0  0  0
 77145  1  0  0  0
 78 80  1  0  0  0
 78146  1  0  0  0
 78147  1  0  0  0
 79148  1  0  0  0
 79149  1  0  0  0
 80150  1  0  0  0
M  ISO  4   1 100  68 101  79 101  80 100
M  END
> <chiral flag>
0

> <version>
0

> <s_m_source_file>
/data/baiqing/PycharmProjects/Reinvent-master-3.2/result/LINK_invent/BTK/process_docking_weight1_custom_sum_contain_oxygen_bond_distance_aromatic_linkinvent_7_9_3/rearranged_h_0020.sdf

> <i_m_source_file_index>
21

> <r_mmod_Potential_Energy-OPLS-2005>
484.213836669922

> <r_mmod_Stretch_Energy-OPLS-2005>
288.3056640625

> <r_mmod_Bend_Energy-OPLS-2005>
261.118835449219

> <r_mmod_Torsional_Energy-OPLS-2005>
205.252395629883

> <r_mmod_Improper_Torsional_Energy-OPLS-2005>
5.0829553604126

> <r_mmod_Van_der_Waal_Energy-OPLS-2005>
132.754379272461

> <r_mmod_Electrostatic_Energy-OPLS-2005>
-406.330780029297

> <r_mmod_Solvation_Energy-OPLS-2005>
-205.171752929688

> <b_mmod_Minimization_Converged-OPLS-2005>
0

> <r_mmod_RMS_Derivative-OPLS-2005>
5.26343202590942

$$$$
21
                    3D
 Structure written by MMmdl.
167175  0  0  1  0            999 V2000
  -30.7482  -14.3992   20.6575 C   0  0  0  0  0  0
  -30.4196  -12.3018   19.3965 C   0  0  0  0  0  0
  -29.4850  -12.5204   18.1920 C   0  0  0  0  0  0
  -28.0089  -12.3778   18.6093 C   0  0  0  0  0  0
  -27.6638  -13.2045   19.8761 C   0  0  2  0  0  0
  -28.7030  -12.9558   20.9900 C   0  0  0  0  0  0
  -25.2596  -13.8161   20.5676 C   0  0  0  0  0  0
  -24.1845  -13.0441   20.9165 C   0  0  0  0  0  0
  -24.6393  -11.6902   20.8726 C   0  0  0  0  0  0
  -23.9059  -10.4290   21.0400 C   0  0  0  0  0  0
  -24.3614   -9.4207   21.9180 C   0  0  0  0  0  0
  -23.6290   -8.2247   22.0752 C   0  0  0  0  0  0
  -22.4273   -8.0282   21.3542 C   0  0  0  0  0  0
  -21.9906   -9.0254   20.4645 C   0  0  0  0  0  0
  -22.7231  -10.2134   20.3053 C   0  0  0  0  0  0
  -21.6852   -6.0738   22.5278 C   0  0  0  0  0  0
  -21.4012   -6.5643   23.8216 C   0  0  0  0  0  0
  -21.3660   -5.6792   24.9176 C   0  0  0  0  0  0
  -21.6042   -4.3057   24.7224 C   0  0  0  0  0  0
  -21.8822   -3.8148   23.4344 C   0  0  0  0  0  0
  -21.9195   -4.6965   22.3402 C   0  0  0  0  0  0
  -22.7871  -13.5241   21.1839 C   0  0  0  0  0  0
  -22.1664   -4.2149   21.0978 F   0  0  0  0  0  0
  -21.5628   -3.4538   25.7738 F   0  0  0  0  0  0
  -30.0401  -13.2588   20.4464 N   0  0  0  0  0  0
  -26.3034  -12.9327   20.3364 N   0  0  0  0  0  0
  -25.9317  -11.6486   20.5744 N   0  0  0  0  0  0
  -22.0512  -12.8234   22.0397 N   0  0  0  0  0  0
  -25.4333  -15.1875   20.4102 N   0  0  0  0  0  0
  -31.8132  -14.6504   20.0872 O   0  0  0  0  0  0
  -21.6638   -6.8878   21.4241 O   0  0  0  0  0  0
  -22.3557  -14.5549   20.6690 O   0  0  0  0  0  0
  -24.6138  -31.8685   23.2118 C   0  0  0  0  0  0
  -25.9035  -32.4826   23.8408 C   0  0  1  0  0  0
  -27.2358  -27.4451   20.0921 C   0  0  0  0  0  0
  -25.5902  -33.8627   24.2331 N   0  0  0  0  0  0
  -23.4000  -30.4933   21.5517 C   0  0  2  0  0  0
  -24.8437  -28.9581   20.1184 C   0  0  0  0  0  0
  -22.7398  -29.4671   22.4997 C   0  0  0  0  0  0
  -18.0269  -28.1384   22.8500 C   0  0  0  0  0  0
  -24.1481  -36.7309   23.2638 C   0  0  0  0  0  0
  -25.9282  -30.8392   21.3614 C   0  0  0  0  0  0
  -26.0044  -29.4755   20.7051 C   0  0  0  0  0  0
  -27.2028  -28.7292   20.6804 C   0  0  0  0  0  0
  -26.0517  -26.9329   19.5167 C   0  0  0  0  0  0
  -24.8615  -27.6857   19.5218 C   0  0  0  0  0  0
  -23.6060  -29.8244   20.1672 C   0  0  0  0  0  0
  -25.4105  -36.3110   24.0339 C   0  0  1  0  0  0
  -20.5855  -28.3665   23.1327 C   0  0  2  0  0  0
  -20.6761  -26.9408   22.5418 C   0  0  0  0  0  0
  -19.5738  -26.6394   21.5214 C   0  0  0  0  0  0
  -18.1912  -26.7936   22.1623 C   0  0  0  0  0  0
  -19.1519  -28.8843   23.2909 C   0  0  0  0  0  0
  -18.9447  -30.1449   23.8919 C   0  0  0  0  0  0
  -17.6451  -30.6592   24.0568 C   0  0  0  0  0  0
  -25.9037  -34.9478   23.5127 C   0  0  0  0  0  0
  -16.5341  -29.9096   23.6331 C   0  0  0  0  0  0
  -16.7258  -28.6510   23.0359 C   0  0  0  0  0  0
  -26.4479  -31.6615   25.0732 C   0  0  0  0  0  0
  -25.3757  -31.3721   26.1489 C   0  0  0  0  0  0
  -27.0323  -30.3063   24.6112 C   0  0  0  0  0  0
  -27.6060  -32.4350   25.7471 C   0  0  0  0  0  0
  -27.5585  -37.1795   24.8462 C   0  0  0  0  0  0
  -21.4128  -29.3031   22.3733 N   0  0  0  0  0  0
  -26.4290  -37.3796   23.9421 N   0  0  0  0  0  0
  -24.6653  -31.0811   22.1002 N   0  0  0  0  0  0
  -23.4178  -28.8215   23.3035 O   0  0  0  0  0  0
  -28.4331  -26.7621   20.0831 O   0  0  0  0  0  0
  -26.5595  -34.8927   22.4684 O   0  0  0  0  0  0
  -23.5339  -32.1428   23.7526 O   0  0  0  0  0  0
  -29.2564  -22.1009   20.7075 C   0  0  0  0  0  0
  -29.5444  -19.6901   20.3211 C   0  0  0  0  0  0
  -30.0291  -19.9713   19.0131 C   0  0  0  0  0  0
  -29.7923  -22.3908   19.4369 C   0  0  0  0  0  0
  -29.1502  -20.7680   21.1504 C   0  0  0  0  0  0
  -30.1723  -21.3194   18.5924 C   0  0  0  0  0  0
  -30.4270  -18.8587   18.0475 C   0  0  0  0  0  0
  -29.4624  -25.7272   17.8084 C   0  0  0  0  0  0
  -27.7484  -23.9410   18.0535 C   0  0  0  0  0  0
  -29.4727  -18.2619   20.8770 C   0  0  0  0  0  0
  -30.8662  -17.6763   21.1904 C   0  0  0  0  0  0
  -30.8676  -16.4341   22.1080 C   0  0  0  0  0  0
  -28.4446  -25.3270   20.1066 C   0  0  0  0  0  0
  -28.9142  -24.6562   18.7725 C   0  0  0  0  0  0
  -30.0163  -23.7138   19.0033 N   0  0  0  0  0  0
  -30.2124  -15.2526   21.5424 N   0  0  0  0  0  0
  -28.6847  -20.5329   22.4011 F   0  0  0  0  0  0
  -30.8389  -21.6788   17.0317 Cl  0  0  0  0  0  0
  -31.4608  -12.4102   19.0873 H   0  0  0  0  0  0
  -30.3279  -11.2815   19.7726 H   0  0  0  0  0  0
  -29.7183  -11.8080   17.3995 H   0  0  0  0  0  0
  -29.6546  -13.5125   17.7714 H   0  0  0  0  0  0
  -27.8163  -11.3204   18.7933 H   0  0  0  0  0  0
  -27.3553  -12.6657   17.7849 H   0  0  0  0  0  0
  -27.7191  -14.2573   19.5983 H   0  0  0  0  0  0
  -28.6719  -11.9128   21.3087 H   0  0  0  0  0  0
  -28.4510  -13.5320   21.8807 H   0  0  0  0  0  0
  -25.2759   -9.5690   22.4746 H   0  0  0  0  0  0
  -24.0002   -7.4642   22.7470 H   0  0  0  0  0  0
  -21.0839   -8.8773   19.8947 H   0  0  0  0  0  0
  -22.3689  -10.9676   19.6161 H   0  0  0  0  0  0
  -21.2005   -7.6151   23.9717 H   0  0  0  0  0  0
  -21.1477   -6.0523   25.9077 H   0  0  0  0  0  0
  -22.0600   -2.7609   23.2846 H   0  0  0  0  0  0
  -22.4129  -11.9894   22.4783 H   0  0  0  0  0  0
  -21.1129  -13.1264   22.2602 H   0  0  0  0  0  0
  -24.6702  -15.8460   20.5222 H   0  0  0  0  0  0
  -26.2938  -15.6258   20.1065 H   0  0  0  0  0  0
  -26.7103  -32.5544   23.1173 H   0  0  0  0  0  0
  -25.0088  -33.9797   25.0500 H   0  0  0  0  0  0
  -22.6879  -31.3095   21.4141 H   0  0  0  0  0  0
  -23.3763  -35.9618   23.3286 H   0  0  0  0  0  0
  -24.3578  -36.8947   22.2057 H   0  0  0  0  0  0
  -23.7211  -37.6494   23.6671 H   0  0  0  0  0  0
  -26.0427  -31.6109   20.5982 H   0  0  0  0  0  0
  -26.8159  -30.8878   21.9809 H   0  0  0  0  0  0
  -28.1035  -29.1321   21.1217 H   0  0  0  0  0  0
  -26.0320  -25.9595   19.0565 H   0  0  0  0  0  0
  -23.9663  -27.2806   19.0707 H   0  0  0  0  0  0
  -23.7141  -30.5993   19.4070 H   0  0  0  0  0  0
  -22.7291  -29.2454   19.8720 H   0  0  0  0  0  0
  -25.1275  -36.1968   25.0829 H   0  0  0  0  0  0
  -20.9943  -28.3235   24.1449 H   0  0  0  0  0  0
  -20.5678  -26.2270   23.3598 H   0  0  0  0  0  0
  -21.6630  -26.7466   22.1200 H   0  0  0  0  0  0
  -19.6896  -25.6308   21.1238 H   0  0  0  0  0  0
  -19.6676  -27.3206   20.6748 H   0  0  0  0  0  0
  -17.4180  -26.6703   21.4020 H   0  0  0  0  0  0
  -18.0299  -26.0073   22.9011 H   0  0  0  0  0  0
  -19.7918  -30.7261   24.2300 H   0  0  0  0  0  0
  -17.5006  -31.6274   24.5164 H   0  0  0  0  0  0
  -15.5341  -30.3009   23.7645 H   0  0  0  0  0  0
  -15.8655  -28.0835   22.7076 H   0  0  0  0  0  0
  -24.5899  -30.7106   25.7824 H   0  0  0  0  0  0
  -24.8990  -32.2886   26.4976 H   0  0  0  0  0  0
  -25.8121  -30.8850   27.0221 H   0  0  0  0  0  0
  -26.2865  -29.6791   24.1216 H   0  0  0  0  0  0
  -27.4156  -29.7323   25.4562 H   0  0  0  0  0  0
  -27.8666  -30.4387   23.9221 H   0  0  0  0  0  0
  -27.2681  -33.3644   26.2065 H   0  0  0  0  0  0
  -28.3842  -32.6936   25.0277 H   0  0  0  0  0  0
  -28.0765  -31.8484   26.5369 H   0  0  0  0  0  0
  -28.2589  -38.0109   24.7550 H   0  0  0  0  0  0
  -28.1103  -36.2645   24.6241 H   0  0  0  0  0  0
  -27.2311  -37.1381   25.8866 H   0  0  0  0  0  0
  -20.9287  -29.8743   21.6945 H   0  0  0  0  0  0
  -26.0183  -38.2865   24.1457 H   0  0  0  0  0  0
  -28.9689  -22.8918   21.3811 H   0  0  0  0  0  0
  -30.0816  -17.8713   18.3454 H   0  0  0  0  0  0
  -31.5119  -18.8205   17.9480 H   0  0  0  0  0  0
  -30.0024  -19.0433   17.0607 H   0  0  0  0  0  0
  -28.6983  -26.4629   17.5516 H   0  0  0  0  0  0
  -29.8056  -25.2902   16.8694 H   0  0  0  0  0  0
  -30.3000  -26.2714   18.2461 H   0  0  0  0  0  0
  -27.0132  -24.6483   17.6741 H   0  0  0  0  0  0
  -27.2246  -23.2472   18.7123 H   0  0  0  0  0  0
  -28.0965  -23.3737   17.1891 H   0  0  0  0  0  0
  -28.9252  -17.6153   20.1919 H   0  0  0  0  0  0
  -28.8807  -18.2614   21.7920 H   0  0  0  0  0  0
  -31.4482  -18.4457   21.7001 H   0  0  0  0  0  0
  -31.4113  -17.4656   20.2704 H   0  0  0  0  0  0
  -30.3770  -16.6768   23.0517 H   0  0  0  0  0  0
  -31.8967  -16.1777   22.3676 H   0  0  0  0  0  0
  -29.1613  -25.0938   20.8940 H   0  0  0  0  0  0
  -27.5055  -24.9050   20.4689 H   0  0  0  0  0  0
  -30.6765  -23.7269   18.2311 H   0  0  0  0  0  0
  -29.3293  -14.9785   21.9478 H   0  0  0  0  0  0
  1 25  1  0  0  0
  1 30  2  0  0  0
  1 86  1  0  0  0
  2  3  1  0  0  0
  2 25  1  0  0  0
  2 89  1  0  0  0
  2 90  1  0  0  0
  3  4  1  0  0  0
  3 91  1  0  0  0
  3 92  1  0  0  0
  4  5  1  0  0  0
  4 93  1  0  0  0
  4 94  1  0  0  0
  5  6  1  0  0  0
  5 26  1  0  0  0
  5 95  1  0  0  0
  6 25  1  0  0  0
  6 96  1  0  0  0
  6 97  1  0  0  0
  7  8  2  0  0  0
  7 26  1  0  0  0
  7 29  1  0  0  0
  8  9  1  0  0  0
  8 22  1  0  0  0
  9 10  1  0  0  0
  9 27  2  0  0  0
 10 11  2  0  0  0
 10 15  1  0  0  0
 11 12  1  0  0  0
 11 98  1  0  0  0
 12 13  2  0  0  0
 12 99  1  0  0  0
 13 14  1  0  0  0
 13 31  1  0  0  0
 14 15  2  0  0  0
 14100  1  0  0  0
 15101  1  0  0  0
 16 17  2  0  0  0
 16 21  1  0  0  0
 16 31  1  0  0  0
 17 18  1  0  0  0
 17102  1  0  0  0
 18 19  2  0  0  0
 18103  1  0  0  0
 19 20  1  0  0  0
 19 24  1  0  0  0
 20 21  2  0  0  0
 20104  1  0  0  0
 21 23  1  0  0  0
 22 28  1  0  0  0
 22 32  2  0  0  0
 26 27  1  0  0  0
 28105  1  0  0  0
 28106  1  0  0  0
 29107  1  0  0  0
 29108  1  0  0  0
 33 34  1  0  0  0
 33 66  1  0  0  0
 33 70  2  0  0  0
 34 36  1  0  0  0
 34 59  1  0  0  0
 34109  1  0  0  0
 35 44  2  0  0  0
 35 45  1  0  0  0
 35 68  1  0  0  0
 36 56  1  0  0  0
 36110  1  0  0  0
 37 39  1  0  0  0
 37 47  1  0  0  0
 37 66  1  0  0  0
 37111  1  0  0  0
 38 43  2  0  0  0
 38 46  1  0  0  0
 38 47  1  0  0  0
 39 64  1  0  0  0
 39 67  2  0  0  0
 40 52  1  0  0  0
 40 53  2  0  0  0
 40 58  1  0  0  0
 41112  1  0  0  0
 41113  1  0  0  0
 41114  1  0  0  0
 41 48  1  0  0  0
 42 43  1  0  0  0
 42 66  1  0  0  0
 42115  1  0  0  0
 42116  1  0  0  0
 43 44  1  0  0  0
 44117  1  0  0  0
 45 46  2  0  0  0
 45118  1  0  0  0
 46119  1  0  0  0
 47120  1  0  0  0
 47121  1  0  0  0
 48 56  1  0  0  0
 48 65  1  0  0  0
 48122  1  0  0  0
 49 50  1  0  0  0
 49 53  1  0  0  0
 49 64  1  0  0  0
 49123  1  0  0  0
 50 51  1  0  0  0
 50124  1  0  0  0
 50125  1  0  0  0
 51 52  1  0  0  0
 51126  1  0  0  0
 51127  1  0  0  0
 52128  1  0  0  0
 52129  1  0  0  0
 53 54  1  0  0  0
 54 55  2  0  0  0
 54130  1  0  0  0
 55 57  1  0  0  0
 55131  1  0  0  0
 56 69  2  0  0  0
 57 58  2  0  0  0
 57132  1  0  0  0
 58133  1  0  0  0
 59 60  1  0  0  0
 59 61  1  0  0  0
 59 62  1  0  0  0
 60134  1  0  0  0
 60135  1  0  0  0
 60136  1  0  0  0
 61137  1  0  0  0
 61138  1  0  0  0
 61139  1  0  0  0
 62140  1  0  0  0
 62141  1  0  0  0
 62142  1  0  0  0
 63 65  1  0  0  0
 63143  1  0  0  0
 63144  1  0  0  0
 63145  1  0  0  0
 64146  1  0  0  0
 65147  1  0  0  0
 68 83  1  0  0  0
 71 74  2  0  0  0
 71 75  1  0  0  0
 71148  1  0  0  0
 72 73  1  0  0  0
 72 75  2  0  0  0
 72 80  1  0  0  0
 73 76  2  0  0  0
 73 77  1  0  0  0
 74 76  1  0  0  0
 74 85  1  0  0  0
 75 87  1  0  0  0
 76 88  1  0  0  0
 77149  1  0  0  0
 77150  1  0  0  0
 77151  1  0  0  0
 78152  1  0  0  0
 78153  1  0  0  0
 78154  1  0  0  0
 78 84  1  0  0  0
 79 84  1  0  0  0
 79155  1  0  0  0
 79156  1  0  0  0
 79157  1  0  0  0
 80 81  1  0  0  0
 80158  1  0  0  0
 80159  1  0  0  0
 81 82  1  0  0  0
 81160  1  0  0  0
 81161  1  0  0  0
 82 86  1  0  0  0
 82162  1  0  0  0
 82163  1  0  0  0
 83 84  1  0  0  0
 83164  1  0  0  0
 83165  1  0  0  0
 84 85  1  0  0  0
 85166  1  0  0  0
 86167  1  0  0  0
M  ISO  4   1 100  68 101  83 101  86 100
M  END
> <chiral flag>
0

> <version>
0

> <s_m_source_file>
/data/baiqing/PycharmProjects/Reinvent-master-3.2/result/LINK_invent/BTK/process_docking_weight1_custom_sum_contain_oxygen_bond_distance_aromatic_linkinvent_7_9_3/rearranged_h_0020.sdf

> <i_m_source_file_index>
22

> <r_mmod_Potential_Energy-OPLS-2005>
-25.24196434021

> <r_mmod_Stretch_Energy-OPLS-2005>
38.3544807434082

> <r_mmod_Bend_Energy-OPLS-2005>
115.811096191406

> <r_mmod_Torsional_Energy-OPLS-2005>
224.681533813477

> <r_mmod_Improper_Torsional_Energy-OPLS-2005>
6.40632343292236

> <r_mmod_Van_der_Waal_Energy-OPLS-2005>
160.416564941406

> <r_mmod_Electrostatic_Energy-OPLS-2005>
-380.541229248047

> <r_mmod_Solvation_Energy-OPLS-2005>
-198.875213623047

> <b_mmod_Minimization_Converged-OPLS-2005>
0

> <r_mmod_RMS_Derivative-OPLS-2005>
1.20986616611481

$$$$
22
                    3D
 Structure written by MMmdl.
172180  0  0  1  0            999 V2000
  -30.7360  -14.3888   20.6522 C   0  0  0  0  0  0
  -30.4190  -12.2873   19.4023 C   0  0  0  0  0  0
  -29.4872  -12.5198   18.1972 C   0  0  0  0  0  0
  -28.0100  -12.3776   18.6116 C   0  0  0  0  0  0
  -27.6654  -13.2006   19.8811 C   0  0  2  0  0  0
  -28.7012  -12.9388   20.9956 C   0  0  0  0  0  0
  -25.2597  -13.8135   20.5681 C   0  0  0  0  0  0
  -24.1835  -13.0424   20.9164 C   0  0  0  0  0  0
  -24.6382  -11.6889   20.8725 C   0  0  0  0  0  0
  -23.9047  -10.4281   21.0404 C   0  0  0  0  0  0
  -24.3605   -9.4201   21.9179 C   0  0  0  0  0  0
  -23.6282   -8.2240   22.0751 C   0  0  0  0  0  0
  -22.4266   -8.0281   21.3543 C   0  0  0  0  0  0
  -21.9900   -9.0249   20.4646 C   0  0  0  0  0  0
  -22.7226  -10.2126   20.3051 C   0  0  0  0  0  0
  -21.6847   -6.0733   22.5276 C   0  0  0  0  0  0
  -21.4015   -6.5638   23.8212 C   0  0  0  0  0  0
  -21.3657   -5.6792   24.9176 C   0  0  0  0  0  0
  -21.6048   -4.3054   24.7227 C   0  0  0  0  0  0
  -21.8817   -3.8143   23.4349 C   0  0  0  0  0  0
  -21.9193   -4.6960   22.3402 C   0  0  0  0  0  0
  -22.7866  -13.5238   21.1838 C   0  0  0  0  0  0
  -22.1659   -4.2147   21.0979 F   0  0  0  0  0  0
  -21.5629   -3.4536   25.7739 F   0  0  0  0  0  0
  -30.0411  -13.2385   20.4573 N   0  0  0  0  0  0
  -26.3034  -12.9302   20.3380 N   0  0  0  0  0  0
  -25.9306  -11.6464   20.5751 N   0  0  0  0  0  0
  -22.0504  -12.8232   22.0395 N   0  0  0  0  0  0
  -25.4338  -15.1839   20.4107 N   0  0  0  0  0  0
  -31.8037  -14.6412   20.0846 O   0  0  0  0  0  0
  -21.6635   -6.8876   21.4239 O   0  0  0  0  0  0
  -22.3554  -14.5545   20.6689 O   0  0  0  0  0  0
  -24.6114  -31.8700   23.2128 C   0  0  0  0  0  0
  -25.9013  -32.4834   23.8410 C   0  0  1  0  0  0
  -27.2368  -27.4461   20.0892 C   0  0  0  0  0  0
  -25.5883  -33.8641   24.2346 N   0  0  0  0  0  0
  -23.3997  -30.4928   21.5538 C   0  0  2  0  0  0
  -24.8445  -28.9619   20.1200 C   0  0  0  0  0  0
  -22.7403  -29.4646   22.5007 C   0  0  0  0  0  0
  -18.0267  -28.1353   22.8490 C   0  0  0  0  0  0
  -24.1490  -36.7315   23.2636 C   0  0  0  0  0  0
  -25.9267  -30.8361   21.3673 C   0  0  0  0  0  0
  -26.0026  -29.4695   20.7195 C   0  0  0  0  0  0
  -27.1966  -28.7148   20.7101 C   0  0  0  0  0  0
  -26.0585  -26.9599   19.4769 C   0  0  0  0  0  0
  -24.8656  -27.7035   19.4988 C   0  0  0  0  0  0
  -23.6070  -29.8264   20.1681 C   0  0  0  0  0  0
  -25.4111  -36.3124   24.0330 C   0  0  1  0  0  0
  -20.5860  -28.3634   23.1318 C   0  0  2  0  0  0
  -20.6764  -26.9371   22.5416 C   0  0  0  0  0  0
  -19.5747  -26.6369   21.5199 C   0  0  0  0  0  0
  -18.1922  -26.7901   22.1607 C   0  0  0  0  0  0
  -19.1519  -28.8807   23.2904 C   0  0  0  0  0  0
  -18.9451  -30.1419   23.8908 C   0  0  0  0  0  0
  -17.6454  -30.6572   24.0547 C   0  0  0  0  0  0
  -25.9019  -34.9483   23.5137 C   0  0  0  0  0  0
  -16.5343  -29.9070   23.6322 C   0  0  0  0  0  0
  -16.7253  -28.6483   23.0346 C   0  0  0  0  0  0
  -26.4467  -31.6605   25.0722 C   0  0  0  0  0  0
  -25.3742  -31.3695   26.1474 C   0  0  0  0  0  0
  -27.0295  -30.3054   24.6059 C   0  0  0  0  0  0
  -27.6054  -32.4322   25.7468 C   0  0  0  0  0  0
  -27.5591  -37.1811   24.8468 C   0  0  0  0  0  0
  -21.4137  -29.3018   22.3743 N   0  0  0  0  0  0
  -26.4314  -37.3791   23.9396 N   0  0  0  0  0  0
  -24.6634  -31.0810   22.1022 N   0  0  0  0  0  0
  -23.4192  -28.8187   23.3035 O   0  0  0  0  0  0
  -28.4360  -26.7635   20.0755 O   0  0  0  0  0  0
  -26.5586  -34.8936   22.4698 O   0  0  0  0  0  0
  -23.5310  -32.1457   23.7516 O   0  0  0  0  0  0
  -28.5217  -23.6603   23.2047 C   0  0  0  0  0  0
  -26.5747  -22.8004   22.0034 C   0  0  0  0  0  0
  -28.0487  -24.4654   20.9416 C   0  0  0  0  0  0
  -27.3853  -22.8361   23.1588 C   0  0  0  0  0  0
  -28.8509  -24.4702   22.1047 C   0  0  0  0  0  0
  -26.9201  -23.6017   20.8805 C   0  0  0  0  0  0
  -24.3881  -20.1890   20.4726 C   0  0  0  0  0  0
  -25.3318  -21.9123   21.9916 C   0  0  0  0  0  0
  -28.4686  -25.3615   19.7731 C   0  0  0  0  0  0
  -24.6855  -19.2577   19.2909 C   0  0  0  0  0  0
  -26.0198  -18.4827   19.3811 C   0  0  0  0  0  0
  -27.2629  -19.2820   18.9327 C   0  0  0  0  0  0
  -28.5799  -18.4944   19.0202 C   0  0  0  0  0  0
  -28.8932  -17.9521   20.4265 C   0  0  0  0  0  0
  -30.3787  -17.5971   20.6094 C   0  0  0  0  0  0
  -30.6451  -16.6182   21.7705 C   0  0  0  0  0  0
  -25.4230  -20.8208   21.0311 N   0  0  0  0  0  0
  -30.1555  -15.2711   21.4774 N   0  0  0  0  0  0
  -23.2263  -20.3587   20.8444 O   0  0  0  0  0  0
  -27.0842  -22.0677   24.2345 F   0  0  0  0  0  0
  -29.9645  -25.2433   22.1673 F   0  0  0  0  0  0
  -25.9654  -23.4920   19.4365 Cl  0  0  0  0  0  0
  -31.4625  -12.3909   19.0995 H   0  0  0  0  0  0
  -30.3193  -11.2657   19.7720 H   0  0  0  0  0  0
  -29.7208  -11.8146   17.3988 H   0  0  0  0  0  0
  -29.6584  -13.5162   17.7870 H   0  0  0  0  0  0
  -27.8158  -11.3201   18.7928 H   0  0  0  0  0  0
  -27.3580  -12.6680   17.7873 H   0  0  0  0  0  0
  -27.7240  -14.2553   19.6090 H   0  0  0  0  0  0
  -28.6655  -11.8924   21.3028 H   0  0  0  0  0  0
  -28.4526  -13.5053   21.8935 H   0  0  0  0  0  0
  -25.2752   -9.5682   22.4750 H   0  0  0  0  0  0
  -23.9994   -7.4633   22.7470 H   0  0  0  0  0  0
  -21.0832   -8.8765   19.8950 H   0  0  0  0  0  0
  -22.3683  -10.9666   19.6158 H   0  0  0  0  0  0
  -21.2006   -7.6147   23.9716 H   0  0  0  0  0  0
  -21.1483   -6.0522   25.9081 H   0  0  0  0  0  0
  -22.0600   -2.7605   23.2848 H   0  0  0  0  0  0
  -22.4110  -11.9885   22.4771 H   0  0  0  0  0  0
  -21.1130  -13.1267   22.2609 H   0  0  0  0  0  0
  -24.6683  -15.8401   20.5168 H   0  0  0  0  0  0
  -26.2932  -15.6174   20.0981 H   0  0  0  0  0  0
  -26.7087  -32.5564   23.1177 H   0  0  0  0  0  0
  -25.0054  -33.9817   25.0505 H   0  0  0  0  0  0
  -22.6851  -31.3069   21.4171 H   0  0  0  0  0  0
  -23.3754  -35.9657   23.3329 H   0  0  0  0  0  0
  -24.3587  -36.8897   22.2051 H   0  0  0  0  0  0
  -23.7253  -37.6528   23.6634 H   0  0  0  0  0  0
  -26.0336  -31.6007   20.5974 H   0  0  0  0  0  0
  -26.8170  -30.8936   21.9818 H   0  0  0  0  0  0
  -28.0906  -29.1029   21.1791 H   0  0  0  0  0  0
  -26.0357  -26.0252   18.9472 H   0  0  0  0  0  0
  -23.9787  -27.3108   19.0205 H   0  0  0  0  0  0
  -23.7131  -30.6004   19.4065 H   0  0  0  0  0  0
  -22.7330  -29.2407   19.8763 H   0  0  0  0  0  0
  -25.1297  -36.2006   25.0824 H   0  0  0  0  0  0
  -20.9942  -28.3211   24.1439 H   0  0  0  0  0  0
  -20.5671  -26.2238   23.3601 H   0  0  0  0  0  0
  -21.6639  -26.7425   22.1205 H   0  0  0  0  0  0
  -19.6910  -25.6282   21.1210 H   0  0  0  0  0  0
  -19.6693  -27.3209   20.6751 H   0  0  0  0  0  0
  -17.4197  -26.6644   21.4009 H   0  0  0  0  0  0
  -18.0310  -26.0042   22.9003 H   0  0  0  0  0  0
  -19.7940  -30.7207   24.2303 H   0  0  0  0  0  0
  -17.5020  -31.6263   24.5136 H   0  0  0  0  0  0
  -15.5346  -30.2963   23.7649 H   0  0  0  0  0  0
  -15.8654  -28.0802   22.7047 H   0  0  0  0  0  0
  -24.5910  -30.7048   25.7806 H   0  0  0  0  0  0
  -24.8935  -32.2842   26.4948 H   0  0  0  0  0  0
  -25.8097  -30.8846   27.0215 H   0  0  0  0  0  0
  -26.2824  -29.6796   24.1152 H   0  0  0  0  0  0
  -27.4131  -29.7294   25.4490 H   0  0  0  0  0  0
  -27.8629  -30.4387   23.9156 H   0  0  0  0  0  0
  -27.2684  -33.3610   26.2082 H   0  0  0  0  0  0
  -28.3831  -32.6896   25.0268 H   0  0  0  0  0  0
  -28.0747  -31.8419   26.5346 H   0  0  0  0  0  0
  -28.2624  -38.0097   24.7503 H   0  0  0  0  0  0
  -28.1078  -36.2627   24.6322 H   0  0  0  0  0  0
  -27.2299  -37.1485   25.8869 H   0  0  0  0  0  0
  -20.9283  -29.8756   21.6984 H   0  0  0  0  0  0
  -26.0213  -38.2876   24.1391 H   0  0  0  0  0  0
  -29.1421  -23.6687   24.0882 H   0  0  0  0  0  0
  -24.4729  -22.5430   21.7579 H   0  0  0  0  0  0
  -25.1321  -21.4924   22.9776 H   0  0  0  0  0  0
  -27.9627  -25.1296   18.8384 H   0  0  0  0  0  0
  -29.5118  -25.1196   19.5684 H   0  0  0  0  0  0
  -24.6447  -19.8380   18.3684 H   0  0  0  0  0  0
  -23.8667  -18.5394   19.2297 H   0  0  0  0  0  0
  -25.9393  -17.5928   18.7575 H   0  0  0  0  0  0
  -26.1482  -18.1169   20.3999 H   0  0  0  0  0  0
  -27.3785  -20.1960   19.5107 H   0  0  0  0  0  0
  -27.1201  -19.6066   17.9006 H   0  0  0  0  0  0
  -29.3874  -19.1525   18.6972 H   0  0  0  0  0  0
  -28.5669  -17.6668   18.3091 H   0  0  0  0  0  0
  -28.2723  -17.0747   20.6077 H   0  0  0  0  0  0
  -28.6116  -18.6846   21.1853 H   0  0  0  0  0  0
  -30.9365  -18.5188   20.7829 H   0  0  0  0  0  0
  -30.7806  -17.1830   19.6838 H   0  0  0  0  0  0
  -30.1666  -16.9772   22.6825 H   0  0  0  0  0  0
  -31.7141  -16.5751   21.9849 H   0  0  0  0  0  0
  -26.3406  -20.5911   20.6758 H   0  0  0  0  0  0
  -29.2866  -14.9876   21.9078 H   0  0  0  0  0  0
  1 25  1  0  0  0
  1 30  2  0  0  0
  1 88  1  0  0  0
  2  3  1  0  0  0
  2 25  1  0  0  0
  2 93  1  0  0  0
  2 94  1  0  0  0
  3  4  1  0  0  0
  3 95  1  0  0  0
  3 96  1  0  0  0
  4  5  1  0  0  0
  4 97  1  0  0  0
  4 98  1  0  0  0
  5  6  1  0  0  0
  5 26  1  0  0  0
  5 99  1  0  0  0
  6 25  1  0  0  0
  6100  1  0  0  0
  6101  1  0  0  0
  7  8  2  0  0  0
  7 26  1  0  0  0
  7 29  1  0  0  0
  8  9  1  0  0  0
  8 22  1  0  0  0
  9 10  1  0  0  0
  9 27  2  0  0  0
 10 11  2  0  0  0
 10 15  1  0  0  0
 11 12  1  0  0  0
 11102  1  0  0  0
 12 13  2  0  0  0
 12103  1  0  0  0
 13 14  1  0  0  0
 13 31  1  0  0  0
 14 15  2  0  0  0
 14104  1  0  0  0
 15105  1  0  0  0
 16 17  2  0  0  0
 16 21  1  0  0  0
 16 31  1  0  0  0
 17 18  1  0  0  0
 17106  1  0  0  0
 18 19  2  0  0  0
 18107  1  0  0  0
 19 20  1  0  0  0
 19 24  1  0  0  0
 20 21  2  0  0  0
 20108  1  0  0  0
 21 23  1  0  0  0
 22 28  1  0  0  0
 22 32  2  0  0  0
 26 27  1  0  0  0
 28109  1  0  0  0
 28110  1  0  0  0
 29111  1  0  0  0
 29112  1  0  0  0
 33 34  1  0  0  0
 33 66  1  0  0  0
 33 70  2  0  0  0
 34 36  1  0  0  0
 34 59  1  0  0  0
 34113  1  0  0  0
 35 44  2  0  0  0
 35 45  1  0  0  0
 35 68  1  0  0  0
 36 56  1  0  0  0
 36114  1  0  0  0
 37 39  1  0  0  0
 37 47  1  0  0  0
 37 66  1  0  0  0
 37115  1  0  0  0
 38 43  2  0  0  0
 38 46  1  0  0  0
 38 47  1  0  0  0
 39 64  1  0  0  0
 39 67  2  0  0  0
 40 52  1  0  0  0
 40 53  2  0  0  0
 40 58  1  0  0  0
 41116  1  0  0  0
 41117  1  0  0  0
 41118  1  0  0  0
 41 48  1  0  0  0
 42 43  1  0  0  0
 42 66  1  0  0  0
 42119  1  0  0  0
 42120  1  0  0  0
 43 44  1  0  0  0
 44121  1  0  0  0
 45 46  2  0  0  0
 45122  1  0  0  0
 46123  1  0  0  0
 47124  1  0  0  0
 47125  1  0  0  0
 48 56  1  0  0  0
 48 65  1  0  0  0
 48126  1  0  0  0
 49 50  1  0  0  0
 49 53  1  0  0  0
 49 64  1  0  0  0
 49127  1  0  0  0
 50 51  1  0  0  0
 50128  1  0  0  0
 50129  1  0  0  0
 51 52  1  0  0  0
 51130  1  0  0  0
 51131  1  0  0  0
 52132  1  0  0  0
 52133  1  0  0  0
 53 54  1  0  0  0
 54 55  2  0  0  0
 54134  1  0  0  0
 55 57  1  0  0  0
 55135  1  0  0  0
 56 69  2  0  0  0
 57 58  2  0  0  0
 57136  1  0  0  0
 58137  1  0  0  0
 59 60  1  0  0  0
 59 61  1  0  0  0
 59 62  1  0  0  0
 60138  1  0  0  0
 60139  1  0  0  0
 60140  1  0  0  0
 61141  1  0  0  0
 61142  1  0  0  0
 61143  1  0  0  0
 62144  1  0  0  0
 62145  1  0  0  0
 62146  1  0  0  0
 63 65  1  0  0  0
 63147  1  0  0  0
 63148  1  0  0  0
 63149  1  0  0  0
 64150  1  0  0  0
 65151  1  0  0  0
 68 79  1  0  0  0
 71 74  2  0  0  0
 71 75  1  0  0  0
 71152  1  0  0  0
 72 74  1  0  0  0
 72 76  2  0  0  0
 72 78  1  0  0  0
 73 75  2  0  0  0
 73 76  1  0  0  0
 73 79  1  0  0  0
 74 90  1  0  0  0
 75 91  1  0  0  0
 76 92  1  0  0  0
 77 80  1  0  0  0
 77 87  1  0  0  0
 77 89  2  0  0  0
 78 87  1  0  0  0
 78153  1  0  0  0
 78154  1  0  0  0
 79155  1  0  0  0
 79156  1  0  0  0
 80 81  1  0  0  0
 80157  1  0  0  0
 80158  1  0  0  0
 81 82  1  0  0  0
 81159  1  0  0  0
 81160  1  0  0  0
 82 83  1  0  0  0
 82161  1  0  0  0
 82162  1  0  0  0
 83 84  1  0  0  0
 83163  1  0  0  0
 83164  1  0  0  0
 84 85  1  0  0  0
 84165  1  0  0  0
 84166  1  0  0  0
 85 86  1  0  0  0
 85167  1  0  0  0
 85168  1  0  0  0
 86 88  1  0  0  0
 86169  1  0  0  0
 86170  1  0  0  0
 87171  1  0  0  0
 88172  1  0  0  0
M  ISO  4   1 100  68 101  79 101  88 100
M  END
> <chiral flag>
0

> <version>
0

> <s_m_source_file>
/data/baiqing/PycharmProjects/Reinvent-master-3.2/result/LINK_invent/BTK/process_docking_weight1_custom_sum_contain_oxygen_bond_distance_aromatic_linkinvent_7_9_3/rearranged_h_0020.sdf

> <i_m_source_file_index>
23

> <r_mmod_Potential_Energy-OPLS-2005>
-141.798461914062

> <r_mmod_Stretch_Energy-OPLS-2005>
35.0726356506348

> <r_mmod_Bend_Energy-OPLS-2005>
100.839416503906

> <r_mmod_Torsional_Energy-OPLS-2005>
217.214294433594

> <r_mmod_Improper_Torsional_Energy-OPLS-2005>
2.29059886932373

> <r_mmod_Van_der_Waal_Energy-OPLS-2005>
149.055572509766

> <r_mmod_Electrostatic_Energy-OPLS-2005>
-432.276275634766

> <r_mmod_Solvation_Energy-OPLS-2005>
-221.900390625

> <b_mmod_Minimization_Converged-OPLS-2005>
0

> <r_mmod_RMS_Derivative-OPLS-2005>
1.88669967651367

$$$$
23
                    3D
 Structure written by MMmdl.
165173  0  0  1  0            999 V2000
  -30.7110  -14.4779   20.6024 C   0  0  0  0  0  0
  -30.4275  -12.3265   19.4175 C   0  0  0  0  0  0
  -29.4958  -12.5187   18.2045 C   0  0  0  0  0  0
  -28.0177  -12.3738   18.6180 C   0  0  0  0  0  0
  -27.6628  -13.2108   19.8762 C   0  0  2  0  0  0
  -28.7053  -12.9924   20.9953 C   0  0  0  0  0  0
  -25.2589  -13.8163   20.5686 C   0  0  0  0  0  0
  -24.1838  -13.0438   20.9164 C   0  0  0  0  0  0
  -24.6402  -11.6908   20.8726 C   0  0  0  0  0  0
  -23.9067  -10.4292   21.0397 C   0  0  0  0  0  0
  -24.3618   -9.4211   21.9180 C   0  0  0  0  0  0
  -23.6293   -8.2249   22.0755 C   0  0  0  0  0  0
  -22.4276   -8.0284   21.3545 C   0  0  0  0  0  0
  -21.9907   -9.0257   20.4651 C   0  0  0  0  0  0
  -22.7236  -10.2134   20.3051 C   0  0  0  0  0  0
  -21.6852   -6.0739   22.5279 C   0  0  0  0  0  0
  -21.4014   -6.5642   23.8213 C   0  0  0  0  0  0
  -21.3660   -5.6793   24.9174 C   0  0  0  0  0  0
  -21.6042   -4.3054   24.7222 C   0  0  0  0  0  0
  -21.8820   -3.8147   23.4343 C   0  0  0  0  0  0
  -21.9195   -4.6967   22.3401 C   0  0  0  0  0  0
  -22.7861  -13.5239   21.1833 C   0  0  0  0  0  0
  -22.1662   -4.2151   21.0978 F   0  0  0  0  0  0
  -21.5631   -3.4535   25.7737 F   0  0  0  0  0  0
  -30.0350  -13.3064   20.4433 N   0  0  0  0  0  0
  -26.3036  -12.9344   20.3377 N   0  0  0  0  0  0
  -25.9333  -11.6498   20.5763 N   0  0  0  0  0  0
  -22.0498  -12.8230   22.0386 N   0  0  0  0  0  0
  -25.4306  -15.1879   20.4128 N   0  0  0  0  0  0
  -31.8160  -14.6819   20.0943 O   0  0  0  0  0  0
  -21.6640   -6.8880   21.4241 O   0  0  0  0  0  0
  -22.3542  -14.5552   20.6697 O   0  0  0  0  0  0
  -24.6168  -31.8656   23.2085 C   0  0  0  0  0  0
  -25.9055  -32.4811   23.8384 C   0  0  1  0  0  0
  -27.2302  -27.4165   20.1069 C   0  0  0  0  0  0
  -25.5890  -33.8608   24.2305 N   0  0  0  0  0  0
  -23.4050  -30.4903   21.5479 C   0  0  2  0  0  0
  -24.8535  -28.9564   20.1115 C   0  0  0  0  0  0
  -22.7423  -29.4652   22.4963 C   0  0  0  0  0  0
  -18.0275  -28.1378   22.8483 C   0  0  0  0  0  0
  -24.1488  -36.7324   23.2640 C   0  0  0  0  0  0
  -25.9361  -30.8288   21.3629 C   0  0  0  0  0  0
  -26.0152  -29.4622   20.7098 C   0  0  0  0  0  0
  -27.2100  -28.7009   20.7016 C   0  0  0  0  0  0
  -26.0561  -26.9348   19.4902 C   0  0  0  0  0  0
  -24.8701  -27.6927   19.4963 C   0  0  0  0  0  0
  -23.6140  -29.8227   20.1625 C   0  0  0  0  0  0
  -25.4102  -36.3101   24.0331 C   0  0  1  0  0  0
  -20.5866  -28.3670   23.1315 C   0  0  2  0  0  0
  -20.6765  -26.9395   22.5440 C   0  0  0  0  0  0
  -19.5756  -26.6380   21.5221 C   0  0  0  0  0  0
  -18.1918  -26.7935   22.1596 C   0  0  0  0  0  0
  -19.1522  -28.8837   23.2903 C   0  0  0  0  0  0
  -18.9453  -30.1440   23.8925 C   0  0  0  0  0  0
  -17.6454  -30.6583   24.0570 C   0  0  0  0  0  0
  -25.9033  -34.9470   23.5115 C   0  0  0  0  0  0
  -16.5344  -29.9086   23.6328 C   0  0  0  0  0  0
  -16.7262  -28.6505   23.0344 C   0  0  0  0  0  0
  -26.4481  -31.6602   25.0722 C   0  0  0  0  0  0
  -25.3736  -31.3721   26.1471 C   0  0  0  0  0  0
  -27.0313  -30.3035   24.6122 C   0  0  0  0  0  0
  -27.6073  -32.4323   25.7464 C   0  0  0  0  0  0
  -27.5586  -37.1800   24.8450 C   0  0  0  0  0  0
  -21.4145  -29.3032   22.3716 N   0  0  0  0  0  0
  -26.4289  -37.3788   23.9409 N   0  0  0  0  0  0
  -24.6712  -31.0759   22.0986 N   0  0  0  0  0  0
  -23.4192  -28.8193   23.3009 O   0  0  0  0  0  0
  -28.3608  -26.6233   20.1276 O   0  0  0  0  0  0
  -26.5613  -34.8921   22.4687 O   0  0  0  0  0  0
  -23.5356  -32.1403   23.7474 O   0  0  0  0  0  0
  -30.9989  -19.5494   21.9295 C   0  0  0  0  0  0
  -31.8877  -18.5651   22.4073 C   0  0  0  0  0  0
  -29.8248  -19.1996   21.2320 C   0  0  0  0  0  0
  -31.6106  -17.1845   22.2151 C   0  0  0  0  0  0
  -30.4474  -16.8060   21.4824 C   0  0  0  0  0  0
  -29.5616  -17.8165   21.0075 C   0  0  0  0  0  0
  -33.1214  -19.0301   23.1656 C   0  0  0  0  0  0
  -29.0895  -22.9436   22.6003 C   0  0  0  0  0  0
  -28.8152  -20.3017   20.8344 C   0  0  0  0  0  0
  -28.9938  -24.1714   20.3439 C   0  0  0  0  0  0
  -28.2101  -25.4033   20.8910 C   0  0  0  0  0  0
  -32.5370  -16.1373   22.8440 C   0  0  0  0  0  0
  -28.7151  -22.8271   21.1066 C   0  0  1  0  0  0
  -30.0700  -15.4313   21.3102 N   0  0  0  0  0  0
  -29.3948  -21.6399   20.4941 N   0  3  0  0  0  0
  -32.6903  -16.3524   24.1510 F   0  0  0  0  0  0
  -33.7314  -16.1349   22.2516 F   0  0  0  0  0  0
  -28.1177  -17.3345   20.1802 Cl  0  0  0  0  0  0
  -31.4699  -12.4346   19.1129 H   0  0  0  0  0  0
  -30.3398  -11.3140   19.8143 H   0  0  0  0  0  0
  -29.7388  -11.7964   17.4242 H   0  0  0  0  0  0
  -29.6592  -13.5057   17.7683 H   0  0  0  0  0  0
  -27.8300  -11.3170   18.8109 H   0  0  0  0  0  0
  -27.3671  -12.6514   17.7880 H   0  0  0  0  0  0
  -27.7055  -14.2599   19.5818 H   0  0  0  0  0  0
  -28.6872  -11.9551   21.3329 H   0  0  0  0  0  0
  -28.4576  -13.5845   21.8772 H   0  0  0  0  0  0
  -25.2766   -9.5688   22.4749 H   0  0  0  0  0  0
  -24.0005   -7.4641   22.7470 H   0  0  0  0  0  0
  -21.0838   -8.8776   19.8954 H   0  0  0  0  0  0
  -22.3698  -10.9676   19.6156 H   0  0  0  0  0  0
  -21.2002   -7.6148   23.9716 H   0  0  0  0  0  0
  -21.1480   -6.0521   25.9076 H   0  0  0  0  0  0
  -22.0599   -2.7609   23.2843 H   0  0  0  0  0  0
  -22.4099  -11.9882   22.4768 H   0  0  0  0  0  0
  -21.1119  -13.1268   22.2595 H   0  0  0  0  0  0
  -24.6683  -15.8448   20.5327 H   0  0  0  0  0  0
  -26.2932  -15.6354   20.1276 H   0  0  0  0  0  0
  -26.7129  -32.5523   23.1154 H   0  0  0  0  0  0
  -25.0031  -33.9772   25.0439 H   0  0  0  0  0  0
  -22.6943  -31.3077   21.4076 H   0  0  0  0  0  0
  -23.3740  -35.9670   23.3299 H   0  0  0  0  0  0
  -24.3586  -36.8951   22.2059 H   0  0  0  0  0  0
  -23.7257  -37.6529   23.6669 H   0  0  0  0  0  0
  -26.0484  -31.5931   20.5924 H   0  0  0  0  0  0
  -26.8243  -30.8837   21.9817 H   0  0  0  0  0  0
  -28.1054  -29.0821   21.1725 H   0  0  0  0  0  0
  -26.0572  -25.9634   19.0162 H   0  0  0  0  0  0
  -23.9775  -27.2998   19.0297 H   0  0  0  0  0  0
  -23.7196  -30.5987   19.4029 H   0  0  0  0  0  0
  -22.7383  -29.2427   19.8664 H   0  0  0  0  0  0
  -25.1277  -36.1965   25.0823 H   0  0  0  0  0  0
  -20.9957  -28.3251   24.1437 H   0  0  0  0  0  0
  -20.5643  -26.2277   23.3635 H   0  0  0  0  0  0
  -21.6639  -26.7419   22.1249 H   0  0  0  0  0  0
  -19.6921  -25.6297   21.1246 H   0  0  0  0  0  0
  -19.6723  -27.3205   20.6769 H   0  0  0  0  0  0
  -17.4207  -26.6724   21.3971 H   0  0  0  0  0  0
  -18.0270  -26.0051   22.8954 H   0  0  0  0  0  0
  -19.7930  -30.7249   24.2305 H   0  0  0  0  0  0
  -17.5006  -31.6267   24.5169 H   0  0  0  0  0  0
  -15.5345  -30.2997   23.7640 H   0  0  0  0  0  0
  -15.8656  -28.0838   22.7045 H   0  0  0  0  0  0
  -24.5988  -30.6948   25.7849 H   0  0  0  0  0  0
  -24.8817  -32.2861   26.4810 H   0  0  0  0  0  0
  -25.8094  -30.9027   27.0298 H   0  0  0  0  0  0
  -26.2858  -29.6775   24.1196 H   0  0  0  0  0  0
  -27.4092  -29.7294   25.4598 H   0  0  0  0  0  0
  -27.8689  -30.4336   23.9260 H   0  0  0  0  0  0
  -27.2714  -33.3610   26.2086 H   0  0  0  0  0  0
  -28.3851  -32.6902   25.0262 H   0  0  0  0  0  0
  -28.0782  -31.8415   26.5333 H   0  0  0  0  0  0
  -28.2605  -38.0097   24.7493 H   0  0  0  0  0  0
  -28.1075  -36.2629   24.6257 H   0  0  0  0  0  0
  -27.2316  -37.1438   25.8857 H   0  0  0  0  0  0
  -20.9304  -29.8762   21.6950 H   0  0  0  0  0  0
  -26.0179  -38.2863   24.1419 H   0  0  0  0  0  0
  -31.2159  -20.5865   22.1409 H   0  0  0  0  0  0
  -33.2896  -20.0996   23.0363 H   0  0  0  0  0  0
  -34.0200  -18.5233   22.8153 H   0  0  0  0  0  0
  -33.0119  -18.8442   24.2345 H   0  0  0  0  0  0
  -28.4781  -23.6879   23.1095 H   0  0  0  0  0  0
  -30.1329  -23.2333   22.7266 H   0  0  0  0  0  0
  -28.9408  -22.0079   23.1395 H   0  0  0  0  0  0
  -28.1047  -20.3915   21.6569 H   0  0  0  0  0  0
  -28.2278  -19.9894   19.9712 H   0  0  0  0  0  0
  -30.0618  -24.3937   20.3625 H   0  0  0  0  0  0
  -28.7295  -24.0431   19.2942 H   0  0  0  0  0  0
  -28.5546  -25.6303   21.9001 H   0  0  0  0  0  0
  -27.1623  -25.1191   20.9985 H   0  0  0  0  0  0
  -32.1591  -15.1203   22.7824 H   0  0  0  0  0  0
  -27.6404  -22.6455   21.0375 H   0  0  0  0  0  0
  -29.1145  -15.2070   21.5438 H   0  0  0  0  0  0
  -29.3366  -21.7201   19.4914 H   0  0  0  0  0  0
  -30.3729  -21.6442   20.7303 H   0  0  0  0  0  0
  1 25  1  0  0  0
  1 30  2  0  0  0
  1 84  1  0  0  0
  2  3  1  0  0  0
  2 25  1  0  0  0
  2 89  1  0  0  0
  2 90  1  0  0  0
  3  4  1  0  0  0
  3 91  1  0  0  0
  3 92  1  0  0  0
  4  5  1  0  0  0
  4 93  1  0  0  0
  4 94  1  0  0  0
  5  6  1  0  0  0
  5 26  1  0  0  0
  5 95  1  0  0  0
  6 25  1  0  0  0
  6 96  1  0  0  0
  6 97  1  0  0  0
  7  8  2  0  0  0
  7 26  1  0  0  0
  7 29  1  0  0  0
  8  9  1  0  0  0
  8 22  1  0  0  0
  9 10  1  0  0  0
  9 27  2  0  0  0
 10 11  2  0  0  0
 10 15  1  0  0  0
 11 12  1  0  0  0
 11 98  1  0  0  0
 12 13  2  0  0  0
 12 99  1  0  0  0
 13 14  1  0  0  0
 13 31  1  0  0  0
 14 15  2  0  0  0
 14100  1  0  0  0
 15101  1  0  0  0
 16 17  2  0  0  0
 16 21  1  0  0  0
 16 31  1  0  0  0
 17 18  1  0  0  0
 17102  1  0  0  0
 18 19  2  0  0  0
 18103  1  0  0  0
 19 20  1  0  0  0
 19 24  1  0  0  0
 20 21  2  0  0  0
 20104  1  0  0  0
 21 23  1  0  0  0
 22 28  1  0  0  0
 22 32  2  0  0  0
 26 27  1  0  0  0
 28105  1  0  0  0
 28106  1  0  0  0
 29107  1  0  0  0
 29108  1  0  0  0
 33 34  1  0  0  0
 33 66  1  0  0  0
 33 70  2  0  0  0
 34 36  1  0  0  0
 34 59  1  0  0  0
 34109  1  0  0  0
 35 44  2  0  0  0
 35 45  1  0  0  0
 35 68  1  0  0  0
 36 56  1  0  0  0
 36110  1  0  0  0
 37 39  1  0  0  0
 37 47  1  0  0  0
 37 66  1  0  0  0
 37111  1  0  0  0
 38 43  2  0  0  0
 38 46  1  0  0  0
 38 47  1  0  0  0
 39 64  1  0  0  0
 39 67  2  0  0  0
 40 52  1  0  0  0
 40 53  2  0  0  0
 40 58  1  0  0  0
 41112  1  0  0  0
 41113  1  0  0  0
 41114  1  0  0  0
 41 48  1  0  0  0
 42 43  1  0  0  0
 42 66  1  0  0  0
 42115  1  0  0  0
 42116  1  0  0  0
 43 44  1  0  0  0
 44117  1  0  0  0
 45 46  2  0  0  0
 45118  1  0  0  0
 46119  1  0  0  0
 47120  1  0  0  0
 47121  1  0  0  0
 48 56  1  0  0  0
 48 65  1  0  0  0
 48122  1  0  0  0
 49 50  1  0  0  0
 49 53  1  0  0  0
 49 64  1  0  0  0
 49123  1  0  0  0
 50 51  1  0  0  0
 50124  1  0  0  0
 50125  1  0  0  0
 51 52  1  0  0  0
 51126  1  0  0  0
 51127  1  0  0  0
 52128  1  0  0  0
 52129  1  0  0  0
 53 54  1  0  0  0
 54 55  2  0  0  0
 54130  1  0  0  0
 55 57  1  0  0  0
 55131  1  0  0  0
 56 69  2  0  0  0
 57 58  2  0  0  0
 57132  1  0  0  0
 58133  1  0  0  0
 59 60  1  0  0  0
 59 61  1  0  0  0
 59 62  1  0  0  0
 60134  1  0  0  0
 60135  1  0  0  0
 60136  1  0  0  0
 61137  1  0  0  0
 61138  1  0  0  0
 61139  1  0  0  0
 62140  1  0  0  0
 62141  1  0  0  0
 62142  1  0  0  0
 63 65  1  0  0  0
 63143  1  0  0  0
 63144  1  0  0  0
 63145  1  0  0  0
 64146  1  0  0  0
 65147  1  0  0  0
 68 81  1  0  0  0
 71 72  2  0  0  0
 71 73  1  0  0  0
 71148  1  0  0  0
 72 74  1  0  0  0
 72 77  1  0  0  0
 73 76  2  0  0  0
 73 79  1  0  0  0
 74 75  2  0  0  0
 74 82  1  0  0  0
 75 76  1  0  0  0
 75 84  1  0  0  0
 76 88  1  0  0  0
 77149  1  0  0  0
 77150  1  0  0  0
 77151  1  0  0  0
 78152  1  0  0  0
 78153  1  0  0  0
 78154  1  0  0  0
 78 83  1  0  0  0
 79 85  1  0  0  0
 79155  1  0  0  0
 79156  1  0  0  0
 80 81  1  0  0  0
 80 83  1  0  0  0
 80157  1  0  0  0
 80158  1  0  0  0
 81159  1  0  0  0
 81160  1  0  0  0
 82 86  1  0  0  0
 82 87  1  0  0  0
 82161  1  0  0  0
 83 85  1  0  0  0
 83162  1  0  0  0
 84163  1  0  0  0
 85164  1  0  0  0
 85165  1  0  0  0
M  CHG  1  85   1
M  ISO  4   1 100  68 101  81 101  84 100
M  END
> <chiral flag>
0

> <version>
0

> <s_m_source_file>
/data/baiqing/PycharmProjects/Reinvent-master-3.2/result/LINK_invent/BTK/process_docking_weight1_custom_sum_contain_oxygen_bond_distance_aromatic_linkinvent_7_9_3/rearranged_h_0020.sdf

> <i_m_source_file_index>
24

> <r_mmod_Potential_Energy-OPLS-2005>
-200.095413208008

> <r_mmod_Stretch_Energy-OPLS-2005>
47.5996704101562

> <r_mmod_Bend_Energy-OPLS-2005>
100.113975524902

> <r_mmod_Torsional_Energy-OPLS-2005>
257.90966796875

> <r_mmod_Improper_Torsional_Energy-OPLS-2005>
3.23465323448181

> <r_mmod_Van_der_Waal_Energy-OPLS-2005>
153.064346313477

> <r_mmod_Electrostatic_Energy-OPLS-2005>
-318.508575439453

> <r_mmod_Solvation_Energy-OPLS-2005>
-458.273803710938

> <b_mmod_Minimization_Converged-OPLS-2005>
0

> <r_mmod_RMS_Derivative-OPLS-2005>
1.24565756320953

$$$$
24
                    3D
 Structure written by MMmdl.
173181  0  0  1  0            999 V2000
  -30.8616  -14.2082   20.7797 C   0  0  0  0  0  0
  -30.4082  -12.2737   19.3345 C   0  0  0  0  0  0
  -29.4573  -12.5502   18.1626 C   0  0  0  0  0  0
  -27.9931  -12.3891   18.6035 C   0  0  0  0  0  0
  -27.6703  -13.2010   19.8825 C   0  0  2  0  0  0
  -28.7159  -12.9284   20.9863 C   0  0  0  0  0  0
  -25.2622  -13.8164   20.5710 C   0  0  0  0  0  0
  -24.1851  -13.0444   20.9170 C   0  0  0  0  0  0
  -24.6385  -11.6912   20.8729 C   0  0  0  0  0  0
  -23.9043  -10.4303   21.0393 C   0  0  0  0  0  0
  -24.3597   -9.4228   21.9180 C   0  0  0  0  0  0
  -23.6281   -8.2254   22.0752 C   0  0  0  0  0  0
  -22.4268   -8.0284   21.3543 C   0  0  0  0  0  0
  -21.9899   -9.0248   20.4643 C   0  0  0  0  0  0
  -22.7211  -10.2130   20.3051 C   0  0  0  0  0  0
  -21.6856   -6.0736   22.5273 C   0  0  0  0  0  0
  -21.4022   -6.5642   23.8205 C   0  0  0  0  0  0
  -21.3671   -5.6796   24.9173 C   0  0  0  0  0  0
  -21.6049   -4.3057   24.7226 C   0  0  0  0  0  0
  -21.8819   -3.8145   23.4338 C   0  0  0  0  0  0
  -21.9192   -4.6959   22.3402 C   0  0  0  0  0  0
  -22.7871  -13.5248   21.1839 C   0  0  0  0  0  0
  -22.1658   -4.2146   21.0977 F   0  0  0  0  0  0
  -21.5630   -3.4542   25.7733 F   0  0  0  0  0  0
  -30.0694  -13.1661   20.4450 N   0  0  0  0  0  0
  -26.3080  -12.9325   20.3445 N   0  0  0  0  0  0
  -25.9321  -11.6480   20.5784 N   0  0  0  0  0  0
  -22.0514  -12.8245   22.0388 N   0  0  0  0  0  0
  -25.4373  -15.1866   20.4107 N   0  0  0  0  0  0
  -31.7110  -14.7126   20.0402 O   0  0  0  0  0  0
  -21.6638   -6.8867   21.4231 O   0  0  0  0  0  0
  -22.3558  -14.5567   20.6697 O   0  0  0  0  0  0
  -24.6098  -31.8727   23.2099 C   0  0  0  0  0  0
  -25.8996  -32.4843   23.8404 C   0  0  1  0  0  0
  -27.2324  -27.4582   20.0619 C   0  0  0  0  0  0
  -25.5896  -33.8636   24.2356 N   0  0  0  0  0  0
  -23.3961  -30.4944   21.5533 C   0  0  2  0  0  0
  -24.8376  -28.9618   20.1163 C   0  0  0  0  0  0
  -22.7385  -29.4675   22.5015 C   0  0  0  0  0  0
  -18.0272  -28.1376   22.8475 C   0  0  0  0  0  0
  -24.1503  -36.7316   23.2643 C   0  0  0  0  0  0
  -25.9228  -30.8389   21.3595 C   0  0  0  0  0  0
  -25.9994  -29.4744   20.7064 C   0  0  0  0  0  0
  -27.1974  -28.7304   20.6732 C   0  0  0  0  0  0
  -26.0450  -26.9507   19.4820 C   0  0  0  0  0  0
  -24.8543  -27.6984   19.5053 C   0  0  0  0  0  0
  -23.6012  -29.8279   20.1692 C   0  0  0  0  0  0
  -25.4125  -36.3122   24.0345 C   0  0  1  0  0  0
  -20.5862  -28.3645   23.1325 C   0  0  2  0  0  0
  -20.6759  -26.9384   22.5394 C   0  0  0  0  0  0
  -19.5744  -26.6383   21.5179 C   0  0  0  0  0  0
  -18.1931  -26.7940   22.1603 C   0  0  0  0  0  0
  -19.1524  -28.8831   23.2897 C   0  0  0  0  0  0
  -18.9453  -30.1464   23.8896 C   0  0  0  0  0  0
  -17.6452  -30.6579   24.0578 C   0  0  0  0  0  0
  -25.9036  -34.9477   23.5135 C   0  0  0  0  0  0
  -16.5346  -29.9076   23.6340 C   0  0  0  0  0  0
  -16.7268  -28.6500   23.0327 C   0  0  0  0  0  0
  -26.4439  -31.6608   25.0724 C   0  0  0  0  0  0
  -25.3699  -31.3657   26.1454 C   0  0  0  0  0  0
  -27.0249  -30.3066   24.6062 C   0  0  0  0  0  0
  -27.6077  -32.4274   25.7479 C   0  0  0  0  0  0
  -27.5589  -37.1803   24.8476 C   0  0  0  0  0  0
  -21.4109  -29.3028   22.3767 N   0  0  0  0  0  0
  -26.4313  -37.3811   23.9416 N   0  0  0  0  0  0
  -24.6625  -31.0837   22.0987 N   0  0  0  0  0  0
  -23.4169  -28.8184   23.3020 O   0  0  0  0  0  0
  -28.4302  -26.7729   20.0394 O   0  0  0  0  0  0
  -26.5606  -34.8905   22.4702 O   0  0  0  0  0  0
  -23.5293  -32.1467   23.7510 O   0  0  0  0  0  0
  -27.3139  -23.2737   23.6621 C   0  0  0  0  0  0
  -27.7385  -22.5352   22.5316 C   0  0  0  0  0  0
  -28.2569  -21.2222   22.7087 C   0  0  0  0  0  0
  -28.4796  -20.7387   24.0261 C   0  0  0  0  0  0
  -27.5019  -22.7748   24.9613 C   0  0  0  0  0  0
  -28.1094  -21.5194   25.1426 C   0  0  0  0  0  0
  -28.5798  -20.3327   21.5080 C   0  0  0  0  0  0
  -27.6978  -23.1902   21.1486 C   0  0  0  0  0  0
  -29.1386  -19.3923   24.2798 C   0  0  0  0  0  0
  -27.8827  -24.7195   21.2022 C   0  0  0  0  0  0
  -28.1106  -18.2531   24.3943 C   0  0  0  0  0  0
  -28.6793  -16.9606   24.9994 C   0  0  0  0  0  0
  -29.3492  -16.0120   23.9954 C   0  0  0  0  0  0
  -30.6212  -16.5669   23.3207 C   0  0  0  0  0  0
  -31.5633  -15.4589   22.8344 C   0  0  0  0  0  0
  -28.4048  -25.3521   19.9026 C   0  0  0  0  0  0
  -27.1139  -23.5302   26.0690 N   0  0  0  0  0  0
  -30.8097  -14.4632   22.0859 N   0  0  0  0  0  0
  -28.3261  -21.0597   26.4012 F   0  0  0  0  0  0
  -31.4446  -12.3896   19.0144 H   0  0  0  0  0  0
  -30.3099  -11.2390   19.6654 H   0  0  0  0  0  0
  -29.6718  -11.8740   17.3349 H   0  0  0  0  0  0
  -29.6189  -13.5616   17.7861 H   0  0  0  0  0  0
  -27.8075  -11.3294   18.7806 H   0  0  0  0  0  0
  -27.3219  -12.6838   17.7962 H   0  0  0  0  0  0
  -27.7352  -14.2582   19.6232 H   0  0  0  0  0  0
  -28.6488  -11.8942   21.3261 H   0  0  0  0  0  0
  -28.4840  -13.5464   21.8539 H   0  0  0  0  0  0
  -25.2743   -9.5705   22.4757 H   0  0  0  0  0  0
  -23.9994   -7.4648   22.7484 H   0  0  0  0  0  0
  -21.0828   -8.8762   19.8947 H   0  0  0  0  0  0
  -22.3671  -10.9669   19.6160 H   0  0  0  0  0  0
  -21.2016   -7.6153   23.9706 H   0  0  0  0  0  0
  -21.1497   -6.0531   25.9075 H   0  0  0  0  0  0
  -22.0590   -2.7607   23.2845 H   0  0  0  0  0  0
  -22.4107  -11.9878   22.4755 H   0  0  0  0  0  0
  -21.1140  -13.1284   22.2620 H   0  0  0  0  0  0
  -24.6812  -15.8526   20.5337 H   0  0  0  0  0  0
  -26.3034  -15.6203   20.1145 H   0  0  0  0  0  0
  -26.7049  -32.5543   23.1153 H   0  0  0  0  0  0
  -25.0067  -33.9840   25.0516 H   0  0  0  0  0  0
  -22.6818  -31.3093   21.4142 H   0  0  0  0  0  0
  -23.3775  -35.9643   23.3338 H   0  0  0  0  0  0
  -24.3618  -36.8913   22.2058 H   0  0  0  0  0  0
  -23.7217  -37.6516   23.6632 H   0  0  0  0  0  0
  -26.0308  -31.5997   20.5874 H   0  0  0  0  0  0
  -26.8152  -30.8978   21.9703 H   0  0  0  0  0  0
  -28.0974  -29.1337   21.1160 H   0  0  0  0  0  0
  -26.0109  -25.9881   18.9952 H   0  0  0  0  0  0
  -23.9562  -27.3003   19.0508 H   0  0  0  0  0  0
  -23.7023  -30.5997   19.4057 H   0  0  0  0  0  0
  -22.7249  -29.2434   19.8771 H   0  0  0  0  0  0
  -25.1289  -36.2006   25.0842 H   0  0  0  0  0  0
  -20.9970  -28.3200   24.1437 H   0  0  0  0  0  0
  -20.5667  -26.2247   23.3566 H   0  0  0  0  0  0
  -21.6627  -26.7416   22.1184 H   0  0  0  0  0  0
  -19.6916  -25.6286   21.1222 H   0  0  0  0  0  0
  -19.6731  -27.3196   20.6724 H   0  0  0  0  0  0
  -17.4191  -26.6694   21.4018 H   0  0  0  0  0  0
  -18.0338  -26.0087   22.9014 H   0  0  0  0  0  0
  -19.7927  -30.7297   24.2249 H   0  0  0  0  0  0
  -17.4993  -31.6262   24.5168 H   0  0  0  0  0  0
  -15.5347  -30.2959   23.7654 H   0  0  0  0  0  0
  -15.8676  -28.0821   22.7010 H   0  0  0  0  0  0
  -24.5933  -30.6957   25.7752 H   0  0  0  0  0  0
  -24.8779  -32.2767   26.4873 H   0  0  0  0  0  0
  -25.8036  -30.8819   27.0207 H   0  0  0  0  0  0
  -26.2744  -29.6898   24.1125 H   0  0  0  0  0  0
  -27.4050  -29.7248   25.4473 H   0  0  0  0  0  0
  -27.8576  -30.4452   23.9184 H   0  0  0  0  0  0
  -27.2792  -33.3616   26.2050 H   0  0  0  0  0  0
  -28.3867  -32.6776   25.0270 H   0  0  0  0  0  0
  -28.0744  -31.8358   26.5362 H   0  0  0  0  0  0
  -28.2599  -38.0106   24.7534 H   0  0  0  0  0  0
  -28.1076  -36.2624   24.6280 H   0  0  0  0  0  0
  -27.2304  -37.1444   25.8880 H   0  0  0  0  0  0
  -20.9261  -29.8751   21.6996 H   0  0  0  0  0  0
  -26.0216  -38.2904   24.1391 H   0  0  0  0  0  0
  -26.8711  -24.2526   23.5473 H   0  0  0  0  0  0
  -28.0368  -20.6203   20.6088 H   0  0  0  0  0  0
  -28.2933  -19.2977   21.6963 H   0  0  0  0  0  0
  -29.6460  -20.3492   21.2892 H   0  0  0  0  0  0
  -26.7609  -22.9382   20.6460 H   0  0  0  0  0  0
  -28.5027  -22.7835   20.5354 H   0  0  0  0  0  0
  -29.7240  -19.4587   25.1979 H   0  0  0  0  0  0
  -29.8737  -19.1954   23.5019 H   0  0  0  0  0  0
  -28.6143  -24.9683   21.9752 H   0  0  0  0  0  0
  -26.9427  -25.1796   21.5102 H   0  0  0  0  0  0
  -27.6444  -18.0443   23.4316 H   0  0  0  0  0  0
  -27.3044  -18.5870   25.0481 H   0  0  0  0  0  0
  -27.8546  -16.4144   25.4583 H   0  0  0  0  0  0
  -29.3636  -17.1891   25.8174 H   0  0  0  0  0  0
  -28.6267  -15.7151   23.2323 H   0  0  0  0  0  0
  -29.6034  -15.0982   24.5354 H   0  0  0  0  0  0
  -31.1712  -17.2107   24.0095 H   0  0  0  0  0  0
  -30.3356  -17.1952   22.4753 H   0  0  0  0  0  0
  -32.0172  -14.9627   23.6931 H   0  0  0  0  0  0
  -32.3888  -15.8776   22.2552 H   0  0  0  0  0  0
  -29.4345  -25.0302   19.7468 H   0  0  0  0  0  0
  -27.8669  -25.0177   19.0158 H   0  0  0  0  0  0
  -26.3908  -24.2315   25.9573 H   0  0  0  0  0  0
  -27.0559  -23.0369   26.9538 H   0  0  0  0  0  0
  -30.1799  -13.8772   22.6147 H   0  0  0  0  0  0
  1 25  1  0  0  0
  1 30  2  0  0  0
  1 88  1  0  0  0
  2  3  1  0  0  0
  2 25  1  0  0  0
  2 90  1  0  0  0
  2 91  1  0  0  0
  3  4  1  0  0  0
  3 92  1  0  0  0
  3 93  1  0  0  0
  4  5  1  0  0  0
  4 94  1  0  0  0
  4 95  1  0  0  0
  5  6  1  0  0  0
  5 26  1  0  0  0
  5 96  1  0  0  0
  6 25  1  0  0  0
  6 97  1  0  0  0
  6 98  1  0  0  0
  7  8  2  0  0  0
  7 26  1  0  0  0
  7 29  1  0  0  0
  8  9  1  0  0  0
  8 22  1  0  0  0
  9 10  1  0  0  0
  9 27  2  0  0  0
 10 11  2  0  0  0
 10 15  1  0  0  0
 11 12  1  0  0  0
 11 99  1  0  0  0
 12 13  2  0  0  0
 12100  1  0  0  0
 13 14  1  0  0  0
 13 31  1  0  0  0
 14 15  2  0  0  0
 14101  1  0  0  0
 15102  1  0  0  0
 16 17  2  0  0  0
 16 21  1  0  0  0
 16 31  1  0  0  0
 17 18  1  0  0  0
 17103  1  0  0  0
 18 19  2  0  0  0
 18104  1  0  0  0
 19 20  1  0  0  0
 19 24  1  0  0  0
 20 21  2  0  0  0
 20105  1  0  0  0
 21 23  1  0  0  0
 22 28  1  0  0  0
 22 32  2  0  0  0
 26 27  1  0  0  0
 28106  1  0  0  0
 28107  1  0  0  0
 29108  1  0  0  0
 29109  1  0  0  0
 33 34  1  0  0  0
 33 66  1  0  0  0
 33 70  2  0  0  0
 34 36  1  0  0  0
 34 59  1  0  0  0
 34110  1  0  0  0
 35 44  2  0  0  0
 35 45  1  0  0  0
 35 68  1  0  0  0
 36 56  1  0  0  0
 36111  1  0  0  0
 37 39  1  0  0  0
 37 47  1  0  0  0
 37 66  1  0  0  0
 37112  1  0  0  0
 38 43  2  0  0  0
 38 46  1  0  0  0
 38 47  1  0  0  0
 39 64  1  0  0  0
 39 67  2  0  0  0
 40 52  1  0  0  0
 40 53  2  0  0  0
 40 58  1  0  0  0
 41113  1  0  0  0
 41114  1  0  0  0
 41115  1  0  0  0
 41 48  1  0  0  0
 42 43  1  0  0  0
 42 66  1  0  0  0
 42116  1  0  0  0
 42117  1  0  0  0
 43 44  1  0  0  0
 44118  1  0  0  0
 45 46  2  0  0  0
 45119  1  0  0  0
 46120  1  0  0  0
 47121  1  0  0  0
 47122  1  0  0  0
 48 56  1  0  0  0
 48 65  1  0  0  0
 48123  1  0  0  0
 49 50  1  0  0  0
 49 53  1  0  0  0
 49 64  1  0  0  0
 49124  1  0  0  0
 50 51  1  0  0  0
 50125  1  0  0  0
 50126  1  0  0  0
 51 52  1  0  0  0
 51127  1  0  0  0
 51128  1  0  0  0
 52129  1  0  0  0
 52130  1  0  0  0
 53 54  1  0  0  0
 54 55  2  0  0  0
 54131  1  0  0  0
 55 57  1  0  0  0
 55132  1  0  0  0
 56 69  2  0  0  0
 57 58  2  0  0  0
 57133  1  0  0  0
 58134  1  0  0  0
 59 60  1  0  0  0
 59 61  1  0  0  0
 59 62  1  0  0  0
 60135  1  0  0  0
 60136  1  0  0  0
 60137  1  0  0  0
 61138  1  0  0  0
 61139  1  0  0  0
 61140  1  0  0  0
 62141  1  0  0  0
 62142  1  0  0  0
 62143  1  0  0  0
 63 65  1  0  0  0
 63144  1  0  0  0
 63145  1  0  0  0
 63146  1  0  0  0
 64147  1  0  0  0
 65148  1  0  0  0
 68 86  1  0  0  0
 71 72  2  0  0  0
 71 75  1  0  0  0
 71149  1  0  0  0
 72 73  1  0  0  0
 72 78  1  0  0  0
 73 74  2  0  0  0
 73 77  1  0  0  0
 74 76  1  0  0  0
 74 79  1  0  0  0
 75 76  2  0  0  0
 75 87  1  0  0  0
 76 89  1  0  0  0
 77150  1  0  0  0
 77151  1  0  0  0
 77152  1  0  0  0
 78 80  1  0  0  0
 78153  1  0  0  0
 78154  1  0  0  0
 79 81  1  0  0  0
 79155  1  0  0  0
 79156  1  0  0  0
 80 86  1  0  0  0
 80157  1  0  0  0
 80158  1  0  0  0
 81 82  1  0  0  0
 81159  1  0  0  0
 81160  1  0  0  0
 82 83  1  0  0  0
 82161  1  0  0  0
 82162  1  0  0  0
 83 84  1  0  0  0
 83163  1  0  0  0
 83164  1  0  0  0
 84 85  1  0  0  0
 84165  1  0  0  0
 84166  1  0  0  0
 85 88  1  0  0  0
 85167  1  0  0  0
 85168  1  0  0  0
 86169  1  0  0  0
 86170  1  0  0  0
 87171  1  0  0  0
 87172  1  0  0  0
 88173  1  0  0  0
M  ISO  4   1 100  68 101  86 101  88 100
M  END
> <chiral flag>
0

> <version>
0

> <s_m_source_file>
/data/baiqing/PycharmProjects/Reinvent-master-3.2/result/LINK_invent/BTK/process_docking_weight1_custom_sum_contain_oxygen_bond_distance_aromatic_linkinvent_7_9_3/rearranged_h_0020.sdf

> <i_m_source_file_index>
25

> <r_mmod_Potential_Energy-OPLS-2005>
-42.4987411499023

> <r_mmod_Stretch_Energy-OPLS-2005>
33.5317573547363

> <r_mmod_Bend_Energy-OPLS-2005>
96.8750228881836

> <r_mmod_Torsional_Energy-OPLS-2005>
224.215362548828

> <r_mmod_Improper_Torsional_Energy-OPLS-2005>
8.67812538146973

> <r_mmod_Van_der_Waal_Energy-OPLS-2005>
164.744522094727

> <r_mmod_Electrostatic_Energy-OPLS-2005>
-382.235931396484

> <r_mmod_Solvation_Energy-OPLS-2005>
-201.905654907227

> <b_mmod_Minimization_Converged-OPLS-2005>
0

> <r_mmod_RMS_Derivative-OPLS-2005>
4.19367504119873

$$$$
25
                    3D
 Structure written by MMmdl.
194204  0  0  1  0            999 V2000
  -30.7479  -14.4065   20.6330 C   0  0  0  0  0  0
  -30.4018  -12.2938   19.4139 C   0  0  0  0  0  0
  -29.4923  -12.5489   18.1935 C   0  0  0  0  0  0
  -28.0072  -12.4017   18.5836 C   0  0  0  0  0  0
  -27.6584  -13.2023   19.8655 C   0  0  2  0  0  0
  -28.6866  -12.9247   20.9787 C   0  0  0  0  0  0
  -25.2548  -13.8096   20.5608 C   0  0  0  0  0  0
  -24.1819  -13.0384   20.9133 C   0  0  0  0  0  0
  -24.6384  -11.6869   20.8670 C   0  0  0  0  0  0
  -23.9064  -10.4261   21.0364 C   0  0  0  0  0  0
  -24.3628   -9.4184   21.9165 C   0  0  0  0  0  0
  -23.6285   -8.2231   22.0755 C   0  0  0  0  0  0
  -22.4267   -8.0280   21.3555 C   0  0  0  0  0  0
  -21.9899   -9.0242   20.4652 C   0  0  0  0  0  0
  -22.7225  -10.2110   20.3023 C   0  0  0  0  0  0
  -21.6859   -6.0735   22.5287 C   0  0  0  0  0  0
  -21.4028   -6.5626   23.8221 C   0  0  0  0  0  0
  -21.3667   -5.6779   24.9181 C   0  0  0  0  0  0
  -21.6030   -4.3039   24.7225 C   0  0  0  0  0  0
  -21.8804   -3.8142   23.4340 C   0  0  0  0  0  0
  -21.9206   -4.6964   22.3402 C   0  0  0  0  0  0
  -22.7855  -13.5230   21.1800 C   0  0  0  0  0  0
  -22.1644   -4.2139   21.0978 F   0  0  0  0  0  0
  -21.5647   -3.4537   25.7744 F   0  0  0  0  0  0
  -30.0242  -13.2578   20.4627 N   0  0  0  0  0  0
  -26.2993  -12.9279   20.3246 N   0  0  0  0  0  0
  -25.9286  -11.6443   20.5629 N   0  0  0  0  0  0
  -22.0500  -12.8279   22.0381 N   0  0  0  0  0  0
  -25.4118  -15.1815   20.3985 N   0  0  0  0  0  0
  -31.8233  -14.5975   20.0656 O   0  0  0  0  0  0
  -21.6602   -6.8898   21.4269 O   0  0  0  0  0  0
  -22.3550  -14.5553   20.6660 O   0  0  0  0  0  0
  -24.6076  -31.8726   23.2115 C   0  0  0  0  0  0
  -25.8995  -32.4848   23.8384 C   0  0  1  0  0  0
  -27.2684  -27.4923   20.0967 C   0  0  0  0  0  0
  -25.5865  -33.8643   24.2323 N   0  0  0  0  0  0
  -23.3939  -30.4951   21.5509 C   0  0  2  0  0  0
  -24.8475  -28.9596   20.1222 C   0  0  0  0  0  0
  -22.7317  -29.4734   22.5025 C   0  0  0  0  0  0
  -18.0263  -28.1334   22.8522 C   0  0  0  0  0  0
  -24.1475  -36.7342   23.2651 C   0  0  0  0  0  0
  -25.9147  -30.8565   21.3541 C   0  0  0  0  0  0
  -26.0018  -29.4962   20.7040 C   0  0  0  0  0  0
  -27.2130  -28.7731   20.6877 C   0  0  0  0  0  0
  -26.0942  -26.9589   19.5256 C   0  0  0  0  0  0
  -24.8853  -27.6844   19.5322 C   0  0  0  0  0  0
  -23.6006  -29.8137   20.1712 C   0  0  0  0  0  0
  -25.4098  -36.3147   24.0342 C   0  0  1  0  0  0
  -20.5846  -28.3664   23.1316 C   0  0  2  0  0  0
  -20.6761  -26.9406   22.5424 C   0  0  0  0  0  0
  -19.5756  -26.6382   21.5204 C   0  0  0  0  0  0
  -18.1923  -26.7891   22.1608 C   0  0  0  0  0  0
  -19.1510  -28.8809   23.2920 C   0  0  0  0  0  0
  -18.9451  -30.1411   23.8927 C   0  0  0  0  0  0
  -17.6463  -30.6566   24.0583 C   0  0  0  0  0  0
  -25.9029  -34.9501   23.5146 C   0  0  0  0  0  0
  -16.5351  -29.9083   23.6334 C   0  0  0  0  0  0
  -16.7249  -28.6485   23.0374 C   0  0  0  0  0  0
  -26.4463  -31.6622   25.0686 C   0  0  0  0  0  0
  -25.3763  -31.3698   26.1452 C   0  0  0  0  0  0
  -27.0312  -30.3066   24.6072 C   0  0  0  0  0  0
  -27.6063  -32.4334   25.7402 C   0  0  0  0  0  0
  -27.5576  -37.1824   24.8454 C   0  0  0  0  0  0
  -21.4057  -29.3055   22.3707 N   0  0  0  0  0  0
  -26.4291  -37.3824   23.9410 N   0  0  0  0  0  0
  -24.6566  -31.0868   22.0994 N   0  0  0  0  0  0
  -23.4078  -28.8297   23.3093 O   0  0  0  0  0  0
  -28.3959  -26.6992   20.0645 O   0  0  0  0  0  0
  -26.5599  -34.8956   22.4701 O   0  0  0  0  0  0
  -23.5284  -32.1451   23.7558 O   0  0  0  0  0  0
  -29.4187  -24.2490   18.6775 C   0  0  0  0  0  0
  -28.8125  -23.3516   17.7732 C   0  0  0  0  0  0
  -29.9843  -25.4623   18.2325 C   0  0  0  0  0  0
  -28.7728  -23.6860   16.3999 C   0  0  0  0  0  0
  -29.9452  -25.7820   16.8589 C   0  0  0  0  0  0
  -29.3408  -24.8968   15.9456 C   0  0  0  0  0  0
  -30.2596  -16.6191   23.3947 C   0  0  0  0  0  0
  -29.1517  -17.2216   24.2558 C   0  0  0  0  0  0
  -29.2666  -21.1651   18.9946 C   0  0  0  0  0  0
  -27.0357  -22.3177   19.2625 C   0  0  0  0  0  0
  -28.0907  -16.1603   22.3783 C   0  0  0  0  0  0
  -28.6324  -19.9000   19.5969 C   0  0  0  0  0  0
  -26.4991  -21.0352   19.9416 C   0  0  0  0  0  0
  -28.2101  -22.0466   18.2960 C   0  0  1  0  0  0
  -29.5285  -15.5989   22.5190 C   0  0  1  0  0  0
  -27.9351  -17.3925   23.3198 C   0  0  2  0  0  0
  -26.2318  -16.1306   24.9081 C   0  0  0  0  0  0
  -26.4691  -18.6159   25.0763 C   0  0  0  0  0  0
  -30.2424  -27.4626   21.4818 C   0  0  0  0  0  0
  -30.6578  -26.3838   19.2404 C   0  0  0  0  0  0
  -28.1499  -18.7212   22.5152 C   0  0  0  0  0  0
  -27.1181  -19.1168   21.4196 C   0  0  0  0  0  0
  -26.5799  -17.4160   24.1136 C   0  0  0  0  0  0
  -29.6984  -27.2953   20.0496 C   0  0  1  0  0  0
  -30.1606  -15.4694   21.2071 N   0  0  0  0  0  0
  -27.5938  -20.2676   20.5974 N   0  3  1  0  0  0
  -28.1939  -22.8493   15.5071 F   0  0  0  0  0  0
  -30.5092  -26.9310   16.4104 F   0  0  0  0  0  0
  -29.3078  -25.2052   14.6253 F   0  0  0  0  0  0
  -31.4533  -12.3671   19.1320 H   0  0  0  0  0  0
  -30.2686  -11.2701   19.7684 H   0  0  0  0  0  0
  -29.7446  -11.8699   17.3786 H   0  0  0  0  0  0
  -29.6631  -13.5572   17.8132 H   0  0  0  0  0  0
  -27.8100  -11.3404   18.7365 H   0  0  0  0  0  0
  -27.3696  -12.7194   17.7562 H   0  0  0  0  0  0
  -27.7256  -14.2586   19.6054 H   0  0  0  0  0  0
  -28.6621  -11.8656   21.2362 H   0  0  0  0  0  0
  -28.3966  -13.4198   21.8947 H   0  0  0  0  0  0
  -25.2766   -9.5657   22.4762 H   0  0  0  0  0  0
  -23.9975   -7.4631   22.7491 H   0  0  0  0  0  0
  -21.0818   -8.8739   19.8998 H   0  0  0  0  0  0
  -22.3652  -10.9640   19.6130 H   0  0  0  0  0  0
  -21.2003   -7.6127   23.9714 H   0  0  0  0  0  0
  -21.1511   -6.0518   25.9087 H   0  0  0  0  0  0
  -22.0590   -2.7612   23.2831 H   0  0  0  0  0  0
  -22.4113  -11.9912   22.4717 H   0  0  0  0  0  0
  -21.1117  -13.1307   22.2572 H   0  0  0  0  0  0
  -24.6337  -15.8184   20.5169 H   0  0  0  0  0  0
  -26.2609  -15.6324   20.0891 H   0  0  0  0  0  0
  -26.7063  -32.5591   23.1157 H   0  0  0  0  0  0
  -24.9962  -33.9793   25.0429 H   0  0  0  0  0  0
  -22.6886  -31.3159   21.4051 H   0  0  0  0  0  0
  -23.3730  -35.9685   23.3320 H   0  0  0  0  0  0
  -24.3583  -36.8945   22.2072 H   0  0  0  0  0  0
  -23.7235  -37.6550   23.6654 H   0  0  0  0  0  0
  -26.0148  -31.6236   20.5848 H   0  0  0  0  0  0
  -26.8025  -30.9081   21.9709 H   0  0  0  0  0  0
  -28.0846  -29.2151   21.1425 H   0  0  0  0  0  0
  -26.1219  -25.9770   19.0781 H   0  0  0  0  0  0
  -23.9982  -27.2472   19.0964 H   0  0  0  0  0  0
  -23.6983  -30.5777   19.4004 H   0  0  0  0  0  0
  -22.7297  -29.2195   19.8915 H   0  0  0  0  0  0
  -25.1274  -36.2019   25.0836 H   0  0  0  0  0  0
  -20.9957  -28.3253   24.1431 H   0  0  0  0  0  0
  -20.5665  -26.2280   23.3616 H   0  0  0  0  0  0
  -21.6638  -26.7474   22.1233 H   0  0  0  0  0  0
  -19.6942  -25.6309   21.1205 H   0  0  0  0  0  0
  -19.6675  -27.3215   20.6753 H   0  0  0  0  0  0
  -17.4212  -26.6688   21.3982 H   0  0  0  0  0  0
  -18.0310  -25.9978   22.8949 H   0  0  0  0  0  0
  -19.7941  -30.7219   24.2279 H   0  0  0  0  0  0
  -17.5050  -31.6259   24.5168 H   0  0  0  0  0  0
  -15.5368  -30.3022   23.7636 H   0  0  0  0  0  0
  -15.8632  -28.0822   22.7084 H   0  0  0  0  0  0
  -24.5916  -30.7082   25.7754 H   0  0  0  0  0  0
  -24.8995  -32.2855   26.4965 H   0  0  0  0  0  0
  -25.8158  -30.8795   27.0150 H   0  0  0  0  0  0
  -26.2851  -29.6754   24.1237 H   0  0  0  0  0  0
  -27.4175  -29.7385   25.4545 H   0  0  0  0  0  0
  -27.8633  -30.4354   23.9148 H   0  0  0  0  0  0
  -27.2697  -33.3605   26.2045 H   0  0  0  0  0  0
  -28.3806  -32.6936   25.0173 H   0  0  0  0  0  0
  -28.0806  -31.8423   26.5246 H   0  0  0  0  0  0
  -28.2610  -38.0107   24.7505 H   0  0  0  0  0  0
  -28.1060  -36.2647   24.6264 H   0  0  0  0  0  0
  -27.2317  -37.1464   25.8866 H   0  0  0  0  0  0
  -20.9189  -29.8717   21.6889 H   0  0  0  0  0  0
  -26.0179  -38.2910   24.1386 H   0  0  0  0  0  0
  -29.4507  -24.0127   19.7321 H   0  0  0  0  0  0
  -31.0505  -16.1744   23.9973 H   0  0  0  0  0  0
  -30.7267  -17.3969   22.7896 H   0  0  0  0  0  0
  -29.4591  -18.1458   24.7463 H   0  0  0  0  0  0
  -28.9374  -16.5114   25.0513 H   0  0  0  0  0  0
  -30.0471  -20.8866   18.2855 H   0  0  0  0  0  0
  -29.7687  -21.7158   19.7923 H   0  0  0  0  0  0
  -27.3477  -23.0177   20.0381 H   0  0  0  0  0  0
  -26.2277  -22.8137   18.7230 H   0  0  0  0  0  0
  -27.3779  -15.3720   22.6036 H   0  0  0  0  0  0
  -27.8818  -16.4252   21.3433 H   0  0  0  0  0  0
  -29.4223  -19.2889   20.0309 H   0  0  0  0  0  0
  -28.1864  -19.2914   18.8080 H   0  0  0  0  0  0
  -25.9945  -20.4040   19.2078 H   0  0  0  0  0  0
  -25.7446  -21.3172   20.6778 H   0  0  0  0  0  0
  -27.8246  -21.4801   17.4475 H   0  0  0  0  0  0
  -29.5410  -14.6615   23.0757 H   0  0  0  0  0  0
  -26.1030  -15.2550   24.2761 H   0  0  0  0  0  0
  -25.2790  -16.2519   25.4236 H   0  0  0  0  0  0
  -26.9628  -15.8857   25.6769 H   0  0  0  0  0  0
  -26.4673  -19.5702   24.5533 H   0  0  0  0  0  0
  -27.2808  -18.6279   25.8039 H   0  0  0  0  0  0
  -25.5376  -18.5838   25.6401 H   0  0  0  0  0  0
  -29.7184  -28.2179   22.0610 H   0  0  0  0  0  0
  -31.2940  -27.7558   21.4630 H   0  0  0  0  0  0
  -30.1629  -26.5240   22.0302 H   0  0  0  0  0  0
  -31.4095  -26.9921   18.7380 H   0  0  0  0  0  0
  -31.2262  -25.7418   19.9180 H   0  0  0  0  0  0
  -29.1323  -18.6678   22.0586 H   0  0  0  0  0  0
  -28.2412  -19.5553   23.2117 H   0  0  0  0  0  0
  -26.1826  -19.3826   21.9141 H   0  0  0  0  0  0
  -26.8762  -18.2902   20.7537 H   0  0  0  0  0  0
  -25.7835  -17.5302   23.3788 H   0  0  0  0  0  0
  -29.6537  -28.2643   19.5491 H   0  0  0  0  0  0
  -30.6499  -16.3117   20.9446 H   0  0  0  0  0  0
  -28.0214  -20.9060   21.2514 H   0  0  0  0  0  0
  1 25  1  0  0  0
  1 30  2  0  0  0
  1 95  1  0  0  0
  2  3  1  0  0  0
  2 25  1  0  0  0
  2100  1  0  0  0
  2101  1  0  0  0
  3  4  1  0  0  0
  3102  1  0  0  0
  3103  1  0  0  0
  4  5  1  0  0  0
  4104  1  0  0  0
  4105  1  0  0  0
  5  6  1  0  0  0
  5 26  1  0  0  0
  5106  1  0  0  0
  6 25  1  0  0  0
  6107  1  0  0  0
  6108  1  0  0  0
  7  8  2  0  0  0
  7 26  1  0  0  0
  7 29  1  0  0  0
  8  9  1  0  0  0
  8 22  1  0  0  0
  9 10  1  0  0  0
  9 27  2  0  0  0
 10 11  2  0  0  0
 10 15  1  0  0  0
 11 12  1  0  0  0
 11109  1  0  0  0
 12 13  2  0  0  0
 12110  1  0  0  0
 13 14  1  0  0  0
 13 31  1  0  0  0
 14 15  2  0  0  0
 14111  1  0  0  0
 15112  1  0  0  0
 16 17  2  0  0  0
 16 21  1  0  0  0
 16 31  1  0  0  0
 17 18  1  0  0  0
 17113  1  0  0  0
 18 19  2  0  0  0
 18114  1  0  0  0
 19 20  1  0  0  0
 19 24  1  0  0  0
 20 21  2  0  0  0
 20115  1  0  0  0
 21 23  1  0  0  0
 22 28  1  0  0  0
 22 32  2  0  0  0
 26 27  1  0  0  0
 28116  1  0  0  0
 28117  1  0  0  0
 29118  1  0  0  0
 29119  1  0  0  0
 33 34  1  0  0  0
 33 66  1  0  0  0
 33 70  2  0  0  0
 34 36  1  0  0  0
 34 59  1  0  0  0
 34120  1  0  0  0
 35 44  2  0  0  0
 35 45  1  0  0  0
 35 68  1  0  0  0
 36 56  1  0  0  0
 36121  1  0  0  0
 37 39  1  0  0  0
 37 47  1  0  0  0
 37 66  1  0  0  0
 37122  1  0  0  0
 38 43  2  0  0  0
 38 46  1  0  0  0
 38 47  1  0  0  0
 39 64  1  0  0  0
 39 67  2  0  0  0
 40 52  1  0  0  0
 40 53  2  0  0  0
 40 58  1  0  0  0
 41123  1  0  0  0
 41124  1  0  0  0
 41125  1  0  0  0
 41 48  1  0  0  0
 42 43  1  0  0  0
 42 66  1  0  0  0
 42126  1  0  0  0
 42127  1  0  0  0
 43 44  1  0  0  0
 44128  1  0  0  0
 45 46  2  0  0  0
 45129  1  0  0  0
 46130  1  0  0  0
 47131  1  0  0  0
 47132  1  0  0  0
 48 56  1  0  0  0
 48 65  1  0  0  0
 48133  1  0  0  0
 49 50  1  0  0  0
 49 53  1  0  0  0
 49 64  1  0  0  0
 49134  1  0  0  0
 50 51  1  0  0  0
 50135  1  0  0  0
 50136  1  0  0  0
 51 52  1  0  0  0
 51137  1  0  0  0
 51138  1  0  0  0
 52139  1  0  0  0
 52140  1  0  0  0
 53 54  1  0  0  0
 54 55  2  0  0  0
 54141  1  0  0  0
 55 57  1  0  0  0
 55142  1  0  0  0
 56 69  2  0  0  0
 57 58  2  0  0  0
 57143  1  0  0  0
 58144  1  0  0  0
 59 60  1  0  0  0
 59 61  1  0  0  0
 59 62  1  0  0  0
 60145  1  0  0  0
 60146  1  0  0  0
 60147  1  0  0  0
 61148  1  0  0  0
 61149  1  0  0  0
 61150  1  0  0  0
 62151  1  0  0  0
 62152  1  0  0  0
 62153  1  0  0  0
 63 65  1  0  0  0
 63154  1  0  0  0
 63155  1  0  0  0
 63156  1  0  0  0
 64157  1  0  0  0
 65158  1  0  0  0
 68 94  1  0  0  0
 71 72  2  0  0  0
 71 73  1  0  0  0
 71159  1  0  0  0
 72 74  1  0  0  0
 72 84  1  0  0  0
 73 75  2  0  0  0
 73 90  1  0  0  0
 74 76  2  0  0  0
 74 97  1  0  0  0
 75 76  1  0  0  0
 75 98  1  0  0  0
 76 99  1  0  0  0
 77 78  1  0  0  0
 77 85  1  0  0  0
 77160  1  0  0  0
 77161  1  0  0  0
 78 86  1  0  0  0
 78162  1  0  0  0
 78163  1  0  0  0
 79 82  1  0  0  0
 79 84  1  0  0  0
 79164  1  0  0  0
 79165  1  0  0  0
 80 83  1  0  0  0
 80 84  1  0  0  0
 80166  1  0  0  0
 80167  1  0  0  0
 81 85  1  0  0  0
 81 86  1  0  0  0
 81168  1  0  0  0
 81169  1  0  0  0
 82 96  1  0  0  0
 82170  1  0  0  0
 82171  1  0  0  0
 83 96  1  0  0  0
 83172  1  0  0  0
 83173  1  0  0  0
 84174  1  0  0  0
 85 95  1  0  0  0
 85175  1  0  0  0
 86 91  1  0  0  0
 86 93  1  0  0  0
 87176  1  0  0  0
 87177  1  0  0  0
 87178  1  0  0  0
 87 93  1  0  0  0
 88 93  1  0  0  0
 88179  1  0  0  0
 88180  1  0  0  0
 88181  1  0  0  0
 89182  1  0  0  0
 89183  1  0  0  0
 89184  1  0  0  0
 89 94  1  0  0  0
 90 94  1  0  0  0
 90185  1  0  0  0
 90186  1  0  0  0
 91 92  1  0  0  0
 91187  1  0  0  0
 91188  1  0  0  0
 92189  1  0  0  0
 92190  1  0  0  0
 92 96  1  0  0  0
 93191  1  0  0  0
 94192  1  0  0  0
 95193  1  0  0  0
 96194  1  0  0  0
M  CHG  1  96   1
M  ISO  4   1 100  68 101  94 101  95 100
M  END
> <chiral flag>
0

> <version>
0

> <s_m_source_file>
/data/baiqing/PycharmProjects/Reinvent-master-3.2/result/LINK_invent/BTK/process_docking_weight1_custom_sum_contain_oxygen_bond_distance_aromatic_linkinvent_7_9_3/rearranged_h_0020.sdf

> <i_m_source_file_index>
26

> <r_mmod_Potential_Energy-OPLS-2005>
48.9919776916504

> <r_mmod_Stretch_Energy-OPLS-2005>
43.2712097167969

> <r_mmod_Bend_Energy-OPLS-2005>
166.177093505859

> <r_mmod_Torsional_Energy-OPLS-2005>
343.185668945312

> <r_mmod_Improper_Torsional_Energy-OPLS-2005>
9.40698623657227

> <r_mmod_Van_der_Waal_Energy-OPLS-2005>
157.217742919922

> <r_mmod_Electrostatic_Energy-OPLS-2005>
-253.446395874023

> <r_mmod_Solvation_Energy-OPLS-2005>
-424.624145507812

> <b_mmod_Minimization_Converged-OPLS-2005>
0

> <r_mmod_RMS_Derivative-OPLS-2005>
4.68755054473877

$$$$
26
                    3D
 Structure written by MMmdl.
147155  0  0  1  0            999 V2000
  -30.4072  -15.3356   20.3692 C   0  0  0  0  0  0
  -30.4394  -12.8661   19.5114 C   0  0  0  0  0  0
  -29.5355  -12.5862   18.2838 C   0  0  0  0  0  0
  -28.0894  -12.2937   18.7207 C   0  0  0  0  0  0
  -27.6065  -13.2781   19.8140 C   0  0  2  0  0  0
  -28.6414  -13.4848   20.9392 C   0  0  0  0  0  0
  -25.2378  -13.8245   20.5753 C   0  0  0  0  0  0
  -24.1738  -13.0432   20.9270 C   0  0  0  0  0  0
  -24.6400  -11.6931   20.8767 C   0  0  0  0  0  0
  -23.9096  -10.4291   21.0410 C   0  0  0  0  0  0
  -24.3640   -9.4203   21.9186 C   0  0  0  0  0  0
  -23.6306   -8.2242   22.0754 C   0  0  0  0  0  0
  -22.4286   -8.0284   21.3545 C   0  0  0  0  0  0
  -21.9930   -9.0259   20.4645 C   0  0  0  0  0  0
  -22.7268  -10.2133   20.3056 C   0  0  0  0  0  0
  -21.6855   -6.0740   22.5281 C   0  0  0  0  0  0
  -21.4016   -6.5643   23.8215 C   0  0  0  0  0  0
  -21.3659   -5.6794   24.9176 C   0  0  0  0  0  0
  -21.6043   -4.3057   24.7225 C   0  0  0  0  0  0
  -21.8818   -3.8150   23.4346 C   0  0  0  0  0  0
  -21.9193   -4.6968   22.3403 C   0  0  0  0  0  0
  -22.7755  -13.5183   21.1912 C   0  0  0  0  0  0
  -22.1662   -4.2155   21.0980 F   0  0  0  0  0  0
  -21.5626   -3.4539   25.7736 F   0  0  0  0  0  0
  -29.8544  -14.0188   20.2950 N   0  0  0  0  0  0
  -26.2802  -12.9523   20.3199 N   0  0  0  0  0  0
  -25.9335  -11.6627   20.5710 N   0  0  0  0  0  0
  -22.0413  -12.8162   22.0463 N   0  0  0  0  0  0
  -25.3995  -15.1981   20.4187 N   0  0  0  0  0  0
  -31.6410  -15.3243   20.2399 O   0  0  0  0  0  0
  -21.6644   -6.8885   21.4243 O   0  0  0  0  0  0
  -22.3434  -14.5484   20.6751 O   0  0  0  0  0  0
  -24.6675  -31.8193   23.1663 C   0  0  0  0  0  0
  -25.9335  -32.4566   23.8145 C   0  0  1  0  0  0
  -27.2190  -26.8819   20.2010 C   0  0  0  0  0  0
  -25.5986  -33.8382   24.2050 N   0  0  0  0  0  0
  -23.4842  -30.4286   21.5175 C   0  0  2  0  0  0
  -24.9373  -28.8017   20.1220 C   0  0  0  0  0  0
  -22.7686  -29.4421   22.4778 C   0  0  0  0  0  0
  -18.0325  -28.1412   22.8463 C   0  0  0  0  0  0
  -24.1493  -36.7195   23.2648 C   0  0  0  0  0  0
  -26.0561  -30.6123   21.4019 C   0  0  0  0  0  0
  -26.1245  -29.1947   20.7533 C   0  0  0  0  0  0
  -27.2625  -28.2601   20.7594 C   0  0  0  0  0  0
  -25.9991  -26.6488   19.5276 C   0  0  0  0  0  0
  -24.9020  -27.5497   19.4876 C   0  0  0  0  0  0
  -23.7272  -29.7374   20.1476 C   0  0  0  0  0  0
  -25.4135  -36.2953   24.0296 C   0  0  1  0  0  0
  -20.5952  -28.3761   23.1180 C   0  0  2  0  0  0
  -20.6800  -26.9439   22.5401 C   0  0  0  0  0  0
  -19.5774  -26.6377   21.5214 C   0  0  0  0  0  0
  -18.1957  -26.7943   22.1621 C   0  0  0  0  0  0
  -19.1587  -28.8908   23.2806 C   0  0  0  0  0  0
  -18.9497  -30.1495   23.8844 C   0  0  0  0  0  0
  -17.6490  -30.6599   24.0555 C   0  0  0  0  0  0
  -25.9105  -34.9339   23.4996 C   0  0  0  0  0  0
  -16.5380  -29.9086   23.6346 C   0  0  0  0  0  0
  -16.7306  -28.6507   23.0363 C   0  0  0  0  0  0
  -26.4570  -31.6527   25.0692 C   0  0  0  0  0  0
  -25.3684  -31.3791   26.1339 C   0  0  0  0  0  0
  -27.0476  -30.2890   24.6455 C   0  0  0  0  0  0
  -27.6049  -32.4348   25.7502 C   0  0  0  0  0  0
  -27.5566  -37.1755   24.8466 C   0  0  0  0  0  0
  -21.4352  -29.3044   22.3525 N   0  0  0  0  0  0
  -26.4275  -37.3695   23.9410 N   0  0  0  0  0  0
  -24.7578  -30.9815   22.0821 N   0  0  0  0  0  0
  -23.4211  -28.7997   23.3041 O   0  0  0  0  0  0
  -28.2265  -25.7658   20.1857 O   0  0  0  0  0  0
  -26.5720  -34.8885   22.4595 O   0  0  0  0  0  0
  -23.5734  -32.1181   23.6731 O   0  0  0  0  0  0
  -28.7941  -21.1436   17.9830 C   0  0  0  0  0  0
  -29.2320  -19.8256   20.0546 C   0  0  0  0  0  0
  -28.5812  -22.5870   20.0051 C   0  0  0  0  0  0
  -29.1135  -19.9269   18.6476 C   0  0  0  0  0  0
  -28.5430  -22.3991   18.6032 C   0  0  0  0  0  0
  -28.9399  -21.2262   20.6821 C   0  0  0  0  0  0
  -29.8080  -18.2753   20.7058 C   0  0  0  0  0  0
  -28.0241  -24.1607   20.6078 C   0  0  0  0  0  0
  -29.6267  -16.6155   20.3969 N   0  0  0  0  0  0
  -29.3975  -18.5352   17.6625 Cl  0  0  0  0  0  0
  -28.1285  -23.7254   17.5742 Cl  0  0  0  0  0  0
  -29.0212  -21.2745   22.4057 Cl  0  0  0  0  0  0
  -31.4485  -13.0961   19.1669 H   0  0  0  0  0  0
  -30.5378  -11.9763   20.1354 H   0  0  0  0  0  0
  -29.9296  -11.7523   17.7015 H   0  0  0  0  0  0
  -29.5465  -13.4545   17.6231 H   0  0  0  0  0  0
  -28.0624  -11.2754   19.1103 H   0  0  0  0  0  0
  -27.4179  -12.3110   17.8615 H   0  0  0  0  0  0
  -27.5085  -14.2348   19.2995 H   0  0  0  0  0  0
  -28.8345  -12.5600   21.4849 H   0  0  0  0  0  0
  -28.2689  -14.2057   21.6688 H   0  0  0  0  0  0
  -25.2781   -9.5677   22.4768 H   0  0  0  0  0  0
  -24.0011   -7.4632   22.7474 H   0  0  0  0  0  0
  -21.0862   -8.8784   19.8949 H   0  0  0  0  0  0
  -22.3728  -10.9675   19.6168 H   0  0  0  0  0  0
  -21.2009   -7.6151   23.9721 H   0  0  0  0  0  0
  -21.1480   -6.0523   25.9079 H   0  0  0  0  0  0
  -22.0598   -2.7613   23.2844 H   0  0  0  0  0  0
  -22.4048  -11.9834   22.4855 H   0  0  0  0  0  0
  -21.1023  -13.1165   22.2665 H   0  0  0  0  0  0
  -24.6256  -15.8441   20.5297 H   0  0  0  0  0  0
  -26.2334  -15.6402   20.0566 H   0  0  0  0  0  0
  -26.7408  -32.5094   23.0860 H   0  0  0  0  0  0
  -25.0083  -33.9451   25.0168 H   0  0  0  0  0  0
  -22.8001  -31.2613   21.3413 H   0  0  0  0  0  0
  -23.3769  -35.9512   23.3276 H   0  0  0  0  0  0
  -24.3568  -36.8878   22.2069 H   0  0  0  0  0  0
  -23.7239  -37.6368   23.6730 H   0  0  0  0  0  0
  -26.2378  -31.3475   20.6168 H   0  0  0  0  0  0
  -26.9155  -30.6751   22.0575 H   0  0  0  0  0  0
  -28.1684  -28.5689   21.2616 H   0  0  0  0  0  0
  -25.8728  -25.6953   19.0342 H   0  0  0  0  0  0
  -24.0021  -27.2425   18.9727 H   0  0  0  0  0  0
  -23.8905  -30.5021   19.3873 H   0  0  0  0  0  0
  -22.8354  -29.1955   19.8277 H   0  0  0  0  0  0
  -25.1336  -36.1739   25.0787 H   0  0  0  0  0  0
  -21.0036  -28.3369   24.1305 H   0  0  0  0  0  0
  -20.5679  -26.2381   23.3645 H   0  0  0  0  0  0
  -21.6663  -26.7410   22.1210 H   0  0  0  0  0  0
  -19.6936  -25.6274   21.1277 H   0  0  0  0  0  0
  -19.6712  -27.3159   20.6721 H   0  0  0  0  0  0
  -17.4224  -26.6683   21.4026 H   0  0  0  0  0  0
  -18.0353  -26.0098   22.9030 H   0  0  0  0  0  0
  -19.7973  -30.7325   24.2189 H   0  0  0  0  0  0
  -17.5043  -31.6275   24.5166 H   0  0  0  0  0  0
  -15.5378  -30.2972   23.7701 H   0  0  0  0  0  0
  -15.8706  -28.0809   22.7109 H   0  0  0  0  0  0
  -24.5884  -30.7121   25.7647 H   0  0  0  0  0  0
  -24.8855  -32.2998   26.4624 H   0  0  0  0  0  0
  -25.7906  -30.9050   27.0209 H   0  0  0  0  0  0
  -26.3156  -29.6551   24.1438 H   0  0  0  0  0  0
  -27.3970  -29.7271   25.5128 H   0  0  0  0  0  0
  -27.9109  -30.4062   23.9902 H   0  0  0  0  0  0
  -27.2607  -33.3696   26.1938 H   0  0  0  0  0  0
  -28.3935  -32.6833   25.0386 H   0  0  0  0  0  0
  -28.0635  -31.8570   26.5536 H   0  0  0  0  0  0
  -28.2562  -38.0071   24.7512 H   0  0  0  0  0  0
  -28.1082  -36.2595   24.6292 H   0  0  0  0  0  0
  -27.2282  -37.1394   25.8869 H   0  0  0  0  0  0
  -20.9619  -29.8723   21.6636 H   0  0  0  0  0  0
  -26.0117  -38.2749   24.1422 H   0  0  0  0  0  0
  -28.7317  -21.1098   16.9053 H   0  0  0  0  0  0
  -29.5536  -18.3504   21.7630 H   0  0  0  0  0  0
  -30.8906  -18.4036   20.6964 H   0  0  0  0  0  0
  -28.3109  -24.1427   21.6590 H   0  0  0  0  0  0
  -26.9416  -24.0375   20.6364 H   0  0  0  0  0  0
  -28.6452  -16.3910   20.3353 H   0  0  0  0  0  0
  1 25  1  0  0  0
  1 30  2  0  0  0
  1 79  1  0  0  0
  2  3  1  0  0  0
  2 25  1  0  0  0
  2 83  1  0  0  0
  2 84  1  0  0  0
  3  4  1  0  0  0
  3 85  1  0  0  0
  3 86  1  0  0  0
  4  5  1  0  0  0
  4 87  1  0  0  0
  4 88  1  0  0  0
  5  6  1  0  0  0
  5 26  1  0  0  0
  5 89  1  0  0  0
  6 25  1  0  0  0
  6 90  1  0  0  0
  6 91  1  0  0  0
  7  8  2  0  0  0
  7 26  1  0  0  0
  7 29  1  0  0  0
  8  9  1  0  0  0
  8 22  1  0  0  0
  9 10  1  0  0  0
  9 27  2  0  0  0
 10 11  2  0  0  0
 10 15  1  0  0  0
 11 12  1  0  0  0
 11 92  1  0  0  0
 12 13  2  0  0  0
 12 93  1  0  0  0
 13 14  1  0  0  0
 13 31  1  0  0  0
 14 15  2  0  0  0
 14 94  1  0  0  0
 15 95  1  0  0  0
 16 17  2  0  0  0
 16 21  1  0  0  0
 16 31  1  0  0  0
 17 18  1  0  0  0
 17 96  1  0  0  0
 18 19  2  0  0  0
 18 97  1  0  0  0
 19 20  1  0  0  0
 19 24  1  0  0  0
 20 21  2  0  0  0
 20 98  1  0  0  0
 21 23  1  0  0  0
 22 28  1  0  0  0
 22 32  2  0  0  0
 26 27  1  0  0  0
 28 99  1  0  0  0
 28100  1  0  0  0
 29101  1  0  0  0
 29102  1  0  0  0
 33 34  1  0  0  0
 33 66  1  0  0  0
 33 70  2  0  0  0
 34 36  1  0  0  0
 34 59  1  0  0  0
 34103  1  0  0  0
 35 44  2  0  0  0
 35 45  1  0  0  0
 35 68  1  0  0  0
 36 56  1  0  0  0
 36104  1  0  0  0
 37 39  1  0  0  0
 37 47  1  0  0  0
 37 66  1  0  0  0
 37105  1  0  0  0
 38 43  2  0  0  0
 38 46  1  0  0  0
 38 47  1  0  0  0
 39 64  1  0  0  0
 39 67  2  0  0  0
 40 52  1  0  0  0
 40 53  2  0  0  0
 40 58  1  0  0  0
 41106  1  0  0  0
 41107  1  0  0  0
 41108  1  0  0  0
 41 48  1  0  0  0
 42 43  1  0  0  0
 42 66  1  0  0  0
 42109  1  0  0  0
 42110  1  0  0  0
 43 44  1  0  0  0
 44111  1  0  0  0
 45 46  2  0  0  0
 45112  1  0  0  0
 46113  1  0  0  0
 47114  1  0  0  0
 47115  1  0  0  0
 48 56  1  0  0  0
 48 65  1  0  0  0
 48116  1  0  0  0
 49 50  1  0  0  0
 49 53  1  0  0  0
 49 64  1  0  0  0
 49117  1  0  0  0
 50 51  1  0  0  0
 50118  1  0  0  0
 50119  1  0  0  0
 51 52  1  0  0  0
 51120  1  0  0  0
 51121  1  0  0  0
 52122  1  0  0  0
 52123  1  0  0  0
 53 54  1  0  0  0
 54 55  2  0  0  0
 54124  1  0  0  0
 55 57  1  0  0  0
 55125  1  0  0  0
 56 69  2  0  0  0
 57 58  2  0  0  0
 57126  1  0  0  0
 58127  1  0  0  0
 59 60  1  0  0  0
 59 61  1  0  0  0
 59 62  1  0  0  0
 60128  1  0  0  0
 60129  1  0  0  0
 60130  1  0  0  0
 61131  1  0  0  0
 61132  1  0  0  0
 61133  1  0  0  0
 62134  1  0  0  0
 62135  1  0  0  0
 62136  1  0  0  0
 63 65  1  0  0  0
 63137  1  0  0  0
 63138  1  0  0  0
 63139  1  0  0  0
 64140  1  0  0  0
 65141  1  0  0  0
 68 78  1  0  0  0
 71 74  2  0  0  0
 71 75  1  0  0  0
 71142  1  0  0  0
 72 74  1  0  0  0
 72 76  2  0  0  0
 72 77  1  0  0  0
 73 75  2  0  0  0
 73 76  1  0  0  0
 73 78  1  0  0  0
 74 80  1  0  0  0
 75 81  1  0  0  0
 76 82  1  0  0  0
 77 79  1  0  0  0
 77143  1  0  0  0
 77144  1  0  0  0
 78145  1  0  0  0
 78146  1  0  0  0
 79147  1  0  0  0
M  ISO  4   1 100  68 101  78 101  79 100
M  END
> <chiral flag>
0

> <version>
0

> <s_m_source_file>
/data/baiqing/PycharmProjects/Reinvent-master-3.2/result/LINK_invent/BTK/process_docking_weight1_custom_sum_contain_oxygen_bond_distance_aromatic_linkinvent_7_9_3/rearranged_h_0020.sdf

> <i_m_source_file_index>
27

> <r_mmod_Potential_Energy-OPLS-2005>
1407.28491210938

> <r_mmod_Stretch_Energy-OPLS-2005>
652.501037597656

> <r_mmod_Bend_Energy-OPLS-2005>
451.375732421875

> <r_mmod_Torsional_Energy-OPLS-2005>
237.151016235352

> <r_mmod_Improper_Torsional_Energy-OPLS-2005>
5.84919881820679

> <r_mmod_Van_der_Waal_Energy-OPLS-2005>
117.002487182617

> <r_mmod_Electrostatic_Energy-OPLS-2005>
-368.001983642578

> <r_mmod_Solvation_Energy-OPLS-2005>
-218.860794067383

> <b_mmod_Minimization_Converged-OPLS-2005>
0

> <r_mmod_RMS_Derivative-OPLS-2005>
0.209113895893097

$$$$
27
                    3D
 Structure written by MMmdl.
156164  0  0  1  0            999 V2000
  -30.5148  -15.0133   20.4106 C   0  0  0  0  0  0
  -30.4434  -12.6283   19.5108 C   0  0  0  0  0  0
  -29.5286  -12.5393   18.2659 C   0  0  0  0  0  0
  -28.0633  -12.3123   18.6831 C   0  0  0  0  0  0
  -27.6274  -13.2527   19.8364 C   0  0  2  0  0  0
  -28.6675  -13.3059   20.9765 C   0  0  0  0  0  0
  -25.2438  -13.8203   20.5692 C   0  0  0  0  0  0
  -24.1771  -13.0429   20.9241 C   0  0  0  0  0  0
  -24.6399  -11.6920   20.8771 C   0  0  0  0  0  0
  -23.9084  -10.4289   21.0417 C   0  0  0  0  0  0
  -24.3633   -9.4200   21.9189 C   0  0  0  0  0  0
  -23.6300   -8.2239   22.0756 C   0  0  0  0  0  0
  -22.4278   -8.0285   21.3548 C   0  0  0  0  0  0
  -21.9919   -9.0260   20.4649 C   0  0  0  0  0  0
  -22.7257  -10.2135   20.3059 C   0  0  0  0  0  0
  -21.6850   -6.0741   22.5280 C   0  0  0  0  0  0
  -21.4015   -6.5641   23.8216 C   0  0  0  0  0  0
  -21.3657   -5.6793   24.9176 C   0  0  0  0  0  0
  -21.6040   -4.3057   24.7224 C   0  0  0  0  0  0
  -21.8817   -3.8149   23.4346 C   0  0  0  0  0  0
  -21.9191   -4.6969   22.3404 C   0  0  0  0  0  0
  -22.7791  -13.5205   21.1886 C   0  0  0  0  0  0
  -22.1658   -4.2156   21.0981 F   0  0  0  0  0  0
  -21.5626   -3.4539   25.7737 F   0  0  0  0  0  0
  -29.9381  -13.7371   20.3771 N   0  0  0  0  0  0
  -26.2870  -12.9453   20.3226 N   0  0  0  0  0  0
  -25.9333  -11.6581   20.5741 N   0  0  0  0  0  0
  -22.0435  -12.8205   22.0443 N   0  0  0  0  0  0
  -25.4061  -15.1923   20.4054 N   0  0  0  0  0  0
  -31.7191  -15.0620   20.1344 O   0  0  0  0  0  0
  -21.6636   -6.8887   21.4243 O   0  0  0  0  0  0
  -22.3478  -14.5505   20.6722 O   0  0  0  0  0  0
  -24.6477  -31.8398   23.1841 C   0  0  0  0  0  0
  -25.9229  -32.4671   23.8245 C   0  0  1  0  0  0
  -27.2174  -27.0904   20.1592 C   0  0  0  0  0  0
  -25.5960  -33.8479   24.2161 N   0  0  0  0  0  0
  -23.4534  -30.4579   21.5307 C   0  0  2  0  0  0
  -24.9036  -28.8757   20.1113 C   0  0  0  0  0  0
  -22.7588  -29.4528   22.4840 C   0  0  0  0  0  0
  -18.0310  -28.1398   22.8472 C   0  0  0  0  0  0
  -24.1493  -36.7245   23.2642 C   0  0  0  0  0  0
  -26.0128  -30.6992   21.3898 C   0  0  0  0  0  0
  -26.0835  -29.3061   20.7315 C   0  0  0  0  0  0
  -27.2406  -28.4312   20.7347 C   0  0  0  0  0  0
  -26.0091  -26.7726   19.5003 C   0  0  0  0  0  0
  -24.8820  -27.6240   19.4791 C   0  0  0  0  0  0
  -23.6825  -29.7838   20.1518 C   0  0  0  0  0  0
  -25.4126  -36.3014   24.0309 C   0  0  1  0  0  0
  -20.5925  -28.3730   23.1220 C   0  0  2  0  0  0
  -20.6793  -26.9428   22.5400 C   0  0  0  0  0  0
  -19.5767  -26.6380   21.5210 C   0  0  0  0  0  0
  -18.1949  -26.7934   22.1621 C   0  0  0  0  0  0
  -19.1568  -28.8883   23.2837 C   0  0  0  0  0  0
  -18.9484  -30.1478   23.8865 C   0  0  0  0  0  0
  -17.6480  -30.6592   24.0558 C   0  0  0  0  0  0
  -25.9080  -34.9392   23.5046 C   0  0  0  0  0  0
  -16.5371  -29.9083   23.6338 C   0  0  0  0  0  0
  -16.7293  -28.6503   23.0357 C   0  0  0  0  0  0
  -26.4535  -31.6558   25.0709 C   0  0  0  0  0  0
  -25.3706  -31.3764   26.1396 C   0  0  0  0  0  0
  -27.0413  -30.2946   24.6334 C   0  0  0  0  0  0
  -27.6050  -32.4340   25.7505 C   0  0  0  0  0  0
  -27.5573  -37.1778   24.8462 C   0  0  0  0  0  0
  -21.4276  -29.3049   22.3587 N   0  0  0  0  0  0
  -26.4284  -37.3732   23.9406 N   0  0  0  0  0  0
  -24.7247  -31.0212   22.0897 N   0  0  0  0  0  0
  -23.4209  -28.8086   23.3016 O   0  0  0  0  0  0
  -28.2596  -26.0777   20.2270 O   0  0  0  0  0  0
  -26.5673  -34.8899   22.4630 O   0  0  0  0  0  0
  -23.5585  -32.1296   23.7033 O   0  0  0  0  0  0
  -28.7482  -18.7693   20.4583 C   0  0  0  0  0  0
  -29.8284  -17.7457   20.4664 C   0  0  0  0  0  0
  -29.2173  -20.1205   20.3650 C   0  0  0  0  0  0
  -30.9634  -18.5304   20.4249 C   0  0  0  0  0  0
  -28.4631  -21.5626   20.2982 C   0  0  0  0  0  0
  -27.2894  -18.3970   20.5477 C   0  0  0  0  0  0
  -32.3988  -18.1010   20.4912 C   0  0  0  0  0  0
  -31.5744  -21.0033   20.1686 C   0  0  0  0  0  0
  -28.9835  -23.1570   20.3097 C   0  0  0  0  0  0
  -27.9649  -24.5272   20.1267 C   0  0  0  0  0  0
  -30.6112  -19.9164   20.3145 N   0  0  0  0  0  0
  -29.7000  -16.1919   20.5557 N   0  0  0  0  0  0
  -27.2340  -21.4899   20.2370 O   0  0  0  0  0  0
  -31.4756  -12.7940   19.1993 H   0  0  0  0  0  0
  -30.4480  -11.6847   20.0585 H   0  0  0  0  0  0
  -29.8612  -11.7368   17.6063 H   0  0  0  0  0  0
  -29.6066  -13.4622   17.6888 H   0  0  0  0  0  0
  -27.9727  -11.2741   19.0046 H   0  0  0  0  0  0
  -27.3998  -12.4251   17.8247 H   0  0  0  0  0  0
  -27.5830  -14.2482   19.3940 H   0  0  0  0  0  0
  -28.7685  -12.3357   21.4654 H   0  0  0  0  0  0
  -28.3550  -14.0107   21.7487 H   0  0  0  0  0  0
  -25.2779   -9.5670   22.4769 H   0  0  0  0  0  0
  -24.0004   -7.4623   22.7476 H   0  0  0  0  0  0
  -21.0848   -8.8787   19.8958 H   0  0  0  0  0  0
  -22.3719  -10.9680   19.6171 H   0  0  0  0  0  0
  -21.2011   -7.6151   23.9724 H   0  0  0  0  0  0
  -21.1478   -6.0522   25.9080 H   0  0  0  0  0  0
  -22.0598   -2.7612   23.2842 H   0  0  0  0  0  0
  -22.4052  -11.9878   22.4854 H   0  0  0  0  0  0
  -21.1049  -13.1231   22.2636 H   0  0  0  0  0  0
  -24.6250  -15.8325   20.4945 H   0  0  0  0  0  0
  -26.2225  -15.6203   19.9918 H   0  0  0  0  0  0
  -26.7297  -32.5263   23.0971 H   0  0  0  0  0  0
  -25.0072  -33.9587   25.0285 H   0  0  0  0  0  0
  -22.7579  -31.2847   21.3728 H   0  0  0  0  0  0
  -23.3760  -35.9572   23.3286 H   0  0  0  0  0  0
  -24.3574  -36.8902   22.2059 H   0  0  0  0  0  0
  -23.7251  -37.6434   23.6701 H   0  0  0  0  0  0
  -26.1749  -31.4515   20.6164 H   0  0  0  0  0  0
  -26.8798  -30.7490   22.0366 H   0  0  0  0  0  0
  -28.1381  -28.7571   21.2411 H   0  0  0  0  0  0
  -25.8980  -25.8172   19.0110 H   0  0  0  0  0  0
  -23.9818  -27.2882   18.9826 H   0  0  0  0  0  0
  -23.8227  -30.5565   19.3950 H   0  0  0  0  0  0
  -22.7957  -29.2286   19.8404 H   0  0  0  0  0  0
  -25.1320  -36.1828   25.0802 H   0  0  0  0  0  0
  -21.0016  -28.3328   24.1341 H   0  0  0  0  0  0
  -20.5685  -26.2346   23.3626 H   0  0  0  0  0  0
  -21.6661  -26.7429   22.1201 H   0  0  0  0  0  0
  -19.6929  -25.6284   21.1260 H   0  0  0  0  0  0
  -19.6702  -27.3173   20.6726 H   0  0  0  0  0  0
  -17.4216  -26.6676   21.4026 H   0  0  0  0  0  0
  -18.0349  -26.0083   22.9025 H   0  0  0  0  0  0
  -19.7960  -30.7304   24.2217 H   0  0  0  0  0  0
  -17.5033  -31.6268   24.5167 H   0  0  0  0  0  0
  -15.5370  -30.2975   23.7680 H   0  0  0  0  0  0
  -15.8693  -28.0811   22.7090 H   0  0  0  0  0  0
  -24.5885  -30.7116   25.7713 H   0  0  0  0  0  0
  -24.8899  -32.2954   26.4757 H   0  0  0  0  0  0
  -25.7974  -30.8973   27.0216 H   0  0  0  0  0  0
  -26.3047  -29.6651   24.1330 H   0  0  0  0  0  0
  -27.3991  -29.7267   25.4933 H   0  0  0  0  0  0
  -27.8969  -30.4165   23.9689 H   0  0  0  0  0  0
  -27.2626  -33.3659   26.2016 H   0  0  0  0  0  0
  -28.3897  -32.6874   25.0365 H   0  0  0  0  0  0
  -28.0681  -31.8515   26.5478 H   0  0  0  0  0  0
  -28.2577  -38.0085   24.7508 H   0  0  0  0  0  0
  -28.1083  -36.2614   24.6292 H   0  0  0  0  0  0
  -27.2288  -37.1426   25.8864 H   0  0  0  0  0  0
  -20.9496  -29.8750   21.6750 H   0  0  0  0  0  0
  -26.0143  -38.2797   24.1411 H   0  0  0  0  0  0
  -27.1694  -17.3835   20.9271 H   0  0  0  0  0  0
  -26.8175  -18.4588   19.5665 H   0  0  0  0  0  0
  -26.7597  -19.0626   21.2296 H   0  0  0  0  0  0
  -32.5106  -17.2100   21.1046 H   0  0  0  0  0  0
  -33.0363  -18.8485   20.9605 H   0  0  0  0  0  0
  -32.7889  -17.8849   19.4966 H   0  0  0  0  0  0
  -31.2423  -21.6982   19.4002 H   0  0  0  0  0  0
  -32.5481  -20.6420   19.8434 H   0  0  0  0  0  0
  -31.6877  -21.5335   21.1145 H   0  0  0  0  0  0
  -29.7434  -23.2331   19.5350 H   0  0  0  0  0  0
  -29.5196  -23.2756   21.2503 H   0  0  0  0  0  0
  -27.1327  -24.3628   20.8119 H   0  0  0  0  0  0
  -27.5335  -24.3917   19.1355 H   0  0  0  0  0  0
  -28.7463  -15.9061   20.7146 H   0  0  0  0  0  0
  1 25  1  0  0  0
  1 30  2  0  0  0
  1 82  1  0  0  0
  2  3  1  0  0  0
  2 25  1  0  0  0
  2 84  1  0  0  0
  2 85  1  0  0  0
  3  4  1  0  0  0
  3 86  1  0  0  0
  3 87  1  0  0  0
  4  5  1  0  0  0
  4 88  1  0  0  0
  4 89  1  0  0  0
  5  6  1  0  0  0
  5 26  1  0  0  0
  5 90  1  0  0  0
  6 25  1  0  0  0
  6 91  1  0  0  0
  6 92  1  0  0  0
  7  8  2  0  0  0
  7 26  1  0  0  0
  7 29  1  0  0  0
  8  9  1  0  0  0
  8 22  1  0  0  0
  9 10  1  0  0  0
  9 27  2  0  0  0
 10 11  2  0  0  0
 10 15  1  0  0  0
 11 12  1  0  0  0
 11 93  1  0  0  0
 12 13  2  0  0  0
 12 94  1  0  0  0
 13 14  1  0  0  0
 13 31  1  0  0  0
 14 15  2  0  0  0
 14 95  1  0  0  0
 15 96  1  0  0  0
 16 17  2  0  0  0
 16 21  1  0  0  0
 16 31  1  0  0  0
 17 18  1  0  0  0
 17 97  1  0  0  0
 18 19  2  0  0  0
 18 98  1  0  0  0
 19 20  1  0  0  0
 19 24  1  0  0  0
 20 21  2  0  0  0
 20 99  1  0  0  0
 21 23  1  0  0  0
 22 28  1  0  0  0
 22 32  2  0  0  0
 26 27  1  0  0  0
 28100  1  0  0  0
 28101  1  0  0  0
 29102  1  0  0  0
 29103  1  0  0  0
 33 34  1  0  0  0
 33 66  1  0  0  0
 33 70  2  0  0  0
 34 36  1  0  0  0
 34 59  1  0  0  0
 34104  1  0  0  0
 35 44  2  0  0  0
 35 45  1  0  0  0
 35 68  1  0  0  0
 36 56  1  0  0  0
 36105  1  0  0  0
 37 39  1  0  0  0
 37 47  1  0  0  0
 37 66  1  0  0  0
 37106  1  0  0  0
 38 43  2  0  0  0
 38 46  1  0  0  0
 38 47  1  0  0  0
 39 64  1  0  0  0
 39 67  2  0  0  0
 40 52  1  0  0  0
 40 53  2  0  0  0
 40 58  1  0  0  0
 41107  1  0  0  0
 41108  1  0  0  0
 41109  1  0  0  0
 41 48  1  0  0  0
 42 43  1  0  0  0
 42 66  1  0  0  0
 42110  1  0  0  0
 42111  1  0  0  0
 43 44  1  0  0  0
 44112  1  0  0  0
 45 46  2  0  0  0
 45113  1  0  0  0
 46114  1  0  0  0
 47115  1  0  0  0
 47116  1  0  0  0
 48 56  1  0  0  0
 48 65  1  0  0  0
 48117  1  0  0  0
 49 50  1  0  0  0
 49 53  1  0  0  0
 49 64  1  0  0  0
 49118  1  0  0  0
 50 51  1  0  0  0
 50119  1  0  0  0
 50120  1  0  0  0
 51 52  1  0  0  0
 51121  1  0  0  0
 51122  1  0  0  0
 52123  1  0  0  0
 52124  1  0  0  0
 53 54  1  0  0  0
 54 55  2  0  0  0
 54125  1  0  0  0
 55 57  1  0  0  0
 55126  1  0  0  0
 56 69  2  0  0  0
 57 58  2  0  0  0
 57127  1  0  0  0
 58128  1  0  0  0
 59 60  1  0  0  0
 59 61  1  0  0  0
 59 62  1  0  0  0
 60129  1  0  0  0
 60130  1  0  0  0
 60131  1  0  0  0
 61132  1  0  0  0
 61133  1  0  0  0
 61134  1  0  0  0
 62135  1  0  0  0
 62136  1  0  0  0
 62137  1  0  0  0
 63 65  1  0  0  0
 63138  1  0  0  0
 63139  1  0  0  0
 63140  1  0  0  0
 64141  1  0  0  0
 65142  1  0  0  0
 68 80  1  0  0  0
 71 72  1  0  0  0
 71 73  2  0  0  0
 71 76  1  0  0  0
 72 74  2  0  0  0
 72 82  1  0  0  0
 73 75  1  0  0  0
 73 81  1  0  0  0
 74 77  1  0  0  0
 74 81  1  0  0  0
 75 79  1  0  0  0
 75 83  2  0  0  0
 76143  1  0  0  0
 76144  1  0  0  0
 76145  1  0  0  0
 77146  1  0  0  0
 77147  1  0  0  0
 77148  1  0  0  0
 78 81  1  0  0  0
 78149  1  0  0  0
 78150  1  0  0  0
 78151  1  0  0  0
 79 80  1  0  0  0
 79152  1  0  0  0
 79153  1  0  0  0
 80154  1  0  0  0
 80155  1  0  0  0
 82156  1  0  0  0
M  ISO  4   1 100  68 101  80 101  82 100
M  END
> <chiral flag>
0

> <version>
0

> <s_m_source_file>
/data/baiqing/PycharmProjects/Reinvent-master-3.2/result/LINK_invent/BTK/process_docking_weight1_custom_sum_contain_oxygen_bond_distance_aromatic_linkinvent_7_9_3/rearranged_h_0020.sdf

> <i_m_source_file_index>
28

> <r_mmod_Potential_Energy-OPLS-2005>
570.613708496094

> <r_mmod_Stretch_Energy-OPLS-2005>
312.385986328125

> <r_mmod_Bend_Energy-OPLS-2005>
298.795684814453

> <r_mmod_Torsional_Energy-OPLS-2005>
211.297622680664

> <r_mmod_Improper_Torsional_Energy-OPLS-2005>
4.70217370986938

> <r_mmod_Van_der_Waal_Energy-OPLS-2005>
113.549072265625

> <r_mmod_Electrostatic_Energy-OPLS-2005>
-386.121246337891

> <r_mmod_Solvation_Energy-OPLS-2005>
-221.000946044922

> <b_mmod_Minimization_Converged-OPLS-2005>
0

> <r_mmod_RMS_Derivative-OPLS-2005>
0.776645183563232

$$$$
28
                    3D
 Structure written by MMmdl.
199207  0  0  1  0            999 V2000
  -30.1206  -16.1746   20.3002 C   0  0  0  0  0  0
  -30.3752  -13.4918   19.5473 C   0  0  0  0  0  0
  -29.5732  -12.8172   18.3788 C   0  0  0  0  0  0
  -28.1936  -12.3403   18.8417 C   0  0  0  0  0  0
  -27.5870  -13.3688   19.8165 C   0  0  2  0  0  0
  -28.5629  -13.9184   20.9042 C   0  0  0  0  0  0
  -25.2281  -13.8377   20.5853 C   0  0  0  0  0  0
  -24.1740  -13.0476   20.9255 C   0  0  0  0  0  0
  -24.6530  -11.6995   20.8779 C   0  0  0  0  0  0
  -23.9222  -10.4327   21.0377 C   0  0  0  0  0  0
  -24.3734   -9.4213   21.9152 C   0  0  0  0  0  0
  -23.6353   -8.2267   22.0751 C   0  0  0  0  0  0
  -22.4316   -8.0333   21.3559 C   0  0  0  0  0  0
  -21.9998   -9.0317   20.4647 C   0  0  0  0  0  0
  -22.7381  -10.2159   20.3040 C   0  0  0  0  0  0
  -21.6874   -6.0767   22.5281 C   0  0  0  0  0  0
  -21.4035   -6.5659   23.8218 C   0  0  0  0  0  0
  -21.3647   -5.6804   24.9167 C   0  0  0  0  0  0
  -21.6037   -4.3066   24.7209 C   0  0  0  0  0  0
  -21.8813   -3.8166   23.4338 C   0  0  0  0  0  0
  -21.9202   -4.6987   22.3390 C   0  0  0  0  0  0
  -22.7730  -13.5140   21.1870 C   0  0  0  0  0  0
  -22.1667   -4.2185   21.0969 F   0  0  0  0  0  0
  -21.5609   -3.4537   25.7710 F   0  0  0  0  0  0
  -29.6427  -14.7167   20.2218 N   0  0  0  0  0  0
  -26.2819  -12.9836   20.3348 N   0  0  0  0  0  0
  -25.9504  -11.6836   20.5693 N   0  0  0  0  0  0
  -22.0406  -12.8130   22.0439 N   0  0  0  0  0  0
  -25.3790  -15.2140   20.4358 N   0  0  0  0  0  0
  -31.3500  -15.9596   20.1842 O   0  0  0  0  0  0
  -21.6667   -6.8933   21.4260 O   0  0  0  0  0  0
  -22.3384  -14.5412   20.6660 O   0  0  0  0  0  0
  -24.7174  -31.7577   23.1200 C   0  0  0  0  0  0
  -25.9584  -32.4265   23.7902 C   0  0  1  0  0  0
  -27.2421  -26.3374   20.2319 C   0  0  0  0  0  0
  -25.5998  -33.8101   24.1726 N   0  0  0  0  0  0
  -23.5631  -30.3383   21.4848 C   0  0  2  0  0  0
  -25.0232  -28.6039   20.1206 C   0  0  0  0  0  0
  -22.7939  -29.4079   22.4643 C   0  0  0  0  0  0
  -18.0375  -28.1451   22.8442 C   0  0  0  0  0  0
  -24.1500  -36.7052   23.2666 C   0  0  0  0  0  0
  -26.1560  -30.3613   21.4465 C   0  0  0  0  0  0
  -26.2142  -28.8890   20.7958 C   0  0  0  0  0  0
  -27.2875  -27.7930   20.8155 C   0  0  0  0  0  0
  -26.0189  -26.3578   19.4865 C   0  0  0  0  0  0
  -24.9861  -27.3689   19.4427 C   0  0  0  0  0  0
  -23.8341  -29.6005   20.1355 C   0  0  0  0  0  0
  -25.4173  -36.2764   24.0246 C   0  0  1  0  0  0
  -20.6024  -28.3824   23.1095 C   0  0  2  0  0  0
  -20.6813  -26.9445   22.5431 C   0  0  0  0  0  0
  -19.5777  -26.6356   21.5247 C   0  0  0  0  0  0
  -18.1964  -26.7968   22.1638 C   0  0  0  0  0  0
  -19.1647  -28.8968   23.2728 C   0  0  0  0  0  0
  -18.9536  -30.1550   23.8777 C   0  0  0  0  0  0
  -17.6516  -30.6614   24.0542 C   0  0  0  0  0  0
  -25.9176  -34.9180   23.4859 C   0  0  0  0  0  0
  -16.5407  -29.9081   23.6356 C   0  0  0  0  0  0
  -16.7351  -28.6515   23.0376 C   0  0  0  0  0  0
  -26.4631  -31.6473   25.0705 C   0  0  0  0  0  0
  -25.3581  -31.3935   26.1253 C   0  0  0  0  0  0
  -27.0607  -30.2755   24.6905 C   0  0  0  0  0  0
  -27.6009  -32.4449   25.7538 C   0  0  0  0  0  0
  -27.5553  -37.1675   24.8457 C   0  0  0  0  0  0
  -21.4559  -29.2974   22.3360 N   0  0  0  0  0  0
  -26.4259  -37.3569   23.9404 N   0  0  0  0  0  0
  -24.8402  -30.8636   22.0677 N   0  0  0  0  0  0
  -23.4200  -28.7769   23.3188 O   0  0  0  0  0  0
  -28.1442  -24.9508   20.3501 O   0  0  0  0  0  0
  -26.5902  -34.8829   22.4534 O   0  0  0  0  0  0
  -23.6129  -32.0849   23.5905 O   0  0  0  0  0  0
  -30.8893  -19.9413   19.7283 C   0  0  0  0  0  0
  -31.4251  -21.2512   19.9085 C   0  0  0  0  0  0
  -29.5535  -19.6118   20.1777 C   0  0  0  0  0  0
  -28.8384  -21.1967   20.5601 C   0  0  0  0  0  0
  -30.8538  -22.0513   20.9086 C   0  0  0  0  0  0
  -36.1995  -15.6974   21.9663 C   0  0  0  0  0  0
  -32.7280  -21.6958   19.2348 C   0  0  0  0  0  0
  -35.6842  -14.4179   21.3140 C   0  0  0  0  0  0
  -36.3256  -15.8685   25.1211 C   0  0  0  0  0  0
  -39.5310  -21.2445   18.0424 C   0  0  0  0  0  0
  -38.2436  -21.0573   20.1937 C   0  0  0  0  0  0
  -33.8822  -15.6829   23.1733 C   0  0  0  0  0  0
  -31.9559  -18.8861   19.4093 C   0  0  0  0  0  0
  -28.1652  -23.0410   19.9647 C   0  0  0  0  0  0
  -35.7847  -16.9556   24.1669 C   0  0  0  0  0  0
  -32.7967  -18.6771   20.7061 C   0  0  0  0  0  0
  -33.9555  -17.6587   20.7196 C   0  0  0  0  0  0
  -39.0475  -17.9491   20.0845 C   0  0  0  0  0  0
  -38.5546  -16.5295   19.7358 C   0  0  0  0  0  0
  -38.9410  -18.9449   18.9181 C   0  0  0  0  0  0
  -34.7731  -17.7902   22.0345 C   0  0  0  0  0  0
  -38.4233  -15.6299   20.9806 C   0  0  0  0  0  0
  -39.3090  -20.3965   19.3012 C   0  0  0  0  0  0
  -35.1643  -16.4910   22.8092 C   0  0  1  0  0  0
  -29.6647  -21.7839   21.4424 N   0  0  0  0  0  0
  -37.3876  -16.1668   21.8561 N   0  0  0  0  0  0
  -31.5119  -23.1545   21.4230 N   0  0  0  0  0  0
  -29.4205  -17.7189   20.3620 N   0  0  0  0  0  0
  -31.3220  -13.8213   19.1161 H   0  0  0  0  0  0
  -30.6754  -12.7469   20.2859 H   0  0  0  0  0  0
  -30.1446  -11.9992   17.9358 H   0  0  0  0  0  0
  -29.4466  -13.5536   17.5859 H   0  0  0  0  0  0
  -28.3171  -11.3865   19.3547 H   0  0  0  0  0  0
  -27.5403  -12.1630   17.9855 H   0  0  0  0  0  0
  -27.3767  -14.2188   19.1657 H   0  0  0  0  0  0
  -28.9471  -13.1200   21.5420 H   0  0  0  0  0  0
  -28.0277  -14.5895   21.5765 H   0  0  0  0  0  0
  -25.2893   -9.5657   22.4704 H   0  0  0  0  0  0
  -24.0046   -7.4677   22.7502 H   0  0  0  0  0  0
  -21.0900   -8.8868   19.8988 H   0  0  0  0  0  0
  -22.3855  -10.9694   19.6132 H   0  0  0  0  0  0
  -21.2048   -7.6174   23.9733 H   0  0  0  0  0  0
  -21.1463   -6.0523   25.9065 H   0  0  0  0  0  0
  -22.0605   -2.7639   23.2810 H   0  0  0  0  0  0
  -22.4090  -11.9835   22.4875 H   0  0  0  0  0  0
  -21.0998  -13.1118   22.2615 H   0  0  0  0  0  0
  -24.6016  -15.8538   20.5495 H   0  0  0  0  0  0
  -26.2259  -15.6701   20.1299 H   0  0  0  0  0  0
  -26.7744  -32.4632   23.0674 H   0  0  0  0  0  0
  -24.9858  -33.9087   24.9686 H   0  0  0  0  0  0
  -22.9057  -31.1809   21.2621 H   0  0  0  0  0  0
  -23.3776  -35.9353   23.3248 H   0  0  0  0  0  0
  -24.3531  -36.8832   22.2086 H   0  0  0  0  0  0
  -23.7222  -37.6179   23.6841 H   0  0  0  0  0  0
  -26.4125  -31.0640   20.6517 H   0  0  0  0  0  0
  -26.9872  -30.4301   22.1362 H   0  0  0  0  0  0
  -28.1683  -28.0247   21.3994 H   0  0  0  0  0  0
  -25.7930  -25.4468   18.9487 H   0  0  0  0  0  0
  -24.0962  -27.1310   18.8779 H   0  0  0  0  0  0
  -24.0332  -30.3430   19.3620 H   0  0  0  0  0  0
  -22.9312  -29.0805   19.8111 H   0  0  0  0  0  0
  -25.1391  -36.1475   25.0725 H   0  0  0  0  0  0
  -21.0090  -28.3475   24.1230 H   0  0  0  0  0  0
  -20.5652  -26.2453   23.3730 H   0  0  0  0  0  0
  -21.6668  -26.7317   22.1248 H   0  0  0  0  0  0
  -19.6916  -25.6234   21.1335 H   0  0  0  0  0  0
  -19.6724  -27.3119   20.6733 H   0  0  0  0  0  0
  -17.4235  -26.6732   21.4039 H   0  0  0  0  0  0
  -18.0319  -26.0163   22.9073 H   0  0  0  0  0  0
  -19.8016  -30.7414   24.2084 H   0  0  0  0  0  0
  -17.5059  -31.6285   24.5173 H   0  0  0  0  0  0
  -15.5401  -30.2934   23.7757 H   0  0  0  0  0  0
  -15.8764  -28.0785   22.7151 H   0  0  0  0  0  0
  -24.5752  -30.7338   25.7501 H   0  0  0  0  0  0
  -24.8815  -32.3229   26.4397 H   0  0  0  0  0  0
  -25.7641  -30.9223   27.0218 H   0  0  0  0  0  0
  -26.3389  -29.6259   24.1956 H   0  0  0  0  0  0
  -27.3902  -29.7371   25.5797 H   0  0  0  0  0  0
  -27.9424  -30.3761   24.0576 H   0  0  0  0  0  0
  -27.2468  -33.3841   26.1810 H   0  0  0  0  0  0
  -28.3954  -32.6896   25.0472 H   0  0  0  0  0  0
  -28.0547  -31.8813   26.5702 H   0  0  0  0  0  0
  -28.2517  -38.0026   24.7516 H   0  0  0  0  0  0
  -28.1115  -36.2534   24.6275 H   0  0  0  0  0  0
  -27.2278  -37.1286   25.8869 H   0  0  0  0  0  0
  -20.9984  -29.8514   21.6246 H   0  0  0  0  0  0
  -26.0047  -38.2604   24.1413 H   0  0  0  0  0  0
  -32.7628  -21.3543   18.1996 H   0  0  0  0  0  0
  -33.6000  -21.3028   19.7512 H   0  0  0  0  0  0
  -32.8238  -22.7812   19.2044 H   0  0  0  0  0  0
  -34.7127  -14.5841   20.8527 H   0  0  0  0  0  0
  -35.5831  -13.6368   22.0660 H   0  0  0  0  0  0
  -36.3221  -14.0319   20.5265 H   0  0  0  0  0  0
  -36.7574  -16.3275   26.0121 H   0  0  0  0  0  0
  -37.1138  -15.2743   24.6610 H   0  0  0  0  0  0
  -35.5413  -15.1897   25.4579 H   0  0  0  0  0  0
  -39.8263  -22.2650   18.2942 H   0  0  0  0  0  0
  -38.6194  -21.3009   17.4484 H   0  0  0  0  0  0
  -40.3110  -20.8162   17.4121 H   0  0  0  0  0  0
  -38.5282  -22.0751   20.4580 H   0  0  0  0  0  0
  -38.1027  -20.5172   21.1300 H   0  0  0  0  0  0
  -37.2743  -21.1130   19.6959 H   0  0  0  0  0  0
  -34.1113  -14.7527   23.6947 H   0  0  0  0  0  0
  -33.2701  -15.4146   22.3180 H   0  0  0  0  0  0
  -33.2318  -16.2611   23.8305 H   0  0  0  0  0  0
  -32.6040  -19.2252   18.6057 H   0  0  0  0  0  0
  -31.5383  -17.9870   18.9769 H   0  0  0  0  0  0
  -27.0938  -22.8430   19.9072 H   0  0  0  0  0  0
  -28.4600  -23.0407   18.9138 H   0  0  0  0  0  0
  -36.5795  -17.6762   23.9719 H   0  0  0  0  0  0
  -35.0273  -17.5161   24.7188 H   0  0  0  0  0  0
  -32.1187  -18.4490   21.5289 H   0  0  0  0  0  0
  -33.2341  -19.6319   20.9886 H   0  0  0  0  0  0
  -33.5821  -16.6512   20.5888 H   0  0  0  0  0  0
  -34.6140  -17.8152   19.8668 H   0  0  0  0  0  0
  -40.0802  -17.8909   20.4307 H   0  0  0  0  0  0
  -38.4722  -18.3307   20.9258 H   0  0  0  0  0  0
  -39.2563  -16.0733   19.0362 H   0  0  0  0  0  0
  -37.5956  -16.5689   19.2132 H   0  0  0  0  0  0
  -37.9338  -18.9204   18.4989 H   0  0  0  0  0  0
  -39.5933  -18.5983   18.1166 H   0  0  0  0  0  0
  -34.2204  -18.4180   22.7319 H   0  0  0  0  0  0
  -35.6700  -18.3775   21.8120 H   0  0  0  0  0  0
  -39.3755  -15.6075   21.5152 H   0  0  0  0  0  0
  -38.2634  -14.5982   20.6805 H   0  0  0  0  0  0
  -40.2537  -20.3805   19.8488 H   0  0  0  0  0  0
  -32.2601  -23.5578   20.8751 H   0  0  0  0  0  0
  -31.0008  -23.8255   21.9829 H   0  0  0  0  0  0
  -28.4540  -17.5176   20.5782 H   0  0  0  0  0  0
  1 25  1  0  0  0
  1 30  2  0  0  0
  1 98  1  0  0  0
  2  3  1  0  0  0
  2 25  1  0  0  0
  2 99  1  0  0  0
  2100  1  0  0  0
  3  4  1  0  0  0
  3101  1  0  0  0
  3102  1  0  0  0
  4  5  1  0  0  0
  4103  1  0  0  0
  4104  1  0  0  0
  5  6  1  0  0  0
  5 26  1  0  0  0
  5105  1  0  0  0
  6 25  1  0  0  0
  6106  1  0  0  0
  6107  1  0  0  0
  7  8  2  0  0  0
  7 26  1  0  0  0
  7 29  1  0  0  0
  8  9  1  0  0  0
  8 22  1  0  0  0
  9 10  1  0  0  0
  9 27  2  0  0  0
 10 11  2  0  0  0
 10 15  1  0  0  0
 11 12  1  0  0  0
 11108  1  0  0  0
 12 13  2  0  0  0
 12109  1  0  0  0
 13 14  1  0  0  0
 13 31  1  0  0  0
 14 15  2  0  0  0
 14110  1  0  0  0
 15111  1  0  0  0
 16 17  2  0  0  0
 16 21  1  0  0  0
 16 31  1  0  0  0
 17 18  1  0  0  0
 17112  1  0  0  0
 18 19  2  0  0  0
 18113  1  0  0  0
 19 20  1  0  0  0
 19 24  1  0  0  0
 20 21  2  0  0  0
 20114  1  0  0  0
 21 23  1  0  0  0
 22 28  1  0  0  0
 22 32  2  0  0  0
 26 27  1  0  0  0
 28115  1  0  0  0
 28116  1  0  0  0
 29117  1  0  0  0
 29118  1  0  0  0
 33 34  1  0  0  0
 33 66  1  0  0  0
 33 70  2  0  0  0
 34 36  1  0  0  0
 34 59  1  0  0  0
 34119  1  0  0  0
 35 44  2  0  0  0
 35 45  1  0  0  0
 35 68  1  0  0  0
 36 56  1  0  0  0
 36120  1  0  0  0
 37 39  1  0  0  0
 37 47  1  0  0  0
 37 66  1  0  0  0
 37121  1  0  0  0
 38 43  2  0  0  0
 38 46  1  0  0  0
 38 47  1  0  0  0
 39 64  1  0  0  0
 39 67  2  0  0  0
 40 52  1  0  0  0
 40 53  2  0  0  0
 40 58  1  0  0  0
 41122  1  0  0  0
 41123  1  0  0  0
 41124  1  0  0  0
 41 48  1  0  0  0
 42 43  1  0  0  0
 42 66  1  0  0  0
 42125  1  0  0  0
 42126  1  0  0  0
 43 44  1  0  0  0
 44127  1  0  0  0
 45 46  2  0  0  0
 45128  1  0  0  0
 46129  1  0  0  0
 47130  1  0  0  0
 47131  1  0  0  0
 48 56  1  0  0  0
 48 65  1  0  0  0
 48132  1  0  0  0
 49 50  1  0  0  0
 49 53  1  0  0  0
 49 64  1  0  0  0
 49133  1  0  0  0
 50 51  1  0  0  0
 50134  1  0  0  0
 50135  1  0  0  0
 51 52  1  0  0  0
 51136  1  0  0  0
 51137  1  0  0  0
 52138  1  0  0  0
 52139  1  0  0  0
 53 54  1  0  0  0
 54 55  2  0  0  0
 54140  1  0  0  0
 55 57  1  0  0  0
 55141  1  0  0  0
 56 69  2  0  0  0
 57 58  2  0  0  0
 57142  1  0  0  0
 58143  1  0  0  0
 59 60  1  0  0  0
 59 61  1  0  0  0
 59 62  1  0  0  0
 60144  1  0  0  0
 60145  1  0  0  0
 60146  1  0  0  0
 61147  1  0  0  0
 61148  1  0  0  0
 61149  1  0  0  0
 62150  1  0  0  0
 62151  1  0  0  0
 62152  1  0  0  0
 63 65  1  0  0  0
 63153  1  0  0  0
 63154  1  0  0  0
 63155  1  0  0  0
 64156  1  0  0  0
 65157  1  0  0  0
 68 84  1  0  0  0
 71 72  2  0  0  0
 71 73  1  0  0  0
 71 83  1  0  0  0
 72 75  1  0  0  0
 72 77  1  0  0  0
 73 74  2  0  0  0
 73 98  1  0  0  0
 74 84  1  0  0  0
 74 95  1  0  0  0
 75 95  2  0  0  0
 75 97  1  0  0  0
 76 78  1  0  0  0
 76 96  2  0  0  0
 76 94  1  0  0  0
 77158  1  0  0  0
 77159  1  0  0  0
 77160  1  0  0  0
 78161  1  0  0  0
 78162  1  0  0  0
 78163  1  0  0  0
 79 85  1  0  0  0
 79164  1  0  0  0
 79165  1  0  0  0
 79166  1  0  0  0
 80167  1  0  0  0
 80168  1  0  0  0
 80169  1  0  0  0
 80 93  1  0  0  0
 81 93  1  0  0  0
 81170  1  0  0  0
 81171  1  0  0  0
 81172  1  0  0  0
 82173  1  0  0  0
 82174  1  0  0  0
 82175  1  0  0  0
 82 94  1  0  0  0
 83 86  1  0  0  0
 83176  1  0  0  0
 83177  1  0  0  0
 84178  1  0  0  0
 84179  1  0  0  0
 85 94  1  0  0  0
 85180  1  0  0  0
 85181  1  0  0  0
 86 87  1  0  0  0
 86182  1  0  0  0
 86183  1  0  0  0
 87 91  1  0  0  0
 87184  1  0  0  0
 87185  1  0  0  0
 88 89  1  0  0  0
 88 90  1  0  0  0
 88186  1  0  0  0
 88187  1  0  0  0
 89 92  1  0  0  0
 89188  1  0  0  0
 89189  1  0  0  0
 90 93  1  0  0  0
 90190  1  0  0  0
 90191  1  0  0  0
 91 94  1  0  0  0
 91192  1  0  0  0
 91193  1  0  0  0
 92 96  1  0  0  0
 92194  1  0  0  0
 92195  1  0  0  0
 93196  1  0  0  0
 97197  1  0  0  0
 97198  1  0  0  0
 98199  1  0  0  0
M  ISO  4   1 100  68 101  84 101  98 100
M  END
> <chiral flag>
0

> <version>
0

> <s_m_source_file>
/data/baiqing/PycharmProjects/Reinvent-master-3.2/result/LINK_invent/BTK/process_docking_weight1_custom_sum_contain_oxygen_bond_distance_aromatic_linkinvent_7_9_3/rearranged_h_0020.sdf

> <i_m_source_file_index>
29

> <r_mmod_Potential_Energy-OPLS-2005>
4802.07958984375

> <r_mmod_Stretch_Energy-OPLS-2005>
2163.18212890625

> <r_mmod_Bend_Energy-OPLS-2005>
1040.29089355469

> <r_mmod_Torsional_Energy-OPLS-2005>
468.604827880859

> <r_mmod_Improper_Torsional_Energy-OPLS-2005>
18.4152069091797

> <r_mmod_Van_der_Waal_Energy-OPLS-2005>
180.09716796875

> <r_mmod_Electrostatic_Energy-OPLS-2005>
-703.306030273438

> <r_mmod_Solvation_Energy-OPLS-2005>
-221.803115844727

> <b_mmod_Minimization_Converged-OPLS-2005>
0

> <r_mmod_RMS_Derivative-OPLS-2005>
5.8419828414917

$$$$
29
                    3D
 Structure written by MMmdl.
164172  0  0  1  0            999 V2000
  -30.7157  -14.4879   20.5800 C   0  0  0  0  0  0
  -30.4189  -12.3223   19.4339 C   0  0  0  0  0  0
  -29.4973  -12.5128   18.2128 C   0  0  0  0  0  0
  -28.0202  -12.3641   18.6236 C   0  0  0  0  0  0
  -27.6599  -13.2091   19.8749 C   0  0  2  0  0  0
  -28.7009  -13.0223   21.0016 C   0  0  0  0  0  0
  -25.2589  -13.8187   20.5673 C   0  0  0  0  0  0
  -24.1855  -13.0456   20.9160 C   0  0  0  0  0  0
  -24.6405  -11.6922   20.8743 C   0  0  0  0  0  0
  -23.9071  -10.4301   21.0426 C   0  0  0  0  0  0
  -24.3613   -9.4198   21.9192 C   0  0  0  0  0  0
  -23.6285   -8.2239   22.0755 C   0  0  0  0  0  0
  -22.4265   -8.0289   21.3546 C   0  0  0  0  0  0
  -21.9910   -9.0272   20.4652 C   0  0  0  0  0  0
  -22.7250  -10.2143   20.3064 C   0  0  0  0  0  0
  -21.6851   -6.0737   22.5276 C   0  0  0  0  0  0
  -21.4029   -6.5630   23.8217 C   0  0  0  0  0  0
  -21.3650   -5.6773   24.9168 C   0  0  0  0  0  0
  -21.6052   -4.3043   24.7207 C   0  0  0  0  0  0
  -21.8822   -3.8137   23.4320 C   0  0  0  0  0  0
  -21.9193   -4.6968   22.3386 C   0  0  0  0  0  0
  -22.7872  -13.5261   21.1811 C   0  0  0  0  0  0
  -22.1673   -4.2145   21.0967 F   0  0  0  0  0  0
  -21.5598   -3.4526   25.7717 F   0  0  0  0  0  0
  -30.0299  -13.3193   20.4469 N   0  0  0  0  0  0
  -26.3029  -12.9351   20.3385 N   0  0  0  0  0  0
  -25.9334  -11.6514   20.5778 N   0  0  0  0  0  0
  -22.0500  -12.8284   22.0380 N   0  0  0  0  0  0
  -25.4309  -15.1914   20.4065 N   0  0  0  0  0  0
  -31.8345  -14.6495   20.0866 O   0  0  0  0  0  0
  -21.6627   -6.8889   21.4242 O   0  0  0  0  0  0
  -22.3571  -14.5569   20.6649 O   0  0  0  0  0  0
  -24.6173  -31.8658   23.2081 C   0  0  0  0  0  0
  -25.9066  -32.4805   23.8385 C   0  0  1  0  0  0
  -27.2337  -27.4126   20.0952 C   0  0  0  0  0  0
  -25.5922  -33.8605   24.2319 N   0  0  0  0  0  0
  -23.4061  -30.4907   21.5467 C   0  0  2  0  0  0
  -24.8512  -28.9510   20.1175 C   0  0  0  0  0  0
  -22.7422  -29.4667   22.4952 C   0  0  0  0  0  0
  -18.0285  -28.1337   22.8494 C   0  0  0  0  0  0
  -24.1478  -36.7301   23.2639 C   0  0  0  0  0  0
  -25.9367  -30.8244   21.3650 C   0  0  0  0  0  0
  -26.0111  -29.4563   20.7134 C   0  0  0  0  0  0
  -27.2028  -28.6933   20.6984 C   0  0  0  0  0  0
  -26.0437  -26.9220   19.5091 C   0  0  0  0  0  0
  -24.8618  -27.6835   19.5148 C   0  0  0  0  0  0
  -23.6164  -29.8200   20.1625 C   0  0  0  0  0  0
  -25.4097  -36.3096   24.0345 C   0  0  1  0  0  0
  -20.5869  -28.3659   23.1248 C   0  0  2  0  0  0
  -20.6791  -26.9389   22.5373 C   0  0  0  0  0  0
  -19.5725  -26.6246   21.5246 C   0  0  0  0  0  0
  -18.1950  -26.7830   22.1715 C   0  0  0  0  0  0
  -19.1527  -28.8822   23.2869 C   0  0  0  0  0  0
  -18.9450  -30.1415   23.8913 C   0  0  0  0  0  0
  -17.6460  -30.6560   24.0559 C   0  0  0  0  0  0
  -25.9037  -34.9463   23.5124 C   0  0  0  0  0  0
  -16.5364  -29.9060   23.6287 C   0  0  0  0  0  0
  -16.7280  -28.6448   23.0362 C   0  0  0  0  0  0
  -26.4486  -31.6602   25.0735 C   0  0  0  0  0  0
  -25.3743  -31.3731   26.1481 C   0  0  0  0  0  0
  -27.0336  -30.3041   24.6138 C   0  0  0  0  0  0
  -27.6058  -32.4328   25.7483 C   0  0  0  0  0  0
  -27.5574  -37.1802   24.8458 C   0  0  0  0  0  0
  -21.4154  -29.3053   22.3686 N   0  0  0  0  0  0
  -26.4276  -37.3801   23.9421 N   0  0  0  0  0  0
  -24.6716  -31.0756   22.0970 N   0  0  0  0  0  0
  -23.4186  -28.8241   23.3013 O   0  0  0  0  0  0
  -28.4208  -26.6974   20.1029 O   0  0  0  0  0  0
  -26.5578  -34.8905   22.4670 O   0  0  0  0  0  0
  -23.5369  -32.1411   23.7466 O   0  0  0  0  0  0
  -29.3861  -20.4845   21.8412 C   0  0  0  0  0  0
  -27.8692  -19.4441   20.2616 C   0  0  0  0  0  0
  -29.7395  -18.1260   21.2123 C   0  0  0  0  0  0
  -28.2712  -20.5972   20.9918 C   0  0  0  0  0  0
  -30.0921  -19.2707   21.9673 C   0  0  0  0  0  0
  -28.6413  -18.2456   20.3164 C   0  0  0  0  0  0
  -26.5883  -19.4498   19.4395 C   0  0  0  0  0  0
  -26.5125  -22.8876   18.9894 C   0  0  0  0  0  0
  -26.6231  -22.0116   22.0914 C   0  0  0  0  0  0
  -30.6371  -16.8697   21.3595 C   0  0  0  0  0  0
  -27.9933  -24.2626   20.5424 C   0  0  0  0  0  0
  -28.4770  -25.3645   19.5541 C   0  0  0  0  0  0
  -27.7342  -22.8478   19.9330 C   0  0  1  0  0  0
  -30.0750  -15.5093   21.1862 N   0  0  0  0  0  0
  -27.5514  -21.8196   20.9796 N   0  0  0  0  0  0
  -31.1379  -19.2214   22.8269 F   0  0  0  0  0  0
  -28.2417  -16.9513   19.2369 Cl  0  0  0  0  0  0
  -31.4639  -12.4125   19.1313 H   0  0  0  0  0  0
  -30.3172  -11.3146   19.8402 H   0  0  0  0  0  0
  -29.7450  -11.7876   17.4352 H   0  0  0  0  0  0
  -29.6604  -13.4993   17.7771 H   0  0  0  0  0  0
  -27.8437  -11.3075   18.8288 H   0  0  0  0  0  0
  -27.3679  -12.6244   17.7895 H   0  0  0  0  0  0
  -27.6947  -14.2493   19.5613 H   0  0  0  0  0  0
  -28.6817  -11.9992   21.3802 H   0  0  0  0  0  0
  -28.4562  -13.6542   21.8560 H   0  0  0  0  0  0
  -25.2753   -9.5653   22.4766 H   0  0  0  0  0  0
  -23.9973   -7.4626   22.7482 H   0  0  0  0  0  0
  -21.0830   -8.8819   19.8956 H   0  0  0  0  0  0
  -22.3745  -10.9686   19.6162 H   0  0  0  0  0  0
  -21.2060   -7.6143   23.9729 H   0  0  0  0  0  0
  -21.1469   -6.0495   25.9077 H   0  0  0  0  0  0
  -22.0616   -2.7600   23.2821 H   0  0  0  0  0  0
  -22.4077  -11.9935   22.4780 H   0  0  0  0  0  0
  -21.1142  -13.1364   22.2580 H   0  0  0  0  0  0
  -24.6624  -15.8444   20.5043 H   0  0  0  0  0  0
  -26.2859  -15.6296   20.0847 H   0  0  0  0  0  0
  -26.7150  -32.5523   23.1166 H   0  0  0  0  0  0
  -25.0138  -33.9743   25.0513 H   0  0  0  0  0  0
  -22.6974  -31.3073   21.4033 H   0  0  0  0  0  0
  -23.3735  -35.9639   23.3304 H   0  0  0  0  0  0
  -24.3583  -36.8900   22.2052 H   0  0  0  0  0  0
  -23.7210  -37.6505   23.6646 H   0  0  0  0  0  0
  -26.0583  -31.5906   20.5983 H   0  0  0  0  0  0
  -26.8239  -30.8764   21.9843 H   0  0  0  0  0  0
  -28.1007  -29.0817   21.1584 H   0  0  0  0  0  0
  -25.9890  -25.9485   19.0495 H   0  0  0  0  0  0
  -23.9662  -27.2848   19.0597 H   0  0  0  0  0  0
  -23.7279  -30.5893   19.3967 H   0  0  0  0  0  0
  -22.7418  -29.2374   19.8692 H   0  0  0  0  0  0
  -25.1273  -36.1968   25.0845 H   0  0  0  0  0  0
  -20.9974  -28.3205   24.1368 H   0  0  0  0  0  0
  -20.5772  -26.2279   23.3593 H   0  0  0  0  0  0
  -21.6623  -26.7435   22.1118 H   0  0  0  0  0  0
  -19.6892  -25.6091   21.1422 H   0  0  0  0  0  0
  -19.6610  -27.2962   20.6708 H   0  0  0  0  0  0
  -17.4166  -26.6469   21.4209 H   0  0  0  0  0  0
  -18.0425  -26.0053   22.9202 H   0  0  0  0  0  0
  -19.7950  -30.7185   24.2299 H   0  0  0  0  0  0
  -17.5010  -31.6247   24.5183 H   0  0  0  0  0  0
  -15.5368  -30.2973   23.7563 H   0  0  0  0  0  0
  -15.8669  -28.0760   22.7098 H   0  0  0  0  0  0
  -24.5868  -30.7154   25.7798 H   0  0  0  0  0  0
  -24.9017  -32.2925   26.4962 H   0  0  0  0  0  0
  -25.8074  -30.8849   27.0220 H   0  0  0  0  0  0
  -26.2916  -29.6779   24.1178 H   0  0  0  0  0  0
  -27.4095  -29.7296   25.4609 H   0  0  0  0  0  0
  -27.8753  -30.4343   23.9317 H   0  0  0  0  0  0
  -27.2679  -33.3599   26.2107 H   0  0  0  0  0  0
  -28.3846  -32.6927   25.0310 H   0  0  0  0  0  0
  -28.0776  -31.8442   26.5354 H   0  0  0  0  0  0
  -28.2586  -38.0102   24.7545 H   0  0  0  0  0  0
  -28.1078  -36.2647   24.6260 H   0  0  0  0  0  0
  -27.2314  -37.1431   25.8862 H   0  0  0  0  0  0
  -20.9322  -29.8822   21.6928 H   0  0  0  0  0  0
  -26.0156  -38.2871   24.1467 H   0  0  0  0  0  0
  -29.6983  -21.3328   22.4307 H   0  0  0  0  0  0
  -25.8970  -20.2285   19.7594 H   0  0  0  0  0  0
  -26.0521  -18.5087   19.5628 H   0  0  0  0  0  0
  -26.8091  -19.5825   18.3810 H   0  0  0  0  0  0
  -26.5951  -23.6716   18.2411 H   0  0  0  0  0  0
  -25.5884  -23.0746   19.5353 H   0  0  0  0  0  0
  -26.3907  -21.9637   18.4277 H   0  0  0  0  0  0
  -26.5402  -21.1177   22.7125 H   0  0  0  0  0  0
  -25.6253  -22.2598   21.7296 H   0  0  0  0  0  0
  -26.9601  -22.8304   22.7277 H   0  0  0  0  0  0
  -31.0734  -16.8721   22.3593 H   0  0  0  0  0  0
  -31.4755  -17.0288   20.6791 H   0  0  0  0  0  0
  -27.0800  -24.6060   21.0282 H   0  0  0  0  0  0
  -28.7419  -24.1772   21.3321 H   0  0  0  0  0  0
  -29.5209  -25.1638   19.3102 H   0  0  0  0  0  0
  -27.9728  -25.3310   18.5895 H   0  0  0  0  0  0
  -28.6100  -22.5762   19.3423 H   0  0  0  0  0  0
  -29.1607  -15.3240   21.5678 H   0  0  0  0  0  0
  1 25  1  0  0  0
  1 30  2  0  0  0
  1 84  1  0  0  0
  2  3  1  0  0  0
  2 25  1  0  0  0
  2 88  1  0  0  0
  2 89  1  0  0  0
  3  4  1  0  0  0
  3 90  1  0  0  0
  3 91  1  0  0  0
  4  5  1  0  0  0
  4 92  1  0  0  0
  4 93  1  0  0  0
  5  6  1  0  0  0
  5 26  1  0  0  0
  5 94  1  0  0  0
  6 25  1  0  0  0
  6 95  1  0  0  0
  6 96  1  0  0  0
  7  8  2  0  0  0
  7 26  1  0  0  0
  7 29  1  0  0  0
  8  9  1  0  0  0
  8 22  1  0  0  0
  9 10  1  0  0  0
  9 27  2  0  0  0
 10 11  2  0  0  0
 10 15  1  0  0  0
 11 12  1  0  0  0
 11 97  1  0  0  0
 12 13  2  0  0  0
 12 98  1  0  0  0
 13 14  1  0  0  0
 13 31  1  0  0  0
 14 15  2  0  0  0
 14 99  1  0  0  0
 15100  1  0  0  0
 16 17  2  0  0  0
 16 21  1  0  0  0
 16 31  1  0  0  0
 17 18  1  0  0  0
 17101  1  0  0  0
 18 19  2  0  0  0
 18102  1  0  0  0
 19 20  1  0  0  0
 19 24  1  0  0  0
 20 21  2  0  0  0
 20103  1  0  0  0
 21 23  1  0  0  0
 22 28  1  0  0  0
 22 32  2  0  0  0
 26 27  1  0  0  0
 28104  1  0  0  0
 28105  1  0  0  0
 29106  1  0  0  0
 29107  1  0  0  0
 33 34  1  0  0  0
 33 66  1  0  0  0
 33 70  2  0  0  0
 34 36  1  0  0  0
 34 59  1  0  0  0
 34108  1  0  0  0
 35 44  2  0  0  0
 35 45  1  0  0  0
 35 68  1  0  0  0
 36 56  1  0  0  0
 36109  1  0  0  0
 37 39  1  0  0  0
 37 47  1  0  0  0
 37 66  1  0  0  0
 37110  1  0  0  0
 38 43  2  0  0  0
 38 46  1  0  0  0
 38 47  1  0  0  0
 39 64  1  0  0  0
 39 67  2  0  0  0
 40 52  1  0  0  0
 40 53  2  0  0  0
 40 58  1  0  0  0
 41111  1  0  0  0
 41112  1  0  0  0
 41113  1  0  0  0
 41 48  1  0  0  0
 42 43  1  0  0  0
 42 66  1  0  0  0
 42114  1  0  0  0
 42115  1  0  0  0
 43 44  1  0  0  0
 44116  1  0  0  0
 45 46  2  0  0  0
 45117  1  0  0  0
 46118  1  0  0  0
 47119  1  0  0  0
 47120  1  0  0  0
 48 56  1  0  0  0
 48 65  1  0  0  0
 48121  1  0  0  0
 49 50  1  0  0  0
 49 53  1  0  0  0
 49 64  1  0  0  0
 49122  1  0  0  0
 50 51  1  0  0  0
 50123  1  0  0  0
 50124  1  0  0  0
 51 52  1  0  0  0
 51125  1  0  0  0
 51126  1  0  0  0
 52127  1  0  0  0
 52128  1  0  0  0
 53 54  1  0  0  0
 54 55  2  0  0  0
 54129  1  0  0  0
 55 57  1  0  0  0
 55130  1  0  0  0
 56 69  2  0  0  0
 57 58  2  0  0  0
 57131  1  0  0  0
 58132  1  0  0  0
 59 60  1  0  0  0
 59 61  1  0  0  0
 59 62  1  0  0  0
 60133  1  0  0  0
 60134  1  0  0  0
 60135  1  0  0  0
 61136  1  0  0  0
 61137  1  0  0  0
 61138  1  0  0  0
 62139  1  0  0  0
 62140  1  0  0  0
 62141  1  0  0  0
 63 65  1  0  0  0
 63142  1  0  0  0
 63143  1  0  0  0
 63144  1  0  0  0
 64145  1  0  0  0
 65146  1  0  0  0
 68 82  1  0  0  0
 71 74  2  0  0  0
 71 75  1  0  0  0
 71147  1  0  0  0
 72 74  1  0  0  0
 72 76  2  0  0  0
 72 77  1  0  0  0
 73 75  2  0  0  0
 73 76  1  0  0  0
 73 80  1  0  0  0
 74 85  1  0  0  0
 75 86  1  0  0  0
 76 87  1  0  0  0
 77148  1  0  0  0
 77149  1  0  0  0
 77150  1  0  0  0
 78151  1  0  0  0
 78152  1  0  0  0
 78153  1  0  0  0
 78 83  1  0  0  0
 79 85  1  0  0  0
 79154  1  0  0  0
 79155  1  0  0  0
 79156  1  0  0  0
 80 84  1  0  0  0
 80157  1  0  0  0
 80158  1  0  0  0
 81 82  1  0  0  0
 81 83  1  0  0  0
 81159  1  0  0  0
 81160  1  0  0  0
 82161  1  0  0  0
 82162  1  0  0  0
 83 85  1  0  0  0
 83163  1  0  0  0
 84164  1  0  0  0
M  ISO  4   1 100  68 101  82 101  84 100
M  END
> <chiral flag>
0

> <version>
0

> <s_m_source_file>
/data/baiqing/PycharmProjects/Reinvent-master-3.2/result/LINK_invent/BTK/process_docking_weight1_custom_sum_contain_oxygen_bond_distance_aromatic_linkinvent_7_9_3/rearranged_h_0020.sdf

> <i_m_source_file_index>
30

> <r_mmod_Potential_Energy-OPLS-2005>
-35.417064666748

> <r_mmod_Stretch_Energy-OPLS-2005>
46.0742874145508

> <r_mmod_Bend_Energy-OPLS-2005>
128.632995605469

> <r_mmod_Torsional_Energy-OPLS-2005>
225.263549804688

> <r_mmod_Improper_Torsional_Energy-OPLS-2005>
2.96510744094849

> <r_mmod_Van_der_Waal_Energy-OPLS-2005>
155.086181640625

> <r_mmod_Electrostatic_Energy-OPLS-2005>
-411.733825683594

> <r_mmod_Solvation_Energy-OPLS-2005>
-196.728927612305

> <b_mmod_Minimization_Converged-OPLS-2005>
0

> <r_mmod_RMS_Derivative-OPLS-2005>
3.48182940483093

$$$$
30
                    3D
 Structure written by MMmdl.
148155  0  0  1  0            999 V2000
  -30.2998  -15.5640   20.3667 C   0  0  0  0  0  0
  -30.4227  -13.0438   19.5238 C   0  0  0  0  0  0
  -29.5251  -12.6264   18.3239 C   0  0  0  0  0  0
  -28.1188  -12.2445   18.8148 C   0  0  0  0  0  0
  -27.5914  -13.2868   19.8238 C   0  0  2  0  0  0
  -28.6192  -13.5826   20.9402 C   0  0  0  0  0  0
  -25.2353  -13.8275   20.5856 C   0  0  0  0  0  0
  -24.1729  -13.0396   20.9377 C   0  0  0  0  0  0
  -24.6452  -11.6933   20.8900 C   0  0  0  0  0  0
  -23.9206  -10.4247   21.0500 C   0  0  0  0  0  0
  -24.3715   -9.4133   21.9260 C   0  0  0  0  0  0
  -23.6359   -8.2184   22.0772 C   0  0  0  0  0  0
  -22.4333   -8.0289   21.3563 C   0  0  0  0  0  0
  -22.0011   -9.0299   20.4683 C   0  0  0  0  0  0
  -22.7390  -10.2139   20.3144 C   0  0  0  0  0  0
  -21.6832   -6.0795   22.5291 C   0  0  0  0  0  0
  -21.3975   -6.5700   23.8231 C   0  0  0  0  0  0
  -21.3621   -5.6868   24.9187 C   0  0  0  0  0  0
  -21.6037   -4.3134   24.7244 C   0  0  0  0  0  0
  -21.8818   -3.8227   23.4376 C   0  0  0  0  0  0
  -21.9151   -4.7037   22.3410 C   0  0  0  0  0  0
  -22.7746  -13.5122   21.1968 C   0  0  0  0  0  0
  -22.1665   -4.2231   21.0994 F   0  0  0  0  0  0
  -21.5568   -3.4585   25.7741 F   0  0  0  0  0  0
  -29.7814  -14.2093   20.2733 N   0  0  0  0  0  0
  -26.2751  -12.9580   20.3320 N   0  0  0  0  0  0
  -25.9372  -11.6673   20.5884 N   0  0  0  0  0  0
  -22.0399  -12.8059   22.0532 N   0  0  0  0  0  0
  -25.4020  -15.2006   20.4337 N   0  0  0  0  0  0
  -31.5421  -15.5215   20.2569 O   0  0  0  0  0  0
  -21.6646   -6.8938   21.4259 O   0  0  0  0  0  0
  -22.3412  -14.5377   20.6752 O   0  0  0  0  0  0
  -24.6815  -31.8044   23.1558 C   0  0  0  0  0  0
  -25.9425  -32.4469   23.8074 C   0  0  1  0  0  0
  -27.1992  -26.7203   20.2060 C   0  0  0  0  0  0
  -25.6031  -33.8297   24.1981 N   0  0  0  0  0  0
  -23.5032  -30.4046   21.5113 C   0  0  2  0  0  0
  -24.9548  -28.7572   20.1102 C   0  0  0  0  0  0
  -22.7795  -29.4260   22.4740 C   0  0  0  0  0  0
  -18.0353  -28.1445   22.8475 C   0  0  0  0  0  0
  -24.1523  -36.7131   23.2645 C   0  0  0  0  0  0
  -26.0834  -30.5362   21.4201 C   0  0  0  0  0  0
  -26.1435  -29.1065   20.7672 C   0  0  0  0  0  0
  -27.2508  -28.1120   20.7862 C   0  0  0  0  0  0
  -25.9841  -26.5740   19.4908 C   0  0  0  0  0  0
  -24.9146  -27.5183   19.4487 C   0  0  0  0  0  0
  -23.7560  -29.7177   20.1413 C   0  0  0  0  0  0
  -25.4185  -36.2884   24.0275 C   0  0  1  0  0  0
  -20.5992  -28.3746   23.1226 C   0  0  2  0  0  0
  -20.6819  -26.9427   22.5449 C   0  0  0  0  0  0
  -19.5770  -26.6389   21.5278 C   0  0  0  0  0  0
  -18.1954  -26.7961   22.1666 C   0  0  0  0  0  0
  -19.1622  -28.8929   23.2818 C   0  0  0  0  0  0
  -18.9501  -30.1509   23.8870 C   0  0  0  0  0  0
  -17.6471  -30.6606   24.0557 C   0  0  0  0  0  0
  -25.9153  -34.9270   23.4944 C   0  0  0  0  0  0
  -16.5371  -29.9094   23.6341 C   0  0  0  0  0  0
  -16.7323  -28.6529   23.0338 C   0  0  0  0  0  0
  -26.4611  -31.6457   25.0671 C   0  0  0  0  0  0
  -25.3691  -31.3733   26.1291 C   0  0  0  0  0  0
  -27.0520  -30.2827   24.6455 C   0  0  0  0  0  0
  -27.6121  -32.4249   25.7462 C   0  0  0  0  0  0
  -27.5564  -37.1752   24.8493 C   0  0  0  0  0  0
  -21.4452  -29.3003   22.3569 N   0  0  0  0  0  0
  -26.4313  -37.3640   23.9385 N   0  0  0  0  0  0
  -24.7787  -30.9472   22.0828 N   0  0  0  0  0  0
  -23.4296  -28.7888   23.3043 O   0  0  0  0  0  0
  -28.1562  -25.5182   20.2968 O   0  0  0  0  0  0
  -26.5793  -34.8844   22.4574 O   0  0  0  0  0  0
  -23.5828  -32.1121   23.6535 O   0  0  0  0  0  0
  -29.9097  -20.8478   23.7664 C   0  0  0  0  0  0
  -29.9422  -19.9205   22.9688 C   0  0  0  0  0  0
  -29.8690  -18.6621   22.2038 C   0  0  0  0  0  0
  -28.8702  -22.1443   20.4200 C   0  0  0  0  0  0
  -28.7020  -20.2414   20.1913 C   0  0  0  0  0  0
  -27.9563  -23.7976   20.0961 C   0  0  0  0  0  0
  -29.6596  -18.6415   20.6520 C   0  0  2  0  0  0
  -29.5215  -16.9018   20.3876 N   0  0  0  0  0  0
  -31.4015  -13.3361   19.1411 H   0  0  0  0  0  0
  -30.6136  -12.1979   20.1837 H   0  0  0  0  0  0
  -29.9776  -11.7935   17.7834 H   0  0  0  0  0  0
  -29.4435  -13.4553   17.6209 H   0  0  0  0  0  0
  -28.1971  -11.2848   19.3306 H   0  0  0  0  0  0
  -27.4263  -12.0890   17.9863 H   0  0  0  0  0  0
  -27.4621  -14.1950   19.2360 H   0  0  0  0  0  0
  -28.8914  -12.6691   21.4775 H   0  0  0  0  0  0
  -28.2200  -14.2806   21.6806 H   0  0  0  0  0  0
  -25.2849   -9.5534   22.4859 H   0  0  0  0  0  0
  -24.0022   -7.4544   22.7471 H   0  0  0  0  0  0
  -21.0932   -8.8934   19.8999 H   0  0  0  0  0  0
  -22.3957  -10.9731   19.6276 H   0  0  0  0  0  0
  -21.2034   -7.6219   23.9760 H   0  0  0  0  0  0
  -21.1398   -6.0590   25.9077 H   0  0  0  0  0  0
  -22.0631   -2.7693   23.2858 H   0  0  0  0  0  0
  -22.4079  -11.9715   22.4932 H   0  0  0  0  0  0
  -21.1032  -13.1033   22.2828 H   0  0  0  0  0  0
  -24.6447  -15.8564   20.5985 H   0  0  0  0  0  0
  -26.2569  -15.6425   20.1272 H   0  0  0  0  0  0
  -26.7494  -32.4919   23.0773 H   0  0  0  0  0  0
  -25.0018  -33.9362   25.0013 H   0  0  0  0  0  0
  -22.8251  -31.2419   21.3356 H   0  0  0  0  0  0
  -23.3763  -35.9467   23.3321 H   0  0  0  0  0  0
  -24.3557  -36.8767   22.2040 H   0  0  0  0  0  0
  -23.7329  -37.6349   23.6708 H   0  0  0  0  0  0
  -26.2881  -31.2626   20.6319 H   0  0  0  0  0  0
  -26.9402  -30.5981   22.0822 H   0  0  0  0  0  0
  -28.1338  -28.3696   21.3536 H   0  0  0  0  0  0
  -25.8217  -25.6340   18.9843 H   0  0  0  0  0  0
  -24.0196  -27.2436   18.9076 H   0  0  0  0  0  0
  -23.9523  -30.4935   19.4002 H   0  0  0  0  0  0
  -22.8573  -29.2083   19.7882 H   0  0  0  0  0  0
  -25.1407  -36.1619   25.0755 H   0  0  0  0  0  0
  -21.0034  -28.3309   24.1361 H   0  0  0  0  0  0
  -20.5745  -26.2342   23.3680 H   0  0  0  0  0  0
  -21.6666  -26.7416   22.1220 H   0  0  0  0  0  0
  -19.6916  -25.6321   21.1287 H   0  0  0  0  0  0
  -19.6696  -27.3212   20.6823 H   0  0  0  0  0  0
  -17.4238  -26.6726   21.4049 H   0  0  0  0  0  0
  -18.0302  -26.0141   22.9097 H   0  0  0  0  0  0
  -19.7958  -30.7363   24.2206 H   0  0  0  0  0  0
  -17.5012  -31.6271   24.5201 H   0  0  0  0  0  0
  -15.5371  -30.2969   23.7684 H   0  0  0  0  0  0
  -15.8735  -28.0851   22.7025 H   0  0  0  0  0  0
  -24.5932  -30.7034   25.7567 H   0  0  0  0  0  0
  -24.8830  -32.2938   26.4526 H   0  0  0  0  0  0
  -25.7895  -30.9017   27.0187 H   0  0  0  0  0  0
  -26.3176  -29.6473   24.1521 H   0  0  0  0  0  0
  -27.4103  -29.7208   25.5077 H   0  0  0  0  0  0
  -27.9105  -30.4003   23.9858 H   0  0  0  0  0  0
  -27.2741  -33.3611   26.1896 H   0  0  0  0  0  0
  -28.4020  -32.6679   25.0346 H   0  0  0  0  0  0
  -28.0705  -31.8461   26.5489 H   0  0  0  0  0  0
  -28.2626  -37.9989   24.7440 H   0  0  0  0  0  0
  -28.1021  -36.2533   24.6475 H   0  0  0  0  0  0
  -27.2264  -37.1559   25.8887 H   0  0  0  0  0  0
  -20.9767  -29.8642   21.6648 H   0  0  0  0  0  0
  -26.0116  -38.2682   24.1350 H   0  0  0  0  0  0
  -29.7905  -21.6003   24.5160 H   0  0  0  0  0  0
  -29.0401  -18.1477   22.6914 H   0  0  0  0  0  0
  -30.7567  -18.0904   22.4805 H   0  0  0  0  0  0
  -29.8227  -22.3197   19.9197 H   0  0  0  0  0  0
  -29.1011  -22.2311   21.4803 H   0  0  0  0  0  0
  -28.5909  -20.1449   19.1144 H   0  0  0  0  0  0
  -27.6987  -20.0364   20.5606 H   0  0  0  0  0  0
  -26.9878  -23.6328   20.5660 H   0  0  0  0  0  0
  -27.7141  -23.7400   19.0329 H   0  0  0  0  0  0
  -30.6238  -18.8411   20.1878 H   0  0  0  0  0  0
  -28.5416  -16.6731   20.2962 H   0  0  0  0  0  0
  1 25  1  0  0  0
  1 30  2  0  0  0
  1 78  1  0  0  0
  2  3  1  0  0  0
  2 25  1  0  0  0
  2 79  1  0  0  0
  2 80  1  0  0  0
  3  4  1  0  0  0
  3 81  1  0  0  0
  3 82  1  0  0  0
  4  5  1  0  0  0
  4 83  1  0  0  0
  4 84  1  0  0  0
  5  6  1  0  0  0
  5 26  1  0  0  0
  5 85  1  0  0  0
  6 25  1  0  0  0
  6 86  1  0  0  0
  6 87  1  0  0  0
  7  8  2  0  0  0
  7 26  1  0  0  0
  7 29  1  0  0  0
  8  9  1  0  0  0
  8 22  1  0  0  0
  9 10  1  0  0  0
  9 27  2  0  0  0
 10 11  2  0  0  0
 10 15  1  0  0  0
 11 12  1  0  0  0
 11 88  1  0  0  0
 12 13  2  0  0  0
 12 89  1  0  0  0
 13 14  1  0  0  0
 13 31  1  0  0  0
 14 15  2  0  0  0
 14 90  1  0  0  0
 15 91  1  0  0  0
 16 17  2  0  0  0
 16 21  1  0  0  0
 16 31  1  0  0  0
 17 18  1  0  0  0
 17 92  1  0  0  0
 18 19  2  0  0  0
 18 93  1  0  0  0
 19 20  1  0  0  0
 19 24  1  0  0  0
 20 21  2  0  0  0
 20 94  1  0  0  0
 21 23  1  0  0  0
 22 28  1  0  0  0
 22 32  2  0  0  0
 26 27  1  0  0  0
 28 95  1  0  0  0
 28 96  1  0  0  0
 29 97  1  0  0  0
 29 98  1  0  0  0
 33 34  1  0  0  0
 33 66  1  0  0  0
 33 70  2  0  0  0
 34 36  1  0  0  0
 34 59  1  0  0  0
 34 99  1  0  0  0
 35 44  2  0  0  0
 35 45  1  0  0  0
 35 68  1  0  0  0
 36 56  1  0  0  0
 36100  1  0  0  0
 37 39  1  0  0  0
 37 47  1  0  0  0
 37 66  1  0  0  0
 37101  1  0  0  0
 38 43  2  0  0  0
 38 46  1  0  0  0
 38 47  1  0  0  0
 39 64  1  0  0  0
 39 67  2  0  0  0
 40 52  1  0  0  0
 40 53  2  0  0  0
 40 58  1  0  0  0
 41102  1  0  0  0
 41103  1  0  0  0
 41104  1  0  0  0
 41 48  1  0  0  0
 42 43  1  0  0  0
 42 66  1  0  0  0
 42105  1  0  0  0
 42106  1  0  0  0
 43 44  1  0  0  0
 44107  1  0  0  0
 45 46  2  0  0  0
 45108  1  0  0  0
 46109  1  0  0  0
 47110  1  0  0  0
 47111  1  0  0  0
 48 56  1  0  0  0
 48 65  1  0  0  0
 48112  1  0  0  0
 49 50  1  0  0  0
 49 53  1  0  0  0
 49 64  1  0  0  0
 49113  1  0  0  0
 50 51  1  0  0  0
 50114  1  0  0  0
 50115  1  0  0  0
 51 52  1  0  0  0
 51116  1  0  0  0
 51117  1  0  0  0
 52118  1  0  0  0
 52119  1  0  0  0
 53 54  1  0  0  0
 54 55  2  0  0  0
 54120  1  0  0  0
 55 57  1  0  0  0
 55121  1  0  0  0
 56 69  2  0  0  0
 57 58  2  0  0  0
 57122  1  0  0  0
 58123  1  0  0  0
 59 60  1  0  0  0
 59 61  1  0  0  0
 59 62  1  0  0  0
 60124  1  0  0  0
 60125  1  0  0  0
 60126  1  0  0  0
 61127  1  0  0  0
 61128  1  0  0  0
 61129  1  0  0  0
 62130  1  0  0  0
 62131  1  0  0  0
 62132  1  0  0  0
 63 65  1  0  0  0
 63133  1  0  0  0
 63134  1  0  0  0
 63135  1  0  0  0
 64136  1  0  0  0
 65137  1  0  0  0
 68 76  1  0  0  0
 71 72  3  0  0  0
 71138  1  0  0  0
 72 73  1  0  0  0
 73139  1  0  0  0
 73140  1  0  0  0
 73 77  1  0  0  0
 74 75  1  0  0  0
 74 76  1  0  0  0
 74141  1  0  0  0
 74142  1  0  0  0
 75 77  1  0  0  0
 75143  1  0  0  0
 75144  1  0  0  0
 76145  1  0  0  0
 76146  1  0  0  0
 77 78  1  0  0  0
 77147  1  0  0  0
 78148  1  0  0  0
M  ISO  4   1 100  68 101  76 101  78 100
M  END
> <chiral flag>
0

> <version>
0

> <s_m_source_file>
/data/baiqing/PycharmProjects/Reinvent-master-3.2/result/LINK_invent/BTK/process_docking_weight1_custom_sum_contain_oxygen_bond_distance_aromatic_linkinvent_7_9_3/rearranged_h_0020.sdf

> <i_m_source_file_index>
31

> <r_mmod_Potential_Energy-OPLS-2005>
2282.58813476562

> <r_mmod_Stretch_Energy-OPLS-2005>
1077.96081542969

> <r_mmod_Bend_Energy-OPLS-2005>
614.133544921875

> <r_mmod_Torsional_Energy-OPLS-2005>
207.056274414062

> <r_mmod_Improper_Torsional_Energy-OPLS-2005>
4.00747966766357

> <r_mmod_Van_der_Waal_Energy-OPLS-2005>
110.223945617676

> <r_mmod_Electrostatic_Energy-OPLS-2005>
-350.185241699219

> <r_mmod_Solvation_Energy-OPLS-2005>
-215.518646240234

> <b_mmod_Minimization_Converged-OPLS-2005>
0

> <r_mmod_RMS_Derivative-OPLS-2005>
9.96859359741211

$$$$
31
                    3D
 Structure written by MMmdl.
177185  0  0  1  0            999 V2000
  -29.3791  -18.0187   20.4054 C   0  0  0  0  0  0
  -30.0296  -14.8784   19.6023 C   0  0  0  0  0  0
  -29.5463  -13.6380   18.6001 C   0  0  0  0  0  0
  -28.4048  -12.7635   19.1106 C   0  0  0  0  0  0
  -27.5642  -13.7506   19.9122 C   0  0  2  0  0  0
  -28.3199  -14.9003   20.8628 C   0  0  0  0  0  0
  -25.1703  -13.9105   20.6106 C   0  0  0  0  0  0
  -24.1575  -13.0615   20.9357 C   0  0  0  0  0  0
  -24.6940  -11.7373   20.8658 C   0  0  0  0  0  0
  -23.9696  -10.4451   21.0171 C   0  0  0  0  0  0
  -24.3992   -9.4326   21.9072 C   0  0  0  0  0  0
  -23.6514   -8.2410   22.0722 C   0  0  0  0  0  0
  -22.4496   -8.0430   21.3516 C   0  0  0  0  0  0
  -22.0262   -9.0427   20.4581 C   0  0  0  0  0  0
  -22.7753  -10.2238   20.2915 C   0  0  0  0  0  0
  -21.6959   -6.0833   22.5265 C   0  0  0  0  0  0
  -21.4109   -6.5694   23.8214 C   0  0  0  0  0  0
  -21.3685   -5.6816   24.9156 C   0  0  0  0  0  0
  -21.6051   -4.3080   24.7195 C   0  0  0  0  0  0
  -21.8795   -3.8192   23.4308 C   0  0  0  0  0  0
  -21.9208   -4.7032   22.3376 C   0  0  0  0  0  0
  -22.7441  -13.4880   21.1940 C   0  0  0  0  0  0
  -22.1650   -4.2206   21.0952 F   0  0  0  0  0  0
  -21.5605   -3.4552   25.7695 F   0  0  0  0  0  0
  -29.1060  -16.2151   20.2137 N   0  0  0  0  0  0
  -26.2963  -13.1546   20.4094 N   0  0  0  0  0  0
  -26.0110  -11.8089   20.5678 N   0  0  0  0  0  0
  -22.0312  -12.7717   22.0543 N   0  0  0  0  0  0
  -25.2334  -15.2875   20.4332 N   0  0  0  0  0  0
  -30.6218  -17.5693   20.3495 O   0  0  0  0  0  0
  -21.6778   -6.9052   21.4256 O   0  0  0  0  0  0
  -22.2892  -14.5118   20.6833 O   0  0  0  0  0  0
  -24.9172  -31.5456   23.1136 C   0  0  0  0  0  0
  -26.0540  -32.3441   23.8314 C   0  0  1  0  0  0
  -25.9440  -24.8874   19.4855 C   0  0  0  0  0  0
  -25.6142  -33.7459   24.1320 N   0  0  0  0  0  0
  -24.0370  -30.0847   21.3982 C   0  0  2  0  0  0
  -26.4764  -28.5064   20.2214 C   0  0  0  0  0  0
  -23.0297  -29.3832   22.4891 C   0  0  0  0  0  0
  -17.9410  -28.3035   22.4129 C   0  0  0  0  0  0
  -24.1445  -36.6740   23.2717 C   0  0  0  0  0  0
  -26.1260  -29.1013   22.3549 C   0  0  0  0  0  0
  -26.3742  -27.5434   21.4386 C   0  0  0  0  0  0
  -25.5249  -25.2390   21.2380 C   0  0  0  0  0  0
  -26.7504  -26.0748   18.6112 C   0  0  0  0  0  0
  -26.9335  -27.6540   18.9741 C   0  0  0  0  0  0
  -25.0189  -29.5030   20.1402 C   0  0  0  0  0  0
  -25.4148  -36.2318   24.0156 C   0  0  1  0  0  0
  -20.8710  -28.2978   23.2916 C   0  0  2  0  0  0
  -20.9767  -26.2452   23.2437 C   0  0  0  0  0  0
  -19.2660  -25.3241   22.5154 C   0  0  0  0  0  0
  -17.7774  -26.5139   22.1190 C   0  0  0  0  0  0
  -19.2428  -29.0667   22.9662 C   0  0  0  0  0  0
  -19.0141  -30.2348   23.7106 C   0  0  0  0  0  0
  -17.7172  -30.7098   23.9652 C   0  0  0  0  0  0
  -25.9263  -34.8725   23.4643 C   0  0  0  0  0  0
  -16.5797  -30.0818   23.4311 C   0  0  0  0  0  0
  -16.6968  -28.9208   22.6565 C   0  0  0  0  0  0
  -26.4957  -31.6958   25.1993 C   0  0  0  0  0  0
  -25.3367  -31.5720   26.2231 C   0  0  0  0  0  0
  -27.0834  -30.2956   25.0088 C   0  0  0  0  0  0
  -27.6416  -32.5260   25.8260 C   0  0  0  0  0  0
  -27.5463  -37.1413   24.8386 C   0  0  0  0  0  0
  -21.7228  -29.1161   22.3791 N   0  0  0  0  0  0
  -26.4127  -37.3236   23.9393 N   0  0  0  0  0  0
  -25.1401  -30.4158   22.2534 N   0  0  0  0  0  0
  -23.4693  -29.0979   23.5867 O   0  0  0  0  0  0
  -25.7193  -23.7959   19.1316 O   0  0  0  0  0  0
  -26.6163  -34.8551   22.4430 O   0  0  0  0  0  0
  -23.7819  -32.0079   23.3724 O   0  0  0  0  0  0
  -24.9622  -26.7960   19.9517 C   0  0  0  0  0  0
  -27.5897  -25.4359   20.8442 C   0  0  0  0  0  0
  -23.9252  -26.9989   21.1704 C   0  0  0  0  0  0
  -26.0953  -26.1347   23.3857 C   0  0  0  0  0  0
  -27.4752  -25.6155   22.5225 C   0  0  0  0  0  0
  -24.5316  -26.6758   22.8298 C   0  0  0  0  0  0
  -26.3289  -25.9924   24.8817 C   0  0  0  0  0  0
  -17.6217  -27.0741   24.9257 C   0  0  0  0  0  0
  -22.5399  -26.5785   18.7486 C   0  0  0  0  0  0
  -21.9699  -28.5588   19.5859 C   0  0  0  0  0  0
  -28.3870  -22.7331   20.5686 C   0  0  0  0  0  0
  -19.0047  -26.9988   24.1083 C   0  0  0  0  0  0
  -23.0004  -24.0172   20.4025 C   0  0  0  0  0  0
  -19.9419  -27.2085   21.4245 C   0  0  0  0  0  0
  -21.5392  -24.8710   20.4263 C   0  0  0  0  0  0
  -24.1820  -23.5682   19.2542 C   0  0  0  0  0  0
  -22.4732  -27.1853   20.2537 C   0  0  0  0  0  0
  -28.6579  -20.0696   20.5121 N   0  0  0  0  0  0
  -21.3300  -26.4212   20.8142 N   0  3  1  0  0  0
  -28.4316  -25.0085   23.2672 F   0  0  0  0  0  0
  -23.6018  -26.5163   24.2811 Cl  0  0  0  0  0  0
  -30.8039  -15.3762   19.0214 H   0  0  0  0  0  0
  -30.6187  -14.4456   20.4117 H   0  0  0  0  0  0
  -30.4056  -13.0125   18.3566 H   0  0  0  0  0  0
  -29.2235  -14.0742   17.6508 H   0  0  0  0  0  0
  -28.7798  -11.9816   19.7693 H   0  0  0  0  0  0
  -27.8459  -12.2920   18.3034 H   0  0  0  0  0  0
  -27.1923  -14.3731   19.0948 H   0  0  0  0  0  0
  -28.9070  -14.4131   21.6406 H   0  0  0  0  0  0
  -27.5601  -15.3643   21.4864 H   0  0  0  0  0  0
  -25.3094   -9.5743   22.4747 H   0  0  0  0  0  0
  -24.0127   -7.4843   22.7535 H   0  0  0  0  0  0
  -21.1184   -8.9053   19.8892 H   0  0  0  0  0  0
  -22.4234  -10.9765   19.6002 H   0  0  0  0  0  0
  -21.2166   -7.6214   23.9751 H   0  0  0  0  0  0
  -21.1521   -6.0538   25.9066 H   0  0  0  0  0  0
  -22.0544   -2.7655   23.2793 H   0  0  0  0  0  0
  -22.4119  -11.9466   22.4957 H   0  0  0  0  0  0
  -21.0849  -13.0480   22.2744 H   0  0  0  0  0  0
  -24.4280  -15.8947   20.5314 H   0  0  0  0  0  0
  -26.0718  -15.7808   20.1547 H   0  0  0  0  0  0
  -26.9051  -32.3528   23.1523 H   0  0  0  0  0  0
  -24.9294  -33.8185   24.8715 H   0  0  0  0  0  0
  -23.5241  -30.9709   21.0234 H   0  0  0  0  0  0
  -23.3738  -35.9022   23.3101 H   0  0  0  0  0  0
  -24.3527  -36.8803   22.2211 H   0  0  0  0  0  0
  -23.7133  -37.5731   23.7122 H   0  0  0  0  0  0
  -27.1134  -29.5391   22.3552 H   0  0  0  0  0  0
  -25.9260  -28.7395   23.3494 H   0  0  0  0  0  0
  -25.1317  -24.5134   21.9409 H   0  0  0  0  0  0
  -27.1142  -25.7666   17.6403 H   0  0  0  0  0  0
  -27.3066  -28.2310   18.1414 H   0  0  0  0  0  0
  -25.4370  -30.4165   19.7224 H   0  0  0  0  0  0
  -24.4523  -29.1518   19.3031 H   0  0  0  0  0  0
  -25.1425  -36.0922   25.0644 H   0  0  0  0  0  0
  -21.1477  -28.6016   24.3087 H   0  0  0  0  0  0
  -21.1545  -25.8992   24.2723 H   0  0  0  0  0  0
  -21.8623  -25.7384   22.8916 H   0  0  0  0  0  0
  -18.9295  -24.5875   23.2533 H   0  0  0  0  0  0
  -19.2906  -24.6862   21.6472 H   0  0  0  0  0  0
  -17.4280  -26.3369   21.0978 H   0  0  0  0  0  0
  -16.8863  -26.1787   22.6511 H   0  0  0  0  0  0
  -19.8489  -30.7312   24.1934 H   0  0  0  0  0  0
  -17.5936  -31.5835   24.5793 H   0  0  0  0  0  0
  -15.6096  -30.5191   23.5994 H   0  0  0  0  0  0
  -15.7944  -28.4493   22.3038 H   0  0  0  0  0  0
  -24.4994  -30.9960   25.8333 H   0  0  0  0  0  0
  -24.9536  -32.5597   26.5041 H   0  0  0  0  0  0
  -25.6403  -31.0824   27.1485 H   0  0  0  0  0  0
  -26.2849  -29.5599   25.0993 H   0  0  0  0  0  0
  -27.7778  -30.0229   25.8037 H   0  0  0  0  0  0
  -27.6737  -30.2113   24.1103 H   0  0  0  0  0  0
  -27.3440  -33.5506   26.0542 H   0  0  0  0  0  0
  -28.4980  -32.5727   25.1528 H   0  0  0  0  0  0
  -28.0066  -32.1064   26.7675 H   0  0  0  0  0  0
  -28.2150  -37.9977   24.7531 H   0  0  0  0  0  0
  -28.1217  -36.2452   24.6014 H   0  0  0  0  0  0
  -27.2183  -37.0736   25.8766 H   0  0  0  0  0  0
  -21.2525  -29.5448   21.5933 H   0  0  0  0  0  0
  -25.9800  -38.2153   24.1621 H   0  0  0  0  0  0
  -24.7131  -27.0407   18.9345 H   0  0  0  0  0  0
  -25.7573  -25.1597   25.2902 H   0  0  0  0  0  0
  -26.0725  -26.9177   25.4052 H   0  0  0  0  0  0
  -27.3714  -25.7596   25.1021 H   0  0  0  0  0  0
  -17.8454  -27.0571   26.0056 H   0  0  0  0  0  0
  -16.9573  -26.2288   24.8020 H   0  0  0  0  0  0
  -17.0130  -27.9702   24.8663 H   0  0  0  0  0  0
  -23.0198  -27.1709   17.9653 H   0  0  0  0  0  0
  -21.5564  -26.3440   18.3273 H   0  0  0  0  0  0
  -23.0885  -25.6642   18.6440 H   0  0  0  0  0  0
  -22.5265  -28.9431   18.7315 H   0  0  0  0  0  0
  -21.7876  -29.4571   20.1374 H   0  0  0  0  0  0
  -20.9968  -28.3869   19.1198 H   0  0  0  0  0  0
  -29.3034  -22.8531   21.1514 H   0  0  0  0  0  0
  -28.6854  -22.8479   19.5296 H   0  0  0  0  0  0
  -19.2150  -26.0729   24.6594 H   0  0  0  0  0  0
  -19.4615  -27.6302   24.8708 H   0  0  0  0  0  0
  -22.5293  -23.0298   20.3878 H   0  0  0  0  0  0
  -23.3374  -23.9640   21.4241 H   0  0  0  0  0  0
  -19.8934  -28.1866   20.9325 H   0  0  0  0  0  0
  -19.3919  -26.7446   20.6024 H   0  0  0  0  0  0
  -21.1120  -24.2582   21.2032 H   0  0  0  0  0  0
  -20.9207  -24.6293   19.5655 H   0  0  0  0  0  0
  -23.7657  -23.7215   18.2609 H   0  0  0  0  0  0
  -24.1416  -22.4744   19.3085 H   0  0  0  0  0  0
  -27.6742  -19.8215   20.5024 H   0  0  0  0  0  0
  -21.6848  -26.3278   21.7517 H   0  0  0  0  0  0
  1 25  1  0  0  0
  1 30  2  0  0  0
  1 88  1  0  0  0
  2  3  1  0  0  0
  2 25  1  0  0  0
  2 92  1  0  0  0
  2 93  1  0  0  0
  3  4  1  0  0  0
  3 94  1  0  0  0
  3 95  1  0  0  0
  4  5  1  0  0  0
  4 96  1  0  0  0
  4 97  1  0  0  0
  5  6  1  0  0  0
  5 26  1  0  0  0
  5 98  1  0  0  0
  6 25  1  0  0  0
  6 99  1  0  0  0
  6100  1  0  0  0
  7  8  2  0  0  0
  7 26  1  0  0  0
  7 29  1  0  0  0
  8  9  1  0  0  0
  8 22  1  0  0  0
  9 10  1  0  0  0
  9 27  2  0  0  0
 10 11  2  0  0  0
 10 15  1  0  0  0
 11 12  1  0  0  0
 11101  1  0  0  0
 12 13  2  0  0  0
 12102  1  0  0  0
 13 14  1  0  0  0
 13 31  1  0  0  0
 14 15  2  0  0  0
 14103  1  0  0  0
 15104  1  0  0  0
 16 17  2  0  0  0
 16 21  1  0  0  0
 16 31  1  0  0  0
 17 18  1  0  0  0
 17105  1  0  0  0
 18 19  2  0  0  0
 18106  1  0  0  0
 19 20  1  0  0  0
 19 24  1  0  0  0
 20 21  2  0  0  0
 20107  1  0  0  0
 21 23  1  0  0  0
 22 28  1  0  0  0
 22 32  2  0  0  0
 26 27  1  0  0  0
 28108  1  0  0  0
 28109  1  0  0  0
 29110  1  0  0  0
 29111  1  0  0  0
 33 34  1  0  0  0
 33 66  1  0  0  0
 33 70  2  0  0  0
 34 36  1  0  0  0
 34 59  1  0  0  0
 34112  1  0  0  0
 35 44  2  0  0  0
 35 45  1  0  0  0
 35 68  1  0  0  0
 36 56  1  0  0  0
 36113  1  0  0  0
 37 39  1  0  0  0
 37 47  1  0  0  0
 37 66  1  0  0  0
 37114  1  0  0  0
 38 43  2  0  0  0
 38 46  1  0  0  0
 38 47  1  0  0  0
 39 64  1  0  0  0
 39 67  2  0  0  0
 40 52  1  0  0  0
 40 53  2  0  0  0
 40 58  1  0  0  0
 41115  1  0  0  0
 41116  1  0  0  0
 41117  1  0  0  0
 41 48  1  0  0  0
 42 43  1  0  0  0
 42 66  1  0  0  0
 42118  1  0  0  0
 42119  1  0  0  0
 43 44  1  0  0  0
 44120  1  0  0  0
 45 46  2  0  0  0
 45121  1  0  0  0
 46122  1  0  0  0
 47123  1  0  0  0
 47124  1  0  0  0
 48 56  1  0  0  0
 48 65  1  0  0  0
 48125  1  0  0  0
 49 50  1  0  0  0
 49 53  1  0  0  0
 49 64  1  0  0  0
 49126  1  0  0  0
 50 51  1  0  0  0
 50127  1  0  0  0
 50128  1  0  0  0
 51 52  1  0  0  0
 51129  1  0  0  0
 51130  1  0  0  0
 52131  1  0  0  0
 52132  1  0  0  0
 53 54  1  0  0  0
 54 55  2  0  0  0
 54133  1  0  0  0
 55 57  1  0  0  0
 55134  1  0  0  0
 56 69  2  0  0  0
 57 58  2  0  0  0
 57135  1  0  0  0
 58136  1  0  0  0
 59 60  1  0  0  0
 59 61  1  0  0  0
 59 62  1  0  0  0
 60137  1  0  0  0
 60138  1  0  0  0
 60139  1  0  0  0
 61140  1  0  0  0
 61141  1  0  0  0
 61142  1  0  0  0
 62143  1  0  0  0
 62144  1  0  0  0
 62145  1  0  0  0
 63 65  1  0  0  0
 63146  1  0  0  0
 63147  1  0  0  0
 63148  1  0  0  0
 64149  1  0  0  0
 65150  1  0  0  0
 68 86  1  0  0  0
 71 72  2  0  0  0
 71 73  1  0  0  0
 71151  1  0  0  0
 72 75  1  0  0  0
 72 81  1  0  0  0
 73 76  2  0  0  0
 73 87  1  0  0  0
 74 75  2  0  0  0
 74 76  1  0  0  0
 74 77  1  0  0  0
 75 90  1  0  0  0
 76 91  1  0  0  0
 77152  1  0  0  0
 77153  1  0  0  0
 77154  1  0  0  0
 78 82  1  0  0  0
 78155  1  0  0  0
 78156  1  0  0  0
 78157  1  0  0  0
 79158  1  0  0  0
 79159  1  0  0  0
 79160  1  0  0  0
 79 87  1  0  0  0
 80 87  1  0  0  0
 80161  1  0  0  0
 80162  1  0  0  0
 80163  1  0  0  0
 81 88  1  0  0  0
 81164  1  0  0  0
 81165  1  0  0  0
 82 84  1  0  0  0
 82166  1  0  0  0
 82167  1  0  0  0
 83 85  1  0  0  0
 83 86  1  0  0  0
 83168  1  0  0  0
 83169  1  0  0  0
 84170  1  0  0  0
 84171  1  0  0  0
 84 89  1  0  0  0
 85 89  1  0  0  0
 85172  1  0  0  0
 85173  1  0  0  0
 86174  1  0  0  0
 86175  1  0  0  0
 87 89  1  0  0  0
 88176  1  0  0  0
 89177  1  0  0  0
M  CHG  1  89   1
M  ISO  4   1 100  68 101  86 101  88 100
M  END
> <chiral flag>
0

> <version>
0

> <s_m_source_file>
/data/baiqing/PycharmProjects/Reinvent-master-3.2/result/LINK_invent/BTK/process_docking_weight1_custom_sum_contain_oxygen_bond_distance_aromatic_linkinvent_7_9_3/rearranged_h_0020.sdf

> <i_m_source_file_index>
32

> <r_mmod_Potential_Energy-OPLS-2005>
40389.25

> <r_mmod_Stretch_Energy-OPLS-2005>
20108.615234375

> <r_mmod_Bend_Energy-OPLS-2005>
2562.75512695312

> <r_mmod_Torsional_Energy-OPLS-2005>
664.007751464844

> <r_mmod_Improper_Torsional_Energy-OPLS-2005>
96.4071502685547

> <r_mmod_Van_der_Waal_Energy-OPLS-2005>
5925.337890625

> <r_mmod_Electrostatic_Energy-OPLS-2005>
-271.384521484375

> <r_mmod_Solvation_Energy-OPLS-2005>
-443.336364746094

> <b_mmod_Minimization_Converged-OPLS-2005>
0

> <r_mmod_RMS_Derivative-OPLS-2005>
25.552318572998

$$$$
32
                    3D
 Structure written by MMmdl.
147155  0  0  1  0            999 V2000
  -30.2861  -15.6030   20.3563 C   0  0  0  0  0  0
  -30.4312  -13.0530   19.5596 C   0  0  0  0  0  0
  -29.5592  -12.6488   18.3349 C   0  0  0  0  0  0
  -28.1282  -12.2997   18.7689 C   0  0  0  0  0  0
  -27.6030  -13.3029   19.8204 C   0  0  2  0  0  0
  -28.6132  -13.6072   20.9518 C   0  0  0  0  0  0
  -25.2366  -13.8267   20.5782 C   0  0  0  0  0  0
  -24.1729  -13.0425   20.9272 C   0  0  0  0  0  0
  -24.6432  -11.6934   20.8745 C   0  0  0  0  0  0
  -23.9118  -10.4282   21.0364 C   0  0  0  0  0  0
  -24.3662   -9.4201   21.9149 C   0  0  0  0  0  0
  -23.6325   -8.2237   22.0749 C   0  0  0  0  0  0
  -22.4295   -8.0280   21.3548 C   0  0  0  0  0  0
  -21.9944   -9.0240   20.4640 C   0  0  0  0  0  0
  -22.7281  -10.2119   20.3028 C   0  0  0  0  0  0
  -21.6854   -6.0752   22.5291 C   0  0  0  0  0  0
  -21.4007   -6.5643   23.8231 C   0  0  0  0  0  0
  -21.3654   -5.6792   24.9180 C   0  0  0  0  0  0
  -21.6051   -4.3056   24.7229 C   0  0  0  0  0  0
  -21.8818   -3.8153   23.4343 C   0  0  0  0  0  0
  -21.9200   -4.6977   22.3403 C   0  0  0  0  0  0
  -22.7751  -13.5177   21.1887 C   0  0  0  0  0  0
  -22.1671   -4.2157   21.0980 F   0  0  0  0  0  0
  -21.5627   -3.4544   25.7738 F   0  0  0  0  0  0
  -29.8008  -14.2241   20.3215 N   0  0  0  0  0  0
  -26.2802  -12.9593   20.3215 N   0  0  0  0  0  0
  -25.9380  -11.6664   20.5679 N   0  0  0  0  0  0
  -22.0417  -12.8148   22.0451 N   0  0  0  0  0  0
  -25.3981  -15.2002   20.4240 N   0  0  0  0  0  0
  -31.5064  -15.5904   20.1033 O   0  0  0  0  0  0
  -21.6648   -6.8884   21.4247 O   0  0  0  0  0  0
  -22.3428  -14.5468   20.6719 O   0  0  0  0  0  0
  -24.6829  -31.7967   23.1571 C   0  0  0  0  0  0
  -25.9424  -32.4435   23.8078 C   0  0  1  0  0  0
  -27.2218  -26.7069   20.2363 C   0  0  0  0  0  0
  -25.5996  -33.8265   24.1963 N   0  0  0  0  0  0
  -23.5088  -30.4016   21.5058 C   0  0  2  0  0  0
  -24.9686  -28.7456   20.1202 C   0  0  0  0  0  0
  -22.7751  -29.4292   22.4690 C   0  0  0  0  0  0
  -18.0337  -28.1394   22.8435 C   0  0  0  0  0  0
  -24.1491  -36.7139   23.2655 C   0  0  0  0  0  0
  -26.0871  -30.5351   21.4196 C   0  0  0  0  0  0
  -26.1536  -29.0990   20.7753 C   0  0  0  0  0  0
  -27.2656  -28.1080   20.8022 C   0  0  0  0  0  0
  -26.0132  -26.5668   19.5071 C   0  0  0  0  0  0
  -24.9377  -27.5050   19.4612 C   0  0  0  0  0  0
  -23.7633  -29.6995   20.1400 C   0  0  0  0  0  0
  -25.4129  -36.2856   24.0278 C   0  0  1  0  0  0
  -20.5964  -28.3760   23.1102 C   0  0  2  0  0  0
  -20.6779  -26.9410   22.5379 C   0  0  0  0  0  0
  -19.5767  -26.6351   21.5170 C   0  0  0  0  0  0
  -18.1965  -26.7921   22.1587 C   0  0  0  0  0  0
  -19.1605  -28.8905   23.2752 C   0  0  0  0  0  0
  -18.9509  -30.1495   23.8776 C   0  0  0  0  0  0
  -17.6505  -30.6582   24.0539 C   0  0  0  0  0  0
  -25.9123  -34.9262   23.4963 C   0  0  0  0  0  0
  -16.5389  -29.9068   23.6346 C   0  0  0  0  0  0
  -16.7315  -28.6500   23.0336 C   0  0  0  0  0  0
  -26.4609  -31.6476   25.0703 C   0  0  0  0  0  0
  -25.3698  -31.3785   26.1354 C   0  0  0  0  0  0
  -27.0553  -30.2819   24.6620 C   0  0  0  0  0  0
  -27.6057  -32.4346   25.7509 C   0  0  0  0  0  0
  -27.5563  -37.1701   24.8459 C   0  0  0  0  0  0
  -21.4406  -29.3019   22.3431 N   0  0  0  0  0  0
  -26.4242  -37.3633   23.9445 N   0  0  0  0  0  0
  -24.7828  -30.9439   22.0810 N   0  0  0  0  0  0
  -23.4194  -28.7888   23.3035 O   0  0  0  0  0  0
  -28.1616  -25.4766   20.3607 O   0  0  0  0  0  0
  -26.5761  -34.8832   22.4577 O   0  0  0  0  0  0
  -23.5849  -32.1020   23.6546 O   0  0  0  0  0  0
  -28.0451  -20.9507   21.2319 C   0  0  0  0  0  0
  -28.5838  -22.0507   20.3713 C   0  0  0  0  0  0
  -29.3220  -18.6227   20.4791 C   0  0  0  0  0  0
  -28.3642  -19.4526   21.2626 C   0  0  0  0  0  0
  -29.5670  -21.2244   19.6017 C   0  0  0  0  0  0
  -29.9086  -19.7241   19.6577 C   0  0  0  0  0  0
  -26.9800  -21.3733   22.2374 C   0  0  0  0  0  0
  -27.8996  -23.7714   20.0752 C   0  0  0  0  0  0
  -29.4648  -16.9030   20.5537 N   0  0  0  0  0  0
  -27.6387  -18.7356   22.1579 F   0  0  0  0  0  0
  -30.2555  -21.9204   18.6626 F   0  0  0  0  0  0
  -30.8763  -19.3265   18.7955 F   0  0  0  0  0  0
  -31.4282  -13.3152   19.2034 H   0  0  0  0  0  0
  -30.5825  -12.1960   20.2183 H   0  0  0  0  0  0
  -30.0061  -11.8012   17.8122 H   0  0  0  0  0  0
  -29.5370  -13.4716   17.6178 H   0  0  0  0  0  0
  -28.1497  -11.2978   19.2016 H   0  0  0  0  0  0
  -27.4620  -12.2448   17.9059 H   0  0  0  0  0  0
  -27.4789  -14.2309   19.2619 H   0  0  0  0  0  0
  -28.8587  -12.7159   21.5290 H   0  0  0  0  0  0
  -28.1809  -14.3191   21.6556 H   0  0  0  0  0  0
  -25.2809   -9.5672   22.4738 H   0  0  0  0  0  0
  -24.0025   -7.4638   22.7484 H   0  0  0  0  0  0
  -21.0877   -8.8765   19.8964 H   0  0  0  0  0  0
  -22.3725  -10.9650   19.6147 H   0  0  0  0  0  0
  -21.1990   -7.6152   23.9727 H   0  0  0  0  0  0
  -21.1477   -6.0522   25.9089 H   0  0  0  0  0  0
  -22.0603   -2.7617   23.2847 H   0  0  0  0  0  0
  -22.4101  -11.9860   22.4861 H   0  0  0  0  0  0
  -21.1022  -13.1123   22.2614 H   0  0  0  0  0  0
  -24.6260  -15.8472   20.5397 H   0  0  0  0  0  0
  -26.2298  -15.6388   20.0522 H   0  0  0  0  0  0
  -26.7505  -32.4909   23.0784 H   0  0  0  0  0  0
  -25.0017  -33.9274   25.0039 H   0  0  0  0  0  0
  -22.8319  -31.2383   21.3151 H   0  0  0  0  0  0
  -23.3747  -35.9473   23.3217 H   0  0  0  0  0  0
  -24.3579  -36.8936   22.2099 H   0  0  0  0  0  0
  -23.7273  -37.6290   23.6813 H   0  0  0  0  0  0
  -26.2821  -31.2534   20.6220 H   0  0  0  0  0  0
  -26.9423  -30.6064   22.0797 H   0  0  0  0  0  0
  -28.1524  -28.3818   21.3576 H   0  0  0  0  0  0
  -25.8486  -25.6292   18.9989 H   0  0  0  0  0  0
  -24.0469  -27.2275   18.9165 H   0  0  0  0  0  0
  -23.9429  -30.4577   19.3762 H   0  0  0  0  0  0
  -22.8662  -29.1694   19.8137 H   0  0  0  0  0  0
  -25.1338  -36.1573   25.0756 H   0  0  0  0  0  0
  -21.0040  -28.3389   24.1228 H   0  0  0  0  0  0
  -20.5597  -26.2385   23.3650 H   0  0  0  0  0  0
  -21.6652  -26.7333   22.1238 H   0  0  0  0  0  0
  -19.6918  -25.6244   21.1260 H   0  0  0  0  0  0
  -19.6706  -27.3099   20.6653 H   0  0  0  0  0  0
  -17.4225  -26.6635   21.4004 H   0  0  0  0  0  0
  -18.0375  -26.0060   22.8979 H   0  0  0  0  0  0
  -19.8004  -30.7333   24.2074 H   0  0  0  0  0  0
  -17.5073  -31.6237   24.5186 H   0  0  0  0  0  0
  -15.5394  -30.2923   23.7747 H   0  0  0  0  0  0
  -15.8717  -28.0817   22.7066 H   0  0  0  0  0  0
  -24.5879  -30.7104   25.7702 H   0  0  0  0  0  0
  -24.8877  -32.3009   26.4605 H   0  0  0  0  0  0
  -25.7906  -30.9086   27.0260 H   0  0  0  0  0  0
  -26.3283  -29.6410   24.1623 H   0  0  0  0  0  0
  -27.3956  -29.7301   25.5390 H   0  0  0  0  0  0
  -27.9273  -30.3890   24.0163 H   0  0  0  0  0  0
  -27.2613  -33.3751   26.1814 H   0  0  0  0  0  0
  -28.3991  -32.6751   25.0419 H   0  0  0  0  0  0
  -28.0568  -31.8665   26.5658 H   0  0  0  0  0  0
  -28.2475  -38.0088   24.7561 H   0  0  0  0  0  0
  -28.1140  -36.2613   24.6169 H   0  0  0  0  0  0
  -27.2290  -37.1202   25.8856 H   0  0  0  0  0  0
  -20.9694  -29.8744   21.6551 H   0  0  0  0  0  0
  -26.0033  -38.2653   24.1520 H   0  0  0  0  0  0
  -26.9433  -22.4530   22.3741 H   0  0  0  0  0  0
  -27.1835  -20.9461   23.2222 H   0  0  0  0  0  0
  -25.9898  -21.0344   21.9243 H   0  0  0  0  0  0
  -26.8533  -23.6532   20.3532 H   0  0  0  0  0  0
  -27.8607  -23.7736   18.9845 H   0  0  0  0  0  0
  -28.5864  -16.5636   20.9187 H   0  0  0  0  0  0
  1 25  1  0  0  0
  1 30  2  0  0  0
  1 79  1  0  0  0
  2  3  1  0  0  0
  2 25  1  0  0  0
  2 83  1  0  0  0
  2 84  1  0  0  0
  3  4  1  0  0  0
  3 85  1  0  0  0
  3 86  1  0  0  0
  4  5  1  0  0  0
  4 87  1  0  0  0
  4 88  1  0  0  0
  5  6  1  0  0  0
  5 26  1  0  0  0
  5 89  1  0  0  0
  6 25  1  0  0  0
  6 90  1  0  0  0
  6 91  1  0  0  0
  7  8  2  0  0  0
  7 26  1  0  0  0
  7 29  1  0  0  0
  8  9  1  0  0  0
  8 22  1  0  0  0
  9 10  1  0  0  0
  9 27  2  0  0  0
 10 11  2  0  0  0
 10 15  1  0  0  0
 11 12  1  0  0  0
 11 92  1  0  0  0
 12 13  2  0  0  0
 12 93  1  0  0  0
 13 14  1  0  0  0
 13 31  1  0  0  0
 14 15  2  0  0  0
 14 94  1  0  0  0
 15 95  1  0  0  0
 16 17  2  0  0  0
 16 21  1  0  0  0
 16 31  1  0  0  0
 17 18  1  0  0  0
 17 96  1  0  0  0
 18 19  2  0  0  0
 18 97  1  0  0  0
 19 20  1  0  0  0
 19 24  1  0  0  0
 20 21  2  0  0  0
 20 98  1  0  0  0
 21 23  1  0  0  0
 22 28  1  0  0  0
 22 32  2  0  0  0
 26 27  1  0  0  0
 28 99  1  0  0  0
 28100  1  0  0  0
 29101  1  0  0  0
 29102  1  0  0  0
 33 34  1  0  0  0
 33 66  1  0  0  0
 33 70  2  0  0  0
 34 36  1  0  0  0
 34 59  1  0  0  0
 34103  1  0  0  0
 35 44  2  0  0  0
 35 45  1  0  0  0
 35 68  1  0  0  0
 36 56  1  0  0  0
 36104  1  0  0  0
 37 39  1  0  0  0
 37 47  1  0  0  0
 37 66  1  0  0  0
 37105  1  0  0  0
 38 43  2  0  0  0
 38 46  1  0  0  0
 38 47  1  0  0  0
 39 64  1  0  0  0
 39 67  2  0  0  0
 40 52  1  0  0  0
 40 53  2  0  0  0
 40 58  1  0  0  0
 41106  1  0  0  0
 41107  1  0  0  0
 41108  1  0  0  0
 41 48  1  0  0  0
 42 43  1  0  0  0
 42 66  1  0  0  0
 42109  1  0  0  0
 42110  1  0  0  0
 43 44  1  0  0  0
 44111  1  0  0  0
 45 46  2  0  0  0
 45112  1  0  0  0
 46113  1  0  0  0
 47114  1  0  0  0
 47115  1  0  0  0
 48 56  1  0  0  0
 48 65  1  0  0  0
 48116  1  0  0  0
 49 50  1  0  0  0
 49 53  1  0  0  0
 49 64  1  0  0  0
 49117  1  0  0  0
 50 51  1  0  0  0
 50118  1  0  0  0
 50119  1  0  0  0
 51 52  1  0  0  0
 51120  1  0  0  0
 51121  1  0  0  0
 52122  1  0  0  0
 52123  1  0  0  0
 53 54  1  0  0  0
 54 55  2  0  0  0
 54124  1  0  0  0
 55 57  1  0  0  0
 55125  1  0  0  0
 56 69  2  0  0  0
 57 58  2  0  0  0
 57126  1  0  0  0
 58127  1  0  0  0
 59 60  1  0  0  0
 59 61  1  0  0  0
 59 62  1  0  0  0
 60128  1  0  0  0
 60129  1  0  0  0
 60130  1  0  0  0
 61131  1  0  0  0
 61132  1  0  0  0
 61133  1  0  0  0
 62134  1  0  0  0
 62135  1  0  0  0
 62136  1  0  0  0
 63 65  1  0  0  0
 63137  1  0  0  0
 63138  1  0  0  0
 63139  1  0  0  0
 64140  1  0  0  0
 65141  1  0  0  0
 68 78  1  0  0  0
 71 72  2  0  0  0
 71 74  1  0  0  0
 71 77  1  0  0  0
 72 75  1  0  0  0
 72 78  1  0  0  0
 73 74  2  0  0  0
 73 76  1  0  0  0
 73 79  1  0  0  0
 74 80  1  0  0  0
 75 76  2  0  0  0
 75 81  1  0  0  0
 76 82  1  0  0  0
 77142  1  0  0  0
 77143  1  0  0  0
 77144  1  0  0  0
 78145  1  0  0  0
 78146  1  0  0  0
 79147  1  0  0  0
M  ISO  4   1 100  68 101  78 101  79 100
M  END
> <chiral flag>
0

> <version>
0

> <s_m_source_file>
/data/baiqing/PycharmProjects/Reinvent-master-3.2/result/LINK_invent/BTK/process_docking_weight1_custom_sum_contain_oxygen_bond_distance_aromatic_linkinvent_7_9_3/rearranged_h_0020.sdf

> <i_m_source_file_index>
33

> <r_mmod_Potential_Energy-OPLS-2005>
2241.01293945312

> <r_mmod_Stretch_Energy-OPLS-2005>
922.432067871094

> <r_mmod_Bend_Energy-OPLS-2005>
659.475708007812

> <r_mmod_Torsional_Energy-OPLS-2005>
237.253204345703

> <r_mmod_Improper_Torsional_Energy-OPLS-2005>
6.25343179702759

> <r_mmod_Van_der_Waal_Energy-OPLS-2005>
130.065841674805

> <r_mmod_Electrostatic_Energy-OPLS-2005>
-390.074401855469

> <r_mmod_Solvation_Energy-OPLS-2005>
-206.872207641602

> <b_mmod_Minimization_Converged-OPLS-2005>
0

> <r_mmod_RMS_Derivative-OPLS-2005>
3.94095611572266

$$$$
33
                    3D
 Structure written by MMmdl.
175183  0  0  1  0            999 V2000
  -30.9637  -14.1762   20.8415 C   0  0  0  0  0  0
  -30.4205  -12.3023   19.3668 C   0  0  0  0  0  0
  -29.4704  -12.5375   18.1889 C   0  0  0  0  0  0
  -28.0109  -12.3721   18.6373 C   0  0  0  0  0  0
  -27.6827  -13.2038   19.9021 C   0  0  2  0  0  0
  -28.7352  -12.9780   21.0182 C   0  0  0  0  0  0
  -25.2676  -13.8162   20.5729 C   0  0  0  0  0  0
  -24.1885  -13.0427   20.9167 C   0  0  0  0  0  0
  -24.6435  -11.6913   20.8732 C   0  0  0  0  0  0
  -23.9074  -10.4282   21.0382 C   0  0  0  0  0  0
  -24.3601   -9.4186   21.9156 C   0  0  0  0  0  0
  -23.6267   -8.2231   22.0732 C   0  0  0  0  0  0
  -22.4241   -8.0271   21.3529 C   0  0  0  0  0  0
  -21.9889   -9.0259   20.4628 C   0  0  0  0  0  0
  -22.7240  -10.2128   20.3044 C   0  0  0  0  0  0
  -21.6856   -6.0697   22.5266 C   0  0  0  0  0  0
  -21.4018   -6.5596   23.8200 C   0  0  0  0  0  0
  -21.3665   -5.6748   24.9166 C   0  0  0  0  0  0
  -21.6066   -4.3015   24.7202 C   0  0  0  0  0  0
  -21.8833   -3.8096   23.4328 C   0  0  0  0  0  0
  -21.9196   -4.6925   22.3382 C   0  0  0  0  0  0
  -22.7911  -13.5259   21.1805 C   0  0  0  0  0  0
  -22.1675   -4.2132   21.0958 F   0  0  0  0  0  0
  -21.5646   -3.4493   25.7712 F   0  0  0  0  0  0
  -30.0839  -13.2083   20.4731 N   0  0  0  0  0  0
  -26.3170  -12.9330   20.3588 N   0  0  0  0  0  0
  -25.9389  -11.6495   20.5874 N   0  0  0  0  0  0
  -22.0541  -12.8241   22.0356 N   0  0  0  0  0  0
  -25.4318  -15.1874   20.4130 N   0  0  0  0  0  0
  -31.6549  -14.7455   19.9912 O   0  0  0  0  0  0
  -21.6616   -6.8866   21.4235 O   0  0  0  0  0  0
  -22.3606  -14.5597   20.6723 O   0  0  0  0  0  0
  -24.6074  -31.8731   23.2138 C   0  0  0  0  0  0
  -25.8992  -32.4851   23.8429 C   0  0  1  0  0  0
  -27.2539  -27.4767   20.1020 C   0  0  0  0  0  0
  -25.5878  -33.8649   24.2368 N   0  0  0  0  0  0
  -23.3963  -30.4912   21.5506 C   0  0  2  0  0  0
  -24.8524  -28.9628   20.1199 C   0  0  0  0  0  0
  -22.7395  -29.4649   22.5000 C   0  0  0  0  0  0
  -18.0262  -28.1371   22.8479 C   0  0  0  0  0  0
  -24.1493  -36.7318   23.2619 C   0  0  0  0  0  0
  -25.9181  -30.8502   21.3660 C   0  0  0  0  0  0
  -26.0022  -29.4814   20.7264 C   0  0  0  0  0  0
  -27.2026  -28.7404   20.7336 C   0  0  0  0  0  0
  -26.0868  -26.9669   19.4949 C   0  0  0  0  0  0
  -24.8845  -27.6991   19.5065 C   0  0  0  0  0  0
  -23.6081  -29.8184   20.1654 C   0  0  0  0  0  0
  -25.4109  -36.3127   24.0334 C   0  0  1  0  0  0
  -20.5852  -28.3642   23.1336 C   0  0  2  0  0  0
  -20.6769  -26.9391   22.5414 C   0  0  0  0  0  0
  -19.5768  -26.6377   21.5212 C   0  0  0  0  0  0
  -18.1933  -26.7923   22.1610 C   0  0  0  0  0  0
  -19.1511  -28.8819   23.2905 C   0  0  0  0  0  0
  -18.9459  -30.1417   23.8925 C   0  0  0  0  0  0
  -17.6467  -30.6583   24.0549 C   0  0  0  0  0  0
  -25.9029  -34.9483   23.5145 C   0  0  0  0  0  0
  -16.5344  -29.9097   23.6308 C   0  0  0  0  0  0
  -16.7249  -28.6508   23.0336 C   0  0  0  0  0  0
  -26.4461  -31.6585   25.0706 C   0  0  0  0  0  0
  -25.3742  -31.3767   26.1472 C   0  0  0  0  0  0
  -27.0217  -30.3007   24.6024 C   0  0  0  0  0  0
  -27.6070  -32.4261   25.7472 C   0  0  0  0  0  0
  -27.5606  -37.1788   24.8436 C   0  0  0  0  0  0
  -21.4124  -29.3028   22.3759 N   0  0  0  0  0  0
  -26.4301  -37.3810   23.9418 N   0  0  0  0  0  0
  -24.6577  -31.0849   22.1032 N   0  0  0  0  0  0
  -23.4202  -28.8191   23.3018 O   0  0  0  0  0  0
  -28.3952  -26.7171   20.0055 O   0  0  0  0  0  0
  -26.5585  -34.8907   22.4708 O   0  0  0  0  0  0
  -23.5277  -32.1475   23.7546 O   0  0  0  0  0  0
  -31.8999  -17.4301   22.2425 C   0  0  0  0  0  0
  -32.6971  -16.5300   22.9757 C   0  0  0  0  0  0
  -33.2062  -18.3334   24.5871 C   0  0  0  0  0  0
  -32.3646  -19.2172   23.8519 C   0  0  0  0  0  0
  -31.7023  -18.7427   22.6913 C   0  0  0  0  0  0
  -33.3586  -16.9858   24.1495 C   0  0  0  0  0  0
  -33.8966  -18.8209   25.8659 C   0  0  0  0  0  0
  -30.3230  -14.9003   23.2493 C   0  0  0  0  0  0
  -31.7229  -12.8378   22.8505 C   0  0  0  0  0  0
  -32.7871  -15.0770   22.4781 C   0  0  0  0  0  0
  -32.0972  -20.6528   24.3125 C   0  0  0  0  0  0
  -30.8138  -24.9675   22.2262 C   0  0  0  0  0  0
  -31.5108  -23.6025   22.0719 C   0  0  0  0  0  0
  -30.2058  -25.4920   20.9134 C   0  0  0  0  0  0
  -31.8534  -22.9708   23.4367 C   0  0  0  0  0  0
  -29.3241  -26.7431   21.0839 C   0  0  0  0  0  0
  -31.4212  -14.2761   22.3461 C   0  0  0  0  0  0
  -32.4890  -21.6447   23.2901 N   0  3  0  0  0  0
  -30.6166  -19.7396   21.7869 Cl  0  0  0  0  0  0
  -34.3352  -15.8903   25.0702 Cl  0  0  0  0  0  0
  -31.4549  -12.4190   19.0359 H   0  0  0  0  0  0
  -30.3412  -11.2745   19.7239 H   0  0  0  0  0  0
  -29.6942  -11.8329   17.3876 H   0  0  0  0  0  0
  -29.6274  -13.5368   17.7807 H   0  0  0  0  0  0
  -27.8430  -11.3130   18.8417 H   0  0  0  0  0  0
  -27.3344  -12.6378   17.8229 H   0  0  0  0  0  0
  -27.7358  -14.2554   19.6166 H   0  0  0  0  0  0
  -28.6798  -11.9627   21.4142 H   0  0  0  0  0  0
  -28.5100  -13.6456   21.8449 H   0  0  0  0  0  0
  -25.2764   -9.5657   22.4696 H   0  0  0  0  0  0
  -23.9994   -7.4621   22.7447 H   0  0  0  0  0  0
  -21.0824   -8.8789   19.8905 H   0  0  0  0  0  0
  -22.3732  -10.9659   19.6131 H   0  0  0  0  0  0
  -21.1983   -7.6101   23.9699 H   0  0  0  0  0  0
  -21.1496   -6.0460   25.9082 H   0  0  0  0  0  0
  -22.0592   -2.7555   23.2808 H   0  0  0  0  0  0
  -22.4173  -11.9942   22.4791 H   0  0  0  0  0  0
  -21.1148  -13.1262   22.2521 H   0  0  0  0  0  0
  -24.6520  -15.8310   20.5155 H   0  0  0  0  0  0
  -26.2925  -15.6428   20.1295 H   0  0  0  0  0  0
  -26.7066  -32.5602   23.1214 H   0  0  0  0  0  0
  -25.0040  -33.9848   25.0519 H   0  0  0  0  0  0
  -22.6779  -31.3017   21.4053 H   0  0  0  0  0  0
  -23.3788  -35.9618   23.3231 H   0  0  0  0  0  0
  -24.3601  -36.8991   22.2045 H   0  0  0  0  0  0
  -23.7190  -37.6481   23.6664 H   0  0  0  0  0  0
  -26.0079  -31.6134   20.5911 H   0  0  0  0  0  0
  -26.8133  -30.9208   21.9717 H   0  0  0  0  0  0
  -28.0816  -29.1512   21.2103 H   0  0  0  0  0  0
  -26.1105  -25.9977   19.0177 H   0  0  0  0  0  0
  -23.9981  -27.2923   19.0400 H   0  0  0  0  0  0
  -23.7044  -30.5866   19.3966 H   0  0  0  0  0  0
  -22.7430  -29.2203   19.8749 H   0  0  0  0  0  0
  -25.1295  -36.1991   25.0832 H   0  0  0  0  0  0
  -20.9890  -28.3178   24.1480 H   0  0  0  0  0  0
  -20.5686  -26.2249   23.3592 H   0  0  0  0  0  0
  -21.6640  -26.7481   22.1181 H   0  0  0  0  0  0
  -19.6930  -25.6296   21.1240 H   0  0  0  0  0  0
  -19.6721  -27.3201   20.6763 H   0  0  0  0  0  0
  -17.4203  -26.6639   21.4000 H   0  0  0  0  0  0
  -18.0333  -26.0062   22.9018 H   0  0  0  0  0  0
  -19.7938  -30.7195   24.2328 H   0  0  0  0  0  0
  -17.5040  -31.6280   24.5147 H   0  0  0  0  0  0
  -15.5352  -30.3031   23.7632 H   0  0  0  0  0  0
  -15.8631  -28.0842   22.7067 H   0  0  0  0  0  0
  -24.5779  -30.7298   25.7807 H   0  0  0  0  0  0
  -24.9116  -32.2986   26.5006 H   0  0  0  0  0  0
  -25.8038  -30.8801   27.0177 H   0  0  0  0  0  0
  -26.2717  -29.6835   24.1065 H   0  0  0  0  0  0
  -27.3987  -29.7175   25.4441 H   0  0  0  0  0  0
  -27.8574  -30.4323   23.9141 H   0  0  0  0  0  0
  -27.2723  -33.3580   26.2048 H   0  0  0  0  0  0
  -28.3890  -32.6782   25.0294 H   0  0  0  0  0  0
  -28.0696  -31.8357   26.5388 H   0  0  0  0  0  0
  -28.2545  -38.0162   24.7582 H   0  0  0  0  0  0
  -28.1188  -36.2699   24.6152 H   0  0  0  0  0  0
  -27.2321  -37.1260   25.8829 H   0  0  0  0  0  0
  -20.9279  -29.8736   21.6978 H   0  0  0  0  0  0
  -26.0196  -38.2875   24.1524 H   0  0  0  0  0  0
  -31.3872  -17.1013   21.3476 H   0  0  0  0  0  0
  -34.5299  -19.6849   25.6682 H   0  0  0  0  0  0
  -34.5281  -18.0811   26.3558 H   0  0  0  0  0  0
  -33.1476  -19.1095   26.6037 H   0  0  0  0  0  0
  -29.6324  -14.1523   23.6302 H   0  0  0  0  0  0
  -29.7353  -15.6538   22.7257 H   0  0  0  0  0  0
  -30.7402  -15.3671   24.1432 H   0  0  0  0  0  0
  -32.1385  -12.8412   23.8588 H   0  0  0  0  0  0
  -32.4487  -12.3327   22.2076 H   0  0  0  0  0  0
  -30.8324  -12.2090   22.8890 H   0  0  0  0  0  0
  -33.4434  -14.5179   23.1393 H   0  0  0  0  0  0
  -33.3774  -15.0855   21.5627 H   0  0  0  0  0  0
  -32.5947  -20.9134   25.2462 H   0  0  0  0  0  0
  -31.0276  -20.7098   24.5167 H   0  0  0  0  0  0
  -31.5134  -25.6955   22.6390 H   0  0  0  0  0  0
  -30.0106  -24.8587   22.9551 H   0  0  0  0  0  0
  -32.4091  -23.7089   21.4623 H   0  0  0  0  0  0
  -30.8494  -22.9252   21.5277 H   0  0  0  0  0  0
  -29.5903  -24.6988   20.4855 H   0  0  0  0  0  0
  -30.9857  -25.6886   20.1762 H   0  0  0  0  0  0
  -30.9288  -22.8726   24.0080 H   0  0  0  0  0  0
  -32.5062  -23.6251   24.0164 H   0  0  0  0  0  0
  -29.9312  -27.6512   21.0687 H   0  0  0  0  0  0
  -28.7922  -26.7092   22.0376 H   0  0  0  0  0  0
  -32.1963  -21.2632   22.4047 H   0  0  0  0  0  0
  -33.4911  -21.7458   23.2818 H   0  0  0  0  0  0
  1 25  1  0  0  0
  1 30  2  0  0  0
  1 87  1  0  0  0
  2  3  1  0  0  0
  2 25  1  0  0  0
  2 91  1  0  0  0
  2 92  1  0  0  0
  3  4  1  0  0  0
  3 93  1  0  0  0
  3 94  1  0  0  0
  4  5  1  0  0  0
  4 95  1  0  0  0
  4 96  1  0  0  0
  5  6  1  0  0  0
  5 26  1  0  0  0
  5 97  1  0  0  0
  6 25  1  0  0  0
  6 98  1  0  0  0
  6 99  1  0  0  0
  7  8  2  0  0  0
  7 26  1  0  0  0
  7 29  1  0  0  0
  8  9  1  0  0  0
  8 22  1  0  0  0
  9 10  1  0  0  0
  9 27  2  0  0  0
 10 11  2  0  0  0
 10 15  1  0  0  0
 11 12  1  0  0  0
 11100  1  0  0  0
 12 13  2  0  0  0
 12101  1  0  0  0
 13 14  1  0  0  0
 13 31  1  0  0  0
 14 15  2  0  0  0
 14102  1  0  0  0
 15103  1  0  0  0
 16 17  2  0  0  0
 16 21  1  0  0  0
 16 31  1  0  0  0
 17 18  1  0  0  0
 17104  1  0  0  0
 18 19  2  0  0  0
 18105  1  0  0  0
 19 20  1  0  0  0
 19 24  1  0  0  0
 20 21  2  0  0  0
 20106  1  0  0  0
 21 23  1  0  0  0
 22 28  1  0  0  0
 22 32  2  0  0  0
 26 27  1  0  0  0
 28107  1  0  0  0
 28108  1  0  0  0
 29109  1  0  0  0
 29110  1  0  0  0
 33 34  1  0  0  0
 33 66  1  0  0  0
 33 70  2  0  0  0
 34 36  1  0  0  0
 34 59  1  0  0  0
 34111  1  0  0  0
 35 44  2  0  0  0
 35 45  1  0  0  0
 35 68  1  0  0  0
 36 56  1  0  0  0
 36112  1  0  0  0
 37 39  1  0  0  0
 37 47  1  0  0  0
 37 66  1  0  0  0
 37113  1  0  0  0
 38 43  2  0  0  0
 38 46  1  0  0  0
 38 47  1  0  0  0
 39 64  1  0  0  0
 39 67  2  0  0  0
 40 52  1  0  0  0
 40 53  2  0  0  0
 40 58  1  0  0  0
 41114  1  0  0  0
 41115  1  0  0  0
 41116  1  0  0  0
 41 48  1  0  0  0
 42 43  1  0  0  0
 42 66  1  0  0  0
 42117  1  0  0  0
 42118  1  0  0  0
 43 44  1  0  0  0
 44119  1  0  0  0
 45 46  2  0  0  0
 45120  1  0  0  0
 46121  1  0  0  0
 47122  1  0  0  0
 47123  1  0  0  0
 48 56  1  0  0  0
 48 65  1  0  0  0
 48124  1  0  0  0
 49 50  1  0  0  0
 49 53  1  0  0  0
 49 64  1  0  0  0
 49125  1  0  0  0
 50 51  1  0  0  0
 50126  1  0  0  0
 50127  1  0  0  0
 51 52  1  0  0  0
 51128  1  0  0  0
 51129  1  0  0  0
 52130  1  0  0  0
 52131  1  0  0  0
 53 54  1  0  0  0
 54 55  2  0  0  0
 54132  1  0  0  0
 55 57  1  0  0  0
 55133  1  0  0  0
 56 69  2  0  0  0
 57 58  2  0  0  0
 57134  1  0  0  0
 58135  1  0  0  0
 59 60  1  0  0  0
 59 61  1  0  0  0
 59 62  1  0  0  0
 60136  1  0  0  0
 60137  1  0  0  0
 60138  1  0  0  0
 61139  1  0  0  0
 61140  1  0  0  0
 61141  1  0  0  0
 62142  1  0  0  0
 62143  1  0  0  0
 62144  1  0  0  0
 63 65  1  0  0  0
 63145  1  0  0  0
 63146  1  0  0  0
 63147  1  0  0  0
 64148  1  0  0  0
 65149  1  0  0  0
 68 86  1  0  0  0
 71 72  2  0  0  0
 71 75  1  0  0  0
 71150  1  0  0  0
 72 76  1  0  0  0
 72 80  1  0  0  0
 73 74  1  0  0  0
 73 76  2  0  0  0
 73 77  1  0  0  0
 74 75  2  0  0  0
 74 81  1  0  0  0
 75 89  1  0  0  0
 76 90  1  0  0  0
 77151  1  0  0  0
 77152  1  0  0  0
 77153  1  0  0  0
 78154  1  0  0  0
 78155  1  0  0  0
 78156  1  0  0  0
 78 87  1  0  0  0
 79 87  1  0  0  0
 79157  1  0  0  0
 79158  1  0  0  0
 79159  1  0  0  0
 80 87  1  0  0  0
 80160  1  0  0  0
 80161  1  0  0  0
 81 88  1  0  0  0
 81162  1  0  0  0
 81163  1  0  0  0
 82 83  1  0  0  0
 82 84  1  0  0  0
 82164  1  0  0  0
 82165  1  0  0  0
 83 85  1  0  0  0
 83166  1  0  0  0
 83167  1  0  0  0
 84 86  1  0  0  0
 84168  1  0  0  0
 84169  1  0  0  0
 85 88  1  0  0  0
 85170  1  0  0  0
 85171  1  0  0  0
 86172  1  0  0  0
 86173  1  0  0  0
 88174  1  0  0  0
 88175  1  0  0  0
M  CHG  1  88   1
M  ISO  4   1 100  68 101  86 101  87 100
M  END
> <chiral flag>
0

> <version>
0

> <s_m_source_file>
/data/baiqing/PycharmProjects/Reinvent-master-3.2/result/LINK_invent/BTK/process_docking_weight1_custom_sum_contain_oxygen_bond_distance_aromatic_linkinvent_7_9_3/rearranged_h_0020.sdf

> <i_m_source_file_index>
34

> <r_mmod_Potential_Energy-OPLS-2005>
-95.1976318359375

> <r_mmod_Stretch_Energy-OPLS-2005>
45.6708679199219

> <r_mmod_Bend_Energy-OPLS-2005>
105.338348388672

> <r_mmod_Torsional_Energy-OPLS-2005>
235.729446411133

> <r_mmod_Improper_Torsional_Energy-OPLS-2005>
9.70945262908936

> <r_mmod_Van_der_Waal_Energy-OPLS-2005>
176.213607788086

> <r_mmod_Electrostatic_Energy-OPLS-2005>
-262.459777832031

> <r_mmod_Solvation_Energy-OPLS-2005>
-424.951232910156

> <b_mmod_Minimization_Converged-OPLS-2005>
0

> <r_mmod_RMS_Derivative-OPLS-2005>
4.84147834777832

$$$$
34
                    3D
 Structure written by MMmdl.
147155  0  0  1  0            999 V2000
  -30.3657  -15.4144   20.3485 C   0  0  0  0  0  0
  -30.4341  -12.9307   19.4947 C   0  0  0  0  0  0
  -29.5266  -12.6068   18.2770 C   0  0  0  0  0  0
  -28.0907  -12.2869   18.7297 C   0  0  0  0  0  0
  -27.5980  -13.2814   19.8078 C   0  0  2  0  0  0
  -28.6355  -13.5306   20.9234 C   0  0  0  0  0  0
  -25.2386  -13.8268   20.5821 C   0  0  0  0  0  0
  -24.1708  -13.0432   20.9246 C   0  0  0  0  0  0
  -24.6362  -11.6934   20.8729 C   0  0  0  0  0  0
  -23.9059  -10.4288   21.0383 C   0  0  0  0  0  0
  -24.3616   -9.4211   21.9166 C   0  0  0  0  0  0
  -23.6283   -8.2251   22.0762 C   0  0  0  0  0  0
  -22.4262   -8.0287   21.3546 C   0  0  0  0  0  0
  -21.9881   -9.0259   20.4642 C   0  0  0  0  0  0
  -22.7227  -10.2130   20.3040 C   0  0  0  0  0  0
  -21.6860   -6.0708   22.5258 C   0  0  0  0  0  0
  -21.4037   -6.5611   23.8196 C   0  0  0  0  0  0
  -21.3675   -5.6767   24.9166 C   0  0  0  0  0  0
  -21.6056   -4.3027   24.7209 C   0  0  0  0  0  0
  -21.8830   -3.8114   23.4340 C   0  0  0  0  0  0
  -21.9197   -4.6928   22.3389 C   0  0  0  0  0  0
  -22.7739  -13.5221   21.1913 C   0  0  0  0  0  0
  -22.1658   -4.2119   21.0970 F   0  0  0  0  0  0
  -21.5625   -3.4523   25.7724 F   0  0  0  0  0  0
  -29.8304  -14.0854   20.2607 N   0  0  0  0  0  0
  -26.2777  -12.9525   20.3232 N   0  0  0  0  0  0
  -25.9298  -11.6618   20.5687 N   0  0  0  0  0  0
  -22.0392  -12.8171   22.0444 N   0  0  0  0  0  0
  -25.4039  -15.2016   20.4460 N   0  0  0  0  0  0
  -31.6062  -15.3993   20.2694 O   0  0  0  0  0  0
  -21.6647   -6.8857   21.4217 O   0  0  0  0  0  0
  -22.3441  -14.5540   20.6796 O   0  0  0  0  0  0
  -24.6745  -31.8150   23.1628 C   0  0  0  0  0  0
  -25.9384  -32.4529   23.8090 C   0  0  1  0  0  0
  -27.2062  -26.8471   20.1681 C   0  0  0  0  0  0
  -25.5998  -33.8361   24.1982 N   0  0  0  0  0  0
  -23.4899  -30.4241   21.5194 C   0  0  2  0  0  0
  -24.9360  -28.7956   20.1093 C   0  0  0  0  0  0
  -22.7743  -29.4380   22.4793 C   0  0  0  0  0  0
  -18.0365  -28.1401   22.8478 C   0  0  0  0  0  0
  -24.1493  -36.7226   23.2649 C   0  0  0  0  0  0
  -26.0649  -30.5952   21.3950 C   0  0  0  0  0  0
  -26.1282  -29.1778   20.7350 C   0  0  0  0  0  0
  -27.2590  -28.2284   20.7319 C   0  0  0  0  0  0
  -25.9800  -26.6362   19.4939 C   0  0  0  0  0  0
  -24.8907  -27.5484   19.4670 C   0  0  0  0  0  0
  -23.7302  -29.7355   20.1482 C   0  0  0  0  0  0
  -25.4135  -36.2968   24.0306 C   0  0  1  0  0  0
  -20.5985  -28.3759   23.1212 C   0  0  2  0  0  0
  -20.6822  -26.9440   22.5425 C   0  0  0  0  0  0
  -19.5781  -26.6365   21.5250 C   0  0  0  0  0  0
  -18.1965  -26.7918   22.1655 C   0  0  0  0  0  0
  -19.1623  -28.8906   23.2812 C   0  0  0  0  0  0
  -18.9521  -30.1482   23.8859 C   0  0  0  0  0  0
  -17.6504  -30.6574   24.0540 C   0  0  0  0  0  0
  -25.9142  -34.9351   23.4984 C   0  0  0  0  0  0
  -16.5403  -29.9046   23.6333 C   0  0  0  0  0  0
  -16.7349  -28.6481   23.0344 C   0  0  0  0  0  0
  -26.4568  -31.6510   25.0659 C   0  0  0  0  0  0
  -25.3639  -31.3814   26.1264 C   0  0  0  0  0  0
  -27.0412  -30.2845   24.6427 C   0  0  0  0  0  0
  -27.6052  -32.4355   25.7460 C   0  0  0  0  0  0
  -27.5576  -37.1745   24.8471 C   0  0  0  0  0  0
  -21.4409  -29.3029   22.3562 N   0  0  0  0  0  0
  -26.4279  -37.3713   23.9429 N   0  0  0  0  0  0
  -24.7661  -30.9729   22.0800 N   0  0  0  0  0  0
  -23.4259  -28.7969   23.3070 O   0  0  0  0  0  0
  -28.2078  -25.7129   20.1842 O   0  0  0  0  0  0
  -26.5772  -34.8928   22.4597 O   0  0  0  0  0  0
  -23.5824  -32.1148   23.6730 O   0  0  0  0  0  0
  -29.2176  -19.3755   19.6105 C   0  0  0  0  0  0
  -29.0507  -20.7412   20.3281 C   0  0  0  0  0  0
  -29.5240  -18.1948   20.4255 C   0  0  0  0  0  0
  -29.6369  -18.3054   22.9973 C   0  0  0  0  0  0
  -28.9770  -22.5074   19.9376 C   0  0  0  0  0  0
  -27.9954  -24.0342   20.3282 C   0  0  0  0  0  0
  -29.2773  -20.2858   21.5911 N   0  0  0  0  0  0
  -29.5082  -18.8841   21.6615 N   0  0  0  0  0  0
  -29.5597  -16.6768   20.2029 N   0  0  0  0  0  0
  -29.0825  -19.2470   17.8899 Cl  0  0  0  0  0  0
  -31.4356  -13.1872   19.1456 H   0  0  0  0  0  0
  -30.5602  -12.0557   20.1332 H   0  0  0  0  0  0
  -29.9340  -11.7713   17.7101 H   0  0  0  0  0  0
  -29.5088  -13.4589   17.5938 H   0  0  0  0  0  0
  -28.0844  -11.2719   19.1312 H   0  0  0  0  0  0
  -27.4130  -12.2781   17.8747 H   0  0  0  0  0  0
  -27.4771  -14.2235   19.2721 H   0  0  0  0  0  0
  -28.8531  -12.6214   21.4877 H   0  0  0  0  0  0
  -28.2539  -14.2570   21.6435 H   0  0  0  0  0  0
  -25.2754   -9.5697   22.4726 H   0  0  0  0  0  0
  -23.9988   -7.4662   22.7491 H   0  0  0  0  0  0
  -21.0806   -8.8780   19.8953 H   0  0  0  0  0  0
  -22.3683  -10.9667   19.6142 H   0  0  0  0  0  0
  -21.2052   -7.6133   23.9694 H   0  0  0  0  0  0
  -21.1484   -6.0497   25.9066 H   0  0  0  0  0  0
  -22.0599   -2.7571   23.2845 H   0  0  0  0  0  0
  -22.4003  -11.9806   22.4774 H   0  0  0  0  0  0
  -21.1051  -13.1241   22.2753 H   0  0  0  0  0  0
  -24.6414  -15.8562   20.5914 H   0  0  0  0  0  0
  -26.2808  -15.6540   20.2260 H   0  0  0  0  0  0
  -26.7472  -32.4985   23.0814 H   0  0  0  0  0  0
  -25.0013  -33.9404   25.0043 H   0  0  0  0  0  0
  -22.8106  -31.2617   21.3445 H   0  0  0  0  0  0
  -23.3773  -35.9523   23.3264 H   0  0  0  0  0  0
  -24.3612  -36.8943   22.2074 H   0  0  0  0  0  0
  -23.7234  -37.6401   23.6755 H   0  0  0  0  0  0
  -26.2501  -31.3350   20.6147 H   0  0  0  0  0  0
  -26.9275  -30.6472   22.0475 H   0  0  0  0  0  0
  -28.1712  -28.5268   21.2320 H   0  0  0  0  0  0
  -25.8259  -25.6912   18.9939 H   0  0  0  0  0  0
  -23.9800  -27.2520   18.9616 H   0  0  0  0  0  0
  -23.9012  -30.5031   19.3949 H   0  0  0  0  0  0
  -22.8323  -29.2029   19.8264 H   0  0  0  0  0  0
  -25.1310  -36.1743   25.0800 H   0  0  0  0  0  0
  -21.0061  -28.3362   24.1329 H   0  0  0  0  0  0
  -20.5785  -26.2361   23.3677 H   0  0  0  0  0  0
  -21.6661  -26.7425   22.1160 H   0  0  0  0  0  0
  -19.6953  -25.6269   21.1289 H   0  0  0  0  0  0
  -19.6688  -27.3168   20.6784 H   0  0  0  0  0  0
  -17.4228  -26.6777   21.4033 H   0  0  0  0  0  0
  -18.0292  -26.0034   22.9034 H   0  0  0  0  0  0
  -19.8002  -30.7301   24.2225 H   0  0  0  0  0  0
  -17.5054  -31.6264   24.5129 H   0  0  0  0  0  0
  -15.5391  -30.2905   23.7666 H   0  0  0  0  0  0
  -15.8777  -28.0771   22.7038 H   0  0  0  0  0  0
  -24.5839  -30.7180   25.7518 H   0  0  0  0  0  0
  -24.8796  -32.3040   26.4486 H   0  0  0  0  0  0
  -25.7746  -30.9064   27.0181 H   0  0  0  0  0  0
  -26.3024  -29.6528   24.1467 H   0  0  0  0  0  0
  -27.3930  -29.7226   25.5087 H   0  0  0  0  0  0
  -27.9013  -30.3957   23.9813 H   0  0  0  0  0  0
  -27.2632  -33.3789   26.1737 H   0  0  0  0  0  0
  -28.3969  -32.6704   25.0326 H   0  0  0  0  0  0
  -28.0582  -31.8673   26.5591 H   0  0  0  0  0  0
  -28.2505  -38.0111   24.7544 H   0  0  0  0  0  0
  -28.1140  -36.2633   24.6217 H   0  0  0  0  0  0
  -27.2345  -37.1320   25.8890 H   0  0  0  0  0  0
  -20.9727  -29.8678   21.6613 H   0  0  0  0  0  0
  -26.0126  -38.2785   24.1413 H   0  0  0  0  0  0
  -28.7133  -17.7749   23.2529 H   0  0  0  0  0  0
  -29.8182  -19.0775   23.7623 H   0  0  0  0  0  0
  -30.4798  -17.6076   23.0125 H   0  0  0  0  0  0
  -28.9698  -22.5152   18.8440 H   0  0  0  0  0  0
  -29.9842  -22.8514   20.1754 H   0  0  0  0  0  0
  -27.8185  -23.9593   21.4021 H   0  0  0  0  0  0
  -27.0058  -23.8404   19.9084 H   0  0  0  0  0  0
  -28.6586  -16.3879   19.8587 H   0  0  0  0  0  0
  1 25  1  0  0  0
  1 30  2  0  0  0
  1 79  1  0  0  0
  2  3  1  0  0  0
  2 25  1  0  0  0
  2 81  1  0  0  0
  2 82  1  0  0  0
  3  4  1  0  0  0
  3 83  1  0  0  0
  3 84  1  0  0  0
  4  5  1  0  0  0
  4 85  1  0  0  0
  4 86  1  0  0  0
  5  6  1  0  0  0
  5 26  1  0  0  0
  5 87  1  0  0  0
  6 25  1  0  0  0
  6 88  1  0  0  0
  6 89  1  0  0  0
  7  8  2  0  0  0
  7 26  1  0  0  0
  7 29  1  0  0  0
  8  9  1  0  0  0
  8 22  1  0  0  0
  9 10  1  0  0  0
  9 27  2  0  0  0
 10 11  2  0  0  0
 10 15  1  0  0  0
 11 12  1  0  0  0
 11 90  1  0  0  0
 12 13  2  0  0  0
 12 91  1  0  0  0
 13 14  1  0  0  0
 13 31  1  0  0  0
 14 15  2  0  0  0
 14 92  1  0  0  0
 15 93  1  0  0  0
 16 17  2  0  0  0
 16 21  1  0  0  0
 16 31  1  0  0  0
 17 18  1  0  0  0
 17 94  1  0  0  0
 18 19  2  0  0  0
 18 95  1  0  0  0
 19 20  1  0  0  0
 19 24  1  0  0  0
 20 21  2  0  0  0
 20 96  1  0  0  0
 21 23  1  0  0  0
 22 28  1  0  0  0
 22 32  2  0  0  0
 26 27  1  0  0  0
 28 97  1  0  0  0
 28 98  1  0  0  0
 29 99  1  0  0  0
 29100  1  0  0  0
 33 34  1  0  0  0
 33 66  1  0  0  0
 33 70  2  0  0  0
 34 36  1  0  0  0
 34 59  1  0  0  0
 34101  1  0  0  0
 35 44  2  0  0  0
 35 45  1  0  0  0
 35 68  1  0  0  0
 36 56  1  0  0  0
 36102  1  0  0  0
 37 39  1  0  0  0
 37 47  1  0  0  0
 37 66  1  0  0  0
 37103  1  0  0  0
 38 43  2  0  0  0
 38 46  1  0  0  0
 38 47  1  0  0  0
 39 64  1  0  0  0
 39 67  2  0  0  0
 40 52  1  0  0  0
 40 53  2  0  0  0
 40 58  1  0  0  0
 41104  1  0  0  0
 41105  1  0  0  0
 41106  1  0  0  0
 41 48  1  0  0  0
 42 43  1  0  0  0
 42 66  1  0  0  0
 42107  1  0  0  0
 42108  1  0  0  0
 43 44  1  0  0  0
 44109  1  0  0  0
 45 46  2  0  0  0
 45110  1  0  0  0
 46111  1  0  0  0
 47112  1  0  0  0
 47113  1  0  0  0
 48 56  1  0  0  0
 48 65  1  0  0  0
 48114  1  0  0  0
 49 50  1  0  0  0
 49 53  1  0  0  0
 49 64  1  0  0  0
 49115  1  0  0  0
 50 51  1  0  0  0
 50116  1  0  0  0
 50117  1  0  0  0
 51 52  1  0  0  0
 51118  1  0  0  0
 51119  1  0  0  0
 52120  1  0  0  0
 52121  1  0  0  0
 53 54  1  0  0  0
 54 55  2  0  0  0
 54122  1  0  0  0
 55 57  1  0  0  0
 55123  1  0  0  0
 56 69  2  0  0  0
 57 58  2  0  0  0
 57124  1  0  0  0
 58125  1  0  0  0
 59 60  1  0  0  0
 59 61  1  0  0  0
 59 62  1  0  0  0
 60126  1  0  0  0
 60127  1  0  0  0
 60128  1  0  0  0
 61129  1  0  0  0
 61130  1  0  0  0
 61131  1  0  0  0
 62132  1  0  0  0
 62133  1  0  0  0
 62134  1  0  0  0
 63 65  1  0  0  0
 63135  1  0  0  0
 63136  1  0  0  0
 63137  1  0  0  0
 64138  1  0  0  0
 65139  1  0  0  0
 68 76  1  0  0  0
 71 72  1  0  0  0
 71 73  2  0  0  0
 71 80  1  0  0  0
 72 75  1  0  0  0
 72 77  2  0  0  0
 73 78  1  0  0  0
 73 79  1  0  0  0
 74 78  1  0  0  0
 74140  1  0  0  0
 74141  1  0  0  0
 74142  1  0  0  0
 75 76  1  0  0  0
 75143  1  0  0  0
 75144  1  0  0  0
 76145  1  0  0  0
 76146  1  0  0  0
 77 78  1  0  0  0
 79147  1  0  0  0
M  ISO  4   1 100  68 101  76 101  79 100
M  END
> <chiral flag>
0

> <version>
0

> <s_m_source_file>
/data/baiqing/PycharmProjects/Reinvent-master-3.2/result/LINK_invent/BTK/process_docking_weight1_custom_sum_contain_oxygen_bond_distance_aromatic_linkinvent_7_9_3/rearranged_h_0020.sdf

> <i_m_source_file_index>
35

> <r_mmod_Potential_Energy-OPLS-2005>
1541.26989746094

> <r_mmod_Stretch_Energy-OPLS-2005>
691.893127441406

> <r_mmod_Bend_Energy-OPLS-2005>
517.351013183594

> <r_mmod_Torsional_Energy-OPLS-2005>
249.922912597656

> <r_mmod_Improper_Torsional_Energy-OPLS-2005>
11.768853187561

> <r_mmod_Van_der_Waal_Energy-OPLS-2005>
100.178970336914

> <r_mmod_Electrostatic_Energy-OPLS-2005>
-415.961120605469

> <r_mmod_Solvation_Energy-OPLS-2005>
-228.627487182617

> <b_mmod_Minimization_Converged-OPLS-2005>
0

> <r_mmod_RMS_Derivative-OPLS-2005>
7.04746389389038

$$$$
35
                    3D
 Structure written by MMmdl.
199208  0  0  1  0            999 V2000
  -30.6953  -14.5829   20.5546 C   0  0  0  0  0  0
  -30.4435  -12.3948   19.4324 C   0  0  0  0  0  0
  -29.4995  -12.4872   18.2159 C   0  0  0  0  0  0
  -28.0247  -12.3131   18.6396 C   0  0  0  0  0  0
  -27.6574  -13.2095   19.8563 C   0  0  2  0  0  0
  -28.7064  -13.0685   20.9873 C   0  0  0  0  0  0
  -25.2553  -13.8227   20.5500 C   0  0  0  0  0  0
  -24.1890  -13.0517   20.9180 C   0  0  0  0  0  0
  -24.6379  -11.6977   20.8756 C   0  0  0  0  0  0
  -23.9061  -10.4388   21.0364 C   0  0  0  0  0  0
  -24.3664   -9.4357   21.9109 C   0  0  0  0  0  0
  -23.6369   -8.2350   22.0710 C   0  0  0  0  0  0
  -22.4360   -8.0344   21.3534 C   0  0  0  0  0  0
  -21.9975   -9.0278   20.4663 C   0  0  0  0  0  0
  -22.7220  -10.2183   20.3024 C   0  0  0  0  0  0
  -21.6898   -6.0803   22.5262 C   0  0  0  0  0  0
  -21.4048   -6.5692   23.8203 C   0  0  0  0  0  0
  -21.3638   -5.6857   24.9175 C   0  0  0  0  0  0
  -21.6045   -4.3088   24.7224 C   0  0  0  0  0  0
  -21.8836   -3.8193   23.4320 C   0  0  0  0  0  0
  -21.9211   -4.7025   22.3422 C   0  0  0  0  0  0
  -22.7887  -13.5257   21.1979 C   0  0  0  0  0  0
  -22.1697   -4.2207   21.0958 F   0  0  0  0  0  0
  -21.5623   -3.4565   25.7700 F   0  0  0  0  0  0
  -30.0195  -13.4055   20.4134 N   0  0  0  0  0  0
  -26.3032  -12.9392   20.3267 N   0  0  0  0  0  0
  -25.9309  -11.6578   20.5856 N   0  0  0  0  0  0
  -22.0417  -12.8288   22.0456 N   0  0  0  0  0  0
  -25.4202  -15.1975   20.3688 N   0  0  0  0  0  0
  -31.8519  -14.7216   20.1428 O   0  0  0  0  0  0
  -21.6726   -6.8888   21.4214 O   0  0  0  0  0  0
  -22.3577  -14.5609   20.6816 O   0  0  0  0  0  0
  -24.6202  -31.8620   23.2102 C   0  0  0  0  0  0
  -25.9072  -32.4762   23.8404 C   0  0  1  0  0  0
  -27.2641  -27.3744   20.1093 C   0  0  0  0  0  0
  -25.5907  -33.8556   24.2374 N   0  0  0  0  0  0
  -23.4086  -30.4855   21.5468 C   0  0  2  0  0  0
  -24.8689  -28.9411   20.1179 C   0  0  0  0  0  0
  -22.7420  -29.4629   22.4976 C   0  0  0  0  0  0
  -18.0259  -28.1292   22.8470 C   0  0  0  0  0  0
  -24.1513  -36.7354   23.2628 C   0  0  0  0  0  0
  -25.9425  -30.8203   21.3627 C   0  0  0  0  0  0
  -26.0301  -29.4441   20.7136 C   0  0  0  0  0  0
  -27.2221  -28.6686   20.7081 C   0  0  0  0  0  0
  -26.0738  -26.9092   19.5023 C   0  0  0  0  0  0
  -24.8900  -27.6737   19.5081 C   0  0  0  0  0  0
  -23.6272  -29.8080   20.1636 C   0  0  0  0  0  0
  -25.4118  -36.3099   24.0354 C   0  0  1  0  0  0
  -20.5866  -28.3603   23.1325 C   0  0  2  0  0  0
  -20.6727  -26.9327   22.5437 C   0  0  0  0  0  0
  -19.5717  -26.6343   21.5192 C   0  0  0  0  0  0
  -18.1889  -26.7836   22.1618 C   0  0  0  0  0  0
  -19.1511  -28.8780   23.2859 C   0  0  0  0  0  0
  -18.9421  -30.1378   23.8873 C   0  0  0  0  0  0
  -17.6423  -30.6502   24.0540 C   0  0  0  0  0  0
  -25.9050  -34.9435   23.5190 C   0  0  0  0  0  0
  -16.5313  -29.9027   23.6270 C   0  0  0  0  0  0
  -16.7245  -28.6441   23.0294 C   0  0  0  0  0  0
  -26.4518  -31.6503   25.0718 C   0  0  0  0  0  0
  -25.3826  -31.3583   26.1514 C   0  0  0  0  0  0
  -27.0318  -30.2938   24.6055 C   0  0  0  0  0  0
  -27.6105  -32.4207   25.7482 C   0  0  0  0  0  0
  -27.5582  -37.1808   24.8441 C   0  0  0  0  0  0
  -21.4160  -29.2984   22.3761 N   0  0  0  0  0  0
  -26.4284  -37.3784   23.9415 N   0  0  0  0  0  0
  -24.6772  -31.0697   22.1005 N   0  0  0  0  0  0
  -23.4213  -28.8153   23.3007 O   0  0  0  0  0  0
  -28.4365  -26.6074   20.1268 O   0  0  0  0  0  0
  -26.5559  -34.8859   22.4717 O   0  0  0  0  0  0
  -23.5413  -32.1357   23.7479 O   0  0  0  0  0  0
  -28.6651  -18.1207   22.8345 C   0  0  0  0  0  0
  -29.9536  -21.6530   15.4619 C   0  0  0  0  0  0
  -28.7411  -19.3398   21.9024 C   0  0  0  0  0  0
  -30.4802  -18.1603   20.5056 C   0  0  0  0  0  0
  -30.2623  -21.8321   16.9370 C   0  0  2  0  0  0
  -30.5367  -16.9546   21.5179 C   0  0  2  0  0  0
  -29.9994  -17.3423   22.9365 C   0  0  0  0  0  0
  -29.9562  -20.4351   16.3499 C   0  0  0  0  0  0
  -31.0072  -18.2277   23.7067 C   0  0  0  0  0  0
  -29.8078  -16.0708   23.7854 C   0  0  0  0  0  0
  -28.6531  -19.6396   16.3695 C   0  0  0  0  0  0
  -31.1595  -19.5038   16.3392 C   0  0  0  0  0  0
  -32.0359  -25.4360   20.7486 C   0  0  0  0  0  0
  -31.0585  -23.6301   22.1861 C   0  0  0  0  0  0
  -29.8299  -24.1921   17.0471 C   0  0  0  0  0  0
  -27.9170  -22.6383   17.5611 C   0  0  0  0  0  0
  -29.5528  -21.6781   20.2500 C   0  0  0  0  0  0
  -29.3129  -20.2428   19.6433 C   0  0  0  0  0  0
  -28.3666  -25.1408   20.0628 C   0  0  0  0  0  0
  -30.7169  -24.7653   21.2033 C   0  0  0  0  0  0
  -29.9101  -22.9335   19.3013 C   0  0  2  0  0  0
  -29.7809  -24.4243   19.9728 C   0  0  1  0  0  0
  -29.4413  -22.8602   17.7565 C   0  0  0  0  0  0
  -29.9893  -15.6424   21.0423 N   0  0  0  0  0  0
  -29.2584  -19.0319   20.5457 N   0  3  2  0  0  0
  -31.4748  -12.5314   19.1028 H   0  0  0  0  0  0
  -30.4007  -11.4119   19.8955 H   0  0  0  0  0  0
  -29.6181  -13.4468   17.7145 H   0  0  0  0  0  0
  -29.7787  -11.7292   17.4840 H   0  0  0  0  0  0
  -27.8787  -11.2618   18.8917 H   0  0  0  0  0  0
  -27.3617  -12.5021   17.7950 H   0  0  0  0  0  0
  -27.6891  -14.2405   19.5001 H   0  0  0  0  0  0
  -28.7241  -12.0506   21.3856 H   0  0  0  0  0  0
  -28.4491  -13.7072   21.8307 H   0  0  0  0  0  0
  -25.2817   -9.5906   22.4690 H   0  0  0  0  0  0
  -24.0184   -7.4806   22.7461 H   0  0  0  0  0  0
  -21.0873   -8.8792   19.8995 H   0  0  0  0  0  0
  -22.3618  -10.9741   19.6243 H   0  0  0  0  0  0
  -21.2033   -7.6189   23.9751 H   0  0  0  0  0  0
  -21.1424   -6.0528   25.9059 H   0  0  0  0  0  0
  -22.0598   -2.7615   23.2849 H   0  0  0  0  0  0
  -22.3862  -11.9992   22.5044 H   0  0  0  0  0  0
  -21.0938  -13.1183   22.2431 H   0  0  0  0  0  0
  -24.6466  -15.8440   20.4929 H   0  0  0  0  0  0
  -26.2184  -15.6296   19.9180 H   0  0  0  0  0  0
  -26.7111  -32.5541   23.1134 H   0  0  0  0  0  0
  -24.9990  -33.9716   25.0488 H   0  0  0  0  0  0
  -22.6921  -31.2990   21.3972 H   0  0  0  0  0  0
  -23.3719  -35.9728   23.3250 H   0  0  0  0  0  0
  -24.3625  -36.9017   22.2039 H   0  0  0  0  0  0
  -23.7287  -37.6568   23.6682 H   0  0  0  0  0  0
  -26.0362  -31.5794   20.5834 H   0  0  0  0  0  0
  -26.8365  -30.8996   21.9730 H   0  0  0  0  0  0
  -28.1061  -29.0481   21.1967 H   0  0  0  0  0  0
  -26.0296  -25.9495   19.0049 H   0  0  0  0  0  0
  -24.0040  -27.2878   19.0224 H   0  0  0  0  0  0
  -23.7173  -30.5824   19.4024 H   0  0  0  0  0  0
  -22.7568  -29.2212   19.8662 H   0  0  0  0  0  0
  -25.1249  -36.1962   25.0833 H   0  0  0  0  0  0
  -20.9861  -28.3089   24.1480 H   0  0  0  0  0  0
  -20.5532  -26.2157   23.3580 H   0  0  0  0  0  0
  -21.6589  -26.7256   22.1264 H   0  0  0  0  0  0
  -19.6875  -25.6277   21.1145 H   0  0  0  0  0  0
  -19.6689  -27.3196   20.6750 H   0  0  0  0  0  0
  -17.4147  -26.6515   21.4045 H   0  0  0  0  0  0
  -18.0342  -26.0003   22.9050 H   0  0  0  0  0  0
  -19.7907  -30.7169   24.2238 H   0  0  0  0  0  0
  -17.4992  -31.6183   24.5119 H   0  0  0  0  0  0
  -15.5309  -30.2902   23.7647 H   0  0  0  0  0  0
  -15.8626  -28.0761   22.6992 H   0  0  0  0  0  0
  -24.6005  -30.6875   25.7947 H   0  0  0  0  0  0
  -24.9023  -32.2713   26.5039 H   0  0  0  0  0  0
  -25.8295  -30.8765   27.0210 H   0  0  0  0  0  0
  -26.2865  -29.6700   24.1105 H   0  0  0  0  0  0
  -27.4051  -29.7131   25.4487 H   0  0  0  0  0  0
  -27.8730  -30.4234   23.9234 H   0  0  0  0  0  0
  -27.2713  -33.3460   26.2132 H   0  0  0  0  0  0
  -28.3901  -32.6791   25.0314 H   0  0  0  0  0  0
  -28.0763  -31.8243   26.5322 H   0  0  0  0  0  0
  -28.2539  -38.0149   24.7468 H   0  0  0  0  0  0
  -28.1106  -36.2650   24.6274 H   0  0  0  0  0  0
  -27.2288  -37.1472   25.8832 H   0  0  0  0  0  0
  -20.9285  -29.8826   21.7100 H   0  0  0  0  0  0
  -26.0166  -38.2859   24.1390 H   0  0  0  0  0  0
  -27.8421  -17.4647   22.5493 H   0  0  0  0  0  0
  -28.4104  -18.5152   23.8241 H   0  0  0  0  0  0
  -30.7601  -21.7847   14.7486 H   0  0  0  0  0  0
  -28.9947  -22.0067   15.0937 H   0  0  0  0  0  0
  -29.3620  -20.0908   22.3832 H   0  0  0  0  0  0
  -27.7459  -19.7804   21.7991 H   0  0  0  0  0  0
  -30.6530  -17.7995   19.4925 H   0  0  0  0  0  0
  -31.3268  -18.8151   20.7167 H   0  0  0  0  0  0
  -31.3273  -21.9597   17.1406 H   0  0  0  0  0  0
  -31.6024  -16.7499   21.6588 H   0  0  0  0  0  0
  -31.2551  -19.1568   23.1957 H   0  0  0  0  0  0
  -31.9512  -17.7056   23.8727 H   0  0  0  0  0  0
  -30.5990  -18.5174   24.6791 H   0  0  0  0  0  0
  -28.9857  -15.4513   23.4299 H   0  0  0  0  0  0
  -29.6178  -16.3052   24.8295 H   0  0  0  0  0  0
  -30.7261  -15.4773   23.7530 H   0  0  0  0  0  0
  -28.5753  -19.0482   17.2791 H   0  0  0  0  0  0
  -28.6431  -18.9433   15.5305 H   0  0  0  0  0  0
  -27.7702  -20.2679   16.2518 H   0  0  0  0  0  0
  -31.9728  -19.9580   15.7732 H   0  0  0  0  0  0
  -30.9376  -18.5458   15.8738 H   0  0  0  0  0  0
  -31.5295  -19.3431   17.3542 H   0  0  0  0  0  0
  -32.7045  -25.6344   21.5890 H   0  0  0  0  0  0
  -31.8411  -26.3994   20.2747 H   0  0  0  0  0  0
  -32.5810  -24.8320   20.0246 H   0  0  0  0  0  0
  -31.7561  -23.9326   22.9701 H   0  0  0  0  0  0
  -31.6191  -22.8663   21.6664 H   0  0  0  0  0  0
  -30.1638  -23.2166   22.6610 H   0  0  0  0  0  0
  -29.8274  -24.1452   15.9606 H   0  0  0  0  0  0
  -30.8512  -24.4831   17.2953 H   0  0  0  0  0  0
  -29.1563  -25.0025   17.3130 H   0  0  0  0  0  0
  -27.6572  -22.7767   16.5133 H   0  0  0  0  0  0
  -27.2608  -23.3142   18.0989 H   0  0  0  0  0  0
  -27.5857  -21.6455   17.8447 H   0  0  0  0  0  0
  -30.3620  -21.4726   20.9567 H   0  0  0  0  0  0
  -28.7024  -21.9764   20.8746 H   0  0  0  0  0  0
  -30.0232  -20.0439   18.8458 H   0  0  0  0  0  0
  -28.3217  -20.2585   19.2164 H   0  0  0  0  0  0
  -27.7791  -24.7512   20.8994 H   0  0  0  0  0  0
  -27.8169  -24.8907   19.1684 H   0  0  0  0  0  0
  -30.2042  -25.5136   21.8069 H   0  0  0  0  0  0
  -30.9971  -22.8326   19.2115 H   0  0  0  0  0  0
  -30.2295  -25.0844   19.2444 H   0  0  0  0  0  0
  -29.0401  -15.4256   21.3037 H   0  0  0  0  0  0
  -28.5513  -18.4504   20.1133 H   0  0  0  0  0  0
  1 25  1  0  0  0
  1 30  2  0  0  0
  1 94  1  0  0  0
  2  3  1  0  0  0
  2 25  1  0  0  0
  2 96  1  0  0  0
  2 97  1  0  0  0
  3  4  1  0  0  0
  3 98  1  0  0  0
  3 99  1  0  0  0
  4  5  1  0  0  0
  4100  1  0  0  0
  4101  1  0  0  0
  5  6  1  0  0  0
  5 26  1  0  0  0
  5102  1  0  0  0
  6 25  1  0  0  0
  6103  1  0  0  0
  6104  1  0  0  0
  7  8  2  0  0  0
  7 26  1  0  0  0
  7 29  1  0  0  0
  8  9  1  0  0  0
  8 22  1  0  0  0
  9 10  1  0  0  0
  9 27  2  0  0  0
 10 11  2  0  0  0
 10 15  1  0  0  0
 11 12  1  0  0  0
 11105  1  0  0  0
 12 13  2  0  0  0
 12106  1  0  0  0
 13 14  1  0  0  0
 13 31  1  0  0  0
 14 15  2  0  0  0
 14107  1  0  0  0
 15108  1  0  0  0
 16 17  2  0  0  0
 16 21  1  0  0  0
 16 31  1  0  0  0
 17 18  1  0  0  0
 17109  1  0  0  0
 18 19  2  0  0  0
 18110  1  0  0  0
 19 20  1  0  0  0
 19 24  1  0  0  0
 20 21  2  0  0  0
 20111  1  0  0  0
 21 23  1  0  0  0
 22 28  1  0  0  0
 22 32  2  0  0  0
 26 27  1  0  0  0
 28112  1  0  0  0
 28113  1  0  0  0
 29114  1  0  0  0
 29115  1  0  0  0
 33 34  1  0  0  0
 33 66  1  0  0  0
 33 70  2  0  0  0
 34 36  1  0  0  0
 34 59  1  0  0  0
 34116  1  0  0  0
 35 44  2  0  0  0
 35 45  1  0  0  0
 35 68  1  0  0  0
 36 56  1  0  0  0
 36117  1  0  0  0
 37 39  1  0  0  0
 37 47  1  0  0  0
 37 66  1  0  0  0
 37118  1  0  0  0
 38 43  2  0  0  0
 38 46  1  0  0  0
 38 47  1  0  0  0
 39 64  1  0  0  0
 39 67  2  0  0  0
 40 52  1  0  0  0
 40 53  2  0  0  0
 40 58  1  0  0  0
 41119  1  0  0  0
 41120  1  0  0  0
 41121  1  0  0  0
 41 48  1  0  0  0
 42 43  1  0  0  0
 42 66  1  0  0  0
 42122  1  0  0  0
 42123  1  0  0  0
 43 44  1  0  0  0
 44124  1  0  0  0
 45 46  2  0  0  0
 45125  1  0  0  0
 46126  1  0  0  0
 47127  1  0  0  0
 47128  1  0  0  0
 48 56  1  0  0  0
 48 65  1  0  0  0
 48129  1  0  0  0
 49 50  1  0  0  0
 49 53  1  0  0  0
 49 64  1  0  0  0
 49130  1  0  0  0
 50 51  1  0  0  0
 50131  1  0  0  0
 50132  1  0  0  0
 51 52  1  0  0  0
 51133  1  0  0  0
 51134  1  0  0  0
 52135  1  0  0  0
 52136  1  0  0  0
 53 54  1  0  0  0
 54 55  2  0  0  0
 54137  1  0  0  0
 55 57  1  0  0  0
 55138  1  0  0  0
 56 69  2  0  0  0
 57 58  2  0  0  0
 57139  1  0  0  0
 58140  1  0  0  0
 59 60  1  0  0  0
 59 61  1  0  0  0
 59 62  1  0  0  0
 60141  1  0  0  0
 60142  1  0  0  0
 60143  1  0  0  0
 61144  1  0  0  0
 61145  1  0  0  0
 61146  1  0  0  0
 62147  1  0  0  0
 62148  1  0  0  0
 62149  1  0  0  0
 63 65  1  0  0  0
 63150  1  0  0  0
 63151  1  0  0  0
 63152  1  0  0  0
 64153  1  0  0  0
 65154  1  0  0  0
 68 89  1  0  0  0
 71 73  1  0  0  0
 71 77  1  0  0  0
 71155  1  0  0  0
 71156  1  0  0  0
 72 78  1  0  0  0
 72157  1  0  0  0
 72158  1  0  0  0
 72 75  1  0  0  0
 73 95  1  0  0  0
 73159  1  0  0  0
 73160  1  0  0  0
 74 76  1  0  0  0
 74 95  1  0  0  0
 74161  1  0  0  0
 74162  1  0  0  0
 75 78  1  0  0  0
 75 93  1  0  0  0
 75163  1  0  0  0
 76 77  1  0  0  0
 76 94  1  0  0  0
 76164  1  0  0  0
 77 79  1  0  0  0
 77 80  1  0  0  0
 78 81  1  0  0  0
 78 82  1  0  0  0
 79165  1  0  0  0
 79166  1  0  0  0
 79167  1  0  0  0
 80168  1  0  0  0
 80169  1  0  0  0
 80170  1  0  0  0
 81171  1  0  0  0
 81172  1  0  0  0
 81173  1  0  0  0
 82174  1  0  0  0
 82175  1  0  0  0
 82176  1  0  0  0
 83177  1  0  0  0
 83178  1  0  0  0
 83179  1  0  0  0
 83 90  1  0  0  0
 84 90  1  0  0  0
 84180  1  0  0  0
 84181  1  0  0  0
 84182  1  0  0  0
 85183  1  0  0  0
 85184  1  0  0  0
 85185  1  0  0  0
 85 93  1  0  0  0
 86 93  1  0  0  0
 86186  1  0  0  0
 86187  1  0  0  0
 86188  1  0  0  0
 87 88  1  0  0  0
 87189  1  0  0  0
 87190  1  0  0  0
 87 91  1  0  0  0
 88191  1  0  0  0
 88192  1  0  0  0
 88 95  1  0  0  0
 89193  1  0  0  0
 89194  1  0  0  0
 89 92  1  0  0  0
 90 92  1  0  0  0
 90195  1  0  0  0
 91 92  1  0  0  0
 91 93  1  0  0  0
 91196  1  0  0  0
 92197  1  0  0  0
 94198  1  0  0  0
 95199  1  0  0  0
M  CHG  1  95   1
M  ISO  4   1 100  68 101  89 101  94 100
M  END
> <chiral flag>
0

> <version>
0

> <s_m_source_file>
/data/baiqing/PycharmProjects/Reinvent-master-3.2/result/LINK_invent/BTK/process_docking_weight1_custom_sum_contain_oxygen_bond_distance_aromatic_linkinvent_7_9_3/rearranged_h_0020.sdf

> <i_m_source_file_index>
36

> <r_mmod_Potential_Energy-OPLS-2005>
239.47038269043

> <r_mmod_Stretch_Energy-OPLS-2005>
102.796173095703

> <r_mmod_Bend_Energy-OPLS-2005>
246.768173217773

> <r_mmod_Torsional_Energy-OPLS-2005>
426.938018798828

> <r_mmod_Improper_Torsional_Energy-OPLS-2005>
3.7386326789856

> <r_mmod_Van_der_Waal_Energy-OPLS-2005>
171.952407836914

> <r_mmod_Electrostatic_Energy-OPLS-2005>
-334.335540771484

> <r_mmod_Solvation_Energy-OPLS-2005>
-408.943145751953

> <b_mmod_Minimization_Converged-OPLS-2005>
0

> <r_mmod_RMS_Derivative-OPLS-2005>
13.4737091064453

$$$$
36
                    3D
 Structure written by MMmdl.
199207  0  0  1  0            999 V2000
  -30.6163  -14.7053   20.4746 C   0  0  0  0  0  0
  -30.4338  -12.4384   19.4656 C   0  0  0  0  0  0
  -29.5052  -12.5275   18.2348 C   0  0  0  0  0  0
  -28.0311  -12.3497   18.6474 C   0  0  0  0  0  0
  -27.6477  -13.2282   19.8673 C   0  0  2  0  0  0
  -28.6938  -13.1314   21.0012 C   0  0  0  0  0  0
  -25.2524  -13.8177   20.5723 C   0  0  0  0  0  0
  -24.1801  -13.0423   20.9195 C   0  0  0  0  0  0
  -24.6389  -11.6907   20.8729 C   0  0  0  0  0  0
  -23.9048  -10.4282   21.0377 C   0  0  0  0  0  0
  -24.3595   -9.4215   21.9173 C   0  0  0  0  0  0
  -23.6291   -8.2240   22.0753 C   0  0  0  0  0  0
  -22.4282   -8.0260   21.3525 C   0  0  0  0  0  0
  -21.9912   -9.0220   20.4618 C   0  0  0  0  0  0
  -22.7215  -10.2118   20.3036 C   0  0  0  0  0  0
  -21.6855   -6.0712   22.5258 C   0  0  0  0  0  0
  -21.3999   -6.5623   23.8184 C   0  0  0  0  0  0
  -21.3683   -5.6783   24.9156 C   0  0  0  0  0  0
  -21.6054   -4.3042   24.7220 C   0  0  0  0  0  0
  -21.8820   -3.8134   23.4337 C   0  0  0  0  0  0
  -21.9201   -4.6939   22.3385 C   0  0  0  0  0  0
  -22.7814  -13.5201   21.1854 C   0  0  0  0  0  0
  -22.1662   -4.2134   21.0954 F   0  0  0  0  0  0
  -21.5660   -3.4530   25.7732 F   0  0  0  0  0  0
  -30.0015  -13.4770   20.4266 N   0  0  0  0  0  0
  -26.2965  -12.9379   20.3373 N   0  0  0  0  0  0
  -25.9334  -11.6514   20.5781 N   0  0  0  0  0  0
  -22.0465  -12.8156   22.0391 N   0  0  0  0  0  0
  -25.4222  -15.1901   20.4109 N   0  0  0  0  0  0
  -31.7834  -14.8376   20.0993 O   0  0  0  0  0  0
  -21.6644   -6.8854   21.4227 O   0  0  0  0  0  0
  -22.3486  -14.5530   20.6745 O   0  0  0  0  0  0
  -24.6287  -31.8583   23.2005 C   0  0  0  0  0  0
  -25.9132  -32.4766   23.8356 C   0  0  1  0  0  0
  -27.2235  -27.2740   20.1330 C   0  0  0  0  0  0
  -25.5930  -33.8555   24.2277 N   0  0  0  0  0  0
  -23.4251  -30.4781   21.5478 C   0  0  2  0  0  0
  -24.8750  -28.9315   20.1136 C   0  0  0  0  0  0
  -22.7502  -29.4601   22.4990 C   0  0  0  0  0  0
  -18.0280  -28.1378   22.8476 C   0  0  0  0  0  0
  -24.1492  -36.7268   23.2643 C   0  0  0  0  0  0
  -25.9717  -30.7731   21.3821 C   0  0  0  0  0  0
  -26.0452  -29.3988   20.7240 C   0  0  0  0  0  0
  -27.2236  -28.5836   20.7197 C   0  0  0  0  0  0
  -26.0279  -26.8816   19.4860 C   0  0  0  0  0  0
  -24.8737  -27.6825   19.4805 C   0  0  0  0  0  0
  -23.6400  -29.8083   20.1659 C   0  0  0  0  0  0
  -25.4116  -36.3058   24.0327 C   0  0  1  0  0  0
  -20.5884  -28.3667   23.1303 C   0  0  2  0  0  0
  -20.6779  -26.9389   22.5415 C   0  0  0  0  0  0
  -19.5748  -26.6369   21.5228 C   0  0  0  0  0  0
  -18.1921  -26.7931   22.1602 C   0  0  0  0  0  0
  -19.1535  -28.8848   23.2863 C   0  0  0  0  0  0
  -18.9463  -30.1468   23.8859 C   0  0  0  0  0  0
  -17.6460  -30.6583   24.0561 C   0  0  0  0  0  0
  -25.9058  -34.9443   23.5105 C   0  0  0  0  0  0
  -16.5351  -29.9073   23.6348 C   0  0  0  0  0  0
  -16.7267  -28.6495   23.0345 C   0  0  0  0  0  0
  -26.4486  -31.6575   25.0740 C   0  0  0  0  0  0
  -25.3681  -31.3705   26.1427 C   0  0  0  0  0  0
  -27.0363  -30.3007   24.6226 C   0  0  0  0  0  0
  -27.6018  -32.4323   25.7530 C   0  0  0  0  0  0
  -27.5584  -37.1777   24.8453 C   0  0  0  0  0  0
  -21.4211  -29.3022   22.3729 N   0  0  0  0  0  0
  -26.4277  -37.3768   23.9424 N   0  0  0  0  0  0
  -24.6946  -31.0552   22.0985 N   0  0  0  0  0  0
  -23.4197  -28.8137   23.3090 O   0  0  0  0  0  0
  -28.3228  -26.3840   20.1993 O   0  0  0  0  0  0
  -26.5630  -34.8907   22.4675 O   0  0  0  0  0  0
  -23.5442  -32.1402   23.7299 O   0  0  0  0  0  0
  -29.7319  -20.9801   20.4224 C   0  0  0  0  0  0
  -29.2670  -24.2399   16.9432 C   0  0  0  0  0  0
  -28.2786  -23.1331   17.3257 C   0  0  0  0  0  0
  -30.5448  -22.3431   17.7327 C   0  0  0  0  0  0
  -30.5318  -23.4296   16.6418 C   0  0  2  0  0  0
  -29.0623  -22.0697   18.1551 C   0  0  1  0  0  0
  -30.4057  -20.4328   25.9539 C   0  0  0  0  0  0
  -28.9252  -18.8501   15.7753 C   0  0  0  0  0  0
  -27.1352  -20.3141   18.0209 C   0  0  0  0  0  0
  -30.2715  -25.1566   22.2866 C   0  0  0  0  0  0
  -28.7454  -23.2379   22.8748 C   0  0  0  0  0  0
  -30.9309  -19.5373   24.8231 C   0  0  0  0  0  0
  -28.7914  -20.3452   16.1141 C   0  0  0  0  0  0
  -29.9961  -19.5116   23.6005 C   0  0  0  0  0  0
  -30.4976  -18.5764   22.4779 C   0  0  0  0  0  0
  -30.0276  -17.2526   20.2824 C   0  0  0  0  0  0
  -28.0543  -24.9056   20.1970 C   0  0  0  0  0  0
  -28.9304  -22.2246   19.7630 C   0  0  2  0  0  0
  -28.5978  -20.6363   17.6334 C   0  0  1  0  0  0
  -29.7377  -23.7843   21.8328 C   0  0  0  0  0  0
  -29.2066  -23.7643   20.3567 C   0  0  2  0  0  0
  -29.5502  -18.4355   21.2579 C   0  0  2  0  0  0
  -29.1183  -19.7651   20.6452 N   0  0  0  0  0  0
  -29.8267  -15.8096   20.7276 N   0  0  0  0  0  0
  -31.7723  -24.2241   16.5807 N   0  3  0  0  0  0
  -30.9342  -21.1016   20.6594 O   0  0  0  0  0  0
  -31.4755  -12.5677   19.1614 H   0  0  0  0  0  0
  -30.3751  -11.4520   19.9268 H   0  0  0  0  0  0
  -29.7812  -11.7782   17.4926 H   0  0  0  0  0  0
  -29.6322  -13.4952   17.7463 H   0  0  0  0  0  0
  -27.8787  -11.2966   18.8855 H   0  0  0  0  0  0
  -27.3754  -12.5701   17.8058 H   0  0  0  0  0  0
  -27.6485  -14.2574   19.5096 H   0  0  0  0  0  0
  -28.7212  -12.1253   21.4222 H   0  0  0  0  0  0
  -28.4368  -13.7999   21.8255 H   0  0  0  0  0  0
  -25.2731   -9.5703   22.4756 H   0  0  0  0  0  0
  -24.0009   -7.4626   22.7475 H   0  0  0  0  0  0
  -21.0862   -8.8689   19.8906 H   0  0  0  0  0  0
  -22.3650  -10.9638   19.6136 H   0  0  0  0  0  0
  -21.1974   -7.6128   23.9684 H   0  0  0  0  0  0
  -21.1512   -6.0511   25.9056 H   0  0  0  0  0  0
  -22.0602   -2.7598   23.2834 H   0  0  0  0  0  0
  -22.4112  -11.9800   22.4721 H   0  0  0  0  0  0
  -21.1090  -13.1131   22.2625 H   0  0  0  0  0  0
  -24.6553  -15.8452   20.5111 H   0  0  0  0  0  0
  -26.2672  -15.6229   20.0618 H   0  0  0  0  0  0
  -26.7200  -32.5418   23.1099 H   0  0  0  0  0  0
  -25.0090  -33.9736   25.0429 H   0  0  0  0  0  0
  -22.7172  -31.2970   21.4012 H   0  0  0  0  0  0
  -23.3791  -35.9559   23.3241 H   0  0  0  0  0  0
  -24.3595  -36.8959   22.2070 H   0  0  0  0  0  0
  -23.7195  -37.6423   23.6713 H   0  0  0  0  0  0
  -26.1114  -31.5350   20.6150 H   0  0  0  0  0  0
  -26.8481  -30.8212   22.0162 H   0  0  0  0  0  0
  -28.1196  -28.9356   21.2097 H   0  0  0  0  0  0
  -25.9404  -25.9349   18.9783 H   0  0  0  0  0  0
  -23.9807  -27.3225   18.9875 H   0  0  0  0  0  0
  -23.7437  -30.5796   19.4019 H   0  0  0  0  0  0
  -22.7627  -29.2268   19.8760 H   0  0  0  0  0  0
  -25.1298  -36.1913   25.0822 H   0  0  0  0  0  0
  -20.9936  -28.3230   24.1439 H   0  0  0  0  0  0
  -20.5713  -26.2268   23.3611 H   0  0  0  0  0  0
  -21.6642  -26.7448   22.1197 H   0  0  0  0  0  0
  -19.6925  -25.6281   21.1261 H   0  0  0  0  0  0
  -19.6720  -27.3185   20.6762 H   0  0  0  0  0  0
  -17.4210  -26.6710   21.3984 H   0  0  0  0  0  0
  -18.0272  -26.0070   22.8988 H   0  0  0  0  0  0
  -19.7930  -30.7312   24.2200 H   0  0  0  0  0  0
  -17.5002  -31.6278   24.5145 H   0  0  0  0  0  0
  -15.5350  -30.2961   23.7720 H   0  0  0  0  0  0
  -15.8654  -28.0847   22.7039 H   0  0  0  0  0  0
  -24.5896  -30.7021   25.7722 H   0  0  0  0  0  0
  -24.8815  -32.2862   26.4798 H   0  0  0  0  0  0
  -25.7961  -30.8909   27.0239 H   0  0  0  0  0  0
  -26.2979  -29.6737   24.1210 H   0  0  0  0  0  0
  -27.4030  -29.7271   25.4752 H   0  0  0  0  0  0
  -27.8848  -30.4315   23.9501 H   0  0  0  0  0  0
  -27.2622  -33.3639   26.2072 H   0  0  0  0  0  0
  -28.3853  -32.6854   25.0373 H   0  0  0  0  0  0
  -28.0655  -31.8464   26.5482 H   0  0  0  0  0  0
  -28.2527  -38.0145   24.7585 H   0  0  0  0  0  0
  -28.1159  -36.2677   24.6177 H   0  0  0  0  0  0
  -27.2319  -37.1301   25.8855 H   0  0  0  0  0  0
  -20.9414  -29.8732   21.6913 H   0  0  0  0  0  0
  -26.0161  -38.2834   24.1444 H   0  0  0  0  0  0
  -29.4182  -24.9394   17.7639 H   0  0  0  0  0  0
  -28.9242  -24.8183   16.0833 H   0  0  0  0  0  0
  -27.9617  -22.7260   16.3693 H   0  0  0  0  0  0
  -27.3293  -23.4409   17.7511 H   0  0  0  0  0  0
  -31.1338  -22.6971   18.5759 H   0  0  0  0  0  0
  -31.0635  -21.4465   17.3953 H   0  0  0  0  0  0
  -30.4069  -22.9518   15.6696 H   0  0  0  0  0  0
  -31.1266  -20.4929   26.7714 H   0  0  0  0  0  0
  -29.4772  -20.0373   26.3666 H   0  0  0  0  0  0
  -30.2154  -21.4493   25.6055 H   0  0  0  0  0  0
  -29.0998  -18.7154   14.7078 H   0  0  0  0  0  0
  -28.0233  -18.2891   16.0220 H   0  0  0  0  0  0
  -29.7606  -18.3861   16.3026 H   0  0  0  0  0  0
  -27.0052  -20.1881   19.0940 H   0  0  0  0  0  0
  -26.7898  -19.3842   17.5692 H   0  0  0  0  0  0
  -26.4469  -21.0965   17.7010 H   0  0  0  0  0  0
  -30.8295  -25.0640   23.2201 H   0  0  0  0  0  0
  -29.4658  -25.8688   22.4679 H   0  0  0  0  0  0
  -30.9485  -25.5908   21.5498 H   0  0  0  0  0  0
  -29.2481  -23.0780   23.8293 H   0  0  0  0  0  0
  -28.3147  -22.2825   22.5797 H   0  0  0  0  0  0
  -27.9252  -23.9311   23.0588 H   0  0  0  0  0  0
  -31.0701  -18.5268   25.2120 H   0  0  0  0  0  0
  -31.9172  -19.8898   24.5185 H   0  0  0  0  0  0
  -27.9602  -20.7476   15.5340 H   0  0  0  0  0  0
  -29.6843  -20.8327   15.7297 H   0  0  0  0  0  0
  -29.8991  -20.5276   23.2227 H   0  0  0  0  0  0
  -28.9976  -19.2045   23.9111 H   0  0  0  0  0  0
  -30.6538  -17.5826   22.9008 H   0  0  0  0  0  0
  -31.4799  -18.9060   22.1394 H   0  0  0  0  0  0
  -31.0701  -17.4100   20.0023 H   0  0  0  0  0  0
  -29.4704  -17.3492   19.3475 H   0  0  0  0  0  0
  -27.2869  -24.7106   20.9491 H   0  0  0  0  0  0
  -27.5617  -24.7165   19.2631 H   0  0  0  0  0  0
  -27.8881  -22.0394   20.0207 H   0  0  0  0  0  0
  -29.2374  -19.8874   18.0978 H   0  0  0  0  0  0
  -30.6186  -23.1491   21.8778 H   0  0  0  0  0  0
  -30.0403  -24.1472   19.7742 H   0  0  0  0  0  0
  -28.6075  -18.0726   21.6675 H   0  0  0  0  0  0
  -28.1505  -19.7560   20.3534 H   0  0  0  0  0  0
  -28.8942  -15.5869   21.0398 H   0  0  0  0  0  0
  -31.9273  -24.7518   17.4204 H   0  0  0  0  0  0
  -31.7438  -24.8598   15.8028 H   0  0  0  0  0  0
  -32.5584  -23.6141   16.4385 H   0  0  0  0  0  0
  1 25  1  0  0  0
  1 30  2  0  0  0
  1 94  1  0  0  0
  2  3  1  0  0  0
  2 25  1  0  0  0
  2 97  1  0  0  0
  2 98  1  0  0  0
  3  4  1  0  0  0
  3 99  1  0  0  0
  3100  1  0  0  0
  4  5  1  0  0  0
  4101  1  0  0  0
  4102  1  0  0  0
  5  6  1  0  0  0
  5 26  1  0  0  0
  5103  1  0  0  0
  6 25  1  0  0  0
  6104  1  0  0  0
  6105  1  0  0  0
  7  8  2  0  0  0
  7 26  1  0  0  0
  7 29  1  0  0  0
  8  9  1  0  0  0
  8 22  1  0  0  0
  9 10  1  0  0  0
  9 27  2  0  0  0
 10 11  2  0  0  0
 10 15  1  0  0  0
 11 12  1  0  0  0
 11106  1  0  0  0
 12 13  2  0  0  0
 12107  1  0  0  0
 13 14  1  0  0  0
 13 31  1  0  0  0
 14 15  2  0  0  0
 14108  1  0  0  0
 15109  1  0  0  0
 16 17  2  0  0  0
 16 21  1  0  0  0
 16 31  1  0  0  0
 17 18  1  0  0  0
 17110  1  0  0  0
 18 19  2  0  0  0
 18111  1  0  0  0
 19 20  1  0  0  0
 19 24  1  0  0  0
 20 21  2  0  0  0
 20112  1  0  0  0
 21 23  1  0  0  0
 22 28  1  0  0  0
 22 32  2  0  0  0
 26 27  1  0  0  0
 28113  1  0  0  0
 28114  1  0  0  0
 29115  1  0  0  0
 29116  1  0  0  0
 33 34  1  0  0  0
 33 66  1  0  0  0
 33 70  2  0  0  0
 34 36  1  0  0  0
 34 59  1  0  0  0
 34117  1  0  0  0
 35 44  2  0  0  0
 35 45  1  0  0  0
 35 68  1  0  0  0
 36 56  1  0  0  0
 36118  1  0  0  0
 37 39  1  0  0  0
 37 47  1  0  0  0
 37 66  1  0  0  0
 37119  1  0  0  0
 38 43  2  0  0  0
 38 46  1  0  0  0
 38 47  1  0  0  0
 39 64  1  0  0  0
 39 67  2  0  0  0
 40 52  1  0  0  0
 40 53  2  0  0  0
 40 58  1  0  0  0
 41120  1  0  0  0
 41121  1  0  0  0
 41122  1  0  0  0
 41 48  1  0  0  0
 42 43  1  0  0  0
 42 66  1  0  0  0
 42123  1  0  0  0
 42124  1  0  0  0
 43 44  1  0  0  0
 44125  1  0  0  0
 45 46  2  0  0  0
 45126  1  0  0  0
 46127  1  0  0  0
 47128  1  0  0  0
 47129  1  0  0  0
 48 56  1  0  0  0
 48 65  1  0  0  0
 48130  1  0  0  0
 49 50  1  0  0  0
 49 53  1  0  0  0
 49 64  1  0  0  0
 49131  1  0  0  0
 50 51  1  0  0  0
 50132  1  0  0  0
 50133  1  0  0  0
 51 52  1  0  0  0
 51134  1  0  0  0
 51135  1  0  0  0
 52136  1  0  0  0
 52137  1  0  0  0
 53 54  1  0  0  0
 54 55  2  0  0  0
 54138  1  0  0  0
 55 57  1  0  0  0
 55139  1  0  0  0
 56 69  2  0  0  0
 57 58  2  0  0  0
 57140  1  0  0  0
 58141  1  0  0  0
 59 60  1  0  0  0
 59 61  1  0  0  0
 59 62  1  0  0  0
 60142  1  0  0  0
 60143  1  0  0  0
 60144  1  0  0  0
 61145  1  0  0  0
 61146  1  0  0  0
 61147  1  0  0  0
 62148  1  0  0  0
 62149  1  0  0  0
 62150  1  0  0  0
 63 65  1  0  0  0
 63151  1  0  0  0
 63152  1  0  0  0
 63153  1  0  0  0
 64154  1  0  0  0
 65155  1  0  0  0
 68 87  1  0  0  0
 71 93  1  0  0  0
 71 96  2  0  0  0
 71 88  1  0  0  0
 72 73  1  0  0  0
 72 75  1  0  0  0
 72156  1  0  0  0
 72157  1  0  0  0
 73158  1  0  0  0
 73159  1  0  0  0
 73 76  1  0  0  0
 74 75  1  0  0  0
 74 76  1  0  0  0
 74160  1  0  0  0
 74161  1  0  0  0
 75 95  1  0  0  0
 75162  1  0  0  0
 76 88  1  0  0  0
 76 89  1  0  0  0
 77 82  1  0  0  0
 77163  1  0  0  0
 77164  1  0  0  0
 77165  1  0  0  0
 78 83  1  0  0  0
 78166  1  0  0  0
 78167  1  0  0  0
 78168  1  0  0  0
 79169  1  0  0  0
 79170  1  0  0  0
 79171  1  0  0  0
 79 89  1  0  0  0
 80172  1  0  0  0
 80173  1  0  0  0
 80174  1  0  0  0
 80 90  1  0  0  0
 81 90  1  0  0  0
 81175  1  0  0  0
 81176  1  0  0  0
 81177  1  0  0  0
 82 84  1  0  0  0
 82178  1  0  0  0
 82179  1  0  0  0
 83 89  1  0  0  0
 83180  1  0  0  0
 83181  1  0  0  0
 84 85  1  0  0  0
 84182  1  0  0  0
 84183  1  0  0  0
 85184  1  0  0  0
 85185  1  0  0  0
 85 92  1  0  0  0
 86 92  1  0  0  0
 86 94  1  0  0  0
 86186  1  0  0  0
 86187  1  0  0  0
 87188  1  0  0  0
 87189  1  0  0  0
 87 91  1  0  0  0
 88 91  1  0  0  0
 88190  1  0  0  0
 89191  1  0  0  0
 90 91  1  0  0  0
 90192  1  0  0  0
 91193  1  0  0  0
 92 93  1  0  0  0
 92194  1  0  0  0
 93195  1  0  0  0
 94196  1  0  0  0
 95197  1  0  0  0
 95198  1  0  0  0
 95199  1  0  0  0
M  CHG  1  95   1
M  ISO  4   1 100  68 101  87 101  94 100
M  END
> <chiral flag>
0

> <version>
0

> <s_m_source_file>
/data/baiqing/PycharmProjects/Reinvent-master-3.2/result/LINK_invent/BTK/process_docking_weight1_custom_sum_contain_oxygen_bond_distance_aromatic_linkinvent_7_9_3/rearranged_h_0020.sdf

> <i_m_source_file_index>
37

> <r_mmod_Potential_Energy-OPLS-2005>
9.06825733184814

> <r_mmod_Stretch_Energy-OPLS-2005>
154.477554321289

> <r_mmod_Bend_Energy-OPLS-2005>
231.731140136719

> <r_mmod_Torsional_Energy-OPLS-2005>
301.736297607422

> <r_mmod_Improper_Torsional_Energy-OPLS-2005>
6.46062803268433

> <r_mmod_Van_der_Waal_Energy-OPLS-2005>
134.836791992188

> <r_mmod_Electrostatic_Energy-OPLS-2005>
-408.543640136719

> <r_mmod_Solvation_Energy-OPLS-2005>
-484.463745117188

> <b_mmod_Minimization_Converged-OPLS-2005>
0

> <r_mmod_RMS_Derivative-OPLS-2005>
3.65486907958984

$$$$
37
                    3D
 Structure written by MMmdl.
153161  0  0  1  0            999 V2000
  -30.4281  -15.1716   20.3879 C   0  0  0  0  0  0
  -30.4539  -12.7381   19.5231 C   0  0  0  0  0  0
  -29.5367  -12.5593   18.2859 C   0  0  0  0  0  0
  -28.0834  -12.2917   18.7158 C   0  0  0  0  0  0
  -27.6242  -13.2587   19.8351 C   0  0  2  0  0  0
  -28.6595  -13.3701   20.9747 C   0  0  0  0  0  0
  -25.2447  -13.8228   20.5712 C   0  0  0  0  0  0
  -24.1773  -13.0442   20.9233 C   0  0  0  0  0  0
  -24.6403  -11.6934   20.8782 C   0  0  0  0  0  0
  -23.9096  -10.4295   21.0422 C   0  0  0  0  0  0
  -24.3643   -9.4205   21.9200 C   0  0  0  0  0  0
  -23.6299   -8.2253   22.0770 C   0  0  0  0  0  0
  -22.4283   -8.0295   21.3556 C   0  0  0  0  0  0
  -21.9930   -9.0277   20.4668 C   0  0  0  0  0  0
  -22.7276  -10.2141   20.3065 C   0  0  0  0  0  0
  -21.6852   -6.0748   22.5276 C   0  0  0  0  0  0
  -21.4019   -6.5650   23.8217 C   0  0  0  0  0  0
  -21.3656   -5.6799   24.9180 C   0  0  0  0  0  0
  -21.6027   -4.3057   24.7221 C   0  0  0  0  0  0
  -21.8826   -3.8154   23.4346 C   0  0  0  0  0  0
  -21.9195   -4.6978   22.3401 C   0  0  0  0  0  0
  -22.7785  -13.5206   21.1858 C   0  0  0  0  0  0
  -22.1659   -4.2156   21.0978 F   0  0  0  0  0  0
  -21.5619   -3.4544   25.7735 F   0  0  0  0  0  0
  -29.9090  -13.8550   20.3694 N   0  0  0  0  0  0
  -26.2874  -12.9471   20.3255 N   0  0  0  0  0  0
  -25.9346  -11.6591   20.5778 N   0  0  0  0  0  0
  -22.0432  -12.8215   22.0421 N   0  0  0  0  0  0
  -25.4085  -15.1972   20.4091 N   0  0  0  0  0  0
  -31.6315  -15.2477   20.1012 O   0  0  0  0  0  0
  -21.6641   -6.8894   21.4241 O   0  0  0  0  0  0
  -22.3477  -14.5501   20.6685 O   0  0  0  0  0  0
  -24.6592  -31.8275   23.1703 C   0  0  0  0  0  0
  -25.9295  -32.4596   23.8152 C   0  0  1  0  0  0
  -27.2144  -26.9712   20.1869 C   0  0  0  0  0  0
  -25.6003  -33.8409   24.2079 N   0  0  0  0  0  0
  -23.4724  -30.4443   21.5158 C   0  0  2  0  0  0
  -24.9227  -28.8341   20.1082 C   0  0  0  0  0  0
  -22.7641  -29.4498   22.4736 C   0  0  0  0  0  0
  -18.0320  -28.1417   22.8475 C   0  0  0  0  0  0
  -24.1491  -36.7206   23.2649 C   0  0  0  0  0  0
  -26.0371  -30.6510   21.3884 C   0  0  0  0  0  0
  -26.1038  -29.2429   20.7367 C   0  0  0  0  0  0
  -27.2464  -28.3323   20.7511 C   0  0  0  0  0  0
  -26.0053  -26.6978   19.5096 C   0  0  0  0  0  0
  -24.8957  -27.5811   19.4742 C   0  0  0  0  0  0
  -23.7098  -29.7616   20.1403 C   0  0  0  0  0  0
  -25.4129  -36.2969   24.0310 C   0  0  1  0  0  0
  -20.5948  -28.3766   23.1172 C   0  0  2  0  0  0
  -20.6820  -26.9450   22.5383 C   0  0  0  0  0  0
  -19.5789  -26.6382   21.5206 C   0  0  0  0  0  0
  -18.1965  -26.7959   22.1613 C   0  0  0  0  0  0
  -19.1591  -28.8903   23.2826 C   0  0  0  0  0  0
  -18.9519  -30.1489   23.8863 C   0  0  0  0  0  0
  -17.6522  -30.6610   24.0572 C   0  0  0  0  0  0
  -25.9097  -34.9358   23.5008 C   0  0  0  0  0  0
  -16.5399  -29.9123   23.6345 C   0  0  0  0  0  0
  -16.7311  -28.6535   23.0363 C   0  0  0  0  0  0
  -26.4578  -31.6511   25.0646 C   0  0  0  0  0  0
  -25.3734  -31.3754   26.1325 C   0  0  0  0  0  0
  -27.0473  -30.2894   24.6318 C   0  0  0  0  0  0
  -27.6073  -32.4325   25.7453 C   0  0  0  0  0  0
  -27.5562  -37.1753   24.8471 C   0  0  0  0  0  0
  -21.4315  -29.3083   22.3509 N   0  0  0  0  0  0
  -26.4266  -37.3715   23.9437 N   0  0  0  0  0  0
  -24.7450  -31.0004   22.0788 N   0  0  0  0  0  0
  -23.4231  -28.8055   23.2939 O   0  0  0  0  0  0
  -28.2306  -25.8981   20.2766 O   0  0  0  0  0  0
  -26.5695  -34.8899   22.4593 O   0  0  0  0  0  0
  -23.5678  -32.1206   23.6831 O   0  0  0  0  0  0
  -29.7270  -20.3169   19.4734 C   0  0  0  0  0  0
  -29.0206  -21.1604   20.4343 C   0  0  0  0  0  0
  -28.5596  -20.2396   21.4729 C   0  0  0  0  0  0
  -28.7610  -18.7567   21.5101 C   0  0  0  0  0  0
  -29.5006  -17.9380   20.5456 C   0  0  0  0  0  0
  -29.9478  -18.8489   19.5068 C   0  0  0  0  0  0
  -27.8273  -20.8715   22.6536 C   0  0  0  0  0  0
  -28.1581  -17.9996   22.6964 C   0  0  0  0  0  0
  -29.0673  -22.9061   20.4784 C   0  0  0  0  0  0
  -27.9960  -24.2863   20.1456 C   0  0  0  0  0  0
  -29.5690  -16.3362   20.6028 N   0  0  0  0  0  0
  -30.6062  -18.3042   18.4550 F   0  0  0  0  0  0
  -31.4708  -12.9517   19.1903 H   0  0  0  0  0  0
  -30.5206  -11.8121   20.0981 H   0  0  0  0  0  0
  -29.8986  -11.7457   17.6565 H   0  0  0  0  0  0
  -29.5731  -13.4635   17.6761 H   0  0  0  0  0  0
  -28.0350  -11.2647   19.0819 H   0  0  0  0  0  0
  -27.4103  -12.3428   17.8590 H   0  0  0  0  0  0
  -27.5633  -14.2379   19.3591 H   0  0  0  0  0  0
  -28.8020  -12.4146   21.4835 H   0  0  0  0  0  0
  -28.3159  -14.0774   21.7305 H   0  0  0  0  0  0
  -25.2794   -9.5665   22.4782 H   0  0  0  0  0  0
  -23.9989   -7.4639   22.7503 H   0  0  0  0  0  0
  -21.0858   -8.8821   19.8977 H   0  0  0  0  0  0
  -22.3758  -10.9690   19.6174 H   0  0  0  0  0  0
  -21.2017   -7.6162   23.9721 H   0  0  0  0  0  0
  -21.1455   -6.0534   25.9080 H   0  0  0  0  0  0
  -22.0601   -2.7613   23.2845 H   0  0  0  0  0  0
  -22.4035  -11.9875   22.4805 H   0  0  0  0  0  0
  -21.1062  -13.1274   22.2629 H   0  0  0  0  0  0
  -24.6269  -15.8379   20.4911 H   0  0  0  0  0  0
  -26.2375  -15.6359   20.0300 H   0  0  0  0  0  0
  -26.7349  -32.5141   23.0855 H   0  0  0  0  0  0
  -25.0174  -33.9490   25.0247 H   0  0  0  0  0  0
  -22.7874  -31.2763   21.3448 H   0  0  0  0  0  0
  -23.3755  -35.9528   23.3288 H   0  0  0  0  0  0
  -24.3595  -36.8867   22.2068 H   0  0  0  0  0  0
  -23.7225  -37.6393   23.6703 H   0  0  0  0  0  0
  -26.2092  -31.3887   20.6036 H   0  0  0  0  0  0
  -26.9024  -30.7099   22.0361 H   0  0  0  0  0  0
  -28.1432  -28.6453   21.2677 H   0  0  0  0  0  0
  -25.8893  -25.7376   19.0283 H   0  0  0  0  0  0
  -23.9941  -27.2642   18.9660 H   0  0  0  0  0  0
  -23.8703  -30.5329   19.3854 H   0  0  0  0  0  0
  -22.8201  -29.2199   19.8165 H   0  0  0  0  0  0
  -25.1303  -36.1757   25.0797 H   0  0  0  0  0  0
  -21.0057  -28.3383   24.1286 H   0  0  0  0  0  0
  -20.5711  -26.2396   23.3627 H   0  0  0  0  0  0
  -21.6686  -26.7444   22.1176 H   0  0  0  0  0  0
  -19.6984  -25.6288   21.1254 H   0  0  0  0  0  0
  -19.6743  -27.3179   20.6724 H   0  0  0  0  0  0
  -17.4249  -26.6698   21.4009 H   0  0  0  0  0  0
  -18.0372  -26.0111   22.9002 H   0  0  0  0  0  0
  -19.8006  -30.7308   24.2214 H   0  0  0  0  0  0
  -17.5091  -31.6286   24.5187 H   0  0  0  0  0  0
  -15.5410  -30.3044   23.7689 H   0  0  0  0  0  0
  -15.8697  -28.0856   22.7090 H   0  0  0  0  0  0
  -24.5940  -30.7068   25.7654 H   0  0  0  0  0  0
  -24.8891  -32.2951   26.4625 H   0  0  0  0  0  0
  -25.8005  -30.9026   27.0171 H   0  0  0  0  0  0
  -26.3110  -29.6587   24.1329 H   0  0  0  0  0  0
  -27.4076  -29.7233   25.4913 H   0  0  0  0  0  0
  -27.9029  -30.4124   23.9672 H   0  0  0  0  0  0
  -27.2621  -33.3682   26.1873 H   0  0  0  0  0  0
  -28.3975  -32.6796   25.0340 H   0  0  0  0  0  0
  -28.0637  -31.8534   26.5494 H   0  0  0  0  0  0
  -28.2523  -38.0093   24.7543 H   0  0  0  0  0  0
  -28.1084  -36.2622   24.6229 H   0  0  0  0  0  0
  -27.2299  -37.1322   25.8873 H   0  0  0  0  0  0
  -20.9525  -29.8796   21.6680 H   0  0  0  0  0  0
  -26.0093  -38.2755   24.1491 H   0  0  0  0  0  0
  -30.1778  -20.8273   18.6354 H   0  0  0  0  0  0
  -27.8159  -21.9585   22.6131 H   0  0  0  0  0  0
  -28.2984  -20.5941   23.5980 H   0  0  0  0  0  0
  -26.7879  -20.5433   22.6841 H   0  0  0  0  0  0
  -28.7488  -18.1798   23.5944 H   0  0  0  0  0  0
  -28.1194  -16.9220   22.5498 H   0  0  0  0  0  0
  -27.1299  -18.3043   22.8911 H   0  0  0  0  0  0
  -29.9490  -23.1276   19.8746 H   0  0  0  0  0  0
  -29.4158  -23.1024   21.4913 H   0  0  0  0  0  0
  -27.0872  -24.0985   20.7182 H   0  0  0  0  0  0
  -27.6875  -24.1600   19.1066 H   0  0  0  0  0  0
  -28.6836  -15.9760   20.9218 H   0  0  0  0  0  0
  1 25  1  0  0  0
  1 30  2  0  0  0
  1 81  1  0  0  0
  2  3  1  0  0  0
  2 25  1  0  0  0
  2 83  1  0  0  0
  2 84  1  0  0  0
  3  4  1  0  0  0
  3 85  1  0  0  0
  3 86  1  0  0  0
  4  5  1  0  0  0
  4 87  1  0  0  0
  4 88  1  0  0  0
  5  6  1  0  0  0
  5 26  1  0  0  0
  5 89  1  0  0  0
  6 25  1  0  0  0
  6 90  1  0  0  0
  6 91  1  0  0  0
  7  8  2  0  0  0
  7 26  1  0  0  0
  7 29  1  0  0  0
  8  9  1  0  0  0
  8 22  1  0  0  0
  9 10  1  0  0  0
  9 27  2  0  0  0
 10 11  2  0  0  0
 10 15  1  0  0  0
 11 12  1  0  0  0
 11 92  1  0  0  0
 12 13  2  0  0  0
 12 93  1  0  0  0
 13 14  1  0  0  0
 13 31  1  0  0  0
 14 15  2  0  0  0
 14 94  1  0  0  0
 15 95  1  0  0  0
 16 17  2  0  0  0
 16 21  1  0  0  0
 16 31  1  0  0  0
 17 18  1  0  0  0
 17 96  1  0  0  0
 18 19  2  0  0  0
 18 97  1  0  0  0
 19 20  1  0  0  0
 19 24  1  0  0  0
 20 21  2  0  0  0
 20 98  1  0  0  0
 21 23  1  0  0  0
 22 28  1  0  0  0
 22 32  2  0  0  0
 26 27  1  0  0  0
 28 99  1  0  0  0
 28100  1  0  0  0
 29101  1  0  0  0
 29102  1  0  0  0
 33 34  1  0  0  0
 33 66  1  0  0  0
 33 70  2  0  0  0
 34 36  1  0  0  0
 34 59  1  0  0  0
 34103  1  0  0  0
 35 44  2  0  0  0
 35 45  1  0  0  0
 35 68  1  0  0  0
 36 56  1  0  0  0
 36104  1  0  0  0
 37 39  1  0  0  0
 37 47  1  0  0  0
 37 66  1  0  0  0
 37105  1  0  0  0
 38 43  2  0  0  0
 38 46  1  0  0  0
 38 47  1  0  0  0
 39 64  1  0  0  0
 39 67  2  0  0  0
 40 52  1  0  0  0
 40 53  2  0  0  0
 40 58  1  0  0  0
 41106  1  0  0  0
 41107  1  0  0  0
 41108  1  0  0  0
 41 48  1  0  0  0
 42 43  1  0  0  0
 42 66  1  0  0  0
 42109  1  0  0  0
 42110  1  0  0  0
 43 44  1  0  0  0
 44111  1  0  0  0
 45 46  2  0  0  0
 45112  1  0  0  0
 46113  1  0  0  0
 47114  1  0  0  0
 47115  1  0  0  0
 48 56  1  0  0  0
 48 65  1  0  0  0
 48116  1  0  0  0
 49 50  1  0  0  0
 49 53  1  0  0  0
 49 64  1  0  0  0
 49117  1  0  0  0
 50 51  1  0  0  0
 50118  1  0  0  0
 50119  1  0  0  0
 51 52  1  0  0  0
 51120  1  0  0  0
 51121  1  0  0  0
 52122  1  0  0  0
 52123  1  0  0  0
 53 54  1  0  0  0
 54 55  2  0  0  0
 54124  1  0  0  0
 55 57  1  0  0  0
 55125  1  0  0  0
 56 69  2  0  0  0
 57 58  2  0  0  0
 57126  1  0  0  0
 58127  1  0  0  0
 59 60  1  0  0  0
 59 61  1  0  0  0
 59 62  1  0  0  0
 60128  1  0  0  0
 60129  1  0  0  0
 60130  1  0  0  0
 61131  1  0  0  0
 61132  1  0  0  0
 61133  1  0  0  0
 62134  1  0  0  0
 62135  1  0  0  0
 62136  1  0  0  0
 63 65  1  0  0  0
 63137  1  0  0  0
 63138  1  0  0  0
 63139  1  0  0  0
 64140  1  0  0  0
 65141  1  0  0  0
 68 80  1  0  0  0
 71 72  2  0  0  0
 71 76  1  0  0  0
 71142  1  0  0  0
 72 73  1  0  0  0
 72 79  1  0  0  0
 73 74  2  0  0  0
 73 77  1  0  0  0
 74 75  1  0  0  0
 74 78  1  0  0  0
 75 76  2  0  0  0
 75 81  1  0  0  0
 76 82  1  0  0  0
 77143  1  0  0  0
 77144  1  0  0  0
 77145  1  0  0  0
 78146  1  0  0  0
 78147  1  0  0  0
 78148  1  0  0  0
 79 80  1  0  0  0
 79149  1  0  0  0
 79150  1  0  0  0
 80151  1  0  0  0
 80152  1  0  0  0
 81153  1  0  0  0
M  ISO  4   1 100  68 101  80 101  81 100
M  END
> <chiral flag>
0

> <version>
0

> <s_m_source_file>
/data/baiqing/PycharmProjects/Reinvent-master-3.2/result/LINK_invent/BTK/process_docking_weight1_custom_sum_contain_oxygen_bond_distance_aromatic_linkinvent_7_9_3/rearranged_h_0020.sdf

> <i_m_source_file_index>
38

> <r_mmod_Potential_Energy-OPLS-2005>
1008.66674804688

> <r_mmod_Stretch_Energy-OPLS-2005>
464.141723632812

> <r_mmod_Bend_Energy-OPLS-2005>
398.539703369141

> <r_mmod_Torsional_Energy-OPLS-2005>
229.378479003906

> <r_mmod_Improper_Torsional_Energy-OPLS-2005>
6.25853252410889

> <r_mmod_Van_der_Waal_Energy-OPLS-2005>
132.989654541016

> <r_mmod_Electrostatic_Energy-OPLS-2005>
-393.765258789062

> <r_mmod_Solvation_Energy-OPLS-2005>
-210.278732299805

> <b_mmod_Minimization_Converged-OPLS-2005>
0

> <r_mmod_RMS_Derivative-OPLS-2005>
2.97710514068604

$$$$
38
                    3D
 Structure written by MMmdl.
144152  0  0  1  0            999 V2000
  -30.2617  -15.7686   20.3210 C   0  0  0  0  0  0
  -30.4129  -13.1820   19.5372 C   0  0  0  0  0  0
  -29.5528  -12.6875   18.3356 C   0  0  0  0  0  0
  -28.1380  -12.3020   18.7881 C   0  0  0  0  0  0
  -27.5904  -13.3215   19.8099 C   0  0  2  0  0  0
  -28.5992  -13.7160   20.9182 C   0  0  0  0  0  0
  -25.2300  -13.8302   20.5820 C   0  0  0  0  0  0
  -24.1704  -13.0433   20.9300 C   0  0  0  0  0  0
  -24.6424  -11.6951   20.8766 C   0  0  0  0  0  0
  -23.9130  -10.4293   21.0393 C   0  0  0  0  0  0
  -24.3661   -9.4205   21.9177 C   0  0  0  0  0  0
  -23.6317   -8.2248   22.0753 C   0  0  0  0  0  0
  -22.4297   -8.0289   21.3544 C   0  0  0  0  0  0
  -21.9947   -9.0266   20.4643 C   0  0  0  0  0  0
  -22.7294  -10.2135   20.3047 C   0  0  0  0  0  0
  -21.6860   -6.0743   22.5279 C   0  0  0  0  0  0
  -21.4019   -6.5644   23.8212 C   0  0  0  0  0  0
  -21.3660   -5.6795   24.9173 C   0  0  0  0  0  0
  -21.6044   -4.3057   24.7223 C   0  0  0  0  0  0
  -21.8819   -3.8151   23.4344 C   0  0  0  0  0  0
  -21.9195   -4.6969   22.3401 C   0  0  0  0  0  0
  -22.7712  -13.5153   21.1928 C   0  0  0  0  0  0
  -22.1662   -4.2154   21.0978 F   0  0  0  0  0  0
  -21.5627   -3.4540   25.7735 F   0  0  0  0  0  0
  -29.7493  -14.3808   20.2489 N   0  0  0  0  0  0
  -26.2764  -12.9660   20.3258 N   0  0  0  0  0  0
  -25.9376  -11.6716   20.5699 N   0  0  0  0  0  0
  -22.0382  -12.8125   22.0479 N   0  0  0  0  0  0
  -25.3871  -15.2046   20.4262 N   0  0  0  0  0  0
  -31.4981  -15.6580   20.1868 O   0  0  0  0  0  0
  -21.6651   -6.8891   21.4243 O   0  0  0  0  0  0
  -22.3382  -14.5449   20.6762 O   0  0  0  0  0  0
  -24.6932  -31.7883   23.1430 C   0  0  0  0  0  0
  -25.9465  -32.4408   23.8014 C   0  0  1  0  0  0
  -27.2303  -26.6028   20.2254 C   0  0  0  0  0  0
  -25.6002  -33.8239   24.1891 N   0  0  0  0  0  0
  -23.5241  -30.3858   21.4991 C   0  0  2  0  0  0
  -24.9828  -28.7055   20.1208 C   0  0  0  0  0  0
  -22.7810  -29.4254   22.4682 C   0  0  0  0  0  0
  -18.0345  -28.1428   22.8450 C   0  0  0  0  0  0
  -24.1495  -36.7125   23.2658 C   0  0  0  0  0  0
  -26.1091  -30.4884   21.4225 C   0  0  0  0  0  0
  -26.1737  -29.0421   20.7747 C   0  0  0  0  0  0
  -27.2778  -28.0221   20.7907 C   0  0  0  0  0  0
  -26.0054  -26.5010   19.5114 C   0  0  0  0  0  0
  -24.9438  -27.4620   19.4645 C   0  0  0  0  0  0
  -23.7838  -29.6731   20.1389 C   0  0  0  0  0  0
  -25.4150  -36.2859   24.0275 C   0  0  1  0  0  0
  -20.5986  -28.3792   23.1122 C   0  0  2  0  0  0
  -20.6807  -26.9441   22.5405 C   0  0  0  0  0  0
  -19.5784  -26.6368   21.5218 C   0  0  0  0  0  0
  -18.1966  -26.7954   22.1618 C   0  0  0  0  0  0
  -19.1614  -28.8936   23.2765 C   0  0  0  0  0  0
  -18.9519  -30.1518   23.8814 C   0  0  0  0  0  0
  -17.6507  -30.6608   24.0549 C   0  0  0  0  0  0
  -25.9135  -34.9253   23.4926 C   0  0  0  0  0  0
  -16.5396  -29.9088   23.6354 C   0  0  0  0  0  0
  -16.7325  -28.6511   23.0370 C   0  0  0  0  0  0
  -26.4611  -31.6486   25.0678 C   0  0  0  0  0  0
  -25.3649  -31.3833   26.1273 C   0  0  0  0  0  0
  -27.0563  -30.2814   24.6653 C   0  0  0  0  0  0
  -27.6039  -32.4372   25.7502 C   0  0  0  0  0  0
  -27.5556  -37.1725   24.8471 C   0  0  0  0  0  0
  -21.4447  -29.3019   22.3431 N   0  0  0  0  0  0
  -26.4268  -37.3630   23.9402 N   0  0  0  0  0  0
  -24.8000  -30.9231   22.0737 N   0  0  0  0  0  0
  -23.4206  -28.7873   23.3074 O   0  0  0  0  0  0
  -28.1791  -25.3378   20.3001 O   0  0  0  0  0  0
  -26.5791  -34.8850   22.4554 O   0  0  0  0  0  0
  -23.5929  -32.1003   23.6321 O   0  0  0  0  0  0
  -31.1895  -20.8904   20.8054 C   0  0  0  0  0  0
  -28.9333  -21.8950   20.3292 C   0  0  0  0  0  0
  -29.6274  -18.9386   20.3840 C   0  0  0  0  0  0
  -30.3101  -22.0069   20.6382 C   0  0  0  0  0  0
  -30.9051  -19.4891   20.7018 C   0  0  0  0  0  0
  -28.6831  -20.2731   20.2203 C   0  0  0  0  0  0
  -27.9687  -23.5434   20.1666 C   0  0  0  0  0  0
  -29.4992  -17.1710   20.3267 N   0  0  0  0  0  0
  -30.9949  -23.5808   20.8396 Cl  0  0  0  0  0  0
  -32.2444  -18.4528   21.0336 Cl  0  0  0  0  0  0
  -27.0453  -19.8756   19.8483 Cl  0  0  0  0  0  0
  -31.3950  -13.4606   19.1536 H   0  0  0  0  0  0
  -30.6086  -12.3660   20.2351 H   0  0  0  0  0  0
  -30.0344  -11.8435   17.8399 H   0  0  0  0  0  0
  -29.4894  -13.4842   17.5930 H   0  0  0  0  0  0
  -28.1911  -11.3164   19.2524 H   0  0  0  0  0  0
  -27.4689  -12.2063   17.9320 H   0  0  0  0  0  0
  -27.4326  -14.2227   19.2155 H   0  0  0  0  0  0
  -28.8929  -12.8591   21.5265 H   0  0  0  0  0  0
  -28.1397  -14.4311   21.6020 H   0  0  0  0  0  0
  -25.2800   -9.5677   22.4763 H   0  0  0  0  0  0
  -24.0016   -7.4642   22.7480 H   0  0  0  0  0  0
  -21.0876   -8.8796   19.8950 H   0  0  0  0  0  0
  -22.3753  -10.9677   19.6159 H   0  0  0  0  0  0
  -21.2014   -7.6152   23.9717 H   0  0  0  0  0  0
  -21.1482   -6.0525   25.9076 H   0  0  0  0  0  0
  -22.0596   -2.7613   23.2843 H   0  0  0  0  0  0
  -22.4030  -11.9805   22.4875 H   0  0  0  0  0  0
  -21.0985  -13.1112   22.2675 H   0  0  0  0  0  0
  -24.6131  -15.8502   20.5383 H   0  0  0  0  0  0
  -26.2252  -15.6490   20.0772 H   0  0  0  0  0  0
  -26.7556  -32.4856   23.0730 H   0  0  0  0  0  0
  -25.0047  -33.9261   24.9975 H   0  0  0  0  0  0
  -22.8550  -31.2257   21.3002 H   0  0  0  0  0  0
  -23.3771  -35.9440   23.3278 H   0  0  0  0  0  0
  -24.3553  -36.8834   22.2080 H   0  0  0  0  0  0
  -23.7246  -37.6287   23.6769 H   0  0  0  0  0  0
  -26.3229  -31.2064   20.6297 H   0  0  0  0  0  0
  -26.9560  -30.5600   22.0923 H   0  0  0  0  0  0
  -28.1716  -28.2896   21.3364 H   0  0  0  0  0  0
  -25.8223  -25.5654   19.0023 H   0  0  0  0  0  0
  -24.0481  -27.1938   18.9212 H   0  0  0  0  0  0
  -23.9673  -30.4286   19.3741 H   0  0  0  0  0  0
  -22.8864  -29.1447   19.8125 H   0  0  0  0  0  0
  -25.1368  -36.1607   25.0765 H   0  0  0  0  0  0
  -21.0066  -28.3425   24.1250 H   0  0  0  0  0  0
  -20.5660  -26.2421   23.3677 H   0  0  0  0  0  0
  -21.6668  -26.7368   22.1230 H   0  0  0  0  0  0
  -19.6939  -25.6257   21.1301 H   0  0  0  0  0  0
  -19.6729  -27.3134   20.6714 H   0  0  0  0  0  0
  -17.4237  -26.6697   21.4021 H   0  0  0  0  0  0
  -18.0349  -26.0117   22.9033 H   0  0  0  0  0  0
  -19.7995  -30.7355   24.2145 H   0  0  0  0  0  0
  -17.5059  -31.6279   24.5168 H   0  0  0  0  0  0
  -15.5393  -30.2964   23.7727 H   0  0  0  0  0  0
  -15.8725  -28.0802   22.7134 H   0  0  0  0  0  0
  -24.5866  -30.7151   25.7567 H   0  0  0  0  0  0
  -24.8805  -32.3065   26.4464 H   0  0  0  0  0  0
  -25.7801  -30.9148   27.0204 H   0  0  0  0  0  0
  -26.3303  -29.6394   24.1656 H   0  0  0  0  0  0
  -27.3962  -29.7303   25.5432 H   0  0  0  0  0  0
  -27.9291  -30.3917   24.0217 H   0  0  0  0  0  0
  -27.2566  -33.3756   26.1838 H   0  0  0  0  0  0
  -28.3973  -32.6803   25.0421 H   0  0  0  0  0  0
  -28.0573  -31.8666   26.5618 H   0  0  0  0  0  0
  -28.2554  -38.0035   24.7491 H   0  0  0  0  0  0
  -28.1069  -36.2554   24.6337 H   0  0  0  0  0  0
  -27.2264  -37.1405   25.8872 H   0  0  0  0  0  0
  -20.9775  -29.8656   21.6466 H   0  0  0  0  0  0
  -26.0086  -38.2675   24.1402 H   0  0  0  0  0  0
  -32.2106  -21.1401   21.0533 H   0  0  0  0  0  0
  -27.1262  -23.3686   20.8356 H   0  0  0  0  0  0
  -27.5297  -23.4427   19.1742 H   0  0  0  0  0  0
  -28.5193  -16.9347   20.2872 H   0  0  0  0  0  0
  1 25  1  0  0  0
  1 30  2  0  0  0
  1 78  1  0  0  0
  2  3  1  0  0  0
  2 25  1  0  0  0
  2 82  1  0  0  0
  2 83  1  0  0  0
  3  4  1  0  0  0
  3 84  1  0  0  0
  3 85  1  0  0  0
  4  5  1  0  0  0
  4 86  1  0  0  0
  4 87  1  0  0  0
  5  6  1  0  0  0
  5 26  1  0  0  0
  5 88  1  0  0  0
  6 25  1  0  0  0
  6 89  1  0  0  0
  6 90  1  0  0  0
  7  8  2  0  0  0
  7 26  1  0  0  0
  7 29  1  0  0  0
  8  9  1  0  0  0
  8 22  1  0  0  0
  9 10  1  0  0  0
  9 27  2  0  0  0
 10 11  2  0  0  0
 10 15  1  0  0  0
 11 12  1  0  0  0
 11 91  1  0  0  0
 12 13  2  0  0  0
 12 92  1  0  0  0
 13 14  1  0  0  0
 13 31  1  0  0  0
 14 15  2  0  0  0
 14 93  1  0  0  0
 15 94  1  0  0  0
 16 17  2  0  0  0
 16 21  1  0  0  0
 16 31  1  0  0  0
 17 18  1  0  0  0
 17 95  1  0  0  0
 18 19  2  0  0  0
 18 96  1  0  0  0
 19 20  1  0  0  0
 19 24  1  0  0  0
 20 21  2  0  0  0
 20 97  1  0  0  0
 21 23  1  0  0  0
 22 28  1  0  0  0
 22 32  2  0  0  0
 26 27  1  0  0  0
 28 98  1  0  0  0
 28 99  1  0  0  0
 29100  1  0  0  0
 29101  1  0  0  0
 33 34  1  0  0  0
 33 66  1  0  0  0
 33 70  2  0  0  0
 34 36  1  0  0  0
 34 59  1  0  0  0
 34102  1  0  0  0
 35 44  2  0  0  0
 35 45  1  0  0  0
 35 68  1  0  0  0
 36 56  1  0  0  0
 36103  1  0  0  0
 37 39  1  0  0  0
 37 47  1  0  0  0
 37 66  1  0  0  0
 37104  1  0  0  0
 38 43  2  0  0  0
 38 46  1  0  0  0
 38 47  1  0  0  0
 39 64  1  0  0  0
 39 67  2  0  0  0
 40 52  1  0  0  0
 40 53  2  0  0  0
 40 58  1  0  0  0
 41105  1  0  0  0
 41106  1  0  0  0
 41107  1  0  0  0
 41 48  1  0  0  0
 42 43  1  0  0  0
 42 66  1  0  0  0
 42108  1  0  0  0
 42109  1  0  0  0
 43 44  1  0  0  0
 44110  1  0  0  0
 45 46  2  0  0  0
 45111  1  0  0  0
 46112  1  0  0  0
 47113  1  0  0  0
 47114  1  0  0  0
 48 56  1  0  0  0
 48 65  1  0  0  0
 48115  1  0  0  0
 49 50  1  0  0  0
 49 53  1  0  0  0
 49 64  1  0  0  0
 49116  1  0  0  0
 50 51  1  0  0  0
 50117  1  0  0  0
 50118  1  0  0  0
 51 52  1  0  0  0
 51119  1  0  0  0
 51120  1  0  0  0
 52121  1  0  0  0
 52122  1  0  0  0
 53 54  1  0  0  0
 54 55  2  0  0  0
 54123  1  0  0  0
 55 57  1  0  0  0
 55124  1  0  0  0
 56 69  2  0  0  0
 57 58  2  0  0  0
 57125  1  0  0  0
 58126  1  0  0  0
 59 60  1  0  0  0
 59 61  1  0  0  0
 59 62  1  0  0  0
 60127  1  0  0  0
 60128  1  0  0  0
 60129  1  0  0  0
 61130  1  0  0  0
 61131  1  0  0  0
 61132  1  0  0  0
 62133  1  0  0  0
 62134  1  0  0  0
 62135  1  0  0  0
 63 65  1  0  0  0
 63136  1  0  0  0
 63137  1  0  0  0
 63138  1  0  0  0
 64139  1  0  0  0
 65140  1  0  0  0
 68 77  1  0  0  0
 71 74  2  0  0  0
 71 75  1  0  0  0
 71141  1  0  0  0
 72 74  1  0  0  0
 72 76  2  0  0  0
 72 77  1  0  0  0
 73 75  2  0  0  0
 73 76  1  0  0  0
 73 78  1  0  0  0
 74 79  1  0  0  0
 75 80  1  0  0  0
 76 81  1  0  0  0
 77142  1  0  0  0
 77143  1  0  0  0
 78144  1  0  0  0
M  ISO  4   1 100  68 101  77 101  78 100
M  END
> <chiral flag>
0

> <version>
0

> <s_m_source_file>
/data/baiqing/PycharmProjects/Reinvent-master-3.2/result/LINK_invent/BTK/process_docking_weight1_custom_sum_contain_oxygen_bond_distance_aromatic_linkinvent_7_9_3/rearranged_h_0020.sdf

> <i_m_source_file_index>
39

> <r_mmod_Potential_Energy-OPLS-2005>
2751.49755859375

> <r_mmod_Stretch_Energy-OPLS-2005>
1272.52685546875

> <r_mmod_Bend_Energy-OPLS-2005>
645.244934082031

> <r_mmod_Torsional_Energy-OPLS-2005>
223.2294921875

> <r_mmod_Improper_Torsional_Energy-OPLS-2005>
4.79421615600586

> <r_mmod_Van_der_Waal_Energy-OPLS-2005>
127.489250183105

> <r_mmod_Electrostatic_Energy-OPLS-2005>
-408.448760986328

> <r_mmod_Solvation_Energy-OPLS-2005>
-226.19255065918

> <b_mmod_Minimization_Converged-OPLS-2005>
0

> <r_mmod_RMS_Derivative-OPLS-2005>
0.159499660134315

$$$$
39
                    3D
 Structure written by MMmdl.
165173  0  0  1  0            999 V2000
  -30.5807  -14.8521   20.4040 C   0  0  0  0  0  0
  -30.4300  -12.5185   19.4794 C   0  0  0  0  0  0
  -29.5084  -12.4901   18.2417 C   0  0  0  0  0  0
  -28.0347  -12.3057   18.6605 C   0  0  0  0  0  0
  -27.6211  -13.2325   19.8351 C   0  0  2  0  0  0
  -28.6709  -13.2454   20.9634 C   0  0  0  0  0  0
  -25.2439  -13.8193   20.5742 C   0  0  0  0  0  0
  -24.1739  -13.0437   20.9243 C   0  0  0  0  0  0
  -24.6333  -11.6921   20.8768 C   0  0  0  0  0  0
  -23.9023  -10.4296   21.0381 C   0  0  0  0  0  0
  -24.3593   -9.4225   21.9156 C   0  0  0  0  0  0
  -23.6289   -8.2244   22.0736 C   0  0  0  0  0  0
  -22.4266   -8.0257   21.3531 C   0  0  0  0  0  0
  -21.9883   -9.0222   20.4631 C   0  0  0  0  0  0
  -22.7199  -10.2112   20.3031 C   0  0  0  0  0  0
  -21.6852   -6.0719   22.5273 C   0  0  0  0  0  0
  -21.4017   -6.5626   23.8209 C   0  0  0  0  0  0
  -21.3669   -5.6784   24.9176 C   0  0  0  0  0  0
  -21.6047   -4.3046   24.7216 C   0  0  0  0  0  0
  -21.8822   -3.8130   23.4337 C   0  0  0  0  0  0
  -21.9200   -4.6949   22.3395 C   0  0  0  0  0  0
  -22.7759  -13.5208   21.1893 C   0  0  0  0  0  0
  -22.1666   -4.2137   21.0971 F   0  0  0  0  0  0
  -21.5634   -3.4535   25.7727 F   0  0  0  0  0  0
  -29.9518  -13.6187   20.3519 N   0  0  0  0  0  0
  -26.2830  -12.9384   20.3278 N   0  0  0  0  0  0
  -25.9260  -11.6531   20.5776 N   0  0  0  0  0  0
  -22.0402  -12.8201   22.0450 N   0  0  0  0  0  0
  -25.4128  -15.1917   20.4208 N   0  0  0  0  0  0
  -31.8035  -14.8865   20.2328 O   0  0  0  0  0  0
  -21.6645   -6.8849   21.4223 O   0  0  0  0  0  0
  -22.3441  -14.5501   20.6717 O   0  0  0  0  0  0
  -24.6419  -31.8450   23.1903 C   0  0  0  0  0  0
  -25.9197  -32.4704   23.8301 C   0  0  1  0  0  0
  -27.2252  -27.1746   20.1449 C   0  0  0  0  0  0
  -25.5968  -33.8508   24.2227 N   0  0  0  0  0  0
  -23.4465  -30.4662   21.5313 C   0  0  2  0  0  0
  -24.8978  -28.8954   20.1103 C   0  0  0  0  0  0
  -22.7576  -29.4564   22.4829 C   0  0  0  0  0  0
  -18.0303  -28.1396   22.8449 C   0  0  0  0  0  0
  -24.1505  -36.7261   23.2641 C   0  0  0  0  0  0
  -26.0007  -30.7310   21.3866 C   0  0  0  0  0  0
  -26.0721  -29.3474   20.7256 C   0  0  0  0  0  0
  -27.2374  -28.4993   20.7270 C   0  0  0  0  0  0
  -26.0265  -26.8132   19.4925 C   0  0  0  0  0  0
  -24.8838  -27.6409   19.4822 C   0  0  0  0  0  0
  -23.6768  -29.7972   20.1497 C   0  0  0  0  0  0
  -25.4127  -36.3028   24.0319 C   0  0  1  0  0  0
  -20.5922  -28.3735   23.1205 C   0  0  2  0  0  0
  -20.6791  -26.9435   22.5380 C   0  0  0  0  0  0
  -19.5772  -26.6376   21.5186 C   0  0  0  0  0  0
  -18.1949  -26.7933   22.1592 C   0  0  0  0  0  0
  -19.1557  -28.8876   23.2830 C   0  0  0  0  0  0
  -18.9476  -30.1470   23.8864 C   0  0  0  0  0  0
  -17.6470  -30.6579   24.0564 C   0  0  0  0  0  0
  -25.9062  -34.9404   23.5070 C   0  0  0  0  0  0
  -16.5364  -29.9079   23.6325 C   0  0  0  0  0  0
  -16.7287  -28.6507   23.0326 C   0  0  0  0  0  0
  -26.4526  -31.6569   25.0740 C   0  0  0  0  0  0
  -25.3735  -31.3742   26.1450 C   0  0  0  0  0  0
  -27.0423  -30.2976   24.6343 C   0  0  0  0  0  0
  -27.6064  -32.4348   25.7525 C   0  0  0  0  0  0
  -27.5581  -37.1789   24.8456 C   0  0  0  0  0  0
  -21.4257  -29.3073   22.3591 N   0  0  0  0  0  0
  -26.4288  -37.3740   23.9415 N   0  0  0  0  0  0
  -24.7158  -31.0357   22.0920 N   0  0  0  0  0  0
  -23.4221  -28.8077   23.2948 O   0  0  0  0  0  0
  -28.2959  -26.2242   20.2218 O   0  0  0  0  0  0
  -26.5625  -34.8883   22.4629 O   0  0  0  0  0  0
  -23.5538  -32.1305   23.7139 O   0  0  0  0  0  0
  -30.5576  -19.7841   20.3016 C   0  0  0  0  0  0
  -29.5594  -18.8809   20.7761 C   0  0  0  0  0  0
  -28.1206  -21.0023   20.8862 C   0  0  0  0  0  0
  -29.1603  -21.9196   20.4855 C   0  0  0  0  0  0
  -30.3766  -21.2140   20.1616 C   0  0  0  0  0  0
  -28.3063  -19.5554   20.9894 C   0  0  0  0  0  0
  -26.7718  -21.5687   21.3025 C   0  0  0  0  0  0
  -31.5477  -19.4100   23.6591 C   0  0  0  0  0  0
  -29.1322  -16.3579   19.1167 C   0  0  0  0  0  0
  -29.1212  -23.5668   20.6344 C   0  0  0  0  0  0
  -30.9139  -18.0169   23.5848 C   0  0  0  0  0  0
  -31.0941  -17.2809   22.2381 C   0  0  0  0  0  0
  -28.0830  -24.7083   20.0198 C   0  0  0  0  0  0
  -29.8846  -17.3361   21.2543 C   0  0  2  0  0  0
  -29.8241  -16.0531   20.3711 N   0  0  0  0  0  0
  -31.7760  -22.0969   19.6552 Cl  0  0  0  0  0  0
  -26.9455  -18.5832   21.4432 Cl  0  0  0  0  0  0
  -31.4684  -12.6590   19.1689 H   0  0  0  0  0  0
  -30.4030  -11.5659   20.0105 H   0  0  0  0  0  0
  -29.8085  -11.6839   17.5728 H   0  0  0  0  0  0
  -29.6222  -13.4117   17.6712 H   0  0  0  0  0  0
  -27.9085  -11.2632   18.9544 H   0  0  0  0  0  0
  -27.3750  -12.4595   17.8052 H   0  0  0  0  0  0
  -27.5732  -14.2321   19.4150 H   0  0  0  0  0  0
  -28.7324  -12.2710   21.4499 H   0  0  0  0  0  0
  -28.3908  -13.9661   21.7349 H   0  0  0  0  0  0
  -25.2724   -9.5720   22.4761 H   0  0  0  0  0  0
  -24.0005   -7.4630   22.7438 H   0  0  0  0  0  0
  -21.0838   -8.8720   19.8931 H   0  0  0  0  0  0
  -22.3636  -10.9641   19.6152 H   0  0  0  0  0  0
  -21.2000   -7.6131   23.9719 H   0  0  0  0  0  0
  -21.1497   -6.0504   25.9089 H   0  0  0  0  0  0
  -22.0590   -2.7584   23.2846 H   0  0  0  0  0  0
  -22.4042  -11.9926   22.4924 H   0  0  0  0  0  0
  -21.0989  -13.1179   22.2603 H   0  0  0  0  0  0
  -24.6484  -15.8457   20.5515 H   0  0  0  0  0  0
  -26.2794  -15.6450   20.1664 H   0  0  0  0  0  0
  -26.7282  -32.5335   23.1052 H   0  0  0  0  0  0
  -25.0207  -33.9653   25.0438 H   0  0  0  0  0  0
  -22.7495  -31.2905   21.3718 H   0  0  0  0  0  0
  -23.3767  -35.9593   23.3277 H   0  0  0  0  0  0
  -24.3606  -36.8913   22.2060 H   0  0  0  0  0  0
  -23.7248  -37.6446   23.6694 H   0  0  0  0  0  0
  -26.1590  -31.4890   20.6179 H   0  0  0  0  0  0
  -26.8688  -30.7777   22.0329 H   0  0  0  0  0  0
  -28.1319  -28.8378   21.2328 H   0  0  0  0  0  0
  -25.9451  -25.8534   19.0055 H   0  0  0  0  0  0
  -23.9851  -27.2849   18.9986 H   0  0  0  0  0  0
  -23.8262  -30.5707   19.3947 H   0  0  0  0  0  0
  -22.7949  -29.2398   19.8314 H   0  0  0  0  0  0
  -25.1314  -36.1859   25.0810 H   0  0  0  0  0  0
  -21.0012  -28.3307   24.1325 H   0  0  0  0  0  0
  -20.5654  -26.2350   23.3594 H   0  0  0  0  0  0
  -21.6661  -26.7419   22.1198 H   0  0  0  0  0  0
  -19.6947  -25.6272   21.1247 H   0  0  0  0  0  0
  -19.6724  -27.3153   20.6686 H   0  0  0  0  0  0
  -17.4225  -26.6658   21.3997 H   0  0  0  0  0  0
  -18.0370  -26.0082   22.8992 H   0  0  0  0  0  0
  -19.7957  -30.7299   24.2208 H   0  0  0  0  0  0
  -17.5024  -31.6246   24.5190 H   0  0  0  0  0  0
  -15.5367  -30.2970   23.7673 H   0  0  0  0  0  0
  -15.8685  -28.0825   22.7050 H   0  0  0  0  0  0
  -24.5900  -30.7111   25.7761 H   0  0  0  0  0  0
  -24.8946  -32.2918   26.4875 H   0  0  0  0  0  0
  -25.8021  -30.8896   27.0231 H   0  0  0  0  0  0
  -26.3061  -29.6668   24.1346 H   0  0  0  0  0  0
  -27.4031  -29.7303   25.4933 H   0  0  0  0  0  0
  -27.8960  -30.4224   23.9682 H   0  0  0  0  0  0
  -27.2658  -33.3663   26.2063 H   0  0  0  0  0  0
  -28.3885  -32.6889   25.0361 H   0  0  0  0  0  0
  -28.0730  -31.8511   26.5472 H   0  0  0  0  0  0
  -28.2552  -38.0126   24.7515 H   0  0  0  0  0  0
  -28.1110  -36.2643   24.6255 H   0  0  0  0  0  0
  -27.2299  -37.1395   25.8857 H   0  0  0  0  0  0
  -20.9450  -29.8866   21.6850 H   0  0  0  0  0  0
  -26.0144  -38.2809   24.1407 H   0  0  0  0  0  0
  -31.5420  -19.3813   20.1123 H   0  0  0  0  0  0
  -26.8086  -22.6320   21.5248 H   0  0  0  0  0  0
  -26.4235  -21.0915   22.2179 H   0  0  0  0  0  0
  -26.0287  -21.3967   20.5231 H   0  0  0  0  0  0
  -31.4910  -19.8017   24.6761 H   0  0  0  0  0  0
  -31.0410  -20.1161   23.0060 H   0  0  0  0  0  0
  -32.6027  -19.3767   23.3820 H   0  0  0  0  0  0
  -28.0930  -16.6201   19.3070 H   0  0  0  0  0  0
  -29.1454  -15.5334   18.4042 H   0  0  0  0  0  0
  -29.6067  -17.2021   18.6131 H   0  0  0  0  0  0
  -30.1038  -23.9304   20.3468 H   0  0  0  0  0  0
  -29.1057  -23.7127   21.7130 H   0  0  0  0  0  0
  -29.8604  -18.0627   23.8621 H   0  0  0  0  0  0
  -31.3938  -17.4140   24.3572 H   0  0  0  0  0  0
  -31.2825  -16.2464   22.5264 H   0  0  0  0  0  0
  -32.0082  -17.6022   21.7365 H   0  0  0  0  0  0
  -27.0883  -24.4786   20.3979 H   0  0  0  0  0  0
  -28.0275  -24.5465   18.9424 H   0  0  0  0  0  0
  -29.0426  -17.1063   21.9063 H   0  0  0  0  0  0
  1 25  1  0  0  0
  1 30  2  0  0  0
  1 85  1  0  0  0
  2  3  1  0  0  0
  2 25  1  0  0  0
  2 88  1  0  0  0
  2 89  1  0  0  0
  3  4  1  0  0  0
  3 90  1  0  0  0
  3 91  1  0  0  0
  4  5  1  0  0  0
  4 92  1  0  0  0
  4 93  1  0  0  0
  5  6  1  0  0  0
  5 26  1  0  0  0
  5 94  1  0  0  0
  6 25  1  0  0  0
  6 95  1  0  0  0
  6 96  1  0  0  0
  7  8  2  0  0  0
  7 26  1  0  0  0
  7 29  1  0  0  0
  8  9  1  0  0  0
  8 22  1  0  0  0
  9 10  1  0  0  0
  9 27  2  0  0  0
 10 11  2  0  0  0
 10 15  1  0  0  0
 11 12  1  0  0  0
 11 97  1  0  0  0
 12 13  2  0  0  0
 12 98  1  0  0  0
 13 14  1  0  0  0
 13 31  1  0  0  0
 14 15  2  0  0  0
 14 99  1  0  0  0
 15100  1  0  0  0
 16 17  2  0  0  0
 16 21  1  0  0  0
 16 31  1  0  0  0
 17 18  1  0  0  0
 17101  1  0  0  0
 18 19  2  0  0  0
 18102  1  0  0  0
 19 20  1  0  0  0
 19 24  1  0  0  0
 20 21  2  0  0  0
 20103  1  0  0  0
 21 23  1  0  0  0
 22 28  1  0  0  0
 22 32  2  0  0  0
 26 27  1  0  0  0
 28104  1  0  0  0
 28105  1  0  0  0
 29106  1  0  0  0
 29107  1  0  0  0
 33 34  1  0  0  0
 33 66  1  0  0  0
 33 70  2  0  0  0
 34 36  1  0  0  0
 34 59  1  0  0  0
 34108  1  0  0  0
 35 44  2  0  0  0
 35 45  1  0  0  0
 35 68  1  0  0  0
 36 56  1  0  0  0
 36109  1  0  0  0
 37 39  1  0  0  0
 37 47  1  0  0  0
 37 66  1  0  0  0
 37110  1  0  0  0
 38 43  2  0  0  0
 38 46  1  0  0  0
 38 47  1  0  0  0
 39 64  1  0  0  0
 39 67  2  0  0  0
 40 52  1  0  0  0
 40 53  2  0  0  0
 40 58  1  0  0  0
 41111  1  0  0  0
 41112  1  0  0  0
 41113  1  0  0  0
 41 48  1  0  0  0
 42 43  1  0  0  0
 42 66  1  0  0  0
 42114  1  0  0  0
 42115  1  0  0  0
 43 44  1  0  0  0
 44116  1  0  0  0
 45 46  2  0  0  0
 45117  1  0  0  0
 46118  1  0  0  0
 47119  1  0  0  0
 47120  1  0  0  0
 48 56  1  0  0  0
 48 65  1  0  0  0
 48121  1  0  0  0
 49 50  1  0  0  0
 49 53  1  0  0  0
 49 64  1  0  0  0
 49122  1  0  0  0
 50 51  1  0  0  0
 50123  1  0  0  0
 50124  1  0  0  0
 51 52  1  0  0  0
 51125  1  0  0  0
 51126  1  0  0  0
 52127  1  0  0  0
 52128  1  0  0  0
 53 54  1  0  0  0
 54 55  2  0  0  0
 54129  1  0  0  0
 55 57  1  0  0  0
 55130  1  0  0  0
 56 69  2  0  0  0
 57 58  2  0  0  0
 57131  1  0  0  0
 58132  1  0  0  0
 59 60  1  0  0  0
 59 61  1  0  0  0
 59 62  1  0  0  0
 60133  1  0  0  0
 60134  1  0  0  0
 60135  1  0  0  0
 61136  1  0  0  0
 61137  1  0  0  0
 61138  1  0  0  0
 62139  1  0  0  0
 62140  1  0  0  0
 62141  1  0  0  0
 63 65  1  0  0  0
 63142  1  0  0  0
 63143  1  0  0  0
 63144  1  0  0  0
 64145  1  0  0  0
 65146  1  0  0  0
 68 83  1  0  0  0
 71 72  2  0  0  0
 71 75  1  0  0  0
 71147  1  0  0  0
 72 76  1  0  0  0
 72 84  1  0  0  0
 73 74  1  0  0  0
 73 76  2  0  0  0
 73 77  1  0  0  0
 74 75  2  0  0  0
 74 80  1  0  0  0
 75 86  1  0  0  0
 76 87  1  0  0  0
 77148  1  0  0  0
 77149  1  0  0  0
 77150  1  0  0  0
 78 81  1  0  0  0
 78151  1  0  0  0
 78152  1  0  0  0
 78153  1  0  0  0
 79 85  1  0  0  0
 79154  1  0  0  0
 79155  1  0  0  0
 79156  1  0  0  0
 80 83  1  0  0  0
 80157  1  0  0  0
 80158  1  0  0  0
 81 82  1  0  0  0
 81159  1  0  0  0
 81160  1  0  0  0
 82161  1  0  0  0
 82162  1  0  0  0
 82 84  1  0  0  0
 83163  1  0  0  0
 83164  1  0  0  0
 84 85  1  0  0  0
 84165  1  0  0  0
M  ISO  4   1 100  68 101  83 101  85 100
M  END
> <chiral flag>
0

> <version>
0

> <s_m_source_file>
/data/baiqing/PycharmProjects/Reinvent-master-3.2/result/LINK_invent/BTK/process_docking_weight1_custom_sum_contain_oxygen_bond_distance_aromatic_linkinvent_7_9_3/rearranged_h_0020.sdf

> <i_m_source_file_index>
40

> <r_mmod_Potential_Energy-OPLS-2005>
593.768249511719

> <r_mmod_Stretch_Energy-OPLS-2005>
208.139099121094

> <r_mmod_Bend_Energy-OPLS-2005>
246.977172851562

> <r_mmod_Torsional_Energy-OPLS-2005>
319.035430908203

> <r_mmod_Improper_Torsional_Energy-OPLS-2005>
10.0504245758057

> <r_mmod_Van_der_Waal_Energy-OPLS-2005>
136.024047851562

> <r_mmod_Electrostatic_Energy-OPLS-2005>
-294.114013671875

> <r_mmod_Solvation_Energy-OPLS-2005>
-181.529693603516

> <b_mmod_Minimization_Converged-OPLS-2005>
0

> <r_mmod_RMS_Derivative-OPLS-2005>
3.30494499206543

$$$$
40
                    3D
 Structure written by MMmdl.
168176  0  0  1  0            999 V2000
  -30.3451  -15.6281   20.4539 C   0  0  0  0  0  0
  -30.4359  -13.1028   19.5511 C   0  0  0  0  0  0
  -29.5429  -12.7230   18.3297 C   0  0  0  0  0  0
  -28.1020  -12.3816   18.7424 C   0  0  0  0  0  0
  -27.6074  -13.3305   19.8529 C   0  0  2  0  0  0
  -28.6482  -13.5527   20.9785 C   0  0  0  0  0  0
  -25.2125  -13.8228   20.5461 C   0  0  0  0  0  0
  -24.1619  -13.0360   20.9242 C   0  0  0  0  0  0
  -24.6434  -11.6939   20.8849 C   0  0  0  0  0  0
  -23.9122  -10.4286   21.0418 C   0  0  0  0  0  0
  -24.3645   -9.4196   21.9176 C   0  0  0  0  0  0
  -23.6323   -8.2229   22.0732 C   0  0  0  0  0  0
  -22.4319   -8.0260   21.3515 C   0  0  0  0  0  0
  -21.9962   -9.0233   20.4612 C   0  0  0  0  0  0
  -22.7306  -10.2117   20.3038 C   0  0  0  0  0  0
  -21.6862   -6.0711   22.5261 C   0  0  0  0  0  0
  -21.4035   -6.5610   23.8198 C   0  0  0  0  0  0
  -21.3671   -5.6763   24.9160 C   0  0  0  0  0  0
  -21.6045   -4.3026   24.7220 C   0  0  0  0  0  0
  -21.8817   -3.8114   23.4335 C   0  0  0  0  0  0
  -21.9211   -4.6940   22.3394 C   0  0  0  0  0  0
  -22.7631  -13.5083   21.1880 C   0  0  0  0  0  0
  -22.1661   -4.2109   21.0975 F   0  0  0  0  0  0
  -21.5658   -3.4518   25.7730 F   0  0  0  0  0  0
  -29.8148  -14.2509   20.3695 N   0  0  0  0  0  0
  -26.2789  -12.9703   20.3381 N   0  0  0  0  0  0
  -25.9445  -11.6760   20.5940 N   0  0  0  0  0  0
  -22.0317  -12.8084   22.0495 N   0  0  0  0  0  0
  -25.3316  -15.1859   20.3258 N   0  0  0  0  0  0
  -31.5388  -15.5667   20.1067 O   0  0  0  0  0  0
  -21.6663   -6.8864   21.4225 O   0  0  0  0  0  0
  -22.3241  -14.5351   20.6724 O   0  0  0  0  0  0
  -24.6858  -31.7881   23.1454 C   0  0  0  0  0  0
  -25.9400  -32.4406   23.8043 C   0  0  1  0  0  0
  -27.2519  -26.6372   20.2399 C   0  0  0  0  0  0
  -25.5960  -33.8247   24.1903 N   0  0  0  0  0  0
  -23.5252  -30.3723   21.4995 C   0  0  2  0  0  0
  -25.0005  -28.7096   20.1166 C   0  0  0  0  0  0
  -22.7820  -29.4140   22.4711 C   0  0  0  0  0  0
  -18.0314  -28.1406   22.8471 C   0  0  0  0  0  0
  -24.1492  -36.7127   23.2655 C   0  0  0  0  0  0
  -26.1068  -30.4843   21.4428 C   0  0  0  0  0  0
  -26.1745  -29.0437   20.8008 C   0  0  0  0  0  0
  -27.2806  -28.0350   20.8332 C   0  0  0  0  0  0
  -26.0752  -26.5616   19.4465 C   0  0  0  0  0  0
  -25.0027  -27.5024   19.3960 C   0  0  0  0  0  0
  -23.7957  -29.6619   20.1367 C   0  0  0  0  0  0
  -25.4152  -36.2869   24.0276 C   0  0  1  0  0  0
  -20.5967  -28.3734   23.1197 C   0  0  2  0  0  0
  -20.6781  -26.9399   22.5442 C   0  0  0  0  0  0
  -19.5764  -26.6350   21.5253 C   0  0  0  0  0  0
  -18.1941  -26.7930   22.1641 C   0  0  0  0  0  0
  -19.1600  -28.8916   23.2794 C   0  0  0  0  0  0
  -18.9480  -30.1499   23.8822 C   0  0  0  0  0  0
  -17.6475  -30.6603   24.0537 C   0  0  0  0  0  0
  -25.9138  -34.9258   23.4946 C   0  0  0  0  0  0
  -16.5357  -29.9077   23.6358 C   0  0  0  0  0  0
  -16.7294  -28.6500   23.0383 C   0  0  0  0  0  0
  -26.4595  -31.6494   25.0711 C   0  0  0  0  0  0
  -25.3657  -31.3816   26.1320 C   0  0  0  0  0  0
  -27.0545  -30.2814   24.6705 C   0  0  0  0  0  0
  -27.6026  -32.4378   25.7523 C   0  0  0  0  0  0
  -27.5568  -37.1720   24.8466 C   0  0  0  0  0  0
  -21.4462  -29.2944   22.3516 N   0  0  0  0  0  0
  -26.4276  -37.3637   23.9408 N   0  0  0  0  0  0
  -24.7947  -30.9207   22.0788 N   0  0  0  0  0  0
  -23.4216  -28.7786   23.3126 O   0  0  0  0  0  0
  -28.2192  -25.3998   20.2947 O   0  0  0  0  0  0
  -26.5793  -34.8847   22.4577 O   0  0  0  0  0  0
  -23.5856  -32.0999   23.6310 O   0  0  0  0  0  0
  -30.1056  -21.3193   21.3313 C   0  0  0  0  0  0
  -28.5931  -20.1539   20.1480 C   0  0  0  0  0  0
  -29.0345  -21.9097   20.2876 C   0  0  1  0  0  0
  -30.7104  -19.7845   21.0581 C   0  0  1  0  0  0
  -29.7372  -18.7594   20.2925 C   0  0  1  0  0  0
  -33.2635  -20.2822   21.1293 C   0  0  0  0  0  0
  -27.4257  -16.9140   21.8763 C   0  0  0  0  0  0
  -29.5535  -16.3812   23.2321 C   0  0  0  0  0  0
  -26.9509  -23.3283   19.3645 C   0  0  0  0  0  0
  -27.3761  -23.5557   21.7920 C   0  0  0  0  0  0
  -32.0575  -19.8202   20.3022 C   0  0  0  0  0  0
  -28.9294  -17.1302   22.0285 C   0  0  0  0  0  0
  -28.0480  -23.6202   20.4077 C   0  0  0  0  0  0
  -29.6520  -17.0213   20.7275 N   0  0  0  0  0  0
  -31.4108  -13.3930   19.1591 H   0  0  0  0  0  0
  -30.6479  -12.2309   20.1700 H   0  0  0  0  0  0
  -29.9861  -11.9017   17.7658 H   0  0  0  0  0  0
  -29.5180  -13.5793   17.6546 H   0  0  0  0  0  0
  -28.0716  -11.3503   19.0964 H   0  0  0  0  0  0
  -27.4367  -12.4391   17.8783 H   0  0  0  0  0  0
  -27.4984  -14.2989   19.3626 H   0  0  0  0  0  0
  -28.9168  -12.6020   21.4398 H   0  0  0  0  0  0
  -28.2365  -14.1317   21.7952 H   0  0  0  0  0  0
  -25.2772   -9.5676   22.4773 H   0  0  0  0  0  0
  -24.0017   -7.4605   22.7433 H   0  0  0  0  0  0
  -21.0902   -8.8729   19.8909 H   0  0  0  0  0  0
  -22.3730  -10.9630   19.6141 H   0  0  0  0  0  0
  -21.2008   -7.6111   23.9708 H   0  0  0  0  0  0
  -21.1514   -6.0477   25.9062 H   0  0  0  0  0  0
  -22.0606   -2.7570   23.2844 H   0  0  0  0  0  0
  -22.3986  -11.9842   22.4997 H   0  0  0  0  0  0
  -21.0895  -13.1020   22.2635 H   0  0  0  0  0  0
  -24.5466  -15.8231   20.3961 H   0  0  0  0  0  0
  -26.1762  -15.6377   19.9995 H   0  0  0  0  0  0
  -26.7467  -32.4844   23.0737 H   0  0  0  0  0  0
  -25.0025  -33.9284   25.0000 H   0  0  0  0  0  0
  -22.8516  -31.2050   21.2914 H   0  0  0  0  0  0
  -23.3783  -35.9427   23.3277 H   0  0  0  0  0  0
  -24.3554  -36.8837   22.2076 H   0  0  0  0  0  0
  -23.7214  -37.6283   23.6763 H   0  0  0  0  0  0
  -26.3298  -31.1932   20.6458 H   0  0  0  0  0  0
  -26.9513  -30.5534   22.1146 H   0  0  0  0  0  0
  -28.1614  -28.2928   21.4055 H   0  0  0  0  0  0
  -25.9558  -25.6993   18.8138 H   0  0  0  0  0  0
  -24.1695  -27.2643   18.7509 H   0  0  0  0  0  0
  -23.9787  -30.4149   19.3699 H   0  0  0  0  0  0
  -22.9107  -29.1166   19.8062 H   0  0  0  0  0  0
  -25.1359  -36.1646   25.0764 H   0  0  0  0  0  0
  -20.9978  -28.3296   24.1355 H   0  0  0  0  0  0
  -20.5692  -26.2304   23.3664 H   0  0  0  0  0  0
  -21.6629  -26.7369   22.1220 H   0  0  0  0  0  0
  -19.6911  -25.6253   21.1306 H   0  0  0  0  0  0
  -19.6725  -27.3149   20.6782 H   0  0  0  0  0  0
  -17.4212  -26.6678   21.4032 H   0  0  0  0  0  0
  -18.0303  -26.0093   22.9061 H   0  0  0  0  0  0
  -19.7959  -30.7345   24.2142 H   0  0  0  0  0  0
  -17.5020  -31.6290   24.5141 H   0  0  0  0  0  0
  -15.5360  -30.2953   23.7749 H   0  0  0  0  0  0
  -15.8673  -28.0801   22.7147 H   0  0  0  0  0  0
  -24.5846  -30.7172   25.7615 H   0  0  0  0  0  0
  -24.8860  -32.3039   26.4606 H   0  0  0  0  0  0
  -25.7847  -30.9061   27.0197 H   0  0  0  0  0  0
  -26.3282  -29.6391   24.1712 H   0  0  0  0  0  0
  -27.3924  -29.7319   25.5506 H   0  0  0  0  0  0
  -27.9306  -30.3923   24.0306 H   0  0  0  0  0  0
  -27.2548  -33.3731   26.1927 H   0  0  0  0  0  0
  -28.3941  -32.6853   25.0434 H   0  0  0  0  0  0
  -28.0590  -31.8629   26.5594 H   0  0  0  0  0  0
  -28.2543  -38.0054   24.7531 H   0  0  0  0  0  0
  -28.1106  -36.2580   24.6282 H   0  0  0  0  0  0
  -27.2284  -37.1328   25.8866 H   0  0  0  0  0  0
  -20.9777  -29.8563   21.6553 H   0  0  0  0  0  0
  -26.0106  -38.2684   24.1443 H   0  0  0  0  0  0
  -29.6050  -21.2834   22.3008 H   0  0  0  0  0  0
  -30.9242  -22.0245   21.4816 H   0  0  0  0  0  0
  -28.0870  -20.0332   19.1906 H   0  0  0  0  0  0
  -27.8114  -19.9818   20.8896 H   0  0  0  0  0  0
  -29.6255  -22.0903   19.3888 H   0  0  0  0  0  0
  -30.9254  -19.3522   22.0377 H   0  0  0  0  0  0
  -30.1133  -18.6584   19.2734 H   0  0  0  0  0  0
  -34.1894  -20.0449   20.6020 H   0  0  0  0  0  0
  -33.3065  -19.7714   22.0908 H   0  0  0  0  0  0
  -33.2531  -21.3582   21.3078 H   0  0  0  0  0  0
  -27.0615  -17.3529   20.9471 H   0  0  0  0  0  0
  -26.8780  -17.3896   22.6895 H   0  0  0  0  0  0
  -27.1589  -15.8672   21.8961 H   0  0  0  0  0  0
  -28.9892  -16.5922   24.1425 H   0  0  0  0  0  0
  -30.5748  -16.7142   23.4188 H   0  0  0  0  0  0
  -29.5756  -15.2984   23.1289 H   0  0  0  0  0  0
  -26.7415  -22.2578   19.2953 H   0  0  0  0  0  0
  -27.2184  -23.6764   18.3671 H   0  0  0  0  0  0
  -25.9969  -23.7788   19.6336 H   0  0  0  0  0  0
  -27.9322  -24.1250   22.5355 H   0  0  0  0  0  0
  -27.2868  -22.5316   22.1524 H   0  0  0  0  0  0
  -26.3668  -23.9712   21.7714 H   0  0  0  0  0  0
  -31.9624  -20.4300   19.4022 H   0  0  0  0  0  0
  -32.2878  -18.8101   19.9565 H   0  0  0  0  0  0
  -28.9889  -18.1642   22.3681 H   0  0  0  0  0  0
  1 25  1  0  0  0
  1 30  2  0  0  0
  1 84  1  0  0  0
  2  3  1  0  0  0
  2 25  1  0  0  0
  2 85  1  0  0  0
  2 86  1  0  0  0
  3  4  1  0  0  0
  3 87  1  0  0  0
  3 88  1  0  0  0
  4  5  1  0  0  0
  4 89  1  0  0  0
  4 90  1  0  0  0
  5  6  1  0  0  0
  5 26  1  0  0  0
  5 91  1  0  0  0
  6 25  1  0  0  0
  6 92  1  0  0  0
  6 93  1  0  0  0
  7  8  2  0  0  0
  7 26  1  0  0  0
  7 29  1  0  0  0
  8  9  1  0  0  0
  8 22  1  0  0  0
  9 10  1  0  0  0
  9 27  2  0  0  0
 10 11  2  0  0  0
 10 15  1  0  0  0
 11 12  1  0  0  0
 11 94  1  0  0  0
 12 13  2  0  0  0
 12 95  1  0  0  0
 13 14  1  0  0  0
 13 31  1  0  0  0
 14 15  2  0  0  0
 14 96  1  0  0  0
 15 97  1  0  0  0
 16 17  2  0  0  0
 16 21  1  0  0  0
 16 31  1  0  0  0
 17 18  1  0  0  0
 17 98  1  0  0  0
 18 19  2  0  0  0
 18 99  1  0  0  0
 19 20  1  0  0  0
 19 24  1  0  0  0
 20 21  2  0  0  0
 20100  1  0  0  0
 21 23  1  0  0  0
 22 28  1  0  0  0
 22 32  2  0  0  0
 26 27  1  0  0  0
 28101  1  0  0  0
 28102  1  0  0  0
 29103  1  0  0  0
 29104  1  0  0  0
 33 34  1  0  0  0
 33 66  1  0  0  0
 33 70  2  0  0  0
 34 36  1  0  0  0
 34 59  1  0  0  0
 34105  1  0  0  0
 35 44  2  0  0  0
 35 45  1  0  0  0
 35 68  1  0  0  0
 36 56  1  0  0  0
 36106  1  0  0  0
 37 39  1  0  0  0
 37 47  1  0  0  0
 37 66  1  0  0  0
 37107  1  0  0  0
 38 43  2  0  0  0
 38 46  1  0  0  0
 38 47  1  0  0  0
 39 64  1  0  0  0
 39 67  2  0  0  0
 40 52  1  0  0  0
 40 53  2  0  0  0
 40 58  1  0  0  0
 41108  1  0  0  0
 41109  1  0  0  0
 41110  1  0  0  0
 41 48  1  0  0  0
 42 43  1  0  0  0
 42 66  1  0  0  0
 42111  1  0  0  0
 42112  1  0  0  0
 43 44  1  0  0  0
 44113  1  0  0  0
 45 46  2  0  0  0
 45114  1  0  0  0
 46115  1  0  0  0
 47116  1  0  0  0
 47117  1  0  0  0
 48 56  1  0  0  0
 48 65  1  0  0  0
 48118  1  0  0  0
 49 50  1  0  0  0
 49 53  1  0  0  0
 49 64  1  0  0  0
 49119  1  0  0  0
 50 51  1  0  0  0
 50120  1  0  0  0
 50121  1  0  0  0
 51 52  1  0  0  0
 51122  1  0  0  0
 51123  1  0  0  0
 52124  1  0  0  0
 52125  1  0  0  0
 53 54  1  0  0  0
 54 55  2  0  0  0
 54126  1  0  0  0
 55 57  1  0  0  0
 55127  1  0  0  0
 56 69  2  0  0  0
 57 58  2  0  0  0
 57128  1  0  0  0
 58129  1  0  0  0
 59 60  1  0  0  0
 59 61  1  0  0  0
 59 62  1  0  0  0
 60130  1  0  0  0
 60131  1  0  0  0
 60132  1  0  0  0
 61133  1  0  0  0
 61134  1  0  0  0
 61135  1  0  0  0
 62136  1  0  0  0
 62137  1  0  0  0
 62138  1  0  0  0
 63 65  1  0  0  0
 63139  1  0  0  0
 63140  1  0  0  0
 63141  1  0  0  0
 64142  1  0  0  0
 65143  1  0  0  0
 68 83  1  0  0  0
 71 74  1  0  0  0
 71144  1  0  0  0
 71145  1  0  0  0
 71 73  1  0  0  0
 72 73  1  0  0  0
 72 75  1  0  0  0
 72146  1  0  0  0
 72147  1  0  0  0
 73 83  1  0  0  0
 73148  1  0  0  0
 74 75  1  0  0  0
 74 81  1  0  0  0
 74149  1  0  0  0
 75 84  1  0  0  0
 75150  1  0  0  0
 76 81  1  0  0  0
 76151  1  0  0  0
 76152  1  0  0  0
 76153  1  0  0  0
 77154  1  0  0  0
 77155  1  0  0  0
 77156  1  0  0  0
 77 82  1  0  0  0
 78 82  1  0  0  0
 78157  1  0  0  0
 78158  1  0  0  0
 78159  1  0  0  0
 79160  1  0  0  0
 79161  1  0  0  0
 79162  1  0  0  0
 79 83  1  0  0  0
 80 83  1  0  0  0
 80163  1  0  0  0
 80164  1  0  0  0
 80165  1  0  0  0
 81166  1  0  0  0
 81167  1  0  0  0
 82 84  1  0  0  0
 82168  1  0  0  0
M  ISO  4   1 100  68 101  83 101  84 100
M  END
> <chiral flag>
0

> <version>
0

> <s_m_source_file>
/data/baiqing/PycharmProjects/Reinvent-master-3.2/result/LINK_invent/BTK/process_docking_weight1_custom_sum_contain_oxygen_bond_distance_aromatic_linkinvent_7_9_3/rearranged_h_0020.sdf

> <i_m_source_file_index>
41

> <r_mmod_Potential_Energy-OPLS-2005>
2931.77368164062

> <r_mmod_Stretch_Energy-OPLS-2005>
1163.71594238281

> <r_mmod_Bend_Energy-OPLS-2005>
783.684265136719

> <r_mmod_Torsional_Energy-OPLS-2005>
375.487518310547

> <r_mmod_Improper_Torsional_Energy-OPLS-2005>
4.79135751724243

> <r_mmod_Van_der_Waal_Energy-OPLS-2005>
120.145683288574

> <r_mmod_Electrostatic_Energy-OPLS-2005>
-275.745422363281

> <r_mmod_Solvation_Energy-OPLS-2005>
-176.283996582031

> <b_mmod_Minimization_Converged-OPLS-2005>
0

> <r_mmod_RMS_Derivative-OPLS-2005>
6.03209114074707

$$$$
41
                    3D
 Structure written by MMmdl.
156164  0  0  1  0            999 V2000
  -30.4329  -15.1809   20.3791 C   0  0  0  0  0  0
  -30.4504  -12.7484   19.5106 C   0  0  0  0  0  0
  -29.5357  -12.5669   18.2733 C   0  0  0  0  0  0
  -28.0777  -12.3066   18.6970 C   0  0  0  0  0  0
  -27.6190  -13.2639   19.8263 C   0  0  2  0  0  0
  -28.6583  -13.3796   20.9608 C   0  0  0  0  0  0
  -25.2420  -13.8226   20.5716 C   0  0  0  0  0  0
  -24.1759  -13.0431   20.9239 C   0  0  0  0  0  0
  -24.6398  -11.6923   20.8749 C   0  0  0  0  0  0
  -23.9085  -10.4290   21.0403 C   0  0  0  0  0  0
  -24.3631   -9.4206   21.9183 C   0  0  0  0  0  0
  -23.6301   -8.2243   22.0752 C   0  0  0  0  0  0
  -22.4284   -8.0281   21.3543 C   0  0  0  0  0  0
  -21.9921   -9.0255   20.4647 C   0  0  0  0  0  0
  -22.7253  -10.2132   20.3056 C   0  0  0  0  0  0
  -21.6854   -6.0735   22.5278 C   0  0  0  0  0  0
  -21.4014   -6.5637   23.8212 C   0  0  0  0  0  0
  -21.3660   -5.6788   24.9173 C   0  0  0  0  0  0
  -21.6048   -4.3051   24.7223 C   0  0  0  0  0  0
  -21.8818   -3.8144   23.4340 C   0  0  0  0  0  0
  -21.9192   -4.6962   22.3398 C   0  0  0  0  0  0
  -22.7776  -13.5195   21.1888 C   0  0  0  0  0  0
  -22.1662   -4.2147   21.0976 F   0  0  0  0  0  0
  -21.5630   -3.4535   25.7735 F   0  0  0  0  0  0
  -29.9008  -13.8701   20.3445 N   0  0  0  0  0  0
  -26.2845  -12.9482   20.3201 N   0  0  0  0  0  0
  -25.9336  -11.6598   20.5706 N   0  0  0  0  0  0
  -22.0423  -12.8192   22.0446 N   0  0  0  0  0  0
  -25.4043  -15.1962   20.4148 N   0  0  0  0  0  0
  -31.6523  -15.2410   20.1675 O   0  0  0  0  0  0
  -21.6644   -6.8881   21.4242 O   0  0  0  0  0  0
  -22.3461  -14.5495   20.6721 O   0  0  0  0  0  0
  -24.6583  -31.8283   23.1745 C   0  0  0  0  0  0
  -25.9286  -32.4610   23.8193 C   0  0  1  0  0  0
  -27.2215  -26.9792   20.1791 C   0  0  0  0  0  0
  -25.5973  -33.8421   24.2103 N   0  0  0  0  0  0
  -23.4705  -30.4411   21.5230 C   0  0  2  0  0  0
  -24.9233  -28.8352   20.1144 C   0  0  0  0  0  0
  -22.7641  -29.4464   22.4803 C   0  0  0  0  0  0
  -18.0319  -28.1406   22.8470 C   0  0  0  0  0  0
  -24.1496  -36.7216   23.2646 C   0  0  0  0  0  0
  -26.0365  -30.6518   21.3965 C   0  0  0  0  0  0
  -26.1060  -29.2464   20.7412 C   0  0  0  0  0  0
  -27.2521  -28.3395   20.7469 C   0  0  0  0  0  0
  -26.0080  -26.7042   19.5107 C   0  0  0  0  0  0
  -24.8964  -27.5832   19.4797 C   0  0  0  0  0  0
  -23.7075  -29.7576   20.1487 C   0  0  0  0  0  0
  -25.4133  -36.2978   24.0304 C   0  0  1  0  0  0
  -20.5939  -28.3745   23.1203 C   0  0  2  0  0  0
  -20.6798  -26.9433   22.5406 C   0  0  0  0  0  0
  -19.5772  -26.6379   21.5214 C   0  0  0  0  0  0
  -18.1954  -26.7942   22.1620 C   0  0  0  0  0  0
  -19.1580  -28.8896   23.2825 C   0  0  0  0  0  0
  -18.9487  -30.1485   23.8859 C   0  0  0  0  0  0
  -17.6482  -30.6596   24.0553 C   0  0  0  0  0  0
  -25.9093  -34.9359   23.5021 C   0  0  0  0  0  0
  -16.5372  -29.9081   23.6344 C   0  0  0  0  0  0
  -16.7301  -28.6502   23.0363 C   0  0  0  0  0  0
  -26.4557  -31.6538   25.0700 C   0  0  0  0  0  0
  -25.3701  -31.3767   26.1367 C   0  0  0  0  0  0
  -27.0447  -30.2913   24.6394 C   0  0  0  0  0  0
  -27.6062  -32.4336   25.7496 C   0  0  0  0  0  0
  -27.5575  -37.1763   24.8464 C   0  0  0  0  0  0
  -21.4317  -29.3040   22.3553 N   0  0  0  0  0  0
  -26.4282  -37.3711   23.9407 N   0  0  0  0  0  0
  -24.7426  -30.9993   22.0855 N   0  0  0  0  0  0
  -23.4211  -28.8035   23.3030 O   0  0  0  0  0  0
  -28.2497  -25.9162   20.2387 O   0  0  0  0  0  0
  -26.5693  -34.8887   22.4610 O   0  0  0  0  0  0
  -23.5664  -32.1230   23.6872 O   0  0  0  0  0  0
  -30.1429  -18.9269   21.2441 C   0  0  0  0  0  0
  -29.9593  -20.3995   21.2512 C   0  0  0  0  0  0
  -28.5305  -20.2429   19.4235 C   0  0  0  0  0  0
  -29.1340  -21.2019   20.3429 C   0  0  0  0  0  0
  -28.7128  -18.7547   19.4317 C   0  0  0  0  0  0
  -29.5534  -17.9659   20.3374 C   0  0  0  0  0  0
  -30.7386  -21.1447   22.3216 C   0  0  0  0  0  0
  -27.6504  -20.8467   18.3363 C   0  0  0  0  0  0
  -27.9525  -17.9565   18.3768 C   0  0  0  0  0  0
  -29.1561  -22.9490   20.2712 C   0  0  0  0  0  0
  -28.0123  -24.3017   20.2021 C   0  0  0  0  0  0
  -29.5680  -16.3641   20.4351 N   0  0  0  0  0  0
  -31.4696  -12.9589   19.1836 H   0  0  0  0  0  0
  -30.5107  -11.8260   20.0901 H   0  0  0  0  0  0
  -29.8994  -11.7502   17.6481 H   0  0  0  0  0  0
  -29.5794  -13.4669   17.6575 H   0  0  0  0  0  0
  -28.0145  -11.2748   19.0446 H   0  0  0  0  0  0
  -27.4110  -12.3807   17.8367 H   0  0  0  0  0  0
  -27.5506  -14.2447   19.3547 H   0  0  0  0  0  0
  -28.8058  -12.4238   21.4656 H   0  0  0  0  0  0
  -28.3168  -14.0821   21.7226 H   0  0  0  0  0  0
  -25.2774   -9.5685   22.4758 H   0  0  0  0  0  0
  -24.0009   -7.4635   22.7474 H   0  0  0  0  0  0
  -21.0849   -8.8779   19.8955 H   0  0  0  0  0  0
  -22.3712  -10.9672   19.6166 H   0  0  0  0  0  0
  -21.2011   -7.6146   23.9715 H   0  0  0  0  0  0
  -21.1484   -6.0518   25.9077 H   0  0  0  0  0  0
  -22.0598   -2.7606   23.2837 H   0  0  0  0  0  0
  -22.4049  -11.9874   22.4864 H   0  0  0  0  0  0
  -21.1033  -13.1215   22.2631 H   0  0  0  0  0  0
  -24.6282  -15.8393   20.5283 H   0  0  0  0  0  0
  -26.2367  -15.6430   20.0569 H   0  0  0  0  0  0
  -26.7349  -32.5168   23.0906 H   0  0  0  0  0  0
  -25.0087  -33.9507   25.0230 H   0  0  0  0  0  0
  -22.7813  -31.2713   21.3550 H   0  0  0  0  0  0
  -23.3771  -35.9534   23.3277 H   0  0  0  0  0  0
  -24.3580  -36.8889   22.2068 H   0  0  0  0  0  0
  -23.7242  -37.6392   23.6718 H   0  0  0  0  0  0
  -26.2090  -31.3962   20.6181 H   0  0  0  0  0  0
  -26.8998  -30.7084   22.0478 H   0  0  0  0  0  0
  -28.1512  -28.6534   21.2583 H   0  0  0  0  0  0
  -25.8877  -25.7483   19.0228 H   0  0  0  0  0  0
  -23.9962  -27.2622   18.9733 H   0  0  0  0  0  0
  -23.8589  -30.5263   19.3899 H   0  0  0  0  0  0
  -22.8187  -29.2085   19.8330 H   0  0  0  0  0  0
  -25.1331  -36.1782   25.0797 H   0  0  0  0  0  0
  -21.0026  -28.3349   24.1326 H   0  0  0  0  0  0
  -20.5686  -26.2360   23.3639 H   0  0  0  0  0  0
  -21.6663  -26.7417   22.1208 H   0  0  0  0  0  0
  -19.6930  -25.6279   21.1275 H   0  0  0  0  0  0
  -19.6716  -27.3165   20.6726 H   0  0  0  0  0  0
  -17.4225  -26.6687   21.4020 H   0  0  0  0  0  0
  -18.0343  -26.0095   22.9026 H   0  0  0  0  0  0
  -19.7962  -30.7312   24.2213 H   0  0  0  0  0  0
  -17.5032  -31.6275   24.5156 H   0  0  0  0  0  0
  -15.5370  -30.2967   23.7692 H   0  0  0  0  0  0
  -15.8703  -28.0804   22.7102 H   0  0  0  0  0  0
  -24.5899  -30.7096   25.7679 H   0  0  0  0  0  0
  -24.8866  -32.2956   26.4691 H   0  0  0  0  0  0
  -25.7948  -30.9005   27.0212 H   0  0  0  0  0  0
  -26.3099  -29.6599   24.1385 H   0  0  0  0  0  0
  -27.3984  -29.7265   25.5030 H   0  0  0  0  0  0
  -27.9041  -30.4111   23.9793 H   0  0  0  0  0  0
  -27.2641  -33.3676   26.1967 H   0  0  0  0  0  0
  -28.3926  -32.6832   25.0360 H   0  0  0  0  0  0
  -28.0672  -31.8532   26.5497 H   0  0  0  0  0  0
  -28.2567  -38.0083   24.7517 H   0  0  0  0  0  0
  -28.1095  -36.2607   24.6281 H   0  0  0  0  0  0
  -27.2291  -37.1395   25.8866 H   0  0  0  0  0  0
  -20.9565  -29.8719   21.6678 H   0  0  0  0  0  0
  -26.0134  -38.2771   24.1417 H   0  0  0  0  0  0
  -30.7705  -18.5058   22.0169 H   0  0  0  0  0  0
  -31.2484  -20.4665   23.0066 H   0  0  0  0  0  0
  -30.0710  -21.7658   22.9196 H   0  0  0  0  0  0
  -31.4976  -21.7826   21.8677 H   0  0  0  0  0  0
  -27.4573  -21.9049   18.4993 H   0  0  0  0  0  0
  -26.6783  -20.3548   18.2941 H   0  0  0  0  0  0
  -28.1314  -20.7515   17.3624 H   0  0  0  0  0  0
  -28.1005  -18.3797   17.3835 H   0  0  0  0  0  0
  -26.8849  -17.9561   18.5968 H   0  0  0  0  0  0
  -28.2757  -16.9188   18.3113 H   0  0  0  0  0  0
  -29.8006  -23.1238   19.4099 H   0  0  0  0  0  0
  -29.7866  -23.2357   21.1093 H   0  0  0  0  0  0
  -27.3142  -24.1264   21.0209 H   0  0  0  0  0  0
  -27.4243  -24.1295   19.3019 H   0  0  0  0  0  0
  -28.6215  -16.0195   20.4712 H   0  0  0  0  0  0
  1 25  1  0  0  0
  1 30  2  0  0  0
  1 82  1  0  0  0
  2  3  1  0  0  0
  2 25  1  0  0  0
  2 83  1  0  0  0
  2 84  1  0  0  0
  3  4  1  0  0  0
  3 85  1  0  0  0
  3 86  1  0  0  0
  4  5  1  0  0  0
  4 87  1  0  0  0
  4 88  1  0  0  0
  5  6  1  0  0  0
  5 26  1  0  0  0
  5 89  1  0  0  0
  6 25  1  0  0  0
  6 90  1  0  0  0
  6 91  1  0  0  0
  7  8  2  0  0  0
  7 26  1  0  0  0
  7 29  1  0  0  0
  8  9  1  0  0  0
  8 22  1  0  0  0
  9 10  1  0  0  0
  9 27  2  0  0  0
 10 11  2  0  0  0
 10 15  1  0  0  0
 11 12  1  0  0  0
 11 92  1  0  0  0
 12 13  2  0  0  0
 12 93  1  0  0  0
 13 14  1  0  0  0
 13 31  1  0  0  0
 14 15  2  0  0  0
 14 94  1  0  0  0
 15 95  1  0  0  0
 16 17  2  0  0  0
 16 21  1  0  0  0
 16 31  1  0  0  0
 17 18  1  0  0  0
 17 96  1  0  0  0
 18 19  2  0  0  0
 18 97  1  0  0  0
 19 20  1  0  0  0
 19 24  1  0  0  0
 20 21  2  0  0  0
 20 98  1  0  0  0
 21 23  1  0  0  0
 22 28  1  0  0  0
 22 32  2  0  0  0
 26 27  1  0  0  0
 28 99  1  0  0  0
 28100  1  0  0  0
 29101  1  0  0  0
 29102  1  0  0  0
 33 34  1  0  0  0
 33 66  1  0  0  0
 33 70  2  0  0  0
 34 36  1  0  0  0
 34 59  1  0  0  0
 34103  1  0  0  0
 35 44  2  0  0  0
 35 45  1  0  0  0
 35 68  1  0  0  0
 36 56  1  0  0  0
 36104  1  0  0  0
 37 39  1  0  0  0
 37 47  1  0  0  0
 37 66  1  0  0  0
 37105  1  0  0  0
 38 43  2  0  0  0
 38 46  1  0  0  0
 38 47  1  0  0  0
 39 64  1  0  0  0
 39 67  2  0  0  0
 40 52  1  0  0  0
 40 53  2  0  0  0
 40 58  1  0  0  0
 41106  1  0  0  0
 41107  1  0  0  0
 41108  1  0  0  0
 41 48  1  0  0  0
 42 43  1  0  0  0
 42 66  1  0  0  0
 42109  1  0  0  0
 42110  1  0  0  0
 43 44  1  0  0  0
 44111  1  0  0  0
 45 46  2  0  0  0
 45112  1  0  0  0
 46113  1  0  0  0
 47114  1  0  0  0
 47115  1  0  0  0
 48 56  1  0  0  0
 48 65  1  0  0  0
 48116  1  0  0  0
 49 50  1  0  0  0
 49 53  1  0  0  0
 49 64  1  0  0  0
 49117  1  0  0  0
 50 51  1  0  0  0
 50118  1  0  0  0
 50119  1  0  0  0
 51 52  1  0  0  0
 51120  1  0  0  0
 51121  1  0  0  0
 52122  1  0  0  0
 52123  1  0  0  0
 53 54  1  0  0  0
 54 55  2  0  0  0
 54124  1  0  0  0
 55 57  1  0  0  0
 55125  1  0  0  0
 56 69  2  0  0  0
 57 58  2  0  0  0
 57126  1  0  0  0
 58127  1  0  0  0
 59 60  1  0  0  0
 59 61  1  0  0  0
 59 62  1  0  0  0
 60128  1  0  0  0
 60129  1  0  0  0
 60130  1  0  0  0
 61131  1  0  0  0
 61132  1  0  0  0
 61133  1  0  0  0
 62134  1  0  0  0
 62135  1  0  0  0
 62136  1  0  0  0
 63 65  1  0  0  0
 63137  1  0  0  0
 63138  1  0  0  0
 63139  1  0  0  0
 64140  1  0  0  0
 65141  1  0  0  0
 68 81  1  0  0  0
 71 72  2  0  0  0
 71 76  1  0  0  0
 71142  1  0  0  0
 72 74  1  0  0  0
 72 77  1  0  0  0
 73 74  2  0  0  0
 73 75  1  0  0  0
 73 78  1  0  0  0
 74 80  1  0  0  0
 75 76  2  0  0  0
 75 79  1  0  0  0
 76 82  1  0  0  0
 77143  1  0  0  0
 77144  1  0  0  0
 77145  1  0  0  0
 78146  1  0  0  0
 78147  1  0  0  0
 78148  1  0  0  0
 79149  1  0  0  0
 79150  1  0  0  0
 79151  1  0  0  0
 80 81  1  0  0  0
 80152  1  0  0  0
 80153  1  0  0  0
 81154  1  0  0  0
 81155  1  0  0  0
 82156  1  0  0  0
M  ISO  4   1 100  68 101  81 101  82 100
M  END
> <chiral flag>
0

> <version>
0

> <s_m_source_file>
/data/baiqing/PycharmProjects/Reinvent-master-3.2/result/LINK_invent/BTK/process_docking_weight1_custom_sum_contain_oxygen_bond_distance_aromatic_linkinvent_7_9_3/rearranged_h_0020.sdf

> <i_m_source_file_index>
42

> <r_mmod_Potential_Energy-OPLS-2005>
1018.62701416016

> <r_mmod_Stretch_Energy-OPLS-2005>
462.533325195312

> <r_mmod_Bend_Energy-OPLS-2005>
398.168395996094

> <r_mmod_Torsional_Energy-OPLS-2005>
239.641448974609

> <r_mmod_Improper_Torsional_Energy-OPLS-2005>
7.6815824508667

> <r_mmod_Van_der_Waal_Energy-OPLS-2005>
133.614715576172

> <r_mmod_Electrostatic_Energy-OPLS-2005>
-390.56103515625

> <r_mmod_Solvation_Energy-OPLS-2005>
-210.807479858398

> <b_mmod_Minimization_Converged-OPLS-2005>
0

> <r_mmod_RMS_Derivative-OPLS-2005>
0.66501247882843

$$$$
42
                    3D
 Structure written by MMmdl.
181189  0  0  1  0            999 V2000
  -30.7306  -14.3827   20.6651 C   0  0  0  0  0  0
  -30.4268  -12.2995   19.3775 C   0  0  0  0  0  0
  -29.4779  -12.5345   18.1851 C   0  0  0  0  0  0
  -28.0019  -12.3790   18.6057 C   0  0  0  0  0  0
  -27.6685  -13.1828   19.8897 C   0  0  2  0  0  0
  -28.7172  -12.8727   20.9849 C   0  0  0  0  0  0
  -25.2631  -13.8102   20.5675 C   0  0  0  0  0  0
  -24.1862  -13.0408   20.9180 C   0  0  0  0  0  0
  -24.6382  -11.6869   20.8753 C   0  0  0  0  0  0
  -23.9035  -10.4275   21.0424 C   0  0  0  0  0  0
  -24.3583   -9.4197   21.9209 C   0  0  0  0  0  0
  -23.6271   -8.2228   22.0767 C   0  0  0  0  0  0
  -22.4256   -8.0281   21.3557 C   0  0  0  0  0  0
  -21.9887   -9.0255   20.4660 C   0  0  0  0  0  0
  -22.7214  -10.2134   20.3081 C   0  0  0  0  0  0
  -21.6838   -6.0737   22.5305 C   0  0  0  0  0  0
  -21.4012   -6.5652   23.8238 C   0  0  0  0  0  0
  -21.3653   -5.6798   24.9203 C   0  0  0  0  0  0
  -21.6034   -4.3061   24.7245 C   0  0  0  0  0  0
  -21.8819   -3.8151   23.4368 C   0  0  0  0  0  0
  -21.9183   -4.6963   22.3422 C   0  0  0  0  0  0
  -22.7884  -13.5239   21.1818 C   0  0  0  0  0  0
  -22.1650   -4.2147   21.1001 F   0  0  0  0  0  0
  -21.5610   -3.4555   25.7757 F   0  0  0  0  0  0
  -30.0424  -13.2284   20.4504 N   0  0  0  0  0  0
  -26.3056  -12.9227   20.3456 N   0  0  0  0  0  0
  -25.9305  -11.6403   20.5808 N   0  0  0  0  0  0
  -22.0496  -12.8289   22.0386 N   0  0  0  0  0  0
  -25.4342  -15.1816   20.3994 N   0  0  0  0  0  0
  -31.7992  -14.6418   20.1074 O   0  0  0  0  0  0
  -21.6605   -6.8887   21.4272 O   0  0  0  0  0  0
  -22.3598  -14.5546   20.6646 O   0  0  0  0  0  0
  -24.6090  -31.8709   23.2133 C   0  0  0  0  0  0
  -25.9003  -32.4839   23.8408 C   0  0  1  0  0  0
  -27.2397  -27.4847   20.0853 C   0  0  0  0  0  0
  -25.5885  -33.8637   24.2348 N   0  0  0  0  0  0
  -23.3941  -30.4944   21.5531 C   0  0  2  0  0  0
  -24.8398  -28.9601   20.1220 C   0  0  0  0  0  0
  -22.7370  -29.4678   22.5019 C   0  0  0  0  0  0
  -18.0261  -28.1379   22.8492 C   0  0  0  0  0  0
  -24.1486  -36.7330   23.2637 C   0  0  0  0  0  0
  -25.9160  -30.8513   21.3577 C   0  0  0  0  0  0
  -25.9954  -29.4860   20.7124 C   0  0  0  0  0  0
  -27.1983  -28.7540   20.6926 C   0  0  0  0  0  0
  -26.0695  -26.9566   19.4961 C   0  0  0  0  0  0
  -24.8677  -27.6906   19.5158 C   0  0  0  0  0  0
  -23.5999  -29.8229   20.1684 C   0  0  0  0  0  0
  -25.4105  -36.3127   24.0340 C   0  0  1  0  0  0
  -20.5846  -28.3653   23.1342 C   0  0  2  0  0  0
  -20.6759  -26.9394   22.5429 C   0  0  0  0  0  0
  -19.5745  -26.6386   21.5219 C   0  0  0  0  0  0
  -18.1917  -26.7929   22.1621 C   0  0  0  0  0  0
  -19.1506  -28.8834   23.2919 C   0  0  0  0  0  0
  -18.9441  -30.1441   23.8921 C   0  0  0  0  0  0
  -17.6446  -30.6586   24.0570 C   0  0  0  0  0  0
  -25.9023  -34.9486   23.5139 C   0  0  0  0  0  0
  -16.5337  -29.9091   23.6323 C   0  0  0  0  0  0
  -16.7253  -28.6514   23.0336 C   0  0  0  0  0  0
  -26.4456  -31.6602   25.0712 C   0  0  0  0  0  0
  -25.3750  -31.3686   26.1483 C   0  0  0  0  0  0
  -27.0276  -30.3057   24.6039 C   0  0  0  0  0  0
  -27.6046  -32.4307   25.7471 C   0  0  0  0  0  0
  -27.5585  -37.1819   24.8464 C   0  0  0  0  0  0
  -21.4116  -29.3028   22.3756 N   0  0  0  0  0  0
  -26.4299  -37.3804   23.9407 N   0  0  0  0  0  0
  -24.6575  -31.0851   22.1012 N   0  0  0  0  0  0
  -23.4175  -28.8209   23.3037 O   0  0  0  0  0  0
  -28.4407  -26.8295   20.0182 O   0  0  0  0  0  0
  -26.5580  -34.8930   22.4698 O   0  0  0  0  0  0
  -23.5294  -32.1439   23.7567 O   0  0  0  0  0  0
  -31.1530  -20.0532   20.5741 C   0  0  0  0  0  0
  -31.9904  -20.0941   21.6388 C   0  0  0  0  0  0
  -31.5526  -19.7696   19.1327 C   0  0  0  0  0  0
  -30.3547  -19.0568   18.5172 C   0  0  0  0  0  0
  -29.1779  -19.7281   19.2113 C   0  0  0  0  0  0
  -31.5632  -20.1347   23.0956 C   0  0  0  0  0  0
  -33.5015  -20.0613   21.4767 C   0  0  0  0  0  0
  -27.6079  -17.9394   22.1387 C   0  0  0  0  0  0
  -27.4988  -19.3262   22.7978 C   0  0  0  0  0  0
  -28.9694  -17.2384   22.2913 C   0  0  0  0  0  0
  -27.4913  -20.5123   21.8093 C   0  0  0  0  0  0
  -29.0053  -15.9662   21.4371 C   0  0  0  0  0  0
  -28.4734  -25.5091   20.5369 C   0  0  0  0  0  0
  -28.8708  -21.0634   21.3577 C   0  0  2  0  0  0
  -28.6661  -22.4502   20.6778 C   0  0  1  0  0  0
  -29.5939  -24.7208   19.8369 C   0  0  0  0  0  0
  -29.9049  -23.3602   20.5057 C   0  0  0  0  0  0
  -30.2530  -15.2185   21.5994 N   0  0  0  0  0  0
  -29.6437  -20.0215   20.5932 N   0  3  2  0  0  0
  -27.9349  -22.3753   19.5660 F   0  0  0  0  0  0
  -30.7106  -25.4524   19.8438 F   0  0  0  0  0  0
  -29.2267  -24.5261   18.5685 F   0  0  0  0  0  0
  -30.3926  -23.5985   21.7251 F   0  0  0  0  0  0
  -30.8492  -22.7570   19.7872 F   0  0  0  0  0  0
  -31.4635  -12.4261   19.0623 H   0  0  0  0  0  0
  -30.3522  -11.2692   19.7270 H   0  0  0  0  0  0
  -29.7116  -11.8412   17.3766 H   0  0  0  0  0  0
  -29.6383  -13.5360   17.7828 H   0  0  0  0  0  0
  -27.8084  -11.3177   18.7698 H   0  0  0  0  0  0
  -27.3411  -12.6779   17.7918 H   0  0  0  0  0  0
  -27.7332  -14.2380   19.6305 H   0  0  0  0  0  0
  -28.6981  -11.8068   21.2105 H   0  0  0  0  0  0
  -28.4944  -13.3335   21.9442 H   0  0  0  0  0  0
  -25.2737   -9.5657   22.4766 H   0  0  0  0  0  0
  -23.9984   -7.4605   22.7480 H   0  0  0  0  0  0
  -21.0817   -8.8785   19.8961 H   0  0  0  0  0  0
  -22.3698  -10.9672   19.6174 H   0  0  0  0  0  0
  -21.2031   -7.6160   23.9755 H   0  0  0  0  0  0
  -21.1454   -6.0524   25.9097 H   0  0  0  0  0  0
  -22.0597   -2.7608   23.2879 H   0  0  0  0  0  0
  -22.4082  -11.9947   22.4804 H   0  0  0  0  0  0
  -21.1117  -13.1374   22.2553 H   0  0  0  0  0  0
  -24.6634  -15.8326   20.4969 H   0  0  0  0  0  0
  -26.2748  -15.6130   20.0415 H   0  0  0  0  0  0
  -26.7075  -32.5571   23.1181 H   0  0  0  0  0  0
  -25.0060  -33.9806   25.0510 H   0  0  0  0  0  0
  -22.6802  -31.3091   21.4151 H   0  0  0  0  0  0
  -23.3738  -35.9674   23.3315 H   0  0  0  0  0  0
  -24.3586  -36.8925   22.2050 H   0  0  0  0  0  0
  -23.7246  -37.6546   23.6636 H   0  0  0  0  0  0
  -26.0152  -31.6148   20.5846 H   0  0  0  0  0  0
  -26.8095  -30.9121   21.9672 H   0  0  0  0  0  0
  -28.0965  -29.1628   21.1338 H   0  0  0  0  0  0
  -26.0879  -25.9983   18.9960 H   0  0  0  0  0  0
  -23.9789  -27.2833   19.0536 H   0  0  0  0  0  0
  -23.7052  -30.5960   19.4057 H   0  0  0  0  0  0
  -22.7247  -29.2392   19.8759 H   0  0  0  0  0  0
  -25.1280  -36.2002   25.0833 H   0  0  0  0  0  0
  -20.9936  -28.3213   24.1467 H   0  0  0  0  0  0
  -20.5666  -26.2254   23.3607 H   0  0  0  0  0  0
  -21.6630  -26.7452   22.1219 H   0  0  0  0  0  0
  -19.6902  -25.6303   21.1236 H   0  0  0  0  0  0
  -19.6694  -27.3208   20.6761 H   0  0  0  0  0  0
  -17.4191  -26.6682   21.4016 H   0  0  0  0  0  0
  -18.0310  -26.0069   22.9014 H   0  0  0  0  0  0
  -19.7918  -30.7252   24.2302 H   0  0  0  0  0  0
  -17.5002  -31.6266   24.5167 H   0  0  0  0  0  0
  -15.5339  -30.3001   23.7638 H   0  0  0  0  0  0
  -15.8655  -28.0850   22.7024 H   0  0  0  0  0  0
  -24.5920  -30.7031   25.7833 H   0  0  0  0  0  0
  -24.8945  -32.2832   26.4966 H   0  0  0  0  0  0
  -25.8131  -30.8840   27.0218 H   0  0  0  0  0  0
  -26.2794  -29.6827   24.1123 H   0  0  0  0  0  0
  -27.4104  -29.7278   25.4462 H   0  0  0  0  0  0
  -27.8602  -30.4398   23.9131 H   0  0  0  0  0  0
  -27.2676  -33.3593   26.2093 H   0  0  0  0  0  0
  -28.3835  -32.6887   25.0282 H   0  0  0  0  0  0
  -28.0737  -31.8400   26.5352 H   0  0  0  0  0  0
  -28.2608  -38.0110   24.7504 H   0  0  0  0  0  0
  -28.1071  -36.2641   24.6294 H   0  0  0  0  0  0
  -27.2304  -37.1478   25.8867 H   0  0  0  0  0  0
  -20.9255  -29.8761   21.6999 H   0  0  0  0  0  0
  -26.0192  -38.2886   24.1402 H   0  0  0  0  0  0
  -32.4463  -19.1478   19.0651 H   0  0  0  0  0  0
  -31.7585  -20.7068   18.6143 H   0  0  0  0  0  0
  -30.3830  -17.9942   18.7654 H   0  0  0  0  0  0
  -30.3189  -19.1437   17.4299 H   0  0  0  0  0  0
  -28.2763  -19.1164   19.1861 H   0  0  0  0  0  0
  -28.9778  -20.6314   18.6443 H   0  0  0  0  0  0
  -31.6210  -21.1553   23.4726 H   0  0  0  0  0  0
  -32.2322  -19.5171   23.6980 H   0  0  0  0  0  0
  -30.5617  -19.7486   23.2636 H   0  0  0  0  0  0
  -33.8201  -20.3718   20.4812 H   0  0  0  0  0  0
  -33.8844  -19.0566   21.6631 H   0  0  0  0  0  0
  -33.9698  -20.7397   22.1911 H   0  0  0  0  0  0
  -27.3155  -17.9945   21.0895 H   0  0  0  0  0  0
  -26.8564  -17.2903   22.5946 H   0  0  0  0  0  0
  -28.2328  -19.4622   23.5921 H   0  0  0  0  0  0
  -26.5348  -19.3509   23.3120 H   0  0  0  0  0  0
  -29.1282  -16.9861   23.3421 H   0  0  0  0  0  0
  -29.7950  -17.8852   22.0137 H   0  0  0  0  0  0
  -26.9643  -21.3163   22.3253 H   0  0  0  0  0  0
  -26.8612  -20.2897   20.9472 H   0  0  0  0  0  0
  -28.8725  -16.2244   20.3845 H   0  0  0  0  0  0
  -28.1444  -15.3666   21.7238 H   0  0  0  0  0  0
  -28.6683  -25.5735   21.6082 H   0  0  0  0  0  0
  -27.5226  -24.9905   20.4168 H   0  0  0  0  0  0
  -29.4066  -21.2859   22.2764 H   0  0  0  0  0  0
  -28.0084  -22.9998   21.3496 H   0  0  0  0  0  0
  -30.9915  -15.7858   21.9867 H   0  0  0  0  0  0
  -29.4096  -19.1823   21.1064 H   0  0  0  0  0  0
  1 25  1  0  0  0
  1 30  2  0  0  0
  1 88  1  0  0  0
  2  3  1  0  0  0
  2 25  1  0  0  0
  2 95  1  0  0  0
  2 96  1  0  0  0
  3  4  1  0  0  0
  3 97  1  0  0  0
  3 98  1  0  0  0
  4  5  1  0  0  0
  4 99  1  0  0  0
  4100  1  0  0  0
  5  6  1  0  0  0
  5 26  1  0  0  0
  5101  1  0  0  0
  6 25  1  0  0  0
  6102  1  0  0  0
  6103  1  0  0  0
  7  8  2  0  0  0
  7 26  1  0  0  0
  7 29  1  0  0  0
  8  9  1  0  0  0
  8 22  1  0  0  0
  9 10  1  0  0  0
  9 27  2  0  0  0
 10 11  2  0  0  0
 10 15  1  0  0  0
 11 12  1  0  0  0
 11104  1  0  0  0
 12 13  2  0  0  0
 12105  1  0  0  0
 13 14  1  0  0  0
 13 31  1  0  0  0
 14 15  2  0  0  0
 14106  1  0  0  0
 15107  1  0  0  0
 16 17  2  0  0  0
 16 21  1  0  0  0
 16 31  1  0  0  0
 17 18  1  0  0  0
 17108  1  0  0  0
 18 19  2  0  0  0
 18109  1  0  0  0
 19 20  1  0  0  0
 19 24  1  0  0  0
 20 21  2  0  0  0
 20110  1  0  0  0
 21 23  1  0  0  0
 22 28  1  0  0  0
 22 32  2  0  0  0
 26 27  1  0  0  0
 28111  1  0  0  0
 28112  1  0  0  0
 29113  1  0  0  0
 29114  1  0  0  0
 33 34  1  0  0  0
 33 66  1  0  0  0
 33 70  2  0  0  0
 34 36  1  0  0  0
 34 59  1  0  0  0
 34115  1  0  0  0
 35 44  2  0  0  0
 35 45  1  0  0  0
 35 68  1  0  0  0
 36 56  1  0  0  0
 36116  1  0  0  0
 37 39  1  0  0  0
 37 47  1  0  0  0
 37 66  1  0  0  0
 37117  1  0  0  0
 38 43  2  0  0  0
 38 46  1  0  0  0
 38 47  1  0  0  0
 39 64  1  0  0  0
 39 67  2  0  0  0
 40 52  1  0  0  0
 40 53  2  0  0  0
 40 58  1  0  0  0
 41118  1  0  0  0
 41119  1  0  0  0
 41120  1  0  0  0
 41 48  1  0  0  0
 42 43  1  0  0  0
 42 66  1  0  0  0
 42121  1  0  0  0
 42122  1  0  0  0
 43 44  1  0  0  0
 44123  1  0  0  0
 45 46  2  0  0  0
 45124  1  0  0  0
 46125  1  0  0  0
 47126  1  0  0  0
 47127  1  0  0  0
 48 56  1  0  0  0
 48 65  1  0  0  0
 48128  1  0  0  0
 49 50  1  0  0  0
 49 53  1  0  0  0
 49 64  1  0  0  0
 49129  1  0  0  0
 50 51  1  0  0  0
 50130  1  0  0  0
 50131  1  0  0  0
 51 52  1  0  0  0
 51132  1  0  0  0
 51133  1  0  0  0
 52134  1  0  0  0
 52135  1  0  0  0
 53 54  1  0  0  0
 54 55  2  0  0  0
 54136  1  0  0  0
 55 57  1  0  0  0
 55137  1  0  0  0
 56 69  2  0  0  0
 57 58  2  0  0  0
 57138  1  0  0  0
 58139  1  0  0  0
 59 60  1  0  0  0
 59 61  1  0  0  0
 59 62  1  0  0  0
 60140  1  0  0  0
 60141  1  0  0  0
 60142  1  0  0  0
 61143  1  0  0  0
 61144  1  0  0  0
 61145  1  0  0  0
 62146  1  0  0  0
 62147  1  0  0  0
 62148  1  0  0  0
 63 65  1  0  0  0
 63149  1  0  0  0
 63150  1  0  0  0
 63151  1  0  0  0
 64152  1  0  0  0
 65153  1  0  0  0
 68 83  1  0  0  0
 71 72  2  0  0  0
 71 73  1  0  0  0
 71 89  1  0  0  0
 72 76  1  0  0  0
 72 77  1  0  0  0
 73 74  1  0  0  0
 73154  1  0  0  0
 73155  1  0  0  0
 74 75  1  0  0  0
 74156  1  0  0  0
 74157  1  0  0  0
 75158  1  0  0  0
 75159  1  0  0  0
 75 89  1  0  0  0
 76160  1  0  0  0
 76161  1  0  0  0
 76162  1  0  0  0
 77163  1  0  0  0
 77164  1  0  0  0
 77165  1  0  0  0
 78 79  1  0  0  0
 78 80  1  0  0  0
 78166  1  0  0  0
 78167  1  0  0  0
 79 81  1  0  0  0
 79168  1  0  0  0
 79169  1  0  0  0
 80 82  1  0  0  0
 80170  1  0  0  0
 80171  1  0  0  0
 81172  1  0  0  0
 81173  1  0  0  0
 81 84  1  0  0  0
 82 88  1  0  0  0
 82174  1  0  0  0
 82175  1  0  0  0
 83 86  1  0  0  0
 83176  1  0  0  0
 83177  1  0  0  0
 84 85  1  0  0  0
 84 89  1  0  0  0
 84178  1  0  0  0
 85 87  1  0  0  0
 85 90  1  0  0  0
 85179  1  0  0  0
 86 87  1  0  0  0
 86 91  1  0  0  0
 86 92  1  0  0  0
 87 93  1  0  0  0
 87 94  1  0  0  0
 88180  1  0  0  0
 89181  1  0  0  0
M  CHG  1  89   1
M  ISO  4   1 100  68 101  83 101  88 100
M  END
> <chiral flag>
0

> <version>
0

> <s_m_source_file>
/data/baiqing/PycharmProjects/Reinvent-master-3.2/result/LINK_invent/BTK/process_docking_weight1_custom_sum_contain_oxygen_bond_distance_aromatic_linkinvent_7_9_3/rearranged_h_0020.sdf

> <i_m_source_file_index>
43

> <r_mmod_Potential_Energy-OPLS-2005>
-0.837962806224823

> <r_mmod_Stretch_Energy-OPLS-2005>
36.5904808044434

> <r_mmod_Bend_Energy-OPLS-2005>
164.490081787109

> <r_mmod_Torsional_Energy-OPLS-2005>
318.844940185547

> <r_mmod_Improper_Torsional_Energy-OPLS-2005>
6.77557373046875

> <r_mmod_Van_der_Waal_Energy-OPLS-2005>
131.839996337891

> <r_mmod_Electrostatic_Energy-OPLS-2005>
-263.684295654297

> <r_mmod_Solvation_Energy-OPLS-2005>
-404.136596679688

> <b_mmod_Minimization_Converged-OPLS-2005>
0

> <r_mmod_RMS_Derivative-OPLS-2005>
2.23132610321045

$$$$
43
                    3D
 Structure written by MMmdl.
150158  0  0  1  0            999 V2000
  -30.4044  -15.3406   20.3672 C   0  0  0  0  0  0
  -30.4401  -12.8701   19.5106 C   0  0  0  0  0  0
  -29.5347  -12.5830   18.2854 C   0  0  0  0  0  0
  -28.0899  -12.2894   18.7255 C   0  0  0  0  0  0
  -27.6067  -13.2774   19.8150 C   0  0  2  0  0  0
  -28.6421  -13.4877   20.9392 C   0  0  0  0  0  0
  -25.2383  -13.8246   20.5753 C   0  0  0  0  0  0
  -24.1740  -13.0433   20.9267 C   0  0  0  0  0  0
  -24.6404  -11.6932   20.8775 C   0  0  0  0  0  0
  -23.9104  -10.4291   21.0413 C   0  0  0  0  0  0
  -24.3648   -9.4201   21.9188 C   0  0  0  0  0  0
  -23.6308   -8.2245   22.0760 C   0  0  0  0  0  0
  -22.4288   -8.0291   21.3550 C   0  0  0  0  0  0
  -21.9934   -9.0269   20.4652 C   0  0  0  0  0  0
  -22.7277  -10.2139   20.3058 C   0  0  0  0  0  0
  -21.6854   -6.0748   22.5278 C   0  0  0  0  0  0
  -21.4018   -6.5650   23.8213 C   0  0  0  0  0  0
  -21.3656   -5.6799   24.9173 C   0  0  0  0  0  0
  -21.6039   -4.3061   24.7221 C   0  0  0  0  0  0
  -21.8818   -3.8157   23.4340 C   0  0  0  0  0  0
  -21.9194   -4.6976   22.3397 C   0  0  0  0  0  0
  -22.7756  -13.5182   21.1910 C   0  0  0  0  0  0
  -22.1659   -4.2162   21.0976 F   0  0  0  0  0  0
  -21.5626   -3.4539   25.7732 F   0  0  0  0  0  0
  -29.8525  -14.0234   20.2915 N   0  0  0  0  0  0
  -26.2807  -12.9523   20.3215 N   0  0  0  0  0  0
  -25.9340  -11.6628   20.5728 N   0  0  0  0  0  0
  -22.0418  -12.8163   22.0465 N   0  0  0  0  0  0
  -25.4001  -15.1985   20.4187 N   0  0  0  0  0  0
  -31.6392  -15.3296   20.2451 O   0  0  0  0  0  0
  -21.6645   -6.8891   21.4243 O   0  0  0  0  0  0
  -22.3434  -14.5480   20.6744 O   0  0  0  0  0  0
  -24.6674  -31.8201   23.1666 C   0  0  0  0  0  0
  -25.9334  -32.4574   23.8151 C   0  0  1  0  0  0
  -27.2163  -26.8825   20.1976 C   0  0  0  0  0  0
  -25.5991  -33.8390   24.2061 N   0  0  0  0  0  0
  -23.4840  -30.4305   21.5169 C   0  0  2  0  0  0
  -24.9362  -28.8049   20.1208 C   0  0  0  0  0  0
  -22.7690  -29.4428   22.4770 C   0  0  0  0  0  0
  -18.0329  -28.1415   22.8463 C   0  0  0  0  0  0
  -24.1489  -36.7202   23.2651 C   0  0  0  0  0  0
  -26.0565  -30.6133   21.4020 C   0  0  0  0  0  0
  -26.1237  -29.1962   20.7519 C   0  0  0  0  0  0
  -27.2605  -28.2599   20.7579 C   0  0  0  0  0  0
  -25.9961  -26.6520   19.5234 C   0  0  0  0  0  0
  -24.9001  -27.5536   19.4849 C   0  0  0  0  0  0
  -23.7272  -29.7416   20.1462 C   0  0  0  0  0  0
  -25.4129  -36.2965   24.0303 C   0  0  1  0  0  0
  -20.5956  -28.3767   23.1180 C   0  0  2  0  0  0
  -20.6806  -26.9445   22.5406 C   0  0  0  0  0  0
  -19.5778  -26.6377   21.5221 C   0  0  0  0  0  0
  -18.1958  -26.7949   22.1619 C   0  0  0  0  0  0
  -19.1593  -28.8910   23.2810 C   0  0  0  0  0  0
  -18.9504  -30.1500   23.8848 C   0  0  0  0  0  0
  -17.6497  -30.6604   24.0553 C   0  0  0  0  0  0
  -25.9100  -34.9347   23.5004 C   0  0  0  0  0  0
  -16.5388  -29.9092   23.6345 C   0  0  0  0  0  0
  -16.7310  -28.6512   23.0365 C   0  0  0  0  0  0
  -26.4566  -31.6534   25.0696 C   0  0  0  0  0  0
  -25.3673  -31.3807   26.1343 C   0  0  0  0  0  0
  -27.0472  -30.2900   24.6455 C   0  0  0  0  0  0
  -27.6056  -32.4351   25.7490 C   0  0  0  0  0  0
  -27.5559  -37.1763   24.8471 C   0  0  0  0  0  0
  -21.4353  -29.3055   22.3526 N   0  0  0  0  0  0
  -26.4273  -37.3702   23.9406 N   0  0  0  0  0  0
  -24.7580  -30.9828   22.0823 N   0  0  0  0  0  0
  -23.4221  -28.8008   23.3030 O   0  0  0  0  0  0
  -28.2202  -25.7623   20.1861 O   0  0  0  0  0  0
  -26.5712  -34.8891   22.4600 O   0  0  0  0  0  0
  -23.5728  -32.1190   23.6728 O   0  0  0  0  0  0
  -28.7501  -22.4530   18.6181 C   0  0  0  0  0  0
  -29.0700  -21.2246   17.9669 C   0  0  0  0  0  0
  -28.6165  -22.5951   20.0136 C   0  0  0  0  0  0
  -29.2666  -19.8408   20.0504 C   0  0  0  0  0  0
  -29.3125  -19.9822   18.6404 C   0  0  0  0  0  0
  -28.8976  -21.2174   20.6847 C   0  0  0  0  0  0
  -29.1510  -21.2558   16.4480 C   0  0  0  0  0  0
  -29.7824  -18.2775   20.7222 C   0  0  0  0  0  0
  -27.9893  -24.1544   20.5767 C   0  0  0  0  0  0
  -29.6214  -16.6198   20.3880 N   0  0  0  0  0  0
  -29.7133  -18.5902   17.6901 Cl  0  0  0  0  0  0
  -28.7741  -21.2131   22.4058 Cl  0  0  0  0  0  0
  -31.4470  -13.1042   19.1634 H   0  0  0  0  0  0
  -30.5440  -11.9834   20.1379 H   0  0  0  0  0  0
  -29.9295  -11.7464   17.7078 H   0  0  0  0  0  0
  -29.5435  -13.4475   17.6197 H   0  0  0  0  0  0
  -28.0666  -11.2729   19.1214 H   0  0  0  0  0  0
  -27.4158  -12.2984   17.8676 H   0  0  0  0  0  0
  -27.5077  -14.2324   19.2978 H   0  0  0  0  0  0
  -28.8389  -12.5648   21.4866 H   0  0  0  0  0  0
  -28.2689  -14.2096   21.6669 H   0  0  0  0  0  0
  -25.2793   -9.5674   22.4768 H   0  0  0  0  0  0
  -24.0010   -7.4637   22.7483 H   0  0  0  0  0  0
  -21.0864   -8.8799   19.8958 H   0  0  0  0  0  0
  -22.3741  -10.9684   19.6172 H   0  0  0  0  0  0
  -21.2012   -7.6158   23.9723 H   0  0  0  0  0  0
  -21.1474   -6.0527   25.9078 H   0  0  0  0  0  0
  -22.0597   -2.7620   23.2835 H   0  0  0  0  0  0
  -22.4054  -11.9825   22.4840 H   0  0  0  0  0  0
  -21.1040  -13.1183   22.2693 H   0  0  0  0  0  0
  -24.6267  -15.8448   20.5318 H   0  0  0  0  0  0
  -26.2369  -15.6433   20.0672 H   0  0  0  0  0  0
  -26.7400  -32.5102   23.0862 H   0  0  0  0  0  0
  -25.0103  -33.9465   25.0191 H   0  0  0  0  0  0
  -22.8004  -31.2636   21.3406 H   0  0  0  0  0  0
  -23.3760  -35.9529   23.3311 H   0  0  0  0  0  0
  -24.3559  -36.8843   22.2065 H   0  0  0  0  0  0
  -23.7244  -37.6388   23.6708 H   0  0  0  0  0  0
  -26.2391  -31.3491   20.6178 H   0  0  0  0  0  0
  -26.9168  -30.6748   22.0567 H   0  0  0  0  0  0
  -28.1659  -28.5676   21.2622 H   0  0  0  0  0  0
  -25.8681  -25.7003   19.0274 H   0  0  0  0  0  0
  -24.0004  -27.2483   18.9689 H   0  0  0  0  0  0
  -23.8914  -30.5081   19.3880 H   0  0  0  0  0  0
  -22.8349  -29.2024   19.8230 H   0  0  0  0  0  0
  -25.1330  -36.1754   25.0795 H   0  0  0  0  0  0
  -21.0043  -28.3374   24.1303 H   0  0  0  0  0  0
  -20.5695  -26.2387   23.3652 H   0  0  0  0  0  0
  -21.6666  -26.7423   22.1204 H   0  0  0  0  0  0
  -19.6943  -25.6275   21.1284 H   0  0  0  0  0  0
  -19.6713  -27.3158   20.6731 H   0  0  0  0  0  0
  -17.4230  -26.6704   21.4018 H   0  0  0  0  0  0
  -18.0339  -26.0109   22.9029 H   0  0  0  0  0  0
  -19.7986  -30.7327   24.2194 H   0  0  0  0  0  0
  -17.5052  -31.6278   24.5171 H   0  0  0  0  0  0
  -15.5387  -30.2979   23.7698 H   0  0  0  0  0  0
  -15.8713  -28.0811   22.7112 H   0  0  0  0  0  0
  -24.5876  -30.7134   25.7647 H   0  0  0  0  0  0
  -24.8839  -32.3015   26.4617 H   0  0  0  0  0  0
  -25.7887  -30.9069   27.0221 H   0  0  0  0  0  0
  -26.3154  -29.6559   24.1439 H   0  0  0  0  0  0
  -27.3974  -29.7278   25.5124 H   0  0  0  0  0  0
  -27.9102  -30.4084   23.9900 H   0  0  0  0  0  0
  -27.2634  -33.3706   26.1926 H   0  0  0  0  0  0
  -28.3933  -32.6823   25.0361 H   0  0  0  0  0  0
  -28.0654  -31.8568   26.5515 H   0  0  0  0  0  0
  -28.2584  -38.0050   24.7486 H   0  0  0  0  0  0
  -28.1045  -36.2578   24.6338 H   0  0  0  0  0  0
  -27.2279  -37.1447   25.8875 H   0  0  0  0  0  0
  -20.9623  -29.8742   21.6642 H   0  0  0  0  0  0
  -26.0122  -38.2764   24.1402 H   0  0  0  0  0  0
  -28.5569  -23.3287   18.0142 H   0  0  0  0  0  0
  -28.9855  -22.2570   16.0481 H   0  0  0  0  0  0
  -28.3982  -20.5971   16.0136 H   0  0  0  0  0  0
  -30.1337  -20.9257   16.1093 H   0  0  0  0  0  0
  -29.4479  -18.3425   21.7570 H   0  0  0  0  0  0
  -30.8632  -18.4007   20.7953 H   0  0  0  0  0  0
  -28.1679  -24.1297   21.6517 H   0  0  0  0  0  0
  -26.9106  -24.0221   20.4955 H   0  0  0  0  0  0
  -28.6419  -16.3912   20.3129 H   0  0  0  0  0  0
  1 25  1  0  0  0
  1 30  2  0  0  0
  1 80  1  0  0  0
  2  3  1  0  0  0
  2 25  1  0  0  0
  2 83  1  0  0  0
  2 84  1  0  0  0
  3  4  1  0  0  0
  3 85  1  0  0  0
  3 86  1  0  0  0
  4  5  1  0  0  0
  4 87  1  0  0  0
  4 88  1  0  0  0
  5  6  1  0  0  0
  5 26  1  0  0  0
  5 89  1  0  0  0
  6 25  1  0  0  0
  6 90  1  0  0  0
  6 91  1  0  0  0
  7  8  2  0  0  0
  7 26  1  0  0  0
  7 29  1  0  0  0
  8  9  1  0  0  0
  8 22  1  0  0  0
  9 10  1  0  0  0
  9 27  2  0  0  0
 10 11  2  0  0  0
 10 15  1  0  0  0
 11 12  1  0  0  0
 11 92  1  0  0  0
 12 13  2  0  0  0
 12 93  1  0  0  0
 13 14  1  0  0  0
 13 31  1  0  0  0
 14 15  2  0  0  0
 14 94  1  0  0  0
 15 95  1  0  0  0
 16 17  2  0  0  0
 16 21  1  0  0  0
 16 31  1  0  0  0
 17 18  1  0  0  0
 17 96  1  0  0  0
 18 19  2  0  0  0
 18 97  1  0  0  0
 19 20  1  0  0  0
 19 24  1  0  0  0
 20 21  2  0  0  0
 20 98  1  0  0  0
 21 23  1  0  0  0
 22 28  1  0  0  0
 22 32  2  0  0  0
 26 27  1  0  0  0
 28 99  1  0  0  0
 28100  1  0  0  0
 29101  1  0  0  0
 29102  1  0  0  0
 33 34  1  0  0  0
 33 66  1  0  0  0
 33 70  2  0  0  0
 34 36  1  0  0  0
 34 59  1  0  0  0
 34103  1  0  0  0
 35 44  2  0  0  0
 35 45  1  0  0  0
 35 68  1  0  0  0
 36 56  1  0  0  0
 36104  1  0  0  0
 37 39  1  0  0  0
 37 47  1  0  0  0
 37 66  1  0  0  0
 37105  1  0  0  0
 38 43  2  0  0  0
 38 46  1  0  0  0
 38 47  1  0  0  0
 39 64  1  0  0  0
 39 67  2  0  0  0
 40 52  1  0  0  0
 40 53  2  0  0  0
 40 58  1  0  0  0
 41106  1  0  0  0
 41107  1  0  0  0
 41108  1  0  0  0
 41 48  1  0  0  0
 42 43  1  0  0  0
 42 66  1  0  0  0
 42109  1  0  0  0
 42110  1  0  0  0
 43 44  1  0  0  0
 44111  1  0  0  0
 45 46  2  0  0  0
 45112  1  0  0  0
 46113  1  0  0  0
 47114  1  0  0  0
 47115  1  0  0  0
 48 56  1  0  0  0
 48 65  1  0  0  0
 48116  1  0  0  0
 49 50  1  0  0  0
 49 53  1  0  0  0
 49 64  1  0  0  0
 49117  1  0  0  0
 50 51  1  0  0  0
 50118  1  0  0  0
 50119  1  0  0  0
 51 52  1  0  0  0
 51120  1  0  0  0
 51121  1  0  0  0
 52122  1  0  0  0
 52123  1  0  0  0
 53 54  1  0  0  0
 54 55  2  0  0  0
 54124  1  0  0  0
 55 57  1  0  0  0
 55125  1  0  0  0
 56 69  2  0  0  0
 57 58  2  0  0  0
 57126  1  0  0  0
 58127  1  0  0  0
 59 60  1  0  0  0
 59 61  1  0  0  0
 59 62  1  0  0  0
 60128  1  0  0  0
 60129  1  0  0  0
 60130  1  0  0  0
 61131  1  0  0  0
 61132  1  0  0  0
 61133  1  0  0  0
 62134  1  0  0  0
 62135  1  0  0  0
 62136  1  0  0  0
 63 65  1  0  0  0
 63137  1  0  0  0
 63138  1  0  0  0
 63139  1  0  0  0
 64140  1  0  0  0
 65141  1  0  0  0
 68 79  1  0  0  0
 71 72  2  0  0  0
 71 73  1  0  0  0
 71142  1  0  0  0
 72 75  1  0  0  0
 72 77  1  0  0  0
 73 76  2  0  0  0
 73 79  1  0  0  0
 74 75  2  0  0  0
 74 76  1  0  0  0
 74 78  1  0  0  0
 75 81  1  0  0  0
 76 82  1  0  0  0
 77143  1  0  0  0
 77144  1  0  0  0
 77145  1  0  0  0
 78 80  1  0  0  0
 78146  1  0  0  0
 78147  1  0  0  0
 79148  1  0  0  0
 79149  1  0  0  0
 80150  1  0  0  0
M  ISO  4   1 100  68 101  79 101  80 100
M  END
> <chiral flag>
0

> <version>
0

> <s_m_source_file>
/data/baiqing/PycharmProjects/Reinvent-master-3.2/result/LINK_invent/BTK/process_docking_weight1_custom_sum_contain_oxygen_bond_distance_aromatic_linkinvent_7_9_3/rearranged_h_0020.sdf

> <i_m_source_file_index>
44

> <r_mmod_Potential_Energy-OPLS-2005>
1426.33544921875

> <r_mmod_Stretch_Energy-OPLS-2005>
649.797119140625

> <r_mmod_Bend_Energy-OPLS-2005>
451.197052001953

> <r_mmod_Torsional_Energy-OPLS-2005>
237.224075317383

> <r_mmod_Improper_Torsional_Energy-OPLS-2005>
5.85052251815796

> <r_mmod_Van_der_Waal_Energy-OPLS-2005>
122.267219543457

> <r_mmod_Electrostatic_Energy-OPLS-2005>
-363.301849365234

> <r_mmod_Solvation_Energy-OPLS-2005>
-211.226287841797

> <b_mmod_Minimization_Converged-OPLS-2005>
0

> <r_mmod_RMS_Derivative-OPLS-2005>
1.1625771522522

$$$$
44
                    3D
 Structure written by MMmdl.
190200  0  0  1  0            999 V2000
  -30.7938  -14.3413   20.8760 C   0  0  0  0  0  0
  -30.3864  -12.3217   19.4663 C   0  0  0  0  0  0
  -29.5620  -12.5769   18.1921 C   0  0  0  0  0  0
  -28.0865  -12.9892   18.4692 C   0  0  0  0  0  0
  -27.6855  -12.7991   19.9385 C   0  0  2  0  0  0
  -28.6775  -13.0415   21.0741 C   0  0  0  0  0  0
  -25.2239  -13.7515   20.5026 C   0  0  0  0  0  0
  -24.1360  -13.0352   20.8840 C   0  0  0  0  0  0
  -24.5662  -11.6745   20.8667 C   0  0  0  0  0  0
  -23.8567  -10.4274   21.0364 C   0  0  0  0  0  0
  -24.3429   -9.4307   21.9080 C   0  0  0  0  0  0
  -23.6183   -8.2413   22.0700 C   0  0  0  0  0  0
  -22.4137   -8.0399   21.3504 C   0  0  0  0  0  0
  -21.9660   -9.0291   20.4595 C   0  0  0  0  0  0
  -22.6869  -10.2153   20.2847 C   0  0  0  0  0  0
  -21.6953   -6.0779   22.5161 C   0  0  0  0  0  0
  -21.4076   -6.5598   23.8099 C   0  0  0  0  0  0
  -21.3402   -5.6711   24.9065 C   0  0  0  0  0  0
  -21.6017   -4.2971   24.7151 C   0  0  0  0  0  0
  -21.8865   -3.8127   23.4253 C   0  0  0  0  0  0
  -21.9287   -4.6972   22.3371 C   0  0  0  0  0  0
  -22.7583  -13.5398   21.1950 C   0  0  0  0  0  0
  -22.1779   -4.2121   21.0981 F   0  0  0  0  0  0
  -21.5558   -3.4463   25.7677 F   0  0  0  0  0  0
  -30.0228  -13.2800   20.5350 N   0  0  0  0  0  0
  -26.2758  -12.8228   20.3385 N   0  0  0  0  0  0
  -25.8422  -11.5809   20.6140 N   0  0  0  0  0  0
  -22.0610  -12.8294   22.0694 N   0  0  0  0  0  0
  -25.2919  -15.1244   20.2833 N   0  0  0  0  0  0
  -31.7450  -14.7290   20.1919 O   0  0  0  0  0  0
  -21.6547   -6.8966   21.4173 O   0  0  0  0  0  0
  -22.3109  -14.5812   20.7065 O   0  0  0  0  0  0
  -24.6082  -31.8741   23.2120 C   0  0  0  0  0  0
  -25.9008  -32.4848   23.8404 C   0  0  1  0  0  0
  -27.2262  -27.4843   20.1262 C   0  0  0  0  0  0
  -25.5855  -33.8639   24.2347 N   0  0  0  0  0  0
  -23.3949  -30.4978   21.5487 C   0  0  2  0  0  0
  -24.8421  -28.9726   20.1292 C   0  0  0  0  0  0
  -22.7349  -29.4725   22.4982 C   0  0  0  0  0  0
  -18.0249  -28.1386   22.8481 C   0  0  0  0  0  0
  -24.1480  -36.7290   23.2644 C   0  0  0  0  0  0
  -25.9135  -30.8725   21.3496 C   0  0  0  0  0  0
  -25.9995  -29.5122   20.6971 C   0  0  0  0  0  0
  -27.2053  -28.7760   20.6850 C   0  0  0  0  0  0
  -26.0512  -26.9489   19.5547 C   0  0  0  0  0  0
  -24.8554  -27.6878   19.5584 C   0  0  0  0  0  0
  -23.6000  -29.8294   20.1671 C   0  0  0  0  0  0
  -25.4104  -36.3125   24.0352 C   0  0  1  0  0  0
  -20.5843  -28.3675   23.1309 C   0  0  2  0  0  0
  -20.6748  -26.9407   22.5408 C   0  0  0  0  0  0
  -19.5730  -26.6393   21.5198 C   0  0  0  0  0  0
  -18.1912  -26.7928   22.1622 C   0  0  0  0  0  0
  -19.1505  -28.8830   23.2909 C   0  0  0  0  0  0
  -18.9445  -30.1451   23.8902 C   0  0  0  0  0  0
  -17.6457  -30.6589   24.0565 C   0  0  0  0  0  0
  -25.9034  -34.9496   23.5145 C   0  0  0  0  0  0
  -16.5342  -29.9090   23.6342 C   0  0  0  0  0  0
  -16.7253  -28.6516   23.0340 C   0  0  0  0  0  0
  -26.4464  -31.6599   25.0687 C   0  0  0  0  0  0
  -25.3720  -31.3678   26.1412 C   0  0  0  0  0  0
  -27.0296  -30.3052   24.6014 C   0  0  0  0  0  0
  -27.6060  -32.4296   25.7412 C   0  0  0  0  0  0
  -27.5577  -37.1787   24.8477 C   0  0  0  0  0  0
  -21.4108  -29.3040   22.3693 N   0  0  0  0  0  0
  -26.4301  -37.3792   23.9409 N   0  0  0  0  0  0
  -24.6552  -31.0916   22.0946 N   0  0  0  0  0  0
  -23.4174  -28.8271   23.3045 O   0  0  0  0  0  0
  -28.3914  -26.7615   20.2176 O   0  0  0  0  0  0
  -26.5607  -34.8937   22.4733 O   0  0  0  0  0  0
  -23.5319  -32.1455   23.7555 O   0  0  0  0  0  0
  -25.6560  -16.8547   17.0565 C   0  0  0  0  0  0
  -28.7300  -16.5938   23.5110 C   0  0  0  0  0  0
  -30.0970  -16.9107   23.5470 C   0  0  0  0  0  0
  -29.5069  -19.1890   24.3284 C   0  0  0  0  0  0
  -27.9023  -17.7131   23.2789 C   0  0  0  0  0  0
  -30.4889  -18.1900   24.0505 C   0  0  0  0  0  0
  -28.1777  -18.9575   23.8779 C   0  0  0  0  0  0
  -27.7663  -17.1686   20.9649 C   0  0  0  0  0  0
  -29.4480  -19.1181   20.5111 C   0  0  0  0  0  0
  -28.7773  -20.4653   20.3733 C   0  0  0  0  0  0
  -29.5508  -20.6408   17.8312 C   0  0  0  0  0  0
  -28.1797  -17.8095   18.4999 C   0  0  0  0  0  0
  -27.0603  -20.2219   18.5053 C   0  0  0  0  0  0
  -29.1091  -22.0192   17.3567 C   0  0  0  0  0  0
  -28.6600  -17.9027   19.9687 C   0  0  2  0  0  0
  -27.0851  -18.7663   17.9305 C   0  0  2  0  0  0
  -28.4620  -20.7783   18.9091 C   0  0  1  0  0  0
  -29.8774  -20.5060   25.0056 C   0  0  0  0  0  0
  -25.6865  -18.1219   17.8032 C   0  0  0  0  0  0
  -31.0887  -15.9658   22.8584 C   0  0  0  0  0  0
  -28.5177  -24.6052   19.2434 C   0  0  0  0  0  0
  -27.7893  -23.2470   19.1456 C   0  0  0  0  0  0
  -28.2287  -25.3848   20.5315 C   0  0  0  0  0  0
  -25.6377  -15.8581   16.4585 N   0  0  0  0  0  0
  -27.2321  -17.7944   22.0295 N   0  0  0  0  0  0
  -30.5082  -14.8297   22.1146 N   0  0  0  0  0  0
  -28.7395  -22.2137   18.7434 N   0  3  2  0  0  0
  -27.7041  -15.9567   20.8307 O   0  0  0  0  0  0
  -32.1642  -18.5262   24.2988 Cl  0  0  0  0  0  0
  -26.9558  -20.1982   23.8726 Cl  0  0  0  0  0  0
  -31.4602  -12.2976   19.2776 H   0  0  0  0  0  0
  -30.1586  -11.3208   19.8160 H   0  0  0  0  0  0
  -29.5947  -11.6958   17.5660 H   0  0  0  0  0  0
  -30.0581  -13.3362   17.5958 H   0  0  0  0  0  0
  -27.3906  -12.5107   17.7753 H   0  0  0  0  0  0
  -28.0235  -14.0584   18.2365 H   0  0  0  0  0  0
  -27.8926  -11.7315   19.8807 H   0  0  0  0  0  0
  -28.7056  -12.1628   21.7205 H   0  0  0  0  0  0
  -28.2884  -13.8140   21.7267 H   0  0  0  0  0  0
  -25.2662   -9.5877   22.4543 H   0  0  0  0  0  0
  -23.9954   -7.4744   22.7341 H   0  0  0  0  0  0
  -21.0632   -8.8604   19.8984 H   0  0  0  0  0  0
  -22.3322  -10.9614   19.5865 H   0  0  0  0  0  0
  -21.2118   -7.6106   23.9546 H   0  0  0  0  0  0
  -21.1056   -6.0488   25.8902 H   0  0  0  0  0  0
  -22.0953   -2.7575   23.2709 H   0  0  0  0  0  0
  -22.4763  -12.0101   22.4822 H   0  0  0  0  0  0
  -21.1298  -13.1087   22.3644 H   0  0  0  0  0  0
  -24.4545  -15.6599   20.5320 H   0  0  0  0  0  0
  -26.1505  -15.5945   20.5680 H   0  0  0  0  0  0
  -26.7074  -32.5628   23.1200 H   0  0  0  0  0  0
  -24.9924  -33.9812   25.0415 H   0  0  0  0  0  0
  -22.6816  -31.3127   21.4094 H   0  0  0  0  0  0
  -23.3758  -35.9611   23.3348 H   0  0  0  0  0  0
  -24.3563  -36.8848   22.2051 H   0  0  0  0  0  0
  -23.7231  -37.6498   23.6625 H   0  0  0  0  0  0
  -26.0157  -31.6443   20.5896 H   0  0  0  0  0  0
  -26.8076  -30.9241   21.9577 H   0  0  0  0  0  0
  -28.0966  -29.1842   21.1366 H   0  0  0  0  0  0
  -26.0357  -25.9502   19.1411 H   0  0  0  0  0  0
  -23.9505  -27.2451   19.1655 H   0  0  0  0  0  0
  -23.7119  -30.6041   19.4029 H   0  0  0  0  0  0
  -22.7261  -29.2433   19.8701 H   0  0  0  0  0  0
  -25.1292  -36.1981   25.0841 H   0  0  0  0  0  0
  -20.9967  -28.3254   24.1422 H   0  0  0  0  0  0
  -20.5622  -26.2292   23.3603 H   0  0  0  0  0  0
  -21.6627  -26.7431   22.1218 H   0  0  0  0  0  0
  -19.6893  -25.6304   21.1216 H   0  0  0  0  0  0
  -19.6669  -27.3211   20.6731 H   0  0  0  0  0  0
  -17.4175  -26.6664   21.4037 H   0  0  0  0  0  0
  -18.0338  -26.0065   22.9020 H   0  0  0  0  0  0
  -19.7931  -30.7261   24.2274 H   0  0  0  0  0  0
  -17.5015  -31.6264   24.5172 H   0  0  0  0  0  0
  -15.5352  -30.3003   23.7645 H   0  0  0  0  0  0
  -15.8661  -28.0847   22.7045 H   0  0  0  0  0  0
  -24.5888  -30.7061   25.7691 H   0  0  0  0  0  0
  -24.8928  -32.2830   26.4877 H   0  0  0  0  0  0
  -25.8049  -30.8781   27.0143 H   0  0  0  0  0  0
  -26.2844  -29.6790   24.1090 H   0  0  0  0  0  0
  -27.4109  -29.7285   25.4456 H   0  0  0  0  0  0
  -27.8649  -30.4367   23.9134 H   0  0  0  0  0  0
  -27.2704  -33.3571   26.2056 H   0  0  0  0  0  0
  -28.3813  -32.6897   25.0190 H   0  0  0  0  0  0
  -28.0800  -31.8376   26.5246 H   0  0  0  0  0  0
  -28.2633  -38.0049   24.7518 H   0  0  0  0  0  0
  -28.1044  -36.2585   24.6334 H   0  0  0  0  0  0
  -27.2286  -37.1466   25.8880 H   0  0  0  0  0  0
  -20.9238  -29.8735   21.6893 H   0  0  0  0  0  0
  -26.0202  -38.2872   24.1406 H   0  0  0  0  0  0
  -28.4021  -15.6285   23.1627 H   0  0  0  0  0  0
  -29.6921  -18.9583   21.5633 H   0  0  0  0  0  0
  -30.4343  -19.1958   20.0503 H   0  0  0  0  0  0
  -27.9021  -20.5521   21.0157 H   0  0  0  0  0  0
  -29.5052  -21.1957   20.7598 H   0  0  0  0  0  0
  -30.5735  -20.6280   18.2250 H   0  0  0  0  0  0
  -29.4135  -19.8638   17.0832 H   0  0  0  0  0  0
  -27.8641  -16.7748   18.3608 H   0  0  0  0  0  0
  -29.0684  -17.8722   17.8618 H   0  0  0  0  0  0
  -26.3596  -20.2688   19.3420 H   0  0  0  0  0  0
  -26.5991  -20.8418   17.7347 H   0  0  0  0  0  0
  -29.9138  -22.6813   17.0316 H   0  0  0  0  0  0
  -28.2609  -22.0150   16.6761 H   0  0  0  0  0  0
  -29.4851  -17.1923   19.9168 H   0  0  0  0  0  0
  -27.3606  -18.8740   16.8726 H   0  0  0  0  0  0
  -30.9278  -20.7807   24.8809 H   0  0  0  0  0  0
  -29.6636  -20.4826   26.0783 H   0  0  0  0  0  0
  -29.3028  -21.3353   24.5989 H   0  0  0  0  0  0
  -25.2402  -17.9614   18.7775 H   0  0  0  0  0  0
  -25.0363  -18.7880   17.2333 H   0  0  0  0  0  0
  -31.8216  -15.6098   23.5788 H   0  0  0  0  0  0
  -31.6001  -16.5915   22.1353 H   0  0  0  0  0  0
  -28.2551  -25.2094   18.3718 H   0  0  0  0  0  0
  -29.6032  -24.4881   19.2012 H   0  0  0  0  0  0
  -26.9483  -23.2916   18.4515 H   0  0  0  0  0  0
  -27.3814  -22.9741   20.1172 H   0  0  0  0  0  0
  -28.9290  -25.0999   21.3195 H   0  0  0  0  0  0
  -27.2442  -25.1710   20.9515 H   0  0  0  0  0  0
  -26.9805  -18.7483   21.8218 H   0  0  0  0  0  0
  -29.7896  -14.3224   22.6113 H   0  0  0  0  0  0
  -29.5954  -22.3832   19.2520 H   0  0  0  0  0  0
  1 25  1  0  0  0
  1 30  2  0  0  0
  1 96  1  0  0  0
  2  3  1  0  0  0
  2 25  1  0  0  0
  2101  1  0  0  0
  2102  1  0  0  0
  3  4  1  0  0  0
  3103  1  0  0  0
  3104  1  0  0  0
  4  5  1  0  0  0
  4105  1  0  0  0
  4106  1  0  0  0
  5  6  1  0  0  0
  5 26  1  0  0  0
  5107  1  0  0  0
  6 25  1  0  0  0
  6108  1  0  0  0
  6109  1  0  0  0
  7  8  2  0  0  0
  7 26  1  0  0  0
  7 29  1  0  0  0
  8  9  1  0  0  0
  8 22  1  0  0  0
  9 10  1  0  0  0
  9 27  2  0  0  0
 10 11  2  0  0  0
 10 15  1  0  0  0
 11 12  1  0  0  0
 11110  1  0  0  0
 12 13  2  0  0  0
 12111  1  0  0  0
 13 14  1  0  0  0
 13 31  1  0  0  0
 14 15  2  0  0  0
 14112  1  0  0  0
 15113  1  0  0  0
 16 17  2  0  0  0
 16 21  1  0  0  0
 16 31  1  0  0  0
 17 18  1  0  0  0
 17114  1  0  0  0
 18 19  2  0  0  0
 18115  1  0  0  0
 19 20  1  0  0  0
 19 24  1  0  0  0
 20 21  2  0  0  0
 20116  1  0  0  0
 21 23  1  0  0  0
 22 28  1  0  0  0
 22 32  2  0  0  0
 26 27  1  0  0  0
 28117  1  0  0  0
 28118  1  0  0  0
 29119  1  0  0  0
 29120  1  0  0  0
 33 34  1  0  0  0
 33 66  1  0  0  0
 33 70  2  0  0  0
 34 36  1  0  0  0
 34 59  1  0  0  0
 34121  1  0  0  0
 35 44  2  0  0  0
 35 45  1  0  0  0
 35 68  1  0  0  0
 36 56  1  0  0  0
 36122  1  0  0  0
 37 39  1  0  0  0
 37 47  1  0  0  0
 37 66  1  0  0  0
 37123  1  0  0  0
 38 43  2  0  0  0
 38 46  1  0  0  0
 38 47  1  0  0  0
 39 64  1  0  0  0
 39 67  2  0  0  0
 40 52  1  0  0  0
 40 53  2  0  0  0
 40 58  1  0  0  0
 41124  1  0  0  0
 41125  1  0  0  0
 41126  1  0  0  0
 41 48  1  0  0  0
 42 43  1  0  0  0
 42 66  1  0  0  0
 42127  1  0  0  0
 42128  1  0  0  0
 43 44  1  0  0  0
 44129  1  0  0  0
 45 46  2  0  0  0
 45130  1  0  0  0
 46131  1  0  0  0
 47132  1  0  0  0
 47133  1  0  0  0
 48 56  1  0  0  0
 48 65  1  0  0  0
 48134  1  0  0  0
 49 50  1  0  0  0
 49 53  1  0  0  0
 49 64  1  0  0  0
 49135  1  0  0  0
 50 51  1  0  0  0
 50136  1  0  0  0
 50137  1  0  0  0
 51 52  1  0  0  0
 51138  1  0  0  0
 51139  1  0  0  0
 52140  1  0  0  0
 52141  1  0  0  0
 53 54  1  0  0  0
 54 55  2  0  0  0
 54142  1  0  0  0
 55 57  1  0  0  0
 55143  1  0  0  0
 56 69  2  0  0  0
 57 58  2  0  0  0
 57144  1  0  0  0
 58145  1  0  0  0
 59 60  1  0  0  0
 59 61  1  0  0  0
 59 62  1  0  0  0
 60146  1  0  0  0
 60147  1  0  0  0
 60148  1  0  0  0
 61149  1  0  0  0
 61150  1  0  0  0
 61151  1  0  0  0
 62152  1  0  0  0
 62153  1  0  0  0
 62154  1  0  0  0
 63 65  1  0  0  0
 63155  1  0  0  0
 63156  1  0  0  0
 63157  1  0  0  0
 64158  1  0  0  0
 65159  1  0  0  0
 68 93  1  0  0  0
 71 89  1  0  0  0
 71 94  3  0  0  0
 72 73  2  0  0  0
 72 75  1  0  0  0
 72160  1  0  0  0
 73 76  1  0  0  0
 73 90  1  0  0  0
 74 76  2  0  0  0
 74 77  1  0  0  0
 74 88  1  0  0  0
 75 77  2  0  0  0
 75 95  1  0  0  0
 76 99  1  0  0  0
 77100  1  0  0  0
 78 95  1  0  0  0
 78 98  2  0  0  0
 78 85  1  0  0  0
 79 80  1  0  0  0
 79 85  1  0  0  0
 79161  1  0  0  0
 79162  1  0  0  0
 80163  1  0  0  0
 80164  1  0  0  0
 80 87  1  0  0  0
 81 84  1  0  0  0
 81 87  1  0  0  0
 81165  1  0  0  0
 81166  1  0  0  0
 82 85  1  0  0  0
 82 86  1  0  0  0
 82167  1  0  0  0
 82168  1  0  0  0
 83 86  1  0  0  0
 83 87  1  0  0  0
 83169  1  0  0  0
 83170  1  0  0  0
 84 97  1  0  0  0
 84171  1  0  0  0
 84172  1  0  0  0
 85173  1  0  0  0
 86 89  1  0  0  0
 86174  1  0  0  0
 87 97  1  0  0  0
 88175  1  0  0  0
 88176  1  0  0  0
 88177  1  0  0  0
 89178  1  0  0  0
 89179  1  0  0  0
 90 96  1  0  0  0
 90180  1  0  0  0
 90181  1  0  0  0
 91 92  1  0  0  0
 91 93  1  0  0  0
 91182  1  0  0  0
 91183  1  0  0  0
 92184  1  0  0  0
 92185  1  0  0  0
 92 97  1  0  0  0
 93186  1  0  0  0
 93187  1  0  0  0
 95188  1  0  0  0
 96189  1  0  0  0
 97190  1  0  0  0
M  CHG  1  97   1
M  ISO  4   1 100  68 101  93 101  96 100
M  END
> <chiral flag>
0

> <version>
0

> <s_m_source_file>
/data/baiqing/PycharmProjects/Reinvent-master-3.2/result/LINK_invent/BTK/process_docking_weight1_custom_sum_contain_oxygen_bond_distance_aromatic_linkinvent_7_9_3/rearranged_h_0020.sdf

> <i_m_source_file_index>
45

> <r_mmod_Potential_Energy-OPLS-2005>
342.588684082031

> <r_mmod_Stretch_Energy-OPLS-2005>
48.7465553283691

> <r_mmod_Bend_Energy-OPLS-2005>
288.590148925781

> <r_mmod_Torsional_Energy-OPLS-2005>
515.723205566406

> <r_mmod_Improper_Torsional_Energy-OPLS-2005>
25.1867008209229

> <r_mmod_Van_der_Waal_Energy-OPLS-2005>
194.886672973633

> <r_mmod_Electrostatic_Energy-OPLS-2005>
-327.380889892578

> <r_mmod_Solvation_Energy-OPLS-2005>
-491.099365234375

> <b_mmod_Minimization_Converged-OPLS-2005>
0

> <r_mmod_RMS_Derivative-OPLS-2005>
20.166389465332

$$$$
45
                    3D
 Structure written by MMmdl.
150158  0  0  1  0            999 V2000
  -30.3033  -15.5961   20.3223 C   0  0  0  0  0  0
  -30.4378  -13.0458   19.5427 C   0  0  0  0  0  0
  -29.5597  -12.6426   18.3232 C   0  0  0  0  0  0
  -28.1234  -12.3060   18.7575 C   0  0  0  0  0  0
  -27.6040  -13.3047   19.8180 C   0  0  2  0  0  0
  -28.6249  -13.6064   20.9394 C   0  0  0  0  0  0
  -25.2363  -13.8290   20.5783 C   0  0  0  0  0  0
  -24.1737  -13.0459   20.9282 C   0  0  0  0  0  0
  -24.6424  -11.6966   20.8778 C   0  0  0  0  0  0
  -23.9122  -10.4319   21.0425 C   0  0  0  0  0  0
  -24.3650   -9.4228   21.9206 C   0  0  0  0  0  0
  -23.6306   -8.2274   22.0788 C   0  0  0  0  0  0
  -22.4283   -8.0319   21.3577 C   0  0  0  0  0  0
  -21.9927   -9.0304   20.4685 C   0  0  0  0  0  0
  -22.7283  -10.2168   20.3087 C   0  0  0  0  0  0
  -21.6858   -6.0757   22.5287 C   0  0  0  0  0  0
  -21.4027   -6.5652   23.8222 C   0  0  0  0  0  0
  -21.3657   -5.6800   24.9178 C   0  0  0  0  0  0
  -21.6035   -4.3063   24.7222 C   0  0  0  0  0  0
  -21.8818   -3.8164   23.4343 C   0  0  0  0  0  0
  -21.9191   -4.6988   22.3406 C   0  0  0  0  0  0
  -22.7743  -13.5218   21.1897 C   0  0  0  0  0  0
  -22.1659   -4.2172   21.0985 F   0  0  0  0  0  0
  -21.5612   -3.4547   25.7730 F   0  0  0  0  0  0
  -29.8054  -14.2228   20.2892 N   0  0  0  0  0  0
  -26.2815  -12.9611   20.3231 N   0  0  0  0  0  0
  -25.9369  -11.6691   20.5700 N   0  0  0  0  0  0
  -22.0361  -12.8241   22.0442 N   0  0  0  0  0  0
  -25.3953  -15.2030   20.4214 N   0  0  0  0  0  0
  -31.5365  -15.5662   20.1430 O   0  0  0  0  0  0
  -21.6648   -6.8912   21.4255 O   0  0  0  0  0  0
  -22.3435  -14.5513   20.6715 O   0  0  0  0  0  0
  -24.6851  -31.8005   23.1533 C   0  0  0  0  0  0
  -25.9426  -32.4471   23.8086 C   0  0  1  0  0  0
  -27.2286  -26.7104   20.2093 C   0  0  0  0  0  0
  -25.6004  -33.8296   24.1971 N   0  0  0  0  0  0
  -23.5109  -30.4036   21.5070 C   0  0  2  0  0  0
  -24.9689  -28.7469   20.1171 C   0  0  0  0  0  0
  -22.7771  -29.4328   22.4718 C   0  0  0  0  0  0
  -18.0335  -28.1425   22.8453 C   0  0  0  0  0  0
  -24.1493  -36.7152   23.2659 C   0  0  0  0  0  0
  -26.0923  -30.5340   21.4188 C   0  0  0  0  0  0
  -26.1586  -29.1013   20.7651 C   0  0  0  0  0  0
  -27.2744  -28.1114   20.7784 C   0  0  0  0  0  0
  -26.0055  -26.5644   19.5060 C   0  0  0  0  0  0
  -24.9318  -27.5036   19.4643 C   0  0  0  0  0  0
  -23.7643  -29.7011   20.1418 C   0  0  0  0  0  0
  -25.4146  -36.2901   24.0285 C   0  0  1  0  0  0
  -20.5971  -28.3791   23.1130 C   0  0  2  0  0  0
  -20.6803  -26.9447   22.5402 C   0  0  0  0  0  0
  -19.5778  -26.6370   21.5218 C   0  0  0  0  0  0
  -18.1961  -26.7948   22.1620 C   0  0  0  0  0  0
  -19.1602  -28.8929   23.2775 C   0  0  0  0  0  0
  -18.9512  -30.1511   23.8825 C   0  0  0  0  0  0
  -17.6501  -30.6609   24.0544 C   0  0  0  0  0  0
  -25.9120  -34.9287   23.4964 C   0  0  0  0  0  0
  -16.5388  -29.9090   23.6351 C   0  0  0  0  0  0
  -16.7315  -28.6511   23.0373 C   0  0  0  0  0  0
  -26.4580  -31.6509   25.0716 C   0  0  0  0  0  0
  -25.3641  -31.3837   26.1336 C   0  0  0  0  0  0
  -27.0513  -30.2845   24.6637 C   0  0  0  0  0  0
  -27.6022  -32.4375   25.7538 C   0  0  0  0  0  0
  -27.5558  -37.1745   24.8469 C   0  0  0  0  0  0
  -21.4420  -29.3045   22.3456 N   0  0  0  0  0  0
  -26.4277  -37.3661   23.9392 N   0  0  0  0  0  0
  -24.7859  -30.9452   22.0785 N   0  0  0  0  0  0
  -23.4205  -28.7928   23.3063 O   0  0  0  0  0  0
  -28.1859  -25.4891   20.2745 O   0  0  0  0  0  0
  -26.5764  -34.8855   22.4580 O   0  0  0  0  0  0
  -23.5872  -32.1079   23.6487 O   0  0  0  0  0  0
  -29.3425  -19.6656   21.3652 C   0  0  0  0  0  0
  -29.0202  -21.1672   21.3484 C   0  0  0  0  0  0
  -28.6390  -22.0624   20.2142 C   0  0  0  0  0  0
  -29.0518  -19.5327   19.1516 C   0  0  0  0  0  0
  -29.4079  -18.6332   20.2911 C   0  0  0  0  0  0
  -28.7079  -21.0370   19.1261 C   0  0  0  0  0  0
  -29.0505  -21.8408   22.7083 C   0  0  0  0  0  0
  -28.9971  -18.8199   17.8043 C   0  0  0  0  0  0
  -27.8673  -23.7715   20.1589 C   0  0  0  0  0  0
  -29.4792  -16.9111   20.3799 N   0  0  0  0  0  0
  -28.2650  -21.6802   17.5786 Cl  0  0  0  0  0  0
  -31.4356  -13.3052   19.1848 H   0  0  0  0  0  0
  -30.5911  -12.1928   20.2068 H   0  0  0  0  0  0
  -30.0037  -11.7965   17.7970 H   0  0  0  0  0  0
  -29.5394  -13.4699   17.6108 H   0  0  0  0  0  0
  -28.1307  -11.2988   19.1770 H   0  0  0  0  0  0
  -27.4581  -12.2766   17.8935 H   0  0  0  0  0  0
  -27.4768  -14.2386   19.2691 H   0  0  0  0  0  0
  -28.8747  -12.7094   21.5074 H   0  0  0  0  0  0
  -28.2060  -14.3161   21.6540 H   0  0  0  0  0  0
  -25.2791   -9.5679   22.4784 H   0  0  0  0  0  0
  -24.0006   -7.4655   22.7498 H   0  0  0  0  0  0
  -21.0859   -8.8857   19.8978 H   0  0  0  0  0  0
  -22.3767  -10.9725   19.6203 H   0  0  0  0  0  0
  -21.2036   -7.6165   23.9728 H   0  0  0  0  0  0
  -21.1468   -6.0530   25.9074 H   0  0  0  0  0  0
  -22.0584   -2.7628   23.2838 H   0  0  0  0  0  0
  -22.3946  -11.9936   22.4910 H   0  0  0  0  0  0
  -21.0981  -13.1316   22.2606 H   0  0  0  0  0  0
  -24.6187  -15.8453   20.5355 H   0  0  0  0  0  0
  -26.2241  -15.6462   20.0517 H   0  0  0  0  0  0
  -26.7510  -32.4930   23.0802 H   0  0  0  0  0  0
  -25.0044  -33.9336   25.0048 H   0  0  0  0  0  0
  -22.8380  -31.2422   21.3180 H   0  0  0  0  0  0
  -23.3766  -35.9474   23.3314 H   0  0  0  0  0  0
  -24.3550  -36.8819   22.2074 H   0  0  0  0  0  0
  -23.7248  -37.6329   23.6734 H   0  0  0  0  0  0
  -26.2996  -31.2621   20.6336 H   0  0  0  0  0  0
  -26.9405  -30.5940   22.0877 H   0  0  0  0  0  0
  -28.1702  -28.3875   21.3175 H   0  0  0  0  0  0
  -25.8368  -25.6243   19.0005 H   0  0  0  0  0  0
  -24.0346  -27.2225   18.9298 H   0  0  0  0  0  0
  -23.9385  -30.4622   19.3809 H   0  0  0  0  0  0
  -22.8670  -29.1707   19.8183 H   0  0  0  0  0  0
  -25.1356  -36.1677   25.0782 H   0  0  0  0  0  0
  -21.0050  -28.3424   24.1256 H   0  0  0  0  0  0
  -20.5681  -26.2414   23.3672 H   0  0  0  0  0  0
  -21.6665  -26.7406   22.1222 H   0  0  0  0  0  0
  -19.6943  -25.6260   21.1305 H   0  0  0  0  0  0
  -19.6716  -27.3128   20.6711 H   0  0  0  0  0  0
  -17.4234  -26.6686   21.4029 H   0  0  0  0  0  0
  -18.0358  -26.0114   22.9038 H   0  0  0  0  0  0
  -19.7984  -30.7347   24.2177 H   0  0  0  0  0  0
  -17.5047  -31.6280   24.5152 H   0  0  0  0  0  0
  -15.5385  -30.2967   23.7717 H   0  0  0  0  0  0
  -15.8717  -28.0798   22.7146 H   0  0  0  0  0  0
  -24.5799  -30.7229   25.7618 H   0  0  0  0  0  0
  -24.8872  -32.3079   26.4619 H   0  0  0  0  0  0
  -25.7811  -30.9063   27.0213 H   0  0  0  0  0  0
  -26.3241  -29.6455   24.1626 H   0  0  0  0  0  0
  -27.3904  -29.7297   25.5392 H   0  0  0  0  0  0
  -27.9230  -30.3949   24.0189 H   0  0  0  0  0  0
  -27.2534  -33.3706   26.1973 H   0  0  0  0  0  0
  -28.3909  -32.6911   25.0441 H   0  0  0  0  0  0
  -28.0616  -31.8624   26.5584 H   0  0  0  0  0  0
  -28.2584  -38.0028   24.7482 H   0  0  0  0  0  0
  -28.1046  -36.2561   24.6351 H   0  0  0  0  0  0
  -27.2272  -37.1450   25.8871 H   0  0  0  0  0  0
  -20.9726  -29.8680   21.6503 H   0  0  0  0  0  0
  -26.0113  -38.2719   24.1370 H   0  0  0  0  0  0
  -29.5215  -19.2595   22.3514 H   0  0  0  0  0  0
  -29.7968  -21.3695   23.3516 H   0  0  0  0  0  0
  -28.0755  -21.7704   23.1954 H   0  0  0  0  0  0
  -29.3168  -22.8970   22.6214 H   0  0  0  0  0  0
  -29.2995  -17.7750   17.8668 H   0  0  0  0  0  0
  -29.6704  -19.3019   17.0941 H   0  0  0  0  0  0
  -27.9878  -18.8482   17.3930 H   0  0  0  0  0  0
  -27.0960  -23.6596   20.9202 H   0  0  0  0  0  0
  -27.3014  -23.7284   19.2294 H   0  0  0  0  0  0
  -28.5316  -16.5810   20.4912 H   0  0  0  0  0  0
  1 25  1  0  0  0
  1 30  2  0  0  0
  1 80  1  0  0  0
  2  3  1  0  0  0
  2 25  1  0  0  0
  2 82  1  0  0  0
  2 83  1  0  0  0
  3  4  1  0  0  0
  3 84  1  0  0  0
  3 85  1  0  0  0
  4  5  1  0  0  0
  4 86  1  0  0  0
  4 87  1  0  0  0
  5  6  1  0  0  0
  5 26  1  0  0  0
  5 88  1  0  0  0
  6 25  1  0  0  0
  6 89  1  0  0  0
  6 90  1  0  0  0
  7  8  2  0  0  0
  7 26  1  0  0  0
  7 29  1  0  0  0
  8  9  1  0  0  0
  8 22  1  0  0  0
  9 10  1  0  0  0
  9 27  2  0  0  0
 10 11  2  0  0  0
 10 15  1  0  0  0
 11 12  1  0  0  0
 11 91  1  0  0  0
 12 13  2  0  0  0
 12 92  1  0  0  0
 13 14  1  0  0  0
 13 31  1  0  0  0
 14 15  2  0  0  0
 14 93  1  0  0  0
 15 94  1  0  0  0
 16 17  2  0  0  0
 16 21  1  0  0  0
 16 31  1  0  0  0
 17 18  1  0  0  0
 17 95  1  0  0  0
 18 19  2  0  0  0
 18 96  1  0  0  0
 19 20  1  0  0  0
 19 24  1  0  0  0
 20 21  2  0  0  0
 20 97  1  0  0  0
 21 23  1  0  0  0
 22 28  1  0  0  0
 22 32  2  0  0  0
 26 27  1  0  0  0
 28 98  1  0  0  0
 28 99  1  0  0  0
 29100  1  0  0  0
 29101  1  0  0  0
 33 34  1  0  0  0
 33 66  1  0  0  0
 33 70  2  0  0  0
 34 36  1  0  0  0
 34 59  1  0  0  0
 34102  1  0  0  0
 35 44  2  0  0  0
 35 45  1  0  0  0
 35 68  1  0  0  0
 36 56  1  0  0  0
 36103  1  0  0  0
 37 39  1  0  0  0
 37 47  1  0  0  0
 37 66  1  0  0  0
 37104  1  0  0  0
 38 43  2  0  0  0
 38 46  1  0  0  0
 38 47  1  0  0  0
 39 64  1  0  0  0
 39 67  2  0  0  0
 40 52  1  0  0  0
 40 53  2  0  0  0
 40 58  1  0  0  0
 41105  1  0  0  0
 41106  1  0  0  0
 41107  1  0  0  0
 41 48  1  0  0  0
 42 43  1  0  0  0
 42 66  1  0  0  0
 42108  1  0  0  0
 42109  1  0  0  0
 43 44  1  0  0  0
 44110  1  0  0  0
 45 46  2  0  0  0
 45111  1  0  0  0
 46112  1  0  0  0
 47113  1  0  0  0
 47114  1  0  0  0
 48 56  1  0  0  0
 48 65  1  0  0  0
 48115  1  0  0  0
 49 50  1  0  0  0
 49 53  1  0  0  0
 49 64  1  0  0  0
 49116  1  0  0  0
 50 51  1  0  0  0
 50117  1  0  0  0
 50118  1  0  0  0
 51 52  1  0  0  0
 51119  1  0  0  0
 51120  1  0  0  0
 52121  1  0  0  0
 52122  1  0  0  0
 53 54  1  0  0  0
 54 55  2  0  0  0
 54123  1  0  0  0
 55 57  1  0  0  0
 55124  1  0  0  0
 56 69  2  0  0  0
 57 58  2  0  0  0
 57125  1  0  0  0
 58126  1  0  0  0
 59 60  1  0  0  0
 59 61  1  0  0  0
 59 62  1  0  0  0
 60127  1  0  0  0
 60128  1  0  0  0
 60129  1  0  0  0
 61130  1  0  0  0
 61131  1  0  0  0
 61132  1  0  0  0
 62133  1  0  0  0
 62134  1  0  0  0
 62135  1  0  0  0
 63 65  1  0  0  0
 63136  1  0  0  0
 63137  1  0  0  0
 63138  1  0  0  0
 64139  1  0  0  0
 65140  1  0  0  0
 68 79  1  0  0  0
 71 72  2  0  0  0
 71 75  1  0  0  0
 71141  1  0  0  0
 72 73  1  0  0  0
 72 77  1  0  0  0
 73 76  2  0  0  0
 73 79  1  0  0  0
 74 75  2  0  0  0
 74 76  1  0  0  0
 74 78  1  0  0  0
 75 80  1  0  0  0
 76 81  1  0  0  0
 77142  1  0  0  0
 77143  1  0  0  0
 77144  1  0  0  0
 78145  1  0  0  0
 78146  1  0  0  0
 78147  1  0  0  0
 79148  1  0  0  0
 79149  1  0  0  0
 80150  1  0  0  0
M  ISO  4   1 100  68 101  79 101  80 100
M  END
> <chiral flag>
0

> <version>
0

> <s_m_source_file>
/data/baiqing/PycharmProjects/Reinvent-master-3.2/result/LINK_invent/BTK/process_docking_weight1_custom_sum_contain_oxygen_bond_distance_aromatic_linkinvent_7_9_3/rearranged_h_0020.sdf

> <i_m_source_file_index>
46

> <r_mmod_Potential_Energy-OPLS-2005>
2296.1015625

> <r_mmod_Stretch_Energy-OPLS-2005>
930.632019042969

> <r_mmod_Bend_Energy-OPLS-2005>
644.466430664062

> <r_mmod_Torsional_Energy-OPLS-2005>
264.852722167969

> <r_mmod_Improper_Torsional_Energy-OPLS-2005>
10.1216259002686

> <r_mmod_Van_der_Waal_Energy-OPLS-2005>
132.983001708984

> <r_mmod_Electrostatic_Energy-OPLS-2005>
-339.216369628906

> <r_mmod_Solvation_Energy-OPLS-2005>
-210.724578857422

> <b_mmod_Minimization_Converged-OPLS-2005>
0

> <r_mmod_RMS_Derivative-OPLS-2005>
2.3817024230957

$$$$
46
                    3D
 Structure written by MMmdl.
178187  0  0  1  0            999 V2000
  -30.7495  -14.4831   20.6953 C   0  0  0  0  0  0
  -30.4410  -12.3677   19.4262 C   0  0  0  0  0  0
  -29.5034  -12.5491   18.2173 C   0  0  0  0  0  0
  -28.0306  -12.3703   18.6303 C   0  0  0  0  0  0
  -27.6721  -13.1907   19.8966 C   0  0  2  0  0  0
  -28.7200  -12.9162   21.0037 C   0  0  0  0  0  0
  -25.2667  -13.8106   20.5808 C   0  0  0  0  0  0
  -24.1863  -13.0429   20.9119 C   0  0  0  0  0  0
  -24.6384  -11.6853   20.8639 C   0  0  0  0  0  0
  -23.9044  -10.4284   21.0334 C   0  0  0  0  0  0
  -24.3593   -9.4220   21.9161 C   0  0  0  0  0  0
  -23.6287   -8.2259   22.0743 C   0  0  0  0  0  0
  -22.4262   -8.0284   21.3546 C   0  0  0  0  0  0
  -21.9853   -9.0260   20.4665 C   0  0  0  0  0  0
  -22.7175  -10.2139   20.3040 C   0  0  0  0  0  0
  -21.6864   -6.0734   22.5285 C   0  0  0  0  0  0
  -21.4033   -6.5652   23.8217 C   0  0  0  0  0  0
  -21.3655   -5.6784   24.9175 C   0  0  0  0  0  0
  -21.6031   -4.3045   24.7203 C   0  0  0  0  0  0
  -21.8828   -3.8151   23.4327 C   0  0  0  0  0  0
  -21.9209   -4.6975   22.3390 C   0  0  0  0  0  0
  -22.7891  -13.5261   21.1770 C   0  0  0  0  0  0
  -22.1651   -4.2172   21.0953 F   0  0  0  0  0  0
  -21.5630   -3.4526   25.7708 F   0  0  0  0  0  0
  -30.0381  -13.3222   20.4863 N   0  0  0  0  0  0
  -26.3091  -12.9247   20.3468 N   0  0  0  0  0  0
  -25.9325  -11.6404   20.5715 N   0  0  0  0  0  0
  -22.0489  -12.8286   22.0299 N   0  0  0  0  0  0
  -25.4436  -15.1868   20.4465 N   0  0  0  0  0  0
  -31.8026  -14.6594   20.0729 O   0  0  0  0  0  0
  -21.6640   -6.8876   21.4236 O   0  0  0  0  0  0
  -22.3597  -14.5599   20.6642 O   0  0  0  0  0  0
  -24.6147  -31.8656   23.2036 C   0  0  0  0  0  0
  -25.9053  -32.4791   23.8342 C   0  0  1  0  0  0
  -27.2147  -27.4355   20.1266 C   0  0  0  0  0  0
  -25.5949  -33.8593   24.2323 N   0  0  0  0  0  0
  -23.3995  -30.4893   21.5391 C   0  0  2  0  0  0
  -24.8484  -28.9522   20.1039 C   0  0  0  0  0  0
  -22.7389  -29.4670   22.4912 C   0  0  0  0  0  0
  -18.0278  -28.1357   22.8413 C   0  0  0  0  0  0
  -24.1497  -36.7314   23.2623 C   0  0  0  0  0  0
  -25.9300  -30.8307   21.3550 C   0  0  0  0  0  0
  -26.0021  -29.4649   20.7095 C   0  0  0  0  0  0
  -27.1926  -28.7105   20.7254 C   0  0  0  0  0  0
  -26.0569  -26.9342   19.5013 C   0  0  0  0  0  0
  -24.8680  -27.6857   19.4915 C   0  0  0  0  0  0
  -23.6118  -29.8158   20.1535 C   0  0  0  0  0  0
  -25.4104  -36.3061   24.0336 C   0  0  1  0  0  0
  -20.5858  -28.3695   23.1329 C   0  0  2  0  0  0
  -20.6780  -26.9468   22.5345 C   0  0  0  0  0  0
  -19.5798  -26.6465   21.5104 C   0  0  0  0  0  0
  -18.1941  -26.7962   22.1476 C   0  0  0  0  0  0
  -19.1514  -28.8837   23.2883 C   0  0  0  0  0  0
  -18.9383  -30.1420   23.8921 C   0  0  0  0  0  0
  -17.6380  -30.6535   24.0552 C   0  0  0  0  0  0
  -25.9059  -34.9440   23.5120 C   0  0  0  0  0  0
  -16.5298  -29.9029   23.6269 C   0  0  0  0  0  0
  -16.7271  -28.6465   23.0244 C   0  0  0  0  0  0
  -26.4479  -31.6563   25.0658 C   0  0  0  0  0  0
  -25.3792  -31.3739   26.1461 C   0  0  0  0  0  0
  -27.0328  -30.3011   24.6012 C   0  0  0  0  0  0
  -27.6027  -32.4301   25.7444 C   0  0  0  0  0  0
  -27.5587  -37.1788   24.8450 C   0  0  0  0  0  0
  -21.4094  -29.3120   22.3770 N   0  0  0  0  0  0
  -26.4279  -37.3753   23.9424 N   0  0  0  0  0  0
  -24.6673  -31.0749   22.0926 N   0  0  0  0  0  0
  -23.4184  -28.8171   23.2906 O   0  0  0  0  0  0
  -28.3345  -26.6511   20.2028 O   0  0  0  0  0  0
  -26.5560  -34.8866   22.4644 O   0  0  0  0  0  0
  -23.5343  -32.1433   23.7444 O   0  0  0  0  0  0
  -31.7593  -19.0917   23.3249 C   0  0  0  0  0  0
  -31.9590  -18.6267   22.0053 C   0  0  0  0  0  0
  -30.8392  -21.2038   22.4970 C   0  0  0  0  0  0
  -31.1985  -20.3593   23.5778 C   0  0  0  0  0  0
  -31.7539  -19.5348   20.9339 C   0  0  0  0  0  0
  -31.1907  -20.8095   21.1838 C   0  0  0  0  0  0
  -28.2853  -16.8881   24.1078 C   0  0  0  0  0  0
  -27.8888  -17.7904   22.9464 C   0  0  0  0  0  0
  -28.5659  -15.5293   23.4564 C   0  0  0  0  0  0
  -28.7412  -17.3217   21.7607 C   0  0  0  0  0  0
  -29.0204  -15.8265   22.0038 C   0  0  0  0  0  0
  -32.3450  -15.0839   23.2801 C   0  0  0  0  0  0
  -32.3261  -17.1536   21.7528 C   0  0  0  0  0  0
  -30.0601  -22.5056   22.7184 C   0  0  0  0  0  0
  -27.8397  -24.4352   21.1759 C   0  0  0  0  0  0
  -27.8074  -23.5787   22.4681 C   0  0  0  0  0  0
  -28.3616  -25.8664   21.4030 C   0  0  0  0  0  0
  -31.4567  -16.0817   22.5102 C   0  0  1  0  0  0
  -30.4079  -15.3551   21.7104 N   0  0  0  0  0  0
  -28.6224  -22.3434   22.3760 N   0  3  0  0  0  0
  -30.8986  -20.8055   25.2216 Cl  0  0  0  0  0  0
  -32.1459  -19.0963   19.3028 Cl  0  0  0  0  0  0
  -30.8957  -21.8841   19.8571 Cl  0  0  0  0  0  0
  -31.4770  -12.4948   19.1076 H   0  0  0  0  0  0
  -30.3850  -11.3465   19.8071 H   0  0  0  0  0  0
  -29.7612  -11.8373   17.4332 H   0  0  0  0  0  0
  -29.6499  -13.5408   17.7891 H   0  0  0  0  0  0
  -27.8650  -11.3081   18.8203 H   0  0  0  0  0  0
  -27.3742  -12.6403   17.8015 H   0  0  0  0  0  0
  -27.7213  -14.2398   19.6049 H   0  0  0  0  0  0
  -28.7353  -11.8464   21.2275 H   0  0  0  0  0  0
  -28.4672  -13.3563   21.9625 H   0  0  0  0  0  0
  -25.2740   -9.5739   22.4741 H   0  0  0  0  0  0
  -24.0038   -7.4663   22.7467 H   0  0  0  0  0  0
  -21.0759   -8.8762   19.9023 H   0  0  0  0  0  0
  -22.3600  -10.9677   19.6167 H   0  0  0  0  0  0
  -21.2023   -7.6168   23.9723 H   0  0  0  0  0  0
  -21.1448   -6.0507   25.9077 H   0  0  0  0  0  0
  -22.0606   -2.7622   23.2795 H   0  0  0  0  0  0
  -22.4100  -11.9993   22.4768 H   0  0  0  0  0  0
  -21.1158  -13.1383   22.2562 H   0  0  0  0  0  0
  -24.6891  -15.8400   20.6322 H   0  0  0  0  0  0
  -26.3161  -15.6452   20.2252 H   0  0  0  0  0  0
  -26.7111  -32.5458   23.1077 H   0  0  0  0  0  0
  -25.0200  -33.9747   25.0545 H   0  0  0  0  0  0
  -22.6867  -31.3017   21.3887 H   0  0  0  0  0  0
  -23.3720  -35.9697   23.3302 H   0  0  0  0  0  0
  -24.3591  -36.8910   22.2029 H   0  0  0  0  0  0
  -23.7268  -37.6544   23.6634 H   0  0  0  0  0  0
  -26.0374  -31.5869   20.5748 H   0  0  0  0  0  0
  -26.8282  -30.8938   21.9558 H   0  0  0  0  0  0
  -28.0825  -29.0761   21.2209 H   0  0  0  0  0  0
  -26.0686  -25.9510   19.0521 H   0  0  0  0  0  0
  -23.9842  -27.2733   19.0242 H   0  0  0  0  0  0
  -23.7200  -30.5898   19.3941 H   0  0  0  0  0  0
  -22.7405  -29.2320   19.8507 H   0  0  0  0  0  0
  -25.1254  -36.1942   25.0831 H   0  0  0  0  0  0
  -21.0016  -28.3223   24.1421 H   0  0  0  0  0  0
  -20.5744  -26.2306   23.3476 H   0  0  0  0  0  0
  -21.6665  -26.7623   22.1087 H   0  0  0  0  0  0
  -19.6985  -25.6426   21.0974 H   0  0  0  0  0  0
  -19.6855  -27.3350   20.6714 H   0  0  0  0  0  0
  -18.0235  -25.9967   22.8723 H   0  0  0  0  0  0
  -17.4278  -26.6956   21.3785 H   0  0  0  0  0  0
  -19.7888  -30.7245   24.2271 H   0  0  0  0  0  0
  -17.4960  -31.6189   24.5212 H   0  0  0  0  0  0
  -15.5294  -30.2938   23.7517 H   0  0  0  0  0  0
  -15.8709  -28.0811   22.6823 H   0  0  0  0  0  0
  -24.5828  -30.7199   25.7860 H   0  0  0  0  0  0
  -24.9146  -32.2969   26.4990 H   0  0  0  0  0  0
  -25.8187  -30.8845   27.0175 H   0  0  0  0  0  0
  -26.2898  -29.6718   24.1069 H   0  0  0  0  0  0
  -27.4153  -29.7230   25.4445 H   0  0  0  0  0  0
  -27.8712  -30.4363   23.9149 H   0  0  0  0  0  0
  -27.2593  -33.3534   26.2149 H   0  0  0  0  0  0
  -28.3809  -32.6996   25.0279 H   0  0  0  0  0  0
  -28.0746  -31.8360   26.5284 H   0  0  0  0  0  0
  -28.2543  -38.0126   24.7489 H   0  0  0  0  0  0
  -28.1120  -36.2639   24.6289 H   0  0  0  0  0  0
  -27.2304  -37.1460   25.8843 H   0  0  0  0  0  0
  -20.9207  -29.8933   21.7116 H   0  0  0  0  0  0
  -26.0158  -38.2833   24.1440 H   0  0  0  0  0  0
  -31.9756  -18.4485   24.1648 H   0  0  0  0  0  0
  -27.5059  -16.8306   24.8684 H   0  0  0  0  0  0
  -29.1815  -17.2739   24.5940 H   0  0  0  0  0  0
  -28.0184  -18.8485   23.1769 H   0  0  0  0  0  0
  -26.8348  -17.6326   22.7186 H   0  0  0  0  0  0
  -27.6499  -14.9373   23.4480 H   0  0  0  0  0  0
  -29.2952  -14.9536   24.0263 H   0  0  0  0  0  0
  -29.6420  -17.9109   21.7328 H   0  0  0  0  0  0
  -28.2464  -17.5023   20.8031 H   0  0  0  0  0  0
  -28.3064  -15.3634   21.3373 H   0  0  0  0  0  0
  -33.0067  -15.6066   23.9719 H   0  0  0  0  0  0
  -32.9802  -14.4983   22.6133 H   0  0  0  0  0  0
  -31.7447  -14.3937   23.8768 H   0  0  0  0  0  0
  -33.3697  -17.0579   22.0544 H   0  0  0  0  0  0
  -32.3174  -16.9493   20.6883 H   0  0  0  0  0  0
  -30.5012  -23.3136   22.1333 H   0  0  0  0  0  0
  -30.1293  -22.8341   23.7541 H   0  0  0  0  0  0
  -26.8258  -24.5034   20.7817 H   0  0  0  0  0  0
  -28.4317  -23.9613   20.3935 H   0  0  0  0  0  0
  -26.7750  -23.2736   22.6336 H   0  0  0  0  0  0
  -28.0696  -24.1526   23.3600 H   0  0  0  0  0  0
  -27.7944  -26.3361   22.2106 H   0  0  0  0  0  0
  -29.3891  -25.8233   21.7562 H   0  0  0  0  0  0
  -30.9444  -16.6073   23.3091 H   0  0  0  0  0  0
  -28.2222  -21.6710   23.0142 H   0  0  0  0  0  0
  -28.5261  -21.9593   21.4485 H   0  0  0  0  0  0
  1 25  1  0  0  0
  1 30  2  0  0  0
  1 89  1  0  0  0
  2  3  1  0  0  0
  2 25  1  0  0  0
  2 94  1  0  0  0
  2 95  1  0  0  0
  3  4  1  0  0  0
  3 96  1  0  0  0
  3 97  1  0  0  0
  4  5  1  0  0  0
  4 98  1  0  0  0
  4 99  1  0  0  0
  5  6  1  0  0  0
  5 26  1  0  0  0
  5100  1  0  0  0
  6 25  1  0  0  0
  6101  1  0  0  0
  6102  1  0  0  0
  7  8  2  0  0  0
  7 26  1  0  0  0
  7 29  1  0  0  0
  8  9  1  0  0  0
  8 22  1  0  0  0
  9 10  1  0  0  0
  9 27  2  0  0  0
 10 11  2  0  0  0
 10 15  1  0  0  0
 11 12  1  0  0  0
 11103  1  0  0  0
 12 13  2  0  0  0
 12104  1  0  0  0
 13 14  1  0  0  0
 13 31  1  0  0  0
 14 15  2  0  0  0
 14105  1  0  0  0
 15106  1  0  0  0
 16 17  2  0  0  0
 16 21  1  0  0  0
 16 31  1  0  0  0
 17 18  1  0  0  0
 17107  1  0  0  0
 18 19  2  0  0  0
 18108  1  0  0  0
 19 20  1  0  0  0
 19 24  1  0  0  0
 20 21  2  0  0  0
 20109  1  0  0  0
 21 23  1  0  0  0
 22 28  1  0  0  0
 22 32  2  0  0  0
 26 27  1  0  0  0
 28110  1  0  0  0
 28111  1  0  0  0
 29112  1  0  0  0
 29113  1  0  0  0
 33 34  1  0  0  0
 33 66  1  0  0  0
 33 70  2  0  0  0
 34 36  1  0  0  0
 34 59  1  0  0  0
 34114  1  0  0  0
 35 44  2  0  0  0
 35 45  1  0  0  0
 35 68  1  0  0  0
 36 56  1  0  0  0
 36115  1  0  0  0
 37 39  1  0  0  0
 37 47  1  0  0  0
 37 66  1  0  0  0
 37116  1  0  0  0
 38 43  2  0  0  0
 38 46  1  0  0  0
 38 47  1  0  0  0
 39 64  1  0  0  0
 39 67  2  0  0  0
 40 52  1  0  0  0
 40 53  2  0  0  0
 40 58  1  0  0  0
 41117  1  0  0  0
 41118  1  0  0  0
 41119  1  0  0  0
 41 48  1  0  0  0
 42 43  1  0  0  0
 42 66  1  0  0  0
 42120  1  0  0  0
 42121  1  0  0  0
 43 44  1  0  0  0
 44122  1  0  0  0
 45 46  2  0  0  0
 45123  1  0  0  0
 46124  1  0  0  0
 47125  1  0  0  0
 47126  1  0  0  0
 48 56  1  0  0  0
 48 65  1  0  0  0
 48127  1  0  0  0
 49 50  1  0  0  0
 49 53  1  0  0  0
 49 64  1  0  0  0
 49128  1  0  0  0
 50 51  1  0  0  0
 50129  1  0  0  0
 50130  1  0  0  0
 51 52  1  0  0  0
 51131  1  0  0  0
 51132  1  0  0  0
 52133  1  0  0  0
 52134  1  0  0  0
 53 54  1  0  0  0
 54 55  2  0  0  0
 54135  1  0  0  0
 55 57  1  0  0  0
 55136  1  0  0  0
 56 69  2  0  0  0
 57 58  2  0  0  0
 57137  1  0  0  0
 58138  1  0  0  0
 59 60  1  0  0  0
 59 61  1  0  0  0
 59 62  1  0  0  0
 60139  1  0  0  0
 60140  1  0  0  0
 60141  1  0  0  0
 61142  1  0  0  0
 61143  1  0  0  0
 61144  1  0  0  0
 62145  1  0  0  0
 62146  1  0  0  0
 62147  1  0  0  0
 63 65  1  0  0  0
 63148  1  0  0  0
 63149  1  0  0  0
 63150  1  0  0  0
 64151  1  0  0  0
 65152  1  0  0  0
 68 87  1  0  0  0
 71 72  2  0  0  0
 71 74  1  0  0  0
 71153  1  0  0  0
 72 75  1  0  0  0
 72 83  1  0  0  0
 73 74  2  0  0  0
 73 76  1  0  0  0
 73 84  1  0  0  0
 74 91  1  0  0  0
 75 76  2  0  0  0
 75 92  1  0  0  0
 76 93  1  0  0  0
 77 78  1  0  0  0
 77 79  1  0  0  0
 77154  1  0  0  0
 77155  1  0  0  0
 78 80  1  0  0  0
 78156  1  0  0  0
 78157  1  0  0  0
 79 81  1  0  0  0
 79158  1  0  0  0
 79159  1  0  0  0
 80 81  1  0  0  0
 80160  1  0  0  0
 80161  1  0  0  0
 81 89  1  0  0  0
 81162  1  0  0  0
 82163  1  0  0  0
 82164  1  0  0  0
 82165  1  0  0  0
 82 88  1  0  0  0
 83 88  1  0  0  0
 83166  1  0  0  0
 83167  1  0  0  0
 84 90  1  0  0  0
 84168  1  0  0  0
 84169  1  0  0  0
 85 86  1  0  0  0
 85 87  1  0  0  0
 85170  1  0  0  0
 85171  1  0  0  0
 86 90  1  0  0  0
 86172  1  0  0  0
 86173  1  0  0  0
 87174  1  0  0  0
 87175  1  0  0  0
 88 89  1  0  0  0
 88176  1  0  0  0
 90177  1  0  0  0
 90178  1  0  0  0
M  CHG  1  90   1
M  ISO  4   1 100  68 101  87 101  89 100
M  END
> <chiral flag>
0

> <version>
0

> <s_m_source_file>
/data/baiqing/PycharmProjects/Reinvent-master-3.2/result/LINK_invent/BTK/process_docking_weight1_custom_sum_contain_oxygen_bond_distance_aromatic_linkinvent_7_9_3/rearranged_h_0020.sdf

> <i_m_source_file_index>
47

> <r_mmod_Potential_Energy-OPLS-2005>
117.391082763672

> <r_mmod_Stretch_Energy-OPLS-2005>
55.4382934570312

> <r_mmod_Bend_Energy-OPLS-2005>
145.329025268555

> <r_mmod_Torsional_Energy-OPLS-2005>
386.922821044922

> <r_mmod_Improper_Torsional_Energy-OPLS-2005>
4.21020793914795

> <r_mmod_Van_der_Waal_Energy-OPLS-2005>
157.690155029297

> <r_mmod_Electrostatic_Energy-OPLS-2005>
-198.804595947266

> <r_mmod_Solvation_Energy-OPLS-2005>
-451.145111083984

> <b_mmod_Minimization_Converged-OPLS-2005>
0

> <r_mmod_RMS_Derivative-OPLS-2005>
7.01805400848389

$$$$
47
                    3D
 Structure written by MMmdl.
156164  0  0  1  0            999 V2000
  -30.5470  -14.9546   20.4346 C   0  0  0  0  0  0
  -30.4360  -12.5948   19.4969 C   0  0  0  0  0  0
  -29.5170  -12.5290   18.2558 C   0  0  0  0  0  0
  -28.0521  -12.3125   18.6777 C   0  0  0  0  0  0
  -27.6273  -13.2491   19.8386 C   0  0  2  0  0  0
  -28.6700  -13.2853   20.9760 C   0  0  0  0  0  0
  -25.2446  -13.8217   20.5718 C   0  0  0  0  0  0
  -24.1767  -13.0437   20.9240 C   0  0  0  0  0  0
  -24.6388  -11.6925   20.8764 C   0  0  0  0  0  0
  -23.9076  -10.4294   21.0413 C   0  0  0  0  0  0
  -24.3626   -9.4205   21.9188 C   0  0  0  0  0  0
  -23.6297   -8.2241   22.0754 C   0  0  0  0  0  0
  -22.4280   -8.0284   21.3543 C   0  0  0  0  0  0
  -21.9921   -9.0257   20.4643 C   0  0  0  0  0  0
  -22.7251  -10.2136   20.3055 C   0  0  0  0  0  0
  -21.6855   -6.0737   22.5277 C   0  0  0  0  0  0
  -21.4013   -6.5638   23.8210 C   0  0  0  0  0  0
  -21.3656   -5.6791   24.9172 C   0  0  0  0  0  0
  -21.6045   -4.3054   24.7224 C   0  0  0  0  0  0
  -21.8820   -3.8146   23.4343 C   0  0  0  0  0  0
  -21.9194   -4.6965   22.3399 C   0  0  0  0  0  0
  -22.7787  -13.5206   21.1893 C   0  0  0  0  0  0
  -22.1663   -4.2150   21.0978 F   0  0  0  0  0  0
  -21.5629   -3.4537   25.7735 F   0  0  0  0  0  0
  -29.9429  -13.6983   20.3722 N   0  0  0  0  0  0
  -26.2871  -12.9453   20.3256 N   0  0  0  0  0  0
  -25.9321  -11.6582   20.5754 N   0  0  0  0  0  0
  -22.0443  -12.8187   22.0449 N   0  0  0  0  0  0
  -25.4096  -15.1944   20.4121 N   0  0  0  0  0  0
  -31.7463  -15.0005   20.1409 O   0  0  0  0  0  0
  -21.6641   -6.8881   21.4239 O   0  0  0  0  0  0
  -22.3468  -14.5512   20.6742 O   0  0  0  0  0  0
  -24.6444  -31.8426   23.1876 C   0  0  0  0  0  0
  -25.9214  -32.4685   23.8267 C   0  0  1  0  0  0
  -27.2148  -27.1237   20.1530 C   0  0  0  0  0  0
  -25.5950  -33.8490   24.2182 N   0  0  0  0  0  0
  -23.4485  -30.4618   21.5330 C   0  0  2  0  0  0
  -24.8979  -28.8862   20.1089 C   0  0  0  0  0  0
  -22.7573  -29.4540   22.4855 C   0  0  0  0  0  0
  -18.0307  -28.1399   22.8477 C   0  0  0  0  0  0
  -24.1483  -36.7247   23.2645 C   0  0  0  0  0  0
  -26.0046  -30.7124   21.3880 C   0  0  0  0  0  0
  -26.0755  -29.3224   20.7294 C   0  0  0  0  0  0
  -27.2348  -28.4575   20.7336 C   0  0  0  0  0  0
  -26.0119  -26.7923   19.4912 C   0  0  0  0  0  0
  -24.8797  -27.6355   19.4740 C   0  0  0  0  0  0
  -23.6752  -29.7899   20.1524 C   0  0  0  0  0  0
  -25.4118  -36.3025   24.0314 C   0  0  1  0  0  0
  -20.5919  -28.3726   23.1230 C   0  0  2  0  0  0
  -20.6790  -26.9427   22.5403 C   0  0  0  0  0  0
  -19.5763  -26.6386   21.5211 C   0  0  0  0  0  0
  -18.1944  -26.7939   22.1622 C   0  0  0  0  0  0
  -19.1562  -28.8881   23.2845 C   0  0  0  0  0  0
  -18.9482  -30.1477   23.8871 C   0  0  0  0  0  0
  -17.6480  -30.6596   24.0561 C   0  0  0  0  0  0
  -25.9073  -34.9401   23.5061 C   0  0  0  0  0  0
  -16.5370  -29.9087   23.6343 C   0  0  0  0  0  0
  -16.7292  -28.6506   23.0362 C   0  0  0  0  0  0
  -26.4531  -31.6562   25.0719 C   0  0  0  0  0  0
  -25.3715  -31.3750   26.1415 C   0  0  0  0  0  0
  -27.0407  -30.2961   24.6312 C   0  0  0  0  0  0
  -27.6056  -32.4338   25.7507 C   0  0  0  0  0  0
  -27.5567  -37.1777   24.8466 C   0  0  0  0  0  0
  -21.4264  -29.3048   22.3599 N   0  0  0  0  0  0
  -26.4278  -37.3739   23.9410 N   0  0  0  0  0  0
  -24.7191  -31.0271   22.0913 N   0  0  0  0  0  0
  -23.4212  -28.8093   23.3011 O   0  0  0  0  0  0
  -28.2615  -26.1302   20.2339 O   0  0  0  0  0  0
  -26.5666  -34.8902   22.4646 O   0  0  0  0  0  0
  -23.5561  -32.1307   23.7090 O   0  0  0  0  0  0
  -31.4728  -19.3240   21.9521 C   0  0  0  0  0  0
  -30.7448  -20.4413   21.4846 C   0  0  0  0  0  0
  -29.5814  -20.2847   20.6785 C   0  0  0  0  0  0
  -29.2879  -18.8418   20.3622 C   0  0  0  0  0  0
  -30.0743  -17.6424   20.8126 C   0  0  0  0  0  0
  -31.1542  -17.9827   21.6704 C   0  0  0  0  0  0
  -31.2693  -21.7943   21.9317 C   0  0  0  0  0  0
  -28.0704  -18.5574   19.5001 C   0  0  0  0  0  0
  -28.6861  -21.6275   20.2214 C   0  0  0  0  0  0
  -28.9865  -23.2944   20.4584 C   0  0  0  0  0  0
  -27.9902  -24.6003   20.0478 C   0  0  0  0  0  0
  -29.7672  -16.1464   20.5669 N   0  0  0  0  0  0
  -32.0924  -16.8063   22.5262 Cl  0  0  0  0  0  0
  -31.4692  -12.7499   19.1825 H   0  0  0  0  0  0
  -30.4296  -11.6458   20.0354 H   0  0  0  0  0  0
  -29.8366  -11.7274   17.5886 H   0  0  0  0  0  0
  -29.6021  -13.4560   17.6863 H   0  0  0  0  0  0
  -27.9533  -11.2728   18.9921 H   0  0  0  0  0  0
  -27.3860  -12.4368   17.8232 H   0  0  0  0  0  0
  -27.5880  -14.2489   19.4055 H   0  0  0  0  0  0
  -28.7594  -12.3129   21.4622 H   0  0  0  0  0  0
  -28.3685  -13.9929   21.7504 H   0  0  0  0  0  0
  -25.2768   -9.5681   22.4769 H   0  0  0  0  0  0
  -24.0004   -7.4631   22.7473 H   0  0  0  0  0  0
  -21.0853   -8.8778   19.8946 H   0  0  0  0  0  0
  -22.3711  -10.9676   19.6167 H   0  0  0  0  0  0
  -21.2003   -7.6146   23.9713 H   0  0  0  0  0  0
  -21.1478   -6.0520   25.9076 H   0  0  0  0  0  0
  -22.0602   -2.7609   23.2843 H   0  0  0  0  0  0
  -22.4068  -11.9845   22.4820 H   0  0  0  0  0  0
  -21.1060  -13.1200   22.2663 H   0  0  0  0  0  0
  -24.6355  -15.8415   20.5161 H   0  0  0  0  0  0
  -26.2434  -15.6326   20.0462 H   0  0  0  0  0  0
  -26.7280  -32.5288   23.0993 H   0  0  0  0  0  0
  -25.0044  -33.9597   25.0293 H   0  0  0  0  0  0
  -22.7516  -31.2881   21.3781 H   0  0  0  0  0  0
  -23.3752  -35.9571   23.3292 H   0  0  0  0  0  0
  -24.3563  -36.8905   22.2064 H   0  0  0  0  0  0
  -23.7231  -37.6432   23.6699 H   0  0  0  0  0  0
  -26.1613  -31.4661   20.6152 H   0  0  0  0  0  0
  -26.8745  -30.7633   22.0311 H   0  0  0  0  0  0
  -28.1305  -28.7839   21.2435 H   0  0  0  0  0  0
  -25.9120  -25.8355   19.0013 H   0  0  0  0  0  0
  -23.9806  -27.2968   18.9776 H   0  0  0  0  0  0
  -23.8126  -30.5639   19.3965 H   0  0  0  0  0  0
  -22.7893  -29.2324   19.8429 H   0  0  0  0  0  0
  -25.1307  -36.1847   25.0806 H   0  0  0  0  0  0
  -21.0007  -28.3325   24.1351 H   0  0  0  0  0  0
  -20.5684  -26.2341   23.3625 H   0  0  0  0  0  0
  -21.6656  -26.7433   22.1199 H   0  0  0  0  0  0
  -19.6918  -25.6289   21.1258 H   0  0  0  0  0  0
  -19.6700  -27.3183   20.6731 H   0  0  0  0  0  0
  -17.4212  -26.6688   21.4027 H   0  0  0  0  0  0
  -18.0337  -26.0087   22.9021 H   0  0  0  0  0  0
  -19.7957  -30.7297   24.2230 H   0  0  0  0  0  0
  -17.5036  -31.6272   24.5168 H   0  0  0  0  0  0
  -15.5369  -30.2981   23.7686 H   0  0  0  0  0  0
  -15.8691  -28.0818   22.7093 H   0  0  0  0  0  0
  -24.5905  -30.7085   25.7737 H   0  0  0  0  0  0
  -24.8887  -32.2926   26.4786 H   0  0  0  0  0  0
  -25.8003  -30.8963   27.0231 H   0  0  0  0  0  0
  -26.3035  -29.6671   24.1313 H   0  0  0  0  0  0
  -27.4011  -29.7278   25.4898 H   0  0  0  0  0  0
  -27.8944  -30.4200   23.9647 H   0  0  0  0  0  0
  -27.2655  -33.3679   26.1994 H   0  0  0  0  0  0
  -28.3915  -32.6838   25.0366 H   0  0  0  0  0  0
  -28.0668  -31.8520   26.5499 H   0  0  0  0  0  0
  -28.2578  -38.0080   24.7517 H   0  0  0  0  0  0
  -28.1072  -36.2610   24.6292 H   0  0  0  0  0  0
  -27.2284  -37.1424   25.8869 H   0  0  0  0  0  0
  -20.9479  -29.8754   21.6767 H   0  0  0  0  0  0
  -26.0144  -38.2803   24.1429 H   0  0  0  0  0  0
  -32.3186  -19.4928   22.6035 H   0  0  0  0  0  0
  -32.2143  -21.7022   22.4678 H   0  0  0  0  0  0
  -30.5739  -22.2707   22.6203 H   0  0  0  0  0  0
  -31.4721  -22.4413   21.0815 H   0  0  0  0  0  0
  -27.3254  -19.3485   19.5723 H   0  0  0  0  0  0
  -27.5808  -17.6328   19.8036 H   0  0  0  0  0  0
  -28.3648  -18.4602   18.4549 H   0  0  0  0  0  0
  -27.7017  -21.4520   20.6560 H   0  0  0  0  0  0
  -28.5335  -21.5061   19.1488 H   0  0  0  0  0  0
  -29.9366  -23.5092   19.9723 H   0  0  0  0  0  0
  -29.1526  -23.4351   21.5230 H   0  0  0  0  0  0
  -27.0447  -24.4087   20.5567 H   0  0  0  0  0  0
  -27.7685  -24.4762   18.9874 H   0  0  0  0  0  0
  -28.7808  -15.9460   20.5392 H   0  0  0  0  0  0
  1 25  1  0  0  0
  1 30  2  0  0  0
  1 82  1  0  0  0
  2  3  1  0  0  0
  2 25  1  0  0  0
  2 84  1  0  0  0
  2 85  1  0  0  0
  3  4  1  0  0  0
  3 86  1  0  0  0
  3 87  1  0  0  0
  4  5  1  0  0  0
  4 88  1  0  0  0
  4 89  1  0  0  0
  5  6  1  0  0  0
  5 26  1  0  0  0
  5 90  1  0  0  0
  6 25  1  0  0  0
  6 91  1  0  0  0
  6 92  1  0  0  0
  7  8  2  0  0  0
  7 26  1  0  0  0
  7 29  1  0  0  0
  8  9  1  0  0  0
  8 22  1  0  0  0
  9 10  1  0  0  0
  9 27  2  0  0  0
 10 11  2  0  0  0
 10 15  1  0  0  0
 11 12  1  0  0  0
 11 93  1  0  0  0
 12 13  2  0  0  0
 12 94  1  0  0  0
 13 14  1  0  0  0
 13 31  1  0  0  0
 14 15  2  0  0  0
 14 95  1  0  0  0
 15 96  1  0  0  0
 16 17  2  0  0  0
 16 21  1  0  0  0
 16 31  1  0  0  0
 17 18  1  0  0  0
 17 97  1  0  0  0
 18 19  2  0  0  0
 18 98  1  0  0  0
 19 20  1  0  0  0
 19 24  1  0  0  0
 20 21  2  0  0  0
 20 99  1  0  0  0
 21 23  1  0  0  0
 22 28  1  0  0  0
 22 32  2  0  0  0
 26 27  1  0  0  0
 28100  1  0  0  0
 28101  1  0  0  0
 29102  1  0  0  0
 29103  1  0  0  0
 33 34  1  0  0  0
 33 66  1  0  0  0
 33 70  2  0  0  0
 34 36  1  0  0  0
 34 59  1  0  0  0
 34104  1  0  0  0
 35 44  2  0  0  0
 35 45  1  0  0  0
 35 68  1  0  0  0
 36 56  1  0  0  0
 36105  1  0  0  0
 37 39  1  0  0  0
 37 47  1  0  0  0
 37 66  1  0  0  0
 37106  1  0  0  0
 38 43  2  0  0  0
 38 46  1  0  0  0
 38 47  1  0  0  0
 39 64  1  0  0  0
 39 67  2  0  0  0
 40 52  1  0  0  0
 40 53  2  0  0  0
 40 58  1  0  0  0
 41107  1  0  0  0
 41108  1  0  0  0
 41109  1  0  0  0
 41 48  1  0  0  0
 42 43  1  0  0  0
 42 66  1  0  0  0
 42110  1  0  0  0
 42111  1  0  0  0
 43 44  1  0  0  0
 44112  1  0  0  0
 45 46  2  0  0  0
 45113  1  0  0  0
 46114  1  0  0  0
 47115  1  0  0  0
 47116  1  0  0  0
 48 56  1  0  0  0
 48 65  1  0  0  0
 48117  1  0  0  0
 49 50  1  0  0  0
 49 53  1  0  0  0
 49 64  1  0  0  0
 49118  1  0  0  0
 50 51  1  0  0  0
 50119  1  0  0  0
 50120  1  0  0  0
 51 52  1  0  0  0
 51121  1  0  0  0
 51122  1  0  0  0
 52123  1  0  0  0
 52124  1  0  0  0
 53 54  1  0  0  0
 54 55  2  0  0  0
 54125  1  0  0  0
 55 57  1  0  0  0
 55126  1  0  0  0
 56 69  2  0  0  0
 57 58  2  0  0  0
 57127  1  0  0  0
 58128  1  0  0  0
 59 60  1  0  0  0
 59 61  1  0  0  0
 59 62  1  0  0  0
 60129  1  0  0  0
 60130  1  0  0  0
 60131  1  0  0  0
 61132  1  0  0  0
 61133  1  0  0  0
 61134  1  0  0  0
 62135  1  0  0  0
 62136  1  0  0  0
 62137  1  0  0  0
 63 65  1  0  0  0
 63138  1  0  0  0
 63139  1  0  0  0
 63140  1  0  0  0
 64141  1  0  0  0
 65142  1  0  0  0
 68 81  1  0  0  0
 71 72  2  0  0  0
 71 76  1  0  0  0
 71143  1  0  0  0
 72 73  1  0  0  0
 72 77  1  0  0  0
 73 74  2  0  0  0
 73 79  1  0  0  0
 74 75  1  0  0  0
 74 78  1  0  0  0
 75 76  2  0  0  0
 75 82  1  0  0  0
 76 83  1  0  0  0
 77144  1  0  0  0
 77145  1  0  0  0
 77146  1  0  0  0
 78147  1  0  0  0
 78148  1  0  0  0
 78149  1  0  0  0
 79 80  1  0  0  0
 79150  1  0  0  0
 79151  1  0  0  0
 80 81  1  0  0  0
 80152  1  0  0  0
 80153  1  0  0  0
 81154  1  0  0  0
 81155  1  0  0  0
 82156  1  0  0  0
M  ISO  4   1 100  68 101  81 101  82 100
M  END
> <chiral flag>
0

> <version>
0

> <s_m_source_file>
/data/baiqing/PycharmProjects/Reinvent-master-3.2/result/LINK_invent/BTK/process_docking_weight1_custom_sum_contain_oxygen_bond_distance_aromatic_linkinvent_7_9_3/rearranged_h_0020.sdf

> <i_m_source_file_index>
48

> <r_mmod_Potential_Energy-OPLS-2005>
517.173095703125

> <r_mmod_Stretch_Energy-OPLS-2005>
294.602081298828

> <r_mmod_Bend_Energy-OPLS-2005>
260.608764648438

> <r_mmod_Torsional_Energy-OPLS-2005>
220.234481811523

> <r_mmod_Improper_Torsional_Energy-OPLS-2005>
6.64576816558838

> <r_mmod_Van_der_Waal_Energy-OPLS-2005>
143.923110961914

> <r_mmod_Electrostatic_Energy-OPLS-2005>
-400.182189941406

> <r_mmod_Solvation_Energy-OPLS-2005>
-208.420959472656

> <b_mmod_Minimization_Converged-OPLS-2005>
0

> <r_mmod_RMS_Derivative-OPLS-2005>
0.54266232252121

$$$$
48
                    3D
 Structure written by MMmdl.
183191  0  0  1  0            999 V2000
  -30.6050  -14.7131   20.4558 C   0  0  0  0  0  0
  -30.4303  -12.4280   19.4843 C   0  0  0  0  0  0
  -29.5118  -12.5066   18.2441 C   0  0  0  0  0  0
  -28.0373  -12.3318   18.6544 C   0  0  0  0  0  0
  -27.6459  -13.2267   19.8600 C   0  0  2  0  0  0
  -28.6867  -13.1412   21.0000 C   0  0  0  0  0  0
  -25.2512  -13.8186   20.5687 C   0  0  0  0  0  0
  -24.1802  -13.0446   20.9202 C   0  0  0  0  0  0
  -24.6386  -11.6918   20.8755 C   0  0  0  0  0  0
  -23.9067  -10.4296   21.0419 C   0  0  0  0  0  0
  -24.3619   -9.4208   21.9193 C   0  0  0  0  0  0
  -23.6294   -8.2243   22.0757 C   0  0  0  0  0  0
  -22.4275   -8.0283   21.3548 C   0  0  0  0  0  0
  -21.9914   -9.0258   20.4650 C   0  0  0  0  0  0
  -22.7242  -10.2139   20.3063 C   0  0  0  0  0  0
  -21.6852   -6.0740   22.5281 C   0  0  0  0  0  0
  -21.4012   -6.5644   23.8215 C   0  0  0  0  0  0
  -21.3653   -5.6796   24.9179 C   0  0  0  0  0  0
  -21.6047   -4.3060   24.7228 C   0  0  0  0  0  0
  -21.8816   -3.8151   23.4349 C   0  0  0  0  0  0
  -21.9190   -4.6969   22.3406 C   0  0  0  0  0  0
  -22.7823  -13.5226   21.1867 C   0  0  0  0  0  0
  -22.1659   -4.2155   21.0986 F   0  0  0  0  0  0
  -21.5627   -3.4545   25.7741 F   0  0  0  0  0  0
  -29.9964  -13.4808   20.4308 N   0  0  0  0  0  0
  -26.2948  -12.9390   20.3311 N   0  0  0  0  0  0
  -25.9317  -11.6538   20.5777 N   0  0  0  0  0  0
  -22.0468  -12.8218   22.0423 N   0  0  0  0  0  0
  -25.4209  -15.1911   20.4079 N   0  0  0  0  0  0
  -31.7712  -14.8372   20.0725 O   0  0  0  0  0  0
  -21.6638   -6.8882   21.4244 O   0  0  0  0  0  0
  -22.3512  -14.5537   20.6716 O   0  0  0  0  0  0
  -24.6264  -31.8561   23.1967 C   0  0  0  0  0  0
  -25.9087  -32.4752   23.8328 C   0  0  1  0  0  0
  -27.2278  -27.2874   20.1185 C   0  0  0  0  0  0
  -25.5885  -33.8558   24.2254 N   0  0  0  0  0  0
  -23.4251  -30.4743   21.5380 C   0  0  2  0  0  0
  -24.8737  -28.9215   20.1065 C   0  0  0  0  0  0
  -22.7488  -29.4583   22.4895 C   0  0  0  0  0  0
  -18.0282  -28.1379   22.8487 C   0  0  0  0  0  0
  -24.1484  -36.7296   23.2643 C   0  0  0  0  0  0
  -25.9657  -30.7747   21.3736 C   0  0  0  0  0  0
  -26.0385  -29.3975   20.7184 C   0  0  0  0  0  0
  -27.2134  -28.5881   20.7200 C   0  0  0  0  0  0
  -26.0402  -26.8628   19.4854 C   0  0  0  0  0  0
  -24.8778  -27.6621   19.4826 C   0  0  0  0  0  0
  -23.6428  -29.8064   20.1533 C   0  0  0  0  0  0
  -25.4105  -36.3063   24.0328 C   0  0  1  0  0  0
  -20.5878  -28.3677   23.1278 C   0  0  2  0  0  0
  -20.6764  -26.9398   22.5408 C   0  0  0  0  0  0
  -19.5740  -26.6379   21.5203 C   0  0  0  0  0  0
  -18.1924  -26.7926   22.1621 C   0  0  0  0  0  0
  -19.1536  -28.8844   23.2883 C   0  0  0  0  0  0
  -18.9463  -30.1442   23.8908 C   0  0  0  0  0  0
  -17.6467  -30.6592   24.0547 C   0  0  0  0  0  0
  -25.9041  -34.9434   23.5094 C   0  0  0  0  0  0
  -16.5349  -29.9088   23.6324 C   0  0  0  0  0  0
  -16.7271  -28.6499   23.0355 C   0  0  0  0  0  0
  -26.4476  -31.6572   25.0709 C   0  0  0  0  0  0
  -25.3701  -31.3714   26.1434 C   0  0  0  0  0  0
  -27.0315  -30.2989   24.6176 C   0  0  0  0  0  0
  -27.6045  -32.4311   25.7469 C   0  0  0  0  0  0
  -27.5578  -37.1794   24.8461 C   0  0  0  0  0  0
  -21.4189  -29.3032   22.3671 N   0  0  0  0  0  0
  -26.4284  -37.3759   23.9414 N   0  0  0  0  0  0
  -24.6911  -31.0535   22.0931 N   0  0  0  0  0  0
  -23.4197  -28.8135   23.2998 O   0  0  0  0  0  0
  -28.3542  -26.4514   20.2074 O   0  0  0  0  0  0
  -26.5636  -34.8899   22.4678 O   0  0  0  0  0  0
  -23.5412  -32.1376   23.7258 O   0  0  0  0  0  0
  -28.9155  -21.1488   20.2997 C   0  0  0  0  0  0
  -29.6749  -19.9768   19.8997 C   0  0  0  0  0  0
  -28.7498  -22.3394   19.4787 C   0  0  0  0  0  0
  -30.4497  -20.1681   18.7294 C   0  0  0  0  0  0
  -29.1482  -22.1867   18.1125 C   0  0  0  0  0  0
  -30.0734  -21.1538   17.7818 C   0  0  0  0  0  0
  -27.7910  -22.2710   15.9336 C   0  0  0  0  0  0
  -29.5387  -24.0850   16.3895 C   0  0  0  0  0  0
  -36.1488  -21.0903   20.4003 C   0  0  0  0  0  0
  -35.4203  -22.0717   18.2158 C   0  0  0  0  0  0
  -34.0955  -22.5148   20.3193 C   0  0  0  0  0  0
  -29.7483  -18.6043   20.7294 C   0  0  0  0  0  0
  -28.1002  -23.6958   20.0524 C   0  0  0  0  0  0
  -31.7941  -19.4627   18.5462 C   0  0  0  0  0  0
  -29.8969  -17.1780   19.9542 C   0  0  0  0  0  0
  -34.0897  -20.1831   19.2900 C   0  0  0  0  0  0
  -28.5171  -25.1602   19.4837 C   0  0  0  0  0  0
  -28.5488  -23.0755   17.0075 C   0  0  0  0  0  0
  -34.9249  -21.4647   19.5450 C   0  0  0  0  0  0
  -29.8107  -15.8276   20.6631 N   0  0  0  0  0  0
  -32.8485  -20.4965   18.5577 N   0  3  0  0  0  0
  -30.8426  -21.0938   16.2250 Cl  0  0  0  0  0  0
  -31.4750  -12.5404   19.1895 H   0  0  0  0  0  0
  -30.3597  -11.4468   19.9562 H   0  0  0  0  0  0
  -29.7908  -11.7424   17.5176 H   0  0  0  0  0  0
  -29.6428  -13.4679   17.7445 H   0  0  0  0  0  0
  -27.8936  -11.2824   18.9151 H   0  0  0  0  0  0
  -27.3791  -12.5271   17.8066 H   0  0  0  0  0  0
  -27.6473  -14.2511   19.4860 H   0  0  0  0  0  0
  -28.7099  -12.1396   21.4317 H   0  0  0  0  0  0
  -28.4255  -13.8173   21.8155 H   0  0  0  0  0  0
  -25.2759   -9.5689   22.4771 H   0  0  0  0  0  0
  -24.0003   -7.4637   22.7477 H   0  0  0  0  0  0
  -21.0843   -8.8779   19.8957 H   0  0  0  0  0  0
  -22.3698  -10.9680   19.6177 H   0  0  0  0  0  0
  -21.2006   -7.6152   23.9722 H   0  0  0  0  0  0
  -21.1474   -6.0529   25.9082 H   0  0  0  0  0  0
  -22.0600   -2.7617   23.2851 H   0  0  0  0  0  0
  -22.4074  -11.9870   22.4798 H   0  0  0  0  0  0
  -21.1094  -13.1255   22.2647 H   0  0  0  0  0  0
  -24.6496  -15.8425   20.5028 H   0  0  0  0  0  0
  -26.2676  -15.6290   20.0689 H   0  0  0  0  0  0
  -26.7164  -32.5420   23.1081 H   0  0  0  0  0  0
  -24.9951  -33.9705   25.0340 H   0  0  0  0  0  0
  -22.7189  -31.2942   21.3912 H   0  0  0  0  0  0
  -23.3733  -35.9644   23.3287 H   0  0  0  0  0  0
  -24.3567  -36.8942   22.2059 H   0  0  0  0  0  0
  -23.7258  -37.6495   23.6686 H   0  0  0  0  0  0
  -26.0950  -31.5331   20.6002 H   0  0  0  0  0  0
  -26.8454  -30.8286   22.0028 H   0  0  0  0  0  0
  -28.1052  -28.9441   21.2172 H   0  0  0  0  0  0
  -25.9847  -25.8913   19.0169 H   0  0  0  0  0  0
  -23.9807  -27.2946   19.0043 H   0  0  0  0  0  0
  -23.7646  -30.5805   19.3943 H   0  0  0  0  0  0
  -22.7626  -29.2358   19.8543 H   0  0  0  0  0  0
  -25.1285  -36.1905   25.0825 H   0  0  0  0  0  0
  -20.9987  -28.3251   24.1385 H   0  0  0  0  0  0
  -20.5642  -26.2292   23.3606 H   0  0  0  0  0  0
  -21.6640  -26.7406   22.1216 H   0  0  0  0  0  0
  -19.6891  -25.6290   21.1236 H   0  0  0  0  0  0
  -19.6681  -27.3185   20.6727 H   0  0  0  0  0  0
  -17.4193  -26.6654   21.4030 H   0  0  0  0  0  0
  -18.0332  -26.0072   22.9022 H   0  0  0  0  0  0
  -19.7934  -30.7240   24.2317 H   0  0  0  0  0  0
  -17.5015  -31.6281   24.5130 H   0  0  0  0  0  0
  -15.5350  -30.2987   23.7655 H   0  0  0  0  0  0
  -15.8663  -28.0817   22.7081 H   0  0  0  0  0  0
  -24.5895  -30.7037   25.7756 H   0  0  0  0  0  0
  -24.8861  -32.2875   26.4830 H   0  0  0  0  0  0
  -25.8030  -30.8914   27.0220 H   0  0  0  0  0  0
  -26.2883  -29.6728   24.1223 H   0  0  0  0  0  0
  -27.4019  -29.7259   25.4680 H   0  0  0  0  0  0
  -27.8749  -30.4265   23.9393 H   0  0  0  0  0  0
  -27.2690  -33.3646   26.2007 H   0  0  0  0  0  0
  -28.3880  -32.6816   25.0304 H   0  0  0  0  0  0
  -28.0682  -31.8450   26.5409 H   0  0  0  0  0  0
  -28.2583  -38.0098   24.7510 H   0  0  0  0  0  0
  -28.1094  -36.2631   24.6294 H   0  0  0  0  0  0
  -27.2299  -37.1450   25.8863 H   0  0  0  0  0  0
  -20.9356  -29.8780   21.6906 H   0  0  0  0  0  0
  -26.0154  -38.2829   24.1412 H   0  0  0  0  0  0
  -28.4555  -21.1424   21.2788 H   0  0  0  0  0  0
  -27.0437  -21.6240   16.3932 H   0  0  0  0  0  0
  -28.4339  -21.6425   15.3212 H   0  0  0  0  0  0
  -27.2633  -22.9408   15.2550 H   0  0  0  0  0  0
  -30.0740  -24.6511   17.1494 H   0  0  0  0  0  0
  -29.0108  -24.8008   15.7594 H   0  0  0  0  0  0
  -30.2873  -23.6137   15.7561 H   0  0  0  0  0  0
  -36.7674  -21.9620   20.6176 H   0  0  0  0  0  0
  -36.7810  -20.3587   19.8959 H   0  0  0  0  0  0
  -35.8504  -20.6587   21.3569 H   0  0  0  0  0  0
  -36.0548  -22.9415   18.3905 H   0  0  0  0  0  0
  -34.5999  -22.4050   17.5795 H   0  0  0  0  0  0
  -36.0083  -21.3523   17.6440 H   0  0  0  0  0  0
  -34.6930  -23.3983   20.5489 H   0  0  0  0  0  0
  -33.7329  -22.1181   21.2691 H   0  0  0  0  0  0
  -33.2285  -22.8656   19.7584 H   0  0  0  0  0  0
  -28.8416  -18.5610   21.3331 H   0  0  0  0  0  0
  -30.5635  -18.7009   21.4481 H   0  0  0  0  0  0
  -28.3245  -23.7012   21.1185 H   0  0  0  0  0  0
  -27.0155  -23.6011   19.9913 H   0  0  0  0  0  0
  -31.8265  -18.8624   17.6358 H   0  0  0  0  0  0
  -32.0021  -18.8072   19.3854 H   0  0  0  0  0  0
  -30.8105  -17.1397   19.3703 H   0  0  0  0  0  0
  -29.1074  -17.1511   19.2032 H   0  0  0  0  0  0
  -33.8369  -19.7309   20.2512 H   0  0  0  0  0  0
  -34.6636  -19.4368   18.7380 H   0  0  0  0  0  0
  -28.1216  -25.3391   18.4891 H   0  0  0  0  0  0
  -29.5967  -25.1038   19.3450 H   0  0  0  0  0  0
  -27.7325  -23.6303   17.4549 H   0  0  0  0  0  0
  -28.9060  -15.6170   21.0597 H   0  0  0  0  0  0
  -32.4518  -21.2947   19.0266 H   0  0  0  0  0  0
  -33.0493  -20.7687   17.6073 H   0  0  0  0  0  0
  1 25  1  0  0  0
  1 30  2  0  0  0
  1 90  1  0  0  0
  2  3  1  0  0  0
  2 25  1  0  0  0
  2 93  1  0  0  0
  2 94  1  0  0  0
  3  4  1  0  0  0
  3 95  1  0  0  0
  3 96  1  0  0  0
  4  5  1  0  0  0
  4 97  1  0  0  0
  4 98  1  0  0  0
  5  6  1  0  0  0
  5 26  1  0  0  0
  5 99  1  0  0  0
  6 25  1  0  0  0
  6100  1  0  0  0
  6101  1  0  0  0
  7  8  2  0  0  0
  7 26  1  0  0  0
  7 29  1  0  0  0
  8  9  1  0  0  0
  8 22  1  0  0  0
  9 10  1  0  0  0
  9 27  2  0  0  0
 10 11  2  0  0  0
 10 15  1  0  0  0
 11 12  1  0  0  0
 11102  1  0  0  0
 12 13  2  0  0  0
 12103  1  0  0  0
 13 14  1  0  0  0
 13 31  1  0  0  0
 14 15  2  0  0  0
 14104  1  0  0  0
 15105  1  0  0  0
 16 17  2  0  0  0
 16 21  1  0  0  0
 16 31  1  0  0  0
 17 18  1  0  0  0
 17106  1  0  0  0
 18 19  2  0  0  0
 18107  1  0  0  0
 19 20  1  0  0  0
 19 24  1  0  0  0
 20 21  2  0  0  0
 20108  1  0  0  0
 21 23  1  0  0  0
 22 28  1  0  0  0
 22 32  2  0  0  0
 26 27  1  0  0  0
 28109  1  0  0  0
 28110  1  0  0  0
 29111  1  0  0  0
 29112  1  0  0  0
 33 34  1  0  0  0
 33 66  1  0  0  0
 33 70  2  0  0  0
 34 36  1  0  0  0
 34 59  1  0  0  0
 34113  1  0  0  0
 35 44  2  0  0  0
 35 45  1  0  0  0
 35 68  1  0  0  0
 36 56  1  0  0  0
 36114  1  0  0  0
 37 39  1  0  0  0
 37 47  1  0  0  0
 37 66  1  0  0  0
 37115  1  0  0  0
 38 43  2  0  0  0
 38 46  1  0  0  0
 38 47  1  0  0  0
 39 64  1  0  0  0
 39 67  2  0  0  0
 40 52  1  0  0  0
 40 53  2  0  0  0
 40 58  1  0  0  0
 41116  1  0  0  0
 41117  1  0  0  0
 41118  1  0  0  0
 41 48  1  0  0  0
 42 43  1  0  0  0
 42 66  1  0  0  0
 42119  1  0  0  0
 42120  1  0  0  0
 43 44  1  0  0  0
 44121  1  0  0  0
 45 46  2  0  0  0
 45122  1  0  0  0
 46123  1  0  0  0
 47124  1  0  0  0
 47125  1  0  0  0
 48 56  1  0  0  0
 48 65  1  0  0  0
 48126  1  0  0  0
 49 50  1  0  0  0
 49 53  1  0  0  0
 49 64  1  0  0  0
 49127  1  0  0  0
 50 51  1  0  0  0
 50128  1  0  0  0
 50129  1  0  0  0
 51 52  1  0  0  0
 51130  1  0  0  0
 51131  1  0  0  0
 52132  1  0  0  0
 52133  1  0  0  0
 53 54  1  0  0  0
 54 55  2  0  0  0
 54134  1  0  0  0
 55 57  1  0  0  0
 55135  1  0  0  0
 56 69  2  0  0  0
 57 58  2  0  0  0
 57136  1  0  0  0
 58137  1  0  0  0
 59 60  1  0  0  0
 59 61  1  0  0  0
 59 62  1  0  0  0
 60138  1  0  0  0
 60139  1  0  0  0
 60140  1  0  0  0
 61141  1  0  0  0
 61142  1  0  0  0
 61143  1  0  0  0
 62144  1  0  0  0
 62145  1  0  0  0
 62146  1  0  0  0
 63 65  1  0  0  0
 63147  1  0  0  0
 63148  1  0  0  0
 63149  1  0  0  0
 64150  1  0  0  0
 65151  1  0  0  0
 68 87  1  0  0  0
 71 72  2  0  0  0
 71 73  1  0  0  0
 71152  1  0  0  0
 72 74  1  0  0  0
 72 82  1  0  0  0
 73 75  2  0  0  0
 73 83  1  0  0  0
 74 76  2  0  0  0
 74 84  1  0  0  0
 75 76  1  0  0  0
 75 88  1  0  0  0
 76 92  1  0  0  0
 77153  1  0  0  0
 77154  1  0  0  0
 77155  1  0  0  0
 77 88  1  0  0  0
 78 88  1  0  0  0
 78156  1  0  0  0
 78157  1  0  0  0
 78158  1  0  0  0
 79159  1  0  0  0
 79160  1  0  0  0
 79161  1  0  0  0
 79 89  1  0  0  0
 80 89  1  0  0  0
 80162  1  0  0  0
 80163  1  0  0  0
 80164  1  0  0  0
 81 89  1  0  0  0
 81165  1  0  0  0
 81166  1  0  0  0
 81167  1  0  0  0
 82 85  1  0  0  0
 82168  1  0  0  0
 82169  1  0  0  0
 83 87  1  0  0  0
 83170  1  0  0  0
 83171  1  0  0  0
 84 91  1  0  0  0
 84172  1  0  0  0
 84173  1  0  0  0
 85 90  1  0  0  0
 85174  1  0  0  0
 85175  1  0  0  0
 86 89  1  0  0  0
 86 91  1  0  0  0
 86176  1  0  0  0
 86177  1  0  0  0
 87178  1  0  0  0
 87179  1  0  0  0
 88180  1  0  0  0
 90181  1  0  0  0
 91182  1  0  0  0
 91183  1  0  0  0
M  CHG  1  91   1
M  ISO  4   1 100  68 101  87 101  90 100
M  END
> <chiral flag>
0

> <version>
0

> <s_m_source_file>
/data/baiqing/PycharmProjects/Reinvent-master-3.2/result/LINK_invent/BTK/process_docking_weight1_custom_sum_contain_oxygen_bond_distance_aromatic_linkinvent_7_9_3/rearranged_h_0020.sdf

> <i_m_source_file_index>
49

> <r_mmod_Potential_Energy-OPLS-2005>
83.1528091430664

> <r_mmod_Stretch_Energy-OPLS-2005>
128.175415039062

> <r_mmod_Bend_Energy-OPLS-2005>
194.411148071289

> <r_mmod_Torsional_Energy-OPLS-2005>
294.723236083984

> <r_mmod_Improper_Torsional_Energy-OPLS-2005>
8.78075218200684

> <r_mmod_Van_der_Waal_Energy-OPLS-2005>
157.879180908203

> <r_mmod_Electrostatic_Energy-OPLS-2005>
-356.749572753906

> <r_mmod_Solvation_Energy-OPLS-2005>
-414.430053710938

> <b_mmod_Minimization_Converged-OPLS-2005>
0

> <r_mmod_RMS_Derivative-OPLS-2005>
1.84220409393311

$$$$
49
                    3D
 Structure written by MMmdl.
157165  0  0  1  0            999 V2000
  -30.6223  -14.7544   20.4748 C   0  0  0  0  0  0
  -30.4381  -12.4661   19.4829 C   0  0  0  0  0  0
  -29.5173  -12.5145   18.2438 C   0  0  0  0  0  0
  -28.0443  -12.3373   18.6561 C   0  0  0  0  0  0
  -27.6460  -13.2356   19.8572 C   0  0  2  0  0  0
  -28.6912  -13.1767   20.9936 C   0  0  0  0  0  0
  -25.2505  -13.8174   20.5652 C   0  0  0  0  0  0
  -24.1813  -13.0430   20.9214 C   0  0  0  0  0  0
  -24.6419  -11.6911   20.8756 C   0  0  0  0  0  0
  -23.9087  -10.4289   21.0411 C   0  0  0  0  0  0
  -24.3628   -9.4208   21.9195 C   0  0  0  0  0  0
  -23.6295   -8.2250   22.0766 C   0  0  0  0  0  0
  -22.4283   -8.0281   21.3549 C   0  0  0  0  0  0
  -21.9929   -9.0261   20.4653 C   0  0  0  0  0  0
  -22.7262  -10.2136   20.3061 C   0  0  0  0  0  0
  -21.6859   -6.0728   22.5272 C   0  0  0  0  0  0
  -21.4015   -6.5635   23.8202 C   0  0  0  0  0  0
  -21.3649   -5.6791   24.9168 C   0  0  0  0  0  0
  -21.6047   -4.3057   24.7222 C   0  0  0  0  0  0
  -21.8823   -3.8146   23.4346 C   0  0  0  0  0  0
  -21.9200   -4.6961   22.3393 C   0  0  0  0  0  0
  -22.7835  -13.5218   21.1844 C   0  0  0  0  0  0
  -22.1668   -4.2144   21.0976 F   0  0  0  0  0  0
  -21.5624   -3.4538   25.7734 F   0  0  0  0  0  0
  -29.9949  -13.5288   20.4156 N   0  0  0  0  0  0
  -26.2965  -12.9409   20.3311 N   0  0  0  0  0  0
  -25.9362  -11.6545   20.5795 N   0  0  0  0  0  0
  -22.0460  -12.8212   22.0391 N   0  0  0  0  0  0
  -25.4113  -15.1873   20.3899 N   0  0  0  0  0  0
  -31.7981  -14.8328   20.1141 O   0  0  0  0  0  0
  -21.6645   -6.8879   21.4240 O   0  0  0  0  0  0
  -22.3521  -14.5519   20.6686 O   0  0  0  0  0  0
  -24.6291  -31.8567   23.1961 C   0  0  0  0  0  0
  -25.9140  -32.4760   23.8307 C   0  0  1  0  0  0
  -27.2232  -27.2681   20.1316 C   0  0  0  0  0  0
  -25.5965  -33.8565   24.2259 N   0  0  0  0  0  0
  -23.4254  -30.4737   21.5415 C   0  0  2  0  0  0
  -24.8734  -28.9178   20.1090 C   0  0  0  0  0  0
  -22.7487  -29.4580   22.4931 C   0  0  0  0  0  0
  -18.0282  -28.1352   22.8462 C   0  0  0  0  0  0
  -24.1487  -36.7253   23.2640 C   0  0  0  0  0  0
  -25.9669  -30.7714   21.3709 C   0  0  0  0  0  0
  -26.0416  -29.3929   20.7154 C   0  0  0  0  0  0
  -27.2164  -28.5793   20.7152 C   0  0  0  0  0  0
  -26.0292  -26.8481   19.5045 C   0  0  0  0  0  0
  -24.8722  -27.6555   19.4926 C   0  0  0  0  0  0
  -23.6428  -29.8028   20.1576 C   0  0  0  0  0  0
  -25.4118  -36.3066   24.0323 C   0  0  1  0  0  0
  -20.5883  -28.3687   23.1249 C   0  0  2  0  0  0
  -20.6767  -26.9404   22.5384 C   0  0  0  0  0  0
  -19.5757  -26.6372   21.5164 C   0  0  0  0  0  0
  -18.1934  -26.7894   22.1580 C   0  0  0  0  0  0
  -19.1533  -28.8826   23.2846 C   0  0  0  0  0  0
  -18.9468  -30.1416   23.8893 C   0  0  0  0  0  0
  -17.6477  -30.6572   24.0524 C   0  0  0  0  0  0
  -25.9063  -34.9443   23.5083 C   0  0  0  0  0  0
  -16.5364  -29.9063   23.6317 C   0  0  0  0  0  0
  -16.7268  -28.6471   23.0356 C   0  0  0  0  0  0
  -26.4532  -31.6580   25.0693 C   0  0  0  0  0  0
  -25.3750  -31.3692   26.1405 C   0  0  0  0  0  0
  -27.0394  -30.3017   24.6135 C   0  0  0  0  0  0
  -27.6090  -32.4328   25.7464 C   0  0  0  0  0  0
  -27.5575  -37.1789   24.8463 C   0  0  0  0  0  0
  -21.4201  -29.3034   22.3656 N   0  0  0  0  0  0
  -26.4288  -37.3768   23.9418 N   0  0  0  0  0  0
  -24.6930  -31.0509   22.0939 N   0  0  0  0  0  0
  -23.4175  -28.8122   23.3046 O   0  0  0  0  0  0
  -28.3522  -26.4263   20.2232 O   0  0  0  0  0  0
  -26.5616  -34.8914   22.4642 O   0  0  0  0  0  0
  -23.5452  -32.1421   23.7255 O   0  0  0  0  0  0
  -31.2616  -18.1026   20.4650 C   0  0  0  0  0  0
  -30.0465  -17.3570   20.6752 C   0  0  0  0  0  0
  -29.0336  -18.3091   20.8662 C   0  0  0  0  0  0
  -30.8876  -19.4317   20.4945 C   0  0  0  0  0  0
  -32.6802  -17.6053   20.3057 C   0  0  0  0  0  0
  -27.5975  -18.0708   21.2172 C   0  0  0  0  0  0
  -28.8786  -22.2708   20.0769 C   0  0  0  0  0  0
  -28.3457  -23.7089   20.6226 C   0  0  0  0  0  0
  -28.8670  -20.9885   21.0703 C   0  0  0  0  0  0
  -28.4410  -25.0275   19.6922 C   0  0  0  0  0  0
  -29.5404  -19.6420   20.7520 N   0  0  0  0  0  0
  -29.8511  -15.8748   20.7676 N   0  0  0  0  0  0
  -31.9643  -20.7711   20.3688 Cl  0  0  0  0  0  0
  -31.4795  -12.5894   19.1775 H   0  0  0  0  0  0
  -30.3854  -11.4924   19.9712 H   0  0  0  0  0  0
  -29.8041  -11.7379   17.5337 H   0  0  0  0  0  0
  -29.6430  -13.4677   17.7251 H   0  0  0  0  0  0
  -27.9040  -11.2888   18.9201 H   0  0  0  0  0  0
  -27.3878  -12.5286   17.8068 H   0  0  0  0  0  0
  -27.6401  -14.2573   19.4769 H   0  0  0  0  0  0
  -28.7311  -12.1834   21.4413 H   0  0  0  0  0  0
  -28.4233  -13.8627   21.7992 H   0  0  0  0  0  0
  -25.2768   -9.5683   22.4782 H   0  0  0  0  0  0
  -23.9992   -7.4644   22.7500 H   0  0  0  0  0  0
  -21.0853   -8.8794   19.8951 H   0  0  0  0  0  0
  -22.3729  -10.9682   19.6170 H   0  0  0  0  0  0
  -21.2006   -7.6146   23.9705 H   0  0  0  0  0  0
  -21.1463   -6.0519   25.9067 H   0  0  0  0  0  0
  -22.0611   -2.7610   23.2848 H   0  0  0  0  0  0
  -22.4074  -11.9871   22.4769 H   0  0  0  0  0  0
  -21.1079  -13.1243   22.2577 H   0  0  0  0  0  0
  -24.6202  -15.8196   20.4437 H   0  0  0  0  0  0
  -26.2194  -15.6022   19.9468 H   0  0  0  0  0  0
  -26.7192  -32.5417   23.1031 H   0  0  0  0  0  0
  -25.0155  -33.9702   25.0438 H   0  0  0  0  0  0
  -22.7202  -31.2940   21.3906 H   0  0  0  0  0  0
  -23.3772  -35.9560   23.3294 H   0  0  0  0  0  0
  -24.3583  -36.8896   22.2061 H   0  0  0  0  0  0
  -23.7214  -37.6439   23.6675 H   0  0  0  0  0  0
  -26.0956  -31.5302   20.5978 H   0  0  0  0  0  0
  -26.8482  -30.8270   21.9983 H   0  0  0  0  0  0
  -28.1138  -28.9347   21.2014 H   0  0  0  0  0  0
  -25.9534  -25.8741   19.0475 H   0  0  0  0  0  0
  -23.9733  -27.2863   19.0199 H   0  0  0  0  0  0
  -23.7604  -30.5766   19.3967 H   0  0  0  0  0  0
  -22.7619  -29.2313   19.8607 H   0  0  0  0  0  0
  -25.1287  -36.1912   25.0812 H   0  0  0  0  0  0
  -20.9952  -28.3267   24.1374 H   0  0  0  0  0  0
  -20.5645  -26.2282   23.3594 H   0  0  0  0  0  0
  -21.6648  -26.7409   22.1198 H   0  0  0  0  0  0
  -19.6929  -25.6280   21.1208 H   0  0  0  0  0  0
  -19.6709  -27.3163   20.6687 H   0  0  0  0  0  0
  -17.4203  -26.6622   21.3989 H   0  0  0  0  0  0
  -18.0354  -26.0026   22.8968 H   0  0  0  0  0  0
  -19.7958  -30.7185   24.2305 H   0  0  0  0  0  0
  -17.5052  -31.6257   24.5122 H   0  0  0  0  0  0
  -15.5370  -30.2966   23.7649 H   0  0  0  0  0  0
  -15.8660  -28.0768   22.7122 H   0  0  0  0  0  0
  -24.5951  -30.7019   25.7712 H   0  0  0  0  0  0
  -24.8893  -32.2839   26.4819 H   0  0  0  0  0  0
  -25.8073  -30.8886   27.0179 H   0  0  0  0  0  0
  -26.2966  -29.6752   24.1189 H   0  0  0  0  0  0
  -27.4146  -29.7297   25.4619 H   0  0  0  0  0  0
  -27.8790  -30.4314   23.9302 H   0  0  0  0  0  0
  -27.2726  -33.3665   26.1964 H   0  0  0  0  0  0
  -28.3942  -32.6841   25.0325 H   0  0  0  0  0  0
  -28.0694  -31.8496   26.5448 H   0  0  0  0  0  0
  -28.2557  -38.0112   24.7561 H   0  0  0  0  0  0
  -28.1101  -36.2660   24.6227 H   0  0  0  0  0  0
  -27.2286  -37.1336   25.8854 H   0  0  0  0  0  0
  -20.9405  -29.8773   21.6870 H   0  0  0  0  0  0
  -26.0157  -38.2815   24.1499 H   0  0  0  0  0  0
  -32.9313  -16.9099   21.1066 H   0  0  0  0  0  0
  -33.3964  -18.4256   20.3638 H   0  0  0  0  0  0
  -32.8167  -17.1086   19.3450 H   0  0  0  0  0  0
  -27.3182  -17.0342   21.0378 H   0  0  0  0  0  0
  -26.9262  -18.6929   20.6259 H   0  0  0  0  0  0
  -27.4118  -18.2801   22.2717 H   0  0  0  0  0  0
  -29.8906  -22.4241   19.7050 H   0  0  0  0  0  0
  -28.2919  -22.0089   19.1947 H   0  0  0  0  0  0
  -27.3024  -23.5919   20.9191 H   0  0  0  0  0  0
  -28.8826  -23.9240   21.5461 H   0  0  0  0  0  0
  -27.8330  -20.7912   21.3470 H   0  0  0  0  0  0
  -29.3281  -21.3230   21.9994 H   0  0  0  0  0  0
  -27.8082  -24.8975   18.8169 H   0  0  0  0  0  0
  -29.4480  -24.9982   19.2797 H   0  0  0  0  0  0
  -28.9152  -15.6097   21.0320 H   0  0  0  0  0  0
  1 25  1  0  0  0
  1 30  2  0  0  0
  1 82  1  0  0  0
  2  3  1  0  0  0
  2 25  1  0  0  0
  2 84  1  0  0  0
  2 85  1  0  0  0
  3  4  1  0  0  0
  3 86  1  0  0  0
  3 87  1  0  0  0
  4  5  1  0  0  0
  4 88  1  0  0  0
  4 89  1  0  0  0
  5  6  1  0  0  0
  5 26  1  0  0  0
  5 90  1  0  0  0
  6 25  1  0  0  0
  6 91  1  0  0  0
  6 92  1  0  0  0
  7  8  2  0  0  0
  7 26  1  0  0  0
  7 29  1  0  0  0
  8  9  1  0  0  0
  8 22  1  0  0  0
  9 10  1  0  0  0
  9 27  2  0  0  0
 10 11  2  0  0  0
 10 15  1  0  0  0
 11 12  1  0  0  0
 11 93  1  0  0  0
 12 13  2  0  0  0
 12 94  1  0  0  0
 13 14  1  0  0  0
 13 31  1  0  0  0
 14 15  2  0  0  0
 14 95  1  0  0  0
 15 96  1  0  0  0
 16 17  2  0  0  0
 16 21  1  0  0  0
 16 31  1  0  0  0
 17 18  1  0  0  0
 17 97  1  0  0  0
 18 19  2  0  0  0
 18 98  1  0  0  0
 19 20  1  0  0  0
 19 24  1  0  0  0
 20 21  2  0  0  0
 20 99  1  0  0  0
 21 23  1  0  0  0
 22 28  1  0  0  0
 22 32  2  0  0  0
 26 27  1  0  0  0
 28100  1  0  0  0
 28101  1  0  0  0
 29102  1  0  0  0
 29103  1  0  0  0
 33 34  1  0  0  0
 33 66  1  0  0  0
 33 70  2  0  0  0
 34 36  1  0  0  0
 34 59  1  0  0  0
 34104  1  0  0  0
 35 44  2  0  0  0
 35 45  1  0  0  0
 35 68  1  0  0  0
 36 56  1  0  0  0
 36105  1  0  0  0
 37 39  1  0  0  0
 37 47  1  0  0  0
 37 66  1  0  0  0
 37106  1  0  0  0
 38 43  2  0  0  0
 38 46  1  0  0  0
 38 47  1  0  0  0
 39 64  1  0  0  0
 39 67  2  0  0  0
 40 52  1  0  0  0
 40 53  2  0  0  0
 40 58  1  0  0  0
 41107  1  0  0  0
 41108  1  0  0  0
 41109  1  0  0  0
 41 48  1  0  0  0
 42 43  1  0  0  0
 42 66  1  0  0  0
 42110  1  0  0  0
 42111  1  0  0  0
 43 44  1  0  0  0
 44112  1  0  0  0
 45 46  2  0  0  0
 45113  1  0  0  0
 46114  1  0  0  0
 47115  1  0  0  0
 47116  1  0  0  0
 48 56  1  0  0  0
 48 65  1  0  0  0
 48117  1  0  0  0
 49 50  1  0  0  0
 49 53  1  0  0  0
 49 64  1  0  0  0
 49118  1  0  0  0
 50 51  1  0  0  0
 50119  1  0  0  0
 50120  1  0  0  0
 51 52  1  0  0  0
 51121  1  0  0  0
 51122  1  0  0  0
 52123  1  0  0  0
 52124  1  0  0  0
 53 54  1  0  0  0
 54 55  2  0  0  0
 54125  1  0  0  0
 55 57  1  0  0  0
 55126  1  0  0  0
 56 69  2  0  0  0
 57 58  2  0  0  0
 57127  1  0  0  0
 58128  1  0  0  0
 59 60  1  0  0  0
 59 61  1  0  0  0
 59 62  1  0  0  0
 60129  1  0  0  0
 60130  1  0  0  0
 60131  1  0  0  0
 61132  1  0  0  0
 61133  1  0  0  0
 61134  1  0  0  0
 62135  1  0  0  0
 62136  1  0  0  0
 62137  1  0  0  0
 63 65  1  0  0  0
 63138  1  0  0  0
 63139  1  0  0  0
 63140  1  0  0  0
 64141  1  0  0  0
 65142  1  0  0  0
 68 80  1  0  0  0
 71 72  1  0  0  0
 71 74  2  0  0  0
 71 75  1  0  0  0
 72 73  2  0  0  0
 72 82  1  0  0  0
 73 76  1  0  0  0
 73 81  1  0  0  0
 74 81  1  0  0  0
 74 83  1  0  0  0
 75143  1  0  0  0
 75144  1  0  0  0
 75145  1  0  0  0
 76146  1  0  0  0
 76147  1  0  0  0
 76148  1  0  0  0
 77 78  1  0  0  0
 77 79  1  0  0  0
 77149  1  0  0  0
 77150  1  0  0  0
 78 80  1  0  0  0
 78151  1  0  0  0
 78152  1  0  0  0
 79 81  1  0  0  0
 79153  1  0  0  0
 79154  1  0  0  0
 80155  1  0  0  0
 80156  1  0  0  0
 82157  1  0  0  0
M  ISO  4   1 100  68 101  80 101  82 100
M  END
> <chiral flag>
0

> <version>
0

> <s_m_source_file>
/data/baiqing/PycharmProjects/Reinvent-master-3.2/result/LINK_invent/BTK/process_docking_weight1_custom_sum_contain_oxygen_bond_distance_aromatic_linkinvent_7_9_3/rearranged_h_0020.sdf

> <i_m_source_file_index>
50

> <r_mmod_Potential_Energy-OPLS-2005>
172.555252075195

> <r_mmod_Stretch_Energy-OPLS-2005>
122.604751586914

> <r_mmod_Bend_Energy-OPLS-2005>
206.802490234375

> <r_mmod_Torsional_Energy-OPLS-2005>
217.853118896484

> <r_mmod_Improper_Torsional_Energy-OPLS-2005>
6.82413864135742

> <r_mmod_Van_der_Waal_Energy-OPLS-2005>
115.164688110352

> <r_mmod_Electrostatic_Energy-OPLS-2005>
-377.384826660156

> <r_mmod_Solvation_Energy-OPLS-2005>
-201.760681152344

> <b_mmod_Minimization_Converged-OPLS-2005>
0

> <r_mmod_RMS_Derivative-OPLS-2005>
3.31640863418579

$$$$
50
                    3D
 Structure written by MMmdl.
161169  0  0  1  0            999 V2000
  -30.6105  -14.7378   20.4691 C   0  0  0  0  0  0
  -30.4359  -12.4601   19.4486 C   0  0  0  0  0  0
  -29.5003  -12.5041   18.2201 C   0  0  0  0  0  0
  -28.0303  -12.3277   18.6495 C   0  0  0  0  0  0
  -27.6437  -13.2302   19.8515 C   0  0  2  0  0  0
  -28.6955  -13.1566   20.9784 C   0  0  0  0  0  0
  -25.2518  -13.8201   20.5741 C   0  0  0  0  0  0
  -24.1815  -13.0444   20.9227 C   0  0  0  0  0  0
  -24.6420  -11.6915   20.8785 C   0  0  0  0  0  0
  -23.9116  -10.4290   21.0450 C   0  0  0  0  0  0
  -24.3655   -9.4184   21.9215 C   0  0  0  0  0  0
  -23.6314   -8.2229   22.0767 C   0  0  0  0  0  0
  -22.4289   -8.0301   21.3554 C   0  0  0  0  0  0
  -21.9957   -9.0286   20.4655 C   0  0  0  0  0  0
  -22.7307  -10.2148   20.3086 C   0  0  0  0  0  0
  -21.6840   -6.0755   22.5279 C   0  0  0  0  0  0
  -21.4009   -6.5650   23.8226 C   0  0  0  0  0  0
  -21.3659   -5.6796   24.9185 C   0  0  0  0  0  0
  -21.6047   -4.3056   24.7218 C   0  0  0  0  0  0
  -21.8814   -3.8169   23.4341 C   0  0  0  0  0  0
  -21.9183   -4.6991   22.3401 C   0  0  0  0  0  0
  -22.7831  -13.5201   21.1915 C   0  0  0  0  0  0
  -22.1653   -4.2185   21.0977 F   0  0  0  0  0  0
  -21.5630   -3.4548   25.7735 F   0  0  0  0  0  0
  -29.9901  -13.5134   20.3837 N   0  0  0  0  0  0
  -26.2955  -12.9409   20.3334 N   0  0  0  0  0  0
  -25.9344  -11.6547   20.5791 N   0  0  0  0  0  0
  -22.0507  -12.8182   22.0467 N   0  0  0  0  0  0
  -25.4196  -15.1939   20.4207 N   0  0  0  0  0  0
  -31.8116  -14.8457   20.2119 O   0  0  0  0  0  0
  -21.6627   -6.8914   21.4247 O   0  0  0  0  0  0
  -22.3528  -14.5531   20.6793 O   0  0  0  0  0  0
  -24.6348  -31.8537   23.1969 C   0  0  0  0  0  0
  -25.9154  -32.4760   23.8324 C   0  0  1  0  0  0
  -27.2332  -27.2716   20.1026 C   0  0  0  0  0  0
  -25.5953  -33.8564   24.2242 N   0  0  0  0  0  0
  -23.4272  -30.4803   21.5416 C   0  0  2  0  0  0
  -24.8785  -28.9243   20.1186 C   0  0  0  0  0  0
  -22.7473  -29.4629   22.4887 C   0  0  0  0  0  0
  -18.0263  -28.1420   22.8444 C   0  0  0  0  0  0
  -24.1466  -36.7254   23.2626 C   0  0  0  0  0  0
  -25.9786  -30.7690   21.3781 C   0  0  0  0  0  0
  -26.0549  -29.3953   20.7143 C   0  0  0  0  0  0
  -27.2375  -28.5835   20.6905 C   0  0  0  0  0  0
  -26.0196  -26.8625   19.5016 C   0  0  0  0  0  0
  -24.8644  -27.6638   19.5083 C   0  0  0  0  0  0
  -23.6471  -29.8092   20.1629 C   0  0  0  0  0  0
  -25.4107  -36.3048   24.0294 C   0  0  1  0  0  0
  -20.5872  -28.3734   23.1222 C   0  0  2  0  0  0
  -20.6781  -26.9428   22.5398 C   0  0  0  0  0  0
  -19.5776  -26.6361   21.5188 C   0  0  0  0  0  0
  -18.1917  -26.7966   22.1548 C   0  0  0  0  0  0
  -19.1524  -28.8886   23.2826 C   0  0  0  0  0  0
  -18.9479  -30.1490   23.8852 C   0  0  0  0  0  0
  -17.6491  -30.6632   24.0560 C   0  0  0  0  0  0
  -25.9039  -34.9437   23.5041 C   0  0  0  0  0  0
  -16.5372  -29.9125   23.6392 C   0  0  0  0  0  0
  -16.7254  -28.6550   23.0373 C   0  0  0  0  0  0
  -26.4498  -31.6676   25.0786 C   0  0  0  0  0  0
  -25.3633  -31.3944   26.1472 C   0  0  0  0  0  0
  -27.0387  -30.3073   24.6395 C   0  0  0  0  0  0
  -27.6029  -32.4474   25.7577 C   0  0  0  0  0  0
  -27.5564  -37.1775   24.8457 C   0  0  0  0  0  0
  -21.4183  -29.3104   22.3638 N   0  0  0  0  0  0
  -26.4275  -37.3766   23.9412 N   0  0  0  0  0  0
  -24.6989  -31.0504   22.0951 N   0  0  0  0  0  0
  -23.4168  -28.8116   23.2946 O   0  0  0  0  0  0
  -28.3408  -26.3867   20.1258 O   0  0  0  0  0  0
  -26.5550  -34.8893   22.4581 O   0  0  0  0  0  0
  -23.5491  -32.1375   23.7259 O   0  0  0  0  0  0
  -29.3940  -19.8524   20.6611 C   0  0  0  0  0  0
  -29.8383  -18.5723   20.1380 C   0  0  0  0  0  0
  -30.0076  -19.6932   17.9515 C   0  0  0  0  0  0
  -29.2265  -21.0727   19.8767 C   0  0  0  0  0  0
  -30.1424  -18.5419   18.7659 C   0  0  0  0  0  0
  -29.5339  -20.9307   18.4873 C   0  0  0  0  0  0
  -30.3858  -19.5457   16.4787 C   0  0  0  0  0  0
  -30.0054  -24.1629   21.4904 C   0  0  0  0  0  0
  -27.7989  -22.1136   21.5784 C   0  0  0  0  0  0
  -30.1385  -17.2914   21.0430 C   0  0  0  0  0  0
  -28.0920  -24.9122   19.9453 C   0  0  0  0  0  0
  -29.1913  -23.7534   20.2499 C   0  0  2  0  0  0
  -29.8086  -15.8466   20.6701 N   0  0  0  0  0  0
  -28.6818  -22.3200   20.4314 N   0  0  0  0  0  0
  -30.5931  -17.3892   18.2114 F   0  0  0  0  0  0
  -29.2447  -22.2446   17.3900 Cl  0  0  0  0  0  0
  -31.4729  -12.5949   19.1360 H   0  0  0  0  0  0
  -30.3865  -11.4818   19.9311 H   0  0  0  0  0  0
  -29.7729  -11.7223   17.5094 H   0  0  0  0  0  0
  -29.6192  -13.4521   17.6909 H   0  0  0  0  0  0
  -27.8960  -11.2799   18.9227 H   0  0  0  0  0  0
  -27.3590  -12.5104   17.8091 H   0  0  0  0  0  0
  -27.6363  -14.2539   19.4738 H   0  0  0  0  0  0
  -28.7355  -12.1537   21.4063 H   0  0  0  0  0  0
  -28.4363  -13.8285   21.7994 H   0  0  0  0  0  0
  -25.2814   -9.5635   22.4787 H   0  0  0  0  0  0
  -24.0014   -7.4617   22.7494 H   0  0  0  0  0  0
  -21.0886   -8.8848   19.8959 H   0  0  0  0  0  0
  -22.3816  -10.9709   19.6199 H   0  0  0  0  0  0
  -21.1994   -7.6156   23.9742 H   0  0  0  0  0  0
  -21.1483   -6.0523   25.9090 H   0  0  0  0  0  0
  -22.0584   -2.7637   23.2829 H   0  0  0  0  0  0
  -22.4105  -11.9781   22.4754 H   0  0  0  0  0  0
  -21.1174  -13.1251   22.2798 H   0  0  0  0  0  0
  -24.6536  -15.8451   20.5557 H   0  0  0  0  0  0
  -26.2657  -15.6453   20.1000 H   0  0  0  0  0  0
  -26.7233  -32.5451   23.1070 H   0  0  0  0  0  0
  -25.0336  -33.9691   25.0550 H   0  0  0  0  0  0
  -22.7294  -31.3070   21.3863 H   0  0  0  0  0  0
  -23.3731  -35.9566   23.3290 H   0  0  0  0  0  0
  -24.3545  -36.8898   22.2039 H   0  0  0  0  0  0
  -23.7218  -37.6442   23.6688 H   0  0  0  0  0  0
  -26.1172  -31.5259   20.6052 H   0  0  0  0  0  0
  -26.8520  -30.8136   22.0188 H   0  0  0  0  0  0
  -28.1449  -28.9398   21.1575 H   0  0  0  0  0  0
  -25.9259  -25.8954   19.0343 H   0  0  0  0  0  0
  -23.9551  -27.2898   19.0598 H   0  0  0  0  0  0
  -23.7603  -30.5785   19.3987 H   0  0  0  0  0  0
  -22.7671  -29.2345   19.8692 H   0  0  0  0  0  0
  -25.1281  -36.1845   25.0775 H   0  0  0  0  0  0
  -20.9959  -28.3336   24.1340 H   0  0  0  0  0  0
  -20.5666  -26.2324   23.3601 H   0  0  0  0  0  0
  -21.6652  -26.7420   22.1222 H   0  0  0  0  0  0
  -19.6930  -25.6225   21.1340 H   0  0  0  0  0  0
  -19.6812  -27.3057   20.6633 H   0  0  0  0  0  0
  -17.4213  -26.6722   21.3913 H   0  0  0  0  0  0
  -18.0268  -26.0097   22.8930 H   0  0  0  0  0  0
  -19.7975  -30.7283   24.2207 H   0  0  0  0  0  0
  -17.5083  -31.6338   24.5109 H   0  0  0  0  0  0
  -15.5383  -30.3015   23.7817 H   0  0  0  0  0  0
  -15.8643  -28.0898   22.7117 H   0  0  0  0  0  0
  -24.5978  -30.7016   25.7971 H   0  0  0  0  0  0
  -24.8553  -32.3097   26.4515 H   0  0  0  0  0  0
  -25.7877  -30.9598   27.0518 H   0  0  0  0  0  0
  -26.3076  -29.6827   24.1255 H   0  0  0  0  0  0
  -27.3843  -29.7378   25.5043 H   0  0  0  0  0  0
  -27.8998  -30.4341   23.9829 H   0  0  0  0  0  0
  -27.2661  -33.3898   26.1916 H   0  0  0  0  0  0
  -28.3959  -32.6848   25.0470 H   0  0  0  0  0  0
  -28.0510  -31.8737   26.5701 H   0  0  0  0  0  0
  -28.2557  -38.0095   24.7529 H   0  0  0  0  0  0
  -28.1096  -36.2628   24.6274 H   0  0  0  0  0  0
  -27.2266  -37.1396   25.8852 H   0  0  0  0  0  0
  -20.9320  -29.8954   21.6998 H   0  0  0  0  0  0
  -26.0129  -38.2801   24.1513 H   0  0  0  0  0  0
  -29.1851  -19.8966   21.7178 H   0  0  0  0  0  0
  -31.2511  -18.8863   16.3764 H   0  0  0  0  0  0
  -30.6594  -20.4882   16.0040 H   0  0  0  0  0  0
  -29.5633  -19.1008   15.9166 H   0  0  0  0  0  0
  -30.6498  -25.0173   21.2777 H   0  0  0  0  0  0
  -30.6448  -23.3509   21.8341 H   0  0  0  0  0  0
  -29.3552  -24.4558   22.3161 H   0  0  0  0  0  0
  -27.2142  -21.1971   21.4771 H   0  0  0  0  0  0
  -27.0824  -22.9236   21.6971 H   0  0  0  0  0  0
  -28.3751  -22.0580   22.5046 H   0  0  0  0  0  0
  -29.6180  -17.4655   21.9857 H   0  0  0  0  0  0
  -31.1987  -17.3346   21.3013 H   0  0  0  0  0  0
  -27.2181  -24.6982   20.5544 H   0  0  0  0  0  0
  -27.7790  -24.7595   18.9111 H   0  0  0  0  0  0
  -29.9013  -23.7576   19.4247 H   0  0  0  0  0  0
  -28.8298  -15.6167   20.7460 H   0  0  0  0  0  0
  1 25  1  0  0  0
  1 30  2  0  0  0
  1 83  1  0  0  0
  2  3  1  0  0  0
  2 25  1  0  0  0
  2 87  1  0  0  0
  2 88  1  0  0  0
  3  4  1  0  0  0
  3 89  1  0  0  0
  3 90  1  0  0  0
  4  5  1  0  0  0
  4 91  1  0  0  0
  4 92  1  0  0  0
  5  6  1  0  0  0
  5 26  1  0  0  0
  5 93  1  0  0  0
  6 25  1  0  0  0
  6 94  1  0  0  0
  6 95  1  0  0  0
  7  8  2  0  0  0
  7 26  1  0  0  0
  7 29  1  0  0  0
  8  9  1  0  0  0
  8 22  1  0  0  0
  9 10  1  0  0  0
  9 27  2  0  0  0
 10 11  2  0  0  0
 10 15  1  0  0  0
 11 12  1  0  0  0
 11 96  1  0  0  0
 12 13  2  0  0  0
 12 97  1  0  0  0
 13 14  1  0  0  0
 13 31  1  0  0  0
 14 15  2  0  0  0
 14 98  1  0  0  0
 15 99  1  0  0  0
 16 17  2  0  0  0
 16 21  1  0  0  0
 16 31  1  0  0  0
 17 18  1  0  0  0
 17100  1  0  0  0
 18 19  2  0  0  0
 18101  1  0  0  0
 19 20  1  0  0  0
 19 24  1  0  0  0
 20 21  2  0  0  0
 20102  1  0  0  0
 21 23  1  0  0  0
 22 28  1  0  0  0
 22 32  2  0  0  0
 26 27  1  0  0  0
 28103  1  0  0  0
 28104  1  0  0  0
 29105  1  0  0  0
 29106  1  0  0  0
 33 34  1  0  0  0
 33 66  1  0  0  0
 33 70  2  0  0  0
 34 36  1  0  0  0
 34 59  1  0  0  0
 34107  1  0  0  0
 35 44  2  0  0  0
 35 45  1  0  0  0
 35 68  1  0  0  0
 36 56  1  0  0  0
 36108  1  0  0  0
 37 39  1  0  0  0
 37 47  1  0  0  0
 37 66  1  0  0  0
 37109  1  0  0  0
 38 43  2  0  0  0
 38 46  1  0  0  0
 38 47  1  0  0  0
 39 64  1  0  0  0
 39 67  2  0  0  0
 40 52  1  0  0  0
 40 53  2  0  0  0
 40 58  1  0  0  0
 41110  1  0  0  0
 41111  1  0  0  0
 41112  1  0  0  0
 41 48  1  0  0  0
 42 43  1  0  0  0
 42 66  1  0  0  0
 42113  1  0  0  0
 42114  1  0  0  0
 43 44  1  0  0  0
 44115  1  0  0  0
 45 46  2  0  0  0
 45116  1  0  0  0
 46117  1  0  0  0
 47118  1  0  0  0
 47119  1  0  0  0
 48 56  1  0  0  0
 48 65  1  0  0  0
 48120  1  0  0  0
 49 50  1  0  0  0
 49 53  1  0  0  0
 49 64  1  0  0  0
 49121  1  0  0  0
 50 51  1  0  0  0
 50122  1  0  0  0
 50123  1  0  0  0
 51 52  1  0  0  0
 51124  1  0  0  0
 51125  1  0  0  0
 52126  1  0  0  0
 52127  1  0  0  0
 53 54  1  0  0  0
 54 55  2  0  0  0
 54128  1  0  0  0
 55 57  1  0  0  0
 55129  1  0  0  0
 56 69  2  0  0  0
 57 58  2  0  0  0
 57130  1  0  0  0
 58131  1  0  0  0
 59 60  1  0  0  0
 59 61  1  0  0  0
 59 62  1  0  0  0
 60132  1  0  0  0
 60133  1  0  0  0
 60134  1  0  0  0
 61135  1  0  0  0
 61136  1  0  0  0
 61137  1  0  0  0
 62138  1  0  0  0
 62139  1  0  0  0
 62140  1  0  0  0
 63 65  1  0  0  0
 63141  1  0  0  0
 63142  1  0  0  0
 63143  1  0  0  0
 64144  1  0  0  0
 65145  1  0  0  0
 68 81  1  0  0  0
 71 72  2  0  0  0
 71 74  1  0  0  0
 71146  1  0  0  0
 72 75  1  0  0  0
 72 80  1  0  0  0
 73 75  2  0  0  0
 73 76  1  0  0  0
 73 77  1  0  0  0
 74 76  2  0  0  0
 74 84  1  0  0  0
 75 85  1  0  0  0
 76 86  1  0  0  0
 77147  1  0  0  0
 77148  1  0  0  0
 77149  1  0  0  0
 78150  1  0  0  0
 78151  1  0  0  0
 78152  1  0  0  0
 78 82  1  0  0  0
 79 84  1  0  0  0
 79153  1  0  0  0
 79154  1  0  0  0
 79155  1  0  0  0
 80 83  1  0  0  0
 80156  1  0  0  0
 80157  1  0  0  0
 81 82  1  0  0  0
 81158  1  0  0  0
 81159  1  0  0  0
 82 84  1  0  0  0
 82160  1  0  0  0
 83161  1  0  0  0
M  ISO  4   1 100  68 101  81 101  83 100
M  END
> <chiral flag>
0

> <version>
0

> <s_m_source_file>
/data/baiqing/PycharmProjects/Reinvent-master-3.2/result/LINK_invent/BTK/process_docking_weight1_custom_sum_contain_oxygen_bond_distance_aromatic_linkinvent_7_9_3/rearranged_h_0020.sdf

> <i_m_source_file_index>
51

> <r_mmod_Potential_Energy-OPLS-2005>
179.666152954102

> <r_mmod_Stretch_Energy-OPLS-2005>
130.729934692383

> <r_mmod_Bend_Energy-OPLS-2005>
180.534881591797

> <r_mmod_Torsional_Energy-OPLS-2005>
220.074569702148

> <r_mmod_Improper_Torsional_Energy-OPLS-2005>
5.7568039894104

> <r_mmod_Van_der_Waal_Energy-OPLS-2005>
150.099517822266

> <r_mmod_Electrostatic_Energy-OPLS-2005>
-373.978332519531

> <r_mmod_Solvation_Energy-OPLS-2005>
-215.893371582031

> <b_mmod_Minimization_Converged-OPLS-2005>
0

> <r_mmod_RMS_Derivative-OPLS-2005>
4.76703119277954

$$$$
51
                    3D
 Structure written by MMmdl.
156164  0  0  1  0            999 V2000
  -30.6186  -14.7310   20.4867 C   0  0  0  0  0  0
  -30.4386  -12.4480   19.4752 C   0  0  0  0  0  0
  -29.5094  -12.4872   18.2433 C   0  0  0  0  0  0
  -28.0370  -12.3054   18.6621 C   0  0  0  0  0  0
  -27.6423  -13.2220   19.8494 C   0  0  2  0  0  0
  -28.6853  -13.1642   20.9857 C   0  0  0  0  0  0
  -25.2514  -13.8204   20.5681 C   0  0  0  0  0  0
  -24.1789  -13.0454   20.9181 C   0  0  0  0  0  0
  -24.6367  -11.6926   20.8726 C   0  0  0  0  0  0
  -23.9037  -10.4299   21.0410 C   0  0  0  0  0  0
  -24.3587   -9.4217   21.9190 C   0  0  0  0  0  0
  -23.6267   -8.2259   22.0778 C   0  0  0  0  0  0
  -22.4257   -8.0279   21.3562 C   0  0  0  0  0  0
  -21.9881   -9.0244   20.4657 C   0  0  0  0  0  0
  -22.7204  -10.2131   20.3058 C   0  0  0  0  0  0
  -21.6842   -6.0708   22.5278 C   0  0  0  0  0  0
  -21.3988   -6.5631   23.8199 C   0  0  0  0  0  0
  -21.3665   -5.6802   24.9173 C   0  0  0  0  0  0
  -21.6048   -4.3062   24.7243 C   0  0  0  0  0  0
  -21.8810   -3.8135   23.4371 C   0  0  0  0  0  0
  -21.9181   -4.6933   22.3410 C   0  0  0  0  0  0
  -22.7804  -13.5217   21.1843 C   0  0  0  0  0  0
  -22.1648   -4.2111   21.0985 F   0  0  0  0  0  0
  -21.5651   -3.4553   25.7764 F   0  0  0  0  0  0
  -29.9882  -13.5115   20.4034 N   0  0  0  0  0  0
  -26.2934  -12.9381   20.3281 N   0  0  0  0  0  0
  -25.9294  -11.6545   20.5784 N   0  0  0  0  0  0
  -22.0482  -12.8196   22.0419 N   0  0  0  0  0  0
  -25.4234  -15.1930   20.4058 N   0  0  0  0  0  0
  -31.8102  -14.8299   20.1833 O   0  0  0  0  0  0
  -21.6636   -6.8857   21.4245 O   0  0  0  0  0  0
  -22.3482  -14.5529   20.6700 O   0  0  0  0  0  0
  -24.6427  -31.8509   23.1955 C   0  0  0  0  0  0
  -25.9213  -32.4720   23.8313 C   0  0  1  0  0  0
  -27.1931  -27.2223   20.1131 C   0  0  0  0  0  0
  -25.5970  -33.8535   24.2243 N   0  0  0  0  0  0
  -23.4369  -30.4813   21.5446 C   0  0  2  0  0  0
  -24.8737  -28.9358   20.1108 C   0  0  0  0  0  0
  -22.7577  -29.4598   22.4886 C   0  0  0  0  0  0
  -18.0289  -28.1405   22.8473 C   0  0  0  0  0  0
  -24.1486  -36.7285   23.2653 C   0  0  0  0  0  0
  -25.9913  -30.7545   21.3778 C   0  0  0  0  0  0
  -26.0542  -29.3789   20.7186 C   0  0  0  0  0  0
  -27.2173  -28.5337   20.7128 C   0  0  0  0  0  0
  -25.9770  -26.8742   19.4729 C   0  0  0  0  0  0
  -24.8394  -27.6905   19.4865 C   0  0  0  0  0  0
  -23.6513  -29.8267   20.1576 C   0  0  0  0  0  0
  -25.4091  -36.3054   24.0347 C   0  0  1  0  0  0
  -20.5924  -28.3718   23.1249 C   0  0  2  0  0  0
  -20.6796  -26.9419   22.5397 C   0  0  0  0  0  0
  -19.5773  -26.6384   21.5219 C   0  0  0  0  0  0
  -18.1931  -26.7938   22.1610 C   0  0  0  0  0  0
  -19.1550  -28.8860   23.2860 C   0  0  0  0  0  0
  -18.9507  -30.1467   23.8882 C   0  0  0  0  0  0
  -17.6510  -30.6600   24.0560 C   0  0  0  0  0  0
  -25.9052  -34.9444   23.5081 C   0  0  0  0  0  0
  -16.5388  -29.9115   23.6346 C   0  0  0  0  0  0
  -16.7277  -28.6538   23.0344 C   0  0  0  0  0  0
  -26.4531  -31.6570   25.0738 C   0  0  0  0  0  0
  -25.3713  -31.3790   26.1444 C   0  0  0  0  0  0
  -27.0363  -30.2972   24.6192 C   0  0  0  0  0  0
  -27.6055  -32.4341   25.7512 C   0  0  0  0  0  0
  -27.5562  -37.1778   24.8479 C   0  0  0  0  0  0
  -21.4255  -29.3081   22.3661 N   0  0  0  0  0  0
  -26.4268  -37.3758   23.9429 N   0  0  0  0  0  0
  -24.7122  -31.0465   22.0964 N   0  0  0  0  0  0
  -23.4252  -28.8055   23.2942 O   0  0  0  0  0  0
  -28.2405  -26.2593   20.1683 O   0  0  0  0  0  0
  -26.5634  -34.8940   22.4655 O   0  0  0  0  0  0
  -23.5553  -32.1370   23.7183 O   0  0  0  0  0  0
  -29.5816  -21.4716   20.5334 C   0  0  0  0  0  0
  -30.5671  -22.3162   20.0505 C   0  0  0  0  0  0
  -28.8006  -23.6160   20.2051 C   0  0  0  0  0  0
  -26.7558  -22.0520   22.3988 C   0  0  0  0  0  0
  -29.7540  -20.0122   21.1290 C   0  0  0  0  0  0
  -27.7909  -24.8151   20.0643 C   0  0  0  0  0  0
  -29.4673  -18.5907   20.4081 C   0  0  0  0  0  0
  -27.0968  -21.8580   20.9126 C   0  0  0  0  0  0
  -30.2891  -17.3067   20.9804 C   0  0  0  0  0  0
  -30.0870  -23.6252   19.8518 N   0  0  0  0  0  0
  -28.4368  -22.3229   20.5625 N   0  0  0  0  0  0
  -29.8530  -15.8605   20.7319 N   0  0  0  0  0  0
  -32.1922  -21.9045   19.7722 Cl  0  0  0  0  0  0
  -31.4773  -12.5808   19.1638 H   0  0  0  0  0  0
  -30.3973  -11.4744   19.9678 H   0  0  0  0  0  0
  -29.7967  -11.7147   17.5278 H   0  0  0  0  0  0
  -29.6249  -13.4439   17.7294 H   0  0  0  0  0  0
  -27.8973  -11.2595   18.9433 H   0  0  0  0  0  0
  -27.3750  -12.4805   17.8128 H   0  0  0  0  0  0
  -27.6391  -14.2383   19.4537 H   0  0  0  0  0  0
  -28.7217  -12.1701   21.4338 H   0  0  0  0  0  0
  -28.4212  -13.8530   21.7900 H   0  0  0  0  0  0
  -25.2741   -9.5695   22.4751 H   0  0  0  0  0  0
  -23.9973   -7.4654   22.7508 H   0  0  0  0  0  0
  -21.0817   -8.8732   19.8959 H   0  0  0  0  0  0
  -22.3656  -10.9648   19.6152 H   0  0  0  0  0  0
  -21.1953   -7.6134   23.9682 H   0  0  0  0  0  0
  -21.1503   -6.0544   25.9072 H   0  0  0  0  0  0
  -22.0579   -2.7592   23.2893 H   0  0  0  0  0  0
  -22.4081  -11.9809   22.4726 H   0  0  0  0  0  0
  -21.1110  -13.1234   22.2690 H   0  0  0  0  0  0
  -24.6606  -15.8508   20.5080 H   0  0  0  0  0  0
  -26.2707  -15.6290   20.0646 H   0  0  0  0  0  0
  -26.7263  -32.5319   23.1039 H   0  0  0  0  0  0
  -25.0191  -33.9652   25.0414 H   0  0  0  0  0  0
  -22.7398  -31.3109   21.3942 H   0  0  0  0  0  0
  -23.3768  -35.9607   23.3297 H   0  0  0  0  0  0
  -24.3614  -36.8909   22.2080 H   0  0  0  0  0  0
  -23.7210  -37.6482   23.6672 H   0  0  0  0  0  0
  -26.1324  -31.5037   20.5981 H   0  0  0  0  0  0
  -26.8755  -30.8045   22.0029 H   0  0  0  0  0  0
  -28.1164  -28.8541   21.2125 H   0  0  0  0  0  0
  -25.8316  -25.9369   18.9624 H   0  0  0  0  0  0
  -23.9308  -27.3396   19.0174 H   0  0  0  0  0  0
  -23.7830  -30.6099   19.4099 H   0  0  0  0  0  0
  -22.7649  -29.2732   19.8425 H   0  0  0  0  0  0
  -25.1225  -36.1925   25.0841 H   0  0  0  0  0  0
  -20.9986  -28.3263   24.1388 H   0  0  0  0  0  0
  -20.5732  -26.2292   23.3587 H   0  0  0  0  0  0
  -21.6624  -26.7442   22.1125 H   0  0  0  0  0  0
  -19.6946  -25.6306   21.1235 H   0  0  0  0  0  0
  -19.6710  -27.3220   20.6783 H   0  0  0  0  0  0
  -17.4174  -26.6742   21.4022 H   0  0  0  0  0  0
  -18.0282  -26.0073   22.8991 H   0  0  0  0  0  0
  -19.7994  -30.7281   24.2240 H   0  0  0  0  0  0
  -17.5064  -31.6277   24.5183 H   0  0  0  0  0  0
  -15.5388  -30.3015   23.7700 H   0  0  0  0  0  0
  -15.8670  -28.0869   22.7066 H   0  0  0  0  0  0
  -24.5999  -30.6958   25.7875 H   0  0  0  0  0  0
  -24.8776  -32.2985   26.4633 H   0  0  0  0  0  0
  -25.8011  -30.9248   27.0374 H   0  0  0  0  0  0
  -26.2940  -29.6754   24.1180 H   0  0  0  0  0  0
  -27.4065  -29.7189   25.4681 H   0  0  0  0  0  0
  -27.8790  -30.4313   23.9399 H   0  0  0  0  0  0
  -27.2687  -33.3756   26.1855 H   0  0  0  0  0  0
  -28.3976  -32.6689   25.0400 H   0  0  0  0  0  0
  -28.0561  -31.8606   26.5621 H   0  0  0  0  0  0
  -28.2529  -38.0118   24.7489 H   0  0  0  0  0  0
  -28.1079  -36.2625   24.6278 H   0  0  0  0  0  0
  -27.2300  -37.1373   25.8895 H   0  0  0  0  0  0
  -20.9434  -29.8904   21.6948 H   0  0  0  0  0  0
  -26.0167  -38.2835   24.1446 H   0  0  0  0  0  0
  -25.8283  -21.5295   22.6473 H   0  0  0  0  0  0
  -26.6130  -23.1042   22.6426 H   0  0  0  0  0  0
  -27.5435  -21.6509   23.0409 H   0  0  0  0  0  0
  -29.2107  -19.9869   22.0752 H   0  0  0  0  0  0
  -30.7975  -19.9584   21.4432 H   0  0  0  0  0  0
  -26.9980  -24.6647   20.7975 H   0  0  0  0  0  0
  -27.3589  -24.6514   19.0791 H   0  0  0  0  0  0
  -29.6940  -18.6867   19.3478 H   0  0  0  0  0  0
  -28.3933  -18.4033   20.4556 H   0  0  0  0  0  0
  -26.3617  -22.3548   20.2769 H   0  0  0  0  0  0
  -27.0299  -20.7959   20.6644 H   0  0  0  0  0  0
  -30.3371  -17.3970   22.0654 H   0  0  0  0  0  0
  -31.3291  -17.4103   20.6661 H   0  0  0  0  0  0
  -28.8753  -15.6688   20.8962 H   0  0  0  0  0  0
  1 25  1  0  0  0
  1 30  2  0  0  0
  1 82  1  0  0  0
  2  3  1  0  0  0
  2 25  1  0  0  0
  2 84  1  0  0  0
  2 85  1  0  0  0
  3  4  1  0  0  0
  3 86  1  0  0  0
  3 87  1  0  0  0
  4  5  1  0  0  0
  4 88  1  0  0  0
  4 89  1  0  0  0
  5  6  1  0  0  0
  5 26  1  0  0  0
  5 90  1  0  0  0
  6 25  1  0  0  0
  6 91  1  0  0  0
  6 92  1  0  0  0
  7  8  2  0  0  0
  7 26  1  0  0  0
  7 29  1  0  0  0
  8  9  1  0  0  0
  8 22  1  0  0  0
  9 10  1  0  0  0
  9 27  2  0  0  0
 10 11  2  0  0  0
 10 15  1  0  0  0
 11 12  1  0  0  0
 11 93  1  0  0  0
 12 13  2  0  0  0
 12 94  1  0  0  0
 13 14  1  0  0  0
 13 31  1  0  0  0
 14 15  2  0  0  0
 14 95  1  0  0  0
 15 96  1  0  0  0
 16 17  2  0  0  0
 16 21  1  0  0  0
 16 31  1  0  0  0
 17 18  1  0  0  0
 17 97  1  0  0  0
 18 19  2  0  0  0
 18 98  1  0  0  0
 19 20  1  0  0  0
 19 24  1  0  0  0
 20 21  2  0  0  0
 20 99  1  0  0  0
 21 23  1  0  0  0
 22 28  1  0  0  0
 22 32  2  0  0  0
 26 27  1  0  0  0
 28100  1  0  0  0
 28101  1  0  0  0
 29102  1  0  0  0
 29103  1  0  0  0
 33 34  1  0  0  0
 33 66  1  0  0  0
 33 70  2  0  0  0
 34 36  1  0  0  0
 34 59  1  0  0  0
 34104  1  0  0  0
 35 44  2  0  0  0
 35 45  1  0  0  0
 35 68  1  0  0  0
 36 56  1  0  0  0
 36105  1  0  0  0
 37 39  1  0  0  0
 37 47  1  0  0  0
 37 66  1  0  0  0
 37106  1  0  0  0
 38 43  2  0  0  0
 38 46  1  0  0  0
 38 47  1  0  0  0
 39 64  1  0  0  0
 39 67  2  0  0  0
 40 52  1  0  0  0
 40 53  2  0  0  0
 40 58  1  0  0  0
 41107  1  0  0  0
 41108  1  0  0  0
 41109  1  0  0  0
 41 48  1  0  0  0
 42 43  1  0  0  0
 42 66  1  0  0  0
 42110  1  0  0  0
 42111  1  0  0  0
 43 44  1  0  0  0
 44112  1  0  0  0
 45 46  2  0  0  0
 45113  1  0  0  0
 46114  1  0  0  0
 47115  1  0  0  0
 47116  1  0  0  0
 48 56  1  0  0  0
 48 65  1  0  0  0
 48117  1  0  0  0
 49 50  1  0  0  0
 49 53  1  0  0  0
 49 64  1  0  0  0
 49118  1  0  0  0
 50 51  1  0  0  0
 50119  1  0  0  0
 50120  1  0  0  0
 51 52  1  0  0  0
 51121  1  0  0  0
 51122  1  0  0  0
 52123  1  0  0  0
 52124  1  0  0  0
 53 54  1  0  0  0
 54 55  2  0  0  0
 54125  1  0  0  0
 55 57  1  0  0  0
 55126  1  0  0  0
 56 69  2  0  0  0
 57 58  2  0  0  0
 57127  1  0  0  0
 58128  1  0  0  0
 59 60  1  0  0  0
 59 61  1  0  0  0
 59 62  1  0  0  0
 60129  1  0  0  0
 60130  1  0  0  0
 60131  1  0  0  0
 61132  1  0  0  0
 61133  1  0  0  0
 61134  1  0  0  0
 62135  1  0  0  0
 62136  1  0  0  0
 62137  1  0  0  0
 63 65  1  0  0  0
 63138  1  0  0  0
 63139  1  0  0  0
 63140  1  0  0  0
 64141  1  0  0  0
 65142  1  0  0  0
 68 76  1  0  0  0
 71 72  2  0  0  0
 71 75  1  0  0  0
 71 81  1  0  0  0
 72 80  1  0  0  0
 72 83  1  0  0  0
 73 76  1  0  0  0
 73 80  2  0  0  0
 73 81  1  0  0  0
 74 78  1  0  0  0
 74143  1  0  0  0
 74144  1  0  0  0
 74145  1  0  0  0
 75 77  1  0  0  0
 75146  1  0  0  0
 75147  1  0  0  0
 76148  1  0  0  0
 76149  1  0  0  0
 77 79  1  0  0  0
 77150  1  0  0  0
 77151  1  0  0  0
 78 81  1  0  0  0
 78152  1  0  0  0
 78153  1  0  0  0
 79 82  1  0  0  0
 79154  1  0  0  0
 79155  1  0  0  0
 82156  1  0  0  0
M  ISO  4   1 100  68 101  76 101  82 100
M  END
> <chiral flag>
0

> <version>
0

> <s_m_source_file>
/data/baiqing/PycharmProjects/Reinvent-master-3.2/result/LINK_invent/BTK/process_docking_weight1_custom_sum_contain_oxygen_bond_distance_aromatic_linkinvent_7_9_3/rearranged_h_0020.sdf

> <i_m_source_file_index>
52

> <r_mmod_Potential_Energy-OPLS-2005>
212.682067871094

> <r_mmod_Stretch_Energy-OPLS-2005>
127.017143249512

> <r_mmod_Bend_Energy-OPLS-2005>
193.581588745117

> <r_mmod_Torsional_Energy-OPLS-2005>
230.174163818359

> <r_mmod_Improper_Torsional_Energy-OPLS-2005>
5.67997741699219

> <r_mmod_Van_der_Waal_Energy-OPLS-2005>
120.448890686035

> <r_mmod_Electrostatic_Energy-OPLS-2005>
-335.238586425781

> <r_mmod_Solvation_Energy-OPLS-2005>
-229.588027954102

> <b_mmod_Minimization_Converged-OPLS-2005>
0

> <r_mmod_RMS_Derivative-OPLS-2005>
5.57387256622314

$$$$
52
                    3D
 Structure written by MMmdl.
150158  0  0  1  0            999 V2000
  -30.4104  -15.3276   20.3502 C   0  0  0  0  0  0
  -30.4357  -12.8457   19.5437 C   0  0  0  0  0  0
  -29.5419  -12.5921   18.3014 C   0  0  0  0  0  0
  -28.0914  -12.3055   18.7234 C   0  0  0  0  0  0
  -27.6105  -13.2816   19.8252 C   0  0  2  0  0  0
  -28.6380  -13.4796   20.9619 C   0  0  0  0  0  0
  -25.2377  -13.8256   20.5746 C   0  0  0  0  0  0
  -24.1739  -13.0439   20.9258 C   0  0  0  0  0  0
  -24.6402  -11.6941   20.8757 C   0  0  0  0  0  0
  -23.9095  -10.4300   21.0404 C   0  0  0  0  0  0
  -24.3643   -9.4214   21.9181 C   0  0  0  0  0  0
  -23.6313   -8.2251   22.0751 C   0  0  0  0  0  0
  -22.4292   -8.0283   21.3547 C   0  0  0  0  0  0
  -21.9932   -9.0255   20.4647 C   0  0  0  0  0  0
  -22.7263  -10.2135   20.3056 C   0  0  0  0  0  0
  -21.6859   -6.0740   22.5281 C   0  0  0  0  0  0
  -21.4017   -6.5645   23.8213 C   0  0  0  0  0  0
  -21.3661   -5.6796   24.9174 C   0  0  0  0  0  0
  -21.6043   -4.3057   24.7223 C   0  0  0  0  0  0
  -21.8817   -3.8151   23.4343 C   0  0  0  0  0  0
  -21.9197   -4.6968   22.3401 C   0  0  0  0  0  0
  -22.7759  -13.5187   21.1897 C   0  0  0  0  0  0
  -22.1664   -4.2156   21.0978 F   0  0  0  0  0  0
  -21.5629   -3.4537   25.7735 F   0  0  0  0  0  0
  -29.8669  -14.0024   20.3406 N   0  0  0  0  0  0
  -26.2812  -12.9544   20.3222 N   0  0  0  0  0  0
  -25.9342  -11.6645   20.5719 N   0  0  0  0  0  0
  -22.0424  -12.8175   22.0459 N   0  0  0  0  0  0
  -25.3998  -15.1991   20.4175 N   0  0  0  0  0  0
  -31.6220  -15.3263   20.0857 O   0  0  0  0  0  0
  -21.6649   -6.8887   21.4243 O   0  0  0  0  0  0
  -22.3443  -14.5483   20.6721 O   0  0  0  0  0  0
  -24.6661  -31.8192   23.1674 C   0  0  0  0  0  0
  -25.9325  -32.4563   23.8149 C   0  0  1  0  0  0
  -27.2202  -26.8860   20.1805 C   0  0  0  0  0  0
  -25.5982  -33.8382   24.2048 N   0  0  0  0  0  0
  -23.4837  -30.4279   21.5164 C   0  0  2  0  0  0
  -24.9392  -28.8104   20.1070 C   0  0  0  0  0  0
  -22.7683  -29.4412   22.4768 C   0  0  0  0  0  0
  -18.0319  -28.1406   22.8462 C   0  0  0  0  0  0
  -24.1497  -36.7192   23.2648 C   0  0  0  0  0  0
  -26.0556  -30.6102   21.4068 C   0  0  0  0  0  0
  -26.1214  -29.1965   20.7496 C   0  0  0  0  0  0
  -27.2510  -28.2531   20.7670 C   0  0  0  0  0  0
  -26.0146  -26.6717   19.4730 C   0  0  0  0  0  0
  -24.9139  -27.5702   19.4485 C   0  0  0  0  0  0
  -23.7259  -29.7413   20.1431 C   0  0  0  0  0  0
  -25.4138  -36.2948   24.0294 C   0  0  1  0  0  0
  -20.5948  -28.3750   23.1182 C   0  0  2  0  0  0
  -20.6796  -26.9428   22.5404 C   0  0  0  0  0  0
  -19.5772  -26.6371   21.5216 C   0  0  0  0  0  0
  -18.1952  -26.7937   22.1620 C   0  0  0  0  0  0
  -19.1584  -28.8899   23.2806 C   0  0  0  0  0  0
  -18.9494  -30.1487   23.8842 C   0  0  0  0  0  0
  -17.6488  -30.6595   24.0549 C   0  0  0  0  0  0
  -25.9108  -34.9334   23.4994 C   0  0  0  0  0  0
  -16.5376  -29.9080   23.6347 C   0  0  0  0  0  0
  -16.7301  -28.6501   23.0365 C   0  0  0  0  0  0
  -26.4564  -31.6529   25.0699 C   0  0  0  0  0  0
  -25.3682  -31.3793   26.1350 C   0  0  0  0  0  0
  -27.0468  -30.2886   24.6482 C   0  0  0  0  0  0
  -27.6042  -32.4357   25.7502 C   0  0  0  0  0  0
  -27.5571  -37.1747   24.8461 C   0  0  0  0  0  0
  -21.4348  -29.3033   22.3524 N   0  0  0  0  0  0
  -26.4272  -37.3695   23.9414 N   0  0  0  0  0  0
  -24.7564  -30.9810   22.0831 N   0  0  0  0  0  0
  -23.4213  -28.7994   23.3032 O   0  0  0  0  0  0
  -28.2001  -25.7501   20.3141 O   0  0  0  0  0  0
  -26.5725  -34.8878   22.4596 O   0  0  0  0  0  0
  -23.5719  -32.1187   23.6735 O   0  0  0  0  0  0
  -28.6441  -21.2082   22.5971 C   0  0  0  0  0  0
  -28.4384  -22.4505   21.9269 C   0  0  0  0  0  0
  -28.5702  -22.5887   20.5228 C   0  0  0  0  0  0
  -29.1998  -19.8230   20.5963 C   0  0  0  0  0  0
  -28.9950  -19.9695   21.9892 C   0  0  0  0  0  0
  -28.9602  -21.2057   19.9113 C   0  0  0  0  0  0
  -28.0342  -23.6545   22.7616 C   0  0  0  0  0  0
  -29.7678  -18.2431   20.0126 C   0  0  0  0  0  0
  -28.1042  -24.1533   19.8260 C   0  0  0  0  0  0
  -29.6380  -16.6082   20.4548 N   0  0  0  0  0  0
  -29.1972  -18.6088   23.0340 Cl  0  0  0  0  0  0
  -29.1495  -21.2024   18.1956 Cl  0  0  0  0  0  0
  -31.4557  -13.0477   19.2144 H   0  0  0  0  0  0
  -30.5054  -11.9460   20.1579 H   0  0  0  0  0  0
  -29.9336  -11.7606   17.7147 H   0  0  0  0  0  0
  -29.5672  -13.4679   17.6510 H   0  0  0  0  0  0
  -28.0554  -11.2821   19.0983 H   0  0  0  0  0  0
  -27.4261  -12.3400   17.8594 H   0  0  0  0  0  0
  -27.5184  -14.2431   19.3185 H   0  0  0  0  0  0
  -28.8148  -12.5523   21.5084 H   0  0  0  0  0  0
  -28.2634  -14.2019   21.6888 H   0  0  0  0  0  0
  -25.2791   -9.5688   22.4752 H   0  0  0  0  0  0
  -24.0025   -7.4646   22.7470 H   0  0  0  0  0  0
  -21.0861   -8.8768   19.8954 H   0  0  0  0  0  0
  -22.3717  -10.9668   19.6162 H   0  0  0  0  0  0
  -21.2008   -7.6154   23.9717 H   0  0  0  0  0  0
  -21.1486   -6.0527   25.9076 H   0  0  0  0  0  0
  -22.0596   -2.7614   23.2838 H   0  0  0  0  0  0
  -22.4073  -11.9855   22.4855 H   0  0  0  0  0  0
  -21.1024  -13.1159   22.2645 H   0  0  0  0  0  0
  -24.6262  -15.8451   20.5300 H   0  0  0  0  0  0
  -26.2353  -15.6420   20.0586 H   0  0  0  0  0  0
  -26.7399  -32.5082   23.0862 H   0  0  0  0  0  0
  -25.0062  -33.9458   25.0154 H   0  0  0  0  0  0
  -22.7998  -31.2609   21.3409 H   0  0  0  0  0  0
  -23.3774  -35.9506   23.3261 H   0  0  0  0  0  0
  -24.3581  -36.8893   22.2074 H   0  0  0  0  0  0
  -23.7239  -37.6355   23.6743 H   0  0  0  0  0  0
  -26.2447  -31.3496   20.6275 H   0  0  0  0  0  0
  -26.9128  -30.6661   22.0654 H   0  0  0  0  0  0
  -28.1384  -28.5414   21.3121 H   0  0  0  0  0  0
  -25.8758  -25.7309   18.9632 H   0  0  0  0  0  0
  -24.0174  -27.2708   18.9227 H   0  0  0  0  0  0
  -23.8828  -30.5085   19.3841 H   0  0  0  0  0  0
  -22.8355  -29.1956   19.8246 H   0  0  0  0  0  0
  -25.1341  -36.1726   25.0783 H   0  0  0  0  0  0
  -21.0031  -28.3354   24.1305 H   0  0  0  0  0  0
  -20.5673  -26.2367   23.3646 H   0  0  0  0  0  0
  -21.6659  -26.7399   22.1211 H   0  0  0  0  0  0
  -19.6933  -25.6268   21.1277 H   0  0  0  0  0  0
  -19.6712  -27.3155   20.6724 H   0  0  0  0  0  0
  -17.4222  -26.6672   21.4023 H   0  0  0  0  0  0
  -18.0343  -26.0095   22.9031 H   0  0  0  0  0  0
  -19.7971  -30.7316   24.2189 H   0  0  0  0  0  0
  -17.5041  -31.6273   24.5155 H   0  0  0  0  0  0
  -15.5376  -30.2966   23.7707 H   0  0  0  0  0  0
  -15.8698  -28.0804   22.7116 H   0  0  0  0  0  0
  -24.5874  -30.7133   25.7662 H   0  0  0  0  0  0
  -24.8860  -32.2996   26.4652 H   0  0  0  0  0  0
  -25.7909  -30.9039   27.0210 H   0  0  0  0  0  0
  -26.3143  -29.6547   24.1474 H   0  0  0  0  0  0
  -27.3952  -29.7276   25.5165 H   0  0  0  0  0  0
  -27.9110  -30.4048   23.9940 H   0  0  0  0  0  0
  -27.2595  -33.3705   26.1935 H   0  0  0  0  0  0
  -28.3921  -32.6848   25.0382 H   0  0  0  0  0  0
  -28.0634  -31.8583   26.5534 H   0  0  0  0  0  0
  -28.2544  -38.0083   24.7536 H   0  0  0  0  0  0
  -28.1106  -36.2609   24.6245 H   0  0  0  0  0  0
  -27.2290  -37.1336   25.8861 H   0  0  0  0  0  0
  -20.9607  -29.8711   21.6641 H   0  0  0  0  0  0
  -26.0106  -38.2742   24.1442 H   0  0  0  0  0  0
  -28.5208  -21.1927   23.6712 H   0  0  0  0  0  0
  -28.7780  -24.4471   22.6751 H   0  0  0  0  0  0
  -27.9420  -23.4027   23.8178 H   0  0  0  0  0  0
  -27.0709  -24.0483   22.4356 H   0  0  0  0  0  0
  -29.4298  -18.2347   18.9762 H   0  0  0  0  0  0
  -30.8447  -18.3913   19.9275 H   0  0  0  0  0  0
  -27.0496  -23.9959   19.6067 H   0  0  0  0  0  0
  -28.5742  -24.1552   18.8424 H   0  0  0  0  0  0
  -28.6930  -16.4005   20.7403 H   0  0  0  0  0  0
  1 25  1  0  0  0
  1 30  2  0  0  0
  1 80  1  0  0  0
  2  3  1  0  0  0
  2 25  1  0  0  0
  2 83  1  0  0  0
  2 84  1  0  0  0
  3  4  1  0  0  0
  3 85  1  0  0  0
  3 86  1  0  0  0
  4  5  1  0  0  0
  4 87  1  0  0  0
  4 88  1  0  0  0
  5  6  1  0  0  0
  5 26  1  0  0  0
  5 89  1  0  0  0
  6 25  1  0  0  0
  6 90  1  0  0  0
  6 91  1  0  0  0
  7  8  2  0  0  0
  7 26  1  0  0  0
  7 29  1  0  0  0
  8  9  1  0  0  0
  8 22  1  0  0  0
  9 10  1  0  0  0
  9 27  2  0  0  0
 10 11  2  0  0  0
 10 15  1  0  0  0
 11 12  1  0  0  0
 11 92  1  0  0  0
 12 13  2  0  0  0
 12 93  1  0  0  0
 13 14  1  0  0  0
 13 31  1  0  0  0
 14 15  2  0  0  0
 14 94  1  0  0  0
 15 95  1  0  0  0
 16 17  2  0  0  0
 16 21  1  0  0  0
 16 31  1  0  0  0
 17 18  1  0  0  0
 17 96  1  0  0  0
 18 19  2  0  0  0
 18 97  1  0  0  0
 19 20  1  0  0  0
 19 24  1  0  0  0
 20 21  2  0  0  0
 20 98  1  0  0  0
 21 23  1  0  0  0
 22 28  1  0  0  0
 22 32  2  0  0  0
 26 27  1  0  0  0
 28 99  1  0  0  0
 28100  1  0  0  0
 29101  1  0  0  0
 29102  1  0  0  0
 33 34  1  0  0  0
 33 66  1  0  0  0
 33 70  2  0  0  0
 34 36  1  0  0  0
 34 59  1  0  0  0
 34103  1  0  0  0
 35 44  2  0  0  0
 35 45  1  0  0  0
 35 68  1  0  0  0
 36 56  1  0  0  0
 36104  1  0  0  0
 37 39  1  0  0  0
 37 47  1  0  0  0
 37 66  1  0  0  0
 37105  1  0  0  0
 38 43  2  0  0  0
 38 46  1  0  0  0
 38 47  1  0  0  0
 39 64  1  0  0  0
 39 67  2  0  0  0
 40 52  1  0  0  0
 40 53  2  0  0  0
 40 58  1  0  0  0
 41106  1  0  0  0
 41107  1  0  0  0
 41108  1  0  0  0
 41 48  1  0  0  0
 42 43  1  0  0  0
 42 66  1  0  0  0
 42109  1  0  0  0
 42110  1  0  0  0
 43 44  1  0  0  0
 44111  1  0  0  0
 45 46  2  0  0  0
 45112  1  0  0  0
 46113  1  0  0  0
 47114  1  0  0  0
 47115  1  0  0  0
 48 56  1  0  0  0
 48 65  1  0  0  0
 48116  1  0  0  0
 49 50  1  0  0  0
 49 53  1  0  0  0
 49 64  1  0  0  0
 49117  1  0  0  0
 50 51  1  0  0  0
 50118  1  0  0  0
 50119  1  0  0  0
 51 52  1  0  0  0
 51120  1  0  0  0
 51121  1  0  0  0
 52122  1  0  0  0
 52123  1  0  0  0
 53 54  1  0  0  0
 54 55  2  0  0  0
 54124  1  0  0  0
 55 57  1  0  0  0
 55125  1  0  0  0
 56 69  2  0  0  0
 57 58  2  0  0  0
 57126  1  0  0  0
 58127  1  0  0  0
 59 60  1  0  0  0
 59 61  1  0  0  0
 59 62  1  0  0  0
 60128  1  0  0  0
 60129  1  0  0  0
 60130  1  0  0  0
 61131  1  0  0  0
 61132  1  0  0  0
 61133  1  0  0  0
 62134  1  0  0  0
 62135  1  0  0  0
 62136  1  0  0  0
 63 65  1  0  0  0
 63137  1  0  0  0
 63138  1  0  0  0
 63139  1  0  0  0
 64140  1  0  0  0
 65141  1  0  0  0
 68 79  1  0  0  0
 71 72  2  0  0  0
 71 75  1  0  0  0
 71142  1  0  0  0
 72 73  1  0  0  0
 72 77  1  0  0  0
 73 76  2  0  0  0
 73 79  1  0  0  0
 74 75  2  0  0  0
 74 76  1  0  0  0
 74 78  1  0  0  0
 75 81  1  0  0  0
 76 82  1  0  0  0
 77143  1  0  0  0
 77144  1  0  0  0
 77145  1  0  0  0
 78 80  1  0  0  0
 78146  1  0  0  0
 78147  1  0  0  0
 79148  1  0  0  0
 79149  1  0  0  0
 80150  1  0  0  0
M  ISO  4   1 100  68 101  79 101  80 100
M  END
> <chiral flag>
0

> <version>
0

> <s_m_source_file>
/data/baiqing/PycharmProjects/Reinvent-master-3.2/result/LINK_invent/BTK/process_docking_weight1_custom_sum_contain_oxygen_bond_distance_aromatic_linkinvent_7_9_3/rearranged_h_0020.sdf

> <i_m_source_file_index>
53

> <r_mmod_Potential_Energy-OPLS-2005>
1415.64440917969

> <r_mmod_Stretch_Energy-OPLS-2005>
656.433837890625

> <r_mmod_Bend_Energy-OPLS-2005>
440.695343017578

> <r_mmod_Torsional_Energy-OPLS-2005>
216.266067504883

> <r_mmod_Improper_Torsional_Energy-OPLS-2005>
5.70171117782593

> <r_mmod_Van_der_Waal_Energy-OPLS-2005>
121.740547180176

> <r_mmod_Electrostatic_Energy-OPLS-2005>
-347.319976806641

> <r_mmod_Solvation_Energy-OPLS-2005>
-206.501037597656

> <b_mmod_Minimization_Converged-OPLS-2005>
0

> <r_mmod_RMS_Derivative-OPLS-2005>
0.921828746795654

$$$$
53
                    3D
 Structure written by MMmdl.
165173  0  0  1  0            999 V2000
  -30.4689  -15.2521   20.3173 C   0  0  0  0  0  0
  -30.4355  -12.7993   19.4751 C   0  0  0  0  0  0
  -29.5209  -12.5574   18.2519 C   0  0  0  0  0  0
  -28.0733  -12.2896   18.6996 C   0  0  0  0  0  0
  -27.6056  -13.2685   19.8078 C   0  0  2  0  0  0
  -28.6579  -13.4597   20.9188 C   0  0  0  0  0  0
  -25.2347  -13.7999   20.5991 C   0  0  0  0  0  0
  -24.1676  -13.0211   20.9309 C   0  0  0  0  0  0
  -24.6384  -11.6762   20.8734 C   0  0  0  0  0  0
  -23.9082  -10.4158   21.0365 C   0  0  0  0  0  0
  -24.3624   -9.4117   21.9178 C   0  0  0  0  0  0
  -23.6270   -8.2178   22.0762 C   0  0  0  0  0  0
  -22.4255   -8.0237   21.3537 C   0  0  0  0  0  0
  -21.9902   -9.0201   20.4626 C   0  0  0  0  0  0
  -22.7251  -10.2053   20.3015 C   0  0  0  0  0  0
  -21.6832   -6.0701   22.5281 C   0  0  0  0  0  0
  -21.4003   -6.5611   23.8216 C   0  0  0  0  0  0
  -21.3656   -5.6773   24.9186 C   0  0  0  0  0  0
  -21.6061   -4.3040   24.7231 C   0  0  0  0  0  0
  -21.8822   -3.8119   23.4349 C   0  0  0  0  0  0
  -21.9194   -4.6934   22.3404 C   0  0  0  0  0  0
  -22.7713  -13.5047   21.1905 C   0  0  0  0  0  0
  -22.1661   -4.2128   21.0976 F   0  0  0  0  0  0
  -21.5632   -3.4526   25.7741 F   0  0  0  0  0  0
  -29.8753  -13.9587   20.2525 N   0  0  0  0  0  0
  -26.2810  -12.9382   20.3252 N   0  0  0  0  0  0
  -25.9327  -11.6474   20.5646 N   0  0  0  0  0  0
  -22.0330  -12.8068   22.0452 N   0  0  0  0  0  0
  -25.3817  -15.1662   20.4858 N   0  0  0  0  0  0
  -31.7092  -15.1975   20.3139 O   0  0  0  0  0  0
  -21.6607   -6.8847   21.4238 O   0  0  0  0  0  0
  -22.3452  -14.5382   20.6765 O   0  0  0  0  0  0
  -24.6567  -31.8305   23.1698 C   0  0  0  0  0  0
  -25.9275  -32.4615   23.8163 C   0  0  1  0  0  0
  -27.2455  -27.0107   20.1656 C   0  0  0  0  0  0
  -25.5949  -33.8427   24.2068 N   0  0  0  0  0  0
  -23.4667  -30.4361   21.5198 C   0  0  2  0  0  0
  -24.9239  -28.8294   20.1058 C   0  0  0  0  0  0
  -22.7634  -29.4469   22.4838 C   0  0  0  0  0  0
  -18.0307  -28.1392   22.8458 C   0  0  0  0  0  0
  -24.1480  -36.7249   23.2649 C   0  0  0  0  0  0
  -26.0274  -30.6613   21.3872 C   0  0  0  0  0  0
  -26.1008  -29.2566   20.7337 C   0  0  0  0  0  0
  -27.2510  -28.3636   20.7436 C   0  0  0  0  0  0
  -26.0464  -26.7135   19.4829 C   0  0  0  0  0  0
  -24.9177  -27.5786   19.4618 C   0  0  0  0  0  0
  -23.6994  -29.7430   20.1466 C   0  0  0  0  0  0
  -25.4120  -36.3003   24.0296 C   0  0  1  0  0  0
  -20.5928  -28.3739   23.1214 C   0  0  2  0  0  0
  -20.6786  -26.9434   22.5411 C   0  0  0  0  0  0
  -19.5760  -26.6373   21.5215 C   0  0  0  0  0  0
  -18.1936  -26.7925   22.1613 C   0  0  0  0  0  0
  -19.1568  -28.8884   23.2806 C   0  0  0  0  0  0
  -18.9485  -30.1479   23.8843 C   0  0  0  0  0  0
  -17.6480  -30.6583   24.0557 C   0  0  0  0  0  0
  -25.9092  -34.9374   23.5014 C   0  0  0  0  0  0
  -16.5364  -29.9077   23.6346 C   0  0  0  0  0  0
  -16.7294  -28.6493   23.0365 C   0  0  0  0  0  0
  -26.4521  -31.6549   25.0691 C   0  0  0  0  0  0
  -25.3668  -31.3789   26.1365 C   0  0  0  0  0  0
  -27.0436  -30.2935   24.6395 C   0  0  0  0  0  0
  -27.5997  -32.4382   25.7505 C   0  0  0  0  0  0
  -27.5564  -37.1780   24.8456 C   0  0  0  0  0  0
  -21.4317  -29.3036   22.3578 N   0  0  0  0  0  0
  -26.4269  -37.3732   23.9406 N   0  0  0  0  0  0
  -24.7373  -31.0032   22.0791 N   0  0  0  0  0  0
  -23.4200  -28.8063   23.3078 O   0  0  0  0  0  0
  -28.3082  -25.9985   20.2980 O   0  0  0  0  0  0
  -26.5727  -34.8895   22.4625 O   0  0  0  0  0  0
  -23.5657  -32.1247   23.6843 O   0  0  0  0  0  0
  -28.3071  -20.3559   19.5014 C   0  0  0  0  0  0
  -29.0004  -21.2991   20.3282 C   0  0  0  0  0  0
  -28.5557  -18.9111   19.3274 C   0  0  0  0  0  0
  -30.0596  -20.5103   20.9757 C   0  0  0  0  0  0
  -30.2808  -19.0213   20.8819 C   0  0  0  0  0  0
  -29.5514  -18.0676   20.0384 C   0  0  0  0  0  0
  -31.0534  -21.3121   21.8037 C   0  0  0  0  0  0
  -31.4029  -18.4232   21.7174 C   0  0  0  0  0  0
  -26.5535  -17.4462   18.9764 C   0  0  0  0  0  0
  -28.5228  -23.2316   22.1572 C   0  0  0  0  0  0
  -29.8628  -16.2498   18.3068 C   0  0  0  0  0  0
  -27.5791  -18.3298   18.3074 C   0  0  0  0  0  0
  -28.4577  -24.4560   19.8198 C   0  0  0  0  0  0
  -28.4255  -22.9097   20.6578 C   0  0  1  0  0  0
  -29.8129  -16.4711   19.7633 N   0  0  0  0  0  0
  -31.4478  -13.0055   19.1260 H   0  0  0  0  0  0
  -30.5028  -11.9010   20.0922 H   0  0  0  0  0  0
  -29.8926  -11.7230   17.6548 H   0  0  0  0  0  0
  -29.5426  -13.4312   17.5987 H   0  0  0  0  0  0
  -28.0372  -11.2660   19.0735 H   0  0  0  0  0  0
  -27.4002  -12.3316   17.8411 H   0  0  0  0  0  0
  -27.5067  -14.2317   19.3058 H   0  0  0  0  0  0
  -28.8354  -12.5320   21.4685 H   0  0  0  0  0  0
  -28.3093  -14.2002   21.6409 H   0  0  0  0  0  0
  -25.2768   -9.5595   22.4759 H   0  0  0  0  0  0
  -23.9962   -7.4565   22.7496 H   0  0  0  0  0  0
  -21.0840   -8.8723   19.8920 H   0  0  0  0  0  0
  -22.3747  -10.9592   19.6108 H   0  0  0  0  0  0
  -21.1997   -7.6121   23.9712 H   0  0  0  0  0  0
  -21.1478   -6.0503   25.9090 H   0  0  0  0  0  0
  -22.0614   -2.7578   23.2856 H   0  0  0  0  0  0
  -22.3924  -11.9753   22.4897 H   0  0  0  0  0  0
  -21.0933  -13.1117   22.2570 H   0  0  0  0  0  0
  -24.6131  -15.8141   20.6125 H   0  0  0  0  0  0
  -26.2372  -15.6128   20.1861 H   0  0  0  0  0  0
  -26.7343  -32.5163   23.0883 H   0  0  0  0  0  0
  -25.0030  -33.9472   25.0169 H   0  0  0  0  0  0
  -22.7768  -31.2663   21.3500 H   0  0  0  0  0  0
  -23.3740  -35.9582   23.3284 H   0  0  0  0  0  0
  -24.3565  -36.8950   22.2078 H   0  0  0  0  0  0
  -23.7220  -37.6418   23.6735 H   0  0  0  0  0  0
  -26.1984  -31.4058   20.6081 H   0  0  0  0  0  0
  -26.8928  -30.7200   22.0368 H   0  0  0  0  0  0
  -28.1430  -28.6898   21.2593 H   0  0  0  0  0  0
  -25.9517  -25.7559   18.9913 H   0  0  0  0  0  0
  -24.0230  -27.2497   18.9495 H   0  0  0  0  0  0
  -23.8304  -30.5076   19.3803 H   0  0  0  0  0  0
  -22.8122  -29.1836   19.8470 H   0  0  0  0  0  0
  -25.1299  -36.1829   25.0785 H   0  0  0  0  0  0
  -20.9978  -28.3344   24.1353 H   0  0  0  0  0  0
  -20.5673  -26.2362   23.3644 H   0  0  0  0  0  0
  -21.6648  -26.7421   22.1218 H   0  0  0  0  0  0
  -19.6932  -25.6272   21.1289 H   0  0  0  0  0  0
  -19.6699  -27.3150   20.6721 H   0  0  0  0  0  0
  -17.4216  -26.6691   21.4009 H   0  0  0  0  0  0
  -18.0303  -26.0065   22.9007 H   0  0  0  0  0  0
  -19.7970  -30.7305   24.2176 H   0  0  0  0  0  0
  -17.5045  -31.6263   24.5170 H   0  0  0  0  0  0
  -15.5361  -30.2964   23.7704 H   0  0  0  0  0  0
  -15.8694  -28.0799   22.7107 H   0  0  0  0  0  0
  -24.5820  -30.7171   25.7671 H   0  0  0  0  0  0
  -24.8877  -32.2992   26.4733 H   0  0  0  0  0  0
  -25.7905  -30.8993   27.0194 H   0  0  0  0  0  0
  -26.3112  -29.6592   24.1384 H   0  0  0  0  0  0
  -27.3981  -29.7304   25.5034 H   0  0  0  0  0  0
  -27.9022  -30.4139   23.9781 H   0  0  0  0  0  0
  -27.2531  -33.3704   26.1973 H   0  0  0  0  0  0
  -28.3847  -32.6929   25.0379 H   0  0  0  0  0  0
  -28.0614  -31.8613   26.5526 H   0  0  0  0  0  0
  -28.2547  -38.0104   24.7524 H   0  0  0  0  0  0
  -28.1086  -36.2637   24.6248 H   0  0  0  0  0  0
  -27.2301  -37.1394   25.8860 H   0  0  0  0  0  0
  -20.9585  -29.8738   21.6713 H   0  0  0  0  0  0
  -26.0137  -38.2799   24.1399 H   0  0  0  0  0  0
  -27.4806  -20.7913   18.9582 H   0  0  0  0  0  0
  -30.7961  -21.2944   22.8624 H   0  0  0  0  0  0
  -31.0927  -22.3477   21.4716 H   0  0  0  0  0  0
  -32.0714  -20.9395   21.6823 H   0  0  0  0  0  0
  -31.4969  -18.9081   22.6885 H   0  0  0  0  0  0
  -32.3546  -18.5159   21.1939 H   0  0  0  0  0  0
  -31.2310  -17.3707   21.9262 H   0  0  0  0  0  0
  -25.8303  -17.0542   18.2617 H   0  0  0  0  0  0
  -26.0026  -17.9880   19.7463 H   0  0  0  0  0  0
  -27.0824  -16.6201   19.4399 H   0  0  0  0  0  0
  -29.5291  -23.5122   22.4598 H   0  0  0  0  0  0
  -28.1980  -22.3919   22.7728 H   0  0  0  0  0  0
  -27.8755  -24.0763   22.4015 H   0  0  0  0  0  0
  -30.1185  -17.1699   17.7809 H   0  0  0  0  0  0
  -28.9055  -15.8696   17.9512 H   0  0  0  0  0  0
  -30.6238  -15.5484   17.9538 H   0  0  0  0  0  0
  -28.0810  -17.8285   17.4888 H   0  0  0  0  0  0
  -27.0299  -19.1155   17.7893 H   0  0  0  0  0  0
  -29.4758  -24.4806   19.4311 H   0  0  0  0  0  0
  -27.8486  -24.3501   18.9222 H   0  0  0  0  0  0
  -27.3624  -22.6924   20.5487 H   0  0  0  0  0  0
  1 25  1  0  0  0
  1 30  2  0  0  0
  1 85  1  0  0  0
  2  3  1  0  0  0
  2 25  1  0  0  0
  2 86  1  0  0  0
  2 87  1  0  0  0
  3  4  1  0  0  0
  3 88  1  0  0  0
  3 89  1  0  0  0
  4  5  1  0  0  0
  4 90  1  0  0  0
  4 91  1  0  0  0
  5  6  1  0  0  0
  5 26  1  0  0  0
  5 92  1  0  0  0
  6 25  1  0  0  0
  6 93  1  0  0  0
  6 94  1  0  0  0
  7  8  2  0  0  0
  7 26  1  0  0  0
  7 29  1  0  0  0
  8  9  1  0  0  0
  8 22  1  0  0  0
  9 10  1  0  0  0
  9 27  2  0  0  0
 10 11  2  0  0  0
 10 15  1  0  0  0
 11 12  1  0  0  0
 11 95  1  0  0  0
 12 13  2  0  0  0
 12 96  1  0  0  0
 13 14  1  0  0  0
 13 31  1  0  0  0
 14 15  2  0  0  0
 14 97  1  0  0  0
 15 98  1  0  0  0
 16 17  2  0  0  0
 16 21  1  0  0  0
 16 31  1  0  0  0
 17 18  1  0  0  0
 17 99  1  0  0  0
 18 19  2  0  0  0
 18100  1  0  0  0
 19 20  1  0  0  0
 19 24  1  0  0  0
 20 21  2  0  0  0
 20101  1  0  0  0
 21 23  1  0  0  0
 22 28  1  0  0  0
 22 32  2  0  0  0
 26 27  1  0  0  0
 28102  1  0  0  0
 28103  1  0  0  0
 29104  1  0  0  0
 29105  1  0  0  0
 33 34  1  0  0  0
 33 66  1  0  0  0
 33 70  2  0  0  0
 34 36  1  0  0  0
 34 59  1  0  0  0
 34106  1  0  0  0
 35 44  2  0  0  0
 35 45  1  0  0  0
 35 68  1  0  0  0
 36 56  1  0  0  0
 36107  1  0  0  0
 37 39  1  0  0  0
 37 47  1  0  0  0
 37 66  1  0  0  0
 37108  1  0  0  0
 38 43  2  0  0  0
 38 46  1  0  0  0
 38 47  1  0  0  0
 39 64  1  0  0  0
 39 67  2  0  0  0
 40 52  1  0  0  0
 40 53  2  0  0  0
 40 58  1  0  0  0
 41109  1  0  0  0
 41110  1  0  0  0
 41111  1  0  0  0
 41 48  1  0  0  0
 42 43  1  0  0  0
 42 66  1  0  0  0
 42112  1  0  0  0
 42113  1  0  0  0
 43 44  1  0  0  0
 44114  1  0  0  0
 45 46  2  0  0  0
 45115  1  0  0  0
 46116  1  0  0  0
 47117  1  0  0  0
 47118  1  0  0  0
 48 56  1  0  0  0
 48 65  1  0  0  0
 48119  1  0  0  0
 49 50  1  0  0  0
 49 53  1  0  0  0
 49 64  1  0  0  0
 49120  1  0  0  0
 50 51  1  0  0  0
 50121  1  0  0  0
 50122  1  0  0  0
 51 52  1  0  0  0
 51123  1  0  0  0
 51124  1  0  0  0
 52125  1  0  0  0
 52126  1  0  0  0
 53 54  1  0  0  0
 54 55  2  0  0  0
 54127  1  0  0  0
 55 57  1  0  0  0
 55128  1  0  0  0
 56 69  2  0  0  0
 57 58  2  0  0  0
 57129  1  0  0  0
 58130  1  0  0  0
 59 60  1  0  0  0
 59 61  1  0  0  0
 59 62  1  0  0  0
 60131  1  0  0  0
 60132  1  0  0  0
 60133  1  0  0  0
 61134  1  0  0  0
 61135  1  0  0  0
 61136  1  0  0  0
 62137  1  0  0  0
 62138  1  0  0  0
 62139  1  0  0  0
 63 65  1  0  0  0
 63140  1  0  0  0
 63141  1  0  0  0
 63142  1  0  0  0
 64143  1  0  0  0
 65144  1  0  0  0
 68 83  1  0  0  0
 71 72  2  0  0  0
 71 73  1  0  0  0
 71145  1  0  0  0
 72 74  1  0  0  0
 72 84  1  0  0  0
 73 76  2  0  0  0
 73 82  1  0  0  0
 74 75  2  0  0  0
 74 77  1  0  0  0
 75 76  1  0  0  0
 75 78  1  0  0  0
 76 85  1  0  0  0
 77146  1  0  0  0
 77147  1  0  0  0
 77148  1  0  0  0
 78149  1  0  0  0
 78150  1  0  0  0
 78151  1  0  0  0
 79 82  1  0  0  0
 79152  1  0  0  0
 79153  1  0  0  0
 79154  1  0  0  0
 80155  1  0  0  0
 80156  1  0  0  0
 80157  1  0  0  0
 80 84  1  0  0  0
 81 85  1  0  0  0
 81158  1  0  0  0
 81159  1  0  0  0
 81160  1  0  0  0
 82161  1  0  0  0
 82162  1  0  0  0
 83 84  1  0  0  0
 83163  1  0  0  0
 83164  1  0  0  0
 84165  1  0  0  0
M  ISO  4   1 100  68 101  83 101  85 100
M  END
> <chiral flag>
0

> <version>
0

> <s_m_source_file>
/data/baiqing/PycharmProjects/Reinvent-master-3.2/result/LINK_invent/BTK/process_docking_weight1_custom_sum_contain_oxygen_bond_distance_aromatic_linkinvent_7_9_3/rearranged_h_0020.sdf

> <i_m_source_file_index>
54

> <r_mmod_Potential_Energy-OPLS-2005>
1384.90173339844

> <r_mmod_Stretch_Energy-OPLS-2005>
491.796203613281

> <r_mmod_Bend_Energy-OPLS-2005>
485.683715820312

> <r_mmod_Torsional_Energy-OPLS-2005>
324.579956054688

> <r_mmod_Improper_Torsional_Energy-OPLS-2005>
29.4346961975098

> <r_mmod_Van_der_Waal_Energy-OPLS-2005>
154.440551757812

> <r_mmod_Electrostatic_Energy-OPLS-2005>
-323.193237304688

> <r_mmod_Solvation_Energy-OPLS-2005>
-181.336837768555

> <b_mmod_Minimization_Converged-OPLS-2005>
0

> <r_mmod_RMS_Derivative-OPLS-2005>
3.47317385673523

$$$$
54
                    3D
 Structure written by MMmdl.
166174  0  0  1  0            999 V2000
  -30.7123  -14.4981   20.6138 C   0  0  0  0  0  0
  -30.4399  -12.3418   19.4225 C   0  0  0  0  0  0
  -29.5004  -12.5082   18.2060 C   0  0  0  0  0  0
  -28.0176  -12.3644   18.6104 C   0  0  0  0  0  0
  -27.6664  -13.1831   19.8791 C   0  0  2  0  0  0
  -28.7132  -12.9075   20.9769 C   0  0  0  0  0  0
  -25.2648  -13.8096   20.5665 C   0  0  0  0  0  0
  -24.1893  -13.0417   20.9212 C   0  0  0  0  0  0
  -24.6408  -11.6866   20.8776 C   0  0  0  0  0  0
  -23.9054  -10.4276   21.0446 C   0  0  0  0  0  0
  -24.3597   -9.4183   21.9212 C   0  0  0  0  0  0
  -23.6278   -8.2220   22.0766 C   0  0  0  0  0  0
  -22.4259   -8.0273   21.3555 C   0  0  0  0  0  0
  -21.9886   -9.0259   20.4672 C   0  0  0  0  0  0
  -22.7227  -10.2133   20.3091 C   0  0  0  0  0  0
  -21.6848   -6.0726   22.5276 C   0  0  0  0  0  0
  -21.4007   -6.5630   23.8213 C   0  0  0  0  0  0
  -21.3665   -5.6790   24.9182 C   0  0  0  0  0  0
  -21.6052   -4.3058   24.7232 C   0  0  0  0  0  0
  -21.8823   -3.8141   23.4356 C   0  0  0  0  0  0
  -21.9192   -4.6955   22.3406 C   0  0  0  0  0  0
  -22.7920  -13.5242   21.1857 C   0  0  0  0  0  0
  -22.1674   -4.2136   21.0990 F   0  0  0  0  0  0
  -21.5635   -3.4553   25.7753 F   0  0  0  0  0  0
  -30.0303  -13.3149   20.4610 N   0  0  0  0  0  0
  -26.3060  -12.9213   20.3374 N   0  0  0  0  0  0
  -25.9324  -11.6407   20.5806 N   0  0  0  0  0  0
  -22.0539  -12.8241   22.0396 N   0  0  0  0  0  0
  -25.4357  -15.1809   20.3970 N   0  0  0  0  0  0
  -31.8245  -14.6151   20.0895 O   0  0  0  0  0  0
  -21.6632   -6.8864   21.4236 O   0  0  0  0  0  0
  -22.3632  -14.5558   20.6693 O   0  0  0  0  0  0
  -24.6127  -31.8682   23.2084 C   0  0  0  0  0  0
  -25.9035  -32.4819   23.8378 C   0  0  1  0  0  0
  -27.2452  -27.4528   20.0958 C   0  0  0  0  0  0
  -25.5901  -33.8616   24.2324 N   0  0  0  0  0  0
  -23.4013  -30.4905   21.5464 C   0  0  2  0  0  0
  -24.8519  -28.9528   20.1164 C   0  0  0  0  0  0
  -22.7410  -29.4662   22.4967 C   0  0  0  0  0  0
  -18.0296  -28.1360   22.8476 C   0  0  0  0  0  0
  -24.1493  -36.7318   23.2638 C   0  0  0  0  0  0
  -25.9277  -30.8388   21.3585 C   0  0  0  0  0  0
  -26.0089  -29.4735   20.7099 C   0  0  0  0  0  0
  -27.2106  -28.7315   20.6938 C   0  0  0  0  0  0
  -26.0729  -26.9370   19.5047 C   0  0  0  0  0  0
  -24.8775  -27.6826   19.5130 C   0  0  0  0  0  0
  -23.6120  -29.8171   20.1629 C   0  0  0  0  0  0
  -25.4112  -36.3108   24.0335 C   0  0  1  0  0  0
  -20.5878  -28.3669   23.1341 C   0  0  2  0  0  0
  -20.6780  -26.9378   22.5499 C   0  0  0  0  0  0
  -19.5816  -26.6373   21.5236 C   0  0  0  0  0  0
  -18.1957  -26.7934   22.1561 C   0  0  0  0  0  0
  -19.1533  -28.8827   23.2905 C   0  0  0  0  0  0
  -18.9440  -30.1430   23.8909 C   0  0  0  0  0  0
  -17.6432  -30.6562   24.0540 C   0  0  0  0  0  0
  -25.9034  -34.9470   23.5133 C   0  0  0  0  0  0
  -16.5339  -29.9040   23.6298 C   0  0  0  0  0  0
  -16.7269  -28.6463   23.0326 C   0  0  0  0  0  0
  -26.4462  -31.6598   25.0707 C   0  0  0  0  0  0
  -25.3740  -31.3706   26.1470 C   0  0  0  0  0  0
  -27.0288  -30.3042   24.6085 C   0  0  0  0  0  0
  -27.6054  -32.4295   25.7467 C   0  0  0  0  0  0
  -27.5581  -37.1810   24.8463 C   0  0  0  0  0  0
  -21.4141  -29.3017   22.3709 N   0  0  0  0  0  0
  -26.4296  -37.3789   23.9405 N   0  0  0  0  0  0
  -24.6654  -31.0803   22.0966 N   0  0  0  0  0  0
  -23.4192  -28.8219   23.3011 O   0  0  0  0  0  0
  -28.4187  -26.7345   20.0750 O   0  0  0  0  0  0
  -26.5589  -34.8912   22.4681 O   0  0  0  0  0  0
  -23.5324  -32.1421   23.7494 O   0  0  0  0  0  0
  -27.3273  -22.7496   21.5838 C   0  0  0  0  0  0
  -28.3845  -22.9273   20.6645 C   0  0  0  0  0  0
  -29.1738  -20.6414   21.1888 C   0  0  0  0  0  0
  -27.2166  -21.5703   22.3350 C   0  0  0  0  0  0
  -28.1394  -20.5280   22.1468 C   0  0  0  0  0  0
  -29.3090  -21.8606   20.4598 C   0  0  0  0  0  0
  -29.3111  -16.5616   18.9044 C   0  0  0  0  0  0
  -31.2856  -16.2701   22.2969 C   0  0  0  0  0  0
  -28.8907  -15.7234   22.1484 C   0  0  0  0  0  0
  -28.4582  -24.2585   19.8997 C   0  0  0  0  0  0
  -30.1021  -19.4313   20.9744 C   0  0  0  0  0  0
  -28.3974  -25.5066   20.8125 C   0  0  0  0  0  0
  -30.0317  -16.9821   20.2075 C   0  0  2  0  0  0
  -30.1815  -15.8331   21.2967 C   0  0  0  0  0  0
  -29.3208  -18.1931   20.7135 N   0  3  0  0  0  0
  -26.2119  -21.4380   23.2340 F   0  0  0  0  0  0
  -28.0133  -19.3929   22.8771 F   0  0  0  0  0  0
  -30.5955  -22.0412   19.3141 Cl  0  0  0  0  0  0
  -31.4778  -12.4564   19.1064 H   0  0  0  0  0  0
  -30.3841  -11.3237   19.8118 H   0  0  0  0  0  0
  -29.7469  -11.7695   17.4424 H   0  0  0  0  0  0
  -29.6626  -13.4825   17.7467 H   0  0  0  0  0  0
  -27.8260  -11.3061   18.7922 H   0  0  0  0  0  0
  -27.3714  -12.6520   17.7816 H   0  0  0  0  0  0
  -27.7226  -14.2312   19.6067 H   0  0  0  0  0  0
  -28.7337  -11.8358   21.1818 H   0  0  0  0  0  0
  -28.4361  -13.3084   21.9412 H   0  0  0  0  0  0
  -25.2736   -9.5658   22.4804 H   0  0  0  0  0  0
  -24.0014   -7.4577   22.7436 H   0  0  0  0  0  0
  -21.0837   -8.8768   19.8959 H   0  0  0  0  0  0
  -22.3690  -10.9680   19.6222 H   0  0  0  0  0  0
  -21.1994   -7.6139   23.9722 H   0  0  0  0  0  0
  -21.1488   -6.0517   25.9083 H   0  0  0  0  0  0
  -22.0594   -2.7596   23.2855 H   0  0  0  0  0  0
  -22.4131  -11.9910   22.4820 H   0  0  0  0  0  0
  -21.1166  -13.1300   22.2581 H   0  0  0  0  0  0
  -24.6553  -15.8243   20.4720 H   0  0  0  0  0  0
  -26.2551  -15.5989   19.9817 H   0  0  0  0  0  0
  -26.7113  -32.5546   23.1145 H   0  0  0  0  0  0
  -25.0086  -33.9773   25.0498 H   0  0  0  0  0  0
  -22.6893  -31.3059   21.4027 H   0  0  0  0  0  0
  -23.3734  -35.9668   23.3313 H   0  0  0  0  0  0
  -24.3598  -36.8920   22.2050 H   0  0  0  0  0  0
  -23.7252  -37.6537   23.6638 H   0  0  0  0  0  0
  -26.0370  -31.6046   20.5897 H   0  0  0  0  0  0
  -26.8168  -30.8944   21.9743 H   0  0  0  0  0  0
  -28.1069  -29.1323   21.1459 H   0  0  0  0  0  0
  -26.0821  -25.9682   19.0277 H   0  0  0  0  0  0
  -23.9884  -27.2728   19.0537 H   0  0  0  0  0  0
  -23.7157  -30.5874   19.3977 H   0  0  0  0  0  0
  -22.7375  -29.2337   19.8701 H   0  0  0  0  0  0
  -25.1272  -36.1977   25.0824 H   0  0  0  0  0  0
  -20.9969  -28.3298   24.1473 H   0  0  0  0  0  0
  -20.5583  -26.2274   23.3701 H   0  0  0  0  0  0
  -21.6685  -26.7391   22.1358 H   0  0  0  0  0  0
  -19.6945  -25.6293   21.1244 H   0  0  0  0  0  0
  -19.6842  -27.3196   20.6780 H   0  0  0  0  0  0
  -17.4285  -26.6776   21.3890 H   0  0  0  0  0  0
  -18.0290  -26.0021   22.8880 H   0  0  0  0  0  0
  -19.7909  -30.7254   24.2281 H   0  0  0  0  0  0
  -17.4978  -31.6256   24.5107 H   0  0  0  0  0  0
  -15.5332  -30.2932   23.7605 H   0  0  0  0  0  0
  -15.8675  -28.0786   22.7014 H   0  0  0  0  0  0
  -24.5913  -30.7046   25.7831 H   0  0  0  0  0  0
  -24.8919  -32.2861   26.4919 H   0  0  0  0  0  0
  -25.8106  -30.8892   27.0234 H   0  0  0  0  0  0
  -26.2834  -29.6818   24.1129 H   0  0  0  0  0  0
  -27.4059  -29.7266   25.4537 H   0  0  0  0  0  0
  -27.8669  -30.4366   23.9235 H   0  0  0  0  0  0
  -27.2699  -33.3583   26.2090 H   0  0  0  0  0  0
  -28.3851  -32.6871   25.0289 H   0  0  0  0  0  0
  -28.0742  -31.8384   26.5346 H   0  0  0  0  0  0
  -28.2599  -38.0107   24.7490 H   0  0  0  0  0  0
  -28.1066  -36.2629   24.6294 H   0  0  0  0  0  0
  -27.2301  -37.1484   25.8870 H   0  0  0  0  0  0
  -20.9307  -29.8741   21.6927 H   0  0  0  0  0  0
  -26.0186  -38.2872   24.1391 H   0  0  0  0  0  0
  -26.5846  -23.5188   21.7322 H   0  0  0  0  0  0
  -29.8142  -15.7403   18.3935 H   0  0  0  0  0  0
  -29.2906  -17.3863   18.1921 H   0  0  0  0  0  0
  -28.2756  -16.2746   19.0780 H   0  0  0  0  0  0
  -32.2280  -16.5042   21.7996 H   0  0  0  0  0  0
  -31.5004  -15.4809   23.0200 H   0  0  0  0  0  0
  -31.0012  -17.1546   22.8680 H   0  0  0  0  0  0
  -28.6512  -16.6546   22.6601 H   0  0  0  0  0  0
  -29.0130  -15.0126   22.9649 H   0  0  0  0  0  0
  -28.0104  -15.4651   21.5637 H   0  0  0  0  0  0
  -27.6316  -24.2795   19.1910 H   0  0  0  0  0  0
  -29.3637  -24.3259   19.2984 H   0  0  0  0  0  0
  -30.7257  -19.3032   21.8603 H   0  0  0  0  0  0
  -30.7849  -19.5932   20.1423 H   0  0  0  0  0  0
  -29.2631  -25.5063   21.4760 H   0  0  0  0  0  0
  -27.5250  -25.4735   21.4661 H   0  0  0  0  0  0
  -31.0350  -17.2847   19.9003 H   0  0  0  0  0  0
  -28.6455  -18.4377   20.0068 H   0  0  0  0  0  0
  -28.8070  -17.9591   21.5512 H   0  0  0  0  0  0
  1 25  1  0  0  0
  1 30  2  0  0  0
  1 84  1  0  0  0
  2  3  1  0  0  0
  2 25  1  0  0  0
  2 89  1  0  0  0
  2 90  1  0  0  0
  3  4  1  0  0  0
  3 91  1  0  0  0
  3 92  1  0  0  0
  4  5  1  0  0  0
  4 93  1  0  0  0
  4 94  1  0  0  0
  5  6  1  0  0  0
  5 26  1  0  0  0
  5 95  1  0  0  0
  6 25  1  0  0  0
  6 96  1  0  0  0
  6 97  1  0  0  0
  7  8  2  0  0  0
  7 26  1  0  0  0
  7 29  1  0  0  0
  8  9  1  0  0  0
  8 22  1  0  0  0
  9 10  1  0  0  0
  9 27  2  0  0  0
 10 11  2  0  0  0
 10 15  1  0  0  0
 11 12  1  0  0  0
 11 98  1  0  0  0
 12 13  2  0  0  0
 12 99  1  0  0  0
 13 14  1  0  0  0
 13 31  1  0  0  0
 14 15  2  0  0  0
 14100  1  0  0  0
 15101  1  0  0  0
 16 17  2  0  0  0
 16 21  1  0  0  0
 16 31  1  0  0  0
 17 18  1  0  0  0
 17102  1  0  0  0
 18 19  2  0  0  0
 18103  1  0  0  0
 19 20  1  0  0  0
 19 24  1  0  0  0
 20 21  2  0  0  0
 20104  1  0  0  0
 21 23  1  0  0  0
 22 28  1  0  0  0
 22 32  2  0  0  0
 26 27  1  0  0  0
 28105  1  0  0  0
 28106  1  0  0  0
 29107  1  0  0  0
 29108  1  0  0  0
 33 34  1  0  0  0
 33 66  1  0  0  0
 33 70  2  0  0  0
 34 36  1  0  0  0
 34 59  1  0  0  0
 34109  1  0  0  0
 35 44  2  0  0  0
 35 45  1  0  0  0
 35 68  1  0  0  0
 36 56  1  0  0  0
 36110  1  0  0  0
 37 39  1  0  0  0
 37 47  1  0  0  0
 37 66  1  0  0  0
 37111  1  0  0  0
 38 43  2  0  0  0
 38 46  1  0  0  0
 38 47  1  0  0  0
 39 64  1  0  0  0
 39 67  2  0  0  0
 40 52  1  0  0  0
 40 53  2  0  0  0
 40 58  1  0  0  0
 41112  1  0  0  0
 41113  1  0  0  0
 41114  1  0  0  0
 41 48  1  0  0  0
 42 43  1  0  0  0
 42 66  1  0  0  0
 42115  1  0  0  0
 42116  1  0  0  0
 43 44  1  0  0  0
 44117  1  0  0  0
 45 46  2  0  0  0
 45118  1  0  0  0
 46119  1  0  0  0
 47120  1  0  0  0
 47121  1  0  0  0
 48 56  1  0  0  0
 48 65  1  0  0  0
 48122  1  0  0  0
 49 50  1  0  0  0
 49 53  1  0  0  0
 49 64  1  0  0  0
 49123  1  0  0  0
 50 51  1  0  0  0
 50124  1  0  0  0
 50125  1  0  0  0
 51 52  1  0  0  0
 51126  1  0  0  0
 51127  1  0  0  0
 52128  1  0  0  0
 52129  1  0  0  0
 53 54  1  0  0  0
 54 55  2  0  0  0
 54130  1  0  0  0
 55 57  1  0  0  0
 55131  1  0  0  0
 56 69  2  0  0  0
 57 58  2  0  0  0
 57132  1  0  0  0
 58133  1  0  0  0
 59 60  1  0  0  0
 59 61  1  0  0  0
 59 62  1  0  0  0
 60134  1  0  0  0
 60135  1  0  0  0
 60136  1  0  0  0
 61137  1  0  0  0
 61138  1  0  0  0
 61139  1  0  0  0
 62140  1  0  0  0
 62141  1  0  0  0
 62142  1  0  0  0
 63 65  1  0  0  0
 63143  1  0  0  0
 63144  1  0  0  0
 63145  1  0  0  0
 64146  1  0  0  0
 65147  1  0  0  0
 68 82  1  0  0  0
 71 72  2  0  0  0
 71 74  1  0  0  0
 71148  1  0  0  0
 72 76  1  0  0  0
 72 80  1  0  0  0
 73 75  1  0  0  0
 73 76  2  0  0  0
 73 81  1  0  0  0
 74 75  2  0  0  0
 74 86  1  0  0  0
 75 87  1  0  0  0
 76 88  1  0  0  0
 77149  1  0  0  0
 77150  1  0  0  0
 77151  1  0  0  0
 77 83  1  0  0  0
 78152  1  0  0  0
 78153  1  0  0  0
 78154  1  0  0  0
 78 84  1  0  0  0
 79 84  1  0  0  0
 79155  1  0  0  0
 79156  1  0  0  0
 79157  1  0  0  0
 80 82  1  0  0  0
 80158  1  0  0  0
 80159  1  0  0  0
 81 85  1  0  0  0
 81160  1  0  0  0
 81161  1  0  0  0
 82162  1  0  0  0
 82163  1  0  0  0
 83 84  1  0  0  0
 83 85  1  0  0  0
 83164  1  0  0  0
 85165  1  0  0  0
 85166  1  0  0  0
M  CHG  1  85   1
M  ISO  4   1 100  68 101  82 101  84 100
M  END
> <chiral flag>
0

> <version>
0

> <s_m_source_file>
/data/baiqing/PycharmProjects/Reinvent-master-3.2/result/LINK_invent/BTK/process_docking_weight1_custom_sum_contain_oxygen_bond_distance_aromatic_linkinvent_7_9_3/rearranged_h_0020.sdf

> <i_m_source_file_index>
55

> <r_mmod_Potential_Energy-OPLS-2005>
-109.352729797363

> <r_mmod_Stretch_Energy-OPLS-2005>
51.7481956481934

> <r_mmod_Bend_Energy-OPLS-2005>
131.678787231445

> <r_mmod_Torsional_Energy-OPLS-2005>
222.259994506836

> <r_mmod_Improper_Torsional_Energy-OPLS-2005>
3.2315981388092

> <r_mmod_Van_der_Waal_Energy-OPLS-2005>
167.687393188477

> <r_mmod_Electrostatic_Energy-OPLS-2005>
-271.218780517578

> <r_mmod_Solvation_Energy-OPLS-2005>
-427.665496826172

> <b_mmod_Minimization_Converged-OPLS-2005>
0

> <r_mmod_RMS_Derivative-OPLS-2005>
2.39913392066956

$$$$
55
                    3D
 Structure written by MMmdl.
179187  0  0  1  0            999 V2000
  -30.7544  -14.3834   20.6593 C   0  0  0  0  0  0
  -30.4181  -12.2890   19.3996 C   0  0  0  0  0  0
  -29.4870  -12.5216   18.1947 C   0  0  0  0  0  0
  -28.0105  -12.3791   18.6107 C   0  0  0  0  0  0
  -27.6664  -13.2027   19.8799 C   0  0  2  0  0  0
  -28.7048  -12.9472   20.9949 C   0  0  0  0  0  0
  -25.2601  -13.8157   20.5669 C   0  0  0  0  0  0
  -24.1842  -13.0439   20.9160 C   0  0  0  0  0  0
  -24.6388  -11.6903   20.8720 C   0  0  0  0  0  0
  -23.9052  -10.4290   21.0398 C   0  0  0  0  0  0
  -24.3607   -9.4210   21.9178 C   0  0  0  0  0  0
  -23.6288   -8.2245   22.0752 C   0  0  0  0  0  0
  -22.4271   -8.0278   21.3546 C   0  0  0  0  0  0
  -21.9900   -9.0249   20.4648 C   0  0  0  0  0  0
  -22.7224  -10.2131   20.3051 C   0  0  0  0  0  0
  -21.6852   -6.0733   22.5280 C   0  0  0  0  0  0
  -21.4012   -6.5637   23.8214 C   0  0  0  0  0  0
  -21.3660   -5.6791   24.9175 C   0  0  0  0  0  0
  -21.6044   -4.3054   24.7225 C   0  0  0  0  0  0
  -21.8819   -3.8145   23.4347 C   0  0  0  0  0  0
  -21.9193   -4.6962   22.3403 C   0  0  0  0  0  0
  -22.7865  -13.5242   21.1833 C   0  0  0  0  0  0
  -22.1662   -4.2148   21.0981 F   0  0  0  0  0  0
  -21.5629   -3.4536   25.7739 F   0  0  0  0  0  0
  -30.0463  -13.2417   20.4558 N   0  0  0  0  0  0
  -26.3043  -12.9321   20.3376 N   0  0  0  0  0  0
  -25.9314  -11.6481   20.5752 N   0  0  0  0  0  0
  -22.0501  -12.8238   22.0387 N   0  0  0  0  0  0
  -25.4337  -15.1873   20.4086 N   0  0  0  0  0  0
  -31.8035  -14.6466   20.0645 O   0  0  0  0  0  0
  -21.6637   -6.8874   21.4242 O   0  0  0  0  0  0
  -22.3554  -14.5556   20.6691 O   0  0  0  0  0  0
  -24.6103  -31.8711   23.2131 C   0  0  0  0  0  0
  -25.9017  -32.4841   23.8414 C   0  0  1  0  0  0
  -27.2489  -27.4746   20.1051 C   0  0  0  0  0  0
  -25.5892  -33.8639   24.2353 N   0  0  0  0  0  0
  -23.3963  -30.4931   21.5520 C   0  0  2  0  0  0
  -24.8463  -28.9622   20.1182 C   0  0  0  0  0  0
  -22.7385  -29.4670   22.5013 C   0  0  0  0  0  0
  -18.0266  -28.1373   22.8496 C   0  0  0  0  0  0
  -24.1485  -36.7324   23.2635 C   0  0  0  0  0  0
  -25.9181  -30.8522   21.3576 C   0  0  0  0  0  0
  -25.9995  -29.4860   20.7143 C   0  0  0  0  0  0
  -27.2021  -28.7518   20.7087 C   0  0  0  0  0  0
  -26.0833  -26.9642   19.4985 C   0  0  0  0  0  0
  -24.8802  -27.6963   19.5074 C   0  0  0  0  0  0
  -23.6036  -29.8216   20.1670 C   0  0  0  0  0  0
  -25.4102  -36.3128   24.0343 C   0  0  1  0  0  0
  -20.5852  -28.3653   23.1338 C   0  0  2  0  0  0
  -20.6755  -26.9395   22.5425 C   0  0  0  0  0  0
  -19.5740  -26.6388   21.5214 C   0  0  0  0  0  0
  -18.1915  -26.7925   22.1617 C   0  0  0  0  0  0
  -19.1513  -28.8828   23.2915 C   0  0  0  0  0  0
  -18.9441  -30.1436   23.8923 C   0  0  0  0  0  0
  -17.6446  -30.6584   24.0563 C   0  0  0  0  0  0
  -25.9027  -34.9489   23.5144 C   0  0  0  0  0  0
  -16.5336  -29.9085   23.6322 C   0  0  0  0  0  0
  -16.7255  -28.6501   23.0348 C   0  0  0  0  0  0
  -26.4476  -31.6597   25.0709 C   0  0  0  0  0  0
  -25.3767  -31.3681   26.1478 C   0  0  0  0  0  0
  -27.0301  -30.3052   24.6023 C   0  0  0  0  0  0
  -27.6073  -32.4300   25.7455 C   0  0  0  0  0  0
  -27.5592  -37.1801   24.8450 C   0  0  0  0  0  0
  -21.4117  -29.3026   22.3750 N   0  0  0  0  0  0
  -26.4288  -37.3813   23.9423 N   0  0  0  0  0  0
  -24.6594  -31.0853   22.1007 N   0  0  0  0  0  0
  -23.4175  -28.8219   23.3045 O   0  0  0  0  0  0
  -28.3752  -26.6876   20.0373 O   0  0  0  0  0  0
  -26.5580  -34.8933   22.4700 O   0  0  0  0  0  0
  -23.5308  -32.1438   23.7557 O   0  0  0  0  0  0
  -32.5428  -28.8433   20.3470 C   0  0  0  0  0  0
  -31.4045  -26.3874   19.5179 C   0  0  0  0  0  0
  -30.7288  -27.2079   20.4751 C   0  0  0  0  0  0
  -32.6184  -26.8529   18.9293 C   0  0  0  0  0  0
  -31.3211  -28.4273   20.8941 C   0  0  0  0  0  0
  -33.1891  -28.0752   19.3701 C   0  0  0  0  0  0
  -31.9195  -26.3637   15.8448 C   0  0  0  0  0  0
  -34.4502  -26.3190   15.7711 C   0  0  0  0  0  0
  -30.8262  -25.0178   19.1161 C   0  0  0  0  0  0
  -29.3759  -26.7845   21.0510 C   0  0  0  0  0  0
  -30.9276  -19.0212   21.3224 C   0  0  0  0  0  0
  -30.5163  -20.1276   20.3345 C   0  0  0  0  0  0
  -30.3494  -17.6450   20.9500 C   0  0  0  0  0  0
  -31.1114  -21.5050   20.6843 C   0  0  0  0  0  0
  -30.7815  -16.5338   21.9260 C   0  0  0  0  0  0
  -30.6859  -22.6063   19.6903 C   0  0  0  0  0  0
  -33.2159  -26.7281   16.5815 C   0  0  0  0  0  0
  -33.2607  -26.1219   17.9113 N   0  0  0  0  0  0
  -30.2289  -15.2328   21.5516 N   0  0  0  0  0  0
  -31.2494  -23.9327   20.0323 N   0  3  0  0  0  0
  -30.6025  -29.4475   22.0933 Cl  0  0  0  0  0  0
  -34.7109  -28.6454   18.7690 Cl  0  0  0  0  0  0
  -31.4619  -12.3874   19.0956 H   0  0  0  0  0  0
  -30.3141  -11.2681   19.7703 H   0  0  0  0  0  0
  -29.7204  -11.8158   17.3965 H   0  0  0  0  0  0
  -29.6595  -13.5171   17.7827 H   0  0  0  0  0  0
  -27.8165  -11.3211   18.7918 H   0  0  0  0  0  0
  -27.3582  -12.6696   17.7862 H   0  0  0  0  0  0
  -27.7243  -14.2564   19.6061 H   0  0  0  0  0  0
  -28.6681  -11.9035   21.3108 H   0  0  0  0  0  0
  -28.4549  -13.5226   21.8865 H   0  0  0  0  0  0
  -25.2756   -9.5689   22.4745 H   0  0  0  0  0  0
  -24.0004   -7.4635   22.7468 H   0  0  0  0  0  0
  -21.0832   -8.8763   19.8957 H   0  0  0  0  0  0
  -22.3682  -10.9663   19.6155 H   0  0  0  0  0  0
  -21.2004   -7.6146   23.9714 H   0  0  0  0  0  0
  -21.1481   -6.0522   25.9079 H   0  0  0  0  0  0
  -22.0599   -2.7607   23.2846 H   0  0  0  0  0  0
  -22.4104  -11.9894   22.4775 H   0  0  0  0  0  0
  -21.1120  -13.1271   22.2591 H   0  0  0  0  0  0
  -24.6725  -15.8482   20.5221 H   0  0  0  0  0  0
  -26.2974  -15.6247   20.1111 H   0  0  0  0  0  0
  -26.7095  -32.5586   23.1193 H   0  0  0  0  0  0
  -25.0068  -33.9806   25.0515 H   0  0  0  0  0  0
  -22.6829  -31.3080   21.4132 H   0  0  0  0  0  0
  -23.3751  -35.9653   23.3299 H   0  0  0  0  0  0
  -24.3586  -36.8932   22.2049 H   0  0  0  0  0  0
  -23.7224  -37.6529   23.6637 H   0  0  0  0  0  0
  -26.0164  -31.6159   20.5847 H   0  0  0  0  0  0
  -26.8108  -30.9156   21.9675 H   0  0  0  0  0  0
  -28.0822  -29.1876   21.1529 H   0  0  0  0  0  0
  -26.1085  -25.9930   19.0245 H   0  0  0  0  0  0
  -23.9953  -27.2848   19.0416 H   0  0  0  0  0  0
  -23.7046  -30.5938   19.4034 H   0  0  0  0  0  0
  -22.7310  -29.2337   19.8765 H   0  0  0  0  0  0
  -25.1268  -36.2002   25.0834 H   0  0  0  0  0  0
  -20.9945  -28.3214   24.1458 H   0  0  0  0  0  0
  -20.5660  -26.2257   23.3604 H   0  0  0  0  0  0
  -21.6628  -26.7447   22.1221 H   0  0  0  0  0  0
  -19.6903  -25.6305   21.1229 H   0  0  0  0  0  0
  -19.6689  -27.3212   20.6756 H   0  0  0  0  0  0
  -17.4193  -26.6688   21.4009 H   0  0  0  0  0  0
  -18.0306  -26.0057   22.9001 H   0  0  0  0  0  0
  -19.7917  -30.7240   24.2312 H   0  0  0  0  0  0
  -17.5001  -31.6268   24.5156 H   0  0  0  0  0  0
  -15.5338  -30.2992   23.7634 H   0  0  0  0  0  0
  -15.8657  -28.0825   22.7052 H   0  0  0  0  0  0
  -24.5935  -30.7031   25.7820 H   0  0  0  0  0  0
  -24.8964  -32.2831   26.4957 H   0  0  0  0  0  0
  -25.8143  -30.8833   27.0214 H   0  0  0  0  0  0
  -26.2820  -29.6823   24.1105 H   0  0  0  0  0  0
  -27.4135  -29.7266   25.4437 H   0  0  0  0  0  0
  -27.8629  -30.4393   23.9112 H   0  0  0  0  0  0
  -27.2712  -33.3587   26.2078 H   0  0  0  0  0  0
  -28.3850  -32.6880   25.0252 H   0  0  0  0  0  0
  -28.0783  -31.8397   26.5324 H   0  0  0  0  0  0
  -28.2582  -38.0129   24.7562 H   0  0  0  0  0  0
  -28.1111  -36.2666   24.6183 H   0  0  0  0  0  0
  -27.2325  -37.1349   25.8854 H   0  0  0  0  0  0
  -20.9270  -29.8741   21.6972 H   0  0  0  0  0  0
  -26.0183  -38.2885   24.1466 H   0  0  0  0  0  0
  -32.9909  -29.7673   20.6796 H   0  0  0  0  0  0
  -31.8896  -26.8314   14.8598 H   0  0  0  0  0  0
  -31.0384  -26.7106   16.3858 H   0  0  0  0  0  0
  -31.8249  -25.2876   15.6956 H   0  0  0  0  0  0
  -34.4454  -26.7925   14.7884 H   0  0  0  0  0  0
  -34.4945  -25.2404   15.6168 H   0  0  0  0  0  0
  -35.3695  -26.6248   16.2723 H   0  0  0  0  0  0
  -31.1287  -24.7561   18.1034 H   0  0  0  0  0  0
  -29.7415  -25.0423   19.0572 H   0  0  0  0  0  0
  -29.0622  -27.3775   21.9072 H   0  0  0  0  0  0
  -29.4943  -25.7883   21.4758 H   0  0  0  0  0  0
  -30.6019  -19.2907   22.3283 H   0  0  0  0  0  0
  -32.0162  -18.9560   21.3596 H   0  0  0  0  0  0
  -29.4278  -20.1988   20.3072 H   0  0  0  0  0  0
  -30.8287  -19.8449   19.3278 H   0  0  0  0  0  0
  -30.6682  -17.3868   19.9389 H   0  0  0  0  0  0
  -29.2602  -17.7040   20.9229 H   0  0  0  0  0  0
  -32.1997  -21.4297   20.7050 H   0  0  0  0  0  0
  -30.8024  -21.7822   21.6933 H   0  0  0  0  0  0
  -30.4394  -16.7721   22.9341 H   0  0  0  0  0  0
  -31.8707  -16.4766   21.9791 H   0  0  0  0  0  0
  -29.5969  -22.6756   19.6697 H   0  0  0  0  0  0
  -31.0013  -22.3329   18.6819 H   0  0  0  0  0  0
  -33.2334  -27.8154   16.6710 H   0  0  0  0  0  0
  -33.1383  -25.1172   17.9019 H   0  0  0  0  0  0
  -29.3756  -14.9412   22.0058 H   0  0  0  0  0  0
  -30.9694  -24.1663   20.9698 H   0  0  0  0  0  0
  -32.2548  -23.8728   20.0225 H   0  0  0  0  0  0
  1 25  1  0  0  0
  1 30  2  0  0  0
  1 89  1  0  0  0
  2  3  1  0  0  0
  2 25  1  0  0  0
  2 93  1  0  0  0
  2 94  1  0  0  0
  3  4  1  0  0  0
  3 95  1  0  0  0
  3 96  1  0  0  0
  4  5  1  0  0  0
  4 97  1  0  0  0
  4 98  1  0  0  0
  5  6  1  0  0  0
  5 26  1  0  0  0
  5 99  1  0  0  0
  6 25  1  0  0  0
  6100  1  0  0  0
  6101  1  0  0  0
  7  8  2  0  0  0
  7 26  1  0  0  0
  7 29  1  0  0  0
  8  9  1  0  0  0
  8 22  1  0  0  0
  9 10  1  0  0  0
  9 27  2  0  0  0
 10 11  2  0  0  0
 10 15  1  0  0  0
 11 12  1  0  0  0
 11102  1  0  0  0
 12 13  2  0  0  0
 12103  1  0  0  0
 13 14  1  0  0  0
 13 31  1  0  0  0
 14 15  2  0  0  0
 14104  1  0  0  0
 15105  1  0  0  0
 16 17  2  0  0  0
 16 21  1  0  0  0
 16 31  1  0  0  0
 17 18  1  0  0  0
 17106  1  0  0  0
 18 19  2  0  0  0
 18107  1  0  0  0
 19 20  1  0  0  0
 19 24  1  0  0  0
 20 21  2  0  0  0
 20108  1  0  0  0
 21 23  1  0  0  0
 22 28  1  0  0  0
 22 32  2  0  0  0
 26 27  1  0  0  0
 28109  1  0  0  0
 28110  1  0  0  0
 29111  1  0  0  0
 29112  1  0  0  0
 33 34  1  0  0  0
 33 66  1  0  0  0
 33 70  2  0  0  0
 34 36  1  0  0  0
 34 59  1  0  0  0
 34113  1  0  0  0
 35 44  2  0  0  0
 35 45  1  0  0  0
 35 68  1  0  0  0
 36 56  1  0  0  0
 36114  1  0  0  0
 37 39  1  0  0  0
 37 47  1  0  0  0
 37 66  1  0  0  0
 37115  1  0  0  0
 38 43  2  0  0  0
 38 46  1  0  0  0
 38 47  1  0  0  0
 39 64  1  0  0  0
 39 67  2  0  0  0
 40 52  1  0  0  0
 40 53  2  0  0  0
 40 58  1  0  0  0
 41116  1  0  0  0
 41117  1  0  0  0
 41118  1  0  0  0
 41 48  1  0  0  0
 42 43  1  0  0  0
 42 66  1  0  0  0
 42119  1  0  0  0
 42120  1  0  0  0
 43 44  1  0  0  0
 44121  1  0  0  0
 45 46  2  0  0  0
 45122  1  0  0  0
 46123  1  0  0  0
 47124  1  0  0  0
 47125  1  0  0  0
 48 56  1  0  0  0
 48 65  1  0  0  0
 48126  1  0  0  0
 49 50  1  0  0  0
 49 53  1  0  0  0
 49 64  1  0  0  0
 49127  1  0  0  0
 50 51  1  0  0  0
 50128  1  0  0  0
 50129  1  0  0  0
 51 52  1  0  0  0
 51130  1  0  0  0
 51131  1  0  0  0
 52132  1  0  0  0
 52133  1  0  0  0
 53 54  1  0  0  0
 54 55  2  0  0  0
 54134  1  0  0  0
 55 57  1  0  0  0
 55135  1  0  0  0
 56 69  2  0  0  0
 57 58  2  0  0  0
 57136  1  0  0  0
 58137  1  0  0  0
 59 60  1  0  0  0
 59 61  1  0  0  0
 59 62  1  0  0  0
 60138  1  0  0  0
 60139  1  0  0  0
 60140  1  0  0  0
 61141  1  0  0  0
 61142  1  0  0  0
 61143  1  0  0  0
 62144  1  0  0  0
 62145  1  0  0  0
 62146  1  0  0  0
 63 65  1  0  0  0
 63147  1  0  0  0
 63148  1  0  0  0
 63149  1  0  0  0
 64150  1  0  0  0
 65151  1  0  0  0
 68 80  1  0  0  0
 71 75  2  0  0  0
 71 76  1  0  0  0
 71152  1  0  0  0
 72 73  2  0  0  0
 72 74  1  0  0  0
 72 79  1  0  0  0
 73 75  1  0  0  0
 73 80  1  0  0  0
 74 76  2  0  0  0
 74 88  1  0  0  0
 75 91  1  0  0  0
 76 92  1  0  0  0
 77153  1  0  0  0
 77154  1  0  0  0
 77155  1  0  0  0
 77 87  1  0  0  0
 78 87  1  0  0  0
 78156  1  0  0  0
 78157  1  0  0  0
 78158  1  0  0  0
 79 90  1  0  0  0
 79159  1  0  0  0
 79160  1  0  0  0
 80161  1  0  0  0
 80162  1  0  0  0
 81 82  1  0  0  0
 81 83  1  0  0  0
 81163  1  0  0  0
 81164  1  0  0  0
 82 84  1  0  0  0
 82165  1  0  0  0
 82166  1  0  0  0
 83 85  1  0  0  0
 83167  1  0  0  0
 83168  1  0  0  0
 84 86  1  0  0  0
 84169  1  0  0  0
 84170  1  0  0  0
 85 89  1  0  0  0
 85171  1  0  0  0
 85172  1  0  0  0
 86 90  1  0  0  0
 86173  1  0  0  0
 86174  1  0  0  0
 87 88  1  0  0  0
 87175  1  0  0  0
 88176  1  0  0  0
 89177  1  0  0  0
 90178  1  0  0  0
 90179  1  0  0  0
M  CHG  1  90   1
M  ISO  4   1 100  68 101  80 101  89 100
M  END
> <chiral flag>
0

> <version>
0

> <s_m_source_file>
/data/baiqing/PycharmProjects/Reinvent-master-3.2/result/LINK_invent/BTK/process_docking_weight1_custom_sum_contain_oxygen_bond_distance_aromatic_linkinvent_7_9_3/rearranged_h_0020.sdf

> <i_m_source_file_index>
56

> <r_mmod_Potential_Energy-OPLS-2005>
-288.897491455078

> <r_mmod_Stretch_Energy-OPLS-2005>
37.8472671508789

> <r_mmod_Bend_Energy-OPLS-2005>
102.204170227051

> <r_mmod_Torsional_Energy-OPLS-2005>
207.991012573242

> <r_mmod_Improper_Torsional_Energy-OPLS-2005>
5.40796279907227

> <r_mmod_Van_der_Waal_Energy-OPLS-2005>
154.113082885742

> <r_mmod_Electrostatic_Energy-OPLS-2005>
-321.501190185547

> <r_mmod_Solvation_Energy-OPLS-2005>
-481.0390625

> <b_mmod_Minimization_Converged-OPLS-2005>
0

> <r_mmod_RMS_Derivative-OPLS-2005>
0.49135285615921

$$$$
56
                    3D
 Structure written by MMmdl.
197205  0  0  1  0            999 V2000
  -30.7028  -14.4703   20.5253 C   0  0  0  0  0  0
  -30.4112  -12.2915   19.4256 C   0  0  0  0  0  0
  -29.4834  -12.4864   18.2081 C   0  0  0  0  0  0
  -28.0049  -12.3599   18.6222 C   0  0  0  0  0  0
  -27.6591  -13.2044   19.8766 C   0  0  2  0  0  0
  -28.7035  -13.0053   20.9991 C   0  0  0  0  0  0
  -25.2604  -13.8172   20.5700 C   0  0  0  0  0  0
  -24.1852  -13.0460   20.9200 C   0  0  0  0  0  0
  -24.6399  -11.6927   20.8768 C   0  0  0  0  0  0
  -23.9073  -10.4309   21.0420 C   0  0  0  0  0  0
  -24.3631   -9.4221   21.9183 C   0  0  0  0  0  0
  -23.6317   -8.2248   22.0743 C   0  0  0  0  0  0
  -22.4289   -8.0292   21.3540 C   0  0  0  0  0  0
  -21.9940   -9.0264   20.4633 C   0  0  0  0  0  0
  -22.7261  -10.2150   20.3054 C   0  0  0  0  0  0
  -21.6861   -6.0761   22.5277 C   0  0  0  0  0  0
  -21.4013   -6.5656   23.8214 C   0  0  0  0  0  0
  -21.3654   -5.6803   24.9173 C   0  0  0  0  0  0
  -21.6045   -4.3066   24.7221 C   0  0  0  0  0  0
  -21.8821   -3.8167   23.4339 C   0  0  0  0  0  0
  -21.9193   -4.6991   22.3397 C   0  0  0  0  0  0
  -22.7878  -13.5250   21.1864 C   0  0  0  0  0  0
  -22.1667   -4.2179   21.0977 F   0  0  0  0  0  0
  -21.5625   -3.4544   25.7729 F   0  0  0  0  0  0
  -30.0315  -13.2908   20.4364 N   0  0  0  0  0  0
  -26.3018  -12.9330   20.3408 N   0  0  0  0  0  0
  -25.9322  -11.6488   20.5824 N   0  0  0  0  0  0
  -22.0538  -12.8199   22.0394 N   0  0  0  0  0  0
  -25.4377  -15.1882   20.4089 N   0  0  0  0  0  0
  -31.8568  -14.6112   20.1142 O   0  0  0  0  0  0
  -21.6642   -6.8896   21.4236 O   0  0  0  0  0  0
  -22.3549  -14.5558   20.6722 O   0  0  0  0  0  0
  -24.6140  -31.8662   23.2101 C   0  0  0  0  0  0
  -25.9040  -32.4790   23.8385 C   0  0  1  0  0  0
  -27.2233  -27.4283   20.1061 C   0  0  0  0  0  0
  -25.5907  -33.8602   24.2314 N   0  0  0  0  0  0
  -23.3989  -30.4916   21.5505 C   0  0  2  0  0  0
  -24.8449  -28.9648   20.1088 C   0  0  0  0  0  0
  -22.7403  -29.4638   22.4991 C   0  0  0  0  0  0
  -18.0264  -28.1342   22.8466 C   0  0  0  0  0  0
  -24.1492  -36.7327   23.2637 C   0  0  0  0  0  0
  -25.9277  -30.8340   21.3613 C   0  0  0  0  0  0
  -26.0059  -29.4699   20.7072 C   0  0  0  0  0  0
  -27.1984  -28.7099   20.7023 C   0  0  0  0  0  0
  -26.0475  -26.9497   19.4812 C   0  0  0  0  0  0
  -24.8630  -27.7056   19.4867 C   0  0  0  0  0  0
  -23.6057  -29.8279   20.1637 C   0  0  0  0  0  0
  -25.4109  -36.3092   24.0331 C   0  0  1  0  0  0
  -20.5847  -28.3627   23.1311 C   0  0  2  0  0  0
  -20.6743  -26.9366   22.5407 C   0  0  0  0  0  0
  -19.5727  -26.6346   21.5191 C   0  0  0  0  0  0
  -18.1901  -26.7876   22.1602 C   0  0  0  0  0  0
  -19.1509  -28.8801   23.2869 C   0  0  0  0  0  0
  -18.9458  -30.1402   23.8886 C   0  0  0  0  0  0
  -17.6467  -30.6551   24.0547 C   0  0  0  0  0  0
  -25.9051  -34.9454   23.5114 C   0  0  0  0  0  0
  -16.5353  -29.9053   23.6312 C   0  0  0  0  0  0
  -16.7252  -28.6471   23.0332 C   0  0  0  0  0  0
  -26.4478  -31.6575   25.0714 C   0  0  0  0  0  0
  -25.3753  -31.3678   26.1474 C   0  0  0  0  0  0
  -27.0337  -30.3034   24.6066 C   0  0  0  0  0  0
  -27.6046  -32.4305   25.7493 C   0  0  0  0  0  0
  -27.5574  -37.1803   24.8456 C   0  0  0  0  0  0
  -21.4135  -29.3005   22.3752 N   0  0  0  0  0  0
  -26.4292  -37.3775   23.9402 N   0  0  0  0  0  0
  -24.6650  -31.0770   22.0993 N   0  0  0  0  0  0
  -23.4182  -28.8173   23.3016 O   0  0  0  0  0  0
  -28.3731  -26.6636   20.1728 O   0  0  0  0  0  0
  -26.5600  -34.8906   22.4677 O   0  0  0  0  0  0
  -23.5335  -32.1421   23.7501 O   0  0  0  0  0  0
  -26.2090  -19.7077   24.2458 C   0  0  0  0  0  0
  -27.0977  -20.5952   22.1813 C   0  0  0  0  0  0
  -25.9839  -20.3406   23.0061 C   0  0  0  0  0  0
  -27.5045  -19.3513   24.7038 C   0  0  0  0  0  0
  -28.4116  -20.3192   22.6080 C   0  0  0  0  0  0
  -28.6211  -19.7227   23.8887 C   0  0  0  0  0  0
  -30.0437  -17.1453   18.9718 C   0  0  0  0  0  0
  -23.8683  -21.5589   23.6671 C   0  0  0  0  0  0
  -23.7367  -19.3939   22.3963 C   0  0  0  0  0  0
  -24.4801  -21.4844   21.2577 C   0  0  0  0  0  0
  -26.2887  -18.1649   26.6656 C   0  0  0  0  0  0
  -28.3908  -19.3666   27.1099 C   0  0  0  0  0  0
  -28.3496  -17.1925   25.7763 C   0  0  0  0  0  0
  -31.2410  -22.0252   20.6761 C   0  0  0  0  0  0
  -30.4998  -22.4433   23.0081 C   0  0  0  0  0  0
  -29.3020  -24.4711   20.9245 C   0  0  0  0  0  0
  -28.9393  -22.9649   21.0741 C   0  0  0  0  0  0
  -29.5618  -18.0047   21.3158 C   0  0  0  0  0  0
  -30.2665  -19.4012   21.2898 C   0  0  0  0  0  0
  -28.1674  -25.2408   20.2192 C   0  0  0  0  0  0
  -30.3120  -16.9345   20.4783 C   0  0  1  0  0  0
  -24.5439  -20.6925   22.5821 C   0  0  0  0  0  0
  -27.6497  -18.5479   26.0305 C   0  0  0  0  0  0
  -30.0163  -21.9708   21.6230 C   0  0  0  0  0  0
  -29.9556  -15.5464   20.8449 N   0  0  0  0  0  0
  -29.4636  -20.5811   21.6915 N   0  0  0  0  0  0
  -30.2527  -19.4479   24.4230 Cl  0  0  0  0  0  0
  -31.4548  -12.3783   19.1178 H   0  0  0  0  0  0
  -30.3026  -11.2854   19.8341 H   0  0  0  0  0  0
  -29.7133  -11.7533   17.4335 H   0  0  0  0  0  0
  -29.6517  -13.4677   17.7624 H   0  0  0  0  0  0
  -27.8008  -11.3053   18.8138 H   0  0  0  0  0  0
  -27.3557  -12.6440   17.7934 H   0  0  0  0  0  0
  -27.7002  -14.2486   19.5676 H   0  0  0  0  0  0
  -28.6762  -11.9790   21.3703 H   0  0  0  0  0  0
  -28.4823  -13.6379   21.8597 H   0  0  0  0  0  0
  -25.2790   -9.5688   22.4750 H   0  0  0  0  0  0
  -24.0044   -7.4630   22.7446 H   0  0  0  0  0  0
  -21.0886   -8.8788   19.8915 H   0  0  0  0  0  0
  -22.3744  -10.9695   19.6162 H   0  0  0  0  0  0
  -21.2003   -7.6161   23.9729 H   0  0  0  0  0  0
  -21.1470   -6.0526   25.9074 H   0  0  0  0  0  0
  -22.0601   -2.7632   23.2827 H   0  0  0  0  0  0
  -22.4219  -11.9871   22.4745 H   0  0  0  0  0  0
  -21.1139  -13.1151   22.2603 H   0  0  0  0  0  0
  -24.6821  -15.8526   20.5324 H   0  0  0  0  0  0
  -26.2903  -15.6183   20.0733 H   0  0  0  0  0  0
  -26.7108  -32.5520   23.1155 H   0  0  0  0  0  0
  -25.0065  -33.9762   25.0452 H   0  0  0  0  0  0
  -22.6862  -31.3080   21.4128 H   0  0  0  0  0  0
  -23.3730  -35.9683   23.3297 H   0  0  0  0  0  0
  -24.3605  -36.8961   22.2052 H   0  0  0  0  0  0
  -23.7275  -37.6541   23.6681 H   0  0  0  0  0  0
  -26.0344  -31.5990   20.5900 H   0  0  0  0  0  0
  -26.8175  -30.8908   21.9774 H   0  0  0  0  0  0
  -28.0910  -29.0825   21.1840 H   0  0  0  0  0  0
  -26.0223  -25.9873   18.9899 H   0  0  0  0  0  0
  -23.9755  -27.3125   19.0103 H   0  0  0  0  0  0
  -23.7101  -30.6024   19.4045 H   0  0  0  0  0  0
  -22.7282  -29.2497   19.8678 H   0  0  0  0  0  0
  -25.1274  -36.1955   25.0822 H   0  0  0  0  0  0
  -20.9920  -28.3178   24.1439 H   0  0  0  0  0  0
  -20.5615  -26.2239   23.3593 H   0  0  0  0  0  0
  -21.6619  -26.7374   22.1234 H   0  0  0  0  0  0
  -19.6914  -25.6260   21.1211 H   0  0  0  0  0  0
  -19.6678  -27.3151   20.6721 H   0  0  0  0  0  0
  -17.4176  -26.6614   21.3998 H   0  0  0  0  0  0
  -18.0314  -25.9998   22.8984 H   0  0  0  0  0  0
  -19.7947  -30.7186   24.2274 H   0  0  0  0  0  0
  -17.5034  -31.6238   24.5130 H   0  0  0  0  0  0
  -15.5355  -30.2958   23.7638 H   0  0  0  0  0  0
  -15.8649  -28.0794   22.7048 H   0  0  0  0  0  0
  -24.5924  -30.7020   25.7826 H   0  0  0  0  0  0
  -24.8947  -32.2830   26.4944 H   0  0  0  0  0  0
  -25.8109  -30.8844   27.0226 H   0  0  0  0  0  0
  -26.2879  -29.6764   24.1158 H   0  0  0  0  0  0
  -27.4185  -29.7294   25.4507 H   0  0  0  0  0  0
  -27.8669  -30.4389   23.9164 H   0  0  0  0  0  0
  -27.2655  -33.3597   26.2097 H   0  0  0  0  0  0
  -28.3855  -32.6879   25.0320 H   0  0  0  0  0  0
  -28.0717  -31.8412   26.5395 H   0  0  0  0  0  0
  -28.2556  -38.0121   24.7508 H   0  0  0  0  0  0
  -28.1094  -36.2653   24.6272 H   0  0  0  0  0  0
  -27.2305  -37.1444   25.8858 H   0  0  0  0  0  0
  -20.9298  -29.8830   21.7068 H   0  0  0  0  0  0
  -26.0174  -38.2853   24.1403 H   0  0  0  0  0  0
  -25.3380  -19.4839   24.8359 H   0  0  0  0  0  0
  -26.9653  -21.0142   21.1974 H   0  0  0  0  0  0
  -30.3261  -18.1448   18.6417 H   0  0  0  0  0  0
  -28.9882  -17.0115   18.7315 H   0  0  0  0  0  0
  -30.6112  -16.4432   18.3601 H   0  0  0  0  0  0
  -23.7866  -21.0452   24.6251 H   0  0  0  0  0  0
  -22.8540  -21.8375   23.3784 H   0  0  0  0  0  0
  -24.4226  -22.4832   23.8365 H   0  0  0  0  0  0
  -23.6679  -18.8169   23.3190 H   0  0  0  0  0  0
  -24.1948  -18.7504   21.6436 H   0  0  0  0  0  0
  -22.7163  -19.6013   22.0712 H   0  0  0  0  0  0
  -25.0490  -22.4138   21.3133 H   0  0  0  0  0  0
  -23.4530  -21.7565   21.0120 H   0  0  0  0  0  0
  -24.8592  -20.9033   20.4158 H   0  0  0  0  0  0
  -25.7057  -19.0392   26.9565 H   0  0  0  0  0  0
  -26.4257  -17.5737   27.5731 H   0  0  0  0  0  0
  -25.6832  -17.5566   25.9920 H   0  0  0  0  0  0
  -27.8788  -20.3081   27.3075 H   0  0  0  0  0  0
  -29.4175  -19.6099   26.8520 H   0  0  0  0  0  0
  -28.4392  -18.8219   28.0534 H   0  0  0  0  0  0
  -27.8209  -16.6182   25.0142 H   0  0  0  0  0  0
  -28.3758  -16.5831   26.6803 H   0  0  0  0  0  0
  -29.3813  -17.2783   25.4489 H   0  0  0  0  0  0
  -31.6795  -23.0214   20.6335 H   0  0  0  0  0  0
  -30.9827  -21.7447   19.6546 H   0  0  0  0  0  0
  -32.0499  -21.3735   21.0101 H   0  0  0  0  0  0
  -30.9717  -23.4249   22.9521 H   0  0  0  0  0  0
  -31.2484  -21.7692   23.4220 H   0  0  0  0  0  0
  -29.6818  -22.5260   23.7243 H   0  0  0  0  0  0
  -30.2201  -24.6117   20.3582 H   0  0  0  0  0  0
  -29.4717  -24.9071   21.9095 H   0  0  0  0  0  0
  -28.6051  -22.5949   20.1031 H   0  0  0  0  0  0
  -28.0633  -22.9448   21.7201 H   0  0  0  0  0  0
  -28.5397  -18.0920   20.9440 H   0  0  0  0  0  0
  -29.4793  -17.6534   22.3446 H   0  0  0  0  0  0
  -30.5853  -19.5785   20.2656 H   0  0  0  0  0  0
  -31.1856  -19.3605   21.8758 H   0  0  0  0  0  0
  -27.2436  -25.0032   20.7511 H   0  0  0  0  0  0
  -28.0542  -24.8651   19.2002 H   0  0  0  0  0  0
  -31.3800  -17.0675   20.6630 H   0  0  0  0  0  0
  -29.0195  -15.3708   21.1767 H   0  0  0  0  0  0
  1 25  1  0  0  0
  1 30  2  0  0  0
  1 95  1  0  0  0
  2  3  1  0  0  0
  2 25  1  0  0  0
  2 98  1  0  0  0
  2 99  1  0  0  0
  3  4  1  0  0  0
  3100  1  0  0  0
  3101  1  0  0  0
  4  5  1  0  0  0
  4102  1  0  0  0
  4103  1  0  0  0
  5  6  1  0  0  0
  5 26  1  0  0  0
  5104  1  0  0  0
  6 25  1  0  0  0
  6105  1  0  0  0
  6106  1  0  0  0
  7  8  2  0  0  0
  7 26  1  0  0  0
  7 29  1  0  0  0
  8  9  1  0  0  0
  8 22  1  0  0  0
  9 10  1  0  0  0
  9 27  2  0  0  0
 10 11  2  0  0  0
 10 15  1  0  0  0
 11 12  1  0  0  0
 11107  1  0  0  0
 12 13  2  0  0  0
 12108  1  0  0  0
 13 14  1  0  0  0
 13 31  1  0  0  0
 14 15  2  0  0  0
 14109  1  0  0  0
 15110  1  0  0  0
 16 17  2  0  0  0
 16 21  1  0  0  0
 16 31  1  0  0  0
 17 18  1  0  0  0
 17111  1  0  0  0
 18 19  2  0  0  0
 18112  1  0  0  0
 19 20  1  0  0  0
 19 24  1  0  0  0
 20 21  2  0  0  0
 20113  1  0  0  0
 21 23  1  0  0  0
 22 28  1  0  0  0
 22 32  2  0  0  0
 26 27  1  0  0  0
 28114  1  0  0  0
 28115  1  0  0  0
 29116  1  0  0  0
 29117  1  0  0  0
 33 34  1  0  0  0
 33 66  1  0  0  0
 33 70  2  0  0  0
 34 36  1  0  0  0
 34 59  1  0  0  0
 34118  1  0  0  0
 35 44  2  0  0  0
 35 45  1  0  0  0
 35 68  1  0  0  0
 36 56  1  0  0  0
 36119  1  0  0  0
 37 39  1  0  0  0
 37 47  1  0  0  0
 37 66  1  0  0  0
 37120  1  0  0  0
 38 43  2  0  0  0
 38 46  1  0  0  0
 38 47  1  0  0  0
 39 64  1  0  0  0
 39 67  2  0  0  0
 40 52  1  0  0  0
 40 53  2  0  0  0
 40 58  1  0  0  0
 41121  1  0  0  0
 41122  1  0  0  0
 41123  1  0  0  0
 41 48  1  0  0  0
 42 43  1  0  0  0
 42 66  1  0  0  0
 42124  1  0  0  0
 42125  1  0  0  0
 43 44  1  0  0  0
 44126  1  0  0  0
 45 46  2  0  0  0
 45127  1  0  0  0
 46128  1  0  0  0
 47129  1  0  0  0
 47130  1  0  0  0
 48 56  1  0  0  0
 48 65  1  0  0  0
 48131  1  0  0  0
 49 50  1  0  0  0
 49 53  1  0  0  0
 49 64  1  0  0  0
 49132  1  0  0  0
 50 51  1  0  0  0
 50133  1  0  0  0
 50134  1  0  0  0
 51 52  1  0  0  0
 51135  1  0  0  0
 51136  1  0  0  0
 52137  1  0  0  0
 52138  1  0  0  0
 53 54  1  0  0  0
 54 55  2  0  0  0
 54139  1  0  0  0
 55 57  1  0  0  0
 55140  1  0  0  0
 56 69  2  0  0  0
 57 58  2  0  0  0
 57141  1  0  0  0
 58142  1  0  0  0
 59 60  1  0  0  0
 59 61  1  0  0  0
 59 62  1  0  0  0
 60143  1  0  0  0
 60144  1  0  0  0
 60145  1  0  0  0
 61146  1  0  0  0
 61147  1  0  0  0
 61148  1  0  0  0
 62149  1  0  0  0
 62150  1  0  0  0
 62151  1  0  0  0
 63 65  1  0  0  0
 63152  1  0  0  0
 63153  1  0  0  0
 63154  1  0  0  0
 64155  1  0  0  0
 65156  1  0  0  0
 68 90  1  0  0  0
 71 73  2  0  0  0
 71 74  1  0  0  0
 71157  1  0  0  0
 72 73  1  0  0  0
 72 75  2  0  0  0
 72158  1  0  0  0
 73 92  1  0  0  0
 74 76  2  0  0  0
 74 93  1  0  0  0
 75 76  1  0  0  0
 75 96  1  0  0  0
 76 97  1  0  0  0
 77159  1  0  0  0
 77160  1  0  0  0
 77161  1  0  0  0
 77 91  1  0  0  0
 78162  1  0  0  0
 78163  1  0  0  0
 78164  1  0  0  0
 78 92  1  0  0  0
 79 92  1  0  0  0
 79165  1  0  0  0
 79166  1  0  0  0
 79167  1  0  0  0
 80 92  1  0  0  0
 80168  1  0  0  0
 80169  1  0  0  0
 80170  1  0  0  0
 81171  1  0  0  0
 81172  1  0  0  0
 81173  1  0  0  0
 81 93  1  0  0  0
 82 93  1  0  0  0
 82174  1  0  0  0
 82175  1  0  0  0
 82176  1  0  0  0
 83 93  1  0  0  0
 83177  1  0  0  0
 83178  1  0  0  0
 83179  1  0  0  0
 84180  1  0  0  0
 84181  1  0  0  0
 84182  1  0  0  0
 84 94  1  0  0  0
 85 94  1  0  0  0
 85183  1  0  0  0
 85184  1  0  0  0
 85185  1  0  0  0
 86 87  1  0  0  0
 86 90  1  0  0  0
 86186  1  0  0  0
 86187  1  0  0  0
 87 94  1  0  0  0
 87188  1  0  0  0
 87189  1  0  0  0
 88 89  1  0  0  0
 88 91  1  0  0  0
 88190  1  0  0  0
 88191  1  0  0  0
 89 96  1  0  0  0
 89192  1  0  0  0
 89193  1  0  0  0
 90194  1  0  0  0
 90195  1  0  0  0
 91 95  1  0  0  0
 91196  1  0  0  0
 94 96  1  0  0  0
 95197  1  0  0  0
M  ISO  4   1 100  68 101  90 101  95 100
M  END
> <chiral flag>
0

> <version>
0

> <s_m_source_file>
/data/baiqing/PycharmProjects/Reinvent-master-3.2/result/LINK_invent/BTK/process_docking_weight1_custom_sum_contain_oxygen_bond_distance_aromatic_linkinvent_7_9_3/rearranged_h_0020.sdf

> <i_m_source_file_index>
57

> <r_mmod_Potential_Energy-OPLS-2005>
41.5571327209473

> <r_mmod_Stretch_Energy-OPLS-2005>
55.9381065368652

> <r_mmod_Bend_Energy-OPLS-2005>
134.986785888672

> <r_mmod_Torsional_Energy-OPLS-2005>
262.707763671875

> <r_mmod_Improper_Torsional_Energy-OPLS-2005>
7.97124433517456

> <r_mmod_Van_der_Waal_Energy-OPLS-2005>
193.199401855469

> <r_mmod_Electrostatic_Energy-OPLS-2005>
-449.998168945312

> <r_mmod_Solvation_Energy-OPLS-2005>
-180.100006103516

> <b_mmod_Minimization_Converged-OPLS-2005>
0

> <r_mmod_RMS_Derivative-OPLS-2005>
2.47056555747986

$$$$
57
                    3D
 Structure written by MMmdl.
162170  0  0  1  0            999 V2000
  -30.7052  -14.4312   20.6184 C   0  0  0  0  0  0
  -30.4272  -12.2974   19.4046 C   0  0  0  0  0  0
  -29.4924  -12.5195   18.1971 C   0  0  0  0  0  0
  -28.0126  -12.3813   18.6089 C   0  0  0  0  0  0
  -27.6666  -13.2006   19.8810 C   0  0  2  0  0  0
  -28.7062  -12.9339   20.9920 C   0  0  0  0  0  0
  -25.2577  -13.8126   20.5608 C   0  0  0  0  0  0
  -24.1830  -13.0419   20.9137 C   0  0  0  0  0  0
  -24.6388  -11.6890   20.8726 C   0  0  0  0  0  0
  -23.9058  -10.4284   21.0405 C   0  0  0  0  0  0
  -24.3612   -9.4204   21.9185 C   0  0  0  0  0  0
  -23.6290   -8.2243   22.0757 C   0  0  0  0  0  0
  -22.4273   -8.0277   21.3545 C   0  0  0  0  0  0
  -21.9904   -9.0248   20.4648 C   0  0  0  0  0  0
  -22.7232  -10.2129   20.3053 C   0  0  0  0  0  0
  -21.6849   -6.0737   22.5279 C   0  0  0  0  0  0
  -21.4012   -6.5644   23.8213 C   0  0  0  0  0  0
  -21.3660   -5.6798   24.9175 C   0  0  0  0  0  0
  -21.6040   -4.3058   24.7225 C   0  0  0  0  0  0
  -21.8818   -3.8148   23.4349 C   0  0  0  0  0  0
  -21.9194   -4.6966   22.3404 C   0  0  0  0  0  0
  -22.7861  -13.5234   21.1819 C   0  0  0  0  0  0
  -22.1662   -4.2154   21.0980 F   0  0  0  0  0  0
  -21.5630   -3.4536   25.7740 F   0  0  0  0  0  0
  -30.0442  -13.2523   20.4546 N   0  0  0  0  0  0
  -26.3045  -12.9301   20.3384 N   0  0  0  0  0  0
  -25.9317  -11.6468   20.5771 N   0  0  0  0  0  0
  -22.0509  -12.8229   22.0388 N   0  0  0  0  0  0
  -25.4244  -15.1826   20.3921 N   0  0  0  0  0  0
  -31.7892  -14.6702   20.0773 O   0  0  0  0  0  0
  -21.6635   -6.8878   21.4243 O   0  0  0  0  0  0
  -22.3541  -14.5543   20.6682 O   0  0  0  0  0  0
  -24.6123  -31.8693   23.2100 C   0  0  0  0  0  0
  -25.9020  -32.4838   23.8389 C   0  0  1  0  0  0
  -27.2387  -27.4538   20.0926 C   0  0  0  0  0  0
  -25.5878  -33.8631   24.2333 N   0  0  0  0  0  0
  -23.4007  -30.4904   21.5500 C   0  0  2  0  0  0
  -24.8493  -28.9533   20.1196 C   0  0  0  0  0  0
  -22.7403  -29.4657   22.5000 C   0  0  0  0  0  0
  -18.0270  -28.1363   22.8499 C   0  0  0  0  0  0
  -24.1490  -36.7306   23.2639 C   0  0  0  0  0  0
  -25.9274  -30.8392   21.3603 C   0  0  0  0  0  0
  -26.0069  -29.4724   20.7134 C   0  0  0  0  0  0
  -27.2078  -28.7280   20.6990 C   0  0  0  0  0  0
  -26.0676  -26.9389   19.5011 C   0  0  0  0  0  0
  -24.8717  -27.6830   19.5142 C   0  0  0  0  0  0
  -23.6096  -29.8178   20.1667 C   0  0  0  0  0  0
  -25.4112  -36.3118   24.0347 C   0  0  1  0  0  0
  -20.5859  -28.3644   23.1329 C   0  0  2  0  0  0
  -20.6770  -26.9377   22.5424 C   0  0  0  0  0  0
  -19.5752  -26.6374   21.5211 C   0  0  0  0  0  0
  -18.1922  -26.7914   22.1615 C   0  0  0  0  0  0
  -19.1521  -28.8818   23.2916 C   0  0  0  0  0  0
  -18.9451  -30.1429   23.8913 C   0  0  0  0  0  0
  -17.6457  -30.6577   24.0562 C   0  0  0  0  0  0
  -25.9023  -34.9485   23.5136 C   0  0  0  0  0  0
  -16.5345  -29.9087   23.6324 C   0  0  0  0  0  0
  -16.7259  -28.6498   23.0351 C   0  0  0  0  0  0
  -26.4451  -31.6612   25.0709 C   0  0  0  0  0  0
  -25.3730  -31.3712   26.1466 C   0  0  0  0  0  0
  -27.0271  -30.3068   24.6046 C   0  0  0  0  0  0
  -27.6035  -32.4318   25.7468 C   0  0  0  0  0  0
  -27.5589  -37.1807   24.8470 C   0  0  0  0  0  0
  -21.4132  -29.3021   22.3745 N   0  0  0  0  0  0
  -26.4301  -37.3805   23.9419 N   0  0  0  0  0  0
  -24.6652  -31.0802   22.0990 N   0  0  0  0  0  0
  -23.4188  -28.8192   23.3027 O   0  0  0  0  0  0
  -28.3999  -26.7232   20.0402 O   0  0  0  0  0  0
  -26.5593  -34.8935   22.4701 O   0  0  0  0  0  0
  -23.5325  -32.1416   23.7508 O   0  0  0  0  0  0
  -31.2540  -17.4993   21.0277 C   0  0  0  0  0  0
  -31.2798  -18.9051   21.1784 C   0  0  0  0  0  0
  -30.1772  -19.5896   21.7628 C   0  0  0  0  0  0
  -29.0335  -18.8339   22.1506 C   0  0  0  0  0  0
  -30.1398  -16.7438   21.4549 C   0  0  0  0  0  0
  -29.0354  -17.4219   22.0148 C   0  0  0  0  0  0
  -32.5329  -19.6442   20.7319 C   0  0  0  0  0  0
  -27.7978  -19.5001   22.7542 C   0  0  0  0  0  0
  -30.2585  -21.0976   22.0675 C   0  0  0  0  0  0
  -28.9298  -24.3539   20.4538 C   0  0  0  0  0  0
  -29.3269  -23.3338   21.5482 C   0  0  0  0  0  0
  -28.5232  -25.7206   21.0513 C   0  0  0  0  0  0
  -30.0512  -15.3205   21.3831 N   0  0  0  0  0  0
  -29.6393  -21.9711   21.0407 N   0  3  0  0  0  0
  -27.6807  -16.4906   22.5673 Cl  0  0  0  0  0  0
  -31.4703  -12.4065   19.1022 H   0  0  0  0  0  0
  -30.3335  -11.2761   19.7773 H   0  0  0  0  0  0
  -29.7268  -11.8080   17.4043 H   0  0  0  0  0  0
  -29.6638  -13.5119   17.7763 H   0  0  0  0  0  0
  -27.8150  -11.3236   18.7853 H   0  0  0  0  0  0
  -27.3632  -12.6766   17.7840 H   0  0  0  0  0  0
  -27.7237  -14.2561   19.6132 H   0  0  0  0  0  0
  -28.6771  -11.8826   21.2832 H   0  0  0  0  0  0
  -28.4555  -13.4816   21.9006 H   0  0  0  0  0  0
  -25.2758   -9.5683   22.4755 H   0  0  0  0  0  0
  -23.9998   -7.4634   22.7470 H   0  0  0  0  0  0
  -21.0839   -8.8764   19.8949 H   0  0  0  0  0  0
  -22.3690  -10.9667   19.6159 H   0  0  0  0  0  0
  -21.1998   -7.6151   23.9720 H   0  0  0  0  0  0
  -21.1482   -6.0524   25.9080 H   0  0  0  0  0  0
  -22.0596   -2.7611   23.2842 H   0  0  0  0  0  0
  -22.4129  -11.9893   22.4775 H   0  0  0  0  0  0
  -21.1127  -13.1254   22.2592 H   0  0  0  0  0  0
  -24.6684  -15.8409   20.5397 H   0  0  0  0  0  0
  -26.3019  -15.6309   20.1641 H   0  0  0  0  0  0
  -26.7087  -32.5549   23.1149 H   0  0  0  0  0  0
  -25.0055  -33.9799   25.0496 H   0  0  0  0  0  0
  -22.6895  -31.3066   21.4093 H   0  0  0  0  0  0
  -23.3759  -35.9629   23.3307 H   0  0  0  0  0  0
  -24.3581  -36.8905   22.2051 H   0  0  0  0  0  0
  -23.7235  -37.6515   23.6635 H   0  0  0  0  0  0
  -26.0360  -31.6027   20.5890 H   0  0  0  0  0  0
  -26.8175  -30.8966   21.9742 H   0  0  0  0  0  0
  -28.1074  -29.1268   21.1468 H   0  0  0  0  0  0
  -26.0864  -25.9675   19.0269 H   0  0  0  0  0  0
  -23.9792  -27.2789   19.0564 H   0  0  0  0  0  0
  -23.7154  -30.5906   19.4042 H   0  0  0  0  0  0
  -22.7354  -29.2340   19.8726 H   0  0  0  0  0  0
  -25.1290  -36.1979   25.0842 H   0  0  0  0  0  0
  -20.9944  -28.3185   24.1454 H   0  0  0  0  0  0
  -20.5669  -26.2233   23.3601 H   0  0  0  0  0  0
  -21.6642  -26.7429   22.1209 H   0  0  0  0  0  0
  -19.6920  -25.6291   21.1223 H   0  0  0  0  0  0
  -19.6704  -27.3206   20.6759 H   0  0  0  0  0  0
  -17.4205  -26.6662   21.4010 H   0  0  0  0  0  0
  -18.0318  -26.0053   22.9001 H   0  0  0  0  0  0
  -19.7933  -30.7243   24.2279 H   0  0  0  0  0  0
  -17.5020  -31.6263   24.5158 H   0  0  0  0  0  0
  -15.5350  -30.3004   23.7645 H   0  0  0  0  0  0
  -15.8650  -28.0831   22.7058 H   0  0  0  0  0  0
  -24.5894  -30.7062   25.7809 H   0  0  0  0  0  0
  -24.8917  -32.2868   26.4918 H   0  0  0  0  0  0
  -25.8086  -30.8883   27.0220 H   0  0  0  0  0  0
  -26.2798  -29.6847   24.1103 H   0  0  0  0  0  0
  -27.4083  -29.7278   25.4463 H   0  0  0  0  0  0
  -27.8611  -30.4415   23.9155 H   0  0  0  0  0  0
  -27.2660  -33.3609   26.2072 H   0  0  0  0  0  0
  -28.3829  -32.6888   25.0283 H   0  0  0  0  0  0
  -28.0713  -31.8423   26.5362 H   0  0  0  0  0  0
  -28.2609  -38.0104   24.7529 H   0  0  0  0  0  0
  -28.1083  -36.2638   24.6276 H   0  0  0  0  0  0
  -27.2305  -37.1438   25.8872 H   0  0  0  0  0  0
  -20.9273  -29.8734   21.6968 H   0  0  0  0  0  0
  -26.0188  -38.2884   24.1424 H   0  0  0  0  0  0
  -32.1189  -17.0092   20.6069 H   0  0  0  0  0  0
  -33.1826  -19.0053   20.1321 H   0  0  0  0  0  0
  -33.1107  -19.9777   21.5945 H   0  0  0  0  0  0
  -32.2847  -20.5119   20.1212 H   0  0  0  0  0  0
  -27.7819  -19.3560   23.8347 H   0  0  0  0  0  0
  -26.8867  -19.0658   22.3421 H   0  0  0  0  0  0
  -27.7265  -20.5665   22.5545 H   0  0  0  0  0  0
  -31.2922  -21.4084   22.2162 H   0  0  0  0  0  0
  -29.7918  -21.2754   23.0372 H   0  0  0  0  0  0
  -28.1050  -23.9660   19.8550 H   0  0  0  0  0  0
  -29.7682  -24.4949   19.7707 H   0  0  0  0  0  0
  -28.5210  -23.2567   22.2809 H   0  0  0  0  0  0
  -30.1951  -23.7207   22.0852 H   0  0  0  0  0  0
  -29.2858  -26.0613   21.7527 H   0  0  0  0  0  0
  -27.6041  -25.6085   21.6314 H   0  0  0  0  0  0
  -29.2116  -14.9476   21.8016 H   0  0  0  0  0  0
  -28.7934  -21.5370   20.7109 H   0  0  0  0  0  0
  -30.2713  -22.0375   20.2601 H   0  0  0  0  0  0
  1 25  1  0  0  0
  1 30  2  0  0  0
  1 83  1  0  0  0
  2  3  1  0  0  0
  2 25  1  0  0  0
  2 86  1  0  0  0
  2 87  1  0  0  0
  3  4  1  0  0  0
  3 88  1  0  0  0
  3 89  1  0  0  0
  4  5  1  0  0  0
  4 90  1  0  0  0
  4 91  1  0  0  0
  5  6  1  0  0  0
  5 26  1  0  0  0
  5 92  1  0  0  0
  6 25  1  0  0  0
  6 93  1  0  0  0
  6 94  1  0  0  0
  7  8  2  0  0  0
  7 26  1  0  0  0
  7 29  1  0  0  0
  8  9  1  0  0  0
  8 22  1  0  0  0
  9 10  1  0  0  0
  9 27  2  0  0  0
 10 11  2  0  0  0
 10 15  1  0  0  0
 11 12  1  0  0  0
 11 95  1  0  0  0
 12 13  2  0  0  0
 12 96  1  0  0  0
 13 14  1  0  0  0
 13 31  1  0  0  0
 14 15  2  0  0  0
 14 97  1  0  0  0
 15 98  1  0  0  0
 16 17  2  0  0  0
 16 21  1  0  0  0
 16 31  1  0  0  0
 17 18  1  0  0  0
 17 99  1  0  0  0
 18 19  2  0  0  0
 18100  1  0  0  0
 19 20  1  0  0  0
 19 24  1  0  0  0
 20 21  2  0  0  0
 20101  1  0  0  0
 21 23  1  0  0  0
 22 28  1  0  0  0
 22 32  2  0  0  0
 26 27  1  0  0  0
 28102  1  0  0  0
 28103  1  0  0  0
 29104  1  0  0  0
 29105  1  0  0  0
 33 34  1  0  0  0
 33 66  1  0  0  0
 33 70  2  0  0  0
 34 36  1  0  0  0
 34 59  1  0  0  0
 34106  1  0  0  0
 35 44  2  0  0  0
 35 45  1  0  0  0
 35 68  1  0  0  0
 36 56  1  0  0  0
 36107  1  0  0  0
 37 39  1  0  0  0
 37 47  1  0  0  0
 37 66  1  0  0  0
 37108  1  0  0  0
 38 43  2  0  0  0
 38 46  1  0  0  0
 38 47  1  0  0  0
 39 64  1  0  0  0
 39 67  2  0  0  0
 40 52  1  0  0  0
 40 53  2  0  0  0
 40 58  1  0  0  0
 41109  1  0  0  0
 41110  1  0  0  0
 41111  1  0  0  0
 41 48  1  0  0  0
 42 43  1  0  0  0
 42 66  1  0  0  0
 42112  1  0  0  0
 42113  1  0  0  0
 43 44  1  0  0  0
 44114  1  0  0  0
 45 46  2  0  0  0
 45115  1  0  0  0
 46116  1  0  0  0
 47117  1  0  0  0
 47118  1  0  0  0
 48 56  1  0  0  0
 48 65  1  0  0  0
 48119  1  0  0  0
 49 50  1  0  0  0
 49 53  1  0  0  0
 49 64  1  0  0  0
 49120  1  0  0  0
 50 51  1  0  0  0
 50121  1  0  0  0
 50122  1  0  0  0
 51 52  1  0  0  0
 51123  1  0  0  0
 51124  1  0  0  0
 52125  1  0  0  0
 52126  1  0  0  0
 53 54  1  0  0  0
 54 55  2  0  0  0
 54127  1  0  0  0
 55 57  1  0  0  0
 55128  1  0  0  0
 56 69  2  0  0  0
 57 58  2  0  0  0
 57129  1  0  0  0
 58130  1  0  0  0
 59 60  1  0  0  0
 59 61  1  0  0  0
 59 62  1  0  0  0
 60131  1  0  0  0
 60132  1  0  0  0
 60133  1  0  0  0
 61134  1  0  0  0
 61135  1  0  0  0
 61136  1  0  0  0
 62137  1  0  0  0
 62138  1  0  0  0
 62139  1  0  0  0
 63 65  1  0  0  0
 63140  1  0  0  0
 63141  1  0  0  0
 63142  1  0  0  0
 64143  1  0  0  0
 65144  1  0  0  0
 68 82  1  0  0  0
 71 72  2  0  0  0
 71 75  1  0  0  0
 71145  1  0  0  0
 72 73  1  0  0  0
 72 77  1  0  0  0
 73 74  2  0  0  0
 73 79  1  0  0  0
 74 76  1  0  0  0
 74 78  1  0  0  0
 75 76  2  0  0  0
 75 83  1  0  0  0
 76 85  1  0  0  0
 77146  1  0  0  0
 77147  1  0  0  0
 77148  1  0  0  0
 78149  1  0  0  0
 78150  1  0  0  0
 78151  1  0  0  0
 79 84  1  0  0  0
 79152  1  0  0  0
 79153  1  0  0  0
 80 81  1  0  0  0
 80 82  1  0  0  0
 80154  1  0  0  0
 80155  1  0  0  0
 81 84  1  0  0  0
 81156  1  0  0  0
 81157  1  0  0  0
 82158  1  0  0  0
 82159  1  0  0  0
 83160  1  0  0  0
 84161  1  0  0  0
 84162  1  0  0  0
M  CHG  1  84   1
M  ISO  4   1 100  68 101  82 101  83 100
M  END
> <chiral flag>
0

> <version>
0

> <s_m_source_file>
/data/baiqing/PycharmProjects/Reinvent-master-3.2/result/LINK_invent/BTK/process_docking_weight1_custom_sum_contain_oxygen_bond_distance_aromatic_linkinvent_7_9_3/rearranged_h_0020.sdf

> <i_m_source_file_index>
58

> <r_mmod_Potential_Energy-OPLS-2005>
-258.957824707031

> <r_mmod_Stretch_Energy-OPLS-2005>
38.0028877258301

> <r_mmod_Bend_Energy-OPLS-2005>
99.1033477783203

> <r_mmod_Torsional_Energy-OPLS-2005>
226.996368408203

> <r_mmod_Improper_Torsional_Energy-OPLS-2005>
3.05688047409058

> <r_mmod_Van_der_Waal_Energy-OPLS-2005>
156.328247070312

> <r_mmod_Electrostatic_Energy-OPLS-2005>
-322.85498046875

> <r_mmod_Solvation_Energy-OPLS-2005>
-467.685699462891

> <b_mmod_Minimization_Converged-OPLS-2005>
0

> <r_mmod_RMS_Derivative-OPLS-2005>
1.34731030464172

$$$$
58
                    3D
 Structure written by MMmdl.
174182  0  0  1  0            999 V2000
  -30.6296  -14.5956   20.5115 C   0  0  0  0  0  0
  -30.4397  -12.3651   19.4457 C   0  0  0  0  0  0
  -29.5090  -12.5065   18.2206 C   0  0  0  0  0  0
  -28.0299  -12.3509   18.6305 C   0  0  0  0  0  0
  -27.6582  -13.2108   19.8681 C   0  0  2  0  0  0
  -28.7015  -13.0359   20.9954 C   0  0  0  0  0  0
  -25.2583  -13.8160   20.5677 C   0  0  0  0  0  0
  -24.1837  -13.0435   20.9174 C   0  0  0  0  0  0
  -24.6395  -11.6903   20.8728 C   0  0  0  0  0  0
  -23.9059  -10.4291   21.0397 C   0  0  0  0  0  0
  -24.3613   -9.4207   21.9175 C   0  0  0  0  0  0
  -23.6289   -8.2242   22.0750 C   0  0  0  0  0  0
  -22.4269   -8.0278   21.3543 C   0  0  0  0  0  0
  -21.9901   -9.0252   20.4648 C   0  0  0  0  0  0
  -22.7228  -10.2131   20.3052 C   0  0  0  0  0  0
  -21.6852   -6.0732   22.5279 C   0  0  0  0  0  0
  -21.4014   -6.5637   23.8212 C   0  0  0  0  0  0
  -21.3660   -5.6789   24.9174 C   0  0  0  0  0  0
  -21.6043   -4.3052   24.7225 C   0  0  0  0  0  0
  -21.8819   -3.8142   23.4347 C   0  0  0  0  0  0
  -21.9194   -4.6960   22.3404 C   0  0  0  0  0  0
  -22.7861  -13.5235   21.1844 C   0  0  0  0  0  0
  -22.1660   -4.2146   21.0982 F   0  0  0  0  0  0
  -21.5631   -3.4536   25.7737 F   0  0  0  0  0  0
  -30.0230  -13.3720   20.4391 N   0  0  0  0  0  0
  -26.3013  -12.9330   20.3332 N   0  0  0  0  0  0
  -25.9324  -11.6491   20.5750 N   0  0  0  0  0  0
  -22.0501  -12.8237   22.0408 N   0  0  0  0  0  0
  -25.4302  -15.1880   20.4099 N   0  0  0  0  0  0
  -31.7843  -14.7750   20.1119 O   0  0  0  0  0  0
  -21.6638   -6.8872   21.4240 O   0  0  0  0  0  0
  -22.3545  -14.5541   20.6693 O   0  0  0  0  0  0
  -24.6235  -31.8618   23.2050 C   0  0  0  0  0  0
  -25.9095  -32.4792   23.8366 C   0  0  1  0  0  0
  -27.2274  -27.3503   20.1058 C   0  0  0  0  0  0
  -25.5922  -33.8594   24.2293 N   0  0  0  0  0  0
  -23.4152  -30.4868   21.5472 C   0  0  2  0  0  0
  -24.8609  -28.9468   20.1113 C   0  0  0  0  0  0
  -22.7460  -29.4636   22.4952 C   0  0  0  0  0  0
  -18.0281  -28.1390   22.8486 C   0  0  0  0  0  0
  -24.1487  -36.7297   23.2638 C   0  0  0  0  0  0
  -25.9540  -30.8025   21.3712 C   0  0  0  0  0  0
  -26.0287  -29.4331   20.7120 C   0  0  0  0  0  0
  -27.2150  -28.6462   20.6996 C   0  0  0  0  0  0
  -26.0342  -26.9083   19.4871 C   0  0  0  0  0  0
  -24.8638  -27.6882   19.4920 C   0  0  0  0  0  0
  -23.6275  -29.8230   20.1617 C   0  0  0  0  0  0
  -25.4110  -36.3091   24.0333 C   0  0  1  0  0  0
  -20.5879  -28.3685   23.1299 C   0  0  2  0  0  0
  -20.6771  -26.9409   22.5431 C   0  0  0  0  0  0
  -19.5758  -26.6386   21.5220 C   0  0  0  0  0  0
  -18.1926  -26.7940   22.1608 C   0  0  0  0  0  0
  -19.1533  -28.8853   23.2889 C   0  0  0  0  0  0
  -18.9458  -30.1456   23.8905 C   0  0  0  0  0  0
  -17.6460  -30.6591   24.0571 C   0  0  0  0  0  0
  -25.9047  -34.9461   23.5111 C   0  0  0  0  0  0
  -16.5350  -29.9094   23.6333 C   0  0  0  0  0  0
  -16.7268  -28.6513   23.0347 C   0  0  0  0  0  0
  -26.4492  -31.6597   25.0725 C   0  0  0  0  0  0
  -25.3741  -31.3748   26.1471 C   0  0  0  0  0  0
  -27.0314  -30.3015   24.6165 C   0  0  0  0  0  0
  -27.6067  -32.4324   25.7478 C   0  0  0  0  0  0
  -27.5589  -37.1789   24.8454 C   0  0  0  0  0  0
  -21.4177  -29.3039   22.3691 N   0  0  0  0  0  0
  -26.4287  -37.3788   23.9421 N   0  0  0  0  0  0
  -24.6830  -31.0661   22.0983 N   0  0  0  0  0  0
  -23.4201  -28.8178   23.3019 O   0  0  0  0  0  0
  -28.3626  -26.5334   20.1464 O   0  0  0  0  0  0
  -26.5611  -34.8926   22.4675 O   0  0  0  0  0  0
  -23.5408  -32.1400   23.7400 O   0  0  0  0  0  0
  -29.7615  -19.3170   21.8230 C   0  0  0  0  0  0
  -30.0515  -19.1600   19.4112 C   0  0  0  0  0  0
  -29.9571  -19.9831   20.5766 C   0  0  0  0  0  0
  -29.7842  -17.8879   21.9192 C   0  0  0  0  0  0
  -30.0203  -17.7261   19.5025 C   0  0  0  0  0  0
  -29.9371  -17.0678   20.7658 C   0  0  0  0  0  0
  -29.5380  -20.1477   23.0862 C   0  0  0  0  0  0
  -30.1852  -19.8025   18.0308 C   0  0  0  0  0  0
  -29.6483  -17.2221   23.2890 C   0  0  0  0  0  0
  -30.0632  -16.8795   18.2295 C   0  0  0  0  0  0
  -30.5194  -24.2800   18.0480 C   0  0  0  0  0  0
  -29.6939  -24.4231   21.8875 C   0  0  0  0  0  0
  -30.2257  -21.5358   20.5363 C   0  0  0  0  0  0
  -30.6293  -24.5238   19.5629 C   0  0  0  0  0  0
  -29.0573  -22.5708   20.2516 C   0  0  0  0  0  0
  -28.1742  -25.0800   20.0043 C   0  0  0  0  0  0
  -29.3844  -24.1342   20.4035 C   0  0  1  0  0  0
  -29.8187  -15.6209   20.9019 N   0  0  0  0  0  0
  -31.4820  -12.4881   19.1459 H   0  0  0  0  0  0
  -30.3682  -11.3629   19.8711 H   0  0  0  0  0  0
  -29.7674  -11.7642   17.4644 H   0  0  0  0  0  0
  -29.6598  -13.4811   17.7539 H   0  0  0  0  0  0
  -27.8586  -11.2964   18.8503 H   0  0  0  0  0  0
  -27.3776  -12.5946   17.7911 H   0  0  0  0  0  0
  -27.6856  -14.2506   19.5422 H   0  0  0  0  0  0
  -28.7021  -12.0071   21.3580 H   0  0  0  0  0  0
  -28.4514  -13.6511   21.8609 H   0  0  0  0  0  0
  -25.2761   -9.5685   22.4743 H   0  0  0  0  0  0
  -24.0003   -7.4633   22.7464 H   0  0  0  0  0  0
  -21.0830   -8.8767   19.8956 H   0  0  0  0  0  0
  -22.3682  -10.9668   19.6161 H   0  0  0  0  0  0
  -21.2002   -7.6145   23.9716 H   0  0  0  0  0  0
  -21.1484   -6.0518   25.9077 H   0  0  0  0  0  0
  -22.0597   -2.7605   23.2847 H   0  0  0  0  0  0
  -22.4113  -11.9904   22.4810 H   0  0  0  0  0  0
  -21.1123  -13.1274   22.2612 H   0  0  0  0  0  0
  -24.6631  -15.8425   20.5178 H   0  0  0  0  0  0
  -26.2839  -15.6303   20.0930 H   0  0  0  0  0  0
  -26.7163  -32.5470   23.1118 H   0  0  0  0  0  0
  -25.0083  -33.9745   25.0447 H   0  0  0  0  0  0
  -22.7078  -31.3065   21.4065 H   0  0  0  0  0  0
  -23.3758  -35.9618   23.3285 H   0  0  0  0  0  0
  -24.3582  -36.8932   22.2055 H   0  0  0  0  0  0
  -23.7226  -37.6489   23.6669 H   0  0  0  0  0  0
  -26.0822  -31.5687   20.6052 H   0  0  0  0  0  0
  -26.8360  -30.8493   21.9984 H   0  0  0  0  0  0
  -28.1128  -29.0167   21.1745 H   0  0  0  0  0  0
  -25.9770  -25.9483   18.9968 H   0  0  0  0  0  0
  -23.9683  -27.3097   19.0180 H   0  0  0  0  0  0
  -23.7442  -30.6000   19.4054 H   0  0  0  0  0  0
  -22.7486  -29.2502   19.8602 H   0  0  0  0  0  0
  -25.1290  -36.1938   25.0825 H   0  0  0  0  0  0
  -20.9968  -28.3261   24.1420 H   0  0  0  0  0  0
  -20.5653  -26.2300   23.3632 H   0  0  0  0  0  0
  -21.6645  -26.7434   22.1238 H   0  0  0  0  0  0
  -19.6921  -25.6296   21.1252 H   0  0  0  0  0  0
  -19.6714  -27.3199   20.6754 H   0  0  0  0  0  0
  -17.4213  -26.6710   21.3990 H   0  0  0  0  0  0
  -18.0296  -26.0075   22.8988 H   0  0  0  0  0  0
  -19.7936  -30.7269   24.2276 H   0  0  0  0  0  0
  -17.5017  -31.6268   24.5178 H   0  0  0  0  0  0
  -15.5352  -30.3000   23.7657 H   0  0  0  0  0  0
  -15.8667  -28.0841   22.7053 H   0  0  0  0  0  0
  -24.5948  -30.7037   25.7843 H   0  0  0  0  0  0
  -24.8892  -32.2916   26.4838 H   0  0  0  0  0  0
  -25.8095  -30.9010   27.0278 H   0  0  0  0  0  0
  -26.2867  -29.6775   24.1206 H   0  0  0  0  0  0
  -27.4027  -29.7264   25.4656 H   0  0  0  0  0  0
  -27.8737  -30.4292   23.9361 H   0  0  0  0  0  0
  -27.2687  -33.3621   26.2068 H   0  0  0  0  0  0
  -28.3863  -32.6888   25.0292 H   0  0  0  0  0  0
  -28.0753  -31.8444   26.5379 H   0  0  0  0  0  0
  -28.2595  -38.0099   24.7529 H   0  0  0  0  0  0
  -28.1096  -36.2636   24.6230 H   0  0  0  0  0  0
  -27.2323  -37.1379   25.8860 H   0  0  0  0  0  0
  -20.9348  -29.8763   21.6907 H   0  0  0  0  0  0
  -26.0169  -38.2856   24.1457 H   0  0  0  0  0  0
  -29.0675  -21.1060   22.8702 H   0  0  0  0  0  0
  -30.4848  -20.3361   23.5928 H   0  0  0  0  0  0
  -28.8649  -19.6541   23.7863 H   0  0  0  0  0  0
  -30.2556  -20.8855   18.0367 H   0  0  0  0  0  0
  -29.3115  -19.5696   17.4222 H   0  0  0  0  0  0
  -31.0720  -19.4268   17.5195 H   0  0  0  0  0  0
  -30.1756  -17.7837   24.0595 H   0  0  0  0  0  0
  -30.0762  -16.2210   23.3210 H   0  0  0  0  0  0
  -28.5980  -17.1498   23.5717 H   0  0  0  0  0  0
  -29.6573  -17.3859   17.3568 H   0  0  0  0  0  0
  -29.4683  -15.9731   18.3316 H   0  0  0  0  0  0
  -31.0903  -16.5910   18.0056 H   0  0  0  0  0  0
  -31.4499  -24.5549   17.5511 H   0  0  0  0  0  0
  -29.7275  -24.8768   17.5959 H   0  0  0  0  0  0
  -30.3286  -23.2339   17.8144 H   0  0  0  0  0  0
  -30.5816  -23.8970   22.2362 H   0  0  0  0  0  0
  -28.8637  -24.1315   22.5317 H   0  0  0  0  0  0
  -29.8743  -25.4856   22.0556 H   0  0  0  0  0  0
  -31.0346  -21.7127   19.8298 H   0  0  0  0  0  0
  -30.7008  -21.8040   21.4772 H   0  0  0  0  0  0
  -30.8510  -25.5803   19.7215 H   0  0  0  0  0  0
  -31.5067  -23.9945   19.9358 H   0  0  0  0  0  0
  -28.2261  -22.3335   20.9160 H   0  0  0  0  0  0
  -28.6704  -22.3834   19.2500 H   0  0  0  0  0  0
  -27.3161  -24.7854   20.6112 H   0  0  0  0  0  0
  -27.8965  -24.8660   18.9723 H   0  0  0  0  0  0
  -28.9555  -15.3084   21.3190 H   0  0  0  0  0  0
  1 25  1  0  0  0
  1 30  2  0  0  0
  1 88  1  0  0  0
  2  3  1  0  0  0
  2 25  1  0  0  0
  2 89  1  0  0  0
  2 90  1  0  0  0
  3  4  1  0  0  0
  3 91  1  0  0  0
  3 92  1  0  0  0
  4  5  1  0  0  0
  4 93  1  0  0  0
  4 94  1  0  0  0
  5  6  1  0  0  0
  5 26  1  0  0  0
  5 95  1  0  0  0
  6 25  1  0  0  0
  6 96  1  0  0  0
  6 97  1  0  0  0
  7  8  2  0  0  0
  7 26  1  0  0  0
  7 29  1  0  0  0
  8  9  1  0  0  0
  8 22  1  0  0  0
  9 10  1  0  0  0
  9 27  2  0  0  0
 10 11  2  0  0  0
 10 15  1  0  0  0
 11 12  1  0  0  0
 11 98  1  0  0  0
 12 13  2  0  0  0
 12 99  1  0  0  0
 13 14  1  0  0  0
 13 31  1  0  0  0
 14 15  2  0  0  0
 14100  1  0  0  0
 15101  1  0  0  0
 16 17  2  0  0  0
 16 21  1  0  0  0
 16 31  1  0  0  0
 17 18  1  0  0  0
 17102  1  0  0  0
 18 19  2  0  0  0
 18103  1  0  0  0
 19 20  1  0  0  0
 19 24  1  0  0  0
 20 21  2  0  0  0
 20104  1  0  0  0
 21 23  1  0  0  0
 22 28  1  0  0  0
 22 32  2  0  0  0
 26 27  1  0  0  0
 28105  1  0  0  0
 28106  1  0  0  0
 29107  1  0  0  0
 29108  1  0  0  0
 33 34  1  0  0  0
 33 66  1  0  0  0
 33 70  2  0  0  0
 34 36  1  0  0  0
 34 59  1  0  0  0
 34109  1  0  0  0
 35 44  2  0  0  0
 35 45  1  0  0  0
 35 68  1  0  0  0
 36 56  1  0  0  0
 36110  1  0  0  0
 37 39  1  0  0  0
 37 47  1  0  0  0
 37 66  1  0  0  0
 37111  1  0  0  0
 38 43  2  0  0  0
 38 46  1  0  0  0
 38 47  1  0  0  0
 39 64  1  0  0  0
 39 67  2  0  0  0
 40 52  1  0  0  0
 40 53  2  0  0  0
 40 58  1  0  0  0
 41112  1  0  0  0
 41113  1  0  0  0
 41114  1  0  0  0
 41 48  1  0  0  0
 42 43  1  0  0  0
 42 66  1  0  0  0
 42115  1  0  0  0
 42116  1  0  0  0
 43 44  1  0  0  0
 44117  1  0  0  0
 45 46  2  0  0  0
 45118  1  0  0  0
 46119  1  0  0  0
 47120  1  0  0  0
 47121  1  0  0  0
 48 56  1  0  0  0
 48 65  1  0  0  0
 48122  1  0  0  0
 49 50  1  0  0  0
 49 53  1  0  0  0
 49 64  1  0  0  0
 49123  1  0  0  0
 50 51  1  0  0  0
 50124  1  0  0  0
 50125  1  0  0  0
 51 52  1  0  0  0
 51126  1  0  0  0
 51127  1  0  0  0
 52128  1  0  0  0
 52129  1  0  0  0
 53 54  1  0  0  0
 54 55  2  0  0  0
 54130  1  0  0  0
 55 57  1  0  0  0
 55131  1  0  0  0
 56 69  2  0  0  0
 57 58  2  0  0  0
 57132  1  0  0  0
 58133  1  0  0  0
 59 60  1  0  0  0
 59 61  1  0  0  0
 59 62  1  0  0  0
 60134  1  0  0  0
 60135  1  0  0  0
 60136  1  0  0  0
 61137  1  0  0  0
 61138  1  0  0  0
 61139  1  0  0  0
 62140  1  0  0  0
 62141  1  0  0  0
 62142  1  0  0  0
 63 65  1  0  0  0
 63143  1  0  0  0
 63144  1  0  0  0
 63145  1  0  0  0
 64146  1  0  0  0
 65147  1  0  0  0
 68 86  1  0  0  0
 71 73  2  0  0  0
 71 74  1  0  0  0
 71 77  1  0  0  0
 72 73  1  0  0  0
 72 75  2  0  0  0
 72 78  1  0  0  0
 73 83  1  0  0  0
 74 76  2  0  0  0
 74 79  1  0  0  0
 75 76  1  0  0  0
 75 80  1  0  0  0
 76 88  1  0  0  0
 77148  1  0  0  0
 77149  1  0  0  0
 77150  1  0  0  0
 78151  1  0  0  0
 78152  1  0  0  0
 78153  1  0  0  0
 79154  1  0  0  0
 79155  1  0  0  0
 79156  1  0  0  0
 80157  1  0  0  0
 80158  1  0  0  0
 80159  1  0  0  0
 81 84  1  0  0  0
 81160  1  0  0  0
 81161  1  0  0  0
 81162  1  0  0  0
 82163  1  0  0  0
 82164  1  0  0  0
 82165  1  0  0  0
 82 87  1  0  0  0
 83 85  1  0  0  0
 83166  1  0  0  0
 83167  1  0  0  0
 84 87  1  0  0  0
 84168  1  0  0  0
 84169  1  0  0  0
 85 87  1  0  0  0
 85170  1  0  0  0
 85171  1  0  0  0
 86 87  1  0  0  0
 86172  1  0  0  0
 86173  1  0  0  0
 88174  1  0  0  0
M  ISO  4   1 100  68 101  86 101  88 100
M  END
> <chiral flag>
0

> <version>
0

> <s_m_source_file>
/data/baiqing/PycharmProjects/Reinvent-master-3.2/result/LINK_invent/BTK/process_docking_weight1_custom_sum_contain_oxygen_bond_distance_aromatic_linkinvent_7_9_3/rearranged_h_0020.sdf

> <i_m_source_file_index>
59

> <r_mmod_Potential_Energy-OPLS-2005>
33.716194152832

> <r_mmod_Stretch_Energy-OPLS-2005>
79.5704345703125

> <r_mmod_Bend_Energy-OPLS-2005>
131.436492919922

> <r_mmod_Torsional_Energy-OPLS-2005>
252.345962524414

> <r_mmod_Improper_Torsional_Energy-OPLS-2005>
4.98738193511963

> <r_mmod_Van_der_Waal_Energy-OPLS-2005>
164.427856445312

> <r_mmod_Electrostatic_Energy-OPLS-2005>
-438.218566894531

> <r_mmod_Solvation_Energy-OPLS-2005>
-196.213500976562

> <b_mmod_Minimization_Converged-OPLS-2005>
0

> <r_mmod_RMS_Derivative-OPLS-2005>
0.511235058307648

$$$$
59
                    3D
 Structure written by MMmdl.
165173  0  0  1  0            999 V2000
  -30.7661  -14.4490   20.6598 C   0  0  0  0  0  0
  -30.4227  -12.3304   19.4155 C   0  0  0  0  0  0
  -29.4885  -12.5136   18.2043 C   0  0  0  0  0  0
  -28.0150  -12.3548   18.6210 C   0  0  0  0  0  0
  -27.6590  -13.1992   19.8719 C   0  0  2  0  0  0
  -28.7007  -13.0059   20.9929 C   0  0  0  0  0  0
  -25.2593  -13.8145   20.5702 C   0  0  0  0  0  0
  -24.1837  -13.0439   20.9206 C   0  0  0  0  0  0
  -24.6385  -11.6913   20.8758 C   0  0  0  0  0  0
  -23.9054  -10.4306   21.0417 C   0  0  0  0  0  0
  -24.3613   -9.4222   21.9185 C   0  0  0  0  0  0
  -23.6292   -8.2251   22.0730 C   0  0  0  0  0  0
  -22.4274   -8.0283   21.3530 C   0  0  0  0  0  0
  -21.9917   -9.0270   20.4636 C   0  0  0  0  0  0
  -22.7234  -10.2148   20.3053 C   0  0  0  0  0  0
  -21.6866   -6.0746   22.5283 C   0  0  0  0  0  0
  -21.4037   -6.5651   23.8221 C   0  0  0  0  0  0
  -21.3659   -5.6795   24.9174 C   0  0  0  0  0  0
  -21.6038   -4.3056   24.7220 C   0  0  0  0  0  0
  -21.8819   -3.8154   23.4340 C   0  0  0  0  0  0
  -21.9198   -4.6976   22.3402 C   0  0  0  0  0  0
  -22.7869  -13.5245   21.1880 C   0  0  0  0  0  0
  -22.1654   -4.2160   21.0983 F   0  0  0  0  0  0
  -21.5625   -3.4541   25.7733 F   0  0  0  0  0  0
  -30.0418  -13.3061   20.4525 N   0  0  0  0  0  0
  -26.3021  -12.9289   20.3376 N   0  0  0  0  0  0
  -25.9306  -11.6469   20.5789 N   0  0  0  0  0  0
  -22.0479  -12.8240   22.0416 N   0  0  0  0  0  0
  -25.4308  -15.1866   20.4113 N   0  0  0  0  0  0
  -31.8040  -14.6966   20.0395 O   0  0  0  0  0  0
  -21.6634   -6.8882   21.4237 O   0  0  0  0  0  0
  -22.3562  -14.5561   20.6734 O   0  0  0  0  0  0
  -24.6154  -31.8680   23.2092 C   0  0  0  0  0  0
  -25.9053  -32.4817   23.8384 C   0  0  1  0  0  0
  -27.2355  -27.4257   20.0933 C   0  0  0  0  0  0
  -25.5901  -33.8615   24.2312 N   0  0  0  0  0  0
  -23.4022  -30.4917   21.5520 C   0  0  2  0  0  0
  -24.8462  -28.9528   20.1214 C   0  0  0  0  0  0
  -22.7404  -29.4669   22.5003 C   0  0  0  0  0  0
  -18.0272  -28.1381   22.8493 C   0  0  0  0  0  0
  -24.1486  -36.7301   23.2641 C   0  0  0  0  0  0
  -25.9327  -30.8321   21.3616 C   0  0  0  0  0  0
  -26.0107  -29.4663   20.7064 C   0  0  0  0  0  0
  -27.2093  -28.7142   20.6809 C   0  0  0  0  0  0
  -26.0474  -26.9258   19.5133 C   0  0  0  0  0  0
  -24.8595  -27.6809   19.5254 C   0  0  0  0  0  0
  -23.6091  -29.8214   20.1687 C   0  0  0  0  0  0
  -25.4110  -36.3107   24.0337 C   0  0  1  0  0  0
  -20.5860  -28.3665   23.1317 C   0  0  2  0  0  0
  -20.6765  -26.9402   22.5417 C   0  0  0  0  0  0
  -19.5744  -26.6384   21.5214 C   0  0  0  0  0  0
  -18.1921  -26.7928   22.1629 C   0  0  0  0  0  0
  -19.1525  -28.8839   23.2899 C   0  0  0  0  0  0
  -18.9456  -30.1449   23.8902 C   0  0  0  0  0  0
  -17.6459  -30.6592   24.0565 C   0  0  0  0  0  0
  -25.9041  -34.9474   23.5123 C   0  0  0  0  0  0
  -16.5343  -29.9091   23.6339 C   0  0  0  0  0  0
  -16.7258  -28.6510   23.0347 C   0  0  0  0  0  0
  -26.4473  -31.6602   25.0715 C   0  0  0  0  0  0
  -25.3731  -31.3717   26.1456 C   0  0  0  0  0  0
  -27.0307  -30.3039   24.6111 C   0  0  0  0  0  0
  -27.6049  -32.4323   25.7469 C   0  0  0  0  0  0
  -27.5578  -37.1807   24.8471 C   0  0  0  0  0  0
  -21.4136  -29.3032   22.3728 N   0  0  0  0  0  0
  -26.4294  -37.3791   23.9408 N   0  0  0  0  0  0
  -24.6683  -31.0776   22.0994 N   0  0  0  0  0  0
  -23.4174  -28.8219   23.3053 O   0  0  0  0  0  0
  -28.4130  -26.6993   20.0715 O   0  0  0  0  0  0
  -26.5610  -34.8928   22.4689 O   0  0  0  0  0  0
  -23.5347  -32.1430   23.7491 O   0  0  0  0  0  0
  -30.4703  -17.6196   22.4763 C   0  0  0  0  0  0
  -29.5010  -19.5669   21.3432 C   0  0  0  0  0  0
  -29.2097  -18.7356   20.2257 C   0  0  0  0  0  0
  -30.1181  -16.7394   21.4196 C   0  0  0  0  0  0
  -30.1770  -18.9949   22.4410 C   0  0  0  0  0  0
  -29.5238  -17.3362   20.2585 C   0  0  0  0  0  0
  -28.5363  -19.3598   19.0011 C   0  0  0  0  0  0
  -31.3272  -23.2909   21.8236 C   0  0  0  0  0  0
  -30.4917  -14.8107   22.9976 C   0  0  0  0  0  0
  -28.9861  -21.0189   21.4757 C   0  0  0  0  0  0
  -29.7241  -24.6169   20.3446 C   0  0  0  0  0  0
  -28.3246  -25.2908   20.3665 C   0  0  0  0  0  0
  -29.8981  -23.3521   21.2504 C   0  0  1  0  0  0
  -30.3185  -15.3029   21.6188 N   0  0  0  0  0  0
  -29.5888  -22.0502   20.5818 N   0  3  0  0  0  0
  -30.5113  -19.7567   23.5099 F   0  0  0  0  0  0
  -29.1106  -16.3792   18.8743 Cl  0  0  0  0  0  0
  -31.4647  -12.4353   19.1069 H   0  0  0  0  0  0
  -30.3394  -11.3187   19.8139 H   0  0  0  0  0  0
  -29.7370  -11.7865   17.4295 H   0  0  0  0  0  0
  -29.6433  -13.4993   17.7640 H   0  0  0  0  0  0
  -27.8353  -11.2983   18.8202 H   0  0  0  0  0  0
  -27.3616  -12.6195   17.7885 H   0  0  0  0  0  0
  -27.6891  -14.2415   19.5721 H   0  0  0  0  0  0
  -28.6788  -11.9803   21.3621 H   0  0  0  0  0  0
  -28.4259  -13.6282   21.8442 H   0  0  0  0  0  0
  -25.2745   -9.5723   22.4773 H   0  0  0  0  0  0
  -24.0023   -7.4641   22.7442 H   0  0  0  0  0  0
  -21.0850   -8.8802   19.8930 H   0  0  0  0  0  0
  -22.3694  -10.9707   19.6180 H   0  0  0  0  0  0
  -21.2032   -7.6156   23.9750 H   0  0  0  0  0  0
  -21.1478   -6.0500   25.9090 H   0  0  0  0  0  0
  -22.0595   -2.7616   23.2831 H   0  0  0  0  0  0
  -22.4080  -11.9908   22.4825 H   0  0  0  0  0  0
  -21.1090  -13.1280   22.2607 H   0  0  0  0  0  0
  -24.6606  -15.8394   20.5044 H   0  0  0  0  0  0
  -26.2913  -15.6252   20.1077 H   0  0  0  0  0  0
  -26.7119  -32.5521   23.1142 H   0  0  0  0  0  0
  -25.0038  -33.9771   25.0448 H   0  0  0  0  0  0
  -22.6910  -31.3092   21.4130 H   0  0  0  0  0  0
  -23.3750  -35.9635   23.3330 H   0  0  0  0  0  0
  -24.3573  -36.8887   22.2049 H   0  0  0  0  0  0
  -23.7240  -37.6513   23.6638 H   0  0  0  0  0  0
  -26.0492  -31.6017   20.5970 H   0  0  0  0  0  0
  -26.8188  -30.8799   21.9835 H   0  0  0  0  0  0
  -28.1113  -29.1151   21.1213 H   0  0  0  0  0  0
  -26.0213  -25.9598   19.0338 H   0  0  0  0  0  0
  -23.9620  -27.2763   19.0788 H   0  0  0  0  0  0
  -23.7157  -30.5953   19.4067 H   0  0  0  0  0  0
  -22.7312  -29.2421   19.8759 H   0  0  0  0  0  0
  -25.1294  -36.1970   25.0830 H   0  0  0  0  0  0
  -20.9949  -28.3232   24.1438 H   0  0  0  0  0  0
  -20.5679  -26.2271   23.3602 H   0  0  0  0  0  0
  -21.6633  -26.7457   22.1201 H   0  0  0  0  0  0
  -19.6904  -25.6300   21.1234 H   0  0  0  0  0  0
  -19.6683  -27.3203   20.6751 H   0  0  0  0  0  0
  -17.4189  -26.6673   21.4028 H   0  0  0  0  0  0
  -18.0324  -26.0066   22.9024 H   0  0  0  0  0  0
  -19.7927  -30.7267   24.2260 H   0  0  0  0  0  0
  -17.5015  -31.6272   24.5165 H   0  0  0  0  0  0
  -15.5347  -30.2994   23.7668 H   0  0  0  0  0  0
  -15.8657  -28.0840   22.7051 H   0  0  0  0  0  0
  -24.5888  -30.7088   25.7786 H   0  0  0  0  0  0
  -24.8937  -32.2874   26.4921 H   0  0  0  0  0  0
  -25.8062  -30.8861   27.0207 H   0  0  0  0  0  0
  -26.2859  -29.6789   24.1166 H   0  0  0  0  0  0
  -27.4071  -29.7292   25.4585 H   0  0  0  0  0  0
  -27.8696  -30.4354   23.9271 H   0  0  0  0  0  0
  -27.2672  -33.3613   26.2075 H   0  0  0  0  0  0
  -28.3830  -32.6904   25.0275 H   0  0  0  0  0  0
  -28.0748  -31.8433   26.5350 H   0  0  0  0  0  0
  -28.2623  -38.0081   24.7504 H   0  0  0  0  0  0
  -28.1048  -36.2612   24.6324 H   0  0  0  0  0  0
  -27.2290  -37.1488   25.8875 H   0  0  0  0  0  0
  -20.9301  -29.8722   21.6925 H   0  0  0  0  0  0
  -26.0187  -38.2873   24.1404 H   0  0  0  0  0  0
  -30.9516  -17.2620   23.3730 H   0  0  0  0  0  0
  -29.2508  -19.9777   18.4558 H   0  0  0  0  0  0
  -27.6934  -19.9855   19.2881 H   0  0  0  0  0  0
  -28.1340  -18.6414   18.2911 H   0  0  0  0  0  0
  -31.5607  -24.1801   22.4110 H   0  0  0  0  0  0
  -32.0734  -23.2190   21.0305 H   0  0  0  0  0  0
  -31.4602  -22.4312   22.4810 H   0  0  0  0  0  0
  -29.7045  -15.2008   23.6431 H   0  0  0  0  0  0
  -31.4595  -15.1088   23.4048 H   0  0  0  0  0  0
  -30.4532  -13.7211   23.0780 H   0  0  0  0  0  0
  -29.1091  -21.3249   22.5136 H   0  0  0  0  0  0
  -27.9058  -21.0265   21.3303 H   0  0  0  0  0  0
  -30.4229  -25.3734   20.7040 H   0  0  0  0  0  0
  -30.0373  -24.4174   19.3190 H   0  0  0  0  0  0
  -27.8735  -25.1906   21.3548 H   0  0  0  0  0  0
  -27.6758  -24.7637   19.6674 H   0  0  0  0  0  0
  -29.2215  -23.4823   22.0954 H   0  0  0  0  0  0
  -28.9338  -22.2127   19.8345 H   0  0  0  0  0  0
  -30.4325  -21.6850   20.1707 H   0  0  0  0  0  0
  1 25  1  0  0  0
  1 30  2  0  0  0
  1 84  1  0  0  0
  2  3  1  0  0  0
  2 25  1  0  0  0
  2 88  1  0  0  0
  2 89  1  0  0  0
  3  4  1  0  0  0
  3 90  1  0  0  0
  3 91  1  0  0  0
  4  5  1  0  0  0
  4 92  1  0  0  0
  4 93  1  0  0  0
  5  6  1  0  0  0
  5 26  1  0  0  0
  5 94  1  0  0  0
  6 25  1  0  0  0
  6 95  1  0  0  0
  6 96  1  0  0  0
  7  8  2  0  0  0
  7 26  1  0  0  0
  7 29  1  0  0  0
  8  9  1  0  0  0
  8 22  1  0  0  0
  9 10  1  0  0  0
  9 27  2  0  0  0
 10 11  2  0  0  0
 10 15  1  0  0  0
 11 12  1  0  0  0
 11 97  1  0  0  0
 12 13  2  0  0  0
 12 98  1  0  0  0
 13 14  1  0  0  0
 13 31  1  0  0  0
 14 15  2  0  0  0
 14 99  1  0  0  0
 15100  1  0  0  0
 16 17  2  0  0  0
 16 21  1  0  0  0
 16 31  1  0  0  0
 17 18  1  0  0  0
 17101  1  0  0  0
 18 19  2  0  0  0
 18102  1  0  0  0
 19 20  1  0  0  0
 19 24  1  0  0  0
 20 21  2  0  0  0
 20103  1  0  0  0
 21 23  1  0  0  0
 22 28  1  0  0  0
 22 32  2  0  0  0
 26 27  1  0  0  0
 28104  1  0  0  0
 28105  1  0  0  0
 29106  1  0  0  0
 29107  1  0  0  0
 33 34  1  0  0  0
 33 66  1  0  0  0
 33 70  2  0  0  0
 34 36  1  0  0  0
 34 59  1  0  0  0
 34108  1  0  0  0
 35 44  2  0  0  0
 35 45  1  0  0  0
 35 68  1  0  0  0
 36 56  1  0  0  0
 36109  1  0  0  0
 37 39  1  0  0  0
 37 47  1  0  0  0
 37 66  1  0  0  0
 37110  1  0  0  0
 38 43  2  0  0  0
 38 46  1  0  0  0
 38 47  1  0  0  0
 39 64  1  0  0  0
 39 67  2  0  0  0
 40 52  1  0  0  0
 40 53  2  0  0  0
 40 58  1  0  0  0
 41111  1  0  0  0
 41112  1  0  0  0
 41113  1  0  0  0
 41 48  1  0  0  0
 42 43  1  0  0  0
 42 66  1  0  0  0
 42114  1  0  0  0
 42115  1  0  0  0
 43 44  1  0  0  0
 44116  1  0  0  0
 45 46  2  0  0  0
 45117  1  0  0  0
 46118  1  0  0  0
 47119  1  0  0  0
 47120  1  0  0  0
 48 56  1  0  0  0
 48 65  1  0  0  0
 48121  1  0  0  0
 49 50  1  0  0  0
 49 53  1  0  0  0
 49 64  1  0  0  0
 49122  1  0  0  0
 50 51  1  0  0  0
 50123  1  0  0  0
 50124  1  0  0  0
 51 52  1  0  0  0
 51125  1  0  0  0
 51126  1  0  0  0
 52127  1  0  0  0
 52128  1  0  0  0
 53 54  1  0  0  0
 54 55  2  0  0  0
 54129  1  0  0  0
 55 57  1  0  0  0
 55130  1  0  0  0
 56 69  2  0  0  0
 57 58  2  0  0  0
 57131  1  0  0  0
 58132  1  0  0  0
 59 60  1  0  0  0
 59 61  1  0  0  0
 59 62  1  0  0  0
 60133  1  0  0  0
 60134  1  0  0  0
 60135  1  0  0  0
 61136  1  0  0  0
 61137  1  0  0  0
 61138  1  0  0  0
 62139  1  0  0  0
 62140  1  0  0  0
 62141  1  0  0  0
 63 65  1  0  0  0
 63142  1  0  0  0
 63143  1  0  0  0
 63144  1  0  0  0
 64145  1  0  0  0
 65146  1  0  0  0
 68 82  1  0  0  0
 71 74  2  0  0  0
 71 75  1  0  0  0
 71147  1  0  0  0
 72 73  1  0  0  0
 72 75  2  0  0  0
 72 80  1  0  0  0
 73 76  2  0  0  0
 73 77  1  0  0  0
 74 76  1  0  0  0
 74 84  1  0  0  0
 75 86  1  0  0  0
 76 87  1  0  0  0
 77148  1  0  0  0
 77149  1  0  0  0
 77150  1  0  0  0
 78151  1  0  0  0
 78152  1  0  0  0
 78153  1  0  0  0
 78 83  1  0  0  0
 79 84  1  0  0  0
 79154  1  0  0  0
 79155  1  0  0  0
 79156  1  0  0  0
 80 85  1  0  0  0
 80157  1  0  0  0
 80158  1  0  0  0
 81 82  1  0  0  0
 81 83  1  0  0  0
 81159  1  0  0  0
 81160  1  0  0  0
 82161  1  0  0  0
 82162  1  0  0  0
 83 85  1  0  0  0
 83163  1  0  0  0
 85164  1  0  0  0
 85165  1  0  0  0
M  CHG  1  85   1
M  ISO  4   1 100  68 101  82 101  84 100
M  END
> <chiral flag>
0

> <version>
0

> <s_m_source_file>
/data/baiqing/PycharmProjects/Reinvent-master-3.2/result/LINK_invent/BTK/process_docking_weight1_custom_sum_contain_oxygen_bond_distance_aromatic_linkinvent_7_9_3/rearranged_h_0020.sdf

> <i_m_source_file_index>
60

> <r_mmod_Potential_Energy-OPLS-2005>
-31.0650596618652

> <r_mmod_Stretch_Energy-OPLS-2005>
53.1978302001953

> <r_mmod_Bend_Energy-OPLS-2005>
112.482872009277

> <r_mmod_Torsional_Energy-OPLS-2005>
312.396118164062

> <r_mmod_Improper_Torsional_Energy-OPLS-2005>
3.43283796310425

> <r_mmod_Van_der_Waal_Energy-OPLS-2005>
171.092071533203

> <r_mmod_Electrostatic_Energy-OPLS-2005>
-241.511505126953

> <r_mmod_Solvation_Energy-OPLS-2005>
-453.433471679688

> <b_mmod_Minimization_Converged-OPLS-2005>
0

> <r_mmod_RMS_Derivative-OPLS-2005>
2.31327056884766

$$$$
60
                    3D
 Structure written by MMmdl.
165173  0  0  1  0            999 V2000
  -30.7397  -14.4319   20.6481 C   0  0  0  0  0  0
  -30.4230  -12.3092   19.4209 C   0  0  0  0  0  0
  -29.4924  -12.5242   18.2104 C   0  0  0  0  0  0
  -28.0147  -12.3826   18.6180 C   0  0  0  0  0  0
  -27.6687  -13.2067   19.8856 C   0  0  2  0  0  0
  -28.7086  -12.9588   21.0041 C   0  0  0  0  0  0
  -25.2529  -13.8133   20.5527 C   0  0  0  0  0  0
  -24.1826  -13.0412   20.9146 C   0  0  0  0  0  0
  -24.6396  -11.6892   20.8735 C   0  0  0  0  0  0
  -23.9053  -10.4286   21.0409 C   0  0  0  0  0  0
  -24.3618   -9.4209   21.9180 C   0  0  0  0  0  0
  -23.6288   -8.2253   22.0749 C   0  0  0  0  0  0
  -22.4267   -8.0294   21.3545 C   0  0  0  0  0  0
  -21.9896   -9.0265   20.4645 C   0  0  0  0  0  0
  -22.7232  -10.2138   20.3049 C   0  0  0  0  0  0
  -21.6854   -6.0736   22.5279 C   0  0  0  0  0  0
  -21.4017   -6.5629   23.8220 C   0  0  0  0  0  0
  -21.3667   -5.6784   24.9179 C   0  0  0  0  0  0
  -21.6052   -4.3052   24.7221 C   0  0  0  0  0  0
  -21.8818   -3.8141   23.4339 C   0  0  0  0  0  0
  -21.9204   -4.6963   22.3395 C   0  0  0  0  0  0
  -22.7857  -13.5221   21.1824 C   0  0  0  0  0  0
  -22.1656   -4.2152   21.0967 F   0  0  0  0  0  0
  -21.5637   -3.4528   25.7726 F   0  0  0  0  0  0
  -30.0527  -13.2664   20.4780 N   0  0  0  0  0  0
  -26.3037  -12.9340   20.3371 N   0  0  0  0  0  0
  -25.9337  -11.6499   20.5796 N   0  0  0  0  0  0
  -22.0517  -12.8230   22.0406 N   0  0  0  0  0  0
  -25.4043  -15.1817   20.3655 N   0  0  0  0  0  0
  -31.7409  -14.6881   19.9797 O   0  0  0  0  0  0
  -21.6646   -6.8880   21.4237 O   0  0  0  0  0  0
  -22.3550  -14.5546   20.6710 O   0  0  0  0  0  0
  -24.6123  -31.8690   23.2108 C   0  0  0  0  0  0
  -25.9040  -32.4819   23.8383 C   0  0  1  0  0  0
  -27.2301  -27.4478   20.1081 C   0  0  0  0  0  0
  -25.5925  -33.8621   24.2334 N   0  0  0  0  0  0
  -23.3984  -30.4915   21.5513 C   0  0  2  0  0  0
  -24.8451  -28.9539   20.1176 C   0  0  0  0  0  0
  -22.7400  -29.4664   22.5018 C   0  0  0  0  0  0
  -18.0277  -28.1347   22.8463 C   0  0  0  0  0  0
  -24.1486  -36.7312   23.2638 C   0  0  0  0  0  0
  -25.9228  -30.8398   21.3594 C   0  0  0  0  0  0
  -26.0027  -29.4713   20.7167 C   0  0  0  0  0  0
  -27.1990  -28.7227   20.7141 C   0  0  0  0  0  0
  -26.0647  -26.9398   19.5023 C   0  0  0  0  0  0
  -24.8705  -27.6857   19.5081 C   0  0  0  0  0  0
  -23.6063  -29.8200   20.1658 C   0  0  0  0  0  0
  -25.4109  -36.3114   24.0343 C   0  0  1  0  0  0
  -20.5868  -28.3647   23.1323 C   0  0  2  0  0  0
  -20.6776  -26.9388   22.5441 C   0  0  0  0  0  0
  -19.5764  -26.6303   21.5260 C   0  0  0  0  0  0
  -18.1933  -26.7875   22.1646 C   0  0  0  0  0  0
  -19.1524  -28.8809   23.2878 C   0  0  0  0  0  0
  -18.9446  -30.1412   23.8881 C   0  0  0  0  0  0
  -17.6458  -30.6563   24.0526 C   0  0  0  0  0  0
  -25.9035  -34.9476   23.5136 C   0  0  0  0  0  0
  -16.5343  -29.9067   23.6279 C   0  0  0  0  0  0
  -16.7274  -28.6485   23.0309 C   0  0  0  0  0  0
  -26.4467  -31.6585   25.0690 C   0  0  0  0  0  0
  -25.3726  -31.3714   26.1436 C   0  0  0  0  0  0
  -27.0302  -30.3035   24.6041 C   0  0  0  0  0  0
  -27.6048  -32.4297   25.7446 C   0  0  0  0  0  0
  -27.5578  -37.1817   24.8463 C   0  0  0  0  0  0
  -21.4128  -29.3031   22.3757 N   0  0  0  0  0  0
  -26.4293  -37.3789   23.9402 N   0  0  0  0  0  0
  -24.6631  -31.0805   22.0993 N   0  0  0  0  0  0
  -23.4184  -28.8231   23.3082 O   0  0  0  0  0  0
  -28.3809  -26.7022   20.0868 O   0  0  0  0  0  0
  -26.5586  -34.8927   22.4685 O   0  0  0  0  0  0
  -23.5329  -32.1453   23.7521 O   0  0  0  0  0  0
  -28.7180  -18.5827   22.2747 C   0  0  0  0  0  0
  -29.7559  -19.4978   21.9458 C   0  0  0  0  0  0
  -28.9410  -17.1792   22.1747 C   0  0  0  0  0  0
  -30.9811  -18.9871   21.4343 C   0  0  0  0  0  0
  -30.1763  -16.6622   21.6943 C   0  0  0  0  0  0
  -31.2164  -17.5856   21.3797 C   0  0  0  0  0  0
  -27.3688  -19.0989   22.7780 C   0  0  0  0  0  0
  -27.8766  -16.1859   22.6442 C   0  0  0  0  0  0
  -32.0916  -19.9341   20.9801 C   0  0  0  0  0  0
  -29.6290  -20.9955   22.3130 C   0  0  0  0  0  0
  -28.4633  -24.2980   20.6578 C   0  0  0  0  0  0
  -28.8828  -23.2866   21.7534 C   0  0  0  0  0  0
  -28.4990  -25.7624   21.1595 C   0  0  0  0  0  0
  -30.2953  -15.2241   21.6442 N   0  0  0  0  0  0
  -29.0085  -21.8763   21.2895 N   0  3  0  0  0  0
  -32.8443  -17.0626   21.0857 Cl  0  0  0  0  0  0
  -31.4692  -12.3994   19.1213 H   0  0  0  0  0  0
  -30.3208  -11.2928   19.8038 H   0  0  0  0  0  0
  -29.7331  -11.8086   17.4236 H   0  0  0  0  0  0
  -29.6638  -13.5145   17.7862 H   0  0  0  0  0  0
  -27.8199  -11.3254   18.7981 H   0  0  0  0  0  0
  -27.3636  -12.6761   17.7936 H   0  0  0  0  0  0
  -27.7237  -14.2597   19.6106 H   0  0  0  0  0  0
  -28.6766  -11.9136   21.3132 H   0  0  0  0  0  0
  -28.4560  -13.5172   21.9031 H   0  0  0  0  0  0
  -25.2771   -9.5684   22.4752 H   0  0  0  0  0  0
  -24.0014   -7.4631   22.7450 H   0  0  0  0  0  0
  -21.0836   -8.8792   19.8929 H   0  0  0  0  0  0
  -22.3705  -10.9693   19.6170 H   0  0  0  0  0  0
  -21.1989   -7.6133   23.9727 H   0  0  0  0  0  0
  -21.1488   -6.0494   25.9093 H   0  0  0  0  0  0
  -22.0582   -2.7603   23.2830 H   0  0  0  0  0  0
  -22.4150  -11.9909   22.4819 H   0  0  0  0  0  0
  -21.1156  -13.1300   22.2643 H   0  0  0  0  0  0
  -24.6165  -15.8163   20.4310 H   0  0  0  0  0  0
  -26.2372  -15.6193   19.9930 H   0  0  0  0  0  0
  -26.7120  -32.5527   23.1164 H   0  0  0  0  0  0
  -25.0097  -33.9764   25.0500 H   0  0  0  0  0  0
  -22.6839  -31.3060   21.4131 H   0  0  0  0  0  0
  -23.3720  -35.9663   23.3312 H   0  0  0  0  0  0
  -24.3571  -36.8896   22.2041 H   0  0  0  0  0  0
  -23.7244  -37.6536   23.6623 H   0  0  0  0  0  0
  -26.0247  -31.6002   20.5837 H   0  0  0  0  0  0
  -26.8142  -30.9005   21.9708 H   0  0  0  0  0  0
  -28.0937  -29.1144   21.1772 H   0  0  0  0  0  0
  -26.0864  -25.9683   19.0284 H   0  0  0  0  0  0
  -23.9828  -27.2819   19.0404 H   0  0  0  0  0  0
  -23.7152  -30.5927   19.4039 H   0  0  0  0  0  0
  -22.7297  -29.2399   19.8712 H   0  0  0  0  0  0
  -25.1279  -36.2001   25.0832 H   0  0  0  0  0  0
  -20.9933  -28.3208   24.1450 H   0  0  0  0  0  0
  -20.5724  -26.2278   23.3657 H   0  0  0  0  0  0
  -21.6638  -26.7446   22.1217 H   0  0  0  0  0  0
  -19.6949  -25.6183   21.1365 H   0  0  0  0  0  0
  -19.6735  -27.3058   20.6759 H   0  0  0  0  0  0
  -17.4218  -26.6621   21.4021 H   0  0  0  0  0  0
  -18.0331  -26.0013   22.9052 H   0  0  0  0  0  0
  -19.7926  -30.7206   24.2259 H   0  0  0  0  0  0
  -17.5004  -31.6233   24.5120 H   0  0  0  0  0  0
  -15.5336  -30.2944   23.7587 H   0  0  0  0  0  0
  -15.8690  -28.0806   22.6996 H   0  0  0  0  0  0
  -24.5893  -30.7069   25.7775 H   0  0  0  0  0  0
  -24.8923  -32.2882   26.4870 H   0  0  0  0  0  0
  -25.8079  -30.8896   27.0200 H   0  0  0  0  0  0
  -26.2861  -29.6793   24.1081 H   0  0  0  0  0  0
  -27.4076  -29.7271   25.4493 H   0  0  0  0  0  0
  -27.8676  -30.4352   23.9181 H   0  0  0  0  0  0
  -27.2678  -33.3580   26.2080 H   0  0  0  0  0  0
  -28.3836  -32.6892   25.0259 H   0  0  0  0  0  0
  -28.0735  -31.8377   26.5323 H   0  0  0  0  0  0
  -28.2626  -38.0089   24.7495 H   0  0  0  0  0  0
  -28.1051  -36.2623   24.6321 H   0  0  0  0  0  0
  -27.2288  -37.1514   25.8865 H   0  0  0  0  0  0
  -20.9255  -29.8755   21.7005 H   0  0  0  0  0  0
  -26.0191  -38.2867   24.1400 H   0  0  0  0  0  0
  -27.1811  -20.1407   22.5320 H   0  0  0  0  0  0
  -27.3009  -18.9912   23.8616 H   0  0  0  0  0  0
  -26.5393  -18.5557   22.3228 H   0  0  0  0  0  0
  -27.5141  -15.6189   21.7924 H   0  0  0  0  0  0
  -27.0133  -16.6215   23.1423 H   0  0  0  0  0  0
  -28.2992  -15.4826   23.3633 H   0  0  0  0  0  0
  -31.7189  -20.9036   20.6528 H   0  0  0  0  0  0
  -32.6137  -19.5263   20.1144 H   0  0  0  0  0  0
  -32.8187  -20.0846   21.7774 H   0  0  0  0  0  0
  -30.6132  -21.3876   22.5687 H   0  0  0  0  0  0
  -29.0757  -21.0876   23.2477 H   0  0  0  0  0  0
  -27.4623  -24.0654   20.2953 H   0  0  0  0  0  0
  -29.1337  -24.2060   19.8042 H   0  0  0  0  0  0
  -28.1718  -23.3250   22.5795 H   0  0  0  0  0  0
  -29.8426  -23.6050   22.1664 H   0  0  0  0  0  0
  -29.4545  -25.9579   21.6462 H   0  0  0  0  0  0
  -27.7386  -25.9187   21.9289 H   0  0  0  0  0  0
  -29.5922  -14.7500   22.1876 H   0  0  0  0  0  0
  -28.0986  -21.5161   21.0507 H   0  0  0  0  0  0
  -29.5702  -21.8444   20.4557 H   0  0  0  0  0  0
  1 25  1  0  0  0
  1 30  2  0  0  0
  1 84  1  0  0  0
  2  3  1  0  0  0
  2 25  1  0  0  0
  2 87  1  0  0  0
  2 88  1  0  0  0
  3  4  1  0  0  0
  3 89  1  0  0  0
  3 90  1  0  0  0
  4  5  1  0  0  0
  4 91  1  0  0  0
  4 92  1  0  0  0
  5  6  1  0  0  0
  5 26  1  0  0  0
  5 93  1  0  0  0
  6 25  1  0  0  0
  6 94  1  0  0  0
  6 95  1  0  0  0
  7  8  2  0  0  0
  7 26  1  0  0  0
  7 29  1  0  0  0
  8  9  1  0  0  0
  8 22  1  0  0  0
  9 10  1  0  0  0
  9 27  2  0  0  0
 10 11  2  0  0  0
 10 15  1  0  0  0
 11 12  1  0  0  0
 11 96  1  0  0  0
 12 13  2  0  0  0
 12 97  1  0  0  0
 13 14  1  0  0  0
 13 31  1  0  0  0
 14 15  2  0  0  0
 14 98  1  0  0  0
 15 99  1  0  0  0
 16 17  2  0  0  0
 16 21  1  0  0  0
 16 31  1  0  0  0
 17 18  1  0  0  0
 17100  1  0  0  0
 18 19  2  0  0  0
 18101  1  0  0  0
 19 20  1  0  0  0
 19 24  1  0  0  0
 20 21  2  0  0  0
 20102  1  0  0  0
 21 23  1  0  0  0
 22 28  1  0  0  0
 22 32  2  0  0  0
 26 27  1  0  0  0
 28103  1  0  0  0
 28104  1  0  0  0
 29105  1  0  0  0
 29106  1  0  0  0
 33 34  1  0  0  0
 33 66  1  0  0  0
 33 70  2  0  0  0
 34 36  1  0  0  0
 34 59  1  0  0  0
 34107  1  0  0  0
 35 44  2  0  0  0
 35 45  1  0  0  0
 35 68  1  0  0  0
 36 56  1  0  0  0
 36108  1  0  0  0
 37 39  1  0  0  0
 37 47  1  0  0  0
 37 66  1  0  0  0
 37109  1  0  0  0
 38 43  2  0  0  0
 38 46  1  0  0  0
 38 47  1  0  0  0
 39 64  1  0  0  0
 39 67  2  0  0  0
 40 52  1  0  0  0
 40 53  2  0  0  0
 40 58  1  0  0  0
 41110  1  0  0  0
 41111  1  0  0  0
 41112  1  0  0  0
 41 48  1  0  0  0
 42 43  1  0  0  0
 42 66  1  0  0  0
 42113  1  0  0  0
 42114  1  0  0  0
 43 44  1  0  0  0
 44115  1  0  0  0
 45 46  2  0  0  0
 45116  1  0  0  0
 46117  1  0  0  0
 47118  1  0  0  0
 47119  1  0  0  0
 48 56  1  0  0  0
 48 65  1  0  0  0
 48120  1  0  0  0
 49 50  1  0  0  0
 49 53  1  0  0  0
 49 64  1  0  0  0
 49121  1  0  0  0
 50 51  1  0  0  0
 50122  1  0  0  0
 50123  1  0  0  0
 51 52  1  0  0  0
 51124  1  0  0  0
 51125  1  0  0  0
 52126  1  0  0  0
 52127  1  0  0  0
 53 54  1  0  0  0
 54 55  2  0  0  0
 54128  1  0  0  0
 55 57  1  0  0  0
 55129  1  0  0  0
 56 69  2  0  0  0
 57 58  2  0  0  0
 57130  1  0  0  0
 58131  1  0  0  0
 59 60  1  0  0  0
 59 61  1  0  0  0
 59 62  1  0  0  0
 60132  1  0  0  0
 60133  1  0  0  0
 60134  1  0  0  0
 61135  1  0  0  0
 61136  1  0  0  0
 61137  1  0  0  0
 62138  1  0  0  0
 62139  1  0  0  0
 62140  1  0  0  0
 63 65  1  0  0  0
 63141  1  0  0  0
 63142  1  0  0  0
 63143  1  0  0  0
 64144  1  0  0  0
 65145  1  0  0  0
 68 83  1  0  0  0
 71 72  2  0  0  0
 71 73  1  0  0  0
 71 77  1  0  0  0
 72 74  1  0  0  0
 72 80  1  0  0  0
 73 75  2  0  0  0
 73 78  1  0  0  0
 74 76  2  0  0  0
 74 79  1  0  0  0
 75 76  1  0  0  0
 75 84  1  0  0  0
 76 86  1  0  0  0
 77146  1  0  0  0
 77147  1  0  0  0
 77148  1  0  0  0
 78149  1  0  0  0
 78150  1  0  0  0
 78151  1  0  0  0
 79152  1  0  0  0
 79153  1  0  0  0
 79154  1  0  0  0
 80 85  1  0  0  0
 80155  1  0  0  0
 80156  1  0  0  0
 81 82  1  0  0  0
 81 83  1  0  0  0
 81157  1  0  0  0
 81158  1  0  0  0
 82 85  1  0  0  0
 82159  1  0  0  0
 82160  1  0  0  0
 83161  1  0  0  0
 83162  1  0  0  0
 84163  1  0  0  0
 85164  1  0  0  0
 85165  1  0  0  0
M  CHG  1  85   1
M  ISO  4   1 100  68 101  83 101  84 100
M  END
> <chiral flag>
0

> <version>
0

> <s_m_source_file>
/data/baiqing/PycharmProjects/Reinvent-master-3.2/result/LINK_invent/BTK/process_docking_weight1_custom_sum_contain_oxygen_bond_distance_aromatic_linkinvent_7_9_3/rearranged_h_0020.sdf

> <i_m_source_file_index>
61

> <r_mmod_Potential_Energy-OPLS-2005>
-221.080093383789

> <r_mmod_Stretch_Energy-OPLS-2005>
44.2589683532715

> <r_mmod_Bend_Energy-OPLS-2005>
106.079971313477

> <r_mmod_Torsional_Energy-OPLS-2005>
247.762420654297

> <r_mmod_Improper_Torsional_Energy-OPLS-2005>
6.41850852966309

> <r_mmod_Van_der_Waal_Energy-OPLS-2005>
169.582702636719

> <r_mmod_Electrostatic_Energy-OPLS-2005>
-326.881744384766

> <r_mmod_Solvation_Energy-OPLS-2005>
-477.895843505859

> <b_mmod_Minimization_Converged-OPLS-2005>
0

> <r_mmod_RMS_Derivative-OPLS-2005>
3.19657278060913

$$$$
61
                    3D
 Structure written by MMmdl.
183191  0  0  1  0            999 V2000
  -30.8581  -14.4125   20.4404 C   0  0  0  0  0  0
  -30.3642  -12.2593   19.3940 C   0  0  0  0  0  0
  -29.4351  -12.3619   18.1789 C   0  0  0  0  0  0
  -27.9659  -12.2727   18.6261 C   0  0  0  0  0  0
  -27.6286  -13.1760   19.8447 C   0  0  2  0  0  0
  -28.7070  -13.1030   20.9476 C   0  0  0  0  0  0
  -25.2501  -13.8104   20.5712 C   0  0  0  0  0  0
  -24.1731  -13.0411   20.9120 C   0  0  0  0  0  0
  -24.6271  -11.6873   20.8750 C   0  0  0  0  0  0
  -23.8958  -10.4285   21.0413 C   0  0  0  0  0  0
  -24.3515   -9.4205   21.9186 C   0  0  0  0  0  0
  -23.6205   -8.2227   22.0744 C   0  0  0  0  0  0
  -22.4204   -8.0265   21.3518 C   0  0  0  0  0  0
  -21.9804   -9.0255   20.4630 C   0  0  0  0  0  0
  -22.7148  -10.2113   20.3052 C   0  0  0  0  0  0
  -21.6869   -6.0666   22.5250 C   0  0  0  0  0  0
  -21.4018   -6.5576   23.8158 C   0  0  0  0  0  0
  -21.3642   -5.6738   24.9135 C   0  0  0  0  0  0
  -21.6049   -4.3012   24.7198 C   0  0  0  0  0  0
  -21.8837   -3.8074   23.4333 C   0  0  0  0  0  0
  -21.9191   -4.6901   22.3380 C   0  0  0  0  0  0
  -22.7802  -13.5280   21.1766 C   0  0  0  0  0  0
  -22.1691   -4.2076   21.0964 F   0  0  0  0  0  0
  -21.5603   -3.4490   25.7705 F   0  0  0  0  0  0
  -29.9955  -13.3642   20.2948 N   0  0  0  0  0  0
  -26.2904  -12.9182   20.3483 N   0  0  0  0  0  0
  -25.9205  -11.6397   20.5967 N   0  0  0  0  0  0
  -22.0474  -12.8323   22.0360 N   0  0  0  0  0  0
  -25.4230  -15.1800   20.4136 N   0  0  0  0  0  0
  -32.0496  -14.1754   20.3450 O   0  0  0  0  0  0
  -21.6620   -6.8819   21.4191 O   0  0  0  0  0  0
  -22.3515  -14.5596   20.6580 O   0  0  0  0  0  0
  -24.6078  -31.8723   23.2101 C   0  0  0  0  0  0
  -25.9002  -32.4838   23.8371 C   0  0  1  0  0  0
  -27.2498  -27.4856   20.0914 C   0  0  0  0  0  0
  -25.5871  -33.8631   24.2321 N   0  0  0  0  0  0
  -23.3898  -30.4955   21.5498 C   0  0  2  0  0  0
  -24.8393  -28.9634   20.1165 C   0  0  0  0  0  0
  -22.7370  -29.4672   22.4998 C   0  0  0  0  0  0
  -18.0278  -28.1363   22.8516 C   0  0  0  0  0  0
  -24.1473  -36.7325   23.2639 C   0  0  0  0  0  0
  -25.9111  -30.8553   21.3502 C   0  0  0  0  0  0
  -25.9923  -29.4920   20.7058 C   0  0  0  0  0  0
  -27.1980  -28.7640   20.6942 C   0  0  0  0  0  0
  -26.0753  -26.9577   19.5143 C   0  0  0  0  0  0
  -24.8709  -27.6906   19.5174 C   0  0  0  0  0  0
  -23.5953  -29.8222   20.1650 C   0  0  0  0  0  0
  -25.4083  -36.3108   24.0352 C   0  0  1  0  0  0
  -20.5858  -28.3626   23.1349 C   0  0  2  0  0  0
  -20.6747  -26.9368   22.5425 C   0  0  0  0  0  0
  -19.5730  -26.6368   21.5217 C   0  0  0  0  0  0
  -18.1915  -26.7907   22.1627 C   0  0  0  0  0  0
  -19.1529  -28.8811   23.2926 C   0  0  0  0  0  0
  -18.9451  -30.1435   23.8916 C   0  0  0  0  0  0
  -17.6456  -30.6570   24.0570 C   0  0  0  0  0  0
  -25.9026  -34.9481   23.5129 C   0  0  0  0  0  0
  -16.5346  -29.9081   23.6334 C   0  0  0  0  0  0
  -16.7261  -28.6502   23.0337 C   0  0  0  0  0  0
  -26.4462  -31.6605   25.0679 C   0  0  0  0  0  0
  -25.3763  -31.3717   26.1444 C   0  0  0  0  0  0
  -27.0258  -30.3044   24.6015 C   0  0  0  0  0  0
  -27.6032  -32.4321   25.7483 C   0  0  0  0  0  0
  -27.5581  -37.1802   24.8465 C   0  0  0  0  0  0
  -21.4091  -29.3017   22.3750 N   0  0  0  0  0  0
  -26.4275  -37.3791   23.9435 N   0  0  0  0  0  0
  -24.6537  -31.0884   22.0963 N   0  0  0  0  0  0
  -23.4170  -28.8236   23.3025 O   0  0  0  0  0  0
  -28.3763  -26.6965   20.0307 O   0  0  0  0  0  0
  -26.5591  -34.8935   22.4695 O   0  0  0  0  0  0
  -23.5284  -32.1460   23.7555 O   0  0  0  0  0  0
  -34.3386  -19.8771   19.9947 C   0  0  0  0  0  0
  -29.2846  -16.1884   20.0314 C   0  0  0  0  0  0
  -31.1730  -18.1924   21.1419 C   0  0  0  0  0  0
  -32.7417  -16.8247   19.7484 C   0  0  0  0  0  0
  -32.3805  -19.1263   21.4563 C   0  0  0  0  0  0
  -33.9138  -17.5199   20.4343 C   0  0  0  0  0  0
  -31.5744  -16.7260   20.7831 C   0  0  0  0  0  0
  -29.8936  -17.3586   17.7865 C   0  0  0  0  0  0
  -27.5157  -16.5719   18.1639 C   0  0  0  0  0  0
  -33.8181  -21.3005   19.7296 C   0  0  0  0  0  0
  -34.1407  -21.7752   18.2887 C   0  0  0  0  0  0
  -34.0317  -23.2935   18.0541 C   0  0  0  0  0  0
  -32.5932  -23.8459   17.9993 C   0  0  0  0  0  0
  -32.0965  -24.3881   19.3490 C   0  0  0  0  0  0
  -30.8728  -25.3137   19.2265 C   0  0  0  0  0  0
  -30.6756  -26.1628   20.4936 C   0  0  0  0  0  0
  -29.6309  -27.2748   20.3568 C   0  0  0  0  0  0
  -29.0066  -16.3166   18.5026 C   0  0  0  0  0  0
  -33.5517  -18.9281   20.5689 N   0  0  0  0  0  0
  -30.4879  -15.7338   20.4433 N   0  0  0  0  0  0
  -35.4796  -19.6152   19.5984 O   0  0  0  0  0  0
  -28.4062  -16.4866   20.8481 O   0  0  0  0  0  0
  -31.3961  -12.2720   19.0455 H   0  0  0  0  0  0
  -30.2501  -11.2963   19.8944 H   0  0  0  0  0  0
  -29.6483  -11.5459   17.4869 H   0  0  0  0  0  0
  -29.6213  -13.2807   17.6230 H   0  0  0  0  0  0
  -27.7736  -11.2278   18.8761 H   0  0  0  0  0  0
  -27.3018  -12.5062   17.7911 H   0  0  0  0  0  0
  -27.6097  -14.1820   19.4583 H   0  0  0  0  0  0
  -28.7094  -12.1144   21.4088 H   0  0  0  0  0  0
  -28.5172  -13.8277   21.7384 H   0  0  0  0  0  0
  -25.2681   -9.5654   22.4727 H   0  0  0  0  0  0
  -23.9924   -7.4616   22.7485 H   0  0  0  0  0  0
  -21.0730   -8.8788   19.8950 H   0  0  0  0  0  0
  -22.3676  -10.9629   19.6108 H   0  0  0  0  0  0
  -21.2034   -7.6077   23.9665 H   0  0  0  0  0  0
  -21.1447   -6.0442   25.9032 H   0  0  0  0  0  0
  -22.0629   -2.7539   23.2855 H   0  0  0  0  0  0
  -22.4181  -12.0022   22.4709 H   0  0  0  0  0  0
  -21.1114  -13.1356   22.2632 H   0  0  0  0  0  0
  -24.6415  -15.8311   20.4033 H   0  0  0  0  0  0
  -26.3156  -15.6401   20.2779 H   0  0  0  0  0  0
  -26.7069  -32.5589   23.1138 H   0  0  0  0  0  0
  -24.9983  -33.9767   25.0431 H   0  0  0  0  0  0
  -22.6769  -31.3101   21.4105 H   0  0  0  0  0  0
  -23.3714  -35.9681   23.3292 H   0  0  0  0  0  0
  -24.3581  -36.8938   22.2058 H   0  0  0  0  0  0
  -23.7237  -37.6538   23.6647 H   0  0  0  0  0  0
  -26.0069  -31.6195   20.5774 H   0  0  0  0  0  0
  -26.8028  -30.9196   21.9612 H   0  0  0  0  0  0
  -28.0642  -29.2133   21.1520 H   0  0  0  0  0  0
  -26.0986  -25.9807   19.0544 H   0  0  0  0  0  0
  -23.9847  -27.2709   19.0608 H   0  0  0  0  0  0
  -23.6974  -30.5919   19.3999 H   0  0  0  0  0  0
  -22.7217  -29.2353   19.8740 H   0  0  0  0  0  0
  -25.1251  -36.1960   25.0847 H   0  0  0  0  0  0
  -20.9977  -28.3175   24.1451 H   0  0  0  0  0  0
  -20.5631  -26.2234   23.3597 H   0  0  0  0  0  0
  -21.6620  -26.7396   22.1228 H   0  0  0  0  0  0
  -19.6868  -25.6288   21.1229 H   0  0  0  0  0  0
  -19.6663  -27.3195   20.6764 H   0  0  0  0  0  0
  -17.4180  -26.6688   21.4023 H   0  0  0  0  0  0
  -18.0297  -26.0028   22.9006 H   0  0  0  0  0  0
  -19.7930  -30.7253   24.2251 H   0  0  0  0  0  0
  -17.5014  -31.6247   24.5161 H   0  0  0  0  0  0
  -15.5352  -30.2983   23.7623 H   0  0  0  0  0  0
  -15.8667  -28.0827   22.7015 H   0  0  0  0  0  0
  -24.5926  -30.7059   25.7796 H   0  0  0  0  0  0
  -24.8965  -32.2883   26.4903 H   0  0  0  0  0  0
  -25.8148  -30.8889   27.0186 H   0  0  0  0  0  0
  -26.2754  -29.6853   24.1073 H   0  0  0  0  0  0
  -27.4013  -29.7241   25.4452 H   0  0  0  0  0  0
  -27.8610  -30.4330   23.9126 H   0  0  0  0  0  0
  -27.2613  -33.3591   26.2110 H   0  0  0  0  0  0
  -28.3866  -32.6937   25.0355 H   0  0  0  0  0  0
  -28.0676  -31.8413   26.5393 H   0  0  0  0  0  0
  -28.2572  -38.0123   24.7529 H   0  0  0  0  0  0
  -28.1101  -36.2655   24.6239 H   0  0  0  0  0  0
  -27.2332  -37.1402   25.8877 H   0  0  0  0  0  0
  -20.9214  -29.8755   21.7019 H   0  0  0  0  0  0
  -26.0160  -38.2875   24.1422 H   0  0  0  0  0  0
  -30.6405  -18.6798   20.3344 H   0  0  0  0  0  0
  -30.4754  -18.1916   21.9793 H   0  0  0  0  0  0
  -33.1382  -15.8942   19.3453 H   0  0  0  0  0  0
  -32.4396  -17.3896   18.8673 H   0  0  0  0  0  0
  -32.7051  -18.9673   22.4865 H   0  0  0  0  0  0
  -32.0083  -20.1468   21.4143 H   0  0  0  0  0  0
  -34.8193  -17.3482   19.8507 H   0  0  0  0  0  0
  -34.1187  -17.1009   21.4220 H   0  0  0  0  0  0
  -31.9948  -16.3144   21.7043 H   0  0  0  0  0  0
  -30.8371  -16.9167   17.4679 H   0  0  0  0  0  0
  -30.1256  -18.2185   18.3997 H   0  0  0  0  0  0
  -29.4320  -17.7663   16.8884 H   0  0  0  0  0  0
  -26.9766  -17.1445   18.9186 H   0  0  0  0  0  0
  -26.9919  -15.6282   18.0385 H   0  0  0  0  0  0
  -27.3785  -17.0927   17.2185 H   0  0  0  0  0  0
  -34.3027  -21.9505   20.4585 H   0  0  0  0  0  0
  -32.7461  -21.3895   19.8832 H   0  0  0  0  0  0
  -33.4991  -21.2468   17.5815 H   0  0  0  0  0  0
  -35.1602  -21.4933   18.0183 H   0  0  0  0  0  0
  -34.5061  -23.5118   17.0942 H   0  0  0  0  0  0
  -34.6362  -23.8329   18.7893 H   0  0  0  0  0  0
  -31.9042  -23.0971   17.6021 H   0  0  0  0  0  0
  -32.5811  -24.6635   17.2739 H   0  0  0  0  0  0
  -32.9100  -24.9473   19.8164 H   0  0  0  0  0  0
  -31.8665  -23.5663   20.0295 H   0  0  0  0  0  0
  -29.9785  -24.7180   19.0284 H   0  0  0  0  0  0
  -30.9917  -25.9766   18.3669 H   0  0  0  0  0  0
  -31.6243  -26.6344   20.7658 H   0  0  0  0  0  0
  -30.4116  -25.5126   21.3315 H   0  0  0  0  0  0
  -29.9227  -27.9883   19.5854 H   0  0  0  0  0  0
  -29.6030  -27.7962   21.3111 H   0  0  0  0  0  0
  -29.2520  -15.3699   18.0401 H   0  0  0  0  0  0
  1 25  1  0  0  0
  1 30  2  0  0  0
  1 90  1  0  0  0
  2  3  1  0  0  0
  2 25  1  0  0  0
  2 93  1  0  0  0
  2 94  1  0  0  0
  3  4  1  0  0  0
  3 95  1  0  0  0
  3 96  1  0  0  0
  4  5  1  0  0  0
  4 97  1  0  0  0
  4 98  1  0  0  0
  5  6  1  0  0  0
  5 26  1  0  0  0
  5 99  1  0  0  0
  6 25  1  0  0  0
  6100  1  0  0  0
  6101  1  0  0  0
  7  8  2  0  0  0
  7 26  1  0  0  0
  7 29  1  0  0  0
  8  9  1  0  0  0
  8 22  1  0  0  0
  9 10  1  0  0  0
  9 27  2  0  0  0
 10 11  2  0  0  0
 10 15  1  0  0  0
 11 12  1  0  0  0
 11102  1  0  0  0
 12 13  2  0  0  0
 12103  1  0  0  0
 13 14  1  0  0  0
 13 31  1  0  0  0
 14 15  2  0  0  0
 14104  1  0  0  0
 15105  1  0  0  0
 16 17  2  0  0  0
 16 21  1  0  0  0
 16 31  1  0  0  0
 17 18  1  0  0  0
 17106  1  0  0  0
 18 19  2  0  0  0
 18107  1  0  0  0
 19 20  1  0  0  0
 19 24  1  0  0  0
 20 21  2  0  0  0
 20108  1  0  0  0
 21 23  1  0  0  0
 22 28  1  0  0  0
 22 32  2  0  0  0
 26 27  1  0  0  0
 28109  1  0  0  0
 28110  1  0  0  0
 29111  1  0  0  0
 29112  1  0  0  0
 33 34  1  0  0  0
 33 66  1  0  0  0
 33 70  2  0  0  0
 34 36  1  0  0  0
 34 59  1  0  0  0
 34113  1  0  0  0
 35 44  2  0  0  0
 35 45  1  0  0  0
 35 68  1  0  0  0
 36 56  1  0  0  0
 36114  1  0  0  0
 37 39  1  0  0  0
 37 47  1  0  0  0
 37 66  1  0  0  0
 37115  1  0  0  0
 38 43  2  0  0  0
 38 46  1  0  0  0
 38 47  1  0  0  0
 39 64  1  0  0  0
 39 67  2  0  0  0
 40 52  1  0  0  0
 40 53  2  0  0  0
 40 58  1  0  0  0
 41116  1  0  0  0
 41117  1  0  0  0
 41118  1  0  0  0
 41 48  1  0  0  0
 42 43  1  0  0  0
 42 66  1  0  0  0
 42119  1  0  0  0
 42120  1  0  0  0
 43 44  1  0  0  0
 44121  1  0  0  0
 45 46  2  0  0  0
 45122  1  0  0  0
 46123  1  0  0  0
 47124  1  0  0  0
 47125  1  0  0  0
 48 56  1  0  0  0
 48 65  1  0  0  0
 48126  1  0  0  0
 49 50  1  0  0  0
 49 53  1  0  0  0
 49 64  1  0  0  0
 49127  1  0  0  0
 50 51  1  0  0  0
 50128  1  0  0  0
 50129  1  0  0  0
 51 52  1  0  0  0
 51130  1  0  0  0
 51131  1  0  0  0
 52132  1  0  0  0
 52133  1  0  0  0
 53 54  1  0  0  0
 54 55  2  0  0  0
 54134  1  0  0  0
 55 57  1  0  0  0
 55135  1  0  0  0
 56 69  2  0  0  0
 57 58  2  0  0  0
 57136  1  0  0  0
 58137  1  0  0  0
 59 60  1  0  0  0
 59 61  1  0  0  0
 59 62  1  0  0  0
 60138  1  0  0  0
 60139  1  0  0  0
 60140  1  0  0  0
 61141  1  0  0  0
 61142  1  0  0  0
 61143  1  0  0  0
 62144  1  0  0  0
 62145  1  0  0  0
 62146  1  0  0  0
 63 65  1  0  0  0
 63147  1  0  0  0
 63148  1  0  0  0
 63149  1  0  0  0
 64150  1  0  0  0
 65151  1  0  0  0
 68 87  1  0  0  0
 71 80  1  0  0  0
 71 89  1  0  0  0
 71 91  2  0  0  0
 72 88  1  0  0  0
 72 90  1  0  0  0
 72 92  2  0  0  0
 73 75  1  0  0  0
 73 77  1  0  0  0
 73152  1  0  0  0
 73153  1  0  0  0
 74 76  1  0  0  0
 74 77  1  0  0  0
 74154  1  0  0  0
 74155  1  0  0  0
 75 89  1  0  0  0
 75156  1  0  0  0
 75157  1  0  0  0
 76 89  1  0  0  0
 76158  1  0  0  0
 76159  1  0  0  0
 77 90  1  0  0  0
 77160  1  0  0  0
 78161  1  0  0  0
 78162  1  0  0  0
 78163  1  0  0  0
 78 88  1  0  0  0
 79 88  1  0  0  0
 79164  1  0  0  0
 79165  1  0  0  0
 79166  1  0  0  0
 80 81  1  0  0  0
 80167  1  0  0  0
 80168  1  0  0  0
 81 82  1  0  0  0
 81169  1  0  0  0
 81170  1  0  0  0
 82 83  1  0  0  0
 82171  1  0  0  0
 82172  1  0  0  0
 83 84  1  0  0  0
 83173  1  0  0  0
 83174  1  0  0  0
 84 85  1  0  0  0
 84175  1  0  0  0
 84176  1  0  0  0
 85 86  1  0  0  0
 85177  1  0  0  0
 85178  1  0  0  0
 86 87  1  0  0  0
 86179  1  0  0  0
 86180  1  0  0  0
 87181  1  0  0  0
 87182  1  0  0  0
 88183  1  0  0  0
M  ISO  4   1 100  68 101  87 101  90 100
M  END
> <chiral flag>
0

> <version>
0

> <s_m_source_file>
/data/baiqing/PycharmProjects/Reinvent-master-3.2/result/LINK_invent/BTK/process_docking_weight1_custom_sum_contain_oxygen_bond_distance_aromatic_linkinvent_7_9_3/rearranged_h_0020.sdf

> <i_m_source_file_index>
62

> <r_mmod_Potential_Energy-OPLS-2005>
371.999298095703

> <r_mmod_Stretch_Energy-OPLS-2005>
49.1809349060059

> <r_mmod_Bend_Energy-OPLS-2005>
173.468673706055

> <r_mmod_Torsional_Energy-OPLS-2005>
393.335266113281

> <r_mmod_Improper_Torsional_Energy-OPLS-2005>
5.78321981430054

> <r_mmod_Van_der_Waal_Energy-OPLS-2005>
186.247756958008

> <r_mmod_Electrostatic_Energy-OPLS-2005>
-307.497039794922

> <r_mmod_Solvation_Energy-OPLS-2005>
-194.500869750977

> <b_mmod_Minimization_Converged-OPLS-2005>
0

> <r_mmod_RMS_Derivative-OPLS-2005>
7.18526792526245

$$$$
62
                    3D
 Structure written by MMmdl.
191200  0  0  1  0            999 V2000
  -30.6523  -14.4750   20.5449 C   0  0  0  0  0  0
  -30.4188  -12.2996   19.4066 C   0  0  0  0  0  0
  -29.4797  -12.5047   18.1986 C   0  0  0  0  0  0
  -28.0036  -12.3526   18.6200 C   0  0  0  0  0  0
  -27.6568  -13.1935   19.8765 C   0  0  2  0  0  0
  -28.6987  -12.9545   20.9909 C   0  0  0  0  0  0
  -25.2598  -13.8113   20.5690 C   0  0  0  0  0  0
  -24.1791  -13.0414   20.9149 C   0  0  0  0  0  0
  -24.6331  -11.6894   20.8725 C   0  0  0  0  0  0
  -23.9004  -10.4277   21.0386 C   0  0  0  0  0  0
  -24.3564   -9.4202   21.9166 C   0  0  0  0  0  0
  -23.6264   -8.2234   22.0747 C   0  0  0  0  0  0
  -22.4264   -8.0249   21.3535 C   0  0  0  0  0  0
  -21.9862   -9.0206   20.4651 C   0  0  0  0  0  0
  -22.7164  -10.2102   20.3059 C   0  0  0  0  0  0
  -21.6843   -6.0693   22.5268 C   0  0  0  0  0  0
  -21.4017   -6.5616   23.8187 C   0  0  0  0  0  0
  -21.3678   -5.6789   24.9165 C   0  0  0  0  0  0
  -21.6046   -4.3044   24.7227 C   0  0  0  0  0  0
  -21.8825   -3.8124   23.4357 C   0  0  0  0  0  0
  -21.9199   -4.6929   22.3406 C   0  0  0  0  0  0
  -22.7847  -13.5248   21.1835 C   0  0  0  0  0  0
  -22.1661   -4.2106   21.0995 F   0  0  0  0  0  0
  -21.5636   -3.4550   25.7751 F   0  0  0  0  0  0
  -30.0271  -13.2721   20.4386 N   0  0  0  0  0  0
  -26.2996  -12.9247   20.3380 N   0  0  0  0  0  0
  -25.9267  -11.6430   20.5785 N   0  0  0  0  0  0
  -22.0519  -12.8222   22.0423 N   0  0  0  0  0  0
  -25.4399  -15.1790   20.4124 N   0  0  0  0  0  0
  -31.7941  -14.6778   20.1181 O   0  0  0  0  0  0
  -21.6654   -6.8829   21.4224 O   0  0  0  0  0  0
  -22.3541  -14.5559   20.6725 O   0  0  0  0  0  0
  -24.6137  -31.8732   23.2154 C   0  0  0  0  0  0
  -25.9023  -32.4867   23.8483 C   0  0  1  0  0  0
  -27.1997  -27.4346   20.0725 C   0  0  0  0  0  0
  -25.5823  -33.8686   24.2394 N   0  0  0  0  0  0
  -23.4027  -30.4994   21.5628 C   0  0  2  0  0  0
  -24.8403  -28.9876   20.1126 C   0  0  0  0  0  0
  -22.7416  -29.4645   22.5049 C   0  0  0  0  0  0
  -18.0249  -28.1389   22.8477 C   0  0  0  0  0  0
  -24.1473  -36.7335   23.2631 C   0  0  0  0  0  0
  -25.9399  -30.8384   21.3696 C   0  0  0  0  0  0
  -26.0104  -29.4831   20.6975 C   0  0  0  0  0  0
  -27.2031  -28.7215   20.6573 C   0  0  0  0  0  0
  -25.9979  -26.9481   19.5134 C   0  0  0  0  0  0
  -24.8270  -27.7189   19.5191 C   0  0  0  0  0  0
  -23.6096  -29.8587   20.1717 C   0  0  0  0  0  0
  -25.4066  -36.3160   24.0397 C   0  0  1  0  0  0
  -20.5822  -28.3660   23.1300 C   0  0  2  0  0  0
  -20.6757  -26.9387   22.5420 C   0  0  0  0  0  0
  -19.5755  -26.6374   21.5208 C   0  0  0  0  0  0
  -18.1911  -26.7919   22.1613 C   0  0  0  0  0  0
  -19.1496  -28.8835   23.2859 C   0  0  0  0  0  0
  -18.9434  -30.1423   23.8911 C   0  0  0  0  0  0
  -17.6439  -30.6594   24.0544 C   0  0  0  0  0  0
  -25.9025  -34.9524   23.5189 C   0  0  0  0  0  0
  -16.5326  -29.9119   23.6297 C   0  0  0  0  0  0
  -16.7228  -28.6514   23.0341 C   0  0  0  0  0  0
  -26.4455  -31.6649   25.0810 C   0  0  0  0  0  0
  -25.3732  -31.3726   26.1577 C   0  0  0  0  0  0
  -27.0284  -30.3092   24.6130 C   0  0  0  0  0  0
  -27.6064  -32.4383   25.7493 C   0  0  0  0  0  0
  -27.5584  -37.1803   24.8460 C   0  0  0  0  0  0
  -21.4144  -29.3025   22.3750 N   0  0  0  0  0  0
  -26.4269  -37.3830   23.9458 N   0  0  0  0  0  0
  -24.6711  -31.0845   22.1043 N   0  0  0  0  0  0
  -23.4171  -28.8150   23.3070 O   0  0  0  0  0  0
  -28.3459  -26.6630   20.0583 O   0  0  0  0  0  0
  -26.5617  -34.8956   22.4784 O   0  0  0  0  0  0
  -23.5331  -32.1475   23.7536 O   0  0  0  0  0  0
  -30.3767  -19.6738   20.7168 C   0  0  0  0  0  0
  -30.9344  -18.9703   21.8033 C   0  0  0  0  0  0
  -29.6744  -19.0231   19.6878 C   0  0  0  0  0  0
  -30.7599  -17.5622   21.8818 C   0  0  0  0  0  0
  -29.5445  -17.6041   19.7340 C   0  0  0  0  0  0
  -30.0781  -16.8781   20.8437 C   0  0  0  0  0  0
  -33.2148  -23.2060   22.2184 C   0  0  0  0  0  0
  -30.9823  -23.4716   23.2899 C   0  0  0  0  0  0
  -33.2021  -21.7068   22.5476 C   0  0  0  0  0  0
  -30.9356  -21.9535   23.5627 C   0  0  0  0  0  0
  -32.4320  -23.9915   23.2811 C   0  0  2  0  0  0
  -31.2933  -16.7748   23.0796 C   0  0  0  0  0  0
  -28.8308  -16.8789   18.5960 C   0  0  0  0  0  0
  -31.7388  -26.1215   21.9553 C   0  0  0  0  0  0
  -28.2716  -22.2901   16.8275 C   0  0  0  0  0  0
  -31.7571  -19.7194   22.8562 C   0  0  0  0  0  0
  -29.1541  -19.9096   18.5417 C   0  0  0  0  0  0
  -32.5617  -25.5170   23.1044 C   0  0  0  0  0  0
  -28.0028  -24.2385   19.3078 C   0  0  0  0  0  0
  -29.3283  -23.7000   18.7238 C   0  0  0  0  0  0
  -28.1553  -25.2907   20.4515 C   0  0  0  0  0  0
  -29.2440  -22.3075   18.0192 C   0  0  1  0  0  0
  -29.8598  -15.4739   20.9866 N   0  0  0  0  0  0
  -31.8126  -21.1857   22.6332 N   0  3  2  0  0  0
  -28.9319  -21.2738   18.9619 O   0  0  0  0  0  0
  -31.4613  -12.4072   19.1034 H   0  0  0  0  0  0
  -30.3244  -11.2827   19.7917 H   0  0  0  0  0  0
  -29.7091  -11.7857   17.4117 H   0  0  0  0  0  0
  -29.6325  -13.4945   17.7670 H   0  0  0  0  0  0
  -27.8314  -11.2932   18.8252 H   0  0  0  0  0  0
  -27.3336  -12.6111   17.7991 H   0  0  0  0  0  0
  -27.6988  -14.2403   19.5814 H   0  0  0  0  0  0
  -28.6722  -11.9131   21.3123 H   0  0  0  0  0  0
  -28.4670  -13.5362   21.8833 H   0  0  0  0  0  0
  -25.2694   -9.5700   22.4736 H   0  0  0  0  0  0
  -23.9970   -7.4641   22.7485 H   0  0  0  0  0  0
  -21.0772   -8.8710   19.8966 H   0  0  0  0  0  0
  -22.3575  -10.9633   19.6179 H   0  0  0  0  0  0
  -21.2012   -7.6137   23.9666 H   0  0  0  0  0  0
  -21.1491   -6.0541   25.9055 H   0  0  0  0  0  0
  -22.0591   -2.7594   23.2888 H   0  0  0  0  0  0
  -22.4154  -11.9863   22.4753 H   0  0  0  0  0  0
  -21.1156  -13.1234   22.2725 H   0  0  0  0  0  0
  -24.6879  -15.8458   20.5474 H   0  0  0  0  0  0
  -26.3135  -15.6132   20.1412 H   0  0  0  0  0  0
  -26.7086  -32.5495   23.1225 H   0  0  0  0  0  0
  -24.9895  -33.9924   25.0485 H   0  0  0  0  0  0
  -22.6861  -31.3094   21.4310 H   0  0  0  0  0  0
  -23.3783  -35.9624   23.3302 H   0  0  0  0  0  0
  -24.3550  -36.8945   22.2032 H   0  0  0  0  0  0
  -23.7209  -37.6530   23.6663 H   0  0  0  0  0  0
  -26.0520  -31.6097   20.6079 H   0  0  0  0  0  0
  -26.8335  -30.8742   21.9851 H   0  0  0  0  0  0
  -28.1189  -29.1063   21.0839 H   0  0  0  0  0  0
  -25.9238  -25.9706   19.0727 H   0  0  0  0  0  0
  -23.9208  -27.3229   19.0828 H   0  0  0  0  0  0
  -23.7247  -30.6542   19.4340 H   0  0  0  0  0  0
  -22.7312  -29.2889   19.8675 H   0  0  0  0  0  0
  -25.1232  -36.2007   25.0908 H   0  0  0  0  0  0
  -20.9828  -28.3209   24.1452 H   0  0  0  0  0  0
  -20.5622  -26.2248   23.3605 H   0  0  0  0  0  0
  -21.6627  -26.7446   22.1196 H   0  0  0  0  0  0
  -19.6917  -25.6272   21.1248 H   0  0  0  0  0  0
  -19.6723  -27.3188   20.6738 H   0  0  0  0  0  0
  -17.4145  -26.6596   21.4044 H   0  0  0  0  0  0
  -18.0336  -26.0109   22.9051 H   0  0  0  0  0  0
  -19.7890  -30.7182   24.2381 H   0  0  0  0  0  0
  -17.4999  -31.6293   24.5121 H   0  0  0  0  0  0
  -15.5313  -30.3043   23.7646 H   0  0  0  0  0  0
  -15.8596  -28.0841   22.7132 H   0  0  0  0  0  0
  -24.5884  -30.7097   25.7897 H   0  0  0  0  0  0
  -24.8972  -32.2886   26.5125 H   0  0  0  0  0  0
  -25.8099  -30.8789   27.0279 H   0  0  0  0  0  0
  -26.2870  -29.6867   24.1098 H   0  0  0  0  0  0
  -27.3993  -29.7232   25.4552 H   0  0  0  0  0  0
  -27.8728  -30.4436   23.9354 H   0  0  0  0  0  0
  -27.2715  -33.3650   26.2150 H   0  0  0  0  0  0
  -28.3761  -32.7026   25.0239 H   0  0  0  0  0  0
  -28.0903  -31.8513   26.5302 H   0  0  0  0  0  0
  -28.2572  -38.0112   24.7548 H   0  0  0  0  0  0
  -28.1102  -36.2657   24.6238 H   0  0  0  0  0  0
  -27.2333  -37.1421   25.8862 H   0  0  0  0  0  0
  -20.9292  -29.8761   21.6988 H   0  0  0  0  0  0
  -26.0164  -38.2921   24.1453 H   0  0  0  0  0  0
  -30.4727  -20.7464   20.6250 H   0  0  0  0  0  0
  -32.7871  -23.3708   21.2312 H   0  0  0  0  0  0
  -34.2457  -23.5511   22.1571 H   0  0  0  0  0  0
  -30.3959  -24.0074   24.0384 H   0  0  0  0  0  0
  -30.5071  -23.6661   22.3259 H   0  0  0  0  0  0
  -33.7267  -21.5417   23.4896 H   0  0  0  0  0  0
  -33.7625  -21.1650   21.7811 H   0  0  0  0  0  0
  -29.9096  -21.5965   23.4558 H   0  0  0  0  0  0
  -31.2359  -21.7644   24.5961 H   0  0  0  0  0  0
  -32.8720  -23.7543   24.2525 H   0  0  0  0  0  0
  -31.9373  -17.3568   23.7335 H   0  0  0  0  0  0
  -31.8956  -15.9245   22.7538 H   0  0  0  0  0  0
  -30.4686  -16.4091   23.6941 H   0  0  0  0  0  0
  -29.1122  -15.8312   18.5164 H   0  0  0  0  0  0
  -29.0894  -17.3234   17.6357 H   0  0  0  0  0  0
  -27.7473  -16.9215   18.7156 H   0  0  0  0  0  0
  -31.9804  -27.1790   21.8383 H   0  0  0  0  0  0
  -30.6719  -26.0538   22.1647 H   0  0  0  0  0  0
  -31.9314  -25.6214   21.0045 H   0  0  0  0  0  0
  -28.2220  -21.3083   16.3558 H   0  0  0  0  0  0
  -28.5809  -23.0046   16.0638 H   0  0  0  0  0  0
  -27.2612  -22.5501   17.1406 H   0  0  0  0  0  0
  -32.7626  -19.2982   22.8121 H   0  0  0  0  0  0
  -31.3759  -19.5108   23.8586 H   0  0  0  0  0  0
  -28.2203  -19.5178   18.1350 H   0  0  0  0  0  0
  -29.8947  -19.8505   17.7425 H   0  0  0  0  0  0
  -33.6119  -25.7613   22.9449 H   0  0  0  0  0  0
  -32.2898  -26.0195   24.0338 H   0  0  0  0  0  0
  -27.4429  -23.3924   19.7144 H   0  0  0  0  0  0
  -27.3798  -24.6026   18.4885 H   0  0  0  0  0  0
  -30.0776  -23.6635   19.5147 H   0  0  0  0  0  0
  -29.6975  -24.4321   18.0048 H   0  0  0  0  0  0
  -27.2938  -25.2231   21.1169 H   0  0  0  0  0  0
  -28.9905  -25.0075   21.0908 H   0  0  0  0  0  0
  -30.2411  -22.1011   17.6351 H   0  0  0  0  0  0
  -28.9557  -15.1897   21.3295 H   0  0  0  0  0  0
  -31.4259  -21.3034   21.7101 H   0  0  0  0  0  0
  1 25  1  0  0  0
  1 30  2  0  0  0
  1 93  1  0  0  0
  2  3  1  0  0  0
  2 25  1  0  0  0
  2 96  1  0  0  0
  2 97  1  0  0  0
  3  4  1  0  0  0
  3 98  1  0  0  0
  3 99  1  0  0  0
  4  5  1  0  0  0
  4100  1  0  0  0
  4101  1  0  0  0
  5  6  1  0  0  0
  5 26  1  0  0  0
  5102  1  0  0  0
  6 25  1  0  0  0
  6103  1  0  0  0
  6104  1  0  0  0
  7  8  2  0  0  0
  7 26  1  0  0  0
  7 29  1  0  0  0
  8  9  1  0  0  0
  8 22  1  0  0  0
  9 10  1  0  0  0
  9 27  2  0  0  0
 10 11  2  0  0  0
 10 15  1  0  0  0
 11 12  1  0  0  0
 11105  1  0  0  0
 12 13  2  0  0  0
 12106  1  0  0  0
 13 14  1  0  0  0
 13 31  1  0  0  0
 14 15  2  0  0  0
 14107  1  0  0  0
 15108  1  0  0  0
 16 17  2  0  0  0
 16 21  1  0  0  0
 16 31  1  0  0  0
 17 18  1  0  0  0
 17109  1  0  0  0
 18 19  2  0  0  0
 18110  1  0  0  0
 19 20  1  0  0  0
 19 24  1  0  0  0
 20 21  2  0  0  0
 20111  1  0  0  0
 21 23  1  0  0  0
 22 28  1  0  0  0
 22 32  2  0  0  0
 26 27  1  0  0  0
 28112  1  0  0  0
 28113  1  0  0  0
 29114  1  0  0  0
 29115  1  0  0  0
 33 34  1  0  0  0
 33 66  1  0  0  0
 33 70  2  0  0  0
 34 36  1  0  0  0
 34 59  1  0  0  0
 34116  1  0  0  0
 35 44  2  0  0  0
 35 45  1  0  0  0
 35 68  1  0  0  0
 36 56  1  0  0  0
 36117  1  0  0  0
 37 39  1  0  0  0
 37 47  1  0  0  0
 37 66  1  0  0  0
 37118  1  0  0  0
 38 43  2  0  0  0
 38 46  1  0  0  0
 38 47  1  0  0  0
 39 64  1  0  0  0
 39 67  2  0  0  0
 40 52  1  0  0  0
 40 53  2  0  0  0
 40 58  1  0  0  0
 41119  1  0  0  0
 41120  1  0  0  0
 41121  1  0  0  0
 41 48  1  0  0  0
 42 43  1  0  0  0
 42 66  1  0  0  0
 42122  1  0  0  0
 42123  1  0  0  0
 43 44  1  0  0  0
 44124  1  0  0  0
 45 46  2  0  0  0
 45125  1  0  0  0
 46126  1  0  0  0
 47127  1  0  0  0
 47128  1  0  0  0
 48 56  1  0  0  0
 48 65  1  0  0  0
 48129  1  0  0  0
 49 50  1  0  0  0
 49 53  1  0  0  0
 49 64  1  0  0  0
 49130  1  0  0  0
 50 51  1  0  0  0
 50131  1  0  0  0
 50132  1  0  0  0
 51 52  1  0  0  0
 51133  1  0  0  0
 51134  1  0  0  0
 52135  1  0  0  0
 52136  1  0  0  0
 53 54  1  0  0  0
 54 55  2  0  0  0
 54137  1  0  0  0
 55 57  1  0  0  0
 55138  1  0  0  0
 56 69  2  0  0  0
 57 58  2  0  0  0
 57139  1  0  0  0
 58140  1  0  0  0
 59 60  1  0  0  0
 59 61  1  0  0  0
 59 62  1  0  0  0
 60141  1  0  0  0
 60142  1  0  0  0
 60143  1  0  0  0
 61144  1  0  0  0
 61145  1  0  0  0
 61146  1  0  0  0
 62147  1  0  0  0
 62148  1  0  0  0
 62149  1  0  0  0
 63 65  1  0  0  0
 63150  1  0  0  0
 63151  1  0  0  0
 63152  1  0  0  0
 64153  1  0  0  0
 65154  1  0  0  0
 68 91  1  0  0  0
 71 72  2  0  0  0
 71 73  1  0  0  0
 71155  1  0  0  0
 72 74  1  0  0  0
 72 86  1  0  0  0
 73 75  2  0  0  0
 73 87  1  0  0  0
 74 76  2  0  0  0
 74 82  1  0  0  0
 75 76  1  0  0  0
 75 83  1  0  0  0
 76 93  1  0  0  0
 77 79  1  0  0  0
 77 81  1  0  0  0
 77156  1  0  0  0
 77157  1  0  0  0
 78 80  1  0  0  0
 78 81  1  0  0  0
 78158  1  0  0  0
 78159  1  0  0  0
 79 94  1  0  0  0
 79160  1  0  0  0
 79161  1  0  0  0
 80 94  1  0  0  0
 80162  1  0  0  0
 80163  1  0  0  0
 81 88  1  0  0  0
 81164  1  0  0  0
 82165  1  0  0  0
 82166  1  0  0  0
 82167  1  0  0  0
 83168  1  0  0  0
 83169  1  0  0  0
 83170  1  0  0  0
 84 88  1  0  0  0
 84171  1  0  0  0
 84172  1  0  0  0
 84173  1  0  0  0
 85174  1  0  0  0
 85175  1  0  0  0
 85176  1  0  0  0
 85 92  1  0  0  0
 86177  1  0  0  0
 86178  1  0  0  0
 86 94  1  0  0  0
 87 95  1  0  0  0
 87179  1  0  0  0
 87180  1  0  0  0
 88181  1  0  0  0
 88182  1  0  0  0
 89 90  1  0  0  0
 89 91  1  0  0  0
 89183  1  0  0  0
 89184  1  0  0  0
 90 92  1  0  0  0
 90185  1  0  0  0
 90186  1  0  0  0
 91187  1  0  0  0
 91188  1  0  0  0
 92 95  1  0  0  0
 92189  1  0  0  0
 93190  1  0  0  0
 94191  1  0  0  0
M  CHG  1  94   1
M  ISO  4   1 100  68 101  91 101  93 100
M  END
> <chiral flag>
0

> <version>
0

> <s_m_source_file>
/data/baiqing/PycharmProjects/Reinvent-master-3.2/result/LINK_invent/BTK/process_docking_weight1_custom_sum_contain_oxygen_bond_distance_aromatic_linkinvent_7_9_3/rearranged_h_0020.sdf

> <i_m_source_file_index>
63

> <r_mmod_Potential_Energy-OPLS-2005>
-96.7330551147461

> <r_mmod_Stretch_Energy-OPLS-2005>
46.6242942810059

> <r_mmod_Bend_Energy-OPLS-2005>
115.705101013184

> <r_mmod_Torsional_Energy-OPLS-2005>
319.579345703125

> <r_mmod_Improper_Torsional_Energy-OPLS-2005>
4.52233171463013

> <r_mmod_Van_der_Waal_Energy-OPLS-2005>
164.768310546875

> <r_mmod_Electrostatic_Energy-OPLS-2005>
-348.190246582031

> <r_mmod_Solvation_Energy-OPLS-2005>
-415.93408203125

> <b_mmod_Minimization_Converged-OPLS-2005>
0

> <r_mmod_RMS_Derivative-OPLS-2005>
7.16963768005371

$$$$
63
                    3D
 Structure written by MMmdl.
153161  0  0  1  0            999 V2000
  -30.6057  -14.8595   20.4406 C   0  0  0  0  0  0
  -30.4322  -12.5302   19.5060 C   0  0  0  0  0  0
  -29.5240  -12.5151   18.2578 C   0  0  0  0  0  0
  -28.0499  -12.3282   18.6657 C   0  0  0  0  0  0
  -27.6327  -13.2513   19.8417 C   0  0  2  0  0  0
  -28.6726  -13.2627   20.9832 C   0  0  0  0  0  0
  -25.2452  -13.8229   20.5692 C   0  0  0  0  0  0
  -24.1768  -13.0449   20.9225 C   0  0  0  0  0  0
  -24.6392  -11.6940   20.8757 C   0  0  0  0  0  0
  -23.9086  -10.4310   21.0416 C   0  0  0  0  0  0
  -24.3640   -9.4215   21.9192 C   0  0  0  0  0  0
  -23.6310   -8.2246   22.0751 C   0  0  0  0  0  0
  -22.4287   -8.0291   21.3543 C   0  0  0  0  0  0
  -21.9936   -9.0269   20.4649 C   0  0  0  0  0  0
  -22.7270  -10.2151   20.3063 C   0  0  0  0  0  0
  -21.6863   -6.0742   22.5279 C   0  0  0  0  0  0
  -21.4017   -6.5641   23.8215 C   0  0  0  0  0  0
  -21.3663   -5.6795   24.9176 C   0  0  0  0  0  0
  -21.6045   -4.3055   24.7225 C   0  0  0  0  0  0
  -21.8816   -3.8152   23.4347 C   0  0  0  0  0  0
  -21.9190   -4.6976   22.3398 C   0  0  0  0  0  0
  -22.7791  -13.5218   21.1895 C   0  0  0  0  0  0
  -22.1654   -4.2157   21.0984 F   0  0  0  0  0  0
  -21.5639   -3.4534   25.7739 F   0  0  0  0  0  0
  -29.9640  -13.6312   20.3905 N   0  0  0  0  0  0
  -26.2899  -12.9465   20.3260 N   0  0  0  0  0  0
  -25.9331  -11.6598   20.5736 N   0  0  0  0  0  0
  -22.0430  -12.8204   22.0456 N   0  0  0  0  0  0
  -25.4112  -15.1957   20.4094 N   0  0  0  0  0  0
  -31.8074  -14.8952   20.1587 O   0  0  0  0  0  0
  -21.6644   -6.8894   21.4243 O   0  0  0  0  0  0
  -22.3479  -14.5534   20.6766 O   0  0  0  0  0  0
  -24.6377  -31.8492   23.1916 C   0  0  0  0  0  0
  -25.9176  -32.4724   23.8296 C   0  0  1  0  0  0
  -27.2183  -27.1955   20.1349 C   0  0  0  0  0  0
  -25.5958  -33.8522   24.2210 N   0  0  0  0  0  0
  -23.4345  -30.4700   21.5366 C   0  0  2  0  0  0
  -24.8844  -28.9048   20.1105 C   0  0  0  0  0  0
  -22.7513  -29.4572   22.4883 C   0  0  0  0  0  0
  -18.0295  -28.1382   22.8483 C   0  0  0  0  0  0
  -24.1485  -36.7231   23.2639 C   0  0  0  0  0  0
  -25.9869  -30.7451   21.3753 C   0  0  0  0  0  0
  -26.0614  -29.3600   20.7171 C   0  0  0  0  0  0
  -27.2309  -28.5215   20.7109 C   0  0  0  0  0  0
  -26.0134  -26.8233   19.4992 C   0  0  0  0  0  0
  -24.8699  -27.6481   19.4872 C   0  0  0  0  0  0
  -23.6561  -29.7988   20.1552 C   0  0  0  0  0  0
  -25.4112  -36.3025   24.0315 C   0  0  1  0  0  0
  -20.5902  -28.3691   23.1250 C   0  0  2  0  0  0
  -20.6764  -26.9402   22.5390 C   0  0  0  0  0  0
  -19.5748  -26.6386   21.5189 C   0  0  0  0  0  0
  -18.1934  -26.7930   22.1614 C   0  0  0  0  0  0
  -19.1551  -28.8853   23.2871 C   0  0  0  0  0  0
  -18.9477  -30.1450   23.8893 C   0  0  0  0  0  0
  -17.6482  -30.6586   24.0554 C   0  0  0  0  0  0
  -25.9078  -34.9410   23.5068 C   0  0  0  0  0  0
  -16.5364  -29.9071   23.6344 C   0  0  0  0  0  0
  -16.7286  -28.6483   23.0379 C   0  0  0  0  0  0
  -26.4548  -31.6561   25.0691 C   0  0  0  0  0  0
  -25.3772  -31.3715   26.1411 C   0  0  0  0  0  0
  -27.0400  -30.2975   24.6194 C   0  0  0  0  0  0
  -27.6098  -32.4303   25.7467 C   0  0  0  0  0  0
  -27.5559  -37.1764   24.8476 C   0  0  0  0  0  0
  -21.4213  -29.3040   22.3629 N   0  0  0  0  0  0
  -26.4271  -37.3737   23.9413 N   0  0  0  0  0  0
  -24.7060  -31.0404   22.0910 N   0  0  0  0  0  0
  -23.4195  -28.8132   23.3015 O   0  0  0  0  0  0
  -28.2970  -26.2578   20.1915 O   0  0  0  0  0  0
  -26.5635  -34.8898   22.4632 O   0  0  0  0  0  0
  -23.5499  -32.1343   23.7161 O   0  0  0  0  0  0
  -29.3935  -21.2262   21.5847 C   0  0  0  0  0  0
  -29.1535  -21.1544   19.2360 C   0  0  0  0  0  0
  -29.1586  -21.9901   20.3967 C   0  0  0  0  0  0
  -29.6835  -19.8056   21.6197 C   0  0  0  0  0  0
  -29.7487  -18.9812   20.4413 C   0  0  0  0  0  0
  -29.4300  -19.7309   19.2512 C   0  0  0  0  0  0
  -30.0347  -19.2031   22.9717 C   0  0  0  0  0  0
  -29.2312  -23.6266   20.3810 C   0  0  0  0  0  0
  -30.4670  -17.5039   20.4070 C   0  0  0  0  0  0
  -28.0501  -24.7429   20.0850 C   0  0  0  0  0  0
  -29.8943  -16.0667   20.5890 N   0  0  0  0  0  0
  -29.4786  -18.9276   17.7212 Cl  0  0  0  0  0  0
  -31.4735  -12.6576   19.2053 H   0  0  0  0  0  0
  -30.3876  -11.5764   20.0338 H   0  0  0  0  0  0
  -29.8283  -11.7185   17.5806 H   0  0  0  0  0  0
  -29.6418  -13.4503   17.7093 H   0  0  0  0  0  0
  -27.9213  -11.2858   18.9567 H   0  0  0  0  0  0
  -27.3958  -12.4900   17.8083 H   0  0  0  0  0  0
  -27.6030  -14.2598   19.4267 H   0  0  0  0  0  0
  -28.7319  -12.2908   21.4735 H   0  0  0  0  0  0
  -28.3875  -13.9828   21.7521 H   0  0  0  0  0  0
  -25.2777   -9.5700   22.4767 H   0  0  0  0  0  0
  -24.0025   -7.4642   22.7464 H   0  0  0  0  0  0
  -21.0858   -8.8799   19.8950 H   0  0  0  0  0  0
  -22.3721  -10.9696   19.6177 H   0  0  0  0  0  0
  -21.1996   -7.6147   23.9725 H   0  0  0  0  0  0
  -21.1495   -6.0515   25.9080 H   0  0  0  0  0  0
  -22.0588   -2.7611   23.2840 H   0  0  0  0  0  0
  -22.4033  -11.9867   22.4858 H   0  0  0  0  0  0
  -21.1054  -13.1234   22.2638 H   0  0  0  0  0  0
  -24.6444  -15.8501   20.5209 H   0  0  0  0  0  0
  -26.2521  -15.6330   20.0553 H   0  0  0  0  0  0
  -26.7228  -32.5350   23.1004 H   0  0  0  0  0  0
  -25.0155  -33.9677   25.0391 H   0  0  0  0  0  0
  -22.7334  -31.2937   21.3854 H   0  0  0  0  0  0
  -23.3761  -35.9559   23.3313 H   0  0  0  0  0  0
  -24.3573  -36.8844   22.2056 H   0  0  0  0  0  0
  -23.7231  -37.6425   23.6664 H   0  0  0  0  0  0
  -26.1300  -31.5045   20.6055 H   0  0  0  0  0  0
  -26.8606  -30.7963   22.0124 H   0  0  0  0  0  0
  -28.1317  -28.8721   21.1932 H   0  0  0  0  0  0
  -25.9245  -25.8627   19.0164 H   0  0  0  0  0  0
  -23.9685  -27.2934   19.0059 H   0  0  0  0  0  0
  -23.7760  -30.5733   19.3966 H   0  0  0  0  0  0
  -22.7732  -29.2334   19.8524 H   0  0  0  0  0  0
  -25.1299  -36.1853   25.0807 H   0  0  0  0  0  0
  -21.0008  -28.3257   24.1367 H   0  0  0  0  0  0
  -20.5623  -26.2302   23.3594 H   0  0  0  0  0  0
  -21.6634  -26.7396   22.1206 H   0  0  0  0  0  0
  -19.6899  -25.6298   21.1204 H   0  0  0  0  0  0
  -19.6677  -27.3204   20.6722 H   0  0  0  0  0  0
  -17.4184  -26.6681   21.4020 H   0  0  0  0  0  0
  -18.0343  -26.0067   22.9009 H   0  0  0  0  0  0
  -19.7954  -30.7252   24.2259 H   0  0  0  0  0  0
  -17.5039  -31.6275   24.5136 H   0  0  0  0  0  0
  -15.5360  -30.2973   23.7678 H   0  0  0  0  0  0
  -15.8683  -28.0781   22.7132 H   0  0  0  0  0  0
  -24.5992  -30.7004   25.7745 H   0  0  0  0  0  0
  -24.8926  -32.2883   26.4771 H   0  0  0  0  0  0
  -25.8116  -30.8959   27.0215 H   0  0  0  0  0  0
  -26.2990  -29.6700   24.1231 H   0  0  0  0  0  0
  -27.4099  -29.7252   25.4715 H   0  0  0  0  0  0
  -27.8855  -30.4235   23.9431 H   0  0  0  0  0  0
  -27.2730  -33.3638   26.1975 H   0  0  0  0  0  0
  -28.3956  -32.6794   25.0323 H   0  0  0  0  0  0
  -28.0712  -31.8464   26.5439 H   0  0  0  0  0  0
  -28.2586  -38.0060   24.7513 H   0  0  0  0  0  0
  -28.1053  -36.2580   24.6319 H   0  0  0  0  0  0
  -27.2280  -37.1420   25.8890 H   0  0  0  0  0  0
  -20.9384  -29.8761   21.6839 H   0  0  0  0  0  0
  -26.0138  -38.2794   24.1466 H   0  0  0  0  0  0
  -29.4501  -21.7764   22.5157 H   0  0  0  0  0  0
  -29.0167  -21.6241   18.2719 H   0  0  0  0  0  0
  -29.4268  -18.3209   23.1758 H   0  0  0  0  0  0
  -29.8596  -19.9086   23.7854 H   0  0  0  0  0  0
  -31.0885  -18.9198   23.0161 H   0  0  0  0  0  0
  -30.0237  -23.8473   19.6661 H   0  0  0  0  0  0
  -29.6594  -23.9019   21.3450 H   0  0  0  0  0  0
  -31.2704  -17.5642   21.1394 H   0  0  0  0  0  0
  -31.0147  -17.4729   19.4636 H   0  0  0  0  0  0
  -27.2109  -24.5115   20.7409 H   0  0  0  0  0  0
  -27.6984  -24.5508   19.0710 H   0  0  0  0  0  0
  -28.9088  -15.9907   20.7906 H   0  0  0  0  0  0
  1 25  1  0  0  0
  1 30  2  0  0  0
  1 81  1  0  0  0
  2  3  1  0  0  0
  2 25  1  0  0  0
  2 83  1  0  0  0
  2 84  1  0  0  0
  3  4  1  0  0  0
  3 85  1  0  0  0
  3 86  1  0  0  0
  4  5  1  0  0  0
  4 87  1  0  0  0
  4 88  1  0  0  0
  5  6  1  0  0  0
  5 26  1  0  0  0
  5 89  1  0  0  0
  6 25  1  0  0  0
  6 90  1  0  0  0
  6 91  1  0  0  0
  7  8  2  0  0  0
  7 26  1  0  0  0
  7 29  1  0  0  0
  8  9  1  0  0  0
  8 22  1  0  0  0
  9 10  1  0  0  0
  9 27  2  0  0  0
 10 11  2  0  0  0
 10 15  1  0  0  0
 11 12  1  0  0  0
 11 92  1  0  0  0
 12 13  2  0  0  0
 12 93  1  0  0  0
 13 14  1  0  0  0
 13 31  1  0  0  0
 14 15  2  0  0  0
 14 94  1  0  0  0
 15 95  1  0  0  0
 16 17  2  0  0  0
 16 21  1  0  0  0
 16 31  1  0  0  0
 17 18  1  0  0  0
 17 96  1  0  0  0
 18 19  2  0  0  0
 18 97  1  0  0  0
 19 20  1  0  0  0
 19 24  1  0  0  0
 20 21  2  0  0  0
 20 98  1  0  0  0
 21 23  1  0  0  0
 22 28  1  0  0  0
 22 32  2  0  0  0
 26 27  1  0  0  0
 28 99  1  0  0  0
 28100  1  0  0  0
 29101  1  0  0  0
 29102  1  0  0  0
 33 34  1  0  0  0
 33 66  1  0  0  0
 33 70  2  0  0  0
 34 36  1  0  0  0
 34 59  1  0  0  0
 34103  1  0  0  0
 35 44  2  0  0  0
 35 45  1  0  0  0
 35 68  1  0  0  0
 36 56  1  0  0  0
 36104  1  0  0  0
 37 39  1  0  0  0
 37 47  1  0  0  0
 37 66  1  0  0  0
 37105  1  0  0  0
 38 43  2  0  0  0
 38 46  1  0  0  0
 38 47  1  0  0  0
 39 64  1  0  0  0
 39 67  2  0  0  0
 40 52  1  0  0  0
 40 53  2  0  0  0
 40 58  1  0  0  0
 41106  1  0  0  0
 41107  1  0  0  0
 41108  1  0  0  0
 41 48  1  0  0  0
 42 43  1  0  0  0
 42 66  1  0  0  0
 42109  1  0  0  0
 42110  1  0  0  0
 43 44  1  0  0  0
 44111  1  0  0  0
 45 46  2  0  0  0
 45112  1  0  0  0
 46113  1  0  0  0
 47114  1  0  0  0
 47115  1  0  0  0
 48 56  1  0  0  0
 48 65  1  0  0  0
 48116  1  0  0  0
 49 50  1  0  0  0
 49 53  1  0  0  0
 49 64  1  0  0  0
 49117  1  0  0  0
 50 51  1  0  0  0
 50118  1  0  0  0
 50119  1  0  0  0
 51 52  1  0  0  0
 51120  1  0  0  0
 51121  1  0  0  0
 52122  1  0  0  0
 52123  1  0  0  0
 53 54  1  0  0  0
 54 55  2  0  0  0
 54124  1  0  0  0
 55 57  1  0  0  0
 55125  1  0  0  0
 56 69  2  0  0  0
 57 58  2  0  0  0
 57126  1  0  0  0
 58127  1  0  0  0
 59 60  1  0  0  0
 59 61  1  0  0  0
 59 62  1  0  0  0
 60128  1  0  0  0
 60129  1  0  0  0
 60130  1  0  0  0
 61131  1  0  0  0
 61132  1  0  0  0
 61133  1  0  0  0
 62134  1  0  0  0
 62135  1  0  0  0
 62136  1  0  0  0
 63 65  1  0  0  0
 63137  1  0  0  0
 63138  1  0  0  0
 63139  1  0  0  0
 64140  1  0  0  0
 65141  1  0  0  0
 68 80  1  0  0  0
 71 73  2  0  0  0
 71 74  1  0  0  0
 71142  1  0  0  0
 72 73  1  0  0  0
 72 76  2  0  0  0
 72143  1  0  0  0
 73 78  1  0  0  0
 74 75  2  0  0  0
 74 77  1  0  0  0
 75 76  1  0  0  0
 75 79  1  0  0  0
 76 82  1  0  0  0
 77144  1  0  0  0
 77145  1  0  0  0
 77146  1  0  0  0
 78 80  1  0  0  0
 78147  1  0  0  0
 78148  1  0  0  0
 79 81  1  0  0  0
 79149  1  0  0  0
 79150  1  0  0  0
 80151  1  0  0  0
 80152  1  0  0  0
 81153  1  0  0  0
M  ISO  4   1 100  68 101  80 101  81 100
M  END
> <chiral flag>
0

> <version>
0

> <s_m_source_file>
/data/baiqing/PycharmProjects/Reinvent-master-3.2/result/LINK_invent/BTK/process_docking_weight1_custom_sum_contain_oxygen_bond_distance_aromatic_linkinvent_7_9_3/rearranged_h_0020.sdf

> <i_m_source_file_index>
64

> <r_mmod_Potential_Energy-OPLS-2005>
345.334564208984

> <r_mmod_Stretch_Energy-OPLS-2005>
185.443450927734

> <r_mmod_Bend_Energy-OPLS-2005>
228.857711791992

> <r_mmod_Torsional_Energy-OPLS-2005>
224.347900390625

> <r_mmod_Improper_Torsional_Energy-OPLS-2005>
9.8148775100708

> <r_mmod_Van_der_Waal_Energy-OPLS-2005>
134.815475463867

> <r_mmod_Electrostatic_Energy-OPLS-2005>
-372.289489746094

> <r_mmod_Solvation_Energy-OPLS-2005>
-203.677627563477

> <b_mmod_Minimization_Converged-OPLS-2005>
0

> <r_mmod_RMS_Derivative-OPLS-2005>
3.00716829299927

$$$$
64
                    3D
 Structure written by MMmdl.
163171  0  0  1  0            999 V2000
  -30.5492  -14.9985   20.4773 C   0  0  0  0  0  0
  -30.4404  -12.6284   19.5106 C   0  0  0  0  0  0
  -29.5221  -12.5636   18.2648 C   0  0  0  0  0  0
  -28.0547  -12.3343   18.6717 C   0  0  0  0  0  0
  -27.6334  -13.2451   19.8519 C   0  0  2  0  0  0
  -28.6801  -13.2180   20.9871 C   0  0  0  0  0  0
  -25.2426  -13.8185   20.5675 C   0  0  0  0  0  0
  -24.1764  -13.0413   20.9236 C   0  0  0  0  0  0
  -24.6392  -11.6904   20.8767 C   0  0  0  0  0  0
  -23.9077  -10.4279   21.0416 C   0  0  0  0  0  0
  -24.3623   -9.4193   21.9191 C   0  0  0  0  0  0
  -23.6291   -8.2233   22.0757 C   0  0  0  0  0  0
  -22.4274   -8.0276   21.3547 C   0  0  0  0  0  0
  -21.9915   -9.0251   20.4647 C   0  0  0  0  0  0
  -22.7251  -10.2126   20.3059 C   0  0  0  0  0  0
  -21.6853   -6.0730   22.5278 C   0  0  0  0  0  0
  -21.4016   -6.5635   23.8211 C   0  0  0  0  0  0
  -21.3657   -5.6788   24.9174 C   0  0  0  0  0  0
  -21.6043   -4.3051   24.7226 C   0  0  0  0  0  0
  -21.8818   -3.8142   23.4347 C   0  0  0  0  0  0
  -21.9192   -4.6957   22.3402 C   0  0  0  0  0  0
  -22.7781  -13.5189   21.1878 C   0  0  0  0  0  0
  -22.1661   -4.2142   21.0980 F   0  0  0  0  0  0
  -21.5626   -3.4535   25.7740 F   0  0  0  0  0  0
  -29.9489  -13.7195   20.4234 N   0  0  0  0  0  0
  -26.2888  -12.9430   20.3284 N   0  0  0  0  0  0
  -25.9331  -11.6561   20.5771 N   0  0  0  0  0  0
  -22.0427  -12.8193   22.0439 N   0  0  0  0  0  0
  -25.3979  -15.1907   20.3985 N   0  0  0  0  0  0
  -31.6851  -15.0104   19.9892 O   0  0  0  0  0  0
  -21.6638   -6.8874   21.4241 O   0  0  0  0  0  0
  -22.3471  -14.5493   20.6713 O   0  0  0  0  0  0
  -24.6441  -31.8406   23.1850 C   0  0  0  0  0  0
  -25.9203  -32.4674   23.8251 C   0  0  1  0  0  0
  -27.2248  -27.1188   20.1445 C   0  0  0  0  0  0
  -25.5946  -33.8482   24.2170 N   0  0  0  0  0  0
  -23.4496  -30.4576   21.5300 C   0  0  2  0  0  0
  -24.9013  -28.8803   20.1031 C   0  0  0  0  0  0
  -22.7572  -29.4522   22.4841 C   0  0  0  0  0  0
  -18.0304  -28.1388   22.8473 C   0  0  0  0  0  0
  -24.1492  -36.7253   23.2644 C   0  0  0  0  0  0
  -26.0055  -30.7066   21.3880 C   0  0  0  0  0  0
  -26.0755  -29.3165   20.7281 C   0  0  0  0  0  0
  -27.2315  -28.4485   20.7372 C   0  0  0  0  0  0
  -26.0254  -26.7875   19.4763 C   0  0  0  0  0  0
  -24.8898  -27.6299   19.4640 C   0  0  0  0  0  0
  -23.6771  -29.7831   20.1493 C   0  0  0  0  0  0
  -25.4125  -36.3019   24.0310 C   0  0  1  0  0  0
  -20.5917  -28.3716   23.1226 C   0  0  2  0  0  0
  -20.6786  -26.9414   22.5404 C   0  0  0  0  0  0
  -19.5764  -26.6372   21.5209 C   0  0  0  0  0  0
  -18.1944  -26.7927   22.1618 C   0  0  0  0  0  0
  -19.1562  -28.8870   23.2839 C   0  0  0  0  0  0
  -18.9482  -30.1466   23.8867 C   0  0  0  0  0  0
  -17.6479  -30.6586   24.0555 C   0  0  0  0  0  0
  -25.9075  -34.9394   23.5052 C   0  0  0  0  0  0
  -16.5367  -29.9081   23.6335 C   0  0  0  0  0  0
  -16.7289  -28.6499   23.0355 C   0  0  0  0  0  0
  -26.4524  -31.6555   25.0706 C   0  0  0  0  0  0
  -25.3703  -31.3751   26.1400 C   0  0  0  0  0  0
  -27.0400  -30.2947   24.6310 C   0  0  0  0  0  0
  -27.6044  -32.4334   25.7492 C   0  0  0  0  0  0
  -27.5573  -37.1780   24.8463 C   0  0  0  0  0  0
  -21.4262  -29.3040   22.3595 N   0  0  0  0  0  0
  -26.4288  -37.3733   23.9403 N   0  0  0  0  0  0
  -24.7194  -31.0244   22.0891 N   0  0  0  0  0  0
  -23.4206  -28.8082   23.3005 O   0  0  0  0  0  0
  -28.2849  -26.1424   20.2778 O   0  0  0  0  0  0
  -26.5672  -34.8897   22.4637 O   0  0  0  0  0  0
  -23.5557  -32.1298   23.7059 O   0  0  0  0  0  0
  -27.9467  -20.5053   21.4305 C   0  0  0  0  0  0
  -27.1276  -21.6090   21.7658 C   0  0  0  0  0  0
  -29.0332  -20.6276   20.5423 C   0  0  0  0  0  0
  -28.3610  -23.2129   20.3398 C   0  0  0  0  0  0
  -27.3183  -22.9149   21.2501 C   0  0  0  0  0  0
  -29.2029  -22.0175   20.0061 C   0  0  0  0  0  0
  -32.4533  -17.4019   21.7353 C   0  0  0  0  0  0
  -30.5829  -17.7110   23.4282 C   0  0  0  0  0  0
  -28.6553  -16.2996   21.8062 C   0  0  0  0  0  0
  -30.0537  -19.3215   20.3940 C   0  0  0  0  0  0
  -28.3892  -24.7201   19.6297 C   0  0  0  0  0  0
  -31.0817  -16.8672   22.2267 C   0  0  0  0  0  0
  -30.0151  -16.5016   21.1063 C   0  0  1  0  0  0
  -29.7747  -17.7607   20.1433 N   0  3  0  0  0  0
  -26.2010  -24.1369   21.7428 Cl  0  0  0  0  0  0
  -30.5083  -22.2671   18.9014 Cl  0  0  0  0  0  0
  -31.4719  -12.7757   19.1889 H   0  0  0  0  0  0
  -30.4512  -11.6661   20.0251 H   0  0  0  0  0  0
  -29.8517  -11.7723   17.5906 H   0  0  0  0  0  0
  -29.6039  -13.4962   17.7043 H   0  0  0  0  0  0
  -27.9509  -11.2876   18.9607 H   0  0  0  0  0  0
  -27.3929  -12.4822   17.8175 H   0  0  0  0  0  0
  -27.6071  -14.2572   19.4491 H   0  0  0  0  0  0
  -28.7953  -12.1996   21.3615 H   0  0  0  0  0  0
  -28.3421  -13.7695   21.8553 H   0  0  0  0  0  0
  -25.2764   -9.5668   22.4773 H   0  0  0  0  0  0
  -23.9993   -7.4624   22.7480 H   0  0  0  0  0  0
  -21.0844   -8.8776   19.8954 H   0  0  0  0  0  0
  -22.3710  -10.9668   19.6170 H   0  0  0  0  0  0
  -21.2013   -7.6144   23.9714 H   0  0  0  0  0  0
  -21.1478   -6.0519   25.9076 H   0  0  0  0  0  0
  -22.0600   -2.7603   23.2851 H   0  0  0  0  0  0
  -22.4043  -11.9869   22.4858 H   0  0  0  0  0  0
  -21.1035  -13.1213   22.2618 H   0  0  0  0  0  0
  -24.6113  -15.8247   20.4893 H   0  0  0  0  0  0
  -26.2132  -15.6305   19.9962 H   0  0  0  0  0  0
  -26.7265  -32.5267   23.0972 H   0  0  0  0  0  0
  -25.0057  -33.9592   25.0292 H   0  0  0  0  0  0
  -22.7530  -31.2835   21.3722 H   0  0  0  0  0  0
  -23.3754  -35.9584   23.3293 H   0  0  0  0  0  0
  -24.3573  -36.8908   22.2061 H   0  0  0  0  0  0
  -23.7251  -37.6444   23.6697 H   0  0  0  0  0  0
  -26.1651  -31.4600   20.6156 H   0  0  0  0  0  0
  -26.8746  -30.7560   22.0326 H   0  0  0  0  0  0
  -28.1213  -28.7715   21.2597 H   0  0  0  0  0  0
  -25.9162  -25.8245   19.0033 H   0  0  0  0  0  0
  -23.9909  -27.2881   18.9698 H   0  0  0  0  0  0
  -23.8118  -30.5569   19.3926 H   0  0  0  0  0  0
  -22.7922  -29.2241   19.8399 H   0  0  0  0  0  0
  -25.1313  -36.1846   25.0802 H   0  0  0  0  0  0
  -21.0007  -28.3310   24.1349 H   0  0  0  0  0  0
  -20.5670  -26.2328   23.3624 H   0  0  0  0  0  0
  -21.6653  -26.7409   22.1208 H   0  0  0  0  0  0
  -19.6925  -25.6277   21.1255 H   0  0  0  0  0  0
  -19.6708  -27.3167   20.6728 H   0  0  0  0  0  0
  -17.4211  -26.6668   21.4020 H   0  0  0  0  0  0
  -18.0340  -26.0074   22.9018 H   0  0  0  0  0  0
  -19.7959  -30.7281   24.2228 H   0  0  0  0  0  0
  -17.5036  -31.6265   24.5157 H   0  0  0  0  0  0
  -15.5367  -30.2973   23.7677 H   0  0  0  0  0  0
  -15.8687  -28.0808   22.7091 H   0  0  0  0  0  0
  -24.5891  -30.7087   25.7723 H   0  0  0  0  0  0
  -24.8881  -32.2933   26.4761 H   0  0  0  0  0  0
  -25.7982  -30.8969   27.0223 H   0  0  0  0  0  0
  -26.3031  -29.6652   24.1313 H   0  0  0  0  0  0
  -27.3998  -29.7262   25.4896 H   0  0  0  0  0  0
  -27.8937  -30.4174   23.9644 H   0  0  0  0  0  0
  -27.2632  -33.3658   26.2000 H   0  0  0  0  0  0
  -28.3889  -32.6861   25.0346 H   0  0  0  0  0  0
  -28.0675  -31.8512   26.5469 H   0  0  0  0  0  0
  -28.2575  -38.0090   24.7506 H   0  0  0  0  0  0
  -28.1084  -36.2614   24.6296 H   0  0  0  0  0  0
  -27.2285  -37.1435   25.8865 H   0  0  0  0  0  0
  -20.9473  -29.8756   21.6777 H   0  0  0  0  0  0
  -26.0152  -38.2798   24.1412 H   0  0  0  0  0  0
  -27.7461  -19.5541   21.9019 H   0  0  0  0  0  0
  -26.3117  -21.4479   22.4565 H   0  0  0  0  0  0
  -33.2579  -16.9906   22.3462 H   0  0  0  0  0  0
  -32.5450  -18.4826   21.8231 H   0  0  0  0  0  0
  -32.6805  -17.1467   20.7018 H   0  0  0  0  0  0
  -31.4102  -17.9630   24.0923 H   0  0  0  0  0  0
  -29.8653  -17.1641   24.0399 H   0  0  0  0  0  0
  -30.1089  -18.6462   23.1382 H   0  0  0  0  0  0
  -28.2415  -17.2395   22.1700 H   0  0  0  0  0  0
  -28.7401  -15.6533   22.6788 H   0  0  0  0  0  0
  -27.9120  -15.8881   21.1297 H   0  0  0  0  0  0
  -30.7449  -19.4339   21.2187 H   0  0  0  0  0  0
  -30.6683  -19.5790   19.5323 H   0  0  0  0  0  0
  -27.6775  -24.6629   18.8089 H   0  0  0  0  0  0
  -29.3481  -24.7624   19.1165 H   0  0  0  0  0  0
  -31.3326  -15.9119   22.6938 H   0  0  0  0  0  0
  -30.4228  -17.5619   19.3968 H   0  0  0  0  0  0
  -28.8714  -17.6684   19.7120 H   0  0  0  0  0  0
  1 25  1  0  0  0
  1 30  2  0  0  0
  1 83  1  0  0  0
  2  3  1  0  0  0
  2 25  1  0  0  0
  2 87  1  0  0  0
  2 88  1  0  0  0
  3  4  1  0  0  0
  3 89  1  0  0  0
  3 90  1  0  0  0
  4  5  1  0  0  0
  4 91  1  0  0  0
  4 92  1  0  0  0
  5  6  1  0  0  0
  5 26  1  0  0  0
  5 93  1  0  0  0
  6 25  1  0  0  0
  6 94  1  0  0  0
  6 95  1  0  0  0
  7  8  2  0  0  0
  7 26  1  0  0  0
  7 29  1  0  0  0
  8  9  1  0  0  0
  8 22  1  0  0  0
  9 10  1  0  0  0
  9 27  2  0  0  0
 10 11  2  0  0  0
 10 15  1  0  0  0
 11 12  1  0  0  0
 11 96  1  0  0  0
 12 13  2  0  0  0
 12 97  1  0  0  0
 13 14  1  0  0  0
 13 31  1  0  0  0
 14 15  2  0  0  0
 14 98  1  0  0  0
 15 99  1  0  0  0
 16 17  2  0  0  0
 16 21  1  0  0  0
 16 31  1  0  0  0
 17 18  1  0  0  0
 17100  1  0  0  0
 18 19  2  0  0  0
 18101  1  0  0  0
 19 20  1  0  0  0
 19 24  1  0  0  0
 20 21  2  0  0  0
 20102  1  0  0  0
 21 23  1  0  0  0
 22 28  1  0  0  0
 22 32  2  0  0  0
 26 27  1  0  0  0
 28103  1  0  0  0
 28104  1  0  0  0
 29105  1  0  0  0
 29106  1  0  0  0
 33 34  1  0  0  0
 33 66  1  0  0  0
 33 70  2  0  0  0
 34 36  1  0  0  0
 34 59  1  0  0  0
 34107  1  0  0  0
 35 44  2  0  0  0
 35 45  1  0  0  0
 35 68  1  0  0  0
 36 56  1  0  0  0
 36108  1  0  0  0
 37 39  1  0  0  0
 37 47  1  0  0  0
 37 66  1  0  0  0
 37109  1  0  0  0
 38 43  2  0  0  0
 38 46  1  0  0  0
 38 47  1  0  0  0
 39 64  1  0  0  0
 39 67  2  0  0  0
 40 52  1  0  0  0
 40 53  2  0  0  0
 40 58  1  0  0  0
 41110  1  0  0  0
 41111  1  0  0  0
 41112  1  0  0  0
 41 48  1  0  0  0
 42 43  1  0  0  0
 42 66  1  0  0  0
 42113  1  0  0  0
 42114  1  0  0  0
 43 44  1  0  0  0
 44115  1  0  0  0
 45 46  2  0  0  0
 45116  1  0  0  0
 46117  1  0  0  0
 47118  1  0  0  0
 47119  1  0  0  0
 48 56  1  0  0  0
 48 65  1  0  0  0
 48120  1  0  0  0
 49 50  1  0  0  0
 49 53  1  0  0  0
 49 64  1  0  0  0
 49121  1  0  0  0
 50 51  1  0  0  0
 50122  1  0  0  0
 50123  1  0  0  0
 51 52  1  0  0  0
 51124  1  0  0  0
 51125  1  0  0  0
 52126  1  0  0  0
 52127  1  0  0  0
 53 54  1  0  0  0
 54 55  2  0  0  0
 54128  1  0  0  0
 55 57  1  0  0  0
 55129  1  0  0  0
 56 69  2  0  0  0
 57 58  2  0  0  0
 57130  1  0  0  0
 58131  1  0  0  0
 59 60  1  0  0  0
 59 61  1  0  0  0
 59 62  1  0  0  0
 60132  1  0  0  0
 60133  1  0  0  0
 60134  1  0  0  0
 61135  1  0  0  0
 61136  1  0  0  0
 61137  1  0  0  0
 62138  1  0  0  0
 62139  1  0  0  0
 62140  1  0  0  0
 63 65  1  0  0  0
 63141  1  0  0  0
 63142  1  0  0  0
 63143  1  0  0  0
 64144  1  0  0  0
 65145  1  0  0  0
 68 81  1  0  0  0
 71 72  2  0  0  0
 71 73  1  0  0  0
 71146  1  0  0  0
 72 75  1  0  0  0
 72147  1  0  0  0
 73 76  2  0  0  0
 73 80  1  0  0  0
 74 75  2  0  0  0
 74 76  1  0  0  0
 74 81  1  0  0  0
 75 85  1  0  0  0
 76 86  1  0  0  0
 77148  1  0  0  0
 77149  1  0  0  0
 77150  1  0  0  0
 77 82  1  0  0  0
 78 82  1  0  0  0
 78151  1  0  0  0
 78152  1  0  0  0
 78153  1  0  0  0
 79154  1  0  0  0
 79155  1  0  0  0
 79156  1  0  0  0
 79 83  1  0  0  0
 80 84  1  0  0  0
 80157  1  0  0  0
 80158  1  0  0  0
 81159  1  0  0  0
 81160  1  0  0  0
 82 83  1  0  0  0
 82161  1  0  0  0
 83 84  1  0  0  0
 84162  1  0  0  0
 84163  1  0  0  0
M  CHG  1  84   1
M  ISO  4   1 100  68 101  81 101  83 100
M  END
> <chiral flag>
0

> <version>
0

> <s_m_source_file>
/data/baiqing/PycharmProjects/Reinvent-master-3.2/result/LINK_invent/BTK/process_docking_weight1_custom_sum_contain_oxygen_bond_distance_aromatic_linkinvent_7_9_3/rearranged_h_0020.sdf

> <i_m_source_file_index>
65

> <r_mmod_Potential_Energy-OPLS-2005>
548.170715332031

> <r_mmod_Stretch_Energy-OPLS-2005>
318.762390136719

> <r_mmod_Bend_Energy-OPLS-2005>
356.571380615234

> <r_mmod_Torsional_Energy-OPLS-2005>
230.577224731445

> <r_mmod_Improper_Torsional_Energy-OPLS-2005>
4.1461238861084

> <r_mmod_Van_der_Waal_Energy-OPLS-2005>
143.538635253906

> <r_mmod_Electrostatic_Energy-OPLS-2005>
-252.296539306641

> <r_mmod_Solvation_Energy-OPLS-2005>
-459.541748046875

> <b_mmod_Minimization_Converged-OPLS-2005>
0

> <r_mmod_RMS_Derivative-OPLS-2005>
0.61430436372757

$$$$
65
                    3D
 Structure written by MMmdl.
168176  0  0  1  0            999 V2000
  -30.5328  -14.9996   20.4032 C   0  0  0  0  0  0
  -30.4332  -12.6193   19.5129 C   0  0  0  0  0  0
  -29.5188  -12.5319   18.2685 C   0  0  0  0  0  0
  -28.0563  -12.3085   18.6904 C   0  0  0  0  0  0
  -27.6252  -13.2551   19.8403 C   0  0  2  0  0  0
  -28.6661  -13.3109   20.9784 C   0  0  0  0  0  0
  -25.2447  -13.8232   20.5745 C   0  0  0  0  0  0
  -24.1762  -13.0444   20.9233 C   0  0  0  0  0  0
  -24.6388  -11.6932   20.8765 C   0  0  0  0  0  0
  -23.9076  -10.4292   21.0411 C   0  0  0  0  0  0
  -24.3627   -9.4204   21.9193 C   0  0  0  0  0  0
  -23.6285   -8.2242   22.0766 C   0  0  0  0  0  0
  -22.4270   -8.0284   21.3545 C   0  0  0  0  0  0
  -21.9910   -9.0263   20.4656 C   0  0  0  0  0  0
  -22.7246  -10.2133   20.3062 C   0  0  0  0  0  0
  -21.6856   -6.0730   22.5267 C   0  0  0  0  0  0
  -21.4017   -6.5636   23.8200 C   0  0  0  0  0  0
  -21.3658   -5.6795   24.9167 C   0  0  0  0  0  0
  -21.6042   -4.3058   24.7219 C   0  0  0  0  0  0
  -21.8818   -3.8144   23.4346 C   0  0  0  0  0  0
  -21.9190   -4.6955   22.3401 C   0  0  0  0  0  0
  -22.7780  -13.5209   21.1874 C   0  0  0  0  0  0
  -22.1658   -4.2146   21.0978 F   0  0  0  0  0  0
  -21.5629   -3.4546   25.7729 F   0  0  0  0  0  0
  -29.9364  -13.7332   20.3773 N   0  0  0  0  0  0
  -26.2868  -12.9469   20.3279 N   0  0  0  0  0  0
  -25.9335  -11.6593   20.5773 N   0  0  0  0  0  0
  -22.0438  -12.8200   22.0435 N   0  0  0  0  0  0
  -25.4120  -15.1968   20.4199 N   0  0  0  0  0  0
  -31.7403  -15.0210   20.1367 O   0  0  0  0  0  0
  -21.6639   -6.8880   21.4230 O   0  0  0  0  0  0
  -22.3464  -14.5510   20.6720 O   0  0  0  0  0  0
  -24.6458  -31.8373   23.1798 C   0  0  0  0  0  0
  -25.9216  -32.4641   23.8228 C   0  0  1  0  0  0
  -27.2251  -27.0994   20.1589 C   0  0  0  0  0  0
  -25.5932  -33.8452   24.2131 N   0  0  0  0  0  0
  -23.4522  -30.4524   21.5222 C   0  0  2  0  0  0
  -24.9051  -28.8688   20.0979 C   0  0  0  0  0  0
  -22.7593  -29.4507   22.4800 C   0  0  0  0  0  0
  -18.0314  -28.1399   22.8468 C   0  0  0  0  0  0
  -24.1492  -36.7256   23.2647 C   0  0  0  0  0  0
  -26.0059  -30.6981   21.3842 C   0  0  0  0  0  0
  -26.0746  -29.3043   20.7296 C   0  0  0  0  0  0
  -27.2269  -28.4309   20.7524 C   0  0  0  0  0  0
  -26.0353  -26.7674   19.4807 C   0  0  0  0  0  0
  -24.8996  -27.6148   19.4601 C   0  0  0  0  0  0
  -23.6800  -29.7744   20.1416 C   0  0  0  0  0  0
  -25.4117  -36.2997   24.0304 C   0  0  1  0  0  0
  -20.5932  -28.3728   23.1235 C   0  0  2  0  0  0
  -20.6784  -26.9421   22.5417 C   0  0  0  0  0  0
  -19.5764  -26.6378   21.5229 C   0  0  0  0  0  0
  -18.1940  -26.7928   22.1623 C   0  0  0  0  0  0
  -19.1575  -28.8881   23.2842 C   0  0  0  0  0  0
  -18.9492  -30.1472   23.8877 C   0  0  0  0  0  0
  -17.6491  -30.6586   24.0569 C   0  0  0  0  0  0
  -25.9082  -34.9372   23.5037 C   0  0  0  0  0  0
  -16.5383  -29.9082   23.6340 C   0  0  0  0  0  0
  -16.7303  -28.6508   23.0346 C   0  0  0  0  0  0
  -26.4528  -31.6523   25.0693 C   0  0  0  0  0  0
  -25.3698  -31.3735   26.1397 C   0  0  0  0  0  0
  -27.0399  -30.2909   24.6296 C   0  0  0  0  0  0
  -27.6072  -32.4288   25.7451 C   0  0  0  0  0  0
  -27.5564  -37.1774   24.8469 C   0  0  0  0  0  0
  -21.4281  -29.3035   22.3581 N   0  0  0  0  0  0
  -26.4277  -37.3718   23.9405 N   0  0  0  0  0  0
  -24.7207  -31.0197   22.0836 N   0  0  0  0  0  0
  -23.4223  -28.8077   23.2988 O   0  0  0  0  0  0
  -28.2819  -26.1236   20.3215 O   0  0  0  0  0  0
  -26.5715  -34.8902   22.4644 O   0  0  0  0  0  0
  -23.5571  -32.1278   23.6993 O   0  0  0  0  0  0
  -30.6926  -20.4434   19.4078 C   0  0  0  0  0  0
  -31.1487  -18.0165   19.4304 C   0  0  0  0  0  0
  -31.5024  -19.3372   19.0350 C   0  0  0  0  0  0
  -29.5506  -20.3370   20.2233 C   0  0  0  0  0  0
  -30.0269  -17.7081   20.2339 C   0  0  0  0  0  0
  -29.2421  -18.9249   20.6259 C   0  0  0  0  0  0
  -35.1786  -20.7171   18.5587 C   0  0  0  0  0  0
  -33.9402  -19.9283   20.6031 C   0  0  0  0  0  0
  -33.5216  -18.3233   17.7918 C   0  0  0  0  0  0
  -32.4692  -20.4127   16.9783 C   0  0  0  0  0  0
  -28.9842  -21.8053   20.7829 C   0  0  0  0  0  0
  -28.1374  -23.0682   20.0125 C   0  0  0  0  0  0
  -28.4817  -24.7128   19.6673 C   0  0  0  0  0  0
  -33.7837  -20.4679   19.1641 C   0  0  0  0  0  0
  -32.8142  -19.6228   18.2611 C   0  0  0  0  0  0
  -29.7737  -16.2110   20.5652 N   0  0  0  0  0  0
  -28.1840  -18.7325   21.4484 F   0  0  0  0  0  0
  -31.4676  -12.7720   19.2009 H   0  0  0  0  0  0
  -30.4291  -11.6775   20.0639 H   0  0  0  0  0  0
  -29.8472  -11.7259   17.6118 H   0  0  0  0  0  0
  -29.5957  -13.4535   17.6905 H   0  0  0  0  0  0
  -27.9687  -11.2719   19.0203 H   0  0  0  0  0  0
  -27.3874  -12.4137   17.8354 H   0  0  0  0  0  0
  -27.5801  -14.2500   19.3970 H   0  0  0  0  0  0
  -28.7659  -12.3417   21.4701 H   0  0  0  0  0  0
  -28.3595  -14.0198   21.7491 H   0  0  0  0  0  0
  -25.2768   -9.5682   22.4771 H   0  0  0  0  0  0
  -23.9987   -7.4644   22.7501 H   0  0  0  0  0  0
  -21.0839   -8.8789   19.8973 H   0  0  0  0  0  0
  -22.3707  -10.9679   19.6177 H   0  0  0  0  0  0
  -21.2013   -7.6144   23.9700 H   0  0  0  0  0  0
  -21.1482   -6.0529   25.9067 H   0  0  0  0  0  0
  -22.0600   -2.7604   23.2844 H   0  0  0  0  0  0
  -22.4057  -11.9852   22.4800 H   0  0  0  0  0  0
  -21.1072  -13.1243   22.2675 H   0  0  0  0  0  0
  -24.6470  -15.8514   20.5443 H   0  0  0  0  0  0
  -26.2624  -15.6402   20.0982 H   0  0  0  0  0  0
  -26.7274  -32.5245   23.0944 H   0  0  0  0  0  0
  -24.9971  -33.9539   25.0203 H   0  0  0  0  0  0
  -22.7570  -31.2781   21.3595 H   0  0  0  0  0  0
  -23.3751  -35.9593   23.3272 H   0  0  0  0  0  0
  -24.3584  -36.8950   22.2076 H   0  0  0  0  0  0
  -23.7259  -37.6436   23.6737 H   0  0  0  0  0  0
  -26.1642  -31.4441   20.6048 H   0  0  0  0  0  0
  -26.8761  -30.7543   22.0250 H   0  0  0  0  0  0
  -28.1098  -28.7472   21.2870 H   0  0  0  0  0  0
  -25.9501  -25.7997   19.0057 H   0  0  0  0  0  0
  -24.0049  -27.2728   18.9599 H   0  0  0  0  0  0
  -23.8157  -30.5462   19.3831 H   0  0  0  0  0  0
  -22.7941  -29.2171   19.8319 H   0  0  0  0  0  0
  -25.1287  -36.1803   25.0791 H   0  0  0  0  0  0
  -21.0041  -28.3336   24.1354 H   0  0  0  0  0  0
  -20.5696  -26.2337   23.3643 H   0  0  0  0  0  0
  -21.6640  -26.7415   22.1202 H   0  0  0  0  0  0
  -19.6939  -25.6294   21.1248 H   0  0  0  0  0  0
  -19.6701  -27.3195   20.6764 H   0  0  0  0  0  0
  -17.4207  -26.6705   21.4022 H   0  0  0  0  0  0
  -18.0321  -26.0071   22.9019 H   0  0  0  0  0  0
  -19.7982  -30.7289   24.2225 H   0  0  0  0  0  0
  -17.5047  -31.6264   24.5175 H   0  0  0  0  0  0
  -15.5382  -30.2977   23.7672 H   0  0  0  0  0  0
  -15.8702  -28.0826   22.7055 H   0  0  0  0  0  0
  -24.5847  -30.7114   25.7715 H   0  0  0  0  0  0
  -24.8926  -32.2934   26.4803 H   0  0  0  0  0  0
  -25.7960  -30.8907   27.0199 H   0  0  0  0  0  0
  -26.3015  -29.6602   24.1332 H   0  0  0  0  0  0
  -27.4049  -29.7228   25.4864 H   0  0  0  0  0  0
  -27.8910  -30.4128   23.9584 H   0  0  0  0  0  0
  -27.2702  -33.3657   26.1892 H   0  0  0  0  0  0
  -28.3947  -32.6721   25.0301 H   0  0  0  0  0  0
  -28.0655  -31.8479   26.5465 H   0  0  0  0  0  0
  -28.2561  -38.0081   24.7481 H   0  0  0  0  0  0
  -28.1068  -36.2606   24.6306 H   0  0  0  0  0  0
  -27.2297  -37.1440   25.8879 H   0  0  0  0  0  0
  -20.9491  -29.8752   21.6759 H   0  0  0  0  0  0
  -26.0141  -38.2791   24.1391 H   0  0  0  0  0  0
  -31.0072  -21.4392   19.1337 H   0  0  0  0  0  0
  -31.7738  -17.1987   19.1214 H   0  0  0  0  0  0
  -35.7300  -21.4493   19.1493 H   0  0  0  0  0  0
  -35.1238  -21.1088   17.5451 H   0  0  0  0  0  0
  -35.7791  -19.8075   18.5375 H   0  0  0  0  0  0
  -34.6261  -20.5505   21.1797 H   0  0  0  0  0  0
  -34.3346  -18.9122   20.6139 H   0  0  0  0  0  0
  -32.9958  -19.9245   21.1475 H   0  0  0  0  0  0
  -32.8605  -17.7129   17.1746 H   0  0  0  0  0  0
  -33.8649  -17.7095   18.6258 H   0  0  0  0  0  0
  -34.3965  -18.5318   17.1763 H   0  0  0  0  0  0
  -31.7059  -19.8971   16.3950 H   0  0  0  0  0  0
  -33.3332  -20.5337   16.3263 H   0  0  0  0  0  0
  -32.0980  -21.4138   17.1926 H   0  0  0  0  0  0
  -29.8642  -22.2807   21.2171 H   0  0  0  0  0  0
  -28.3915  -21.5410   21.6593 H   0  0  0  0  0  0
  -27.1361  -23.0676   20.4440 H   0  0  0  0  0  0
  -27.9622  -22.6462   19.0220 H   0  0  0  0  0  0
  -28.0329  -24.8613   18.6847 H   0  0  0  0  0  0
  -29.5482  -24.7048   19.4410 H   0  0  0  0  0  0
  -33.3325  -21.4548   19.2755 H   0  0  0  0  0  0
  -28.8376  -16.0378   20.8968 H   0  0  0  0  0  0
  1 25  1  0  0  0
  1 30  2  0  0  0
  1 86  1  0  0  0
  2  3  1  0  0  0
  2 25  1  0  0  0
  2 88  1  0  0  0
  2 89  1  0  0  0
  3  4  1  0  0  0
  3 90  1  0  0  0
  3 91  1  0  0  0
  4  5  1  0  0  0
  4 92  1  0  0  0
  4 93  1  0  0  0
  5  6  1  0  0  0
  5 26  1  0  0  0
  5 94  1  0  0  0
  6 25  1  0  0  0
  6 95  1  0  0  0
  6 96  1  0  0  0
  7  8  2  0  0  0
  7 26  1  0  0  0
  7 29  1  0  0  0
  8  9  1  0  0  0
  8 22  1  0  0  0
  9 10  1  0  0  0
  9 27  2  0  0  0
 10 11  2  0  0  0
 10 15  1  0  0  0
 11 12  1  0  0  0
 11 97  1  0  0  0
 12 13  2  0  0  0
 12 98  1  0  0  0
 13 14  1  0  0  0
 13 31  1  0  0  0
 14 15  2  0  0  0
 14 99  1  0  0  0
 15100  1  0  0  0
 16 17  2  0  0  0
 16 21  1  0  0  0
 16 31  1  0  0  0
 17 18  1  0  0  0
 17101  1  0  0  0
 18 19  2  0  0  0
 18102  1  0  0  0
 19 20  1  0  0  0
 19 24  1  0  0  0
 20 21  2  0  0  0
 20103  1  0  0  0
 21 23  1  0  0  0
 22 28  1  0  0  0
 22 32  2  0  0  0
 26 27  1  0  0  0
 28104  1  0  0  0
 28105  1  0  0  0
 29106  1  0  0  0
 29107  1  0  0  0
 33 34  1  0  0  0
 33 66  1  0  0  0
 33 70  2  0  0  0
 34 36  1  0  0  0
 34 59  1  0  0  0
 34108  1  0  0  0
 35 44  2  0  0  0
 35 45  1  0  0  0
 35 68  1  0  0  0
 36 56  1  0  0  0
 36109  1  0  0  0
 37 39  1  0  0  0
 37 47  1  0  0  0
 37 66  1  0  0  0
 37110  1  0  0  0
 38 43  2  0  0  0
 38 46  1  0  0  0
 38 47  1  0  0  0
 39 64  1  0  0  0
 39 67  2  0  0  0
 40 52  1  0  0  0
 40 53  2  0  0  0
 40 58  1  0  0  0
 41111  1  0  0  0
 41112  1  0  0  0
 41113  1  0  0  0
 41 48  1  0  0  0
 42 43  1  0  0  0
 42 66  1  0  0  0
 42114  1  0  0  0
 42115  1  0  0  0
 43 44  1  0  0  0
 44116  1  0  0  0
 45 46  2  0  0  0
 45117  1  0  0  0
 46118  1  0  0  0
 47119  1  0  0  0
 47120  1  0  0  0
 48 56  1  0  0  0
 48 65  1  0  0  0
 48121  1  0  0  0
 49 50  1  0  0  0
 49 53  1  0  0  0
 49 64  1  0  0  0
 49122  1  0  0  0
 50 51  1  0  0  0
 50123  1  0  0  0
 50124  1  0  0  0
 51 52  1  0  0  0
 51125  1  0  0  0
 51126  1  0  0  0
 52127  1  0  0  0
 52128  1  0  0  0
 53 54  1  0  0  0
 54 55  2  0  0  0
 54129  1  0  0  0
 55 57  1  0  0  0
 55130  1  0  0  0
 56 69  2  0  0  0
 57 58  2  0  0  0
 57131  1  0  0  0
 58132  1  0  0  0
 59 60  1  0  0  0
 59 61  1  0  0  0
 59 62  1  0  0  0
 60133  1  0  0  0
 60134  1  0  0  0
 60135  1  0  0  0
 61136  1  0  0  0
 61137  1  0  0  0
 61138  1  0  0  0
 62139  1  0  0  0
 62140  1  0  0  0
 62141  1  0  0  0
 63 65  1  0  0  0
 63142  1  0  0  0
 63143  1  0  0  0
 63144  1  0  0  0
 64145  1  0  0  0
 65146  1  0  0  0
 68 83  1  0  0  0
 71 73  2  0  0  0
 71 74  1  0  0  0
 71147  1  0  0  0
 72 73  1  0  0  0
 72 75  2  0  0  0
 72148  1  0  0  0
 73 85  1  0  0  0
 74 76  2  0  0  0
 74 81  1  0  0  0
 75 76  1  0  0  0
 75 86  1  0  0  0
 76 87  1  0  0  0
 77149  1  0  0  0
 77150  1  0  0  0
 77151  1  0  0  0
 77 84  1  0  0  0
 78 84  1  0  0  0
 78152  1  0  0  0
 78153  1  0  0  0
 78154  1  0  0  0
 79155  1  0  0  0
 79156  1  0  0  0
 79157  1  0  0  0
 79 85  1  0  0  0
 80 85  1  0  0  0
 80158  1  0  0  0
 80159  1  0  0  0
 80160  1  0  0  0
 81 82  1  0  0  0
 81161  1  0  0  0
 81162  1  0  0  0
 82 83  1  0  0  0
 82163  1  0  0  0
 82164  1  0  0  0
 83165  1  0  0  0
 83166  1  0  0  0
 84 85  1  0  0  0
 84167  1  0  0  0
 86168  1  0  0  0
M  ISO  4   1 100  68 101  83 101  86 100
M  END
> <chiral flag>
0

> <version>
0

> <s_m_source_file>
/data/baiqing/PycharmProjects/Reinvent-master-3.2/result/LINK_invent/BTK/process_docking_weight1_custom_sum_contain_oxygen_bond_distance_aromatic_linkinvent_7_9_3/rearranged_h_0020.sdf

> <i_m_source_file_index>
66

> <r_mmod_Potential_Energy-OPLS-2005>
684.368896484375

> <r_mmod_Stretch_Energy-OPLS-2005>
311.514404296875

> <r_mmod_Bend_Energy-OPLS-2005>
371.477478027344

> <r_mmod_Torsional_Energy-OPLS-2005>
246.165115356445

> <r_mmod_Improper_Torsional_Energy-OPLS-2005>
5.61913442611694

> <r_mmod_Van_der_Waal_Energy-OPLS-2005>
143.885223388672

> <r_mmod_Electrostatic_Energy-OPLS-2005>
-437.431213378906

> <r_mmod_Solvation_Energy-OPLS-2005>
-185.868362426758

> <b_mmod_Minimization_Converged-OPLS-2005>
0

> <r_mmod_RMS_Derivative-OPLS-2005>
2.31416082382202

$$$$
66
                    3D
 Structure written by MMmdl.
165173  0  0  1  0            999 V2000
  -30.7293  -14.4293   20.6886 C   0  0  0  0  0  0
  -30.4027  -12.3157   19.4103 C   0  0  0  0  0  0
  -29.4998  -12.5447   18.1788 C   0  0  0  0  0  0
  -28.0122  -12.3882   18.5572 C   0  0  0  0  0  0
  -27.6533  -13.1947   19.8324 C   0  0  2  0  0  0
  -28.6726  -12.9256   20.9504 C   0  0  0  0  0  0
  -25.2679  -13.8110   20.5608 C   0  0  0  0  0  0
  -24.1886  -13.0420   20.9087 C   0  0  0  0  0  0
  -24.6401  -11.6882   20.8601 C   0  0  0  0  0  0
  -23.9042  -10.4275   21.0354 C   0  0  0  0  0  0
  -24.3604   -9.4217   21.9158 C   0  0  0  0  0  0
  -23.6273   -8.2263   22.0767 C   0  0  0  0  0  0
  -22.4249   -8.0291   21.3565 C   0  0  0  0  0  0
  -21.9880   -9.0257   20.4656 C   0  0  0  0  0  0
  -22.7217  -10.2115   20.3024 C   0  0  0  0  0  0
  -21.6858   -6.0694   22.5269 C   0  0  0  0  0  0
  -21.4019   -6.5599   23.8214 C   0  0  0  0  0  0
  -21.3660   -5.6751   24.9177 C   0  0  0  0  0  0
  -21.6072   -4.3028   24.7243 C   0  0  0  0  0  0
  -21.8830   -3.8109   23.4367 C   0  0  0  0  0  0
  -21.9212   -4.6916   22.3415 C   0  0  0  0  0  0
  -22.7935  -13.5291   21.1737 C   0  0  0  0  0  0
  -22.1686   -4.2081   21.0997 F   0  0  0  0  0  0
  -21.5638   -3.4537   25.7771 F   0  0  0  0  0  0
  -30.0146  -13.2795   20.4642 N   0  0  0  0  0  0
  -26.2974  -12.9214   20.3032 N   0  0  0  0  0  0
  -25.9277  -11.6391   20.5464 N   0  0  0  0  0  0
  -22.0567  -12.8293   22.0312 N   0  0  0  0  0  0
  -25.4574  -15.1815   20.4181 N   0  0  0  0  0  0
  -31.7974  -14.5966   20.0855 O   0  0  0  0  0  0
  -21.6672   -6.8847   21.4239 O   0  0  0  0  0  0
  -22.3632  -14.5589   20.6584 O   0  0  0  0  0  0
  -24.6156  -31.8682   23.2096 C   0  0  0  0  0  0
  -25.9037  -32.4829   23.8393 C   0  0  1  0  0  0
  -27.2471  -27.4281   20.0990 C   0  0  0  0  0  0
  -25.5925  -33.8631   24.2355 N   0  0  0  0  0  0
  -23.4031  -30.4855   21.5551 C   0  0  2  0  0  0
  -24.8536  -28.9461   20.1171 C   0  0  0  0  0  0
  -22.7395  -29.4639   22.5059 C   0  0  0  0  0  0
  -18.0253  -28.1344   22.8490 C   0  0  0  0  0  0
  -24.1480  -36.7306   23.2630 C   0  0  0  0  0  0
  -25.9330  -30.8294   21.3602 C   0  0  0  0  0  0
  -26.0150  -29.4631   20.7071 C   0  0  0  0  0  0
  -27.2156  -28.7145   20.6876 C   0  0  0  0  0  0
  -26.0671  -26.9168   19.5178 C   0  0  0  0  0  0
  -24.8784  -27.6728   19.5166 C   0  0  0  0  0  0
  -23.6090  -29.8083   20.1724 C   0  0  0  0  0  0
  -25.4105  -36.3121   24.0336 C   0  0  1  0  0  0
  -20.5848  -28.3618   23.1353 C   0  0  2  0  0  0
  -20.6753  -26.9368   22.5432 C   0  0  0  0  0  0
  -19.5751  -26.6350   21.5219 C   0  0  0  0  0  0
  -18.1906  -26.7889   22.1613 C   0  0  0  0  0  0
  -19.1503  -28.8808   23.2891 C   0  0  0  0  0  0
  -18.9437  -30.1401   23.8894 C   0  0  0  0  0  0
  -17.6451  -30.6556   24.0544 C   0  0  0  0  0  0
  -25.9052  -34.9478   23.5143 C   0  0  0  0  0  0
  -16.5343  -29.9044   23.6336 C   0  0  0  0  0  0
  -16.7246  -28.6464   23.0368 C   0  0  0  0  0  0
  -26.4483  -31.6614   25.0722 C   0  0  0  0  0  0
  -25.3755  -31.3702   26.1482 C   0  0  0  0  0  0
  -27.0303  -30.3061   24.6068 C   0  0  0  0  0  0
  -27.6054  -32.4322   25.7485 C   0  0  0  0  0  0
  -27.5579  -37.1803   24.8466 C   0  0  0  0  0  0
  -21.4133  -29.2996   22.3786 N   0  0  0  0  0  0
  -26.4292  -37.3797   23.9414 N   0  0  0  0  0  0
  -24.6685  -31.0732   22.1011 N   0  0  0  0  0  0
  -23.4177  -28.8206   23.3115 O   0  0  0  0  0  0
  -28.4219  -26.7045   20.0421 O   0  0  0  0  0  0
  -26.5581  -34.8914   22.4682 O   0  0  0  0  0  0
  -23.5354  -32.1464   23.7501 O   0  0  0  0  0  0
  -28.3500  -20.1986   18.3411 C   0  0  0  0  0  0
  -28.4750  -21.4530   18.9455 C   0  0  0  0  0  0
  -28.4767  -19.0031   19.0768 C   0  0  0  0  0  0
  -28.7388  -21.5548   20.3227 C   0  0  0  0  0  0
  -28.8335  -19.0564   20.4613 C   0  0  0  0  0  0
  -28.9498  -20.3523   21.0630 C   0  0  0  0  0  0
  -28.1329  -17.7376   18.3032 C   0  0  0  0  0  0
  -29.5795  -15.2027   22.9411 C   0  0  0  0  0  0
  -31.5168  -16.4408   22.0244 C   0  0  0  0  0  0
  -28.7778  -22.9424   20.9979 C   0  0  0  0  0  0
  -28.5655  -24.1903   20.0824 C   0  0  0  0  0  0
  -29.3616  -16.5672   20.7499 C   0  0  0  0  0  0
  -28.4930  -25.5264   20.8662 C   0  0  0  0  0  0
  -30.2567  -15.6288   21.6144 C   0  0  0  0  0  0
  -29.0552  -17.9099   21.2801 N   0  0  0  0  0  0
  -29.3442  -20.4668   22.7481 Cl  0  0  0  0  0  0
  -31.4557  -12.3779   19.1326 H   0  0  0  0  0  0
  -30.2648  -11.2938   19.7630 H   0  0  0  0  0  0
  -29.7547  -11.8405   17.3842 H   0  0  0  0  0  0
  -29.6838  -13.5412   17.7690 H   0  0  0  0  0  0
  -27.8124  -11.3258   18.7061 H   0  0  0  0  0  0
  -27.3807  -12.7006   17.7243 H   0  0  0  0  0  0
  -27.7026  -14.2449   19.5489 H   0  0  0  0  0  0
  -28.6488  -11.8663   21.2062 H   0  0  0  0  0  0
  -28.3519  -13.4089   21.8549 H   0  0  0  0  0  0
  -25.2758   -9.5711   22.4727 H   0  0  0  0  0  0
  -24.0008   -7.4644   22.7484 H   0  0  0  0  0  0
  -21.0823   -8.8756   19.8937 H   0  0  0  0  0  0
  -22.3692  -10.9650   19.6110 H   0  0  0  0  0  0
  -21.2000   -7.6098   23.9685 H   0  0  0  0  0  0
  -21.1468   -6.0492   25.9065 H   0  0  0  0  0  0
  -22.0605   -2.7564   23.2913 H   0  0  0  0  0  0
  -22.4197  -11.9945   22.4639 H   0  0  0  0  0  0
  -21.1205  -13.1355   22.2533 H   0  0  0  0  0  0
  -24.7167  -15.8592   20.5531 H   0  0  0  0  0  0
  -26.3380  -15.6080   20.1650 H   0  0  0  0  0  0
  -26.7118  -32.5538   23.1165 H   0  0  0  0  0  0
  -25.0158  -33.9798   25.0557 H   0  0  0  0  0  0
  -22.6884  -31.2983   21.4139 H   0  0  0  0  0  0
  -23.3755  -35.9628   23.3314 H   0  0  0  0  0  0
  -24.3590  -36.8906   22.2051 H   0  0  0  0  0  0
  -23.7220  -37.6499   23.6645 H   0  0  0  0  0  0
  -26.0394  -31.5949   20.5907 H   0  0  0  0  0  0
  -26.8199  -30.8884   21.9788 H   0  0  0  0  0  0
  -28.1178  -29.1181   21.1244 H   0  0  0  0  0  0
  -26.0665  -25.9424   19.0474 H   0  0  0  0  0  0
  -23.9869  -27.2743   19.0521 H   0  0  0  0  0  0
  -23.6998  -30.5795   19.4075 H   0  0  0  0  0  0
  -22.7324  -29.2194   19.8918 H   0  0  0  0  0  0
  -25.1276  -36.2005   25.0833 H   0  0  0  0  0  0
  -20.9891  -28.3154   24.1492 H   0  0  0  0  0  0
  -20.5684  -26.2201   23.3577 H   0  0  0  0  0  0
  -21.6612  -26.7427   22.1213 H   0  0  0  0  0  0
  -19.6920  -25.6260   21.1225 H   0  0  0  0  0  0
  -19.6717  -27.3162   20.6756 H   0  0  0  0  0  0
  -17.4195  -26.6643   21.3988 H   0  0  0  0  0  0
  -18.0290  -25.9997   22.8990 H   0  0  0  0  0  0
  -19.7922  -30.7188   24.2274 H   0  0  0  0  0  0
  -17.5023  -31.6250   24.5110 H   0  0  0  0  0  0
  -15.5339  -30.2963   23.7657 H   0  0  0  0  0  0
  -15.8634  -28.0766   22.7137 H   0  0  0  0  0  0
  -24.5914  -30.7075   25.7829 H   0  0  0  0  0  0
  -24.8971  -32.2856   26.4968 H   0  0  0  0  0  0
  -25.8123  -30.8855   27.0225 H   0  0  0  0  0  0
  -26.2845  -29.6816   24.1156 H   0  0  0  0  0  0
  -27.4138  -29.7289   25.4491 H   0  0  0  0  0  0
  -27.8648  -30.4383   23.9166 H   0  0  0  0  0  0
  -27.2684  -33.3612   26.2076 H   0  0  0  0  0  0
  -28.3860  -32.6908   25.0320 H   0  0  0  0  0  0
  -28.0731  -31.8453   26.5393 H   0  0  0  0  0  0
  -28.2600  -38.0094   24.7512 H   0  0  0  0  0  0
  -28.1063  -36.2631   24.6299 H   0  0  0  0  0  0
  -27.2290  -37.1447   25.8858 H   0  0  0  0  0  0
  -20.9293  -29.8696   21.6989 H   0  0  0  0  0  0
  -26.0195  -38.2875   24.1423 H   0  0  0  0  0  0
  -28.1043  -20.1642   17.2899 H   0  0  0  0  0  0
  -28.3271  -22.3281   18.3282 H   0  0  0  0  0  0
  -27.6924  -17.9901   17.3412 H   0  0  0  0  0  0
  -27.3882  -17.1449   18.8318 H   0  0  0  0  0  0
  -29.0059  -17.1310   18.0662 H   0  0  0  0  0  0
  -29.8105  -15.8740   23.7676 H   0  0  0  0  0  0
  -29.9046  -14.2093   23.2520 H   0  0  0  0  0  0
  -28.4930  -15.2111   22.8652 H   0  0  0  0  0  0
  -31.2865  -17.2170   22.7560 H   0  0  0  0  0  0
  -31.9453  -16.9515   21.1620 H   0  0  0  0  0  0
  -32.2866  -15.8015   22.4639 H   0  0  0  0  0  0
  -29.7345  -23.0366   21.5142 H   0  0  0  0  0  0
  -28.0126  -22.9458   21.7757 H   0  0  0  0  0  0
  -27.6416  -24.0799   19.5140 H   0  0  0  0  0  0
  -29.3715  -24.2333   19.3500 H   0  0  0  0  0  0
  -28.4241  -16.0651   20.5148 H   0  0  0  0  0  0
  -29.9165  -16.7011   19.8255 H   0  0  0  0  0  0
  -29.4024  -25.6182   21.4619 H   0  0  0  0  0  0
  -27.6704  -25.4971   21.5838 H   0  0  0  0  0  0
  -29.2676  -18.0857   22.2597 H   0  0  0  0  0  0
  1 25  1  0  0  0
  1 30  2  0  0  0
  1 84  1  0  0  0
  2  3  1  0  0  0
  2 25  1  0  0  0
  2 87  1  0  0  0
  2 88  1  0  0  0
  3  4  1  0  0  0
  3 89  1  0  0  0
  3 90  1  0  0  0
  4  5  1  0  0  0
  4 91  1  0  0  0
  4 92  1  0  0  0
  5  6  1  0  0  0
  5 26  1  0  0  0
  5 93  1  0  0  0
  6 25  1  0  0  0
  6 94  1  0  0  0
  6 95  1  0  0  0
  7  8  2  0  0  0
  7 26  1  0  0  0
  7 29  1  0  0  0
  8  9  1  0  0  0
  8 22  1  0  0  0
  9 10  1  0  0  0
  9 27  2  0  0  0
 10 11  2  0  0  0
 10 15  1  0  0  0
 11 12  1  0  0  0
 11 96  1  0  0  0
 12 13  2  0  0  0
 12 97  1  0  0  0
 13 14  1  0  0  0
 13 31  1  0  0  0
 14 15  2  0  0  0
 14 98  1  0  0  0
 15 99  1  0  0  0
 16 17  2  0  0  0
 16 21  1  0  0  0
 16 31  1  0  0  0
 17 18  1  0  0  0
 17100  1  0  0  0
 18 19  2  0  0  0
 18101  1  0  0  0
 19 20  1  0  0  0
 19 24  1  0  0  0
 20 21  2  0  0  0
 20102  1  0  0  0
 21 23  1  0  0  0
 22 28  1  0  0  0
 22 32  2  0  0  0
 26 27  1  0  0  0
 28103  1  0  0  0
 28104  1  0  0  0
 29105  1  0  0  0
 29106  1  0  0  0
 33 34  1  0  0  0
 33 66  1  0  0  0
 33 70  2  0  0  0
 34 36  1  0  0  0
 34 59  1  0  0  0
 34107  1  0  0  0
 35 44  2  0  0  0
 35 45  1  0  0  0
 35 68  1  0  0  0
 36 56  1  0  0  0
 36108  1  0  0  0
 37 39  1  0  0  0
 37 47  1  0  0  0
 37 66  1  0  0  0
 37109  1  0  0  0
 38 43  2  0  0  0
 38 46  1  0  0  0
 38 47  1  0  0  0
 39 64  1  0  0  0
 39 67  2  0  0  0
 40 52  1  0  0  0
 40 53  2  0  0  0
 40 58  1  0  0  0
 41110  1  0  0  0
 41111  1  0  0  0
 41112  1  0  0  0
 41 48  1  0  0  0
 42 43  1  0  0  0
 42 66  1  0  0  0
 42113  1  0  0  0
 42114  1  0  0  0
 43 44  1  0  0  0
 44115  1  0  0  0
 45 46  2  0  0  0
 45116  1  0  0  0
 46117  1  0  0  0
 47118  1  0  0  0
 47119  1  0  0  0
 48 56  1  0  0  0
 48 65  1  0  0  0
 48120  1  0  0  0
 49 50  1  0  0  0
 49 53  1  0  0  0
 49 64  1  0  0  0
 49121  1  0  0  0
 50 51  1  0  0  0
 50122  1  0  0  0
 50123  1  0  0  0
 51 52  1  0  0  0
 51124  1  0  0  0
 51125  1  0  0  0
 52126  1  0  0  0
 52127  1  0  0  0
 53 54  1  0  0  0
 54 55  2  0  0  0
 54128  1  0  0  0
 55 57  1  0  0  0
 55129  1  0  0  0
 56 69  2  0  0  0
 57 58  2  0  0  0
 57130  1  0  0  0
 58131  1  0  0  0
 59 60  1  0  0  0
 59 61  1  0  0  0
 59 62  1  0  0  0
 60132  1  0  0  0
 60133  1  0  0  0
 60134  1  0  0  0
 61135  1  0  0  0
 61136  1  0  0  0
 61137  1  0  0  0
 62138  1  0  0  0
 62139  1  0  0  0
 62140  1  0  0  0
 63 65  1  0  0  0
 63141  1  0  0  0
 63142  1  0  0  0
 63143  1  0  0  0
 64144  1  0  0  0
 65145  1  0  0  0
 68 83  1  0  0  0
 71 72  2  0  0  0
 71 73  1  0  0  0
 71146  1  0  0  0
 72 74  1  0  0  0
 72147  1  0  0  0
 73 75  2  0  0  0
 73 77  1  0  0  0
 74 76  2  0  0  0
 74 80  1  0  0  0
 75 76  1  0  0  0
 75 85  1  0  0  0
 76 86  1  0  0  0
 77148  1  0  0  0
 77149  1  0  0  0
 77150  1  0  0  0
 78151  1  0  0  0
 78152  1  0  0  0
 78153  1  0  0  0
 78 84  1  0  0  0
 79 84  1  0  0  0
 79154  1  0  0  0
 79155  1  0  0  0
 79156  1  0  0  0
 80 81  1  0  0  0
 80157  1  0  0  0
 80158  1  0  0  0
 81 83  1  0  0  0
 81159  1  0  0  0
 81160  1  0  0  0
 82 84  1  0  0  0
 82 85  1  0  0  0
 82161  1  0  0  0
 82162  1  0  0  0
 83163  1  0  0  0
 83164  1  0  0  0
 85165  1  0  0  0
M  ISO  4   1 100  68 101  83 101  84 100
M  END
> <chiral flag>
0

> <version>
0

> <s_m_source_file>
/data/baiqing/PycharmProjects/Reinvent-master-3.2/result/LINK_invent/BTK/process_docking_weight1_custom_sum_contain_oxygen_bond_distance_aromatic_linkinvent_7_9_3/rearranged_h_0020.sdf

> <i_m_source_file_index>
67

> <r_mmod_Potential_Energy-OPLS-2005>
120.247566223145

> <r_mmod_Stretch_Energy-OPLS-2005>
54.3597755432129

> <r_mmod_Bend_Energy-OPLS-2005>
141.084136962891

> <r_mmod_Torsional_Energy-OPLS-2005>
221.813888549805

> <r_mmod_Improper_Torsional_Energy-OPLS-2005>
2.9531557559967

> <r_mmod_Van_der_Waal_Energy-OPLS-2005>
170.552536010742

> <r_mmod_Electrostatic_Energy-OPLS-2005>
-304.472198486328

> <r_mmod_Solvation_Energy-OPLS-2005>
-177.756256103516

> <b_mmod_Minimization_Converged-OPLS-2005>
0

> <r_mmod_RMS_Derivative-OPLS-2005>
5.49917316436768

$$$$
67
                    3D
 Structure written by MMmdl.
180188  0  0  1  0            999 V2000
  -29.6238  -15.3514   20.8359 C   0  0  0  0  0  0
  -30.3474  -13.0251   19.6683 C   0  0  0  0  0  0
  -29.5258  -12.6791   18.3779 C   0  0  0  0  0  0
  -28.0690  -12.2942   18.7025 C   0  0  0  0  0  0
  -27.5359  -13.1924   19.8381 C   0  0  2  0  0  0
  -28.4529  -13.1310   21.0496 C   0  0  0  0  0  0
  -25.1983  -13.8063   20.5529 C   0  0  0  0  0  0
  -24.1366  -13.0337   20.9187 C   0  0  0  0  0  0
  -24.5959  -11.6807   20.8748 C   0  0  0  0  0  0
  -23.8790  -10.4219   21.0492 C   0  0  0  0  0  0
  -24.3470   -9.4179   21.9233 C   0  0  0  0  0  0
  -23.6212   -8.2190   22.0783 C   0  0  0  0  0  0
  -22.4191   -8.0224   21.3575 C   0  0  0  0  0  0
  -21.9764   -9.0168   20.4677 C   0  0  0  0  0  0
  -22.7032  -10.2057   20.3093 C   0  0  0  0  0  0
  -21.6827   -6.0703   22.5299 C   0  0  0  0  0  0
  -21.3999   -6.5629   23.8224 C   0  0  0  0  0  0
  -21.3636   -5.6795   24.9193 C   0  0  0  0  0  0
  -21.6034   -4.3057   24.7254 C   0  0  0  0  0  0
  -21.8829   -3.8136   23.4383 C   0  0  0  0  0  0
  -21.9181   -4.6940   22.3428 C   0  0  0  0  0  0
  -22.7482  -13.5217   21.1950 C   0  0  0  0  0  0
  -22.1655   -4.2134   21.1003 F   0  0  0  0  0  0
  -21.5612   -3.4534   25.7763 F   0  0  0  0  0  0
  -29.5582  -13.9335   20.6256 N   0  0  0  0  0  0
  -26.2080  -12.9068   20.2748 N   0  0  0  0  0  0
  -25.8740  -11.6294   20.5465 N   0  0  0  0  0  0
  -22.0141  -12.8269   22.0550 N   0  0  0  0  0  0
  -25.3803  -15.1824   20.4201 N   0  0  0  0  0  0
  -30.7629  -15.7017   20.4076 O   0  0  0  0  0  0
  -21.6600   -6.8809   21.4250 O   0  0  0  0  0  0
  -22.3224  -14.5546   20.6800 O   0  0  0  0  0  0
  -24.6652  -31.8815   23.1241 C   0  0  0  0  0  0
  -25.9316  -32.4972   23.8209 C   0  0  1  0  0  0
  -26.9100  -27.5647   20.7020 C   0  0  0  0  0  0
  -25.5781  -33.8718   24.1906 N   0  0  0  0  0  0
  -23.4887  -30.6071   21.2789 C   0  0  2  0  0  0
  -24.9965  -29.2232   19.7586 C   0  0  0  0  0  0
  -23.0824  -29.2828   21.8498 C   0  0  0  0  0  0
  -17.8221  -27.1458   22.8804 C   0  0  0  0  0  0
  -24.1489  -36.7392   23.2629 C   0  0  0  0  0  0
  -25.9820  -31.0303   21.2056 C   0  0  0  0  0  0
  -26.1077  -29.7181   20.4631 C   0  0  0  0  0  0
  -27.2216  -28.9132   20.6863 C   0  0  0  0  0  0
  -26.0203  -27.0273   19.7457 C   0  0  0  0  0  0
  -24.9853  -27.8805   19.3060 C   0  0  0  0  0  0
  -23.7661  -30.1198   19.8204 C   0  0  0  0  0  0
  -25.4122  -36.3159   24.0272 C   0  0  1  0  0  0
  -21.5561  -27.6906   22.8392 C   0  0  2  0  0  0
  -21.3605  -26.9715   21.0262 C   0  0  0  0  0  0
  -19.5896  -26.5395   20.1746 C   0  0  0  0  0  0
  -17.8846  -26.5340   21.1751 C   0  0  0  0  0  0
  -20.0878  -27.7902   24.0575 C   0  0  0  0  0  0
  -19.7030  -29.2241   25.1901 C   0  0  0  0  0  0
  -18.1397  -30.0465   25.1203 C   0  0  0  0  0  0
  -25.9079  -34.9611   23.4887 C   0  0  0  0  0  0
  -16.7701  -29.5869   24.2290 C   0  0  0  0  0  0
  -16.5929  -28.2731   23.2069 C   0  0  0  0  0  0
  -26.4899  -31.7599   25.1091 C   0  0  0  0  0  0
  -25.4269  -31.5154   26.2147 C   0  0  0  0  0  0
  -27.1992  -30.4362   24.7902 C   0  0  0  0  0  0
  -27.6252  -32.6142   25.7273 C   0  0  0  0  0  0
  -27.5586  -37.1818   24.8461 C   0  0  0  0  0  0
  -21.9046  -28.9133   22.1109 N   0  0  0  0  0  0
  -26.4277  -37.3860   23.9457 N   0  0  0  0  0  0
  -24.7221  -31.1531   21.9640 N   0  0  0  0  0  0
  -23.8138  -28.3763   21.9591 O   0  0  0  0  0  0
  -26.6726  -27.1520   22.0092 O   0  0  0  0  0  0
  -26.5752  -34.9121   22.4522 O   0  0  0  0  0  0
  -23.5759  -32.1430   23.6466 O   0  0  0  0  0  0
  -18.0912  -27.6409   24.9705 C   0  0  0  0  0  0
  -18.8077  -29.1644   23.0236 C   0  0  0  0  0  0
  -19.4782  -28.2049   21.8840 C   0  0  0  0  0  0
  -19.7372  -25.3128   23.8811 C   0  0  0  0  0  0
  -18.7123  -26.0411   24.9721 C   0  0  0  0  0  0
  -19.8158  -26.0829   22.5198 C   0  0  0  0  0  0
  -19.4256  -29.0954   20.5662 C   0  0  0  0  0  0
  -28.1362  -15.8614   22.7994 C   0  0  0  0  0  0
  -20.8443  -23.7590   24.0390 C   0  0  0  0  0  0
  -20.1464  -30.4486   23.1554 C   0  0  0  0  0  0
  -22.3726  -22.8505   23.1622 C   0  0  0  0  0  0
  -23.3894  -21.1674   23.1055 C   0  0  0  0  0  0
  -24.9733  -20.3239   22.3044 C   0  0  0  0  0  0
  -25.9270  -18.6137   22.1394 C   0  0  0  0  0  0
  -24.4238  -28.3077   24.2758 C   0  0  0  0  0  0
  -27.5501  -17.7988   21.3873 C   0  0  0  0  0  0
  -22.9142  -29.3949   24.6675 C   0  0  0  0  0  0
  -25.9468  -28.0933   23.2008 C   0  0  0  0  0  0
  -28.4259  -16.2352   21.4094 N   0  0  0  0  0  0
  -21.6669  -30.4491   24.0481 N   0  3  0  0  0  0
  -18.3969  -25.1296   26.4046 Cl  0  0  0  0  0  0
  -20.0882  -24.4999   21.6675 Cl  0  0  0  0  0  0
  -31.2715  -13.5163   19.3599 H   0  0  0  0  0  0
  -30.6690  -12.1183   20.1818 H   0  0  0  0  0  0
  -30.0087  -11.8856   17.8067 H   0  0  0  0  0  0
  -29.5117  -13.5595   17.7325 H   0  0  0  0  0  0
  -28.0400  -11.2500   19.0190 H   0  0  0  0  0  0
  -27.4449  -12.3583   17.8111 H   0  0  0  0  0  0
  -27.4987  -14.2009   19.4231 H   0  0  0  0  0  0
  -28.7339  -12.1059   21.2996 H   0  0  0  0  0  0
  -27.9569  -13.5110   21.9356 H   0  0  0  0  0  0
  -25.2605   -9.5732   22.4797 H   0  0  0  0  0  0
  -23.9957   -7.4590   22.7494 H   0  0  0  0  0  0
  -21.0685   -8.8677   19.8989 H   0  0  0  0  0  0
  -22.3491  -10.9619   19.6226 H   0  0  0  0  0  0
  -21.2000   -7.6135   23.9736 H   0  0  0  0  0  0
  -21.1429   -6.0513   25.9095 H   0  0  0  0  0  0
  -22.0617   -2.7595   23.2895 H   0  0  0  0  0  0
  -22.3686  -11.9921   22.4987 H   0  0  0  0  0  0
  -21.0813  -13.1426   22.2802 H   0  0  0  0  0  0
  -24.6273  -15.8366   20.6031 H   0  0  0  0  0  0
  -26.2572  -15.6402   20.2104 H   0  0  0  0  0  0
  -26.7636  -32.5878   23.1326 H   0  0  0  0  0  0
  -25.0010  -33.9885   25.0099 H   0  0  0  0  0  0
  -22.6696  -31.3254   21.2907 H   0  0  0  0  0  0
  -23.3760  -35.9717   23.3266 H   0  0  0  0  0  0
  -24.3571  -36.9045   22.2050 H   0  0  0  0  0  0
  -23.7225  -37.6585   23.6659 H   0  0  0  0  0  0
  -26.0431  -31.8538   20.4931 H   0  0  0  0  0  0
  -26.8724  -31.1026   21.8172 H   0  0  0  0  0  0
  -27.9668  -29.2766   21.3790 H   0  0  0  0  0  0
  -25.8550  -25.9614   19.6753 H   0  0  0  0  0  0
  -24.1246  -27.4709   18.8025 H   0  0  0  0  0  0
  -23.9544  -30.9844   19.1829 H   0  0  0  0  0  0
  -22.9079  -29.6206   19.3630 H   0  0  0  0  0  0
  -25.1322  -36.1933   25.0759 H   0  0  0  0  0  0
  -22.3326  -27.1061   23.3101 H   0  0  0  0  0  0
  -21.9801  -26.0718   21.0193 H   0  0  0  0  0  0
  -21.9182  -27.5146   20.2611 H   0  0  0  0  0  0
  -19.6641  -25.6249   19.5831 H   0  0  0  0  0  0
  -19.4831  -27.1241   19.2612 H   0  0  0  0  0  0
  -17.4605  -25.5296   21.1713 H   0  0  0  0  0  0
  -17.1576  -27.1159   20.6061 H   0  0  0  0  0  0
  -20.4219  -29.5955   25.9051 H   0  0  0  0  0  0
  -18.0279  -30.9093   25.7616 H   0  0  0  0  0  0
  -15.9052  -30.2314   24.3239 H   0  0  0  0  0  0
  -15.6805  -28.2035   22.6332 H   0  0  0  0  0  0
  -25.1777  -30.4688   26.3727 H   0  0  0  0  0  0
  -24.5008  -32.0584   26.0325 H   0  0  0  0  0  0
  -25.7801  -31.8746   27.1833 H   0  0  0  0  0  0
  -26.5382  -29.6168   24.9780 H   0  0  0  0  0  0
  -28.0114  -30.2323   25.4888 H   0  0  0  0  0  0
  -27.6454  -30.3964   23.7988 H   0  0  0  0  0  0
  -27.2819  -33.5905   26.0716 H   0  0  0  0  0  0
  -28.4210  -32.8023   25.0051 H   0  0  0  0  0  0
  -28.0822  -32.1405   26.5964 H   0  0  0  0  0  0
  -28.2543  -38.0168   24.7527 H   0  0  0  0  0  0
  -28.1119  -36.2677   24.6221 H   0  0  0  0  0  0
  -27.2308  -37.1413   25.8862 H   0  0  0  0  0  0
  -21.1276  -29.4484   21.7571 H   0  0  0  0  0  0
  -26.0191  -38.2941   24.1513 H   0  0  0  0  0  0
  -17.5845  -27.9087   25.8931 H   0  0  0  0  0  0
  -19.2085  -30.1435   20.7349 H   0  0  0  0  0  0
  -18.5579  -28.8413   19.9563 H   0  0  0  0  0  0
  -20.3170  -29.0720   19.9408 H   0  0  0  0  0  0
  -28.2150  -16.7212   23.4652 H   0  0  0  0  0  0
  -28.8241  -15.1207   23.2099 H   0  0  0  0  0  0
  -27.1223  -15.4722   22.8885 H   0  0  0  0  0  0
  -20.0843  -22.9786   24.0570 H   0  0  0  0  0  0
  -21.1561  -23.8222   25.0796 H   0  0  0  0  0  0
  -19.6410  -31.3383   23.5298 H   0  0  0  0  0  0
  -20.4138  -30.8509   22.1838 H   0  0  0  0  0  0
  -23.1684  -23.5836   23.3049 H   0  0  0  0  0  0
  -22.1434  -22.9460   22.1034 H   0  0  0  0  0  0
  -22.6071  -20.4505   22.8521 H   0  0  0  0  0  0
  -23.5574  -20.9792   24.1665 H   0  0  0  0  0  0
  -25.7670  -20.9677   22.6868 H   0  0  0  0  0  0
  -24.8920  -20.6373   21.2611 H   0  0  0  0  0  0
  -25.1526  -17.9898   21.6856 H   0  0  0  0  0  0
  -25.9455  -18.2606   23.1714 H   0  0  0  0  0  0
  -24.0675  -27.2820   24.3071 H   0  0  0  0  0  0
  -24.8837  -28.3204   25.2630 H   0  0  0  0  0  0
  -28.3332  -18.4698   21.7402 H   0  0  0  0  0  0
  -27.4958  -18.0105   20.3177 H   0  0  0  0  0  0
  -23.3390  -30.0973   25.3742 H   0  0  0  0  0  0
  -22.3620  -28.7291   25.3281 H   0  0  0  0  0  0
  -26.1748  -29.1057   22.9297 H   0  0  0  0  0  0
  -26.6805  -27.8262   23.9602 H   0  0  0  0  0  0
  -21.2879  -30.7590   24.9291 H   0  0  0  0  0  0
  -22.1847  -31.2733   23.7387 H   0  0  0  0  0  0
  1 25  1  0  0  0
  1 30  2  0  0  0
  1 89  1  0  0  0
  2  3  1  0  0  0
  2 25  1  0  0  0
  2 93  1  0  0  0
  2 94  1  0  0  0
  3  4  1  0  0  0
  3 95  1  0  0  0
  3 96  1  0  0  0
  4  5  1  0  0  0
  4 97  1  0  0  0
  4 98  1  0  0  0
  5  6  1  0  0  0
  5 26  1  0  0  0
  5 99  1  0  0  0
  6 25  1  0  0  0
  6100  1  0  0  0
  6101  1  0  0  0
  7  8  2  0  0  0
  7 26  1  0  0  0
  7 29  1  0  0  0
  8  9  1  0  0  0
  8 22  1  0  0  0
  9 10  1  0  0  0
  9 27  2  0  0  0
 10 11  2  0  0  0
 10 15  1  0  0  0
 11 12  1  0  0  0
 11102  1  0  0  0
 12 13  2  0  0  0
 12103  1  0  0  0
 13 14  1  0  0  0
 13 31  1  0  0  0
 14 15  2  0  0  0
 14104  1  0  0  0
 15105  1  0  0  0
 16 17  2  0  0  0
 16 21  1  0  0  0
 16 31  1  0  0  0
 17 18  1  0  0  0
 17106  1  0  0  0
 18 19  2  0  0  0
 18107  1  0  0  0
 19 20  1  0  0  0
 19 24  1  0  0  0
 20 21  2  0  0  0
 20108  1  0  0  0
 21 23  1  0  0  0
 22 28  1  0  0  0
 22 32  2  0  0  0
 26 27  1  0  0  0
 28109  1  0  0  0
 28110  1  0  0  0
 29111  1  0  0  0
 29112  1  0  0  0
 33 34  1  0  0  0
 33 66  1  0  0  0
 33 70  2  0  0  0
 34 36  1  0  0  0
 34 59  1  0  0  0
 34113  1  0  0  0
 35 44  2  0  0  0
 35 45  1  0  0  0
 35 68  1  0  0  0
 36 56  1  0  0  0
 36114  1  0  0  0
 37 39  1  0  0  0
 37 47  1  0  0  0
 37 66  1  0  0  0
 37115  1  0  0  0
 38 43  2  0  0  0
 38 46  1  0  0  0
 38 47  1  0  0  0
 39 64  1  0  0  0
 39 67  2  0  0  0
 40 52  1  0  0  0
 40 53  2  0  0  0
 40 58  1  0  0  0
 41116  1  0  0  0
 41117  1  0  0  0
 41118  1  0  0  0
 41 48  1  0  0  0
 42 43  1  0  0  0
 42 66  1  0  0  0
 42119  1  0  0  0
 42120  1  0  0  0
 43 44  1  0  0  0
 44121  1  0  0  0
 45 46  2  0  0  0
 45122  1  0  0  0
 46123  1  0  0  0
 47124  1  0  0  0
 47125  1  0  0  0
 48 56  1  0  0  0
 48 65  1  0  0  0
 48126  1  0  0  0
 49 50  1  0  0  0
 49 53  1  0  0  0
 49 64  1  0  0  0
 49127  1  0  0  0
 50 51  1  0  0  0
 50128  1  0  0  0
 50129  1  0  0  0
 51 52  1  0  0  0
 51130  1  0  0  0
 51131  1  0  0  0
 52132  1  0  0  0
 52133  1  0  0  0
 53 54  1  0  0  0
 54 55  2  0  0  0
 54134  1  0  0  0
 55 57  1  0  0  0
 55135  1  0  0  0
 56 69  2  0  0  0
 57 58  2  0  0  0
 57136  1  0  0  0
 58137  1  0  0  0
 59 60  1  0  0  0
 59 61  1  0  0  0
 59 62  1  0  0  0
 60138  1  0  0  0
 60139  1  0  0  0
 60140  1  0  0  0
 61141  1  0  0  0
 61142  1  0  0  0
 61143  1  0  0  0
 62144  1  0  0  0
 62145  1  0  0  0
 62146  1  0  0  0
 63 65  1  0  0  0
 63147  1  0  0  0
 63148  1  0  0  0
 63149  1  0  0  0
 64150  1  0  0  0
 65151  1  0  0  0
 68 88  1  0  0  0
 71 72  2  0  0  0
 71 75  1  0  0  0
 71152  1  0  0  0
 72 73  1  0  0  0
 72 80  1  0  0  0
 73 76  2  0  0  0
 73 77  1  0  0  0
 74 75  2  0  0  0
 74 76  1  0  0  0
 74 79  1  0  0  0
 75 91  1  0  0  0
 76 92  1  0  0  0
 77153  1  0  0  0
 77154  1  0  0  0
 77155  1  0  0  0
 78 89  1  0  0  0
 78156  1  0  0  0
 78157  1  0  0  0
 78158  1  0  0  0
 79 81  1  0  0  0
 79159  1  0  0  0
 79160  1  0  0  0
 80 90  1  0  0  0
 80161  1  0  0  0
 80162  1  0  0  0
 81 82  1  0  0  0
 81163  1  0  0  0
 81164  1  0  0  0
 82 83  1  0  0  0
 82165  1  0  0  0
 82166  1  0  0  0
 83 84  1  0  0  0
 83167  1  0  0  0
 83168  1  0  0  0
 84 86  1  0  0  0
 84169  1  0  0  0
 84170  1  0  0  0
 85 87  1  0  0  0
 85 88  1  0  0  0
 85171  1  0  0  0
 85172  1  0  0  0
 86 89  1  0  0  0
 86173  1  0  0  0
 86174  1  0  0  0
 87 90  1  0  0  0
 87175  1  0  0  0
 87176  1  0  0  0
 88177  1  0  0  0
 88178  1  0  0  0
 90179  1  0  0  0
 90180  1  0  0  0
M  CHG  1  90   1
M  ISO  4   1 100  68 101  88 101  89 100
M  END
> <chiral flag>
0

> <version>
0

> <s_m_source_file>
/data/baiqing/PycharmProjects/Reinvent-master-3.2/result/LINK_invent/BTK/process_docking_weight1_custom_sum_contain_oxygen_bond_distance_aromatic_linkinvent_7_9_3/rearranged_h_0020.sdf

> <i_m_source_file_index>
68

> <r_mmod_Potential_Energy-OPLS-2005>
23372.259765625

> <r_mmod_Stretch_Energy-OPLS-2005>
12307.681640625

> <r_mmod_Bend_Energy-OPLS-2005>
1820.88415527344

> <r_mmod_Torsional_Energy-OPLS-2005>
761.00341796875

> <r_mmod_Improper_Torsional_Energy-OPLS-2005>
92.9206466674805

> <r_mmod_Van_der_Waal_Energy-OPLS-2005>
5567.9248046875

> <r_mmod_Electrostatic_Energy-OPLS-2005>
-245.350646972656

> <r_mmod_Solvation_Energy-OPLS-2005>
-413.226318359375

> <b_mmod_Minimization_Converged-OPLS-2005>
0

> <r_mmod_RMS_Derivative-OPLS-2005>
9.22716617584229

$$$$
68
                    3D
 Structure written by MMmdl.
156164  0  0  1  0            999 V2000
  -29.3483  -17.5644   20.5054 C   0  0  0  0  0  0
  -30.0641  -14.5919   19.6230 C   0  0  0  0  0  0
  -29.5515  -13.4306   18.5812 C   0  0  0  0  0  0
  -28.3492  -12.6237   19.0635 C   0  0  0  0  0  0
  -27.5458  -13.6181   19.8979 C   0  0  2  0  0  0
  -28.3324  -14.6088   20.9158 C   0  0  0  0  0  0
  -25.1756  -13.8816   20.6075 C   0  0  0  0  0  0
  -24.1503  -13.0520   20.9370 C   0  0  0  0  0  0
  -24.6676  -11.7196   20.8712 C   0  0  0  0  0  0
  -23.9450  -10.4376   21.0260 C   0  0  0  0  0  0
  -24.3865   -9.4275   21.9105 C   0  0  0  0  0  0
  -23.6444   -8.2347   22.0737 C   0  0  0  0  0  0
  -22.4415   -8.0375   21.3541 C   0  0  0  0  0  0
  -22.0126   -9.0362   20.4619 C   0  0  0  0  0  0
  -22.7554  -10.2193   20.2971 C   0  0  0  0  0  0
  -21.6912   -6.0798   22.5276 C   0  0  0  0  0  0
  -21.4058   -6.5676   23.8216 C   0  0  0  0  0  0
  -21.3674   -5.6813   24.9167 C   0  0  0  0  0  0
  -21.6043   -4.3074   24.7208 C   0  0  0  0  0  0
  -21.8812   -3.8180   23.4322 C   0  0  0  0  0  0
  -21.9209   -4.7012   22.3388 C   0  0  0  0  0  0
  -22.7435  -13.4960   21.1944 C   0  0  0  0  0  0
  -22.1667   -4.2191   21.0966 F   0  0  0  0  0  0
  -21.5620   -3.4550   25.7716 F   0  0  0  0  0  0
  -29.1116  -15.8474   20.2618 N   0  0  0  0  0  0
  -26.2721  -13.0856   20.3890 N   0  0  0  0  0  0
  -25.9780  -11.7559   20.5733 N   0  0  0  0  0  0
  -22.0233  -12.7863   22.0526 N   0  0  0  0  0  0
  -25.2660  -15.2605   20.4406 N   0  0  0  0  0  0
  -30.6101  -17.2127   20.4553 O   0  0  0  0  0  0
  -21.6727   -6.8985   21.4256 O   0  0  0  0  0  0
  -22.2992  -14.5221   20.6796 O   0  0  0  0  0  0
  -24.8163  -31.3643   23.2620 C   0  0  0  0  0  0
  -25.9734  -32.2763   23.8162 C   0  0  1  0  0  0
  -27.6787  -26.2927   19.4924 C   0  0  0  0  0  0
  -25.5491  -33.6953   24.1068 N   0  0  0  0  0  0
  -23.6294  -29.6271   21.7870 C   0  0  2  0  0  0
  -25.3872  -28.0591   19.6015 C   0  0  0  0  0  0
  -22.6843  -29.1071   22.7577 C   0  0  0  0  0  0
  -17.9715  -28.1332   22.8361 C   0  0  0  0  0  0
  -24.1466  -36.6526   23.2688 C   0  0  0  0  0  0
  -26.6023  -29.4302   22.0928 C   0  0  0  0  0  0
  -26.7956  -28.4383   20.4441 C   0  0  0  0  0  0
  -27.8891  -27.5817   20.2265 C   0  0  0  0  0  0
  -26.5988  -26.3875   18.5615 C   0  0  0  0  0  0
  -25.4349  -27.1699   18.6233 C   0  0  0  0  0  0
  -23.7300  -28.5755   20.2472 C   0  0  0  0  0  0
  -25.4137  -36.2036   24.0173 C   0  0  1  0  0  0
  -20.4925  -28.2863   23.1890 C   0  0  2  0  0  0
  -20.5845  -26.8664   22.5842 C   0  0  0  0  0  0
  -19.5197  -26.6145   21.5222 C   0  0  0  0  0  0
  -18.1301  -26.7899   22.1406 C   0  0  0  0  0  0
  -19.0946  -28.8614   23.2918 C   0  0  0  0  0  0
  -18.9171  -30.1277   23.8889 C   0  0  0  0  0  0
  -17.6261  -30.6607   24.0507 C   0  0  0  0  0  0
  -25.9100  -34.8315   23.4690 C   0  0  0  0  0  0
  -16.5074  -29.9225   23.6251 C   0  0  0  0  0  0
  -16.6806  -28.6635   23.0211 C   0  0  0  0  0  0
  -26.5156  -31.6495   25.1517 C   0  0  0  0  0  0
  -25.4037  -31.4277   26.2078 C   0  0  0  0  0  0
  -27.1838  -30.2873   24.9216 C   0  0  0  0  0  0
  -27.6167  -32.5399   25.7631 C   0  0  0  0  0  0
  -27.5440  -37.1358   24.8466 C   0  0  0  0  0  0
  -21.3895  -29.1635   22.4767 N   0  0  0  0  0  0
  -26.4163  -37.2970   23.9337 N   0  0  0  0  0  0
  -25.0271  -30.0932   22.6275 N   0  0  0  0  0  0
  -23.1733  -28.5775   23.7436 O   0  0  0  0  0  0
  -27.7053  -24.7787   20.0855 O   0  0  0  0  0  0
  -26.6230  -34.8187   22.4645 O   0  0  0  0  0  0
  -23.6835  -31.8398   23.4948 O   0  0  0  0  0  0
  -28.5621  -23.3195   21.6728 C   0  0  0  0  0  0
  -25.6214  -24.3472   20.2315 C   0  0  0  0  0  0
  -26.2764  -25.7904   21.3712 C   0  0  0  0  0  0
  -27.9509  -21.7730   20.8379 C   0  0  0  0  0  0
  -28.0849  -25.1669   22.0971 C   0  0  0  0  0  0
  -26.5407  -22.6964   20.1673 C   0  0  0  0  0  0
  -24.2508  -24.4388   19.5862 C   0  0  0  0  0  0
  -25.3817  -30.2096   20.3235 C   0  0  0  0  0  0
  -25.6950  -25.7453   22.7469 C   0  0  0  0  0  0
  -26.3019  -23.8913   22.3008 C   0  0  0  0  0  0
  -25.2677  -27.3721   21.8085 C   0  0  2  0  0  0
  -28.5671  -19.4642   20.6229 N   0  0  0  0  0  0
  -29.0642  -26.1318   23.1474 Cl  0  0  0  0  0  0
  -25.6516  -21.6089   19.1642 Cl  0  0  0  0  0  0
  -30.8360  -15.1186   19.0610 H   0  0  0  0  0  0
  -30.6541  -14.1249   20.4156 H   0  0  0  0  0  0
  -30.3732  -12.7589   18.3294 H   0  0  0  0  0  0
  -29.2783  -13.9236   17.6471 H   0  0  0  0  0  0
  -28.6797  -11.7957   19.6918 H   0  0  0  0  0  0
  -27.7744  -12.2079   18.2348 H   0  0  0  0  0  0
  -27.2234  -14.3097   19.1170 H   0  0  0  0  0  0
  -28.9239  -14.0427   21.6395 H   0  0  0  0  0  0
  -27.5995  -15.0862   21.5641 H   0  0  0  0  0  0
  -25.2984   -9.5730   22.4727 H   0  0  0  0  0  0
  -24.0106   -7.4761   22.7508 H   0  0  0  0  0  0
  -21.1043   -8.8929   19.8934 H   0  0  0  0  0  0
  -22.4009  -10.9723   19.6073 H   0  0  0  0  0  0
  -21.2070   -7.6185   23.9732 H   0  0  0  0  0  0
  -21.1496   -6.0537   25.9072 H   0  0  0  0  0  0
  -22.0570   -2.7639   23.2811 H   0  0  0  0  0  0
  -22.4021  -11.9612   22.4930 H   0  0  0  0  0  0
  -21.0796  -13.0710   22.2731 H   0  0  0  0  0  0
  -24.4590  -15.8685   20.5278 H   0  0  0  0  0  0
  -26.1004  -15.7433   20.1325 H   0  0  0  0  0  0
  -26.7689  -32.2936   23.0701 H   0  0  0  0  0  0
  -24.8985  -33.7939   24.8722 H   0  0  0  0  0  0
  -23.1229  -30.5439   21.4731 H   0  0  0  0  0  0
  -23.3706  -35.8870   23.3199 H   0  0  0  0  0  0
  -24.3490  -36.8406   22.2134 H   0  0  0  0  0  0
  -23.7279  -37.5635   23.6983 H   0  0  0  0  0  0
  -27.3385  -30.2348   22.0601 H   0  0  0  0  0  0
  -27.0012  -28.7592   22.8513 H   0  0  0  0  0  0
  -28.6816  -27.6368   20.9554 H   0  0  0  0  0  0
  -26.4906  -25.5307   17.9113 H   0  0  0  0  0  0
  -24.5693  -26.9319   18.0210 H   0  0  0  0  0  0
  -23.2145  -29.0939   19.4363 H   0  0  0  0  0  0
  -23.0886  -27.6973   20.3435 H   0  0  0  0  0  0
  -25.1416  -36.0660   25.0662 H   0  0  0  0  0  0
  -20.8112  -28.2093   24.2318 H   0  0  0  0  0  0
  -20.4209  -26.1460   23.3871 H   0  0  0  0  0  0
  -21.5784  -26.6344   22.1999 H   0  0  0  0  0  0
  -19.6221  -25.6104   21.1095 H   0  0  0  0  0  0
  -19.6538  -27.3108   20.6932 H   0  0  0  0  0  0
  -17.3700  -26.6872   21.3648 H   0  0  0  0  0  0
  -17.9395  -25.9996   22.8681 H   0  0  0  0  0  0
  -19.7748  -30.6886   24.2356 H   0  0  0  0  0  0
  -17.4932  -31.6297   24.5121 H   0  0  0  0  0  0
  -15.5126  -30.3255   23.7565 H   0  0  0  0  0  0
  -15.8133  -28.1105   22.6863 H   0  0  0  0  0  0
  -24.6707  -30.6794   25.9037 H   0  0  0  0  0  0
  -24.8603  -32.3485   26.4210 H   0  0  0  0  0  0
  -25.8227  -31.0822   27.1534 H   0  0  0  0  0  0
  -26.4597  -29.4982   24.7318 H   0  0  0  0  0  0
  -27.6918  -29.9561   25.8283 H   0  0  0  0  0  0
  -27.9616  -30.3293   24.1612 H   0  0  0  0  0  0
  -27.2340  -33.5081   26.0862 H   0  0  0  0  0  0
  -28.4158  -32.7298   25.0453 H   0  0  0  0  0  0
  -28.0711  -32.0817   26.6423 H   0  0  0  0  0  0
  -28.2356  -37.9723   24.7363 H   0  0  0  0  0  0
  -28.1024  -36.2196   24.6485 H   0  0  0  0  0  0
  -27.2111  -37.1164   25.8858 H   0  0  0  0  0  0
  -21.0564  -29.6321   21.6456 H   0  0  0  0  0  0
  -25.9840  -38.1974   24.1208 H   0  0  0  0  0  0
  -29.4968  -23.0957   22.1644 H   0  0  0  0  0  0
  -23.7248  -25.3317   19.9205 H   0  0  0  0  0  0
  -23.6453  -23.5749   19.8600 H   0  0  0  0  0  0
  -24.3343  -24.4608   18.4998 H   0  0  0  0  0  0
  -25.8960  -30.2838   19.3483 H   0  0  0  0  0  0
  -25.9094  -31.0944   20.7114 H   0  0  0  0  0  0
  -24.4975  -30.7375   19.9429 H   0  0  0  0  0  0
  -26.2467  -26.0649   23.6468 H   0  0  0  0  0  0
  -24.7484  -25.5197   23.2519 H   0  0  0  0  0  0
  -25.4192  -23.2329   22.2461 H   0  0  0  0  0  0
  -26.7839  -23.4794   23.2000 H   0  0  0  0  0  0
  -24.2256  -27.1288   21.9854 H   0  0  0  0  0  0
  -29.5295  -19.6822   20.8453 H   0  0  0  0  0  0
  1 25  1  0  0  0
  1 30  2  0  0  0
  1 82  1  0  0  0
  2  3  1  0  0  0
  2 25  1  0  0  0
  2 85  1  0  0  0
  2 86  1  0  0  0
  3  4  1  0  0  0
  3 87  1  0  0  0
  3 88  1  0  0  0
  4  5  1  0  0  0
  4 89  1  0  0  0
  4 90  1  0  0  0
  5  6  1  0  0  0
  5 26  1  0  0  0
  5 91  1  0  0  0
  6 25  1  0  0  0
  6 92  1  0  0  0
  6 93  1  0  0  0
  7  8  2  0  0  0
  7 26  1  0  0  0
  7 29  1  0  0  0
  8  9  1  0  0  0
  8 22  1  0  0  0
  9 10  1  0  0  0
  9 27  2  0  0  0
 10 11  2  0  0  0
 10 15  1  0  0  0
 11 12  1  0  0  0
 11 94  1  0  0  0
 12 13  2  0  0  0
 12 95  1  0  0  0
 13 14  1  0  0  0
 13 31  1  0  0  0
 14 15  2  0  0  0
 14 96  1  0  0  0
 15 97  1  0  0  0
 16 17  2  0  0  0
 16 21  1  0  0  0
 16 31  1  0  0  0
 17 18  1  0  0  0
 17 98  1  0  0  0
 18 19  2  0  0  0
 18 99  1  0  0  0
 19 20  1  0  0  0
 19 24  1  0  0  0
 20 21  2  0  0  0
 20100  1  0  0  0
 21 23  1  0  0  0
 22 28  1  0  0  0
 22 32  2  0  0  0
 26 27  1  0  0  0
 28101  1  0  0  0
 28102  1  0  0  0
 29103  1  0  0  0
 29104  1  0  0  0
 33 34  1  0  0  0
 33 66  1  0  0  0
 33 70  2  0  0  0
 34 36  1  0  0  0
 34 59  1  0  0  0
 34105  1  0  0  0
 35 44  2  0  0  0
 35 45  1  0  0  0
 35 68  1  0  0  0
 36 56  1  0  0  0
 36106  1  0  0  0
 37 39  1  0  0  0
 37 47  1  0  0  0
 37 66  1  0  0  0
 37107  1  0  0  0
 38 43  2  0  0  0
 38 46  1  0  0  0
 38 47  1  0  0  0
 39 64  1  0  0  0
 39 67  2  0  0  0
 40 52  1  0  0  0
 40 53  2  0  0  0
 40 58  1  0  0  0
 41108  1  0  0  0
 41109  1  0  0  0
 41110  1  0  0  0
 41 48  1  0  0  0
 42 43  1  0  0  0
 42 66  1  0  0  0
 42111  1  0  0  0
 42112  1  0  0  0
 43 44  1  0  0  0
 44113  1  0  0  0
 45 46  2  0  0  0
 45114  1  0  0  0
 46115  1  0  0  0
 47116  1  0  0  0
 47117  1  0  0  0
 48 56  1  0  0  0
 48 65  1  0  0  0
 48118  1  0  0  0
 49 50  1  0  0  0
 49 53  1  0  0  0
 49 64  1  0  0  0
 49119  1  0  0  0
 50 51  1  0  0  0
 50120  1  0  0  0
 50121  1  0  0  0
 51 52  1  0  0  0
 51122  1  0  0  0
 51123  1  0  0  0
 52124  1  0  0  0
 52125  1  0  0  0
 53 54  1  0  0  0
 54 55  2  0  0  0
 54126  1  0  0  0
 55 57  1  0  0  0
 55127  1  0  0  0
 56 69  2  0  0  0
 57 58  2  0  0  0
 57128  1  0  0  0
 58129  1  0  0  0
 59 60  1  0  0  0
 59 61  1  0  0  0
 59 62  1  0  0  0
 60130  1  0  0  0
 60131  1  0  0  0
 60132  1  0  0  0
 61133  1  0  0  0
 61134  1  0  0  0
 61135  1  0  0  0
 62136  1  0  0  0
 62137  1  0  0  0
 62138  1  0  0  0
 63 65  1  0  0  0
 63139  1  0  0  0
 63140  1  0  0  0
 63141  1  0  0  0
 64142  1  0  0  0
 65143  1  0  0  0
 68 80  1  0  0  0
 71 74  2  0  0  0
 71 75  1  0  0  0
 71144  1  0  0  0
 72 73  1  0  0  0
 72 76  2  0  0  0
 72 77  1  0  0  0
 73 75  2  0  0  0
 73 81  1  0  0  0
 74 76  1  0  0  0
 74 82  1  0  0  0
 75 83  1  0  0  0
 76 84  1  0  0  0
 77145  1  0  0  0
 77146  1  0  0  0
 77147  1  0  0  0
 78148  1  0  0  0
 78149  1  0  0  0
 78150  1  0  0  0
 78 81  1  0  0  0
 79 80  1  0  0  0
 79 81  1  0  0  0
 79151  1  0  0  0
 79152  1  0  0  0
 80153  1  0  0  0
 80154  1  0  0  0
 81155  1  0  0  0
 82156  1  0  0  0
M  ISO  4   1 100  68 101  80 101  82 100
M  END
> <chiral flag>
0

> <version>
0

> <s_m_source_file>
/data/baiqing/PycharmProjects/Reinvent-master-3.2/result/LINK_invent/BTK/process_docking_weight1_custom_sum_contain_oxygen_bond_distance_aromatic_linkinvent_7_9_3/rearranged_h_0020.sdf

> <i_m_source_file_index>
69

> <r_mmod_Potential_Energy-OPLS-2005>
25603.546875

> <r_mmod_Stretch_Energy-OPLS-2005>
13748.970703125

> <r_mmod_Bend_Energy-OPLS-2005>
2096.83056640625

> <r_mmod_Torsional_Energy-OPLS-2005>
463.743103027344

> <r_mmod_Improper_Torsional_Energy-OPLS-2005>
38.3879432678223

> <r_mmod_Van_der_Waal_Energy-OPLS-2005>
3701.52954101562

> <r_mmod_Electrostatic_Energy-OPLS-2005>
-371.377349853516

> <r_mmod_Solvation_Energy-OPLS-2005>
-204.046569824219

> <b_mmod_Minimization_Converged-OPLS-2005>
0

> <r_mmod_RMS_Derivative-OPLS-2005>
1.60994756221771

$$$$
69
                    3D
 Structure written by MMmdl.
177185  0  0  1  0            999 V2000
  -30.7452  -14.4035   20.6393 C   0  0  0  0  0  0
  -30.4194  -12.2959   19.3985 C   0  0  0  0  0  0
  -29.4868  -12.5148   18.1917 C   0  0  0  0  0  0
  -28.0098  -12.3779   18.6100 C   0  0  0  0  0  0
  -27.6661  -13.2048   19.8787 C   0  0  2  0  0  0
  -28.7069  -12.9570   20.9919 C   0  0  0  0  0  0
  -25.2609  -13.8165   20.5690 C   0  0  0  0  0  0
  -24.1855  -13.0433   20.9176 C   0  0  0  0  0  0
  -24.6402  -11.6909   20.8732 C   0  0  0  0  0  0
  -23.9072  -10.4295   21.0408 C   0  0  0  0  0  0
  -24.3618   -9.4214   21.9185 C   0  0  0  0  0  0
  -23.6292   -8.2248   22.0758 C   0  0  0  0  0  0
  -22.4276   -8.0285   21.3547 C   0  0  0  0  0  0
  -21.9911   -9.0262   20.4650 C   0  0  0  0  0  0
  -22.7241  -10.2142   20.3058 C   0  0  0  0  0  0
  -21.6851   -6.0742   22.5279 C   0  0  0  0  0  0
  -21.4006   -6.5639   23.8213 C   0  0  0  0  0  0
  -21.3657   -5.6793   24.9170 C   0  0  0  0  0  0
  -21.6046   -4.3057   24.7224 C   0  0  0  0  0  0
  -21.8821   -3.8155   23.4342 C   0  0  0  0  0  0
  -21.9192   -4.6971   22.3399 C   0  0  0  0  0  0
  -22.7875  -13.5244   21.1840 C   0  0  0  0  0  0
  -22.1664   -4.2156   21.0978 F   0  0  0  0  0  0
  -21.5630   -3.4539   25.7738 F   0  0  0  0  0  0
  -30.0407  -13.2592   20.4434 N   0  0  0  0  0  0
  -26.3056  -12.9333   20.3391 N   0  0  0  0  0  0
  -25.9330  -11.6499   20.5765 N   0  0  0  0  0  0
  -22.0506  -12.8240   22.0390 N   0  0  0  0  0  0
  -25.4323  -15.1874   20.4121 N   0  0  0  0  0  0
  -31.8215  -14.6341   20.0796 O   0  0  0  0  0  0
  -21.6631   -6.8882   21.4243 O   0  0  0  0  0  0
  -22.3577  -14.5555   20.6693 O   0  0  0  0  0  0
  -24.6080  -31.8738   23.2108 C   0  0  0  0  0  0
  -25.9007  -32.4839   23.8385 C   0  0  1  0  0  0
  -27.2568  -27.4792   20.0938 C   0  0  0  0  0  0
  -25.5907  -33.8628   24.2333 N   0  0  0  0  0  0
  -23.3911  -30.4940   21.5512 C   0  0  2  0  0  0
  -24.8450  -28.9617   20.1169 C   0  0  0  0  0  0
  -22.7368  -29.4683   22.5033 C   0  0  0  0  0  0
  -18.0255  -28.1353   22.8502 C   0  0  0  0  0  0
  -24.1495  -36.7295   23.2643 C   0  0  0  0  0  0
  -25.9138  -30.8533   21.3552 C   0  0  0  0  0  0
  -25.9981  -29.4870   20.7117 C   0  0  0  0  0  0
  -27.2035  -28.7558   20.7043 C   0  0  0  0  0  0
  -26.0883  -26.9661   19.4935 C   0  0  0  0  0  0
  -24.8824  -27.6953   19.5059 C   0  0  0  0  0  0
  -23.5978  -29.8148   20.1703 C   0  0  0  0  0  0
  -25.4115  -36.3102   24.0339 C   0  0  1  0  0  0
  -20.5840  -28.3644   23.1365 C   0  0  2  0  0  0
  -20.6737  -26.9395   22.5442 C   0  0  0  0  0  0
  -19.5720  -26.6370   21.5231 C   0  0  0  0  0  0
  -18.1891  -26.7898   22.1640 C   0  0  0  0  0  0
  -19.1505  -28.8811   23.2920 C   0  0  0  0  0  0
  -18.9435  -30.1409   23.8944 C   0  0  0  0  0  0
  -17.6448  -30.6578   24.0570 C   0  0  0  0  0  0
  -25.9043  -34.9474   23.5128 C   0  0  0  0  0  0
  -16.5336  -29.9087   23.6317 C   0  0  0  0  0  0
  -16.7250  -28.6491   23.0360 C   0  0  0  0  0  0
  -26.4437  -31.6599   25.0701 C   0  0  0  0  0  0
  -25.3706  -31.3746   26.1469 C   0  0  0  0  0  0
  -27.0260  -30.3048   24.6040 C   0  0  0  0  0  0
  -27.6046  -32.4296   25.7438 C   0  0  0  0  0  0
  -27.5579  -37.1796   24.8471 C   0  0  0  0  0  0
  -21.4103  -29.3034   22.3792 N   0  0  0  0  0  0
  -26.4305  -37.3773   23.9403 N   0  0  0  0  0  0
  -24.6552  -31.0875   22.0981 N   0  0  0  0  0  0
  -23.4174  -28.8238   23.3054 O   0  0  0  0  0  0
  -28.3906  -26.6970   20.0222 O   0  0  0  0  0  0
  -26.5592  -34.8914   22.4680 O   0  0  0  0  0  0
  -23.5291  -32.1486   23.7536 O   0  0  0  0  0  0
  -29.4064  -17.5832   23.7388 C   0  0  0  0  0  0
  -29.8912  -17.6227   22.4039 C   0  0  0  0  0  0
  -28.8141  -19.8255   22.0682 C   0  0  0  0  0  0
  -28.4189  -19.8035   23.4251 C   0  0  0  0  0  0
  -28.6867  -18.6913   24.2464 C   0  0  0  0  0  0
  -29.5542  -18.7212   21.5608 C   0  0  0  0  0  0
  -29.6949  -16.3890   24.6488 C   0  0  0  0  0  0
  -33.1401  -21.5411   21.5148 C   0  0  0  0  0  0
  -26.9332  -21.3009   21.1699 C   0  0  0  0  0  0
  -30.8428  -16.5275   21.9076 C   0  0  0  0  0  0
  -31.7286  -21.6857   22.1027 C   0  0  0  0  0  0
  -29.3622  -24.6050   22.4377 C   0  0  0  0  0  0
  -28.8770  -26.0634   22.3334 C   0  0  0  0  0  0
  -30.7001  -22.1551   21.0563 C   0  0  0  0  0  0
  -28.7312  -23.6084   21.4333 C   0  0  0  0  0  0
  -29.3569  -26.7990   21.0647 C   0  0  0  0  0  0
  -28.4619  -21.0567   21.2039 C   0  0  1  0  0  0
  -30.1882  -15.2947   21.4707 N   0  0  0  0  0  0
  -29.3100  -22.2377   21.6051 N   0  3  1  0  0  0
  -27.7967  -20.8839   23.9571 F   0  0  0  0  0  0
  -28.1600  -18.7368   25.8955 Cl  0  0  0  0  0  0
  -30.0819  -18.7169   19.9097 Cl  0  0  0  0  0  0
  -31.4626  -12.3943   19.0916 H   0  0  0  0  0  0
  -30.3195  -11.2778   19.7775 H   0  0  0  0  0  0
  -29.7168  -11.7971   17.4032 H   0  0  0  0  0  0
  -29.6590  -13.5040   17.7639 H   0  0  0  0  0  0
  -27.8151  -11.3208   18.7949 H   0  0  0  0  0  0
  -27.3569  -12.6662   17.7846 H   0  0  0  0  0  0
  -27.7197  -14.2573   19.6006 H   0  0  0  0  0  0
  -28.6786  -11.9130   21.3067 H   0  0  0  0  0  0
  -28.4645  -13.5319   21.8858 H   0  0  0  0  0  0
  -25.2768   -9.5679   22.4763 H   0  0  0  0  0  0
  -23.9999   -7.4633   22.7478 H   0  0  0  0  0  0
  -21.0843   -8.8787   19.8954 H   0  0  0  0  0  0
  -22.3708  -10.9682   19.6166 H   0  0  0  0  0  0
  -21.1994   -7.6144   23.9716 H   0  0  0  0  0  0
  -21.1477   -6.0520   25.9073 H   0  0  0  0  0  0
  -22.0604   -2.7617   23.2840 H   0  0  0  0  0  0
  -22.4104  -11.9894   22.4774 H   0  0  0  0  0  0
  -21.1116  -13.1283   22.2581 H   0  0  0  0  0  0
  -24.6668  -15.8426   20.5276 H   0  0  0  0  0  0
  -26.2887  -15.6300   20.1030 H   0  0  0  0  0  0
  -26.7101  -32.5602   23.1181 H   0  0  0  0  0  0
  -25.0101  -33.9783   25.0506 H   0  0  0  0  0  0
  -22.6747  -31.3065   21.4074 H   0  0  0  0  0  0
  -23.3769  -35.9623   23.3293 H   0  0  0  0  0  0
  -24.3595  -36.8914   22.2059 H   0  0  0  0  0  0
  -23.7220  -37.6487   23.6661 H   0  0  0  0  0  0
  -26.0152  -31.6156   20.5807 H   0  0  0  0  0  0
  -26.8056  -30.9195   21.9654 H   0  0  0  0  0  0
  -28.0760  -29.2044   21.1555 H   0  0  0  0  0  0
  -26.1146  -25.9926   19.0258 H   0  0  0  0  0  0
  -23.9969  -27.2789   19.0466 H   0  0  0  0  0  0
  -23.6824  -30.5819   19.4005 H   0  0  0  0  0  0
  -22.7272  -29.2180   19.8934 H   0  0  0  0  0  0
  -25.1280  -36.1972   25.0834 H   0  0  0  0  0  0
  -20.9924  -28.3217   24.1492 H   0  0  0  0  0  0
  -20.5658  -26.2261   23.3622 H   0  0  0  0  0  0
  -21.6597  -26.7434   22.1234 H   0  0  0  0  0  0
  -19.6891  -25.6288   21.1228 H   0  0  0  0  0  0
  -19.6659  -27.3218   20.6789 H   0  0  0  0  0  0
  -17.4171  -26.6691   21.4024 H   0  0  0  0  0  0
  -18.0259  -26.0014   22.9014 H   0  0  0  0  0  0
  -19.7921  -30.7170   24.2368 H   0  0  0  0  0  0
  -17.5020  -31.6272   24.5152 H   0  0  0  0  0  0
  -15.5340  -30.3018   23.7576 H   0  0  0  0  0  0
  -15.8650  -28.0806   22.7084 H   0  0  0  0  0  0
  -24.5825  -30.7147   25.7814 H   0  0  0  0  0  0
  -24.8952  -32.2932   26.4928 H   0  0  0  0  0  0
  -25.8031  -30.8890   27.0227 H   0  0  0  0  0  0
  -26.2805  -29.6816   24.1094 H   0  0  0  0  0  0
  -27.4059  -29.7261   25.4469 H   0  0  0  0  0  0
  -27.8606  -30.4360   23.9153 H   0  0  0  0  0  0
  -27.2722  -33.3638   26.1966 H   0  0  0  0  0  0
  -28.3871  -32.6779   25.0257 H   0  0  0  0  0  0
  -28.0687  -31.8442   26.5381 H   0  0  0  0  0  0
  -28.2615  -38.0071   24.7492 H   0  0  0  0  0  0
  -28.1049  -36.2595   24.6330 H   0  0  0  0  0  0
  -27.2298  -37.1493   25.8878 H   0  0  0  0  0  0
  -20.9252  -29.8767   21.7037 H   0  0  0  0  0  0
  -26.0202  -38.2877   24.1357 H   0  0  0  0  0  0
  -29.7349  -15.4510   24.0980 H   0  0  0  0  0  0
  -28.9212  -16.2493   25.4023 H   0  0  0  0  0  0
  -30.6461  -16.5200   25.1648 H   0  0  0  0  0  0
  -33.8502  -21.2187   22.2780 H   0  0  0  0  0  0
  -33.5008  -22.4873   21.1071 H   0  0  0  0  0  0
  -33.1639  -20.8007   20.7131 H   0  0  0  0  0  0
  -26.4057  -20.3801   20.9204 H   0  0  0  0  0  0
  -26.6593  -22.0229   20.4003 H   0  0  0  0  0  0
  -26.5288  -21.6553   22.1175 H   0  0  0  0  0  0
  -31.5339  -16.2701   22.7111 H   0  0  0  0  0  0
  -31.4971  -16.9183   21.1292 H   0  0  0  0  0  0
  -31.7609  -22.3920   22.9331 H   0  0  0  0  0  0
  -31.4327  -20.7273   22.5251 H   0  0  0  0  0  0
  -29.1391  -24.2566   23.4463 H   0  0  0  0  0  0
  -30.4494  -24.6047   22.3683 H   0  0  0  0  0  0
  -29.2739  -26.5943   23.2000 H   0  0  0  0  0  0
  -27.7930  -26.1213   22.4382 H   0  0  0  0  0  0
  -30.7401  -21.5055   20.1821 H   0  0  0  0  0  0
  -31.0236  -23.1241   20.6747 H   0  0  0  0  0  0
  -28.8557  -23.9390   20.3998 H   0  0  0  0  0  0
  -27.6612  -23.6353   21.6275 H   0  0  0  0  0  0
  -30.2824  -26.3474   20.7062 H   0  0  0  0  0  0
  -29.6302  -27.8298   21.2821 H   0  0  0  0  0  0
  -28.6822  -20.8445   20.1601 H   0  0  0  0  0  0
  -29.2955  -15.0593   21.8746 H   0  0  0  0  0  0
  -29.3911  -22.1490   22.6074 H   0  0  0  0  0  0
  1 25  1  0  0  0
  1 30  2  0  0  0
  1 88  1  0  0  0
  2  3  1  0  0  0
  2 25  1  0  0  0
  2 93  1  0  0  0
  2 94  1  0  0  0
  3  4  1  0  0  0
  3 95  1  0  0  0
  3 96  1  0  0  0
  4  5  1  0  0  0
  4 97  1  0  0  0
  4 98  1  0  0  0
  5  6  1  0  0  0
  5 26  1  0  0  0
  5 99  1  0  0  0
  6 25  1  0  0  0
  6100  1  0  0  0
  6101  1  0  0  0
  7  8  2  0  0  0
  7 26  1  0  0  0
  7 29  1  0  0  0
  8  9  1  0  0  0
  8 22  1  0  0  0
  9 10  1  0  0  0
  9 27  2  0  0  0
 10 11  2  0  0  0
 10 15  1  0  0  0
 11 12  1  0  0  0
 11102  1  0  0  0
 12 13  2  0  0  0
 12103  1  0  0  0
 13 14  1  0  0  0
 13 31  1  0  0  0
 14 15  2  0  0  0
 14104  1  0  0  0
 15105  1  0  0  0
 16 17  2  0  0  0
 16 21  1  0  0  0
 16 31  1  0  0  0
 17 18  1  0  0  0
 17106  1  0  0  0
 18 19  2  0  0  0
 18107  1  0  0  0
 19 20  1  0  0  0
 19 24  1  0  0  0
 20 21  2  0  0  0
 20108  1  0  0  0
 21 23  1  0  0  0
 22 28  1  0  0  0
 22 32  2  0  0  0
 26 27  1  0  0  0
 28109  1  0  0  0
 28110  1  0  0  0
 29111  1  0  0  0
 29112  1  0  0  0
 33 34  1  0  0  0
 33 66  1  0  0  0
 33 70  2  0  0  0
 34 36  1  0  0  0
 34 59  1  0  0  0
 34113  1  0  0  0
 35 44  2  0  0  0
 35 45  1  0  0  0
 35 68  1  0  0  0
 36 56  1  0  0  0
 36114  1  0  0  0
 37 39  1  0  0  0
 37 47  1  0  0  0
 37 66  1  0  0  0
 37115  1  0  0  0
 38 43  2  0  0  0
 38 46  1  0  0  0
 38 47  1  0  0  0
 39 64  1  0  0  0
 39 67  2  0  0  0
 40 52  1  0  0  0
 40 53  2  0  0  0
 40 58  1  0  0  0
 41116  1  0  0  0
 41117  1  0  0  0
 41118  1  0  0  0
 41 48  1  0  0  0
 42 43  1  0  0  0
 42 66  1  0  0  0
 42119  1  0  0  0
 42120  1  0  0  0
 43 44  1  0  0  0
 44121  1  0  0  0
 45 46  2  0  0  0
 45122  1  0  0  0
 46123  1  0  0  0
 47124  1  0  0  0
 47125  1  0  0  0
 48 56  1  0  0  0
 48 65  1  0  0  0
 48126  1  0  0  0
 49 50  1  0  0  0
 49 53  1  0  0  0
 49 64  1  0  0  0
 49127  1  0  0  0
 50 51  1  0  0  0
 50128  1  0  0  0
 50129  1  0  0  0
 51 52  1  0  0  0
 51130  1  0  0  0
 51131  1  0  0  0
 52132  1  0  0  0
 52133  1  0  0  0
 53 54  1  0  0  0
 54 55  2  0  0  0
 54134  1  0  0  0
 55 57  1  0  0  0
 55135  1  0  0  0
 56 69  2  0  0  0
 57 58  2  0  0  0
 57136  1  0  0  0
 58137  1  0  0  0
 59 60  1  0  0  0
 59 61  1  0  0  0
 59 62  1  0  0  0
 60138  1  0  0  0
 60139  1  0  0  0
 60140  1  0  0  0
 61141  1  0  0  0
 61142  1  0  0  0
 61143  1  0  0  0
 62144  1  0  0  0
 62145  1  0  0  0
 62146  1  0  0  0
 63 65  1  0  0  0
 63147  1  0  0  0
 63148  1  0  0  0
 63149  1  0  0  0
 64150  1  0  0  0
 65151  1  0  0  0
 68 86  1  0  0  0
 71 72  2  0  0  0
 71 75  1  0  0  0
 71 77  1  0  0  0
 72 76  1  0  0  0
 72 80  1  0  0  0
 73 74  1  0  0  0
 73 76  2  0  0  0
 73 87  1  0  0  0
 74 75  2  0  0  0
 74 90  1  0  0  0
 75 91  1  0  0  0
 76 92  1  0  0  0
 77152  1  0  0  0
 77153  1  0  0  0
 77154  1  0  0  0
 78 81  1  0  0  0
 78155  1  0  0  0
 78156  1  0  0  0
 78157  1  0  0  0
 79158  1  0  0  0
 79159  1  0  0  0
 79160  1  0  0  0
 79 87  1  0  0  0
 80 88  1  0  0  0
 80161  1  0  0  0
 80162  1  0  0  0
 81 84  1  0  0  0
 81163  1  0  0  0
 81164  1  0  0  0
 82 83  1  0  0  0
 82 85  1  0  0  0
 82165  1  0  0  0
 82166  1  0  0  0
 83 86  1  0  0  0
 83167  1  0  0  0
 83168  1  0  0  0
 84169  1  0  0  0
 84170  1  0  0  0
 84 89  1  0  0  0
 85 89  1  0  0  0
 85171  1  0  0  0
 85172  1  0  0  0
 86173  1  0  0  0
 86174  1  0  0  0
 87 89  1  0  0  0
 87175  1  0  0  0
 88176  1  0  0  0
 89177  1  0  0  0
M  CHG  1  89   1
M  ISO  4   1 100  68 101  86 101  88 100
M  END
> <chiral flag>
0

> <version>
0

> <s_m_source_file>
/data/baiqing/PycharmProjects/Reinvent-master-3.2/result/LINK_invent/BTK/process_docking_weight1_custom_sum_contain_oxygen_bond_distance_aromatic_linkinvent_7_9_3/rearranged_h_0020.sdf

> <i_m_source_file_index>
70

> <r_mmod_Potential_Energy-OPLS-2005>
-149.964538574219

> <r_mmod_Stretch_Energy-OPLS-2005>
42.2485084533691

> <r_mmod_Bend_Energy-OPLS-2005>
111.98119354248

> <r_mmod_Torsional_Energy-OPLS-2005>
223.853393554688

> <r_mmod_Improper_Torsional_Energy-OPLS-2005>
2.04328751564026

> <r_mmod_Van_der_Waal_Energy-OPLS-2005>
163.771987915039

> <r_mmod_Electrostatic_Energy-OPLS-2005>
-294.148376464844

> <r_mmod_Solvation_Energy-OPLS-2005>
-406.400024414062

> <b_mmod_Minimization_Converged-OPLS-2005>
0

> <r_mmod_RMS_Derivative-OPLS-2005>
2.60229635238647

$$$$
70
                    3D
 Structure written by MMmdl.
175183  0  0  1  0            999 V2000
  -31.0985  -14.3242   20.0747 C   0  0  0  0  0  0
  -30.4795  -12.3663   18.9335 C   0  0  0  0  0  0
  -29.3809  -11.6389   18.2338 C   0  0  0  0  0  0
  -27.9527  -11.7387   18.8196 C   0  0  0  0  0  0
  -27.6414  -13.0440   19.6506 C   0  0  2  0  0  0
  -28.8088  -13.3915   20.6314 C   0  0  0  0  0  0
  -25.2515  -13.8001   20.5450 C   0  0  0  0  0  0
  -24.1778  -13.0576   20.9417 C   0  0  0  0  0  0
  -24.6056  -11.6939   20.9091 C   0  0  0  0  0  0
  -23.8854  -10.4184   21.0590 C   0  0  0  0  0  0
  -24.3496   -9.4097   21.9396 C   0  0  0  0  0  0
  -23.6249   -8.2162   22.0933 C   0  0  0  0  0  0
  -22.4342   -8.0094   21.3665 C   0  0  0  0  0  0
  -21.9836   -8.9973   20.4867 C   0  0  0  0  0  0
  -22.6980  -10.1934   20.3213 C   0  0  0  0  0  0
  -21.6820   -6.0759   22.5272 C   0  0  0  0  0  0
  -21.4024   -6.5735   23.8162 C   0  0  0  0  0  0
  -21.3687   -5.6921   24.9151 C   0  0  0  0  0  0
  -21.5984   -4.3179   24.7183 C   0  0  0  0  0  0
  -21.8761   -3.8252   23.4301 C   0  0  0  0  0  0
  -21.9139   -4.7052   22.3382 C   0  0  0  0  0  0
  -22.7671  -13.5237   21.2306 C   0  0  0  0  0  0
  -22.1687   -4.2197   21.1014 F   0  0  0  0  0  0
  -21.5552   -3.4647   25.7749 F   0  0  0  0  0  0
  -30.1378  -13.3793   19.9328 N   0  0  0  0  0  0
  -26.2838  -12.9114   20.2640 N   0  0  0  0  0  0
  -25.8893  -11.6553   20.5999 N   0  0  0  0  0  0
  -22.0202  -12.8203   22.0773 N   0  0  0  0  0  0
  -25.3773  -15.1816   20.3378 N   0  0  0  0  0  0
  -31.7036  -14.5393   21.0799 O   0  0  0  0  0  0
  -21.6774   -6.8713   21.4185 O   0  0  0  0  0  0
  -22.3538  -14.5643   20.7093 O   0  0  0  0  0  0
  -24.6114  -31.8730   23.2111 C   0  0  0  0  0  0
  -25.9081  -32.4798   23.8311 C   0  0  1  0  0  0
  -27.2073  -27.4169   20.0626 C   0  0  0  0  0  0
  -25.5968  -33.8582   24.2211 N   0  0  0  0  0  0
  -23.3885  -30.5025   21.5518 C   0  0  2  0  0  0
  -24.8247  -28.9657   20.1002 C   0  0  0  0  0  0
  -22.7246  -29.4730   22.4941 C   0  0  0  0  0  0
  -18.0225  -28.1413   22.8360 C   0  0  0  0  0  0
  -24.1533  -36.7178   23.2615 C   0  0  0  0  0  0
  -25.9308  -30.8069   21.3903 C   0  0  0  0  0  0
  -25.9930  -29.4567   20.7110 C   0  0  0  0  0  0
  -27.1844  -28.6872   20.6805 C   0  0  0  0  0  0
  -26.0039  -26.9380   19.4901 C   0  0  0  0  0  0
  -24.8392  -27.7064   19.4821 C   0  0  0  0  0  0
  -23.5846  -29.8297   20.1709 C   0  0  0  0  0  0
  -25.4212  -36.3090   24.0260 C   0  0  1  0  0  0
  -20.5774  -28.3722   23.1186 C   0  0  2  0  0  0
  -20.6713  -26.9478   22.5301 C   0  0  0  0  0  0
  -19.5825  -26.6420   21.5052 C   0  0  0  0  0  0
  -18.1991  -26.7907   22.1466 C   0  0  0  0  0  0
  -19.1467  -28.8882   23.2777 C   0  0  0  0  0  0
  -18.9423  -30.1422   23.8927 C   0  0  0  0  0  0
  -17.6462  -30.6652   24.0522 C   0  0  0  0  0  0
  -25.9148  -34.9479   23.5067 C   0  0  0  0  0  0
  -16.5331  -29.9173   23.6345 C   0  0  0  0  0  0
  -16.7190  -28.6540   23.0407 C   0  0  0  0  0  0
  -26.4532  -31.6547   25.0606 C   0  0  0  0  0  0
  -25.3713  -31.3673   26.1219 C   0  0  0  0  0  0
  -27.0365  -30.2918   24.6157 C   0  0  0  0  0  0
  -27.6174  -32.4211   25.7348 C   0  0  0  0  0  0
  -27.5624  -37.1732   24.8467 C   0  0  0  0  0  0
  -21.3990  -29.3117   22.3565 N   0  0  0  0  0  0
  -26.4371  -37.3794   23.9372 N   0  0  0  0  0  0
  -24.6599  -31.0727   22.1056 N   0  0  0  0  0  0
  -23.3981  -28.8395   23.3098 O   0  0  0  0  0  0
  -28.3843  -26.6802   20.0534 O   0  0  0  0  0  0
  -26.5768  -34.8919   22.4659 O   0  0  0  0  0  0
  -23.5302  -32.1590   23.7509 O   0  0  0  0  0  0
  -28.3930  -20.7740   20.4081 C   0  0  0  0  0  0
  -30.0659  -20.8203   18.6485 C   0  0  0  0  0  0
  -29.2879  -22.9319   19.6831 C   0  0  0  0  0  0
  -29.1491  -20.0954   19.4363 C   0  0  0  0  0  0
  -28.4503  -22.1808   20.5311 C   0  0  0  0  0  0
  -30.0649  -22.2436   18.7125 C   0  0  0  0  0  0
  -32.4525  -20.6325   18.3479 C   0  0  0  0  0  0
  -31.2340  -20.1064   18.0550 C   0  0  0  0  0  0
  -27.7567  -18.2407   15.8383 C   0  0  0  0  0  0
  -29.5073  -24.4382   19.9465 C   0  0  0  0  0  0
  -29.2129  -17.7323   15.8872 C   0  0  0  0  0  0
  -33.4770  -15.7677   17.4089 C   0  0  0  0  0  0
  -32.4029  -16.6274   16.6610 C   0  0  0  0  0  0
  -32.9939  -14.7675   18.5244 C   0  0  0  0  0  0
  -30.3125  -18.8489   15.9754 C   0  0  0  0  0  0
  -32.4465  -18.1355   17.0252 C   0  0  0  0  0  0
  -28.2535  -25.2889   19.6819 C   0  0  0  0  0  0
  -31.5800  -14.9253   18.9697 N   0  0  0  0  0  0
  -31.1287  -18.8069   17.2418 N   0  3  1  0  0  0
  -29.0447  -18.7434   19.3307 F   0  0  0  0  0  0
  -27.7781  -22.8102   21.5203 F   0  0  0  0  0  0
  -30.9162  -22.9498   17.9202 F   0  0  0  0  0  0
  -30.8984  -12.8332   18.0209 H   0  0  0  0  0  0
  -31.2496  -11.6756   19.2521 H   0  0  0  0  0  0
  -29.7317  -10.6261   18.4990 H   0  0  0  0  0  0
  -29.5012  -11.5236   17.1446 H   0  0  0  0  0  0
  -27.9677  -10.8660   19.4998 H   0  0  0  0  0  0
  -27.1433  -11.3934   18.1294 H   0  0  0  0  0  0
  -27.5812  -13.8607   18.9316 H   0  0  0  0  0  0
  -28.7455  -12.8071   21.5265 H   0  0  0  0  0  0
  -28.7037  -14.4497   20.8895 H   0  0  0  0  0  0
  -25.2332   -9.5610   22.5384 H   0  0  0  0  0  0
  -23.9834   -7.4450   22.7571 H   0  0  0  0  0  0
  -21.0766   -8.8216   19.9210 H   0  0  0  0  0  0
  -22.3008  -10.9620   19.6630 H   0  0  0  0  0  0
  -21.2248   -7.6272   23.9658 H   0  0  0  0  0  0
  -21.1695   -6.0713   25.9092 H   0  0  0  0  0  0
  -22.0649   -2.7701   23.2732 H   0  0  0  0  0  0
  -22.3337  -11.9639   22.5226 H   0  0  0  0  0  0
  -21.0740  -13.1246   22.2473 H   0  0  0  0  0  0
  -24.5051  -15.7168   20.3159 H   0  0  0  0  0  0
  -26.1243  -15.6840   19.8920 H   0  0  0  0  0  0
  -26.6996  -32.5398   23.0890 H   0  0  0  0  0  0
  -24.9964  -33.9732   25.0238 H   0  0  0  0  0  0
  -22.6777  -31.3297   21.4256 H   0  0  0  0  0  0
  -23.3888  -35.9413   23.3397 H   0  0  0  0  0  0
  -24.3563  -36.8700   22.1998 H   0  0  0  0  0  0
  -23.7174  -37.6336   23.6587 H   0  0  0  0  0  0
  -26.0942  -31.5930   20.6556 H   0  0  0  0  0  0
  -26.7926  -30.8075   22.0456 H   0  0  0  0  0  0
  -28.0780  -29.0645   21.1449 H   0  0  0  0  0  0
  -25.9167  -25.9612   19.0373 H   0  0  0  0  0  0
  -23.9372  -27.3215   19.0129 H   0  0  0  0  0  0
  -23.6516  -30.6050   19.4126 H   0  0  0  0  0  0
  -22.7118  -29.2338   19.9024 H   0  0  0  0  0  0
  -25.1417  -36.1939   25.0739 H   0  0  0  0  0  0
  -20.9819  -28.3451   24.1328 H   0  0  0  0  0  0
  -20.5571  -26.2467   23.3530 H   0  0  0  0  0  0
  -21.6625  -26.7566   22.1244 H   0  0  0  0  0  0
  -19.7123  -25.6356   21.1208 H   0  0  0  0  0  0
  -19.6841  -27.3107   20.6524 H   0  0  0  0  0  0
  -17.4171  -26.6431   21.3963 H   0  0  0  0  0  0
  -18.0607  -26.0087   22.8965 H   0  0  0  0  0  0
  -19.7954  -30.7089   24.2417 H   0  0  0  0  0  0
  -17.5136  -31.6373   24.5075 H   0  0  0  0  0  0
  -15.5397  -30.3167   23.7731 H   0  0  0  0  0  0
  -15.8491  -28.0855   22.7317 H   0  0  0  0  0  0
  -24.5968  -30.7035   25.7321 H   0  0  0  0  0  0
  -24.8833  -32.2845   26.4515 H   0  0  0  0  0  0
  -25.7886  -30.8772   27.0005 H   0  0  0  0  0  0
  -26.2914  -29.6575   24.1296 H   0  0  0  0  0  0
  -27.4096  -29.7250   25.4707 H   0  0  0  0  0  0
  -27.8830  -30.4082   23.9374 H   0  0  0  0  0  0
  -27.2911  -33.3481   26.2044 H   0  0  0  0  0  0
  -28.3930  -32.6751   25.0106 H   0  0  0  0  0  0
  -28.0912  -31.8233   26.5130 H   0  0  0  0  0  0
  -28.2666  -38.0024   24.7613 H   0  0  0  0  0  0
  -28.1132  -36.2554   24.6302 H   0  0  0  0  0  0
  -27.2282  -37.1338   25.8854 H   0  0  0  0  0  0
  -20.9197  -29.8539   21.6478 H   0  0  0  0  0  0
  -26.0282  -38.2835   24.1505 H   0  0  0  0  0  0
  -27.8370  -20.2007   21.1412 H   0  0  0  0  0  0
  -32.5398  -21.5178   18.9523 H   0  0  0  0  0  0
  -33.4045  -20.2307   18.0496 H   0  0  0  0  0  0
  -27.0384  -17.4278   15.6716 H   0  0  0  0  0  0
  -27.6110  -18.9922   15.0606 H   0  0  0  0  0  0
  -27.4491  -18.7033   16.7738 H   0  0  0  0  0  0
  -29.8076  -24.5309   20.9859 H   0  0  0  0  0  0
  -30.3551  -24.8410   19.3973 H   0  0  0  0  0  0
  -29.3885  -17.1428   14.9699 H   0  0  0  0  0  0
  -29.2668  -17.0580   16.7504 H   0  0  0  0  0  0
  -34.1452  -15.2407   16.7170 H   0  0  0  0  0  0
  -34.1778  -16.4741   17.8500 H   0  0  0  0  0  0
  -31.3967  -16.2786   16.8417 H   0  0  0  0  0  0
  -32.5349  -16.5242   15.5734 H   0  0  0  0  0  0
  -33.5896  -14.9793   19.4031 H   0  0  0  0  0  0
  -33.3336  -13.7449   18.2846 H   0  0  0  0  0  0
  -29.8485  -19.8325   15.8763 H   0  0  0  0  0  0
  -30.9765  -18.7192   15.1058 H   0  0  0  0  0  0
  -33.0065  -18.6756   16.2502 H   0  0  0  0  0  0
  -32.9900  -18.1568   17.9726 H   0  0  0  0  0  0
  -27.4359  -24.8723   20.2737 H   0  0  0  0  0  0
  -27.9786  -25.1824   18.6304 H   0  0  0  0  0  0
  -31.3150  -15.9109   19.0289 H   0  0  0  0  0  0
  -30.6208  -18.1552   17.8236 H   0  0  0  0  0  0
  1 25  1  0  0  0
  1 30  2  0  0  0
  1 88  1  0  0  0
  2  3  1  0  0  0
  2 25  1  0  0  0
  2 93  1  0  0  0
  2 94  1  0  0  0
  3  4  1  0  0  0
  3 95  1  0  0  0
  3 96  1  0  0  0
  4  5  1  0  0  0
  4 97  1  0  0  0
  4 98  1  0  0  0
  5  6  1  0  0  0
  5 26  1  0  0  0
  5 99  1  0  0  0
  6 25  1  0  0  0
  6100  1  0  0  0
  6101  1  0  0  0
  7  8  2  0  0  0
  7 26  1  0  0  0
  7 29  1  0  0  0
  8  9  1  0  0  0
  8 22  1  0  0  0
  9 10  1  0  0  0
  9 27  2  0  0  0
 10 11  2  0  0  0
 10 15  1  0  0  0
 11 12  1  0  0  0
 11102  1  0  0  0
 12 13  2  0  0  0
 12103  1  0  0  0
 13 14  1  0  0  0
 13 31  1  0  0  0
 14 15  2  0  0  0
 14104  1  0  0  0
 15105  1  0  0  0
 16 17  2  0  0  0
 16 21  1  0  0  0
 16 31  1  0  0  0
 17 18  1  0  0  0
 17106  1  0  0  0
 18 19  2  0  0  0
 18107  1  0  0  0
 19 20  1  0  0  0
 19 24  1  0  0  0
 20 21  2  0  0  0
 20108  1  0  0  0
 21 23  1  0  0  0
 22 28  1  0  0  0
 22 32  2  0  0  0
 26 27  1  0  0  0
 28109  1  0  0  0
 28110  1  0  0  0
 29111  1  0  0  0
 29112  1  0  0  0
 33 34  1  0  0  0
 33 66  1  0  0  0
 33 70  2  0  0  0
 34 36  1  0  0  0
 34 59  1  0  0  0
 34113  1  0  0  0
 35 44  2  0  0  0
 35 45  1  0  0  0
 35 68  1  0  0  0
 36 56  1  0  0  0
 36114  1  0  0  0
 37 39  1  0  0  0
 37 47  1  0  0  0
 37 66  1  0  0  0
 37115  1  0  0  0
 38 43  2  0  0  0
 38 46  1  0  0  0
 38 47  1  0  0  0
 39 64  1  0  0  0
 39 67  2  0  0  0
 40 52  1  0  0  0
 40 53  2  0  0  0
 40 58  1  0  0  0
 41116  1  0  0  0
 41117  1  0  0  0
 41118  1  0  0  0
 41 48  1  0  0  0
 42 43  1  0  0  0
 42 66  1  0  0  0
 42119  1  0  0  0
 42120  1  0  0  0
 43 44  1  0  0  0
 44121  1  0  0  0
 45 46  2  0  0  0
 45122  1  0  0  0
 46123  1  0  0  0
 47124  1  0  0  0
 47125  1  0  0  0
 48 56  1  0  0  0
 48 65  1  0  0  0
 48126  1  0  0  0
 49 50  1  0  0  0
 49 53  1  0  0  0
 49 64  1  0  0  0
 49127  1  0  0  0
 50 51  1  0  0  0
 50128  1  0  0  0
 50129  1  0  0  0
 51 52  1  0  0  0
 51130  1  0  0  0
 51131  1  0  0  0
 52132  1  0  0  0
 52133  1  0  0  0
 53 54  1  0  0  0
 54 55  2  0  0  0
 54134  1  0  0  0
 55 57  1  0  0  0
 55135  1  0  0  0
 56 69  2  0  0  0
 57 58  2  0  0  0
 57136  1  0  0  0
 58137  1  0  0  0
 59 60  1  0  0  0
 59 61  1  0  0  0
 59 62  1  0  0  0
 60138  1  0  0  0
 60139  1  0  0  0
 60140  1  0  0  0
 61141  1  0  0  0
 61142  1  0  0  0
 61143  1  0  0  0
 62144  1  0  0  0
 62145  1  0  0  0
 62146  1  0  0  0
 63 65  1  0  0  0
 63147  1  0  0  0
 63148  1  0  0  0
 63149  1  0  0  0
 64150  1  0  0  0
 65151  1  0  0  0
 68 87  1  0  0  0
 71 74  2  0  0  0
 71 75  1  0  0  0
 71152  1  0  0  0
 72 74  1  0  0  0
 72 76  2  0  0  0
 72 78  1  0  0  0
 73 75  2  0  0  0
 73 76  1  0  0  0
 73 80  1  0  0  0
 74 90  1  0  0  0
 75 91  1  0  0  0
 76 92  1  0  0  0
 77 78  2  0  0  0
 77153  1  0  0  0
 77154  1  0  0  0
 78 89  1  0  0  0
 79 81  1  0  0  0
 79155  1  0  0  0
 79156  1  0  0  0
 79157  1  0  0  0
 80 87  1  0  0  0
 80158  1  0  0  0
 80159  1  0  0  0
 81 85  1  0  0  0
 81160  1  0  0  0
 81161  1  0  0  0
 82 83  1  0  0  0
 82 84  1  0  0  0
 82162  1  0  0  0
 82163  1  0  0  0
 83 86  1  0  0  0
 83164  1  0  0  0
 83165  1  0  0  0
 84 88  1  0  0  0
 84166  1  0  0  0
 84167  1  0  0  0
 85168  1  0  0  0
 85169  1  0  0  0
 85 89  1  0  0  0
 86 89  1  0  0  0
 86170  1  0  0  0
 86171  1  0  0  0
 87172  1  0  0  0
 87173  1  0  0  0
 88174  1  0  0  0
 89175  1  0  0  0
M  CHG  1  89   1
M  ISO  4   1 100  68 101  87 101  88 100
M  END
> <chiral flag>
0

> <version>
0

> <s_m_source_file>
/data/baiqing/PycharmProjects/Reinvent-master-3.2/result/LINK_invent/BTK/process_docking_weight1_custom_sum_contain_oxygen_bond_distance_aromatic_linkinvent_7_9_3/rearranged_h_0020.sdf

> <i_m_source_file_index>
71

> <r_mmod_Potential_Energy-OPLS-2005>
624.359497070312

> <r_mmod_Stretch_Energy-OPLS-2005>
76.1221389770508

> <r_mmod_Bend_Energy-OPLS-2005>
219.135177612305

> <r_mmod_Torsional_Energy-OPLS-2005>
435.071014404297

> <r_mmod_Improper_Torsional_Energy-OPLS-2005>
15.9669427871704

> <r_mmod_Van_der_Waal_Energy-OPLS-2005>
191.698577880859

> <r_mmod_Electrostatic_Energy-OPLS-2005>
-277.296844482422

> <r_mmod_Solvation_Energy-OPLS-2005>
-430.266082763672

> <b_mmod_Minimization_Converged-OPLS-2005>
0

> <r_mmod_RMS_Derivative-OPLS-2005>
34.3461265563965

$$$$
71
                    3D
 Structure written by MMmdl.
166174  0  0  1  0            999 V2000
  -30.7410  -14.5310   20.5882 C   0  0  0  0  0  0
  -30.4146  -12.3561   19.4381 C   0  0  0  0  0  0
  -29.4901  -12.4998   18.2135 C   0  0  0  0  0  0
  -28.0198  -12.3162   18.6308 C   0  0  0  0  0  0
  -27.6472  -13.1905   19.8525 C   0  0  2  0  0  0
  -28.6936  -13.0593   20.9881 C   0  0  0  0  0  0
  -25.2572  -13.8108   20.5671 C   0  0  0  0  0  0
  -24.1820  -13.0412   20.9195 C   0  0  0  0  0  0
  -24.6359  -11.6873   20.8757 C   0  0  0  0  0  0
  -23.9028  -10.4274   21.0425 C   0  0  0  0  0  0
  -24.3591   -9.4189   21.9196 C   0  0  0  0  0  0
  -23.6273   -8.2223   22.0756 C   0  0  0  0  0  0
  -22.4256   -8.0267   21.3543 C   0  0  0  0  0  0
  -21.9888   -9.0240   20.4648 C   0  0  0  0  0  0
  -22.7209  -10.2123   20.3066 C   0  0  0  0  0  0
  -21.6841   -6.0728   22.5279 C   0  0  0  0  0  0
  -21.4002   -6.5635   23.8211 C   0  0  0  0  0  0
  -21.3662   -5.6791   24.9176 C   0  0  0  0  0  0
  -21.6046   -4.3053   24.7226 C   0  0  0  0  0  0
  -21.8818   -3.8144   23.4348 C   0  0  0  0  0  0
  -21.9187   -4.6958   22.3403 C   0  0  0  0  0  0
  -22.7852  -13.5231   21.1863 C   0  0  0  0  0  0
  -22.1658   -4.2146   21.0980 F   0  0  0  0  0  0
  -21.5637   -3.4539   25.7740 F   0  0  0  0  0  0
  -30.0200  -13.3746   20.4346 N   0  0  0  0  0  0
  -26.2952  -12.9230   20.3278 N   0  0  0  0  0  0
  -25.9268  -11.6418   20.5754 N   0  0  0  0  0  0
  -22.0487  -12.8232   22.0421 N   0  0  0  0  0  0
  -25.4313  -15.1826   20.4079 N   0  0  0  0  0  0
  -31.8545  -14.6506   20.0670 O   0  0  0  0  0  0
  -21.6623   -6.8867   21.4238 O   0  0  0  0  0  0
  -22.3549  -14.5541   20.6711 O   0  0  0  0  0  0
  -24.6178  -31.8661   23.2082 C   0  0  0  0  0  0
  -25.9058  -32.4815   23.8386 C   0  0  1  0  0  0
  -27.2302  -27.3997   20.1022 C   0  0  0  0  0  0
  -25.5895  -33.8612   24.2310 N   0  0  0  0  0  0
  -23.4069  -30.4904   21.5499 C   0  0  2  0  0  0
  -24.8528  -28.9568   20.1116 C   0  0  0  0  0  0
  -22.7428  -29.4649   22.4978 C   0  0  0  0  0  0
  -18.0272  -28.1381   22.8493 C   0  0  0  0  0  0
  -24.1488  -36.7316   23.2638 C   0  0  0  0  0  0
  -25.9396  -30.8222   21.3667 C   0  0  0  0  0  0
  -26.0160  -29.4556   20.7109 C   0  0  0  0  0  0
  -27.2068  -28.6860   20.7003 C   0  0  0  0  0  0
  -26.0456  -26.9320   19.4850 C   0  0  0  0  0  0
  -24.8650  -27.6965   19.4933 C   0  0  0  0  0  0
  -23.6162  -29.8260   20.1637 C   0  0  0  0  0  0
  -25.4109  -36.3107   24.0333 C   0  0  1  0  0  0
  -20.5867  -28.3672   23.1313 C   0  0  2  0  0  0
  -20.6768  -26.9404   22.5419 C   0  0  0  0  0  0
  -19.5743  -26.6384   21.5219 C   0  0  0  0  0  0
  -18.1921  -26.7926   22.1628 C   0  0  0  0  0  0
  -19.1523  -28.8842   23.2900 C   0  0  0  0  0  0
  -18.9452  -30.1448   23.8911 C   0  0  0  0  0  0
  -17.6455  -30.6590   24.0565 C   0  0  0  0  0  0
  -25.9037  -34.9472   23.5123 C   0  0  0  0  0  0
  -16.5343  -29.9091   23.6327 C   0  0  0  0  0  0
  -16.7262  -28.6508   23.0349 C   0  0  0  0  0  0
  -26.4468  -31.6602   25.0727 C   0  0  0  0  0  0
  -25.3717  -31.3717   26.1464 C   0  0  0  0  0  0
  -27.0307  -30.3039   24.6126 C   0  0  0  0  0  0
  -27.6043  -32.4326   25.7489 C   0  0  0  0  0  0
  -27.5584  -37.1810   24.8462 C   0  0  0  0  0  0
  -21.4151  -29.3035   22.3721 N   0  0  0  0  0  0
  -26.4295  -37.3792   23.9405 N   0  0  0  0  0  0
  -24.6732  -31.0742   22.0997 N   0  0  0  0  0  0
  -23.4189  -28.8189   23.3027 O   0  0  0  0  0  0
  -28.3868  -26.6306   20.1441 O   0  0  0  0  0  0
  -26.5611  -34.8929   22.4692 O   0  0  0  0  0  0
  -23.5360  -32.1423   23.7459 O   0  0  0  0  0  0
  -28.5205  -22.0209   21.2294 C   0  0  0  0  0  0
  -31.4023  -17.7487   21.8833 C   0  0  0  0  0  0
  -29.1541  -17.7611   20.8927 C   0  0  0  0  0  0
  -31.2138  -16.2617   22.2864 C   0  0  0  0  0  0
  -29.0008  -16.2517   21.2425 C   0  0  0  0  0  0
  -30.0603  -18.5181   21.8850 C   0  0  0  0  0  0
  -31.2828  -20.7210   22.4901 C   0  0  0  0  0  0
  -28.0568  -20.3647   22.9603 C   0  0  0  0  0  0
  -29.4693  -22.8354   20.3139 C   0  0  0  0  0  0
  -29.4614  -24.3928   20.5327 C   0  0  0  0  0  0
  -28.2468  -25.1964   19.9844 C   0  0  0  0  0  0
  -30.1645  -20.0862   21.6344 C   0  0  2  0  0  0
  -30.2791  -15.5225   21.4127 N   0  0  0  0  0  0
  -28.9060  -20.8644   21.8628 N   0  0  0  0  0  0
  -27.3877  -22.4854   21.3908 O   0  0  0  0  0  0
  -31.4576  -12.4440   19.1293 H   0  0  0  0  0  0
  -30.3245  -11.3580   19.8694 H   0  0  0  0  0  0
  -29.7551  -11.7660   17.4514 H   0  0  0  0  0  0
  -29.6272  -13.4813   17.7569 H   0  0  0  0  0  0
  -27.8687  -11.2623   18.8680 H   0  0  0  0  0  0
  -27.3579  -12.5363   17.7922 H   0  0  0  0  0  0
  -27.6477  -14.2019   19.4613 H   0  0  0  0  0  0
  -28.6957  -12.0428   21.3835 H   0  0  0  0  0  0
  -28.4350  -13.6958   21.8336 H   0  0  0  0  0  0
  -25.2739   -9.5665   22.4766 H   0  0  0  0  0  0
  -23.9987   -7.4609   22.7467 H   0  0  0  0  0  0
  -21.0823   -8.8756   19.8949 H   0  0  0  0  0  0
  -22.3672  -10.9665   19.6175 H   0  0  0  0  0  0
  -21.1985   -7.6142   23.9712 H   0  0  0  0  0  0
  -21.1490   -6.0523   25.9080 H   0  0  0  0  0  0
  -22.0596   -2.7606   23.2847 H   0  0  0  0  0  0
  -22.4092  -11.9885   22.4804 H   0  0  0  0  0  0
  -21.1112  -13.1271   22.2633 H   0  0  0  0  0  0
  -24.6668  -15.8391   20.5232 H   0  0  0  0  0  0
  -26.2858  -15.6223   20.0925 H   0  0  0  0  0  0
  -26.7134  -32.5519   23.1152 H   0  0  0  0  0  0
  -25.0017  -33.9766   25.0438 H   0  0  0  0  0  0
  -22.6967  -31.3083   21.4124 H   0  0  0  0  0  0
  -23.3745  -35.9656   23.3305 H   0  0  0  0  0  0
  -24.3577  -36.8928   22.2051 H   0  0  0  0  0  0
  -23.7250  -37.6525   23.6657 H   0  0  0  0  0  0
  -26.0570  -31.5886   20.5992 H   0  0  0  0  0  0
  -26.8255  -30.8732   21.9883 H   0  0  0  0  0  0
  -28.1020  -29.0648   21.1739 H   0  0  0  0  0  0
  -26.0082  -25.9710   18.9933 H   0  0  0  0  0  0
  -23.9723  -27.3088   19.0217 H   0  0  0  0  0  0
  -23.7248  -30.6024   19.4056 H   0  0  0  0  0  0
  -22.7391  -29.2474   19.8679 H   0  0  0  0  0  0
  -25.1288  -36.1969   25.0827 H   0  0  0  0  0  0
  -20.9955  -28.3243   24.1434 H   0  0  0  0  0  0
  -20.5680  -26.2275   23.3608 H   0  0  0  0  0  0
  -21.6638  -26.7454   22.1205 H   0  0  0  0  0  0
  -19.6903  -25.6297   21.1243 H   0  0  0  0  0  0
  -19.6685  -27.3203   20.6757 H   0  0  0  0  0  0
  -17.4191  -26.6673   21.4030 H   0  0  0  0  0  0
  -18.0317  -26.0070   22.9024 H   0  0  0  0  0  0
  -19.7928  -30.7256   24.2289 H   0  0  0  0  0  0
  -17.5012  -31.6272   24.5163 H   0  0  0  0  0  0
  -15.5346  -30.2999   23.7648 H   0  0  0  0  0  0
  -15.8658  -28.0836   22.7055 H   0  0  0  0  0  0
  -24.5889  -30.7072   25.7785 H   0  0  0  0  0  0
  -24.8910  -32.2878   26.4908 H   0  0  0  0  0  0
  -25.8048  -30.8878   27.0225 H   0  0  0  0  0  0
  -26.2866  -29.6794   24.1167 H   0  0  0  0  0  0
  -27.4049  -29.7281   25.4600 H   0  0  0  0  0  0
  -27.8711  -30.4345   23.9305 H   0  0  0  0  0  0
  -27.2661  -33.3616   26.2089 H   0  0  0  0  0  0
  -28.3837  -32.6896   25.0304 H   0  0  0  0  0  0
  -28.0730  -31.8437   26.5381 H   0  0  0  0  0  0
  -28.2599  -38.0110   24.7512 H   0  0  0  0  0  0
  -28.1081  -36.2640   24.6284 H   0  0  0  0  0  0
  -27.2299  -37.1452   25.8863 H   0  0  0  0  0  0
  -20.9312  -29.8761   21.6945 H   0  0  0  0  0  0
  -26.0184  -38.2870   24.1405 H   0  0  0  0  0  0
  -31.8778  -17.8174   20.9036 H   0  0  0  0  0  0
  -32.0999  -18.1915   22.5933 H   0  0  0  0  0  0
  -28.1660  -18.2200   20.8563 H   0  0  0  0  0  0
  -29.5604  -17.8588   19.8848 H   0  0  0  0  0  0
  -30.8294  -16.2071   23.3058 H   0  0  0  0  0  0
  -32.1904  -15.7745   22.3263 H   0  0  0  0  0  0
  -28.4094  -15.8153   20.4499 H   0  0  0  0  0  0
  -28.4183  -16.1427   22.1583 H   0  0  0  0  0  0
  -29.6569  -18.3549   22.8830 H   0  0  0  0  0  0
  -32.2701  -20.3972   22.1608 H   0  0  0  0  0  0
  -31.1764  -20.4514   23.5414 H   0  0  0  0  0  0
  -31.2836  -21.8092   22.4396 H   0  0  0  0  0  0
  -27.4432  -19.5270   22.6306 H   0  0  0  0  0  0
  -27.3821  -21.1151   23.3745 H   0  0  0  0  0  0
  -28.6620  -20.0435   23.8077 H   0  0  0  0  0  0
  -29.2142  -22.6094   19.2787 H   0  0  0  0  0  0
  -30.4917  -22.4888   20.4422 H   0  0  0  0  0  0
  -30.3601  -24.7967   20.0664 H   0  0  0  0  0  0
  -29.5698  -24.6008   21.5977 H   0  0  0  0  0  0
  -27.3488  -24.8576   20.5009 H   0  0  0  0  0  0
  -28.1162  -24.9719   18.9249 H   0  0  0  0  0  0
  -30.4404  -20.2136   20.5862 H   0  0  0  0  0  0
  1 25  1  0  0  0
  1 30  2  0  0  0
  1 83  1  0  0  0
  2  3  1  0  0  0
  2 25  1  0  0  0
  2 86  1  0  0  0
  2 87  1  0  0  0
  3  4  1  0  0  0
  3 88  1  0  0  0
  3 89  1  0  0  0
  4  5  1  0  0  0
  4 90  1  0  0  0
  4 91  1  0  0  0
  5  6  1  0  0  0
  5 26  1  0  0  0
  5 92  1  0  0  0
  6 25  1  0  0  0
  6 93  1  0  0  0
  6 94  1  0  0  0
  7  8  2  0  0  0
  7 26  1  0  0  0
  7 29  1  0  0  0
  8  9  1  0  0  0
  8 22  1  0  0  0
  9 10  1  0  0  0
  9 27  2  0  0  0
 10 11  2  0  0  0
 10 15  1  0  0  0
 11 12  1  0  0  0
 11 95  1  0  0  0
 12 13  2  0  0  0
 12 96  1  0  0  0
 13 14  1  0  0  0
 13 31  1  0  0  0
 14 15  2  0  0  0
 14 97  1  0  0  0
 15 98  1  0  0  0
 16 17  2  0  0  0
 16 21  1  0  0  0
 16 31  1  0  0  0
 17 18  1  0  0  0
 17 99  1  0  0  0
 18 19  2  0  0  0
 18100  1  0  0  0
 19 20  1  0  0  0
 19 24  1  0  0  0
 20 21  2  0  0  0
 20101  1  0  0  0
 21 23  1  0  0  0
 22 28  1  0  0  0
 22 32  2  0  0  0
 26 27  1  0  0  0
 28102  1  0  0  0
 28103  1  0  0  0
 29104  1  0  0  0
 29105  1  0  0  0
 33 34  1  0  0  0
 33 66  1  0  0  0
 33 70  2  0  0  0
 34 36  1  0  0  0
 34 59  1  0  0  0
 34106  1  0  0  0
 35 44  2  0  0  0
 35 45  1  0  0  0
 35 68  1  0  0  0
 36 56  1  0  0  0
 36107  1  0  0  0
 37 39  1  0  0  0
 37 47  1  0  0  0
 37 66  1  0  0  0
 37108  1  0  0  0
 38 43  2  0  0  0
 38 46  1  0  0  0
 38 47  1  0  0  0
 39 64  1  0  0  0
 39 67  2  0  0  0
 40 52  1  0  0  0
 40 53  2  0  0  0
 40 58  1  0  0  0
 41109  1  0  0  0
 41110  1  0  0  0
 41111  1  0  0  0
 41 48  1  0  0  0
 42 43  1  0  0  0
 42 66  1  0  0  0
 42112  1  0  0  0
 42113  1  0  0  0
 43 44  1  0  0  0
 44114  1  0  0  0
 45 46  2  0  0  0
 45115  1  0  0  0
 46116  1  0  0  0
 47117  1  0  0  0
 47118  1  0  0  0
 48 56  1  0  0  0
 48 65  1  0  0  0
 48119  1  0  0  0
 49 50  1  0  0  0
 49 53  1  0  0  0
 49 64  1  0  0  0
 49120  1  0  0  0
 50 51  1  0  0  0
 50121  1  0  0  0
 50122  1  0  0  0
 51 52  1  0  0  0
 51123  1  0  0  0
 51124  1  0  0  0
 52125  1  0  0  0
 52126  1  0  0  0
 53 54  1  0  0  0
 54 55  2  0  0  0
 54127  1  0  0  0
 55 57  1  0  0  0
 55128  1  0  0  0
 56 69  2  0  0  0
 57 58  2  0  0  0
 57129  1  0  0  0
 58130  1  0  0  0
 59 60  1  0  0  0
 59 61  1  0  0  0
 59 62  1  0  0  0
 60131  1  0  0  0
 60132  1  0  0  0
 60133  1  0  0  0
 61134  1  0  0  0
 61135  1  0  0  0
 61136  1  0  0  0
 62137  1  0  0  0
 62138  1  0  0  0
 62139  1  0  0  0
 63 65  1  0  0  0
 63140  1  0  0  0
 63141  1  0  0  0
 63142  1  0  0  0
 64143  1  0  0  0
 65144  1  0  0  0
 68 81  1  0  0  0
 71 79  1  0  0  0
 71 84  1  0  0  0
 71 85  2  0  0  0
 72 74  1  0  0  0
 72145  1  0  0  0
 72146  1  0  0  0
 72 76  1  0  0  0
 73 75  1  0  0  0
 73 76  1  0  0  0
 73147  1  0  0  0
 73148  1  0  0  0
 74 83  1  0  0  0
 74149  1  0  0  0
 74150  1  0  0  0
 75 83  1  0  0  0
 75151  1  0  0  0
 75152  1  0  0  0
 76 82  1  0  0  0
 76153  1  0  0  0
 77154  1  0  0  0
 77155  1  0  0  0
 77156  1  0  0  0
 77 82  1  0  0  0
 78 84  1  0  0  0
 78157  1  0  0  0
 78158  1  0  0  0
 78159  1  0  0  0
 79 80  1  0  0  0
 79160  1  0  0  0
 79161  1  0  0  0
 80 81  1  0  0  0
 80162  1  0  0  0
 80163  1  0  0  0
 81164  1  0  0  0
 81165  1  0  0  0
 82 84  1  0  0  0
 82166  1  0  0  0
M  ISO  4   1 100  68 101  81 101  83 100
M  END
> <chiral flag>
0

> <version>
0

> <s_m_source_file>
/data/baiqing/PycharmProjects/Reinvent-master-3.2/result/LINK_invent/BTK/process_docking_weight1_custom_sum_contain_oxygen_bond_distance_aromatic_linkinvent_7_9_3/rearranged_h_0020.sdf

> <i_m_source_file_index>
72

> <r_mmod_Potential_Energy-OPLS-2005>
207.257446289062

> <r_mmod_Stretch_Energy-OPLS-2005>
58.1193389892578

> <r_mmod_Bend_Energy-OPLS-2005>
131.392715454102

> <r_mmod_Torsional_Energy-OPLS-2005>
347.749298095703

> <r_mmod_Improper_Torsional_Energy-OPLS-2005>
3.45470929145813

> <r_mmod_Van_der_Waal_Energy-OPLS-2005>
157.59162902832

> <r_mmod_Electrostatic_Energy-OPLS-2005>
-302.623107910156

> <r_mmod_Solvation_Energy-OPLS-2005>
-210.811920166016

> <b_mmod_Minimization_Converged-OPLS-2005>
0

> <r_mmod_RMS_Derivative-OPLS-2005>
0.552414417266846

$$$$
72
                    3D
 Structure written by MMmdl.
159167  0  0  1  0            999 V2000
  -30.5361  -14.8742   20.4239 C   0  0  0  0  0  0
  -30.4479  -12.5308   19.4908 C   0  0  0  0  0  0
  -29.5227  -12.5097   18.2507 C   0  0  0  0  0  0
  -28.0507  -12.3134   18.6667 C   0  0  0  0  0  0
  -27.6359  -13.2349   19.8432 C   0  0  2  0  0  0
  -28.6803  -13.2128   20.9808 C   0  0  0  0  0  0
  -25.2465  -13.8183   20.5657 C   0  0  0  0  0  0
  -24.1763  -13.0435   20.9187 C   0  0  0  0  0  0
  -24.6364  -11.6920   20.8743 C   0  0  0  0  0  0
  -23.9038  -10.4301   21.0417 C   0  0  0  0  0  0
  -24.3601   -9.4218   21.9192 C   0  0  0  0  0  0
  -23.6281   -8.2245   22.0766 C   0  0  0  0  0  0
  -22.4259   -8.0276   21.3542 C   0  0  0  0  0  0
  -21.9887   -9.0254   20.4648 C   0  0  0  0  0  0
  -22.7213  -10.2135   20.3062 C   0  0  0  0  0  0
  -21.6848   -6.0734   22.5271 C   0  0  0  0  0  0
  -21.4029   -6.5638   23.8207 C   0  0  0  0  0  0
  -21.3656   -5.6791   24.9163 C   0  0  0  0  0  0
  -21.6033   -4.3048   24.7223 C   0  0  0  0  0  0
  -21.8823   -3.8138   23.4339 C   0  0  0  0  0  0
  -21.9195   -4.6960   22.3392 C   0  0  0  0  0  0
  -22.7786  -13.5224   21.1838 C   0  0  0  0  0  0
  -22.1654   -4.2144   21.0977 F   0  0  0  0  0  0
  -21.5619   -3.4538   25.7738 F   0  0  0  0  0  0
  -29.9689  -13.6085   20.3956 N   0  0  0  0  0  0
  -26.2898  -12.9399   20.3244 N   0  0  0  0  0  0
  -25.9292  -11.6543   20.5731 N   0  0  0  0  0  0
  -22.0424  -12.8252   22.0422 N   0  0  0  0  0  0
  -25.4108  -15.1895   20.4046 N   0  0  0  0  0  0
  -31.7303  -14.9800   20.1300 O   0  0  0  0  0  0
  -21.6619   -6.8874   21.4232 O   0  0  0  0  0  0
  -22.3480  -14.5522   20.6663 O   0  0  0  0  0  0
  -24.6369  -31.8486   23.1919 C   0  0  0  0  0  0
  -25.9162  -32.4722   23.8292 C   0  0  1  0  0  0
  -27.2233  -27.1963   20.1481 C   0  0  0  0  0  0
  -25.5913  -33.8520   24.2214 N   0  0  0  0  0  0
  -23.4382  -30.4714   21.5347 C   0  0  2  0  0  0
  -24.8860  -28.8965   20.1196 C   0  0  0  0  0  0
  -22.7524  -29.4603   22.4859 C   0  0  0  0  0  0
  -18.0297  -28.1411   22.8486 C   0  0  0  0  0  0
  -24.1481  -36.7276   23.2644 C   0  0  0  0  0  0
  -25.9887  -30.7412   21.3798 C   0  0  0  0  0  0
  -26.0632  -29.3559   20.7269 C   0  0  0  0  0  0
  -27.2366  -28.5226   20.7211 C   0  0  0  0  0  0
  -26.0225  -26.8138   19.5181 C   0  0  0  0  0  0
  -24.8741  -27.6341   19.5041 C   0  0  0  0  0  0
  -23.6632  -29.7967   20.1559 C   0  0  0  0  0  0
  -25.4109  -36.3061   24.0330 C   0  0  1  0  0  0
  -20.5903  -28.3737   23.1238 C   0  0  2  0  0  0
  -20.6778  -26.9441   22.5404 C   0  0  0  0  0  0
  -19.5752  -26.6391   21.5208 C   0  0  0  0  0  0
  -18.1935  -26.7947   22.1626 C   0  0  0  0  0  0
  -19.1555  -28.8890   23.2862 C   0  0  0  0  0  0
  -18.9475  -30.1481   23.8899 C   0  0  0  0  0  0
  -17.6476  -30.6606   24.0576 C   0  0  0  0  0  0
  -25.9060  -34.9432   23.5089 C   0  0  0  0  0  0
  -16.5366  -29.9112   23.6331 C   0  0  0  0  0  0
  -16.7288  -28.6527   23.0357 C   0  0  0  0  0  0
  -26.4489  -31.6571   25.0721 C   0  0  0  0  0  0
  -25.3685  -31.3748   26.1435 C   0  0  0  0  0  0
  -27.0351  -30.2981   24.6265 C   0  0  0  0  0  0
  -27.6042  -32.4317   25.7482 C   0  0  0  0  0  0
  -27.5584  -37.1790   24.8463 C   0  0  0  0  0  0
  -21.4226  -29.3077   22.3611 N   0  0  0  0  0  0
  -26.4282  -37.3772   23.9420 N   0  0  0  0  0  0
  -24.7078  -31.0411   22.0904 N   0  0  0  0  0  0
  -23.4196  -28.8146   23.2992 O   0  0  0  0  0  0
  -28.3040  -26.2657   20.1386 O   0  0  0  0  0  0
  -26.5664  -34.8922   22.4677 O   0  0  0  0  0  0
  -23.5508  -32.1317   23.7190 O   0  0  0  0  0  0
  -30.4065  -19.7977   19.7382 C   0  0  0  0  0  0
  -29.4187  -20.5780   20.4414 C   0  0  0  0  0  0
  -28.5084  -19.7025   21.1408 C   0  0  0  0  0  0
  -29.6871  -17.4958   20.5217 C   0  0  0  0  0  0
  -30.5443  -18.3549   19.7569 C   0  0  0  0  0  0
  -28.6527  -18.2501   21.1781 C   0  0  0  0  0  0
  -27.3414  -20.3005   21.9166 C   0  0  0  0  0  0
  -29.7716  -22.4723   22.1272 C   0  0  0  0  0  0
  -30.8395  -22.6983   19.9342 C   0  0  0  0  0  0
  -28.4296  -23.3516   20.0629 C   0  0  0  0  0  0
  -28.1428  -24.8613   20.7297 C   0  0  0  0  0  0
  -29.5347  -22.2287   20.6178 C   0  0  0  0  0  0
  -29.6859  -15.9739   20.6404 N   0  0  0  0  0  0
  -31.8025  -17.6938   18.7776 Cl  0  0  0  0  0  0
  -27.5100  -17.3325   22.1056 Cl  0  0  0  0  0  0
  -31.4823  -12.6861   19.1804 H   0  0  0  0  0  0
  -30.4341  -11.5692   20.0053 H   0  0  0  0  0  0
  -29.8288  -11.7153   17.5677 H   0  0  0  0  0  0
  -29.6283  -13.4437   17.6968 H   0  0  0  0  0  0
  -27.9317  -11.2711   18.9660 H   0  0  0  0  0  0
  -27.3885  -12.4618   17.8128 H   0  0  0  0  0  0
  -27.6146  -14.2455   19.4353 H   0  0  0  0  0  0
  -28.7450  -12.2221   21.4322 H   0  0  0  0  0  0
  -28.3927  -13.8918   21.7848 H   0  0  0  0  0  0
  -25.2755   -9.5699   22.4760 H   0  0  0  0  0  0
  -23.9987   -7.4645   22.7498 H   0  0  0  0  0  0
  -21.0809   -8.8778   19.8964 H   0  0  0  0  0  0
  -22.3671  -10.9677   19.6168 H   0  0  0  0  0  0
  -21.2039   -7.6151   23.9716 H   0  0  0  0  0  0
  -21.1461   -6.0511   25.9070 H   0  0  0  0  0  0
  -22.0603   -2.7602   23.2834 H   0  0  0  0  0  0
  -22.4007  -11.9936   22.4878 H   0  0  0  0  0  0
  -21.1046  -13.1303   22.2603 H   0  0  0  0  0  0
  -24.6510  -15.8437   20.5548 H   0  0  0  0  0  0
  -26.2618  -15.6416   20.1028 H   0  0  0  0  0  0
  -26.7228  -32.5362   23.1027 H   0  0  0  0  0  0
  -24.9996  -33.9602   25.0325 H   0  0  0  0  0  0
  -22.7408  -31.2976   21.3823 H   0  0  0  0  0  0
  -23.3753  -35.9598   23.3278 H   0  0  0  0  0  0
  -24.3578  -36.8932   22.2066 H   0  0  0  0  0  0
  -23.7209  -37.6455   23.6689 H   0  0  0  0  0  0
  -26.1368  -31.4938   20.6041 H   0  0  0  0  0  0
  -26.8616  -30.7953   22.0193 H   0  0  0  0  0  0
  -28.1408  -28.8728   21.1990 H   0  0  0  0  0  0
  -25.9657  -25.8436   19.0438 H   0  0  0  0  0  0
  -23.9732  -27.2734   19.0274 H   0  0  0  0  0  0
  -23.8036  -30.5670   19.3967 H   0  0  0  0  0  0
  -22.7763  -29.2408   19.8462 H   0  0  0  0  0  0
  -25.1279  -36.1901   25.0821 H   0  0  0  0  0  0
  -21.0017  -28.3328   24.1353 H   0  0  0  0  0  0
  -20.5643  -26.2355   23.3626 H   0  0  0  0  0  0
  -21.6649  -26.7441   22.1224 H   0  0  0  0  0  0
  -19.6897  -25.6290   21.1260 H   0  0  0  0  0  0
  -19.6672  -27.3179   20.6716 H   0  0  0  0  0  0
  -17.4191  -26.6694   21.4038 H   0  0  0  0  0  0
  -18.0354  -26.0089   22.9025 H   0  0  0  0  0  0
  -19.7949  -30.7297   24.2270 H   0  0  0  0  0  0
  -17.5034  -31.6282   24.5185 H   0  0  0  0  0  0
  -15.5372  -30.3028   23.7651 H   0  0  0  0  0  0
  -15.8680  -28.0853   22.7080 H   0  0  0  0  0  0
  -24.5846  -30.7115   25.7752 H   0  0  0  0  0  0
  -24.8890  -32.2929   26.4848 H   0  0  0  0  0  0
  -25.7974  -30.8917   27.0226 H   0  0  0  0  0  0
  -26.2963  -29.6709   24.1268 H   0  0  0  0  0  0
  -27.3978  -29.7279   25.4824 H   0  0  0  0  0  0
  -27.8858  -30.4238   23.9566 H   0  0  0  0  0  0
  -27.2665  -33.3630   26.2035 H   0  0  0  0  0  0
  -28.3858  -32.6847   25.0309 H   0  0  0  0  0  0
  -28.0706  -31.8455   26.5409 H   0  0  0  0  0  0
  -28.2591  -38.0102   24.7555 H   0  0  0  0  0  0
  -28.1093  -36.2642   24.6228 H   0  0  0  0  0  0
  -27.2325  -37.1381   25.8873 H   0  0  0  0  0  0
  -20.9414  -29.8826   21.6835 H   0  0  0  0  0  0
  -26.0157  -38.2841   24.1435 H   0  0  0  0  0  0
  -31.1573  -20.3101   19.1568 H   0  0  0  0  0  0
  -27.1897  -21.3562   21.7170 H   0  0  0  0  0  0
  -27.4970  -20.1779   22.9891 H   0  0  0  0  0  0
  -26.4068  -19.8097   21.6471 H   0  0  0  0  0  0
  -30.4996  -21.7643   22.5272 H   0  0  0  0  0  0
  -28.8680  -22.3782   22.7260 H   0  0  0  0  0  0
  -30.1792  -23.4630   22.3229 H   0  0  0  0  0  0
  -31.7249  -22.2130   20.3481 H   0  0  0  0  0  0
  -30.9847  -23.7735   20.0541 H   0  0  0  0  0  0
  -30.8202  -22.5096   18.8598 H   0  0  0  0  0  0
  -28.5628  -23.4854   18.9882 H   0  0  0  0  0  0
  -27.4652  -22.8498   20.1120 H   0  0  0  0  0  0
  -28.6958  -24.9160   21.6642 H   0  0  0  0  0  0
  -27.1108  -24.8160   21.0798 H   0  0  0  0  0  0
  -28.7915  -15.6490   20.9745 H   0  0  0  0  0  0
  1 25  1  0  0  0
  1 30  2  0  0  0
  1 83  1  0  0  0
  2  3  1  0  0  0
  2 25  1  0  0  0
  2 86  1  0  0  0
  2 87  1  0  0  0
  3  4  1  0  0  0
  3 88  1  0  0  0
  3 89  1  0  0  0
  4  5  1  0  0  0
  4 90  1  0  0  0
  4 91  1  0  0  0
  5  6  1  0  0  0
  5 26  1  0  0  0
  5 92  1  0  0  0
  6 25  1  0  0  0
  6 93  1  0  0  0
  6 94  1  0  0  0
  7  8  2  0  0  0
  7 26  1  0  0  0
  7 29  1  0  0  0
  8  9  1  0  0  0
  8 22  1  0  0  0
  9 10  1  0  0  0
  9 27  2  0  0  0
 10 11  2  0  0  0
 10 15  1  0  0  0
 11 12  1  0  0  0
 11 95  1  0  0  0
 12 13  2  0  0  0
 12 96  1  0  0  0
 13 14  1  0  0  0
 13 31  1  0  0  0
 14 15  2  0  0  0
 14 97  1  0  0  0
 15 98  1  0  0  0
 16 17  2  0  0  0
 16 21  1  0  0  0
 16 31  1  0  0  0
 17 18  1  0  0  0
 17 99  1  0  0  0
 18 19  2  0  0  0
 18100  1  0  0  0
 19 20  1  0  0  0
 19 24  1  0  0  0
 20 21  2  0  0  0
 20101  1  0  0  0
 21 23  1  0  0  0
 22 28  1  0  0  0
 22 32  2  0  0  0
 26 27  1  0  0  0
 28102  1  0  0  0
 28103  1  0  0  0
 29104  1  0  0  0
 29105  1  0  0  0
 33 34  1  0  0  0
 33 66  1  0  0  0
 33 70  2  0  0  0
 34 36  1  0  0  0
 34 59  1  0  0  0
 34106  1  0  0  0
 35 44  2  0  0  0
 35 45  1  0  0  0
 35 68  1  0  0  0
 36 56  1  0  0  0
 36107  1  0  0  0
 37 39  1  0  0  0
 37 47  1  0  0  0
 37 66  1  0  0  0
 37108  1  0  0  0
 38 43  2  0  0  0
 38 46  1  0  0  0
 38 47  1  0  0  0
 39 64  1  0  0  0
 39 67  2  0  0  0
 40 52  1  0  0  0
 40 53  2  0  0  0
 40 58  1  0  0  0
 41109  1  0  0  0
 41110  1  0  0  0
 41111  1  0  0  0
 41 48  1  0  0  0
 42 43  1  0  0  0
 42 66  1  0  0  0
 42112  1  0  0  0
 42113  1  0  0  0
 43 44  1  0  0  0
 44114  1  0  0  0
 45 46  2  0  0  0
 45115  1  0  0  0
 46116  1  0  0  0
 47117  1  0  0  0
 47118  1  0  0  0
 48 56  1  0  0  0
 48 65  1  0  0  0
 48119  1  0  0  0
 49 50  1  0  0  0
 49 53  1  0  0  0
 49 64  1  0  0  0
 49120  1  0  0  0
 50 51  1  0  0  0
 50121  1  0  0  0
 50122  1  0  0  0
 51 52  1  0  0  0
 51123  1  0  0  0
 51124  1  0  0  0
 52125  1  0  0  0
 52126  1  0  0  0
 53 54  1  0  0  0
 54 55  2  0  0  0
 54127  1  0  0  0
 55 57  1  0  0  0
 55128  1  0  0  0
 56 69  2  0  0  0
 57 58  2  0  0  0
 57129  1  0  0  0
 58130  1  0  0  0
 59 60  1  0  0  0
 59 61  1  0  0  0
 59 62  1  0  0  0
 60131  1  0  0  0
 60132  1  0  0  0
 60133  1  0  0  0
 61134  1  0  0  0
 61135  1  0  0  0
 61136  1  0  0  0
 62137  1  0  0  0
 62138  1  0  0  0
 62139  1  0  0  0
 63 65  1  0  0  0
 63140  1  0  0  0
 63141  1  0  0  0
 63142  1  0  0  0
 64143  1  0  0  0
 65144  1  0  0  0
 68 81  1  0  0  0
 71 72  2  0  0  0
 71 75  1  0  0  0
 71145  1  0  0  0
 72 73  1  0  0  0
 72 82  1  0  0  0
 73 76  2  0  0  0
 73 77  1  0  0  0
 74 75  2  0  0  0
 74 76  1  0  0  0
 74 83  1  0  0  0
 75 84  1  0  0  0
 76 85  1  0  0  0
 77146  1  0  0  0
 77147  1  0  0  0
 77148  1  0  0  0
 78149  1  0  0  0
 78150  1  0  0  0
 78151  1  0  0  0
 78 82  1  0  0  0
 79 82  1  0  0  0
 79152  1  0  0  0
 79153  1  0  0  0
 79154  1  0  0  0
 80 81  1  0  0  0
 80 82  1  0  0  0
 80155  1  0  0  0
 80156  1  0  0  0
 81157  1  0  0  0
 81158  1  0  0  0
 83159  1  0  0  0
M  ISO  4   1 100  68 101  81 101  83 100
M  END
> <chiral flag>
0

> <version>
0

> <s_m_source_file>
/data/baiqing/PycharmProjects/Reinvent-master-3.2/result/LINK_invent/BTK/process_docking_weight1_custom_sum_contain_oxygen_bond_distance_aromatic_linkinvent_7_9_3/rearranged_h_0020.sdf

> <i_m_source_file_index>
73

> <r_mmod_Potential_Energy-OPLS-2005>
391.976257324219

> <r_mmod_Stretch_Energy-OPLS-2005>
207.777679443359

> <r_mmod_Bend_Energy-OPLS-2005>
271.550659179688

> <r_mmod_Torsional_Energy-OPLS-2005>
263.779571533203

> <r_mmod_Improper_Torsional_Energy-OPLS-2005>
4.86742115020752

> <r_mmod_Van_der_Waal_Energy-OPLS-2005>
144.666854858398

> <r_mmod_Electrostatic_Energy-OPLS-2005>
-442.589080810547

> <r_mmod_Solvation_Energy-OPLS-2005>
-198.438690185547

> <b_mmod_Minimization_Converged-OPLS-2005>
0

> <r_mmod_RMS_Derivative-OPLS-2005>
2.31487059593201

$$$$
73
                    3D
 Structure written by MMmdl.
159167  0  0  1  0            999 V2000
  -30.6146  -14.6828   20.4854 C   0  0  0  0  0  0
  -30.4327  -12.4198   19.4505 C   0  0  0  0  0  0
  -29.5064  -12.5065   18.2189 C   0  0  0  0  0  0
  -28.0299  -12.3344   18.6347 C   0  0  0  0  0  0
  -27.6425  -13.2232   19.8480 C   0  0  2  0  0  0
  -28.6887  -13.1177   20.9780 C   0  0  0  0  0  0
  -25.2510  -13.8186   20.5672 C   0  0  0  0  0  0
  -24.1804  -13.0438   20.9218 C   0  0  0  0  0  0
  -24.6377  -11.6911   20.8743 C   0  0  0  0  0  0
  -23.9049  -10.4292   21.0403 C   0  0  0  0  0  0
  -24.3608   -9.4209   21.9184 C   0  0  0  0  0  0
  -23.6291   -8.2236   22.0749 C   0  0  0  0  0  0
  -22.4273   -8.0278   21.3540 C   0  0  0  0  0  0
  -21.9901   -9.0246   20.4652 C   0  0  0  0  0  0
  -22.7219  -10.2126   20.3054 C   0  0  0  0  0  0
  -21.6845   -6.0731   22.5288 C   0  0  0  0  0  0
  -21.4013   -6.5633   23.8222 C   0  0  0  0  0  0
  -21.3658   -5.6789   24.9186 C   0  0  0  0  0  0
  -21.6044   -4.3048   24.7236 C   0  0  0  0  0  0
  -21.8819   -3.8141   23.4355 C   0  0  0  0  0  0
  -21.9189   -4.6961   22.3408 C   0  0  0  0  0  0
  -22.7823  -13.5220   21.1889 C   0  0  0  0  0  0
  -22.1660   -4.2143   21.0988 F   0  0  0  0  0  0
  -21.5627   -3.4534   25.7745 F   0  0  0  0  0  0
  -29.9924  -13.4640   20.3976 N   0  0  0  0  0  0
  -26.2924  -12.9377   20.3247 N   0  0  0  0  0  0
  -25.9302  -11.6523   20.5726 N   0  0  0  0  0  0
  -22.0450  -12.8213   22.0431 N   0  0  0  0  0  0
  -25.4180  -15.1913   20.4088 N   0  0  0  0  0  0
  -31.7998  -14.8043   20.1600 O   0  0  0  0  0  0
  -21.6635   -6.8875   21.4246 O   0  0  0  0  0  0
  -22.3511  -14.5518   20.6721 O   0  0  0  0  0  0
  -24.6269  -31.8585   23.1981 C   0  0  0  0  0  0
  -25.9119  -32.4757   23.8318 C   0  0  1  0  0  0
  -27.2209  -27.2974   20.1340 C   0  0  0  0  0  0
  -25.5945  -33.8560   24.2266 N   0  0  0  0  0  0
  -23.4223  -30.4817   21.5381 C   0  0  2  0  0  0
  -24.8713  -28.9291   20.1089 C   0  0  0  0  0  0
  -22.7470  -29.4633   22.4883 C   0  0  0  0  0  0
  -18.0283  -28.1407   22.8482 C   0  0  0  0  0  0
  -24.1493  -36.7276   23.2644 C   0  0  0  0  0  0
  -25.9637  -30.7826   21.3723 C   0  0  0  0  0  0
  -26.0381  -29.4050   20.7219 C   0  0  0  0  0  0
  -27.2188  -28.6010   20.7237 C   0  0  0  0  0  0
  -26.0382  -26.8801   19.4898 C   0  0  0  0  0  0
  -24.8735  -27.6731   19.4813 C   0  0  0  0  0  0
  -23.6407  -29.8137   20.1541 C   0  0  0  0  0  0
  -25.4126  -36.3069   24.0331 C   0  0  1  0  0  0
  -20.5884  -28.3719   23.1275 C   0  0  2  0  0  0
  -20.6774  -26.9433   22.5429 C   0  0  0  0  0  0
  -19.5771  -26.6408   21.5209 C   0  0  0  0  0  0
  -18.1930  -26.7966   22.1591 C   0  0  0  0  0  0
  -19.1534  -28.8874   23.2879 C   0  0  0  0  0  0
  -18.9463  -30.1474   23.8896 C   0  0  0  0  0  0
  -17.6463  -30.6594   24.0579 C   0  0  0  0  0  0
  -25.9063  -34.9439   23.5101 C   0  0  0  0  0  0
  -16.5356  -29.9104   23.6330 C   0  0  0  0  0  0
  -16.7267  -28.6532   23.0331 C   0  0  0  0  0  0
  -26.4508  -31.6562   25.0684 C   0  0  0  0  0  0
  -25.3766  -31.3796   26.1458 C   0  0  0  0  0  0
  -27.0261  -30.2947   24.6141 C   0  0  0  0  0  0
  -27.6129  -32.4248   25.7396 C   0  0  0  0  0  0
  -27.5580  -37.1802   24.8466 C   0  0  0  0  0  0
  -21.4181  -29.3060   22.3630 N   0  0  0  0  0  0
  -26.4299  -37.3761   23.9394 N   0  0  0  0  0  0
  -24.6891  -31.0593   22.0922 N   0  0  0  0  0  0
  -23.4182  -28.8180   23.2969 O   0  0  0  0  0  0
  -28.3232  -26.4258   20.1507 O   0  0  0  0  0  0
  -26.5598  -34.8917   22.4648 O   0  0  0  0  0  0
  -23.5437  -32.1376   23.7319 O   0  0  0  0  0  0
  -31.2960  -18.7306   22.5745 C   0  0  0  0  0  0
  -30.7907  -19.8598   21.8994 C   0  0  0  0  0  0
  -30.9862  -17.4123   22.1947 C   0  0  0  0  0  0
  -29.8624  -19.7188   20.8290 C   0  0  0  0  0  0
  -30.1472  -17.1741   21.0757 C   0  0  0  0  0  0
  -29.5645  -18.3435   20.4326 C   0  0  0  0  0  0
  -31.3291  -21.2054   22.3553 C   0  0  0  0  0  0
  -31.5597  -16.2849   23.0435 C   0  0  0  0  0  0
  -29.3577  -21.0185   20.0403 C   0  0  0  0  0  0
  -28.7549  -22.3427   20.7505 C   0  0  0  0  0  0
  -28.8062  -23.7648   19.9885 C   0  0  0  0  0  0
  -28.1137  -25.0430   20.6725 C   0  0  0  0  0  0
  -29.8132  -15.7845   20.7050 N   0  0  0  0  0  0
  -28.4922  -18.0617   19.1045 Cl  0  0  0  0  0  0
  -31.4738  -12.5466   19.1488 H   0  0  0  0  0  0
  -30.3723  -11.4321   19.9121 H   0  0  0  0  0  0
  -29.7811  -11.7491   17.4831 H   0  0  0  0  0  0
  -29.6387  -13.4718   17.7267 H   0  0  0  0  0  0
  -27.8795  -11.2845   18.8872 H   0  0  0  0  0  0
  -27.3711  -12.5384   17.7891 H   0  0  0  0  0  0
  -27.6465  -14.2507   19.4833 H   0  0  0  0  0  0
  -28.7134  -12.1078   21.3898 H   0  0  0  0  0  0
  -28.4334  -13.7779   21.8089 H   0  0  0  0  0  0
  -25.2760   -9.5681   22.4746 H   0  0  0  0  0  0
  -24.0011   -7.4615   22.7443 H   0  0  0  0  0  0
  -21.0830   -8.8756   19.8954 H   0  0  0  0  0  0
  -22.3682  -10.9657   19.6146 H   0  0  0  0  0  0
  -21.2002   -7.6145   23.9727 H   0  0  0  0  0  0
  -21.1479   -6.0519   25.9090 H   0  0  0  0  0  0
  -22.0594   -2.7608   23.2854 H   0  0  0  0  0  0
  -22.4038  -11.9868   22.4832 H   0  0  0  0  0  0
  -21.1063  -13.1239   22.2619 H   0  0  0  0  0  0
  -24.6392  -15.8346   20.5074 H   0  0  0  0  0  0
  -26.2559  -15.6373   20.0586 H   0  0  0  0  0  0
  -26.7180  -32.5422   23.1058 H   0  0  0  0  0  0
  -25.0163  -33.9702   25.0462 H   0  0  0  0  0  0
  -22.7175  -31.3033   21.3929 H   0  0  0  0  0  0
  -23.3780  -35.9576   23.3263 H   0  0  0  0  0  0
  -24.3600  -36.8937   22.2066 H   0  0  0  0  0  0
  -23.7210  -37.6451   23.6697 H   0  0  0  0  0  0
  -26.0970  -31.5423   20.6003 H   0  0  0  0  0  0
  -26.8431  -30.8367   22.0014 H   0  0  0  0  0  0
  -28.1121  -28.9605   21.2146 H   0  0  0  0  0  0
  -26.0072  -25.9194   18.9956 H   0  0  0  0  0  0
  -23.9837  -27.3068   18.9869 H   0  0  0  0  0  0
  -23.7642  -30.5887   19.3969 H   0  0  0  0  0  0
  -22.7597  -29.2467   19.8484 H   0  0  0  0  0  0
  -25.1316  -36.1911   25.0823 H   0  0  0  0  0  0
  -20.9996  -28.3308   24.1393 H   0  0  0  0  0  0
  -20.5654  -26.2333   23.3639 H   0  0  0  0  0  0
  -21.6648  -26.7445   22.1247 H   0  0  0  0  0  0
  -19.6937  -25.6317   21.1238 H   0  0  0  0  0  0
  -19.6742  -27.3219   20.6739 H   0  0  0  0  0  0
  -17.4235  -26.6749   21.3953 H   0  0  0  0  0  0
  -18.0297  -26.0091   22.8966 H   0  0  0  0  0  0
  -19.7937  -30.7290   24.2263 H   0  0  0  0  0  0
  -17.5023  -31.6262   24.5211 H   0  0  0  0  0  0
  -15.5357  -30.3010   23.7674 H   0  0  0  0  0  0
  -15.8671  -28.0870   22.7016 H   0  0  0  0  0  0
  -24.5841  -30.7245   25.7837 H   0  0  0  0  0  0
  -24.9094  -32.3023   26.4910 H   0  0  0  0  0  0
  -25.8100  -30.8933   27.0208 H   0  0  0  0  0  0
  -26.2763  -29.6712   24.1258 H   0  0  0  0  0  0
  -27.4018  -29.7207   25.4621 H   0  0  0  0  0  0
  -27.8650  -30.4165   23.9284 H   0  0  0  0  0  0
  -27.2852  -33.3664   26.1812 H   0  0  0  0  0  0
  -28.4006  -32.6575   25.0217 H   0  0  0  0  0  0
  -28.0692  -31.8421   26.5408 H   0  0  0  0  0  0
  -28.2656  -38.0035   24.7400 H   0  0  0  0  0  0
  -28.0998  -36.2560   24.6401 H   0  0  0  0  0  0
  -27.2296  -37.1594   25.8870 H   0  0  0  0  0  0
  -20.9342  -29.8803   21.6868 H   0  0  0  0  0  0
  -26.0179  -38.2843   24.1347 H   0  0  0  0  0  0
  -31.9645  -18.8829   23.4126 H   0  0  0  0  0  0
  -32.3105  -21.0912   22.8165 H   0  0  0  0  0  0
  -30.6773  -21.6532   23.1057 H   0  0  0  0  0  0
  -31.4596  -21.8959   21.5232 H   0  0  0  0  0  0
  -31.9354  -16.6554   23.9977 H   0  0  0  0  0  0
  -32.3914  -15.8002   22.5327 H   0  0  0  0  0  0
  -30.8026  -15.5344   23.2706 H   0  0  0  0  0  0
  -28.6236  -20.7111   19.2968 H   0  0  0  0  0  0
  -30.2169  -21.3355   19.4491 H   0  0  0  0  0  0
  -29.2455  -22.5177   21.7014 H   0  0  0  0  0  0
  -27.7211  -22.1305   21.0257 H   0  0  0  0  0  0
  -28.3730  -23.6421   18.9957 H   0  0  0  0  0  0
  -29.8543  -24.0098   19.8139 H   0  0  0  0  0  0
  -28.4625  -25.0746   21.7058 H   0  0  0  0  0  0
  -27.0483  -24.8280   20.7588 H   0  0  0  0  0  0
  -28.8255  -15.5956   20.6407 H   0  0  0  0  0  0
  1 25  1  0  0  0
  1 30  2  0  0  0
  1 83  1  0  0  0
  2  3  1  0  0  0
  2 25  1  0  0  0
  2 85  1  0  0  0
  2 86  1  0  0  0
  3  4  1  0  0  0
  3 87  1  0  0  0
  3 88  1  0  0  0
  4  5  1  0  0  0
  4 89  1  0  0  0
  4 90  1  0  0  0
  5  6  1  0  0  0
  5 26  1  0  0  0
  5 91  1  0  0  0
  6 25  1  0  0  0
  6 92  1  0  0  0
  6 93  1  0  0  0
  7  8  2  0  0  0
  7 26  1  0  0  0
  7 29  1  0  0  0
  8  9  1  0  0  0
  8 22  1  0  0  0
  9 10  1  0  0  0
  9 27  2  0  0  0
 10 11  2  0  0  0
 10 15  1  0  0  0
 11 12  1  0  0  0
 11 94  1  0  0  0
 12 13  2  0  0  0
 12 95  1  0  0  0
 13 14  1  0  0  0
 13 31  1  0  0  0
 14 15  2  0  0  0
 14 96  1  0  0  0
 15 97  1  0  0  0
 16 17  2  0  0  0
 16 21  1  0  0  0
 16 31  1  0  0  0
 17 18  1  0  0  0
 17 98  1  0  0  0
 18 19  2  0  0  0
 18 99  1  0  0  0
 19 20  1  0  0  0
 19 24  1  0  0  0
 20 21  2  0  0  0
 20100  1  0  0  0
 21 23  1  0  0  0
 22 28  1  0  0  0
 22 32  2  0  0  0
 26 27  1  0  0  0
 28101  1  0  0  0
 28102  1  0  0  0
 29103  1  0  0  0
 29104  1  0  0  0
 33 34  1  0  0  0
 33 66  1  0  0  0
 33 70  2  0  0  0
 34 36  1  0  0  0
 34 59  1  0  0  0
 34105  1  0  0  0
 35 44  2  0  0  0
 35 45  1  0  0  0
 35 68  1  0  0  0
 36 56  1  0  0  0
 36106  1  0  0  0
 37 39  1  0  0  0
 37 47  1  0  0  0
 37 66  1  0  0  0
 37107  1  0  0  0
 38 43  2  0  0  0
 38 46  1  0  0  0
 38 47  1  0  0  0
 39 64  1  0  0  0
 39 67  2  0  0  0
 40 52  1  0  0  0
 40 53  2  0  0  0
 40 58  1  0  0  0
 41108  1  0  0  0
 41109  1  0  0  0
 41110  1  0  0  0
 41 48  1  0  0  0
 42 43  1  0  0  0
 42 66  1  0  0  0
 42111  1  0  0  0
 42112  1  0  0  0
 43 44  1  0  0  0
 44113  1  0  0  0
 45 46  2  0  0  0
 45114  1  0  0  0
 46115  1  0  0  0
 47116  1  0  0  0
 47117  1  0  0  0
 48 56  1  0  0  0
 48 65  1  0  0  0
 48118  1  0  0  0
 49 50  1  0  0  0
 49 53  1  0  0  0
 49 64  1  0  0  0
 49119  1  0  0  0
 50 51  1  0  0  0
 50120  1  0  0  0
 50121  1  0  0  0
 51 52  1  0  0  0
 51122  1  0  0  0
 51123  1  0  0  0
 52124  1  0  0  0
 52125  1  0  0  0
 53 54  1  0  0  0
 54 55  2  0  0  0
 54126  1  0  0  0
 55 57  1  0  0  0
 55127  1  0  0  0
 56 69  2  0  0  0
 57 58  2  0  0  0
 57128  1  0  0  0
 58129  1  0  0  0
 59 60  1  0  0  0
 59 61  1  0  0  0
 59 62  1  0  0  0
 60130  1  0  0  0
 60131  1  0  0  0
 60132  1  0  0  0
 61133  1  0  0  0
 61134  1  0  0  0
 61135  1  0  0  0
 62136  1  0  0  0
 62137  1  0  0  0
 62138  1  0  0  0
 63 65  1  0  0  0
 63139  1  0  0  0
 63140  1  0  0  0
 63141  1  0  0  0
 64142  1  0  0  0
 65143  1  0  0  0
 68 82  1  0  0  0
 71 72  2  0  0  0
 71 73  1  0  0  0
 71144  1  0  0  0
 72 74  1  0  0  0
 72 77  1  0  0  0
 73 75  2  0  0  0
 73 78  1  0  0  0
 74 76  2  0  0  0
 74 79  1  0  0  0
 75 76  1  0  0  0
 75 83  1  0  0  0
 76 84  1  0  0  0
 77145  1  0  0  0
 77146  1  0  0  0
 77147  1  0  0  0
 78148  1  0  0  0
 78149  1  0  0  0
 78150  1  0  0  0
 79 80  1  0  0  0
 79151  1  0  0  0
 79152  1  0  0  0
 80 81  1  0  0  0
 80153  1  0  0  0
 80154  1  0  0  0
 81 82  1  0  0  0
 81155  1  0  0  0
 81156  1  0  0  0
 82157  1  0  0  0
 82158  1  0  0  0
 83159  1  0  0  0
M  ISO  4   1 100  68 101  82 101  83 100
M  END
> <chiral flag>
0

> <version>
0

> <s_m_source_file>
/data/baiqing/PycharmProjects/Reinvent-master-3.2/result/LINK_invent/BTK/process_docking_weight1_custom_sum_contain_oxygen_bond_distance_aromatic_linkinvent_7_9_3/rearranged_h_0020.sdf

> <i_m_source_file_index>
74

> <r_mmod_Potential_Energy-OPLS-2005>
138.280380249023

> <r_mmod_Stretch_Energy-OPLS-2005>
110.767974853516

> <r_mmod_Bend_Energy-OPLS-2005>
150.547485351562

> <r_mmod_Torsional_Energy-OPLS-2005>
250.319549560547

> <r_mmod_Improper_Torsional_Energy-OPLS-2005>
6.52069520950317

> <r_mmod_Van_der_Waal_Energy-OPLS-2005>
146.037902832031

> <r_mmod_Electrostatic_Energy-OPLS-2005>
-395.783050537109

> <r_mmod_Solvation_Energy-OPLS-2005>
-193.048736572266

> <b_mmod_Minimization_Converged-OPLS-2005>
0

> <r_mmod_RMS_Derivative-OPLS-2005>
2.50868225097656

$$$$
74
                    3D
 Structure written by MMmdl.
170178  0  0  1  0            999 V2000
  -30.6869  -14.6837   20.3260 C   0  0  0  0  0  0
  -30.4188  -12.3934   19.4504 C   0  0  0  0  0  0
  -29.4801  -12.3974   18.2248 C   0  0  0  0  0  0
  -28.0158  -12.2062   18.6607 C   0  0  0  0  0  0
  -27.6157  -13.1401   19.8234 C   0  0  2  0  0  0
  -28.6856  -13.1917   20.9403 C   0  0  0  0  0  0
  -25.2504  -13.7944   20.5711 C   0  0  0  0  0  0
  -24.1746  -13.0319   20.9287 C   0  0  0  0  0  0
  -24.6243  -11.6766   20.8880 C   0  0  0  0  0  0
  -23.8924  -10.4201   21.0524 C   0  0  0  0  0  0
  -24.3518   -9.4115   21.9264 C   0  0  0  0  0  0
  -23.6214   -8.2145   22.0783 C   0  0  0  0  0  0
  -22.4196   -8.0217   21.3564 C   0  0  0  0  0  0
  -21.9834   -9.0182   20.4662 C   0  0  0  0  0  0
  -22.7137  -10.2073   20.3115 C   0  0  0  0  0  0
  -21.6801   -6.0692   22.5283 C   0  0  0  0  0  0
  -21.3967   -6.5605   23.8210 C   0  0  0  0  0  0
  -21.3666   -5.6777   24.9188 C   0  0  0  0  0  0
  -21.6064   -4.3045   24.7250 C   0  0  0  0  0  0
  -21.8821   -3.8122   23.4372 C   0  0  0  0  0  0
  -21.9174   -4.6927   22.3417 C   0  0  0  0  0  0
  -22.7795  -13.5177   21.1933 C   0  0  0  0  0  0
  -22.1651   -4.2101   21.0998 F   0  0  0  0  0  0
  -21.5659   -3.4553   25.7776 F   0  0  0  0  0  0
  -29.9924  -13.4959   20.3358 N   0  0  0  0  0  0
  -26.2796  -12.8941   20.3306 N   0  0  0  0  0  0
  -25.9129  -11.6206   20.5914 N   0  0  0  0  0  0
  -22.0413  -12.8184   22.0471 N   0  0  0  0  0  0
  -25.4264  -15.1661   20.4018 N   0  0  0  0  0  0
  -31.9175  -14.6421   20.3046 O   0  0  0  0  0  0
  -21.6578   -6.8817   21.4235 O   0  0  0  0  0  0
  -22.3529  -14.5500   20.6759 O   0  0  0  0  0  0
  -24.6167  -31.8652   23.2054 C   0  0  0  0  0  0
  -25.9048  -32.4815   23.8374 C   0  0  1  0  0  0
  -27.2598  -27.4112   20.0909 C   0  0  0  0  0  0
  -25.5895  -33.8616   24.2313 N   0  0  0  0  0  0
  -23.4075  -30.4849   21.5448 C   0  0  2  0  0  0
  -24.8581  -28.9385   20.1162 C   0  0  0  0  0  0
  -22.7414  -29.4660   22.4975 C   0  0  0  0  0  0
  -18.0276  -28.1375   22.8496 C   0  0  0  0  0  0
  -24.1485  -36.7317   23.2638 C   0  0  0  0  0  0
  -25.9381  -30.8198   21.3621 C   0  0  0  0  0  0
  -26.0164  -29.4502   20.7120 C   0  0  0  0  0  0
  -27.2117  -28.6914   20.6984 C   0  0  0  0  0  0
  -26.0741  -26.9124   19.5012 C   0  0  0  0  0  0
  -24.8822  -27.6676   19.5121 C   0  0  0  0  0  0
  -23.6183  -29.8059   20.1631 C   0  0  0  0  0  0
  -25.4108  -36.3112   24.0337 C   0  0  1  0  0  0
  -20.5867  -28.3675   23.1300 C   0  0  2  0  0  0
  -20.6758  -26.9410   22.5413 C   0  0  0  0  0  0
  -19.5742  -26.6382   21.5195 C   0  0  0  0  0  0
  -18.1924  -26.7920   22.1619 C   0  0  0  0  0  0
  -19.1526  -28.8838   23.2900 C   0  0  0  0  0  0
  -18.9456  -30.1443   23.8916 C   0  0  0  0  0  0
  -17.6467  -30.6587   24.0565 C   0  0  0  0  0  0
  -25.9035  -34.9479   23.5127 C   0  0  0  0  0  0
  -16.5359  -29.9095   23.6320 C   0  0  0  0  0  0
  -16.7266  -28.6506   23.0352 C   0  0  0  0  0  0
  -26.4466  -31.6615   25.0725 C   0  0  0  0  0  0
  -25.3724  -31.3711   26.1466 C   0  0  0  0  0  0
  -27.0318  -30.3069   24.6127 C   0  0  0  0  0  0
  -27.6041  -32.4335   25.7491 C   0  0  0  0  0  0
  -27.5589  -37.1804   24.8458 C   0  0  0  0  0  0
  -21.4141  -29.3050   22.3710 N   0  0  0  0  0  0
  -26.4293  -37.3804   23.9412 N   0  0  0  0  0  0
  -24.6726  -31.0716   22.0962 N   0  0  0  0  0  0
  -23.4160  -28.8203   23.3037 O   0  0  0  0  0  0
  -28.4588  -26.7090   20.1287 O   0  0  0  0  0  0
  -26.5608  -34.8933   22.4695 O   0  0  0  0  0  0
  -23.5347  -32.1422   23.7427 O   0  0  0  0  0  0
  -30.8210  -18.6070   20.0609 C   0  0  0  0  0  0
  -30.8318  -19.6281   21.0587 C   0  0  0  0  0  0
  -30.4990  -17.3796   20.6000 C   0  0  0  0  0  0
  -30.5906  -18.9665   22.2382 C   0  0  0  0  0  0
  -30.5281  -19.5113   23.6359 C   0  0  0  0  0  0
  -32.2146  -21.3336   19.7912 C   0  0  0  0  0  0
  -30.6013  -16.2409   18.3728 C   0  0  0  0  0  0
  -28.5597  -16.2372   19.7336 C   0  0  0  0  0  0
  -29.9485  -16.6095   22.9485 C   0  0  0  0  0  0
  -28.6426  -24.1582   20.0878 C   0  0  0  0  0  0
  -29.9725  -23.3255   20.0784 C   0  0  0  0  0  0
  -28.6952  -25.5266   19.3307 C   0  0  0  0  0  0
  -31.0862  -21.1361   20.8250 C   0  0  1  0  0  0
  -30.0877  -16.0989   19.8365 C   0  0  0  0  0  0
  -30.3463  -17.6112   21.9665 N   0  0  0  0  0  0
  -29.8323  -21.8859   20.4849 N   0  3  0  0  0  0
  -31.4552  -12.4875   19.1209 H   0  0  0  0  0  0
  -30.3618  -11.4406   19.9783 H   0  0  0  0  0  0
  -29.7588  -11.5959   17.5395 H   0  0  0  0  0  0
  -29.5837  -13.3240   17.6648 H   0  0  0  0  0  0
  -27.8968  -11.1666   18.9678 H   0  0  0  0  0  0
  -27.3428  -12.3477   17.8136 H   0  0  0  0  0  0
  -27.5238  -14.0755   19.3219 H   0  0  0  0  0  0
  -28.7315  -12.2311   21.4554 H   0  0  0  0  0  0
  -28.4271  -13.9261   21.7022 H   0  0  0  0  0  0
  -25.2680   -9.5579   22.4823 H   0  0  0  0  0  0
  -23.9945   -7.4505   22.7453 H   0  0  0  0  0  0
  -21.0798   -8.8696   19.8918 H   0  0  0  0  0  0
  -22.3643  -10.9627   19.6220 H   0  0  0  0  0  0
  -21.1917   -7.6109   23.9694 H   0  0  0  0  0  0
  -21.1505   -6.0520   25.9085 H   0  0  0  0  0  0
  -22.0595   -2.7580   23.2895 H   0  0  0  0  0  0
  -22.3989  -11.9812   22.4838 H   0  0  0  0  0  0
  -21.1054  -13.1248   22.2709 H   0  0  0  0  0  0
  -24.6691  -15.8302   20.5163 H   0  0  0  0  0  0
  -26.2777  -15.5957   20.0638 H   0  0  0  0  0  0
  -26.7133  -32.5506   23.1144 H   0  0  0  0  0  0
  -25.0038  -33.9780   25.0449 H   0  0  0  0  0  0
  -22.6997  -31.3034   21.3959 H   0  0  0  0  0  0
  -23.3762  -35.9632   23.3278 H   0  0  0  0  0  0
  -24.3578  -36.8969   22.2056 H   0  0  0  0  0  0
  -23.7211  -37.6504   23.6673 H   0  0  0  0  0  0
  -26.0535  -31.5819   20.5890 H   0  0  0  0  0  0
  -26.8244  -30.8764   21.9832 H   0  0  0  0  0  0
  -28.1073  -29.0871   21.1562 H   0  0  0  0  0  0
  -26.0453  -25.9328   19.0477 H   0  0  0  0  0  0
  -23.9873  -27.2603   19.0604 H   0  0  0  0  0  0
  -23.7277  -30.5732   19.3965 H   0  0  0  0  0  0
  -22.7434  -29.2224   19.8715 H   0  0  0  0  0  0
  -25.1279  -36.1982   25.0832 H   0  0  0  0  0  0
  -20.9975  -28.3243   24.1415 H   0  0  0  0  0  0
  -20.5629  -26.2297   23.3601 H   0  0  0  0  0  0
  -21.6633  -26.7422   22.1229 H   0  0  0  0  0  0
  -19.6902  -25.6288   21.1241 H   0  0  0  0  0  0
  -19.6677  -27.3176   20.6713 H   0  0  0  0  0  0
  -17.4189  -26.6678   21.4022 H   0  0  0  0  0  0
  -18.0334  -26.0048   22.9000 H   0  0  0  0  0  0
  -19.7937  -30.7242   24.2305 H   0  0  0  0  0  0
  -17.5026  -31.6266   24.5164 H   0  0  0  0  0  0
  -15.5363  -30.3012   23.7612 H   0  0  0  0  0  0
  -15.8668  -28.0820   22.7067 H   0  0  0  0  0  0
  -24.5892  -30.7079   25.7790 H   0  0  0  0  0  0
  -24.8906  -32.2850   26.4943 H   0  0  0  0  0  0
  -25.8061  -30.8854   27.0212 H   0  0  0  0  0  0
  -26.2882  -29.6816   24.1182 H   0  0  0  0  0  0
  -27.4099  -29.7337   25.4600 H   0  0  0  0  0  0
  -27.8702  -30.4422   23.9293 H   0  0  0  0  0  0
  -27.2687  -33.3644   26.2075 H   0  0  0  0  0  0
  -28.3841  -32.6883   25.0305 H   0  0  0  0  0  0
  -28.0718  -31.8448   26.5394 H   0  0  0  0  0  0
  -28.2585  -38.0129   24.7563 H   0  0  0  0  0  0
  -28.1119  -36.2664   24.6222 H   0  0  0  0  0  0
  -27.2313  -37.1379   25.8863 H   0  0  0  0  0  0
  -20.9300  -29.8825   21.6979 H   0  0  0  0  0  0
  -26.0189  -38.2889   24.1425 H   0  0  0  0  0  0
  -30.9656  -18.7919   19.0067 H   0  0  0  0  0  0
  -30.9397  -20.5178   23.6988 H   0  0  0  0  0  0
  -31.1036  -18.8971   24.3286 H   0  0  0  0  0  0
  -29.4997  -19.5528   23.9949 H   0  0  0  0  0  0
  -33.1102  -20.7947   20.1041 H   0  0  0  0  0  0
  -32.5040  -22.3797   19.6933 H   0  0  0  0  0  0
  -31.9373  -20.9643   18.8034 H   0  0  0  0  0  0
  -30.1291  -17.0725   17.8489 H   0  0  0  0  0  0
  -30.3925  -15.3570   17.7734 H   0  0  0  0  0  0
  -31.6785  -16.4063   18.3336 H   0  0  0  0  0  0
  -28.2618  -17.2855   19.6792 H   0  0  0  0  0  0
  -28.0377  -15.8353   20.5967 H   0  0  0  0  0  0
  -28.1861  -15.8395   18.7934 H   0  0  0  0  0  0
  -29.0492  -16.0935   22.6155 H   0  0  0  0  0  0
  -29.7240  -17.0568   23.9160 H   0  0  0  0  0  0
  -30.7494  -15.8828   23.0842 H   0  0  0  0  0  0
  -28.3225  -24.3241   21.1162 H   0  0  0  0  0  0
  -27.8559  -23.5634   19.6222 H   0  0  0  0  0  0
  -30.7030  -23.8162   20.7242 H   0  0  0  0  0  0
  -30.3916  -23.3438   19.0708 H   0  0  0  0  0  0
  -28.0647  -25.4990   18.4429 H   0  0  0  0  0  0
  -29.6986  -25.6540   18.9245 H   0  0  0  0  0  0
  -31.4518  -21.5567   21.7621 H   0  0  0  0  0  0
  -29.3673  -21.3839   19.7472 H   0  0  0  0  0  0
  -29.2381  -21.8375   21.2960 H   0  0  0  0  0  0
  1 25  1  0  0  0
  1 30  2  0  0  0
  1 84  1  0  0  0
  2  3  1  0  0  0
  2 25  1  0  0  0
  2 87  1  0  0  0
  2 88  1  0  0  0
  3  4  1  0  0  0
  3 89  1  0  0  0
  3 90  1  0  0  0
  4  5  1  0  0  0
  4 91  1  0  0  0
  4 92  1  0  0  0
  5  6  1  0  0  0
  5 26  1  0  0  0
  5 93  1  0  0  0
  6 25  1  0  0  0
  6 94  1  0  0  0
  6 95  1  0  0  0
  7  8  2  0  0  0
  7 26  1  0  0  0
  7 29  1  0  0  0
  8  9  1  0  0  0
  8 22  1  0  0  0
  9 10  1  0  0  0
  9 27  2  0  0  0
 10 11  2  0  0  0
 10 15  1  0  0  0
 11 12  1  0  0  0
 11 96  1  0  0  0
 12 13  2  0  0  0
 12 97  1  0  0  0
 13 14  1  0  0  0
 13 31  1  0  0  0
 14 15  2  0  0  0
 14 98  1  0  0  0
 15 99  1  0  0  0
 16 17  2  0  0  0
 16 21  1  0  0  0
 16 31  1  0  0  0
 17 18  1  0  0  0
 17100  1  0  0  0
 18 19  2  0  0  0
 18101  1  0  0  0
 19 20  1  0  0  0
 19 24  1  0  0  0
 20 21  2  0  0  0
 20102  1  0  0  0
 21 23  1  0  0  0
 22 28  1  0  0  0
 22 32  2  0  0  0
 26 27  1  0  0  0
 28103  1  0  0  0
 28104  1  0  0  0
 29105  1  0  0  0
 29106  1  0  0  0
 33 34  1  0  0  0
 33 66  1  0  0  0
 33 70  2  0  0  0
 34 36  1  0  0  0
 34 59  1  0  0  0
 34107  1  0  0  0
 35 44  2  0  0  0
 35 45  1  0  0  0
 35 68  1  0  0  0
 36 56  1  0  0  0
 36108  1  0  0  0
 37 39  1  0  0  0
 37 47  1  0  0  0
 37 66  1  0  0  0
 37109  1  0  0  0
 38 43  2  0  0  0
 38 46  1  0  0  0
 38 47  1  0  0  0
 39 64  1  0  0  0
 39 67  2  0  0  0
 40 52  1  0  0  0
 40 53  2  0  0  0
 40 58  1  0  0  0
 41110  1  0  0  0
 41111  1  0  0  0
 41112  1  0  0  0
 41 48  1  0  0  0
 42 43  1  0  0  0
 42 66  1  0  0  0
 42113  1  0  0  0
 42114  1  0  0  0
 43 44  1  0  0  0
 44115  1  0  0  0
 45 46  2  0  0  0
 45116  1  0  0  0
 46117  1  0  0  0
 47118  1  0  0  0
 47119  1  0  0  0
 48 56  1  0  0  0
 48 65  1  0  0  0
 48120  1  0  0  0
 49 50  1  0  0  0
 49 53  1  0  0  0
 49 64  1  0  0  0
 49121  1  0  0  0
 50 51  1  0  0  0
 50122  1  0  0  0
 50123  1  0  0  0
 51 52  1  0  0  0
 51124  1  0  0  0
 51125  1  0  0  0
 52126  1  0  0  0
 52127  1  0  0  0
 53 54  1  0  0  0
 54 55  2  0  0  0
 54128  1  0  0  0
 55 57  1  0  0  0
 55129  1  0  0  0
 56 69  2  0  0  0
 57 58  2  0  0  0
 57130  1  0  0  0
 58131  1  0  0  0
 59 60  1  0  0  0
 59 61  1  0  0  0
 59 62  1  0  0  0
 60132  1  0  0  0
 60133  1  0  0  0
 60134  1  0  0  0
 61135  1  0  0  0
 61136  1  0  0  0
 61137  1  0  0  0
 62138  1  0  0  0
 62139  1  0  0  0
 62140  1  0  0  0
 63 65  1  0  0  0
 63141  1  0  0  0
 63142  1  0  0  0
 63143  1  0  0  0
 64144  1  0  0  0
 65145  1  0  0  0
 68 82  1  0  0  0
 71 72  1  0  0  0
 71 73  2  0  0  0
 71146  1  0  0  0
 72 74  2  0  0  0
 72 83  1  0  0  0
 73 84  1  0  0  0
 73 85  1  0  0  0
 74 75  1  0  0  0
 74 85  1  0  0  0
 75147  1  0  0  0
 75148  1  0  0  0
 75149  1  0  0  0
 76150  1  0  0  0
 76151  1  0  0  0
 76152  1  0  0  0
 76 83  1  0  0  0
 77153  1  0  0  0
 77154  1  0  0  0
 77155  1  0  0  0
 77 84  1  0  0  0
 78 84  1  0  0  0
 78156  1  0  0  0
 78157  1  0  0  0
 78158  1  0  0  0
 79 85  1  0  0  0
 79159  1  0  0  0
 79160  1  0  0  0
 79161  1  0  0  0
 80 81  1  0  0  0
 80 82  1  0  0  0
 80162  1  0  0  0
 80163  1  0  0  0
 81 86  1  0  0  0
 81164  1  0  0  0
 81165  1  0  0  0
 82166  1  0  0  0
 82167  1  0  0  0
 83 86  1  0  0  0
 83168  1  0  0  0
 86169  1  0  0  0
 86170  1  0  0  0
M  CHG  1  86   1
M  ISO  4   1 100  68 101  82 101  84 100
M  END
> <chiral flag>
0

> <version>
0

> <s_m_source_file>
/data/baiqing/PycharmProjects/Reinvent-master-3.2/result/LINK_invent/BTK/process_docking_weight1_custom_sum_contain_oxygen_bond_distance_aromatic_linkinvent_7_9_3/rearranged_h_0020.sdf

> <i_m_source_file_index>
75

> <r_mmod_Potential_Energy-OPLS-2005>
17.8476295471191

> <r_mmod_Stretch_Energy-OPLS-2005>
62.6165351867676

> <r_mmod_Bend_Energy-OPLS-2005>
172.078063964844

> <r_mmod_Torsional_Energy-OPLS-2005>
242.307754516602

> <r_mmod_Improper_Torsional_Energy-OPLS-2005>
14.964786529541

> <r_mmod_Van_der_Waal_Energy-OPLS-2005>
141.753341674805

> <r_mmod_Electrostatic_Energy-OPLS-2005>
-254.571166992188

> <r_mmod_Solvation_Energy-OPLS-2005>
-428.896881103516

> <b_mmod_Minimization_Converged-OPLS-2005>
0

> <r_mmod_RMS_Derivative-OPLS-2005>
2.25330352783203

$$$$
75
                    3D
 Structure written by MMmdl.
194202  0  0  1  0            999 V2000
  -30.6929  -14.5604   20.4693 C   0  0  0  0  0  0
  -30.4323  -12.3281   19.4617 C   0  0  0  0  0  0
  -29.5151  -12.4553   18.2260 C   0  0  0  0  0  0
  -28.0205  -12.3612   18.6117 C   0  0  0  0  0  0
  -27.6500  -13.2028   19.8628 C   0  0  2  0  0  0
  -28.6955  -13.0235   20.9724 C   0  0  0  0  0  0
  -25.2541  -13.8088   20.5605 C   0  0  0  0  0  0
  -24.1816  -13.0390   20.9164 C   0  0  0  0  0  0
  -24.6385  -11.6867   20.8756 C   0  0  0  0  0  0
  -23.9041  -10.4268   21.0418 C   0  0  0  0  0  0
  -24.3611   -9.4195   21.9194 C   0  0  0  0  0  0
  -23.6289   -8.2228   22.0750 C   0  0  0  0  0  0
  -22.4266   -8.0268   21.3542 C   0  0  0  0  0  0
  -21.9893   -9.0234   20.4639 C   0  0  0  0  0  0
  -22.7214  -10.2119   20.3064 C   0  0  0  0  0  0
  -21.6843   -6.0723   22.5280 C   0  0  0  0  0  0
  -21.4009   -6.5628   23.8213 C   0  0  0  0  0  0
  -21.3664   -5.6783   24.9179 C   0  0  0  0  0  0
  -21.6050   -4.3045   24.7216 C   0  0  0  0  0  0
  -21.8825   -3.8136   23.4328 C   0  0  0  0  0  0
  -21.9195   -4.6957   22.3391 C   0  0  0  0  0  0
  -22.7846  -13.5201   21.1827 C   0  0  0  0  0  0
  -22.1658   -4.2142   21.0964 F   0  0  0  0  0  0
  -21.5645   -3.4532   25.7725 F   0  0  0  0  0  0
  -30.0210  -13.3645   20.4280 N   0  0  0  0  0  0
  -26.2977  -12.9248   20.3326 N   0  0  0  0  0  0
  -25.9317  -11.6425   20.5807 N   0  0  0  0  0  0
  -22.0487  -12.8232   22.0408 N   0  0  0  0  0  0
  -25.4214  -15.1784   20.3881 N   0  0  0  0  0  0
  -31.9060  -14.5969   20.2501 O   0  0  0  0  0  0
  -21.6637   -6.8865   21.4239 O   0  0  0  0  0  0
  -22.3533  -14.5494   20.6639 O   0  0  0  0  0  0
  -24.6148  -31.8695   23.2108 C   0  0  0  0  0  0
  -25.9040  -32.4834   23.8392 C   0  0  1  0  0  0
  -27.2377  -27.4393   20.0929 C   0  0  0  0  0  0
  -25.5893  -33.8629   24.2319 N   0  0  0  0  0  0
  -23.4022  -30.4934   21.5522 C   0  0  2  0  0  0
  -24.8504  -28.9609   20.1175 C   0  0  0  0  0  0
  -22.7414  -29.4665   22.4998 C   0  0  0  0  0  0
  -18.0265  -28.1373   22.8491 C   0  0  0  0  0  0
  -24.1482  -36.7312   23.2639 C   0  0  0  0  0  0
  -25.9331  -30.8357   21.3660 C   0  0  0  0  0  0
  -26.0124  -29.4719   20.7094 C   0  0  0  0  0  0
  -27.2105  -28.7197   20.6904 C   0  0  0  0  0  0
  -26.0570  -26.9487   19.4885 C   0  0  0  0  0  0
  -24.8679  -27.6988   19.5029 C   0  0  0  0  0  0
  -23.6109  -29.8254   20.1681 C   0  0  0  0  0  0
  -25.4104  -36.3114   24.0339 C   0  0  1  0  0  0
  -20.5857  -28.3659   23.1332 C   0  0  2  0  0  0
  -20.6765  -26.9394   22.5426 C   0  0  0  0  0  0
  -19.5741  -26.6378   21.5227 C   0  0  0  0  0  0
  -18.1916  -26.7924   22.1626 C   0  0  0  0  0  0
  -19.1509  -28.8828   23.2912 C   0  0  0  0  0  0
  -18.9447  -30.1441   23.8923 C   0  0  0  0  0  0
  -17.6454  -30.6590   24.0564 C   0  0  0  0  0  0
  -25.9033  -34.9482   23.5125 C   0  0  0  0  0  0
  -16.5343  -29.9096   23.6324 C   0  0  0  0  0  0
  -16.7253  -28.6502   23.0351 C   0  0  0  0  0  0
  -26.4470  -31.6624   25.0725 C   0  0  0  0  0  0
  -25.3732  -31.3761   26.1475 C   0  0  0  0  0  0
  -27.0304  -30.3060   24.6125 C   0  0  0  0  0  0
  -27.6029  -32.4359   25.7501 C   0  0  0  0  0  0
  -27.5579  -37.1811   24.8458 C   0  0  0  0  0  0
  -21.4136  -29.3041   22.3751 N   0  0  0  0  0  0
  -26.4285  -37.3797   23.9409 N   0  0  0  0  0  0
  -24.6676  -31.0792   22.1015 N   0  0  0  0  0  0
  -23.4192  -28.8185   23.3020 O   0  0  0  0  0  0
  -28.3925  -26.6804   20.1162 O   0  0  0  0  0  0
  -26.5594  -34.8933   22.4689 O   0  0  0  0  0  0
  -23.5341  -32.1429   23.7512 O   0  0  0  0  0  0
  -29.8900  -15.8156   20.3805 C   0  0  0  0  0  0
  -29.1067  -16.2494   21.4107 C   0  0  0  0  0  0
  -29.1923  -16.1709   17.8602 C   0  0  0  0  0  0
  -28.2402  -17.2239   17.2852 C   0  0  0  0  0  0
  -29.4939  -19.0902   18.2808 C   0  0  0  0  0  0
  -30.0838  -16.6239   19.0465 C   0  0  2  0  0  0
  -30.4722  -18.1671   19.0499 C   0  0  2  0  0  0
  -29.0105  -18.5071   16.9387 C   0  0  2  0  0  0
  -28.0536  -17.3428   21.2519 C   0  0  0  0  0  0
  -29.6919  -16.8018   23.8260 C   0  0  0  0  0  0
  -29.5124  -19.4524   13.9011 C   0  0  0  0  0  0
  -26.9757  -19.5668   13.8784 C   0  0  0  0  0  0
  -28.4085  -20.8905   16.3061 C   0  0  0  0  0  0
  -29.1729  -15.7338   22.8522 C   0  0  0  0  0  0
  -30.9595  -18.8120   20.3843 C   0  0  0  0  0  0
  -31.5603  -20.2404   20.2550 C   0  0  0  0  0  0
  -30.5589  -21.4273   20.3704 C   0  0  0  0  0  0
  -31.1315  -22.7574   19.8229 C   0  0  0  0  0  0
  -30.0886  -23.8687   19.5521 C   0  0  0  0  0  0
  -29.4815  -24.5208   20.8117 C   0  0  0  0  0  0
  -28.1891  -25.3243   20.5473 C   0  0  0  0  0  0
  -28.2130  -19.0491   14.6341 C   0  0  0  0  0  0
  -28.1901  -19.4320   16.0830 N   0  3  1  0  0  0
  -31.4784  -12.4214   19.1637 H   0  0  0  0  0  0
  -30.3422  -11.3355   19.9056 H   0  0  0  0  0  0
  -29.7540  -11.6725   17.5046 H   0  0  0  0  0  0
  -29.7188  -13.3948   17.7171 H   0  0  0  0  0  0
  -27.8011  -11.3094   18.8026 H   0  0  0  0  0  0
  -27.3922  -12.6470   17.7678 H   0  0  0  0  0  0
  -27.6596  -14.2486   19.5848 H   0  0  0  0  0  0
  -28.6971  -11.9906   21.3215 H   0  0  0  0  0  0
  -28.4143  -13.5981   21.8424 H   0  0  0  0  0  0
  -25.2753   -9.5679   22.4777 H   0  0  0  0  0  0
  -23.9995   -7.4614   22.7458 H   0  0  0  0  0  0
  -21.0820   -8.8745   19.8938 H   0  0  0  0  0  0
  -22.3657  -10.9665   19.6191 H   0  0  0  0  0  0
  -21.1995   -7.6139   23.9709 H   0  0  0  0  0  0
  -21.1493   -6.0514   25.9082 H   0  0  0  0  0  0
  -22.0605   -2.7592   23.2827 H   0  0  0  0  0  0
  -22.4072  -11.9885   22.4810 H   0  0  0  0  0  0
  -21.1136  -13.1305   22.2643 H   0  0  0  0  0  0
  -24.6547  -15.8335   20.4906 H   0  0  0  0  0  0
  -26.2847  -15.6138   20.0922 H   0  0  0  0  0  0
  -26.7115  -32.5557   23.1162 H   0  0  0  0  0  0
  -25.0051  -33.9792   25.0469 H   0  0  0  0  0  0
  -22.6891  -31.3086   21.4123 H   0  0  0  0  0  0
  -23.3744  -35.9646   23.3313 H   0  0  0  0  0  0
  -24.3570  -36.8917   22.2050 H   0  0  0  0  0  0
  -23.7244  -37.6521   23.6652 H   0  0  0  0  0  0
  -26.0475  -31.6034   20.5995 H   0  0  0  0  0  0
  -26.8210  -30.8865   21.9855 H   0  0  0  0  0  0
  -28.1052  -29.1098   21.1543 H   0  0  0  0  0  0
  -26.0400  -25.9890   18.9956 H   0  0  0  0  0  0
  -23.9737  -27.3028   19.0393 H   0  0  0  0  0  0
  -23.7157  -30.5996   19.4064 H   0  0  0  0  0  0
  -22.7365  -29.2417   19.8739 H   0  0  0  0  0  0
  -25.1290  -36.1971   25.0832 H   0  0  0  0  0  0
  -20.9936  -28.3225   24.1459 H   0  0  0  0  0  0
  -20.5681  -26.2262   23.3609 H   0  0  0  0  0  0
  -21.6641  -26.7455   22.1212 H   0  0  0  0  0  0
  -19.6907  -25.6292   21.1255 H   0  0  0  0  0  0
  -19.6706  -27.3199   20.6769 H   0  0  0  0  0  0
  -17.4198  -26.6675   21.4022 H   0  0  0  0  0  0
  -18.0302  -26.0067   22.9015 H   0  0  0  0  0  0
  -19.7929  -30.7237   24.2316 H   0  0  0  0  0  0
  -17.5019  -31.6281   24.5153 H   0  0  0  0  0  0
  -15.5347  -30.3015   23.7649 H   0  0  0  0  0  0
  -15.8641  -28.0848   22.7058 H   0  0  0  0  0  0
  -24.5854  -30.7170   25.7816 H   0  0  0  0  0  0
  -24.8985  -32.2940   26.4947 H   0  0  0  0  0  0
  -25.8064  -30.8892   27.0218 H   0  0  0  0  0  0
  -26.2863  -29.6836   24.1140 H   0  0  0  0  0  0
  -27.4018  -29.7297   25.4607 H   0  0  0  0  0  0
  -27.8721  -30.4368   23.9321 H   0  0  0  0  0  0
  -27.2609  -33.3630   26.2117 H   0  0  0  0  0  0
  -28.3825  -32.6980   25.0338 H   0  0  0  0  0  0
  -28.0713  -31.8470   26.5397 H   0  0  0  0  0  0
  -28.2601  -38.0103   24.7502 H   0  0  0  0  0  0
  -28.1073  -36.2638   24.6290 H   0  0  0  0  0  0
  -27.2294  -37.1463   25.8858 H   0  0  0  0  0  0
  -20.9279  -29.8788   21.7008 H   0  0  0  0  0  0
  -26.0177  -38.2877   24.1409 H   0  0  0  0  0  0
  -29.8428  -15.8476   17.0458 H   0  0  0  0  0  0
  -28.6197  -15.2891   18.1079 H   0  0  0  0  0  0
  -27.4354  -17.4367   17.9900 H   0  0  0  0  0  0
  -27.7569  -16.7982   16.4074 H   0  0  0  0  0  0
  -30.0352  -20.0102   18.0708 H   0  0  0  0  0  0
  -28.6440  -19.3534   18.9094 H   0  0  0  0  0  0
  -31.0445  -16.2301   18.7118 H   0  0  0  0  0  0
  -31.3662  -18.2042   18.4216 H   0  0  0  0  0  0
  -29.9046  -18.2432   16.3744 H   0  0  0  0  0  0
  -28.2677  -18.2301   21.8433 H   0  0  0  0  0  0
  -27.0910  -16.9671   21.5951 H   0  0  0  0  0  0
  -27.9142  -17.6425   20.2180 H   0  0  0  0  0  0
  -29.8509  -16.3750   24.8158 H   0  0  0  0  0  0
  -28.9870  -17.6252   23.9387 H   0  0  0  0  0  0
  -30.6431  -17.2128   23.4869 H   0  0  0  0  0  0
  -29.5047  -19.0680   12.8816 H   0  0  0  0  0  0
  -30.4040  -19.0470   14.3770 H   0  0  0  0  0  0
  -29.6314  -20.5336   13.8329 H   0  0  0  0  0  0
  -26.9256  -19.1207   12.8849 H   0  0  0  0  0  0
  -26.9952  -20.6471   13.7371 H   0  0  0  0  0  0
  -26.0496  -19.3073   14.3918 H   0  0  0  0  0  0
  -28.1334  -21.1869   17.3181 H   0  0  0  0  0  0
  -27.7968  -21.5001   15.6428 H   0  0  0  0  0  0
  -29.4483  -21.1728   16.1429 H   0  0  0  0  0  0
  -29.8243  -14.8668   22.9548 H   0  0  0  0  0  0
  -28.1770  -15.4151   23.1653 H   0  0  0  0  0  0
  -31.7294  -18.1608   20.8001 H   0  0  0  0  0  0
  -30.1796  -18.8450   21.1360 H   0  0  0  0  0  0
  -32.1115  -20.2998   19.3156 H   0  0  0  0  0  0
  -32.3151  -20.3721   21.0318 H   0  0  0  0  0  0
  -30.2659  -21.5518   21.4138 H   0  0  0  0  0  0
  -29.6306  -21.2109   19.8477 H   0  0  0  0  0  0
  -31.6249  -22.5479   18.8733 H   0  0  0  0  0  0
  -31.9158  -23.1278   20.4834 H   0  0  0  0  0  0
  -29.2961  -23.4576   18.9257 H   0  0  0  0  0  0
  -30.5557  -24.6538   18.9549 H   0  0  0  0  0  0
  -30.2194  -25.1397   21.3233 H   0  0  0  0  0  0
  -29.2247  -23.7246   21.5113 H   0  0  0  0  0  0
  -27.6137  -25.3518   21.4753 H   0  0  0  0  0  0
  -27.5837  -24.7666   19.8320 H   0  0  0  0  0  0
  -28.1492  -17.9620   14.5783 H   0  0  0  0  0  0
  -27.2399  -19.2746   16.3857 H   0  0  0  0  0  0
  1 25  1  0  0  0
  1 30  2  0  0  0
  1 71  1  0  0  0
  2  3  1  0  0  0
  2 25  1  0  0  0
  2 94  1  0  0  0
  2 95  1  0  0  0
  3  4  1  0  0  0
  3 96  1  0  0  0
  3 97  1  0  0  0
  4  5  1  0  0  0
  4 98  1  0  0  0
  4 99  1  0  0  0
  5  6  1  0  0  0
  5 26  1  0  0  0
  5100  1  0  0  0
  6 25  1  0  0  0
  6101  1  0  0  0
  6102  1  0  0  0
  7  8  2  0  0  0
  7 26  1  0  0  0
  7 29  1  0  0  0
  8  9  1  0  0  0
  8 22  1  0  0  0
  9 10  1  0  0  0
  9 27  2  0  0  0
 10 11  2  0  0  0
 10 15  1  0  0  0
 11 12  1  0  0  0
 11103  1  0  0  0
 12 13  2  0  0  0
 12104  1  0  0  0
 13 14  1  0  0  0
 13 31  1  0  0  0
 14 15  2  0  0  0
 14105  1  0  0  0
 15106  1  0  0  0
 16 17  2  0  0  0
 16 21  1  0  0  0
 16 31  1  0  0  0
 17 18  1  0  0  0
 17107  1  0  0  0
 18 19  2  0  0  0
 18108  1  0  0  0
 19 20  1  0  0  0
 19 24  1  0  0  0
 20 21  2  0  0  0
 20109  1  0  0  0
 21 23  1  0  0  0
 22 28  1  0  0  0
 22 32  2  0  0  0
 26 27  1  0  0  0
 28110  1  0  0  0
 28111  1  0  0  0
 29112  1  0  0  0
 29113  1  0  0  0
 33 34  1  0  0  0
 33 66  1  0  0  0
 33 70  2  0  0  0
 34 36  1  0  0  0
 34 59  1  0  0  0
 34114  1  0  0  0
 35 44  2  0  0  0
 35 45  1  0  0  0
 35 68  1  0  0  0
 36 56  1  0  0  0
 36115  1  0  0  0
 37 39  1  0  0  0
 37 47  1  0  0  0
 37 66  1  0  0  0
 37116  1  0  0  0
 38 43  2  0  0  0
 38 46  1  0  0  0
 38 47  1  0  0  0
 39 64  1  0  0  0
 39 67  2  0  0  0
 40 52  1  0  0  0
 40 53  2  0  0  0
 40 58  1  0  0  0
 41117  1  0  0  0
 41118  1  0  0  0
 41119  1  0  0  0
 41 48  1  0  0  0
 42 43  1  0  0  0
 42 66  1  0  0  0
 42120  1  0  0  0
 42121  1  0  0  0
 43 44  1  0  0  0
 44122  1  0  0  0
 45 46  2  0  0  0
 45123  1  0  0  0
 46124  1  0  0  0
 47125  1  0  0  0
 47126  1  0  0  0
 48 56  1  0  0  0
 48 65  1  0  0  0
 48127  1  0  0  0
 49 50  1  0  0  0
 49 53  1  0  0  0
 49 64  1  0  0  0
 49128  1  0  0  0
 50 51  1  0  0  0
 50129  1  0  0  0
 50130  1  0  0  0
 51 52  1  0  0  0
 51131  1  0  0  0
 51132  1  0  0  0
 52133  1  0  0  0
 52134  1  0  0  0
 53 54  1  0  0  0
 54 55  2  0  0  0
 54135  1  0  0  0
 55 57  1  0  0  0
 55136  1  0  0  0
 56 69  2  0  0  0
 57 58  2  0  0  0
 57137  1  0  0  0
 58138  1  0  0  0
 59 60  1  0  0  0
 59 61  1  0  0  0
 59 62  1  0  0  0
 60139  1  0  0  0
 60140  1  0  0  0
 60141  1  0  0  0
 61142  1  0  0  0
 61143  1  0  0  0
 61144  1  0  0  0
 62145  1  0  0  0
 62146  1  0  0  0
 62147  1  0  0  0
 63 65  1  0  0  0
 63148  1  0  0  0
 63149  1  0  0  0
 63150  1  0  0  0
 64151  1  0  0  0
 65152  1  0  0  0
 68 91  1  0  0  0
 71 72  2  0  0  0
 71 76  1  0  0  0
 72 79  1  0  0  0
 72 84  1  0  0  0
 73 74  1  0  0  0
 73 76  1  0  0  0
 73153  1  0  0  0
 73154  1  0  0  0
 74155  1  0  0  0
 74156  1  0  0  0
 74 78  1  0  0  0
 75 77  1  0  0  0
 75 78  1  0  0  0
 75157  1  0  0  0
 75158  1  0  0  0
 76 77  1  0  0  0
 76159  1  0  0  0
 77 85  1  0  0  0
 77160  1  0  0  0
 78 93  1  0  0  0
 78161  1  0  0  0
 79162  1  0  0  0
 79163  1  0  0  0
 79164  1  0  0  0
 80 84  1  0  0  0
 80165  1  0  0  0
 80166  1  0  0  0
 80167  1  0  0  0
 81168  1  0  0  0
 81169  1  0  0  0
 81170  1  0  0  0
 81 92  1  0  0  0
 82 92  1  0  0  0
 82171  1  0  0  0
 82172  1  0  0  0
 82173  1  0  0  0
 83174  1  0  0  0
 83175  1  0  0  0
 83176  1  0  0  0
 83 93  1  0  0  0
 84177  1  0  0  0
 84178  1  0  0  0
 85 86  1  0  0  0
 85179  1  0  0  0
 85180  1  0  0  0
 86 87  1  0  0  0
 86181  1  0  0  0
 86182  1  0  0  0
 87 88  1  0  0  0
 87183  1  0  0  0
 87184  1  0  0  0
 88 89  1  0  0  0
 88185  1  0  0  0
 88186  1  0  0  0
 89 90  1  0  0  0
 89187  1  0  0  0
 89188  1  0  0  0
 90 91  1  0  0  0
 90189  1  0  0  0
 90190  1  0  0  0
 91191  1  0  0  0
 91192  1  0  0  0
 92 93  1  0  0  0
 92193  1  0  0  0
 93194  1  0  0  0
M  CHG  1  93   1
M  ISO  4   1 100  68 101  71 100  91 101
M  END
> <chiral flag>
0

> <version>
0

> <s_m_source_file>
/data/baiqing/PycharmProjects/Reinvent-master-3.2/result/LINK_invent/BTK/process_docking_weight1_custom_sum_contain_oxygen_bond_distance_aromatic_linkinvent_7_9_3/rearranged_h_0020.sdf

> <i_m_source_file_index>
76

> <r_mmod_Potential_Energy-OPLS-2005>
217.987884521484

> <r_mmod_Stretch_Energy-OPLS-2005>
57.8564109802246

> <r_mmod_Bend_Energy-OPLS-2005>
171.463027954102

> <r_mmod_Torsional_Energy-OPLS-2005>
323.09228515625

> <r_mmod_Improper_Torsional_Energy-OPLS-2005>
10.3239002227783

> <r_mmod_Van_der_Waal_Energy-OPLS-2005>
153.868316650391

> <r_mmod_Electrostatic_Energy-OPLS-2005>
-137.11213684082

> <r_mmod_Solvation_Energy-OPLS-2005>
-389.785003662109

> <b_mmod_Minimization_Converged-OPLS-2005>
0

> <r_mmod_RMS_Derivative-OPLS-2005>
2.26448440551758

$$$$
76
                    3D
 Structure written by MMmdl.
156164  0  0  1  0            999 V2000
  -30.4118  -15.3310   20.3910 C   0  0  0  0  0  0
  -30.4394  -12.8668   19.5259 C   0  0  0  0  0  0
  -29.5350  -12.5794   18.3007 C   0  0  0  0  0  0
  -28.0939  -12.2782   18.7422 C   0  0  0  0  0  0
  -27.6052  -13.2723   19.8215 C   0  0  2  0  0  0
  -28.6362  -13.4888   20.9511 C   0  0  0  0  0  0
  -25.2347  -13.8255   20.5760 C   0  0  0  0  0  0
  -24.1690  -13.0431   20.9255 C   0  0  0  0  0  0
  -24.6351  -11.6941   20.8769 C   0  0  0  0  0  0
  -23.9065  -10.4285   21.0415 C   0  0  0  0  0  0
  -24.3607   -9.4206   21.9197 C   0  0  0  0  0  0
  -23.6282   -8.2239   22.0766 C   0  0  0  0  0  0
  -22.4279   -8.0261   21.3541 C   0  0  0  0  0  0
  -21.9904   -9.0244   20.4657 C   0  0  0  0  0  0
  -22.7233  -10.2130   20.3068 C   0  0  0  0  0  0
  -21.6856   -6.0711   22.5269 C   0  0  0  0  0  0
  -21.4015   -6.5629   23.8195 C   0  0  0  0  0  0
  -21.3651   -5.6791   24.9157 C   0  0  0  0  0  0
  -21.6046   -4.3048   24.7226 C   0  0  0  0  0  0
  -21.8820   -3.8134   23.4345 C   0  0  0  0  0  0
  -21.9196   -4.6935   22.3398 C   0  0  0  0  0  0
  -22.7710  -13.5174   21.1898 C   0  0  0  0  0  0
  -22.1656   -4.2117   21.0971 F   0  0  0  0  0  0
  -21.5631   -3.4541   25.7742 F   0  0  0  0  0  0
  -29.8544  -14.0180   20.3144 N   0  0  0  0  0  0
  -26.2764  -12.9519   20.3243 N   0  0  0  0  0  0
  -25.9290  -11.6638   20.5768 N   0  0  0  0  0  0
  -22.0391  -12.8165   22.0465 N   0  0  0  0  0  0
  -25.3990  -15.1984   20.4187 N   0  0  0  0  0  0
  -31.6405  -15.3055   20.2092 O   0  0  0  0  0  0
  -21.6646   -6.8856   21.4236 O   0  0  0  0  0  0
  -22.3383  -14.5466   20.6744 O   0  0  0  0  0  0
  -24.6639  -31.8219   23.1673 C   0  0  0  0  0  0
  -25.9306  -32.4574   23.8136 C   0  0  1  0  0  0
  -27.2162  -26.8961   20.1992 C   0  0  0  0  0  0
  -25.5978  -33.8382   24.2055 N   0  0  0  0  0  0
  -23.4793  -30.4262   21.5200 C   0  0  2  0  0  0
  -24.9315  -28.8019   20.1240 C   0  0  0  0  0  0
  -22.7650  -29.4409   22.4820 C   0  0  0  0  0  0
  -18.0301  -28.1348   22.8457 C   0  0  0  0  0  0
  -24.1515  -36.7206   23.2648 C   0  0  0  0  0  0
  -26.0498  -30.6171   21.4036 C   0  0  0  0  0  0
  -26.1193  -29.2018   20.7508 C   0  0  0  0  0  0
  -27.2602  -28.2747   20.7503 C   0  0  0  0  0  0
  -25.9958  -26.6488   19.5366 C   0  0  0  0  0  0
  -24.8959  -27.5450   19.4971 C   0  0  0  0  0  0
  -23.7180  -29.7310   20.1522 C   0  0  0  0  0  0
  -25.4152  -36.2954   24.0296 C   0  0  1  0  0  0
  -20.5926  -28.3693   23.1171 C   0  0  2  0  0  0
  -20.6778  -26.9371   22.5389 C   0  0  0  0  0  0
  -19.5768  -26.6319   21.5180 C   0  0  0  0  0  0
  -18.1943  -26.7879   22.1588 C   0  0  0  0  0  0
  -19.1563  -28.8845   23.2801 C   0  0  0  0  0  0
  -18.9480  -30.1438   23.8833 C   0  0  0  0  0  0
  -17.6486  -30.6553   24.0521 C   0  0  0  0  0  0
  -25.9103  -34.9339   23.4995 C   0  0  0  0  0  0
  -16.5365  -29.9027   23.6354 C   0  0  0  0  0  0
  -16.7290  -28.6452   23.0382 C   0  0  0  0  0  0
  -26.4577  -31.6526   25.0667 C   0  0  0  0  0  0
  -25.3723  -31.3748   26.1337 C   0  0  0  0  0  0
  -27.0494  -30.2894   24.6419 C   0  0  0  0  0  0
  -27.6055  -32.4384   25.7441 C   0  0  0  0  0  0
  -27.5593  -37.1766   24.8462 C   0  0  0  0  0  0
  -21.4322  -29.3007   22.3551 N   0  0  0  0  0  0
  -26.4300  -37.3682   23.9397 N   0  0  0  0  0  0
  -24.7517  -30.9841   22.0823 N   0  0  0  0  0  0
  -23.4193  -28.8004   23.3076 O   0  0  0  0  0  0
  -28.2399  -25.8040   20.1746 O   0  0  0  0  0  0
  -26.5728  -34.8889   22.4597 O   0  0  0  0  0  0
  -23.5712  -32.1244   23.6738 O   0  0  0  0  0  0
  -31.0787  -20.0134   21.8575 C   0  0  0  0  0  0
  -30.3576  -21.1346   21.3744 C   0  0  0  0  0  0
  -30.8410  -18.6481   21.5467 C   0  0  0  0  0  0
  -29.2354  -21.0105   20.5179 C   0  0  0  0  0  0
  -29.0160  -19.4949   20.1861 C   0  0  0  0  0  0
  -29.8127  -18.2314   20.6527 C   0  0  0  0  0  0
  -30.8739  -22.5039   21.7907 C   0  0  0  0  0  0
  -31.7461  -17.6508   22.2509 C   0  0  0  0  0  0
  -27.8519  -19.2043   19.2558 C   0  0  0  0  0  0
  -28.5470  -22.5395   19.9270 C   0  0  0  0  0  0
  -28.1481  -24.1953   20.6060 C   0  0  0  0  0  0
  -29.6319  -16.6168   20.4126 N   0  0  0  0  0  0
  -31.4436  -13.1018   19.1713 H   0  0  0  0  0  0
  -30.5501  -11.9806   20.1514 H   0  0  0  0  0  0
  -29.9345  -11.7489   17.7171 H   0  0  0  0  0  0
  -29.5354  -13.4493   17.6425 H   0  0  0  0  0  0
  -28.0824  -11.2671   19.1525 H   0  0  0  0  0  0
  -27.4208  -12.2702   17.8840 H   0  0  0  0  0  0
  -27.5084  -14.2215   19.2954 H   0  0  0  0  0  0
  -28.8277  -12.5716   21.5113 H   0  0  0  0  0  0
  -28.2578  -14.2178   21.6690 H   0  0  0  0  0  0
  -25.2755   -9.5675   22.4759 H   0  0  0  0  0  0
  -23.9983   -7.4636   22.7494 H   0  0  0  0  0  0
  -21.0826   -8.8744   19.8973 H   0  0  0  0  0  0
  -22.3670  -10.9649   19.6155 H   0  0  0  0  0  0
  -21.2007   -7.6146   23.9669 H   0  0  0  0  0  0
  -21.1477   -6.0541   25.9055 H   0  0  0  0  0  0
  -22.0614   -2.7599   23.2866 H   0  0  0  0  0  0
  -22.4069  -11.9832   22.4819 H   0  0  0  0  0  0
  -21.1007  -13.1158   22.2725 H   0  0  0  0  0  0
  -24.6274  -15.8500   20.5187 H   0  0  0  0  0  0
  -26.2418  -15.6383   20.0777 H   0  0  0  0  0  0
  -26.7340  -32.5126   23.0818 H   0  0  0  0  0  0
  -25.0012  -33.9427   25.0127 H   0  0  0  0  0  0
  -22.7951  -31.2570   21.3417 H   0  0  0  0  0  0
  -23.3796  -35.9525   23.3268 H   0  0  0  0  0  0
  -24.3586  -36.8905   22.2072 H   0  0  0  0  0  0
  -23.7287  -37.6385   23.6734 H   0  0  0  0  0  0
  -26.2402  -31.3620   20.6294 H   0  0  0  0  0  0
  -26.9010  -30.6658   22.0705 H   0  0  0  0  0  0
  -28.1722  -28.5922   21.2355 H   0  0  0  0  0  0
  -25.8785  -25.6882   19.0542 H   0  0  0  0  0  0
  -23.9947  -27.2277   18.9914 H   0  0  0  0  0  0
  -23.8738  -30.4899   19.3858 H   0  0  0  0  0  0
  -22.8293  -29.1783   19.8415 H   0  0  0  0  0  0
  -25.1358  -36.1738   25.0792 H   0  0  0  0  0  0
  -21.0026  -28.3285   24.1281 H   0  0  0  0  0  0
  -20.5622  -26.2287   23.3622 H   0  0  0  0  0  0
  -21.6647  -26.7340   22.1213 H   0  0  0  0  0  0
  -19.6928  -25.6208   21.1245 H   0  0  0  0  0  0
  -19.6700  -27.3096   20.6682 H   0  0  0  0  0  0
  -17.4219  -26.6620   21.3979 H   0  0  0  0  0  0
  -18.0364  -25.9993   22.8963 H   0  0  0  0  0  0
  -19.7972  -30.7242   24.2192 H   0  0  0  0  0  0
  -17.5040  -31.6245   24.5083 H   0  0  0  0  0  0
  -15.5360  -30.2891   23.7736 H   0  0  0  0  0  0
  -15.8692  -28.0725   22.7167 H   0  0  0  0  0  0
  -24.5939  -30.7052   25.7675 H   0  0  0  0  0  0
  -24.8880  -32.2923   26.4672 H   0  0  0  0  0  0
  -25.8014  -30.9021   27.0185 H   0  0  0  0  0  0
  -26.3212  -29.6569   24.1341 H   0  0  0  0  0  0
  -27.3924  -29.7240   25.5094 H   0  0  0  0  0  0
  -27.9173  -30.4085   23.9932 H   0  0  0  0  0  0
  -27.2622  -33.3757   26.1833 H   0  0  0  0  0  0
  -28.3941  -32.6839   25.0314 H   0  0  0  0  0  0
  -28.0622  -31.8645   26.5515 H   0  0  0  0  0  0
  -28.2576  -38.0091   24.7515 H   0  0  0  0  0  0
  -28.1142  -36.2624   24.6305 H   0  0  0  0  0  0
  -27.2288  -37.1391   25.8855 H   0  0  0  0  0  0
  -20.9582  -29.8756   21.6725 H   0  0  0  0  0  0
  -26.0153  -38.2746   24.1420 H   0  0  0  0  0  0
  -31.9052  -20.2258   22.5194 H   0  0  0  0  0  0
  -30.9212  -23.1822   20.9382 H   0  0  0  0  0  0
  -31.8878  -22.4572   22.1947 H   0  0  0  0  0  0
  -30.2391  -22.9281   22.5685 H   0  0  0  0  0  0
  -32.2785  -18.1069   23.0861 H   0  0  0  0  0  0
  -32.5014  -17.2802   21.5596 H   0  0  0  0  0  0
  -31.1788  -16.8174   22.6664 H   0  0  0  0  0  0
  -27.7469  -19.9861   18.5030 H   0  0  0  0  0  0
  -26.9197  -19.1517   19.8197 H   0  0  0  0  0  0
  -27.9850  -18.2584   18.7280 H   0  0  0  0  0  0
  -27.6206  -22.2261   19.4457 H   0  0  0  0  0  0
  -29.2012  -22.7635   19.0842 H   0  0  0  0  0  0
  -28.7493  -24.2364   21.5101 H   0  0  0  0  0  0
  -27.1404  -24.0964   21.0103 H   0  0  0  0  0  0
  -28.6587  -16.3881   20.2771 H   0  0  0  0  0  0
  1 25  1  0  0  0
  1 30  2  0  0  0
  1 82  1  0  0  0
  2  3  1  0  0  0
  2 25  1  0  0  0
  2 83  1  0  0  0
  2 84  1  0  0  0
  3  4  1  0  0  0
  3 85  1  0  0  0
  3 86  1  0  0  0
  4  5  1  0  0  0
  4 87  1  0  0  0
  4 88  1  0  0  0
  5  6  1  0  0  0
  5 26  1  0  0  0
  5 89  1  0  0  0
  6 25  1  0  0  0
  6 90  1  0  0  0
  6 91  1  0  0  0
  7  8  2  0  0  0
  7 26  1  0  0  0
  7 29  1  0  0  0
  8  9  1  0  0  0
  8 22  1  0  0  0
  9 10  1  0  0  0
  9 27  2  0  0  0
 10 11  2  0  0  0
 10 15  1  0  0  0
 11 12  1  0  0  0
 11 92  1  0  0  0
 12 13  2  0  0  0
 12 93  1  0  0  0
 13 14  1  0  0  0
 13 31  1  0  0  0
 14 15  2  0  0  0
 14 94  1  0  0  0
 15 95  1  0  0  0
 16 17  2  0  0  0
 16 21  1  0  0  0
 16 31  1  0  0  0
 17 18  1  0  0  0
 17 96  1  0  0  0
 18 19  2  0  0  0
 18 97  1  0  0  0
 19 20  1  0  0  0
 19 24  1  0  0  0
 20 21  2  0  0  0
 20 98  1  0  0  0
 21 23  1  0  0  0
 22 28  1  0  0  0
 22 32  2  0  0  0
 26 27  1  0  0  0
 28 99  1  0  0  0
 28100  1  0  0  0
 29101  1  0  0  0
 29102  1  0  0  0
 33 34  1  0  0  0
 33 66  1  0  0  0
 33 70  2  0  0  0
 34 36  1  0  0  0
 34 59  1  0  0  0
 34103  1  0  0  0
 35 44  2  0  0  0
 35 45  1  0  0  0
 35 68  1  0  0  0
 36 56  1  0  0  0
 36104  1  0  0  0
 37 39  1  0  0  0
 37 47  1  0  0  0
 37 66  1  0  0  0
 37105  1  0  0  0
 38 43  2  0  0  0
 38 46  1  0  0  0
 38 47  1  0  0  0
 39 64  1  0  0  0
 39 67  2  0  0  0
 40 52  1  0  0  0
 40 53  2  0  0  0
 40 58  1  0  0  0
 41106  1  0  0  0
 41107  1  0  0  0
 41108  1  0  0  0
 41 48  1  0  0  0
 42 43  1  0  0  0
 42 66  1  0  0  0
 42109  1  0  0  0
 42110  1  0  0  0
 43 44  1  0  0  0
 44111  1  0  0  0
 45 46  2  0  0  0
 45112  1  0  0  0
 46113  1  0  0  0
 47114  1  0  0  0
 47115  1  0  0  0
 48 56  1  0  0  0
 48 65  1  0  0  0
 48116  1  0  0  0
 49 50  1  0  0  0
 49 53  1  0  0  0
 49 64  1  0  0  0
 49117  1  0  0  0
 50 51  1  0  0  0
 50118  1  0  0  0
 50119  1  0  0  0
 51 52  1  0  0  0
 51120  1  0  0  0
 51121  1  0  0  0
 52122  1  0  0  0
 52123  1  0  0  0
 53 54  1  0  0  0
 54 55  2  0  0  0
 54124  1  0  0  0
 55 57  1  0  0  0
 55125  1  0  0  0
 56 69  2  0  0  0
 57 58  2  0  0  0
 57126  1  0  0  0
 58127  1  0  0  0
 59 60  1  0  0  0
 59 61  1  0  0  0
 59 62  1  0  0  0
 60128  1  0  0  0
 60129  1  0  0  0
 60130  1  0  0  0
 61131  1  0  0  0
 61132  1  0  0  0
 61133  1  0  0  0
 62134  1  0  0  0
 62135  1  0  0  0
 62136  1  0  0  0
 63 65  1  0  0  0
 63137  1  0  0  0
 63138  1  0  0  0
 63139  1  0  0  0
 64140  1  0  0  0
 65141  1  0  0  0
 68 81  1  0  0  0
 71 72  2  0  0  0
 71 73  1  0  0  0
 71142  1  0  0  0
 72 74  1  0  0  0
 72 77  1  0  0  0
 73 76  2  0  0  0
 73 78  1  0  0  0
 74 75  2  0  0  0
 74 80  1  0  0  0
 75 76  1  0  0  0
 75 79  1  0  0  0
 76 82  1  0  0  0
 77143  1  0  0  0
 77144  1  0  0  0
 77145  1  0  0  0
 78146  1  0  0  0
 78147  1  0  0  0
 78148  1  0  0  0
 79149  1  0  0  0
 79150  1  0  0  0
 79151  1  0  0  0
 80 81  1  0  0  0
 80152  1  0  0  0
 80153  1  0  0  0
 81154  1  0  0  0
 81155  1  0  0  0
 82156  1  0  0  0
M  ISO  4   1 100  68 101  81 101  82 100
M  END
> <chiral flag>
0

> <version>
0

> <s_m_source_file>
/data/baiqing/PycharmProjects/Reinvent-master-3.2/result/LINK_invent/BTK/process_docking_weight1_custom_sum_contain_oxygen_bond_distance_aromatic_linkinvent_7_9_3/rearranged_h_0020.sdf

> <i_m_source_file_index>
77

> <r_mmod_Potential_Energy-OPLS-2005>
1410.84045410156

> <r_mmod_Stretch_Energy-OPLS-2005>
662.118225097656

> <r_mmod_Bend_Energy-OPLS-2005>
461.543365478516

> <r_mmod_Torsional_Energy-OPLS-2005>
248.478775024414

> <r_mmod_Improper_Torsional_Energy-OPLS-2005>
6.97973299026489

> <r_mmod_Van_der_Waal_Energy-OPLS-2005>
132.002334594727

> <r_mmod_Electrostatic_Energy-OPLS-2005>
-405.426818847656

> <r_mmod_Solvation_Energy-OPLS-2005>
-207.328430175781

> <b_mmod_Minimization_Converged-OPLS-2005>
0

> <r_mmod_RMS_Derivative-OPLS-2005>
3.38419032096863

$$$$
77
                    3D
 Structure written by MMmdl.
155163  0  0  1  0            999 V2000
  -30.5874  -14.8492   20.4039 C   0  0  0  0  0  0
  -30.4254  -12.5123   19.4976 C   0  0  0  0  0  0
  -29.5144  -12.5203   18.2501 C   0  0  0  0  0  0
  -28.0432  -12.3284   18.6641 C   0  0  0  0  0  0
  -27.6340  -13.2455   19.8475 C   0  0  2  0  0  0
  -28.6766  -13.2365   20.9875 C   0  0  0  0  0  0
  -25.2462  -13.8211   20.5679 C   0  0  0  0  0  0
  -24.1783  -13.0433   20.9212 C   0  0  0  0  0  0
  -24.6395  -11.6927   20.8767 C   0  0  0  0  0  0
  -23.9084  -10.4288   21.0412 C   0  0  0  0  0  0
  -24.3634   -9.4207   21.9194 C   0  0  0  0  0  0
  -23.6301   -8.2241   22.0765 C   0  0  0  0  0  0
  -22.4281   -8.0281   21.3552 C   0  0  0  0  0  0
  -21.9922   -9.0255   20.4657 C   0  0  0  0  0  0
  -22.7251  -10.2133   20.3053 C   0  0  0  0  0  0
  -21.6851   -6.0734   22.5277 C   0  0  0  0  0  0
  -21.4026   -6.5647   23.8214 C   0  0  0  0  0  0
  -21.3664   -5.6793   24.9177 C   0  0  0  0  0  0
  -21.6036   -4.3056   24.7221 C   0  0  0  0  0  0
  -21.8824   -3.8148   23.4342 C   0  0  0  0  0  0
  -21.9195   -4.6970   22.3398 C   0  0  0  0  0  0
  -22.7795  -13.5215   21.1853 C   0  0  0  0  0  0
  -22.1660   -4.2162   21.0969 F   0  0  0  0  0  0
  -21.5631   -3.4533   25.7730 F   0  0  0  0  0  0
  -29.9659  -13.6088   20.3917 N   0  0  0  0  0  0
  -26.2905  -12.9447   20.3283 N   0  0  0  0  0  0
  -25.9337  -11.6587   20.5792 N   0  0  0  0  0  0
  -22.0437  -12.8226   22.0421 N   0  0  0  0  0  0
  -25.4118  -15.1921   20.4048 N   0  0  0  0  0  0
  -31.7838  -14.8974   20.1025 O   0  0  0  0  0  0
  -21.6638   -6.8880   21.4242 O   0  0  0  0  0  0
  -22.3480  -14.5491   20.6662 O   0  0  0  0  0  0
  -24.6421  -31.8504   23.1924 C   0  0  0  0  0  0
  -25.9212  -32.4734   23.8314 C   0  0  1  0  0  0
  -27.2142  -27.1791   20.1282 C   0  0  0  0  0  0
  -25.5980  -33.8543   24.2220 N   0  0  0  0  0  0
  -23.4416  -30.4725   21.5378 C   0  0  2  0  0  0
  -24.8858  -28.9060   20.1066 C   0  0  0  0  0  0
  -22.7555  -29.4598   22.4879 C   0  0  0  0  0  0
  -18.0304  -28.1421   22.8470 C   0  0  0  0  0  0
  -24.1472  -36.7265   23.2643 C   0  0  0  0  0  0
  -25.9949  -30.7355   21.3825 C   0  0  0  0  0  0
  -26.0635  -29.3507   20.7210 C   0  0  0  0  0  0
  -27.2290  -28.5025   20.7149 C   0  0  0  0  0  0
  -26.0091  -26.8205   19.4859 C   0  0  0  0  0  0
  -24.8701  -27.6530   19.4756 C   0  0  0  0  0  0
  -23.6641  -29.8105   20.1517 C   0  0  0  0  0  0
  -25.4111  -36.3063   24.0313 C   0  0  1  0  0  0
  -20.5912  -28.3746   23.1235 C   0  0  2  0  0  0
  -20.6798  -26.9456   22.5404 C   0  0  0  0  0  0
  -19.5769  -26.6395   21.5222 C   0  0  0  0  0  0
  -18.1943  -26.7957   22.1626 C   0  0  0  0  0  0
  -19.1559  -28.8893   23.2849 C   0  0  0  0  0  0
  -18.9490  -30.1489   23.8873 C   0  0  0  0  0  0
  -17.6490  -30.6608   24.0566 C   0  0  0  0  0  0
  -25.9067  -34.9436   23.5065 C   0  0  0  0  0  0
  -16.5371  -29.9109   23.6346 C   0  0  0  0  0  0
  -16.7292  -28.6540   23.0338 C   0  0  0  0  0  0
  -26.4530  -31.6595   25.0747 C   0  0  0  0  0  0
  -25.3713  -31.3788   26.1445 C   0  0  0  0  0  0
  -27.0401  -30.3002   24.6294 C   0  0  0  0  0  0
  -27.6065  -32.4357   25.7540 C   0  0  0  0  0  0
  -27.5559  -37.1796   24.8471 C   0  0  0  0  0  0
  -21.4253  -29.3082   22.3617 N   0  0  0  0  0  0
  -26.4269  -37.3776   23.9417 N   0  0  0  0  0  0
  -24.7127  -31.0393   22.0936 N   0  0  0  0  0  0
  -23.4219  -28.8135   23.3014 O   0  0  0  0  0  0
  -28.2891  -26.2304   20.1764 O   0  0  0  0  0  0
  -26.5641  -34.8927   22.4634 O   0  0  0  0  0  0
  -23.5546  -32.1382   23.7151 O   0  0  0  0  0  0
  -29.5564  -19.6582   21.3950 C   0  0  0  0  0  0
  -29.2708  -21.0857   21.4711 C   0  0  0  0  0  0
  -29.6305  -18.9573   20.1475 C   0  0  0  0  0  0
  -29.0907  -21.9106   20.3052 C   0  0  0  0  0  0
  -29.3523  -19.8530   19.0491 C   0  0  0  0  0  0
  -29.8828  -18.8986   22.6744 C   0  0  0  0  0  0
  -29.2328  -21.7546   22.8427 C   0  0  0  0  0  0
  -30.2534  -17.4422   19.9301 C   0  0  0  0  0  0
  -29.2106  -23.5567   20.3021 C   0  0  0  0  0  0
  -28.0502  -24.7102   20.0217 C   0  0  0  0  0  0
  -29.1147  -21.2192   19.1277 N   0  0  0  0  0  0
  -29.8429  -16.0440   20.4959 N   0  0  0  0  0  0
  -29.3753  -19.2423   17.4315 Cl  0  0  0  0  0  0
  -31.4701  -12.6262   19.2045 H   0  0  0  0  0  0
  -30.3685  -11.5494   20.0085 H   0  0  0  0  0  0
  -29.8149  -11.7365   17.5536 H   0  0  0  0  0  0
  -29.6287  -13.4684   17.7206 H   0  0  0  0  0  0
  -27.9221  -11.2825   18.9479 H   0  0  0  0  0  0
  -27.3815  -12.4917   17.8121 H   0  0  0  0  0  0
  -27.6110  -14.2575   19.4428 H   0  0  0  0  0  0
  -28.7305  -12.2505   21.4548 H   0  0  0  0  0  0
  -28.3988  -13.9364   21.7767 H   0  0  0  0  0  0
  -25.2785   -9.5683   22.4769 H   0  0  0  0  0  0
  -24.0025   -7.4627   22.7480 H   0  0  0  0  0  0
  -21.0863   -8.8755   19.8946 H   0  0  0  0  0  0
  -22.3708  -10.9672   19.6153 H   0  0  0  0  0  0
  -21.2024   -7.6156   23.9725 H   0  0  0  0  0  0
  -21.1484   -6.0523   25.9084 H   0  0  0  0  0  0
  -22.0599   -2.7617   23.2825 H   0  0  0  0  0  0
  -22.4067  -11.9932   22.4864 H   0  0  0  0  0  0
  -21.1039  -13.1240   22.2562 H   0  0  0  0  0  0
  -24.6344  -15.8382   20.4921 H   0  0  0  0  0  0
  -26.2560  -15.6378   20.0704 H   0  0  0  0  0  0
  -26.7282  -32.5336   23.1054 H   0  0  0  0  0  0
  -25.0172  -33.9691   25.0393 H   0  0  0  0  0  0
  -22.7437  -31.2993   21.3910 H   0  0  0  0  0  0
  -23.3746  -35.9585   23.3310 H   0  0  0  0  0  0
  -24.3557  -36.8894   22.2058 H   0  0  0  0  0  0
  -23.7207  -37.6452   23.6678 H   0  0  0  0  0  0
  -26.1411  -31.4922   20.6107 H   0  0  0  0  0  0
  -26.8699  -30.7868   22.0197 H   0  0  0  0  0  0
  -28.1289  -28.8436   21.2067 H   0  0  0  0  0  0
  -25.9143  -25.8643   18.9935 H   0  0  0  0  0  0
  -23.9721  -27.3089   18.9821 H   0  0  0  0  0  0
  -23.8077  -30.5952   19.4070 H   0  0  0  0  0  0
  -22.7763  -29.2636   19.8310 H   0  0  0  0  0  0
  -25.1285  -36.1907   25.0802 H   0  0  0  0  0  0
  -20.9996  -28.3349   24.1365 H   0  0  0  0  0  0
  -20.5718  -26.2376   23.3635 H   0  0  0  0  0  0
  -21.6664  -26.7491   22.1194 H   0  0  0  0  0  0
  -19.6933  -25.6300   21.1284 H   0  0  0  0  0  0
  -19.6691  -27.3180   20.6730 H   0  0  0  0  0  0
  -17.4219  -26.6697   21.4024 H   0  0  0  0  0  0
  -18.0332  -26.0108   22.9031 H   0  0  0  0  0  0
  -19.7962  -30.7307   24.2226 H   0  0  0  0  0  0
  -17.5047  -31.6282   24.5187 H   0  0  0  0  0  0
  -15.5376  -30.3006   23.7682 H   0  0  0  0  0  0
  -15.8692  -28.0863   22.7038 H   0  0  0  0  0  0
  -24.5888  -30.7142   25.7776 H   0  0  0  0  0  0
  -24.8911  -32.2972   26.4836 H   0  0  0  0  0  0
  -25.7996  -30.8998   27.0258 H   0  0  0  0  0  0
  -26.3018  -29.6738   24.1270 H   0  0  0  0  0  0
  -27.4010  -29.7301   25.4869 H   0  0  0  0  0  0
  -27.8925  -30.4285   23.9614 H   0  0  0  0  0  0
  -27.2664  -33.3676   26.2078 H   0  0  0  0  0  0
  -28.3905  -32.6887   25.0388 H   0  0  0  0  0  0
  -28.0699  -31.8509   26.5501 H   0  0  0  0  0  0
  -28.2582  -38.0084   24.7511 H   0  0  0  0  0  0
  -28.1034  -36.2617   24.6289 H   0  0  0  0  0  0
  -27.2286  -37.1441   25.8876 H   0  0  0  0  0  0
  -20.9462  -29.8833   21.6818 H   0  0  0  0  0  0
  -26.0133  -38.2840   24.1436 H   0  0  0  0  0  0
  -28.9972  -18.7984   23.3014 H   0  0  0  0  0  0
  -30.2707  -17.8990   22.4873 H   0  0  0  0  0  0
  -30.6518  -19.4246   23.2403 H   0  0  0  0  0  0
  -28.7690  -21.1145   23.5922 H   0  0  0  0  0  0
  -28.6455  -22.6734   22.8339 H   0  0  0  0  0  0
  -30.2438  -21.9913   23.1760 H   0  0  0  0  0  0
  -31.3039  -17.5621   20.1980 H   0  0  0  0  0  0
  -30.2947  -17.2629   18.8570 H   0  0  0  0  0  0
  -30.0070  -23.7688   19.5893 H   0  0  0  0  0  0
  -29.6646  -23.8266   21.2531 H   0  0  0  0  0  0
  -27.2033  -24.4633   20.6611 H   0  0  0  0  0  0
  -27.7084  -24.5465   18.9993 H   0  0  0  0  0  0
  -28.8774  -15.9377   20.7681 H   0  0  0  0  0  0
  1 25  1  0  0  0
  1 30  2  0  0  0
  1 82  1  0  0  0
  2  3  1  0  0  0
  2 25  1  0  0  0
  2 84  1  0  0  0
  2 85  1  0  0  0
  3  4  1  0  0  0
  3 86  1  0  0  0
  3 87  1  0  0  0
  4  5  1  0  0  0
  4 88  1  0  0  0
  4 89  1  0  0  0
  5  6  1  0  0  0
  5 26  1  0  0  0
  5 90  1  0  0  0
  6 25  1  0  0  0
  6 91  1  0  0  0
  6 92  1  0  0  0
  7  8  2  0  0  0
  7 26  1  0  0  0
  7 29  1  0  0  0
  8  9  1  0  0  0
  8 22  1  0  0  0
  9 10  1  0  0  0
  9 27  2  0  0  0
 10 11  2  0  0  0
 10 15  1  0  0  0
 11 12  1  0  0  0
 11 93  1  0  0  0
 12 13  2  0  0  0
 12 94  1  0  0  0
 13 14  1  0  0  0
 13 31  1  0  0  0
 14 15  2  0  0  0
 14 95  1  0  0  0
 15 96  1  0  0  0
 16 17  2  0  0  0
 16 21  1  0  0  0
 16 31  1  0  0  0
 17 18  1  0  0  0
 17 97  1  0  0  0
 18 19  2  0  0  0
 18 98  1  0  0  0
 19 20  1  0  0  0
 19 24  1  0  0  0
 20 21  2  0  0  0
 20 99  1  0  0  0
 21 23  1  0  0  0
 22 28  1  0  0  0
 22 32  2  0  0  0
 26 27  1  0  0  0
 28100  1  0  0  0
 28101  1  0  0  0
 29102  1  0  0  0
 29103  1  0  0  0
 33 34  1  0  0  0
 33 66  1  0  0  0
 33 70  2  0  0  0
 34 36  1  0  0  0
 34 59  1  0  0  0
 34104  1  0  0  0
 35 44  2  0  0  0
 35 45  1  0  0  0
 35 68  1  0  0  0
 36 56  1  0  0  0
 36105  1  0  0  0
 37 39  1  0  0  0
 37 47  1  0  0  0
 37 66  1  0  0  0
 37106  1  0  0  0
 38 43  2  0  0  0
 38 46  1  0  0  0
 38 47  1  0  0  0
 39 64  1  0  0  0
 39 67  2  0  0  0
 40 52  1  0  0  0
 40 53  2  0  0  0
 40 58  1  0  0  0
 41107  1  0  0  0
 41108  1  0  0  0
 41109  1  0  0  0
 41 48  1  0  0  0
 42 43  1  0  0  0
 42 66  1  0  0  0
 42110  1  0  0  0
 42111  1  0  0  0
 43 44  1  0  0  0
 44112  1  0  0  0
 45 46  2  0  0  0
 45113  1  0  0  0
 46114  1  0  0  0
 47115  1  0  0  0
 47116  1  0  0  0
 48 56  1  0  0  0
 48 65  1  0  0  0
 48117  1  0  0  0
 49 50  1  0  0  0
 49 53  1  0  0  0
 49 64  1  0  0  0
 49118  1  0  0  0
 50 51  1  0  0  0
 50119  1  0  0  0
 50120  1  0  0  0
 51 52  1  0  0  0
 51121  1  0  0  0
 51122  1  0  0  0
 52123  1  0  0  0
 52124  1  0  0  0
 53 54  1  0  0  0
 54 55  2  0  0  0
 54125  1  0  0  0
 55 57  1  0  0  0
 55126  1  0  0  0
 56 69  2  0  0  0
 57 58  2  0  0  0
 57127  1  0  0  0
 58128  1  0  0  0
 59 60  1  0  0  0
 59 61  1  0  0  0
 59 62  1  0  0  0
 60129  1  0  0  0
 60130  1  0  0  0
 60131  1  0  0  0
 61132  1  0  0  0
 61133  1  0  0  0
 61134  1  0  0  0
 62135  1  0  0  0
 62136  1  0  0  0
 62137  1  0  0  0
 63 65  1  0  0  0
 63138  1  0  0  0
 63139  1  0  0  0
 63140  1  0  0  0
 64141  1  0  0  0
 65142  1  0  0  0
 68 80  1  0  0  0
 71 72  2  0  0  0
 71 73  1  0  0  0
 71 76  1  0  0  0
 72 74  1  0  0  0
 72 77  1  0  0  0
 73 75  2  0  0  0
 73 78  1  0  0  0
 74 79  1  0  0  0
 74 81  2  0  0  0
 75 81  1  0  0  0
 75 83  1  0  0  0
 76143  1  0  0  0
 76144  1  0  0  0
 76145  1  0  0  0
 77146  1  0  0  0
 77147  1  0  0  0
 77148  1  0  0  0
 78 82  1  0  0  0
 78149  1  0  0  0
 78150  1  0  0  0
 79 80  1  0  0  0
 79151  1  0  0  0
 79152  1  0  0  0
 80153  1  0  0  0
 80154  1  0  0  0
 82155  1  0  0  0
M  ISO  4   1 100  68 101  80 101  82 100
M  END
> <chiral flag>
0

> <version>
0

> <s_m_source_file>
/data/baiqing/PycharmProjects/Reinvent-master-3.2/result/LINK_invent/BTK/process_docking_weight1_custom_sum_contain_oxygen_bond_distance_aromatic_linkinvent_7_9_3/rearranged_h_0020.sdf

> <i_m_source_file_index>
78

> <r_mmod_Potential_Energy-OPLS-2005>
252.894165039062

> <r_mmod_Stretch_Energy-OPLS-2005>
204.984329223633

> <r_mmod_Bend_Energy-OPLS-2005>
244.418334960938

> <r_mmod_Torsional_Energy-OPLS-2005>
216.229064941406

> <r_mmod_Improper_Torsional_Energy-OPLS-2005>
10.4618787765503

> <r_mmod_Van_der_Waal_Energy-OPLS-2005>
144.179351806641

> <r_mmod_Electrostatic_Energy-OPLS-2005>
-487.994598388672

> <r_mmod_Solvation_Energy-OPLS-2005>
-218.852096557617

> <b_mmod_Minimization_Converged-OPLS-2005>
0

> <r_mmod_RMS_Derivative-OPLS-2005>
2.6823627948761

$$$$
78
                    3D
 Structure written by MMmdl.
157165  0  0  1  0            999 V2000
  -30.5155  -14.9270   20.4335 C   0  0  0  0  0  0
  -30.4543  -12.5715   19.4976 C   0  0  0  0  0  0
  -29.5295  -12.5356   18.2569 C   0  0  0  0  0  0
  -28.0598  -12.3226   18.6711 C   0  0  0  0  0  0
  -27.6384  -13.2428   19.8466 C   0  0  2  0  0  0
  -28.6809  -13.2320   20.9857 C   0  0  0  0  0  0
  -25.2497  -13.8202   20.5705 C   0  0  0  0  0  0
  -24.1794  -13.0443   20.9213 C   0  0  0  0  0  0
  -24.6400  -11.6923   20.8744 C   0  0  0  0  0  0
  -23.9076  -10.4294   21.0411 C   0  0  0  0  0  0
  -24.3621   -9.4203   21.9189 C   0  0  0  0  0  0
  -23.6288   -8.2242   22.0762 C   0  0  0  0  0  0
  -22.4270   -8.0284   21.3550 C   0  0  0  0  0  0
  -21.9908   -9.0260   20.4655 C   0  0  0  0  0  0
  -22.7244  -10.2136   20.3061 C   0  0  0  0  0  0
  -21.6848   -6.0735   22.5277 C   0  0  0  0  0  0
  -21.4018   -6.5636   23.8212 C   0  0  0  0  0  0
  -21.3660   -5.6785   24.9171 C   0  0  0  0  0  0
  -21.6044   -4.3048   24.7221 C   0  0  0  0  0  0
  -21.8817   -3.8145   23.4338 C   0  0  0  0  0  0
  -21.9188   -4.6964   22.3394 C   0  0  0  0  0  0
  -22.7812  -13.5234   21.1855 C   0  0  0  0  0  0
  -22.1655   -4.2151   21.0972 F   0  0  0  0  0  0
  -21.5625   -3.4529   25.7732 F   0  0  0  0  0  0
  -29.9650  -13.6480   20.4023 N   0  0  0  0  0  0
  -26.2925  -12.9427   20.3254 N   0  0  0  0  0  0
  -25.9335  -11.6561   20.5731 N   0  0  0  0  0  0
  -22.0438  -12.8253   22.0418 N   0  0  0  0  0  0
  -25.4179  -15.1926   20.4123 N   0  0  0  0  0  0
  -31.7019  -15.0537   20.1076 O   0  0  0  0  0  0
  -21.6633   -6.8880   21.4243 O   0  0  0  0  0  0
  -22.3503  -14.5529   20.6673 O   0  0  0  0  0  0
  -24.6421  -31.8465   23.1897 C   0  0  0  0  0  0
  -25.9190  -32.4713   23.8293 C   0  0  1  0  0  0
  -27.2167  -27.1503   20.1539 C   0  0  0  0  0  0
  -25.5940  -33.8520   24.2212 N   0  0  0  0  0  0
  -23.4452  -30.4666   21.5344 C   0  0  2  0  0  0
  -24.8948  -28.8945   20.1133 C   0  0  0  0  0  0
  -22.7567  -29.4560   22.4855 C   0  0  0  0  0  0
  -18.0305  -28.1405   22.8485 C   0  0  0  0  0  0
  -24.1486  -36.7267   23.2641 C   0  0  0  0  0  0
  -25.9997  -30.7255   21.3861 C   0  0  0  0  0  0
  -26.0717  -29.3364   20.7316 C   0  0  0  0  0  0
  -27.2352  -28.4804   20.7343 C   0  0  0  0  0  0
  -26.0169  -26.8093   19.4917 C   0  0  0  0  0  0
  -24.8790  -27.6441   19.4785 C   0  0  0  0  0  0
  -23.6719  -29.7976   20.1533 C   0  0  0  0  0  0
  -25.4116  -36.3047   24.0320 C   0  0  1  0  0  0
  -20.5921  -28.3730   23.1243 C   0  0  2  0  0  0
  -20.6788  -26.9432   22.5410 C   0  0  0  0  0  0
  -19.5752  -26.6390   21.5226 C   0  0  0  0  0  0
  -18.1936  -26.7943   22.1640 C   0  0  0  0  0  0
  -19.1563  -28.8883   23.2860 C   0  0  0  0  0  0
  -18.9478  -30.1479   23.8882 C   0  0  0  0  0  0
  -17.6474  -30.6598   24.0563 C   0  0  0  0  0  0
  -25.9069  -34.9419   23.5077 C   0  0  0  0  0  0
  -16.5364  -29.9096   23.6332 C   0  0  0  0  0  0
  -16.7290  -28.6518   23.0350 C   0  0  0  0  0  0
  -26.4507  -31.6569   25.0727 C   0  0  0  0  0  0
  -25.3688  -31.3766   26.1420 C   0  0  0  0  0  0
  -27.0361  -30.2962   24.6300 C   0  0  0  0  0  0
  -27.6039  -32.4331   25.7511 C   0  0  0  0  0  0
  -27.5574  -37.1792   24.8464 C   0  0  0  0  0  0
  -21.4259  -29.3058   22.3613 N   0  0  0  0  0  0
  -26.4283  -37.3756   23.9414 N   0  0  0  0  0  0
  -24.7155  -31.0336   22.0924 N   0  0  0  0  0  0
  -23.4216  -28.8106   23.2998 O   0  0  0  0  0  0
  -28.2786  -26.1795   20.1785 O   0  0  0  0  0  0
  -26.5659  -34.8903   22.4659 O   0  0  0  0  0  0
  -23.5544  -32.1331   23.7122 O   0  0  0  0  0  0
  -29.6725  -19.9030   19.6157 C   0  0  0  0  0  0
  -29.9467  -18.4604   19.5974 C   0  0  0  0  0  0
  -29.0508  -18.2714   21.7903 C   0  0  0  0  0  0
  -29.6395  -17.5591   20.6878 C   0  0  0  0  0  0
  -29.0375  -20.6004   20.7020 C   0  0  0  0  0  0
  -28.7591  -19.6983   21.7820 C   0  0  0  0  0  0
  -30.5450  -17.8727   18.3340 C   0  0  0  0  0  0
  -28.6919  -17.4799   23.0449 C   0  0  0  0  0  0
  -30.3805  -23.5803   20.2806 C   0  0  0  0  0  0
  -28.0059  -24.6839   20.5040 C   0  0  0  0  0  0
  -28.8849  -23.3014   20.0984 C   0  0  2  0  0  0
  -29.6536  -16.0212   20.6881 N   0  0  0  0  0  0
  -28.6045  -21.9966   20.8498 O   0  0  0  0  0  0
  -27.9803  -20.3961   23.1635 Cl  0  0  0  0  0  0
  -31.4871  -12.7404   19.1887 H   0  0  0  0  0  0
  -30.4518  -11.6094   20.0129 H   0  0  0  0  0  0
  -29.8463  -11.7476   17.5716 H   0  0  0  0  0  0
  -29.6196  -13.4736   17.7064 H   0  0  0  0  0  0
  -27.9497  -11.2788   18.9668 H   0  0  0  0  0  0
  -27.3991  -12.4686   17.8157 H   0  0  0  0  0  0
  -27.6135  -14.2525   19.4363 H   0  0  0  0  0  0
  -28.7587  -12.2406   21.4344 H   0  0  0  0  0  0
  -28.3806  -13.9048   21.7910 H   0  0  0  0  0  0
  -25.2768   -9.5668   22.4764 H   0  0  0  0  0  0
  -23.9984   -7.4638   22.7487 H   0  0  0  0  0  0
  -21.0833   -8.8786   19.8973 H   0  0  0  0  0  0
  -22.3703  -10.9673   19.6164 H   0  0  0  0  0  0
  -21.2021   -7.6147   23.9716 H   0  0  0  0  0  0
  -21.1483   -6.0515   25.9071 H   0  0  0  0  0  0
  -22.0598   -2.7609   23.2829 H   0  0  0  0  0  0
  -22.4021  -11.9922   22.4854 H   0  0  0  0  0  0
  -21.1063  -13.1307   22.2599 H   0  0  0  0  0  0
  -24.6459  -15.8419   20.5161 H   0  0  0  0  0  0
  -26.2539  -15.6296   20.0466 H   0  0  0  0  0  0
  -26.7259  -32.5322   23.1029 H   0  0  0  0  0  0
  -25.0023  -33.9640   25.0316 H   0  0  0  0  0  0
  -22.7473  -31.2925   21.3824 H   0  0  0  0  0  0
  -23.3751  -35.9594   23.3290 H   0  0  0  0  0  0
  -24.3581  -36.8915   22.2061 H   0  0  0  0  0  0
  -23.7227  -37.6457   23.6684 H   0  0  0  0  0  0
  -26.1506  -31.4796   20.6120 H   0  0  0  0  0  0
  -26.8722  -30.7797   22.0258 H   0  0  0  0  0  0
  -28.1335  -28.8169   21.2333 H   0  0  0  0  0  0
  -25.9377  -25.8620   18.9790 H   0  0  0  0  0  0
  -23.9829  -27.3068   18.9769 H   0  0  0  0  0  0
  -23.8111  -30.5740   19.3996 H   0  0  0  0  0  0
  -22.7862  -29.2423   19.8404 H   0  0  0  0  0  0
  -25.1298  -36.1885   25.0811 H   0  0  0  0  0  0
  -21.0023  -28.3317   24.1359 H   0  0  0  0  0  0
  -20.5701  -26.2342   23.3631 H   0  0  0  0  0  0
  -21.6648  -26.7442   22.1195 H   0  0  0  0  0  0
  -19.6910  -25.6296   21.1264 H   0  0  0  0  0  0
  -19.6682  -27.3193   20.6752 H   0  0  0  0  0  0
  -17.4208  -26.6698   21.4039 H   0  0  0  0  0  0
  -18.0323  -26.0093   22.9044 H   0  0  0  0  0  0
  -19.7950  -30.7305   24.2246 H   0  0  0  0  0  0
  -17.5021  -31.6273   24.5173 H   0  0  0  0  0  0
  -15.5362  -30.2992   23.7653 H   0  0  0  0  0  0
  -15.8695  -28.0832   22.7062 H   0  0  0  0  0  0
  -24.5865  -30.7121   25.7736 H   0  0  0  0  0  0
  -24.8874  -32.2953   26.4784 H   0  0  0  0  0  0
  -25.7955  -30.8973   27.0239 H   0  0  0  0  0  0
  -26.2973  -29.6702   24.1282 H   0  0  0  0  0  0
  -27.3945  -29.7249   25.4873 H   0  0  0  0  0  0
  -27.8895  -30.4201   23.9629 H   0  0  0  0  0  0
  -27.2633  -33.3646   26.2046 H   0  0  0  0  0  0
  -28.3863  -32.6874   25.0349 H   0  0  0  0  0  0
  -28.0689  -31.8487   26.5463 H   0  0  0  0  0  0
  -28.2582  -38.0097   24.7511 H   0  0  0  0  0  0
  -28.1078  -36.2627   24.6283 H   0  0  0  0  0  0
  -27.2301  -37.1430   25.8870 H   0  0  0  0  0  0
  -20.9468  -29.8792   21.6815 H   0  0  0  0  0  0
  -26.0154  -38.2827   24.1419 H   0  0  0  0  0  0
  -29.9203  -20.4841   18.7391 H   0  0  0  0  0  0
  -30.5982  -18.6095   17.5317 H   0  0  0  0  0  0
  -29.9468  -17.0334   17.9786 H   0  0  0  0  0  0
  -31.5554  -17.5144   18.5298 H   0  0  0  0  0  0
  -29.2476  -16.5468   23.1283 H   0  0  0  0  0  0
  -27.6267  -17.2484   23.0565 H   0  0  0  0  0  0
  -28.9315  -18.0420   23.9478 H   0  0  0  0  0  0
  -30.6770  -24.4661   19.7172 H   0  0  0  0  0  0
  -30.9881  -22.7451   19.9304 H   0  0  0  0  0  0
  -30.6206  -23.7574   21.3292 H   0  0  0  0  0  0
  -27.9794  -24.6821   21.5938 H   0  0  0  0  0  0
  -26.9782  -24.4536   20.2300 H   0  0  0  0  0  0
  -28.7091  -23.1043   19.0403 H   0  0  0  0  0  0
  -28.7780  -15.6529   21.0266 H   0  0  0  0  0  0
  1 25  1  0  0  0
  1 30  2  0  0  0
  1 82  1  0  0  0
  2  3  1  0  0  0
  2 25  1  0  0  0
  2 85  1  0  0  0
  2 86  1  0  0  0
  3  4  1  0  0  0
  3 87  1  0  0  0
  3 88  1  0  0  0
  4  5  1  0  0  0
  4 89  1  0  0  0
  4 90  1  0  0  0
  5  6  1  0  0  0
  5 26  1  0  0  0
  5 91  1  0  0  0
  6 25  1  0  0  0
  6 92  1  0  0  0
  6 93  1  0  0  0
  7  8  2  0  0  0
  7 26  1  0  0  0
  7 29  1  0  0  0
  8  9  1  0  0  0
  8 22  1  0  0  0
  9 10  1  0  0  0
  9 27  2  0  0  0
 10 11  2  0  0  0
 10 15  1  0  0  0
 11 12  1  0  0  0
 11 94  1  0  0  0
 12 13  2  0  0  0
 12 95  1  0  0  0
 13 14  1  0  0  0
 13 31  1  0  0  0
 14 15  2  0  0  0
 14 96  1  0  0  0
 15 97  1  0  0  0
 16 17  2  0  0  0
 16 21  1  0  0  0
 16 31  1  0  0  0
 17 18  1  0  0  0
 17 98  1  0  0  0
 18 19  2  0  0  0
 18 99  1  0  0  0
 19 20  1  0  0  0
 19 24  1  0  0  0
 20 21  2  0  0  0
 20100  1  0  0  0
 21 23  1  0  0  0
 22 28  1  0  0  0
 22 32  2  0  0  0
 26 27  1  0  0  0
 28101  1  0  0  0
 28102  1  0  0  0
 29103  1  0  0  0
 29104  1  0  0  0
 33 34  1  0  0  0
 33 66  1  0  0  0
 33 70  2  0  0  0
 34 36  1  0  0  0
 34 59  1  0  0  0
 34105  1  0  0  0
 35 44  2  0  0  0
 35 45  1  0  0  0
 35 68  1  0  0  0
 36 56  1  0  0  0
 36106  1  0  0  0
 37 39  1  0  0  0
 37 47  1  0  0  0
 37 66  1  0  0  0
 37107  1  0  0  0
 38 43  2  0  0  0
 38 46  1  0  0  0
 38 47  1  0  0  0
 39 64  1  0  0  0
 39 67  2  0  0  0
 40 52  1  0  0  0
 40 53  2  0  0  0
 40 58  1  0  0  0
 41108  1  0  0  0
 41109  1  0  0  0
 41110  1  0  0  0
 41 48  1  0  0  0
 42 43  1  0  0  0
 42 66  1  0  0  0
 42111  1  0  0  0
 42112  1  0  0  0
 43 44  1  0  0  0
 44113  1  0  0  0
 45 46  2  0  0  0
 45114  1  0  0  0
 46115  1  0  0  0
 47116  1  0  0  0
 47117  1  0  0  0
 48 56  1  0  0  0
 48 65  1  0  0  0
 48118  1  0  0  0
 49 50  1  0  0  0
 49 53  1  0  0  0
 49 64  1  0  0  0
 49119  1  0  0  0
 50 51  1  0  0  0
 50120  1  0  0  0
 50121  1  0  0  0
 51 52  1  0  0  0
 51122  1  0  0  0
 51123  1  0  0  0
 52124  1  0  0  0
 52125  1  0  0  0
 53 54  1  0  0  0
 54 55  2  0  0  0
 54126  1  0  0  0
 55 57  1  0  0  0
 55127  1  0  0  0
 56 69  2  0  0  0
 57 58  2  0  0  0
 57128  1  0  0  0
 58129  1  0  0  0
 59 60  1  0  0  0
 59 61  1  0  0  0
 59 62  1  0  0  0
 60130  1  0  0  0
 60131  1  0  0  0
 60132  1  0  0  0
 61133  1  0  0  0
 61134  1  0  0  0
 61135  1  0  0  0
 62136  1  0  0  0
 62137  1  0  0  0
 62138  1  0  0  0
 63 65  1  0  0  0
 63139  1  0  0  0
 63140  1  0  0  0
 63141  1  0  0  0
 64142  1  0  0  0
 65143  1  0  0  0
 68 80  1  0  0  0
 71 72  2  0  0  0
 71 75  1  0  0  0
 71144  1  0  0  0
 72 74  1  0  0  0
 72 77  1  0  0  0
 73 74  2  0  0  0
 73 76  1  0  0  0
 73 78  1  0  0  0
 74 82  1  0  0  0
 75 76  2  0  0  0
 75 83  1  0  0  0
 76 84  1  0  0  0
 77145  1  0  0  0
 77146  1  0  0  0
 77147  1  0  0  0
 78148  1  0  0  0
 78149  1  0  0  0
 78150  1  0  0  0
 79151  1  0  0  0
 79152  1  0  0  0
 79153  1  0  0  0
 79 81  1  0  0  0
 80 81  1  0  0  0
 80154  1  0  0  0
 80155  1  0  0  0
 81 83  1  0  0  0
 81156  1  0  0  0
 82157  1  0  0  0
M  ISO  4   1 100  68 101  80 101  82 100
M  END
> <chiral flag>
0

> <version>
0

> <s_m_source_file>
/data/baiqing/PycharmProjects/Reinvent-master-3.2/result/LINK_invent/BTK/process_docking_weight1_custom_sum_contain_oxygen_bond_distance_aromatic_linkinvent_7_9_3/rearranged_h_0020.sdf

> <i_m_source_file_index>
79

> <r_mmod_Potential_Energy-OPLS-2005>
482.849212646484

> <r_mmod_Stretch_Energy-OPLS-2005>
225.159805297852

> <r_mmod_Bend_Energy-OPLS-2005>
289.899505615234

> <r_mmod_Torsional_Energy-OPLS-2005>
242.068481445312

> <r_mmod_Improper_Torsional_Energy-OPLS-2005>
4.97399044036865

> <r_mmod_Van_der_Waal_Energy-OPLS-2005>
130.585678100586

> <r_mmod_Electrostatic_Energy-OPLS-2005>
-382.211761474609

> <r_mmod_Solvation_Energy-OPLS-2005>
-204.840454101562

> <b_mmod_Minimization_Converged-OPLS-2005>
0

> <r_mmod_RMS_Derivative-OPLS-2005>
1.39541077613831

$$$$
79
                    3D
 Structure written by MMmdl.
165173  0  0  1  0            999 V2000
  -30.5901  -14.6823   20.5159 C   0  0  0  0  0  0
  -30.4509  -12.4254   19.4544 C   0  0  0  0  0  0
  -29.5121  -12.5164   18.2288 C   0  0  0  0  0  0
  -28.0352  -12.3465   18.6402 C   0  0  0  0  0  0
  -27.6536  -13.2162   19.8671 C   0  0  2  0  0  0
  -28.6997  -13.0669   20.9954 C   0  0  0  0  0  0
  -25.2505  -13.8122   20.5574 C   0  0  0  0  0  0
  -24.1799  -13.0399   20.9155 C   0  0  0  0  0  0
  -24.6395  -11.6886   20.8753 C   0  0  0  0  0  0
  -23.9068  -10.4274   21.0416 C   0  0  0  0  0  0
  -24.3617   -9.4189   21.9192 C   0  0  0  0  0  0
  -23.6289   -8.2228   22.0760 C   0  0  0  0  0  0
  -22.4272   -8.0271   21.3548 C   0  0  0  0  0  0
  -21.9910   -9.0243   20.4652 C   0  0  0  0  0  0
  -22.7243  -10.2117   20.3062 C   0  0  0  0  0  0
  -21.6845   -6.0735   22.5279 C   0  0  0  0  0  0
  -21.4008   -6.5643   23.8211 C   0  0  0  0  0  0
  -21.3655   -5.6793   24.9175 C   0  0  0  0  0  0
  -21.6045   -4.3053   24.7224 C   0  0  0  0  0  0
  -21.8819   -3.8146   23.4341 C   0  0  0  0  0  0
  -21.9193   -4.6965   22.3399 C   0  0  0  0  0  0
  -22.7827  -13.5201   21.1823 C   0  0  0  0  0  0
  -22.1663   -4.2154   21.0973 F   0  0  0  0  0  0
  -21.5628   -3.4536   25.7735 F   0  0  0  0  0  0
  -30.0114  -13.4378   20.4381 N   0  0  0  0  0  0
  -26.2989  -12.9336   20.3326 N   0  0  0  0  0  0
  -25.9336  -11.6491   20.5809 N   0  0  0  0  0  0
  -22.0482  -12.8214   22.0406 N   0  0  0  0  0  0
  -25.4097  -15.1811   20.3803 N   0  0  0  0  0  0
  -31.7384  -14.8780   20.1071 O   0  0  0  0  0  0
  -21.6631   -6.8874   21.4243 O   0  0  0  0  0  0
  -22.3504  -14.5506   20.6675 O   0  0  0  0  0  0
  -24.6239  -31.8590   23.1980 C   0  0  0  0  0  0
  -25.9072  -32.4783   23.8329 C   0  0  1  0  0  0
  -27.2363  -27.3110   20.1493 C   0  0  0  0  0  0
  -25.5879  -33.8581   24.2258 N   0  0  0  0  0  0
  -23.4211  -30.4787   21.5386 C   0  0  2  0  0  0
  -24.8725  -28.9151   20.1272 C   0  0  0  0  0  0
  -22.7467  -29.4645   22.4923 C   0  0  0  0  0  0
  -18.0308  -28.1414   22.8493 C   0  0  0  0  0  0
  -24.1484  -36.7283   23.2649 C   0  0  0  0  0  0
  -25.9593  -30.7882   21.3687 C   0  0  0  0  0  0
  -26.0369  -29.4073   20.7304 C   0  0  0  0  0  0
  -27.2223  -28.6172   20.7290 C   0  0  0  0  0  0
  -26.0511  -26.8604   19.5328 C   0  0  0  0  0  0
  -24.8790  -27.6463   19.5225 C   0  0  0  0  0  0
  -23.6415  -29.7982   20.1606 C   0  0  0  0  0  0
  -25.4106  -36.3079   24.0343 C   0  0  1  0  0  0
  -20.5900  -28.3703   23.1287 C   0  0  2  0  0  0
  -20.6788  -26.9427   22.5417 C   0  0  0  0  0  0
  -19.5761  -26.6402   21.5225 C   0  0  0  0  0  0
  -18.1942  -26.7963   22.1625 C   0  0  0  0  0  0
  -19.1557  -28.8871   23.2890 C   0  0  0  0  0  0
  -18.9486  -30.1472   23.8904 C   0  0  0  0  0  0
  -17.6489  -30.6604   24.0582 C   0  0  0  0  0  0
  -25.9034  -34.9456   23.5102 C   0  0  0  0  0  0
  -16.5378  -29.9114   23.6343 C   0  0  0  0  0  0
  -16.7299  -28.6541   23.0348 C   0  0  0  0  0  0
  -26.4464  -31.6592   25.0695 C   0  0  0  0  0  0
  -25.3701  -31.3750   26.1430 C   0  0  0  0  0  0
  -27.0308  -30.3031   24.6119 C   0  0  0  0  0  0
  -27.6014  -32.4332   25.7476 C   0  0  0  0  0  0
  -27.5579  -37.1791   24.8477 C   0  0  0  0  0  0
  -21.4183  -29.3058   22.3660 N   0  0  0  0  0  0
  -26.4287  -37.3766   23.9427 N   0  0  0  0  0  0
  -24.6872  -31.0594   22.0932 N   0  0  0  0  0  0
  -23.4183  -28.8215   23.3034 O   0  0  0  0  0  0
  -28.3923  -26.5252   20.0568 O   0  0  0  0  0  0
  -26.5617  -34.8927   22.4678 O   0  0  0  0  0  0
  -23.5399  -32.1394   23.7297 O   0  0  0  0  0  0
  -30.7025  -18.0168   20.2922 C   0  0  0  0  0  0
  -28.4454  -19.2535   21.4357 C   0  0  0  0  0  0
  -29.4516  -20.1157   20.9006 C   0  0  0  0  0  0
  -29.7324  -17.1625   20.8808 C   0  0  0  0  0  0
  -30.5742  -19.4470   20.3152 C   0  0  0  0  0  0
  -28.6097  -17.8259   21.4539 C   0  0  0  0  0  0
  -27.1901  -19.8601   22.0589 C   0  0  0  0  0  0
  -30.9578  -24.7952   22.1796 C   0  0  0  0  0  0
  -28.1330  -25.6321   22.3183 C   0  0  0  0  0  0
  -29.4250  -21.6900   21.1611 C   0  0  0  0  0  0
  -28.1283  -23.9141   20.3972 C   0  0  0  0  0  0
  -30.2642  -25.4000   20.9444 C   0  0  1  0  0  0
  -28.7014  -25.3409   20.9088 C   0  0  1  0  0  0
  -29.7606  -15.6881   20.9494 N   0  0  0  0  0  0
  -28.9996  -22.6807   20.0884 N   0  3  0  0  0  0
  -30.6855  -26.6699   20.9255 F   0  0  0  0  0  0
  -31.8610  -20.3807   19.6399 Cl  0  0  0  0  0  0
  -27.4347  -16.8454   22.2649 Cl  0  0  0  0  0  0
  -31.4862  -12.5796   19.1451 H   0  0  0  0  0  0
  -30.4175  -11.4291   19.8970 H   0  0  0  0  0  0
  -29.7840  -11.7608   17.4904 H   0  0  0  0  0  0
  -29.6434  -13.4822   17.7382 H   0  0  0  0  0  0
  -27.8748  -11.2930   18.8719 H   0  0  0  0  0  0
  -27.3804  -12.5733   17.7977 H   0  0  0  0  0  0
  -27.6707  -14.2524   19.5284 H   0  0  0  0  0  0
  -28.7251  -12.0389   21.3592 H   0  0  0  0  0  0
  -28.4333  -13.6768   21.8598 H   0  0  0  0  0  0
  -25.2757   -9.5662   22.4769 H   0  0  0  0  0  0
  -23.9994   -7.4617   22.7475 H   0  0  0  0  0  0
  -21.0842   -8.8760   19.8952 H   0  0  0  0  0  0
  -22.3702  -10.9658   19.6171 H   0  0  0  0  0  0
  -21.1996   -7.6151   23.9719 H   0  0  0  0  0  0
  -21.1477   -6.0519   25.9076 H   0  0  0  0  0  0
  -22.0605   -2.7613   23.2836 H   0  0  0  0  0  0
  -22.4090  -11.9869   22.4793 H   0  0  0  0  0  0
  -21.1109  -13.1250   22.2627 H   0  0  0  0  0  0
  -24.6509  -15.8346   20.5307 H   0  0  0  0  0  0
  -26.2804  -15.6360   20.1407 H   0  0  0  0  0  0
  -26.7137  -32.5462   23.1074 H   0  0  0  0  0  0
  -25.0024  -33.9732   25.0401 H   0  0  0  0  0  0
  -22.7181  -31.2994   21.3843 H   0  0  0  0  0  0
  -23.3751  -35.9607   23.3310 H   0  0  0  0  0  0
  -24.3584  -36.8896   22.2065 H   0  0  0  0  0  0
  -23.7232  -37.6488   23.6661 H   0  0  0  0  0  0
  -26.0816  -31.5401   20.5876 H   0  0  0  0  0  0
  -26.8437  -30.8517   21.9919 H   0  0  0  0  0  0
  -28.1259  -29.0007   21.1818 H   0  0  0  0  0  0
  -26.0338  -25.8930   19.0523 H   0  0  0  0  0  0
  -23.9850  -27.2634   19.0493 H   0  0  0  0  0  0
  -23.7668  -30.5652   19.3953 H   0  0  0  0  0  0
  -22.7641  -29.2243   19.8577 H   0  0  0  0  0  0
  -25.1285  -36.1923   25.0836 H   0  0  0  0  0  0
  -20.9991  -28.3277   24.1407 H   0  0  0  0  0  0
  -20.5690  -26.2315   23.3611 H   0  0  0  0  0  0
  -21.6655  -26.7461   22.1205 H   0  0  0  0  0  0
  -19.6915  -25.6316   21.1256 H   0  0  0  0  0  0
  -19.6712  -27.3200   20.6752 H   0  0  0  0  0  0
  -17.4215  -26.6719   21.4030 H   0  0  0  0  0  0
  -18.0338  -26.0117   22.9029 H   0  0  0  0  0  0
  -19.7971  -30.7296   24.2243 H   0  0  0  0  0  0
  -17.5067  -31.6287   24.5184 H   0  0  0  0  0  0
  -15.5383  -30.3029   23.7682 H   0  0  0  0  0  0
  -15.8700  -28.0880   22.7035 H   0  0  0  0  0  0
  -24.5851  -30.7123   25.7776 H   0  0  0  0  0  0
  -24.8927  -32.2942   26.4840 H   0  0  0  0  0  0
  -25.8024  -30.8946   27.0215 H   0  0  0  0  0  0
  -26.2887  -29.6790   24.1136 H   0  0  0  0  0  0
  -27.4054  -29.7263   25.4582 H   0  0  0  0  0  0
  -27.8713  -30.4357   23.9306 H   0  0  0  0  0  0
  -27.2588  -33.3619   26.2052 H   0  0  0  0  0  0
  -28.3817  -32.6906   25.0304 H   0  0  0  0  0  0
  -28.0668  -31.8457   26.5404 H   0  0  0  0  0  0
  -28.2580  -38.0098   24.7513 H   0  0  0  0  0  0
  -28.1083  -36.2630   24.6291 H   0  0  0  0  0  0
  -27.2311  -37.1430   25.8882 H   0  0  0  0  0  0
  -20.9348  -29.8776   21.6872 H   0  0  0  0  0  0
  -26.0171  -38.2840   24.1431 H   0  0  0  0  0  0
  -31.5820  -17.5823   19.8406 H   0  0  0  0  0  0
  -27.3408  -20.0376   23.1243 H   0  0  0  0  0  0
  -26.3217  -19.2126   21.9428 H   0  0  0  0  0  0
  -26.9124  -20.8010   21.5850 H   0  0  0  0  0  0
  -30.5624  -23.8264   22.4627 H   0  0  0  0  0  0
  -30.8434  -25.4443   23.0486 H   0  0  0  0  0  0
  -32.0278  -24.6831   22.0049 H   0  0  0  0  0  0
  -28.3823  -24.8421   23.0272 H   0  0  0  0  0  0
  -27.0459  -25.7053   22.3041 H   0  0  0  0  0  0
  -28.5225  -26.5682   22.7192 H   0  0  0  0  0  0
  -30.4418  -21.9521   21.4477 H   0  0  0  0  0  0
  -28.8445  -21.8934   22.0610 H   0  0  0  0  0  0
  -27.6371  -24.1296   19.4480 H   0  0  0  0  0  0
  -27.3099  -23.5908   21.0416 H   0  0  0  0  0  0
  -30.6652  -24.9637   20.0300 H   0  0  0  0  0  0
  -28.9023  -15.3159   21.3276 H   0  0  0  0  0  0
  -28.4342  -22.1298   19.4611 H   0  0  0  0  0  0
  -29.8052  -22.9481   19.5467 H   0  0  0  0  0  0
  1 25  1  0  0  0
  1 30  2  0  0  0
  1 84  1  0  0  0
  2  3  1  0  0  0
  2 25  1  0  0  0
  2 89  1  0  0  0
  2 90  1  0  0  0
  3  4  1  0  0  0
  3 91  1  0  0  0
  3 92  1  0  0  0
  4  5  1  0  0  0
  4 93  1  0  0  0
  4 94  1  0  0  0
  5  6  1  0  0  0
  5 26  1  0  0  0
  5 95  1  0  0  0
  6 25  1  0  0  0
  6 96  1  0  0  0
  6 97  1  0  0  0
  7  8  2  0  0  0
  7 26  1  0  0  0
  7 29  1  0  0  0
  8  9  1  0  0  0
  8 22  1  0  0  0
  9 10  1  0  0  0
  9 27  2  0  0  0
 10 11  2  0  0  0
 10 15  1  0  0  0
 11 12  1  0  0  0
 11 98  1  0  0  0
 12 13  2  0  0  0
 12 99  1  0  0  0
 13 14  1  0  0  0
 13 31  1  0  0  0
 14 15  2  0  0  0
 14100  1  0  0  0
 15101  1  0  0  0
 16 17  2  0  0  0
 16 21  1  0  0  0
 16 31  1  0  0  0
 17 18  1  0  0  0
 17102  1  0  0  0
 18 19  2  0  0  0
 18103  1  0  0  0
 19 20  1  0  0  0
 19 24  1  0  0  0
 20 21  2  0  0  0
 20104  1  0  0  0
 21 23  1  0  0  0
 22 28  1  0  0  0
 22 32  2  0  0  0
 26 27  1  0  0  0
 28105  1  0  0  0
 28106  1  0  0  0
 29107  1  0  0  0
 29108  1  0  0  0
 33 34  1  0  0  0
 33 66  1  0  0  0
 33 70  2  0  0  0
 34 36  1  0  0  0
 34 59  1  0  0  0
 34109  1  0  0  0
 35 44  2  0  0  0
 35 45  1  0  0  0
 35 68  1  0  0  0
 36 56  1  0  0  0
 36110  1  0  0  0
 37 39  1  0  0  0
 37 47  1  0  0  0
 37 66  1  0  0  0
 37111  1  0  0  0
 38 43  2  0  0  0
 38 46  1  0  0  0
 38 47  1  0  0  0
 39 64  1  0  0  0
 39 67  2  0  0  0
 40 52  1  0  0  0
 40 53  2  0  0  0
 40 58  1  0  0  0
 41112  1  0  0  0
 41113  1  0  0  0
 41114  1  0  0  0
 41 48  1  0  0  0
 42 43  1  0  0  0
 42 66  1  0  0  0
 42115  1  0  0  0
 42116  1  0  0  0
 43 44  1  0  0  0
 44117  1  0  0  0
 45 46  2  0  0  0
 45118  1  0  0  0
 46119  1  0  0  0
 47120  1  0  0  0
 47121  1  0  0  0
 48 56  1  0  0  0
 48 65  1  0  0  0
 48122  1  0  0  0
 49 50  1  0  0  0
 49 53  1  0  0  0
 49 64  1  0  0  0
 49123  1  0  0  0
 50 51  1  0  0  0
 50124  1  0  0  0
 50125  1  0  0  0
 51 52  1  0  0  0
 51126  1  0  0  0
 51127  1  0  0  0
 52128  1  0  0  0
 52129  1  0  0  0
 53 54  1  0  0  0
 54 55  2  0  0  0
 54130  1  0  0  0
 55 57  1  0  0  0
 55131  1  0  0  0
 56 69  2  0  0  0
 57 58  2  0  0  0
 57132  1  0  0  0
 58133  1  0  0  0
 59 60  1  0  0  0
 59 61  1  0  0  0
 59 62  1  0  0  0
 60134  1  0  0  0
 60135  1  0  0  0
 60136  1  0  0  0
 61137  1  0  0  0
 61138  1  0  0  0
 61139  1  0  0  0
 62140  1  0  0  0
 62141  1  0  0  0
 62142  1  0  0  0
 63 65  1  0  0  0
 63143  1  0  0  0
 63144  1  0  0  0
 63145  1  0  0  0
 64146  1  0  0  0
 65147  1  0  0  0
 68 83  1  0  0  0
 71 74  2  0  0  0
 71 75  1  0  0  0
 71148  1  0  0  0
 72 73  1  0  0  0
 72 76  2  0  0  0
 72 77  1  0  0  0
 73 75  2  0  0  0
 73 80  1  0  0  0
 74 76  1  0  0  0
 74 84  1  0  0  0
 75 87  1  0  0  0
 76 88  1  0  0  0
 77149  1  0  0  0
 77150  1  0  0  0
 77151  1  0  0  0
 78152  1  0  0  0
 78153  1  0  0  0
 78154  1  0  0  0
 78 82  1  0  0  0
 79155  1  0  0  0
 79156  1  0  0  0
 79157  1  0  0  0
 79 83  1  0  0  0
 80 85  1  0  0  0
 80158  1  0  0  0
 80159  1  0  0  0
 81 83  1  0  0  0
 81 85  1  0  0  0
 81160  1  0  0  0
 81161  1  0  0  0
 82 83  1  0  0  0
 82 86  1  0  0  0
 82162  1  0  0  0
 84163  1  0  0  0
 85164  1  0  0  0
 85165  1  0  0  0
M  CHG  1  85   1
M  ISO  4   1 100  68 101  83 101  84 100
M  END
> <chiral flag>
0

> <version>
0

> <s_m_source_file>
/data/baiqing/PycharmProjects/Reinvent-master-3.2/result/LINK_invent/BTK/process_docking_weight1_custom_sum_contain_oxygen_bond_distance_aromatic_linkinvent_7_9_3/rearranged_h_0020.sdf

> <i_m_source_file_index>
80

> <r_mmod_Potential_Energy-OPLS-2005>
-0.835636675357819

> <r_mmod_Stretch_Energy-OPLS-2005>
101.093681335449

> <r_mmod_Bend_Energy-OPLS-2005>
200.164321899414

> <r_mmod_Torsional_Energy-OPLS-2005>
275.839477539062

> <r_mmod_Improper_Torsional_Energy-OPLS-2005>
4.83453178405762

> <r_mmod_Van_der_Waal_Energy-OPLS-2005>
141.855499267578

> <r_mmod_Electrostatic_Energy-OPLS-2005>
-312.524444580078

> <r_mmod_Solvation_Energy-OPLS-2005>
-464.953399658203

> <b_mmod_Minimization_Converged-OPLS-2005>
0

> <r_mmod_RMS_Derivative-OPLS-2005>
1.82897281646729

$$$$
80
                    3D
 Structure written by MMmdl.
188196  0  0  1  0            999 V2000
  -30.5296  -14.7230   20.5698 C   0  0  0  0  0  0
  -30.4718  -12.5184   19.3824 C   0  0  0  0  0  0
  -29.5055  -12.5430   18.1734 C   0  0  0  0  0  0
  -28.0198  -12.3626   18.5741 C   0  0  0  0  0  0
  -27.6346  -13.1676   19.8454 C   0  0  2  0  0  0
  -28.6884  -12.8844   20.9033 C   0  0  0  0  0  0
  -25.2521  -13.8001   20.5650 C   0  0  0  0  0  0
  -24.1783  -13.0379   20.9193 C   0  0  0  0  0  0
  -24.6269  -11.6798   20.8711 C   0  0  0  0  0  0
  -23.8943  -10.4245   21.0421 C   0  0  0  0  0  0
  -24.3545   -9.4180   21.9195 C   0  0  0  0  0  0
  -23.6243   -8.2206   22.0768 C   0  0  0  0  0  0
  -22.4224   -8.0243   21.3549 C   0  0  0  0  0  0
  -21.9855   -9.0204   20.4637 C   0  0  0  0  0  0
  -22.7152  -10.2081   20.3047 C   0  0  0  0  0  0
  -21.6849   -6.0717   22.5298 C   0  0  0  0  0  0
  -21.3981   -6.5619   23.8227 C   0  0  0  0  0  0
  -21.3654   -5.6776   24.9198 C   0  0  0  0  0  0
  -21.6050   -4.3044   24.7256 C   0  0  0  0  0  0
  -21.8810   -3.8133   23.4375 C   0  0  0  0  0  0
  -21.9175   -4.6947   22.3421 C   0  0  0  0  0  0
  -22.7803  -13.5198   21.1903 C   0  0  0  0  0  0
  -22.1622   -4.2130   21.0997 F   0  0  0  0  0  0
  -21.5664   -3.4526   25.7764 F   0  0  0  0  0  0
  -29.9581  -13.4630   20.4122 N   0  0  0  0  0  0
  -26.2842  -12.9047   20.3170 N   0  0  0  0  0  0
  -25.9143  -11.6261   20.5589 N   0  0  0  0  0  0
  -22.0365  -12.8231   22.0409 N   0  0  0  0  0  0
  -25.4325  -15.1764   20.4196 N   0  0  0  0  0  0
  -31.7013  -14.8755   20.1992 O   0  0  0  0  0  0
  -21.6608   -6.8844   21.4253 O   0  0  0  0  0  0
  -22.3543  -14.5554   20.6756 O   0  0  0  0  0  0
  -24.6278  -31.8625   23.1991 C   0  0  0  0  0  0
  -25.9139  -32.4772   23.8327 C   0  0  1  0  0  0
  -27.1984  -27.2718   20.2083 C   0  0  0  0  0  0
  -25.5956  -33.8558   24.2304 N   0  0  0  0  0  0
  -23.4229  -30.4713   21.5474 C   0  0  2  0  0  0
  -24.8721  -28.9199   20.1225 C   0  0  0  0  0  0
  -22.7506  -29.4625   22.5056 C   0  0  0  0  0  0
  -18.0254  -28.1393   22.8463 C   0  0  0  0  0  0
  -24.1460  -36.7297   23.2601 C   0  0  0  0  0  0
  -25.9527  -30.7968   21.3575 C   0  0  0  0  0  0
  -26.0410  -29.4077   20.7251 C   0  0  0  0  0  0
  -27.2136  -28.5955   20.7588 C   0  0  0  0  0  0
  -26.0245  -26.8491   19.5591 C   0  0  0  0  0  0
  -24.8654  -27.6473   19.5263 C   0  0  0  0  0  0
  -23.6396  -29.7946   20.1669 C   0  0  0  0  0  0
  -25.4097  -36.3094   24.0295 C   0  0  1  0  0  0
  -20.5857  -28.3739   23.1291 C   0  0  2  0  0  0
  -20.6798  -26.9489   22.5397 C   0  0  0  0  0  0
  -19.5779  -26.6441   21.5180 C   0  0  0  0  0  0
  -18.1944  -26.7938   22.1568 C   0  0  0  0  0  0
  -19.1508  -28.8890   23.2820 C   0  0  0  0  0  0
  -18.9425  -30.1461   23.8859 C   0  0  0  0  0  0
  -17.6450  -30.6593   24.0561 C   0  0  0  0  0  0
  -25.9059  -34.9451   23.5123 C   0  0  0  0  0  0
  -16.5339  -29.9105   23.6298 C   0  0  0  0  0  0
  -16.7255  -28.6522   23.0322 C   0  0  0  0  0  0
  -26.4533  -31.6523   25.0659 C   0  0  0  0  0  0
  -25.3722  -31.3602   26.1343 C   0  0  0  0  0  0
  -27.0384  -30.2952   24.6039 C   0  0  0  0  0  0
  -27.6110  -32.4244   25.7463 C   0  0  0  0  0  0
  -27.5568  -37.1796   24.8454 C   0  0  0  0  0  0
  -21.4238  -29.3053   22.3719 N   0  0  0  0  0  0
  -26.4274  -37.3811   23.9409 N   0  0  0  0  0  0
  -24.6881  -31.0590   22.0961 N   0  0  0  0  0  0
  -23.4209  -28.8187   23.3179 O   0  0  0  0  0  0
  -28.2547  -26.3550   20.2824 O   0  0  0  0  0  0
  -26.5623  -34.8943   22.4675 O   0  0  0  0  0  0
  -23.5434  -32.1478   23.7304 O   0  0  0  0  0  0
  -28.2604  -20.9400   21.2377 C   0  0  0  0  0  0
  -26.9507  -20.7361   21.5487 C   0  0  0  0  0  0
  -29.0871  -19.7809   20.7251 C   0  0  0  0  0  0
  -28.9229  -18.4131   20.8819 C   0  0  0  0  0  0
  -26.2549  -21.6945   22.4914 C   0  0  0  0  0  0
  -27.2391  -22.0257   23.6230 C   0  0  0  0  0  0
  -28.5385  -22.6726   23.0999 C   0  0  0  0  0  0
  -28.8378  -22.4031   21.5800 C   0  0  1  0  0  0
  -26.0977  -19.5267   21.1855 C   0  0  0  0  0  0
  -31.1388  -23.6662   21.6778 C   0  0  0  0  0  0
  -28.5529  -15.3119   24.6816 C   0  0  0  0  0  0
  -30.7292  -16.6891   17.8677 C   0  0  0  0  0  0
  -29.2076  -18.5986   17.9883 C   0  0  0  0  0  0
  -28.2827  -16.3578   18.2866 C   0  0  0  0  0  0
  -30.3823  -22.3628   21.3893 C   0  0  0  0  0  0
  -28.2430  -23.6211   20.6468 C   0  0  0  0  0  0
  -28.8447  -15.0690   23.2026 C   0  0  0  0  0  0
  -29.7744  -16.0382   22.4540 C   0  0  0  0  0  0
  -28.0822  -25.1546   21.1651 C   0  0  0  0  0  0
  -29.7681  -17.2341   20.2341 C   0  0  2  0  0  0
  -29.5039  -17.2101   18.6456 C   0  0  0  0  0  0
  -29.7676  -15.8441   20.9663 N   0  0  0  0  0  0
  -31.4657  -12.7942   19.0285 H   0  0  0  0  0  0
  -30.5916  -11.5046   19.7694 H   0  0  0  0  0  0
  -29.8030  -11.7781   17.4548 H   0  0  0  0  0  0
  -29.6282  -13.4909   17.6472 H   0  0  0  0  0  0
  -27.8627  -11.2986   18.7549 H   0  0  0  0  0  0
  -27.3730  -12.6144   17.7339 H   0  0  0  0  0  0
  -27.6645  -14.2254   19.6423 H   0  0  0  0  0  0
  -28.7961  -11.7995   20.9867 H   0  0  0  0  0  0
  -28.3179  -13.1113   21.8811 H   0  0  0  0  0  0
  -25.2705   -9.5704   22.4748 H   0  0  0  0  0  0
  -23.9964   -7.4635   22.7528 H   0  0  0  0  0  0
  -21.0779   -8.8722   19.8954 H   0  0  0  0  0  0
  -22.3634  -10.9620   19.6144 H   0  0  0  0  0  0
  -21.1935   -7.6118   23.9735 H   0  0  0  0  0  0
  -21.1495   -6.0504   25.9104 H   0  0  0  0  0  0
  -22.0598   -2.7597   23.2901 H   0  0  0  0  0  0
  -22.3806  -11.9805   22.4792 H   0  0  0  0  0  0
  -21.0972  -13.1313   22.2529 H   0  0  0  0  0  0
  -24.6819  -15.8382   20.5746 H   0  0  0  0  0  0
  -26.3028  -15.6224   20.1683 H   0  0  0  0  0  0
  -26.7250  -32.5508   23.1126 H   0  0  0  0  0  0
  -25.0008  -33.9649   25.0390 H   0  0  0  0  0  0
  -22.7104  -31.2809   21.3931 H   0  0  0  0  0  0
  -23.3736  -35.9612   23.3270 H   0  0  0  0  0  0
  -24.3500  -36.8963   22.2010 H   0  0  0  0  0  0
  -23.7231  -37.6481   23.6664 H   0  0  0  0  0  0
  -26.0297  -31.5444   20.5657 H   0  0  0  0  0  0
  -26.8482  -30.8948   21.9609 H   0  0  0  0  0  0
  -28.1059  -28.9469   21.2600 H   0  0  0  0  0  0
  -25.9904  -25.8569   19.1294 H   0  0  0  0  0  0
  -23.9662  -27.2564   19.0683 H   0  0  0  0  0  0
  -23.7596  -30.5558   19.3968 H   0  0  0  0  0  0
  -22.7656  -29.2083   19.8792 H   0  0  0  0  0  0
  -25.1270  -36.1921   25.0782 H   0  0  0  0  0  0
  -20.9780  -28.3330   24.1486 H   0  0  0  0  0  0
  -20.5829  -26.2338   23.3578 H   0  0  0  0  0  0
  -21.6661  -26.7660   22.1128 H   0  0  0  0  0  0
  -19.6991  -25.6358   21.1212 H   0  0  0  0  0  0
  -19.6699  -27.3236   20.6689 H   0  0  0  0  0  0
  -17.4240  -26.6630   21.3951 H   0  0  0  0  0  0
  -18.0348  -26.0070   22.8946 H   0  0  0  0  0  0
  -19.7908  -30.7206   24.2332 H   0  0  0  0  0  0
  -17.5034  -31.6268   24.5166 H   0  0  0  0  0  0
  -15.5349  -30.3015   23.7692 H   0  0  0  0  0  0
  -15.8622  -28.0846   22.7098 H   0  0  0  0  0  0
  -24.5958  -30.6927   25.7595 H   0  0  0  0  0  0
  -24.8785  -32.2699   26.4733 H   0  0  0  0  0  0
  -25.7961  -30.8763   27.0148 H   0  0  0  0  0  0
  -26.2939  -29.6655   24.1139 H   0  0  0  0  0  0
  -27.4218  -29.7219   25.4492 H   0  0  0  0  0  0
  -27.8753  -30.4251   23.9172 H   0  0  0  0  0  0
  -27.2782  -33.3623   26.1919 H   0  0  0  0  0  0
  -28.3977  -32.6658   25.0303 H   0  0  0  0  0  0
  -28.0714  -31.8417   26.5446 H   0  0  0  0  0  0
  -28.2576  -38.0115   24.7552 H   0  0  0  0  0  0
  -28.1104  -36.2633   24.6266 H   0  0  0  0  0  0
  -27.2239  -37.1440   25.8848 H   0  0  0  0  0  0
  -20.9540  -29.8713   21.6790 H   0  0  0  0  0  0
  -26.0147  -38.2884   24.1443 H   0  0  0  0  0  0
  -29.9315  -20.0415   20.1136 H   0  0  0  0  0  0
  -28.1080  -18.0520   21.4920 H   0  0  0  0  0  0
  -25.3657  -21.2284   22.9197 H   0  0  0  0  0  0
  -25.9208  -22.5823   21.9577 H   0  0  0  0  0  0
  -27.5149  -21.0848   24.1041 H   0  0  0  0  0  0
  -26.7709  -22.6039   24.4167 H   0  0  0  0  0  0
  -29.3494  -22.2566   23.7047 H   0  0  0  0  0  0
  -28.5486  -23.7325   23.3570 H   0  0  0  0  0  0
  -26.4492  -19.0249   20.2878 H   0  0  0  0  0  0
  -25.0749  -19.8334   20.9707 H   0  0  0  0  0  0
  -26.0627  -18.8057   22.0031 H   0  0  0  0  0  0
  -32.2090  -23.4784   21.7579 H   0  0  0  0  0  0
  -30.8236  -24.1187   22.6143 H   0  0  0  0  0  0
  -30.9939  -24.4018   20.8876 H   0  0  0  0  0  0
  -28.1332  -14.4023   25.1165 H   0  0  0  0  0  0
  -27.8176  -16.1014   24.8350 H   0  0  0  0  0  0
  -29.4604  -15.5382   25.2363 H   0  0  0  0  0  0
  -30.6246  -16.8344   16.7918 H   0  0  0  0  0  0
  -30.8998  -15.6255   18.0088 H   0  0  0  0  0  0
  -31.6330  -17.2190   18.1719 H   0  0  0  0  0  0
  -29.0601  -18.5054   16.9101 H   0  0  0  0  0  0
  -30.0194  -19.3159   18.1078 H   0  0  0  0  0  0
  -28.2838  -19.0578   18.3503 H   0  0  0  0  0  0
  -27.8362  -16.6389   17.3329 H   0  0  0  0  0  0
  -27.4963  -16.4543   19.0328 H   0  0  0  0  0  0
  -28.5603  -15.3186   18.1709 H   0  0  0  0  0  0
  -30.6220  -22.0671   20.3660 H   0  0  0  0  0  0
  -30.7944  -21.5725   22.0224 H   0  0  0  0  0  0
  -27.2645  -23.3044   20.2794 H   0  0  0  0  0  0
  -28.8510  -23.6624   19.7448 H   0  0  0  0  0  0
  -27.8857  -14.9881   22.6810 H   0  0  0  0  0  0
  -29.3705  -14.1177   23.2083 H   0  0  0  0  0  0
  -30.7892  -15.8780   22.8251 H   0  0  0  0  0  0
  -29.5460  -17.0441   22.7959 H   0  0  0  0  0  0
  -28.8250  -25.3278   21.9406 H   0  0  0  0  0  0
  -27.1247  -25.2164   21.6905 H   0  0  0  0  0  0
  -30.7875  -17.5986   20.3675 H   0  0  0  0  0  0
  1 25  1  0  0  0
  1 30  2  0  0  0
  1 92  1  0  0  0
  2  3  1  0  0  0
  2 25  1  0  0  0
  2 93  1  0  0  0
  2 94  1  0  0  0
  3  4  1  0  0  0
  3 95  1  0  0  0
  3 96  1  0  0  0
  4  5  1  0  0  0
  4 97  1  0  0  0
  4 98  1  0  0  0
  5  6  1  0  0  0
  5 26  1  0  0  0
  5 99  1  0  0  0
  6 25  1  0  0  0
  6100  1  0  0  0
  6101  1  0  0  0
  7  8  2  0  0  0
  7 26  1  0  0  0
  7 29  1  0  0  0
  8  9  1  0  0  0
  8 22  1  0  0  0
  9 10  1  0  0  0
  9 27  2  0  0  0
 10 11  2  0  0  0
 10 15  1  0  0  0
 11 12  1  0  0  0
 11102  1  0  0  0
 12 13  2  0  0  0
 12103  1  0  0  0
 13 14  1  0  0  0
 13 31  1  0  0  0
 14 15  2  0  0  0
 14104  1  0  0  0
 15105  1  0  0  0
 16 17  2  0  0  0
 16 21  1  0  0  0
 16 31  1  0  0  0
 17 18  1  0  0  0
 17106  1  0  0  0
 18 19  2  0  0  0
 18107  1  0  0  0
 19 20  1  0  0  0
 19 24  1  0  0  0
 20 21  2  0  0  0
 20108  1  0  0  0
 21 23  1  0  0  0
 22 28  1  0  0  0
 22 32  2  0  0  0
 26 27  1  0  0  0
 28109  1  0  0  0
 28110  1  0  0  0
 29111  1  0  0  0
 29112  1  0  0  0
 33 34  1  0  0  0
 33 66  1  0  0  0
 33 70  2  0  0  0
 34 36  1  0  0  0
 34 59  1  0  0  0
 34113  1  0  0  0
 35 44  2  0  0  0
 35 45  1  0  0  0
 35 68  1  0  0  0
 36 56  1  0  0  0
 36114  1  0  0  0
 37 39  1  0  0  0
 37 47  1  0  0  0
 37 66  1  0  0  0
 37115  1  0  0  0
 38 43  2  0  0  0
 38 46  1  0  0  0
 38 47  1  0  0  0
 39 64  1  0  0  0
 39 67  2  0  0  0
 40 52  1  0  0  0
 40 53  2  0  0  0
 40 58  1  0  0  0
 41116  1  0  0  0
 41117  1  0  0  0
 41118  1  0  0  0
 41 48  1  0  0  0
 42 43  1  0  0  0
 42 66  1  0  0  0
 42119  1  0  0  0
 42120  1  0  0  0
 43 44  1  0  0  0
 44121  1  0  0  0
 45 46  2  0  0  0
 45122  1  0  0  0
 46123  1  0  0  0
 47124  1  0  0  0
 47125  1  0  0  0
 48 56  1  0  0  0
 48 65  1  0  0  0
 48126  1  0  0  0
 49 50  1  0  0  0
 49 53  1  0  0  0
 49 64  1  0  0  0
 49127  1  0  0  0
 50 51  1  0  0  0
 50128  1  0  0  0
 50129  1  0  0  0
 51 52  1  0  0  0
 51130  1  0  0  0
 51131  1  0  0  0
 52132  1  0  0  0
 52133  1  0  0  0
 53 54  1  0  0  0
 54 55  2  0  0  0
 54134  1  0  0  0
 55 57  1  0  0  0
 55135  1  0  0  0
 56 69  2  0  0  0
 57 58  2  0  0  0
 57136  1  0  0  0
 58137  1  0  0  0
 59 60  1  0  0  0
 59 61  1  0  0  0
 59 62  1  0  0  0
 60138  1  0  0  0
 60139  1  0  0  0
 60140  1  0  0  0
 61141  1  0  0  0
 61142  1  0  0  0
 61143  1  0  0  0
 62144  1  0  0  0
 62145  1  0  0  0
 62146  1  0  0  0
 63 65  1  0  0  0
 63147  1  0  0  0
 63148  1  0  0  0
 63149  1  0  0  0
 64150  1  0  0  0
 65151  1  0  0  0
 68 89  1  0  0  0
 71 72  2  0  0  0
 71 73  1  0  0  0
 71 78  1  0  0  0
 72 75  1  0  0  0
 72 79  1  0  0  0
 73 74  2  0  0  0
 73152  1  0  0  0
 74 90  1  0  0  0
 74153  1  0  0  0
 75 76  1  0  0  0
 75154  1  0  0  0
 75155  1  0  0  0
 76 77  1  0  0  0
 76156  1  0  0  0
 76157  1  0  0  0
 77 78  1  0  0  0
 77158  1  0  0  0
 77159  1  0  0  0
 78 85  1  0  0  0
 78 86  1  0  0  0
 79160  1  0  0  0
 79161  1  0  0  0
 79162  1  0  0  0
 80 85  1  0  0  0
 80163  1  0  0  0
 80164  1  0  0  0
 80165  1  0  0  0
 81 87  1  0  0  0
 81166  1  0  0  0
 81167  1  0  0  0
 81168  1  0  0  0
 82169  1  0  0  0
 82170  1  0  0  0
 82171  1  0  0  0
 82 91  1  0  0  0
 83 91  1  0  0  0
 83172  1  0  0  0
 83173  1  0  0  0
 83174  1  0  0  0
 84 91  1  0  0  0
 84175  1  0  0  0
 84176  1  0  0  0
 84177  1  0  0  0
 85178  1  0  0  0
 85179  1  0  0  0
 86 89  1  0  0  0
 86180  1  0  0  0
 86181  1  0  0  0
 87 88  1  0  0  0
 87182  1  0  0  0
 87183  1  0  0  0
 88 92  1  0  0  0
 88184  1  0  0  0
 88185  1  0  0  0
 89186  1  0  0  0
 89187  1  0  0  0
 90 91  1  0  0  0
 90 92  1  0  0  0
 90188  1  0  0  0
M  ISO  4   1 100  68 101  89 101  92 100
M  END
> <chiral flag>
0

> <version>
0

> <s_m_source_file>
/data/baiqing/PycharmProjects/Reinvent-master-3.2/result/LINK_invent/BTK/process_docking_weight1_custom_sum_contain_oxygen_bond_distance_aromatic_linkinvent_7_9_3/rearranged_h_0020.sdf

> <i_m_source_file_index>
81

> <r_mmod_Potential_Energy-OPLS-2005>
640.581909179688

> <r_mmod_Stretch_Energy-OPLS-2005>
166.383316040039

> <r_mmod_Bend_Energy-OPLS-2005>
246.0908203125

> <r_mmod_Torsional_Energy-OPLS-2005>
427.762390136719

> <r_mmod_Improper_Torsional_Energy-OPLS-2005>
8.06467533111572

> <r_mmod_Van_der_Waal_Energy-OPLS-2005>
183.731002807617

> <r_mmod_Electrostatic_Energy-OPLS-2005>
-324.178039550781

> <r_mmod_Solvation_Energy-OPLS-2005>
-156.104598999023

> <b_mmod_Minimization_Converged-OPLS-2005>
0

> <r_mmod_RMS_Derivative-OPLS-2005>
8.48932075500488

$$$$
81
                    3D
 Structure written by MMmdl.
169177  0  0  1  0            999 V2000
  -30.6387  -14.6997   20.5531 C   0  0  0  0  0  0
  -30.4363  -12.4466   19.4696 C   0  0  0  0  0  0
  -29.5128  -12.5309   18.2330 C   0  0  0  0  0  0
  -28.0345  -12.3576   18.6346 C   0  0  0  0  0  0
  -27.6495  -13.2270   19.8597 C   0  0  2  0  0  0
  -28.6911  -13.0854   20.9862 C   0  0  0  0  0  0
  -25.2527  -13.8189   20.5655 C   0  0  0  0  0  0
  -24.1816  -13.0442   20.9184 C   0  0  0  0  0  0
  -24.6403  -11.6917   20.8735 C   0  0  0  0  0  0
  -23.9077  -10.4297   21.0406 C   0  0  0  0  0  0
  -24.3628   -9.4212   21.9184 C   0  0  0  0  0  0
  -23.6305   -8.2247   22.0759 C   0  0  0  0  0  0
  -22.4283   -8.0287   21.3552 C   0  0  0  0  0  0
  -21.9918   -9.0259   20.4652 C   0  0  0  0  0  0
  -22.7248  -10.2138   20.3059 C   0  0  0  0  0  0
  -21.6857   -6.0740   22.5281 C   0  0  0  0  0  0
  -21.4014   -6.5642   23.8213 C   0  0  0  0  0  0
  -21.3663   -5.6796   24.9176 C   0  0  0  0  0  0
  -21.6049   -4.3060   24.7224 C   0  0  0  0  0  0
  -21.8821   -3.8153   23.4345 C   0  0  0  0  0  0
  -21.9194   -4.6968   22.3403 C   0  0  0  0  0  0
  -22.7840  -13.5223   21.1861 C   0  0  0  0  0  0
  -22.1663   -4.2155   21.0980 F   0  0  0  0  0  0
  -21.5630   -3.4541   25.7736 F   0  0  0  0  0  0
  -29.9976  -13.4794   20.4410 N   0  0  0  0  0  0
  -26.2971  -12.9392   20.3293 N   0  0  0  0  0  0
  -25.9333  -11.6536   20.5739 N   0  0  0  0  0  0
  -22.0501  -12.8210   22.0424 N   0  0  0  0  0  0
  -25.4200  -15.1907   20.4037 N   0  0  0  0  0  0
  -31.7697  -14.8239   20.0699 O   0  0  0  0  0  0
  -21.6648   -6.8884   21.4244 O   0  0  0  0  0  0
  -22.3507  -14.5526   20.6714 O   0  0  0  0  0  0
  -24.6317  -31.8564   23.2005 C   0  0  0  0  0  0
  -25.9145  -32.4761   23.8344 C   0  0  1  0  0  0
  -27.2173  -27.2728   20.1152 C   0  0  0  0  0  0
  -25.5938  -33.8563   24.2266 N   0  0  0  0  0  0
  -23.4266  -30.4824   21.5448 C   0  0  2  0  0  0
  -24.8706  -28.9345   20.1123 C   0  0  0  0  0  0
  -22.7499  -29.4617   22.4919 C   0  0  0  0  0  0
  -18.0294  -28.1385   22.8485 C   0  0  0  0  0  0
  -24.1489  -36.7288   23.2638 C   0  0  0  0  0  0
  -25.9738  -30.7737   21.3780 C   0  0  0  0  0  0
  -26.0457  -29.3989   20.7167 C   0  0  0  0  0  0
  -27.2223  -28.5825   20.7040 C   0  0  0  0  0  0
  -26.0105  -26.8761   19.4902 C   0  0  0  0  0  0
  -24.8580  -27.6807   19.4900 C   0  0  0  0  0  0
  -23.6427  -29.8209   20.1601 C   0  0  0  0  0  0
  -25.4115  -36.3073   24.0326 C   0  0  1  0  0  0
  -20.5897  -28.3698   23.1264 C   0  0  2  0  0  0
  -20.6780  -26.9416   22.5401 C   0  0  0  0  0  0
  -19.5754  -26.6382   21.5206 C   0  0  0  0  0  0
  -18.1937  -26.7927   22.1623 C   0  0  0  0  0  0
  -19.1547  -28.8858   23.2872 C   0  0  0  0  0  0
  -18.9466  -30.1457   23.8892 C   0  0  0  0  0  0
  -17.6466  -30.6586   24.0560 C   0  0  0  0  0  0
  -25.9055  -34.9443   23.5098 C   0  0  0  0  0  0
  -16.5357  -29.9082   23.6330 C   0  0  0  0  0  0
  -16.7280  -28.6499   23.0354 C   0  0  0  0  0  0
  -26.4507  -31.6584   25.0733 C   0  0  0  0  0  0
  -25.3729  -31.3734   26.1451 C   0  0  0  0  0  0
  -27.0356  -30.3002   24.6220 C   0  0  0  0  0  0
  -27.6056  -32.4327   25.7512 C   0  0  0  0  0  0
  -27.5579  -37.1799   24.8464 C   0  0  0  0  0  0
  -21.4206  -29.3051   22.3658 N   0  0  0  0  0  0
  -26.4290  -37.3772   23.9409 N   0  0  0  0  0  0
  -24.6970  -31.0543   22.0977 N   0  0  0  0  0  0
  -23.4203  -28.8151   23.3008 O   0  0  0  0  0  0
  -28.3219  -26.3875   20.1569 O   0  0  0  0  0  0
  -26.5624  -34.8914   22.4666 O   0  0  0  0  0  0
  -23.5470  -32.1377   23.7310 O   0  0  0  0  0  0
  -29.3589  -19.7255   19.9909 C   0  0  0  0  0  0
  -30.9008  -21.2881   20.9973 C   0  0  0  0  0  0
  -29.7630  -21.1149   20.1778 C   0  0  0  0  0  0
  -30.1028  -18.5750   20.4740 C   0  0  0  0  0  0
  -31.6348  -20.1953   21.5047 C   0  0  0  0  0  0
  -31.2692  -18.8634   21.2173 C   0  0  0  0  0  0
  -29.2434  -22.3893   19.4426 C   0  0  0  0  0  0
  -28.8863  -22.3042   18.1234 C   0  0  0  0  0  0
  -28.5419  -23.5002   17.2437 C   0  0  0  0  0  0
  -28.8194  -21.0137   17.3123 C   0  0  0  0  0  0
  -28.0962  -16.3440   22.6145 C   0  0  0  0  0  0
  -30.2099  -15.1498   23.4315 C   0  0  0  0  0  0
  -29.7573  -17.0703   20.0647 C   0  0  0  0  0  0
  -29.2605  -23.8135   20.1851 C   0  0  0  0  0  0
  -28.0724  -24.9093   20.0517 C   0  0  0  0  0  0
  -29.6063  -16.1224   22.3892 C   0  0  0  0  0  0
  -29.9280  -15.8343   20.9615 N   0  0  0  0  0  0
  -32.7499  -20.4342   22.2357 F   0  0  0  0  0  0
  -32.0748  -17.8588   21.6394 F   0  0  0  0  0  0
  -31.4773  -12.5727   19.1685 H   0  0  0  0  0  0
  -30.3839  -11.4535   19.9188 H   0  0  0  0  0  0
  -29.7919  -11.7733   17.4986 H   0  0  0  0  0  0
  -29.6482  -13.4966   17.7432 H   0  0  0  0  0  0
  -27.8761  -11.3034   18.8656 H   0  0  0  0  0  0
  -27.3837  -12.5853   17.7896 H   0  0  0  0  0  0
  -27.6655  -14.2646   19.5253 H   0  0  0  0  0  0
  -28.7245  -12.0576   21.3503 H   0  0  0  0  0  0
  -28.3992  -13.6776   21.8417 H   0  0  0  0  0  0
  -25.2775   -9.5687   22.4755 H   0  0  0  0  0  0
  -24.0022   -7.4634   22.7472 H   0  0  0  0  0  0
  -21.0854   -8.8776   19.8949 H   0  0  0  0  0  0
  -22.3712  -10.9677   19.6166 H   0  0  0  0  0  0
  -21.2006   -7.6150   23.9714 H   0  0  0  0  0  0
  -21.1486   -6.0530   25.9078 H   0  0  0  0  0  0
  -22.0597   -2.7616   23.2845 H   0  0  0  0  0  0
  -22.4129  -11.9874   22.4804 H   0  0  0  0  0  0
  -21.1116  -13.1221   22.2631 H   0  0  0  0  0  0
  -24.6563  -15.8464   20.5259 H   0  0  0  0  0  0
  -26.2803  -15.6334   20.1093 H   0  0  0  0  0  0
  -26.7213  -32.5408   23.1085 H   0  0  0  0  0  0
  -25.0077  -33.9696   25.0407 H   0  0  0  0  0  0
  -22.7236  -31.3057   21.4016 H   0  0  0  0  0  0
  -23.3750  -35.9622   23.3292 H   0  0  0  0  0  0
  -24.3581  -36.8918   22.2055 H   0  0  0  0  0  0
  -23.7238  -37.6486   23.6668 H   0  0  0  0  0  0
  -26.1123  -31.5367   20.6107 H   0  0  0  0  0  0
  -26.8517  -30.8192   22.0110 H   0  0  0  0  0  0
  -28.1237  -28.9361   21.1852 H   0  0  0  0  0  0
  -25.9064  -25.9249   18.9951 H   0  0  0  0  0  0
  -23.9577  -27.3187   19.0125 H   0  0  0  0  0  0
  -23.7679  -30.5981   19.4054 H   0  0  0  0  0  0
  -22.7599  -29.2561   19.8548 H   0  0  0  0  0  0
  -25.1296  -36.1922   25.0818 H   0  0  0  0  0  0
  -20.9993  -28.3270   24.1382 H   0  0  0  0  0  0
  -20.5674  -26.2309   23.3605 H   0  0  0  0  0  0
  -21.6648  -26.7433   22.1198 H   0  0  0  0  0  0
  -19.6914  -25.6291   21.1241 H   0  0  0  0  0  0
  -19.6686  -27.3187   20.6733 H   0  0  0  0  0  0
  -17.4202  -26.6670   21.4031 H   0  0  0  0  0  0
  -18.0343  -26.0070   22.9022 H   0  0  0  0  0  0
  -19.7942  -30.7276   24.2257 H   0  0  0  0  0  0
  -17.5020  -31.6265   24.5165 H   0  0  0  0  0  0
  -15.5360  -30.2984   23.7654 H   0  0  0  0  0  0
  -15.8680  -28.0815   22.7075 H   0  0  0  0  0  0
  -24.5904  -30.7085   25.7775 H   0  0  0  0  0  0
  -24.8925  -32.2906   26.4870 H   0  0  0  0  0  0
  -25.8044  -30.8911   27.0231 H   0  0  0  0  0  0
  -26.2943  -29.6746   24.1233 H   0  0  0  0  0  0
  -27.4022  -29.7269   25.4745 H   0  0  0  0  0  0
  -27.8829  -30.4272   23.9477 H   0  0  0  0  0  0
  -27.2658  -33.3628   26.2080 H   0  0  0  0  0  0
  -28.3878  -32.6884   25.0353 H   0  0  0  0  0  0
  -28.0713  -31.8460   26.5438 H   0  0  0  0  0  0
  -28.2591  -38.0102   24.7516 H   0  0  0  0  0  0
  -28.1081  -36.2633   24.6285 H   0  0  0  0  0  0
  -27.2299  -37.1443   25.8866 H   0  0  0  0  0  0
  -20.9389  -29.8789   21.6877 H   0  0  0  0  0  0
  -26.0167  -38.2845   24.1413 H   0  0  0  0  0  0
  -28.4865  -19.5180   19.3918 H   0  0  0  0  0  0
  -31.2818  -22.2800   21.1890 H   0  0  0  0  0  0
  -29.0018  -24.4226   17.5943 H   0  0  0  0  0  0
  -27.4621  -23.6277   17.1606 H   0  0  0  0  0  0
  -28.9329  -23.3706   16.2344 H   0  0  0  0  0  0
  -29.6623  -20.3557   17.5181 H   0  0  0  0  0  0
  -28.8544  -21.1991   16.2389 H   0  0  0  0  0  0
  -27.8840  -20.4895   17.5062 H   0  0  0  0  0  0
  -27.9030  -16.6338   23.6482 H   0  0  0  0  0  0
  -27.4837  -15.4698   22.4119 H   0  0  0  0  0  0
  -27.7163  -17.1539   21.9910 H   0  0  0  0  0  0
  -30.0008  -15.5021   24.4425 H   0  0  0  0  0  0
  -31.2957  -15.0976   23.3428 H   0  0  0  0  0  0
  -29.8234  -14.1348   23.3719 H   0  0  0  0  0  0
  -30.3135  -16.8880   19.1438 H   0  0  0  0  0  0
  -28.7135  -17.0632   19.7491 H   0  0  0  0  0  0
  -30.2048  -24.2856   19.9133 H   0  0  0  0  0  0
  -29.3482  -23.6112   21.2524 H   0  0  0  0  0  0
  -27.3359  -24.6622   20.8177 H   0  0  0  0  0  0
  -27.5440  -24.7288   19.1291 H   0  0  0  0  0  0
  -30.0620  -17.0728   22.6484 H   0  0  0  0  0  0
  1 25  1  0  0  0
  1 30  2  0  0  0
  1 87  1  0  0  0
  2  3  1  0  0  0
  2 25  1  0  0  0
  2 90  1  0  0  0
  2 91  1  0  0  0
  3  4  1  0  0  0
  3 92  1  0  0  0
  3 93  1  0  0  0
  4  5  1  0  0  0
  4 94  1  0  0  0
  4 95  1  0  0  0
  5  6  1  0  0  0
  5 26  1  0  0  0
  5 96  1  0  0  0
  6 25  1  0  0  0
  6 97  1  0  0  0
  6 98  1  0  0  0
  7  8  2  0  0  0
  7 26  1  0  0  0
  7 29  1  0  0  0
  8  9  1  0  0  0
  8 22  1  0  0  0
  9 10  1  0  0  0
  9 27  2  0  0  0
 10 11  2  0  0  0
 10 15  1  0  0  0
 11 12  1  0  0  0
 11 99  1  0  0  0
 12 13  2  0  0  0
 12100  1  0  0  0
 13 14  1  0  0  0
 13 31  1  0  0  0
 14 15  2  0  0  0
 14101  1  0  0  0
 15102  1  0  0  0
 16 17  2  0  0  0
 16 21  1  0  0  0
 16 31  1  0  0  0
 17 18  1  0  0  0
 17103  1  0  0  0
 18 19  2  0  0  0
 18104  1  0  0  0
 19 20  1  0  0  0
 19 24  1  0  0  0
 20 21  2  0  0  0
 20105  1  0  0  0
 21 23  1  0  0  0
 22 28  1  0  0  0
 22 32  2  0  0  0
 26 27  1  0  0  0
 28106  1  0  0  0
 28107  1  0  0  0
 29108  1  0  0  0
 29109  1  0  0  0
 33 34  1  0  0  0
 33 66  1  0  0  0
 33 70  2  0  0  0
 34 36  1  0  0  0
 34 59  1  0  0  0
 34110  1  0  0  0
 35 44  2  0  0  0
 35 45  1  0  0  0
 35 68  1  0  0  0
 36 56  1  0  0  0
 36111  1  0  0  0
 37 39  1  0  0  0
 37 47  1  0  0  0
 37 66  1  0  0  0
 37112  1  0  0  0
 38 43  2  0  0  0
 38 46  1  0  0  0
 38 47  1  0  0  0
 39 64  1  0  0  0
 39 67  2  0  0  0
 40 52  1  0  0  0
 40 53  2  0  0  0
 40 58  1  0  0  0
 41113  1  0  0  0
 41114  1  0  0  0
 41115  1  0  0  0
 41 48  1  0  0  0
 42 43  1  0  0  0
 42 66  1  0  0  0
 42116  1  0  0  0
 42117  1  0  0  0
 43 44  1  0  0  0
 44118  1  0  0  0
 45 46  2  0  0  0
 45119  1  0  0  0
 46120  1  0  0  0
 47121  1  0  0  0
 47122  1  0  0  0
 48 56  1  0  0  0
 48 65  1  0  0  0
 48123  1  0  0  0
 49 50  1  0  0  0
 49 53  1  0  0  0
 49 64  1  0  0  0
 49124  1  0  0  0
 50 51  1  0  0  0
 50125  1  0  0  0
 50126  1  0  0  0
 51 52  1  0  0  0
 51127  1  0  0  0
 51128  1  0  0  0
 52129  1  0  0  0
 52130  1  0  0  0
 53 54  1  0  0  0
 54 55  2  0  0  0
 54131  1  0  0  0
 55 57  1  0  0  0
 55132  1  0  0  0
 56 69  2  0  0  0
 57 58  2  0  0  0
 57133  1  0  0  0
 58134  1  0  0  0
 59 60  1  0  0  0
 59 61  1  0  0  0
 59 62  1  0  0  0
 60135  1  0  0  0
 60136  1  0  0  0
 60137  1  0  0  0
 61138  1  0  0  0
 61139  1  0  0  0
 61140  1  0  0  0
 62141  1  0  0  0
 62142  1  0  0  0
 62143  1  0  0  0
 63 65  1  0  0  0
 63144  1  0  0  0
 63145  1  0  0  0
 63146  1  0  0  0
 64147  1  0  0  0
 65148  1  0  0  0
 68 85  1  0  0  0
 71 73  2  0  0  0
 71 74  1  0  0  0
 71149  1  0  0  0
 72 73  1  0  0  0
 72 75  2  0  0  0
 72150  1  0  0  0
 73 77  1  0  0  0
 74 76  2  0  0  0
 74 83  1  0  0  0
 75 76  1  0  0  0
 75 88  1  0  0  0
 76 89  1  0  0  0
 77 78  2  0  0  0
 77 84  1  0  0  0
 78 79  1  0  0  0
 78 80  1  0  0  0
 79151  1  0  0  0
 79152  1  0  0  0
 79153  1  0  0  0
 80154  1  0  0  0
 80155  1  0  0  0
 80156  1  0  0  0
 81157  1  0  0  0
 81158  1  0  0  0
 81159  1  0  0  0
 81 86  1  0  0  0
 82 86  1  0  0  0
 82160  1  0  0  0
 82161  1  0  0  0
 82162  1  0  0  0
 83 87  1  0  0  0
 83163  1  0  0  0
 83164  1  0  0  0
 84 85  1  0  0  0
 84165  1  0  0  0
 84166  1  0  0  0
 85167  1  0  0  0
 85168  1  0  0  0
 86 87  1  0  0  0
 86169  1  0  0  0
M  ISO  4   1 100  68 101  85 101  87 100
M  END
> <chiral flag>
0

> <version>
0

> <s_m_source_file>
/data/baiqing/PycharmProjects/Reinvent-master-3.2/result/LINK_invent/BTK/process_docking_weight1_custom_sum_contain_oxygen_bond_distance_aromatic_linkinvent_7_9_3/rearranged_h_0020.sdf

> <i_m_source_file_index>
82

> <r_mmod_Potential_Energy-OPLS-2005>
442.959106445312

> <r_mmod_Stretch_Energy-OPLS-2005>
140.011093139648

> <r_mmod_Bend_Energy-OPLS-2005>
184.795837402344

> <r_mmod_Torsional_Energy-OPLS-2005>
313.693298339844

> <r_mmod_Improper_Torsional_Energy-OPLS-2005>
9.83019924163818

> <r_mmod_Van_der_Waal_Energy-OPLS-2005>
167.443557739258

> <r_mmod_Electrostatic_Energy-OPLS-2005>
-264.3017578125

> <r_mmod_Solvation_Energy-OPLS-2005>
-175.441879272461

> <b_mmod_Minimization_Converged-OPLS-2005>
0

> <r_mmod_RMS_Derivative-OPLS-2005>
0.804496467113495

$$$$
82
                    3D
 Structure written by MMmdl.
165173  0  0  1  0            999 V2000
  -30.7253  -14.4346   20.5428 C   0  0  0  0  0  0
  -30.4117  -12.2707   19.4212 C   0  0  0  0  0  0
  -29.4894  -12.4951   18.2053 C   0  0  0  0  0  0
  -28.0108  -12.3631   18.6197 C   0  0  0  0  0  0
  -27.6585  -13.2009   19.8790 C   0  0  2  0  0  0
  -28.7069  -12.9959   20.9986 C   0  0  0  0  0  0
  -25.2579  -13.8140   20.5717 C   0  0  0  0  0  0
  -24.1824  -13.0441   20.9184 C   0  0  0  0  0  0
  -24.6366  -11.6893   20.8755 C   0  0  0  0  0  0
  -23.9041  -10.4285   21.0400 C   0  0  0  0  0  0
  -24.3604   -9.4200   21.9173 C   0  0  0  0  0  0
  -23.6281   -8.2245   22.0741 C   0  0  0  0  0  0
  -22.4271   -8.0264   21.3530 C   0  0  0  0  0  0
  -21.9903   -9.0239   20.4640 C   0  0  0  0  0  0
  -22.7220  -10.2127   20.3044 C   0  0  0  0  0  0
  -21.6853   -6.0729   22.5271 C   0  0  0  0  0  0
  -21.4016   -6.5643   23.8206 C   0  0  0  0  0  0
  -21.3654   -5.6791   24.9169 C   0  0  0  0  0  0
  -21.6030   -4.3048   24.7217 C   0  0  0  0  0  0
  -21.8819   -3.8136   23.4342 C   0  0  0  0  0  0
  -21.9190   -4.6958   22.3396 C   0  0  0  0  0  0
  -22.7834  -13.5239   21.1831 C   0  0  0  0  0  0
  -22.1669   -4.2125   21.0983 F   0  0  0  0  0  0
  -21.5622   -3.4532   25.7739 F   0  0  0  0  0  0
  -30.0369  -13.2680   20.4311 N   0  0  0  0  0  0
  -26.3011  -12.9297   20.3422 N   0  0  0  0  0  0
  -25.9291  -11.6464   20.5809 N   0  0  0  0  0  0
  -22.0482  -12.8230   22.0385 N   0  0  0  0  0  0
  -25.4326  -15.1869   20.4189 N   0  0  0  0  0  0
  -31.8927  -14.5719   20.1653 O   0  0  0  0  0  0
  -21.6627   -6.8863   21.4231 O   0  0  0  0  0  0
  -22.3516  -14.5544   20.6655 O   0  0  0  0  0  0
  -24.6144  -31.8697   23.2074 C   0  0  0  0  0  0
  -25.9033  -32.4831   23.8375 C   0  0  1  0  0  0
  -27.2479  -27.4410   20.1049 C   0  0  0  0  0  0
  -25.5891  -33.8633   24.2308 N   0  0  0  0  0  0
  -23.4022  -30.4900   21.5499 C   0  0  2  0  0  0
  -24.8517  -28.9561   20.1177 C   0  0  0  0  0  0
  -22.7408  -29.4669   22.5016 C   0  0  0  0  0  0
  -18.0273  -28.1374   22.8483 C   0  0  0  0  0  0
  -24.1490  -36.7324   23.2623 C   0  0  0  0  0  0
  -25.9293  -30.8432   21.3540 C   0  0  0  0  0  0
  -26.0124  -29.4775   20.7020 C   0  0  0  0  0  0
  -27.2133  -28.7307   20.6850 C   0  0  0  0  0  0
  -26.0644  -26.9385   19.5104 C   0  0  0  0  0  0
  -24.8725  -27.6858   19.5195 C   0  0  0  0  0  0
  -23.6091  -29.8150   20.1681 C   0  0  0  0  0  0
  -25.4107  -36.3118   24.0330 C   0  0  1  0  0  0
  -20.5859  -28.3664   23.1335 C   0  0  2  0  0  0
  -20.6774  -26.9400   22.5436 C   0  0  0  0  0  0
  -19.5767  -26.6380   21.5219 C   0  0  0  0  0  0
  -18.1929  -26.7931   22.1595 C   0  0  0  0  0  0
  -19.1519  -28.8837   23.2901 C   0  0  0  0  0  0
  -18.9445  -30.1449   23.8902 C   0  0  0  0  0  0
  -17.6446  -30.6572   24.0565 C   0  0  0  0  0  0
  -25.9048  -34.9487   23.5120 C   0  0  0  0  0  0
  -16.5343  -29.9072   23.6330 C   0  0  0  0  0  0
  -16.7262  -28.6492   23.0338 C   0  0  0  0  0  0
  -26.4455  -31.6602   25.0700 C   0  0  0  0  0  0
  -25.3690  -31.3736   26.1429 C   0  0  0  0  0  0
  -27.0266  -30.3037   24.6064 C   0  0  0  0  0  0
  -27.6033  -32.4310   25.7469 C   0  0  0  0  0  0
  -27.5614  -37.1775   24.8423 C   0  0  0  0  0  0
  -21.4137  -29.3025   22.3736 N   0  0  0  0  0  0
  -26.4282  -37.3815   23.9435 N   0  0  0  0  0  0
  -24.6671  -31.0808   22.0958 N   0  0  0  0  0  0
  -23.4184  -28.8223   23.3064 O   0  0  0  0  0  0
  -28.4218  -26.7077   20.1456 O   0  0  0  0  0  0
  -26.5616  -34.8938   22.4684 O   0  0  0  0  0  0
  -23.5340  -32.1441   23.7482 O   0  0  0  0  0  0
  -29.8567  -17.8604   19.6716 C   0  0  0  0  0  0
  -30.7182  -17.5489   22.0241 C   0  0  0  0  0  0
  -29.6900  -16.3434   19.4707 C   0  0  0  0  0  0
  -29.8680  -16.2488   21.9657 C   0  0  0  0  0  0
  -31.0138  -18.1786   20.6426 C   0  0  0  0  0  0
  -32.6678  -19.9226   20.0548 C   0  0  0  0  0  0
  -29.3523  -22.9807   20.3871 C   0  0  0  0  0  0
  -30.5667  -22.0884   20.7443 C   0  0  0  0  0  0
  -29.5534  -24.5087   20.5444 C   0  0  0  0  0  0
  -30.2966  -20.5985   20.4017 C   0  0  0  0  0  0
  -28.2817  -25.2805   20.1268 C   0  0  0  0  0  0
  -29.9489  -15.5322   20.6813 N   0  0  0  0  0  0
  -31.3874  -19.6332   20.7493 N   0  3  1  0  0  0
  -31.4596  -12.3498   19.1218 H   0  0  0  0  0  0
  -30.2859  -11.2629   19.8207 H   0  0  0  0  0  0
  -29.7229  -11.7814   17.4142 H   0  0  0  0  0  0
  -29.6643  -13.4871   17.7874 H   0  0  0  0  0  0
  -27.8147  -11.3089   18.8143 H   0  0  0  0  0  0
  -27.3606  -12.6447   17.7914 H   0  0  0  0  0  0
  -27.6896  -14.2428   19.5751 H   0  0  0  0  0  0
  -28.6695  -11.9750   21.3789 H   0  0  0  0  0  0
  -28.4944  -13.6414   21.8524 H   0  0  0  0  0  0
  -25.2745   -9.5684   22.4742 H   0  0  0  0  0  0
  -23.9969   -7.4657   22.7493 H   0  0  0  0  0  0
  -21.0819   -8.8779   19.8964 H   0  0  0  0  0  0
  -22.3671  -10.9678   19.6158 H   0  0  0  0  0  0
  -21.2017   -7.6153   23.9707 H   0  0  0  0  0  0
  -21.1476   -6.0518   25.9076 H   0  0  0  0  0  0
  -22.0600   -2.7599   23.2829 H   0  0  0  0  0  0
  -22.4125  -11.9887   22.4751 H   0  0  0  0  0  0
  -21.1115  -13.1250   22.2658 H   0  0  0  0  0  0
  -24.6665  -15.8399   20.5419 H   0  0  0  0  0  0
  -26.2976  -15.6374   20.1484 H   0  0  0  0  0  0
  -26.7116  -32.5561   23.1158 H   0  0  0  0  0  0
  -25.0005  -33.9792   25.0428 H   0  0  0  0  0  0
  -22.6887  -31.3044   21.4075 H   0  0  0  0  0  0
  -23.3786  -35.9614   23.3188 H   0  0  0  0  0  0
  -24.3613  -36.9053   22.2058 H   0  0  0  0  0  0
  -23.7198  -37.6472   23.6716 H   0  0  0  0  0  0
  -26.0312  -31.6104   20.5854 H   0  0  0  0  0  0
  -26.8212  -30.9046   21.9657 H   0  0  0  0  0  0
  -28.1100  -29.1340   21.1342 H   0  0  0  0  0  0
  -26.0375  -25.9652   19.0424 H   0  0  0  0  0  0
  -23.9770  -27.2770   19.0716 H   0  0  0  0  0  0
  -23.7062  -30.5831   19.4003 H   0  0  0  0  0  0
  -22.7373  -29.2234   19.8821 H   0  0  0  0  0  0
  -25.1270  -36.1951   25.0817 H   0  0  0  0  0  0
  -20.9942  -28.3238   24.1464 H   0  0  0  0  0  0
  -20.5676  -26.2268   23.3620 H   0  0  0  0  0  0
  -21.6660  -26.7446   22.1249 H   0  0  0  0  0  0
  -19.6939  -25.6289   21.1247 H   0  0  0  0  0  0
  -19.6730  -27.3187   20.6747 H   0  0  0  0  0  0
  -17.4225  -26.6708   21.3961 H   0  0  0  0  0  0
  -18.0286  -26.0054   22.8959 H   0  0  0  0  0  0
  -19.7918  -30.7265   24.2271 H   0  0  0  0  0  0
  -17.4995  -31.6253   24.5163 H   0  0  0  0  0  0
  -15.5339  -30.2965   23.7654 H   0  0  0  0  0  0
  -15.8666  -28.0810   22.7050 H   0  0  0  0  0  0
  -24.5874  -30.7077   25.7756 H   0  0  0  0  0  0
  -24.8862  -32.2905   26.4822 H   0  0  0  0  0  0
  -25.8014  -30.8932   27.0212 H   0  0  0  0  0  0
  -26.2805  -29.6829   24.1088 H   0  0  0  0  0  0
  -27.3997  -29.7259   25.4530 H   0  0  0  0  0  0
  -27.8660  -30.4357   23.9231 H   0  0  0  0  0  0
  -27.2651  -33.3601   26.2085 H   0  0  0  0  0  0
  -28.3824  -32.6891   25.0275 H   0  0  0  0  0  0
  -28.0715  -31.8395   26.5352 H   0  0  0  0  0  0
  -28.2507  -38.0196   24.7671 H   0  0  0  0  0  0
  -28.1240  -36.2748   24.5981 H   0  0  0  0  0  0
  -27.2372  -37.1093   25.8824 H   0  0  0  0  0  0
  -20.9307  -29.8708   21.6918 H   0  0  0  0  0  0
  -26.0162  -38.2863   24.1549 H   0  0  0  0  0  0
  -28.9166  -18.2619   20.0502 H   0  0  0  0  0  0
  -30.0277  -18.3226   18.6979 H   0  0  0  0  0  0
  -31.6640  -17.3463   22.5268 H   0  0  0  0  0  0
  -30.1941  -18.2615   22.6638 H   0  0  0  0  0  0
  -30.3481  -16.0335   18.6541 H   0  0  0  0  0  0
  -28.6827  -16.1455   19.1086 H   0  0  0  0  0  0
  -28.8183  -16.4959   22.1262 H   0  0  0  0  0  0
  -30.1370  -15.5959   22.8016 H   0  0  0  0  0  0
  -31.8764  -17.6344   20.2493 H   0  0  0  0  0  0
  -33.4427  -19.2059   20.3363 H   0  0  0  0  0  0
  -33.0553  -20.9036   20.3233 H   0  0  0  0  0  0
  -32.5468  -19.8912   18.9713 H   0  0  0  0  0  0
  -28.4975  -22.6662   20.9887 H   0  0  0  0  0  0
  -29.0692  -22.7857   19.3519 H   0  0  0  0  0  0
  -30.7999  -22.1860   21.8043 H   0  0  0  0  0  0
  -31.4344  -22.4510   20.1941 H   0  0  0  0  0  0
  -30.3933  -24.8348   19.9295 H   0  0  0  0  0  0
  -29.8100  -24.7476   21.5778 H   0  0  0  0  0  0
  -30.0789  -20.5276   19.3360 H   0  0  0  0  0  0
  -29.3918  -20.2946   20.9290 H   0  0  0  0  0  0
  -27.4744  -24.9871   20.8025 H   0  0  0  0  0  0
  -27.9993  -24.9675   19.1212 H   0  0  0  0  0  0
  -31.5909  -19.7747   21.7279 H   0  0  0  0  0  0
  1 25  1  0  0  0
  1 30  2  0  0  0
  1 82  1  0  0  0
  2  3  1  0  0  0
  2 25  1  0  0  0
  2 84  1  0  0  0
  2 85  1  0  0  0
  3  4  1  0  0  0
  3 86  1  0  0  0
  3 87  1  0  0  0
  4  5  1  0  0  0
  4 88  1  0  0  0
  4 89  1  0  0  0
  5  6  1  0  0  0
  5 26  1  0  0  0
  5 90  1  0  0  0
  6 25  1  0  0  0
  6 91  1  0  0  0
  6 92  1  0  0  0
  7  8  2  0  0  0
  7 26  1  0  0  0
  7 29  1  0  0  0
  8  9  1  0  0  0
  8 22  1  0  0  0
  9 10  1  0  0  0
  9 27  2  0  0  0
 10 11  2  0  0  0
 10 15  1  0  0  0
 11 12  1  0  0  0
 11 93  1  0  0  0
 12 13  2  0  0  0
 12 94  1  0  0  0
 13 14  1  0  0  0
 13 31  1  0  0  0
 14 15  2  0  0  0
 14 95  1  0  0  0
 15 96  1  0  0  0
 16 17  2  0  0  0
 16 21  1  0  0  0
 16 31  1  0  0  0
 17 18  1  0  0  0
 17 97  1  0  0  0
 18 19  2  0  0  0
 18 98  1  0  0  0
 19 20  1  0  0  0
 19 24  1  0  0  0
 20 21  2  0  0  0
 20 99  1  0  0  0
 21 23  1  0  0  0
 22 28  1  0  0  0
 22 32  2  0  0  0
 26 27  1  0  0  0
 28100  1  0  0  0
 28101  1  0  0  0
 29102  1  0  0  0
 29103  1  0  0  0
 33 34  1  0  0  0
 33 66  1  0  0  0
 33 70  2  0  0  0
 34 36  1  0  0  0
 34 59  1  0  0  0
 34104  1  0  0  0
 35 44  2  0  0  0
 35 45  1  0  0  0
 35 68  1  0  0  0
 36 56  1  0  0  0
 36105  1  0  0  0
 37 39  1  0  0  0
 37 47  1  0  0  0
 37 66  1  0  0  0
 37106  1  0  0  0
 38 43  2  0  0  0
 38 46  1  0  0  0
 38 47  1  0  0  0
 39 64  1  0  0  0
 39 67  2  0  0  0
 40 52  1  0  0  0
 40 53  2  0  0  0
 40 58  1  0  0  0
 41107  1  0  0  0
 41108  1  0  0  0
 41109  1  0  0  0
 41 48  1  0  0  0
 42 43  1  0  0  0
 42 66  1  0  0  0
 42110  1  0  0  0
 42111  1  0  0  0
 43 44  1  0  0  0
 44112  1  0  0  0
 45 46  2  0  0  0
 45113  1  0  0  0
 46114  1  0  0  0
 47115  1  0  0  0
 47116  1  0  0  0
 48 56  1  0  0  0
 48 65  1  0  0  0
 48117  1  0  0  0
 49 50  1  0  0  0
 49 53  1  0  0  0
 49 64  1  0  0  0
 49118  1  0  0  0
 50 51  1  0  0  0
 50119  1  0  0  0
 50120  1  0  0  0
 51 52  1  0  0  0
 51121  1  0  0  0
 51122  1  0  0  0
 52123  1  0  0  0
 52124  1  0  0  0
 53 54  1  0  0  0
 54 55  2  0  0  0
 54125  1  0  0  0
 55 57  1  0  0  0
 55126  1  0  0  0
 56 69  2  0  0  0
 57 58  2  0  0  0
 57127  1  0  0  0
 58128  1  0  0  0
 59 60  1  0  0  0
 59 61  1  0  0  0
 59 62  1  0  0  0
 60129  1  0  0  0
 60130  1  0  0  0
 60131  1  0  0  0
 61132  1  0  0  0
 61133  1  0  0  0
 61134  1  0  0  0
 62135  1  0  0  0
 62136  1  0  0  0
 62137  1  0  0  0
 63 65  1  0  0  0
 63138  1  0  0  0
 63139  1  0  0  0
 63140  1  0  0  0
 64141  1  0  0  0
 65142  1  0  0  0
 68 81  1  0  0  0
 71 73  1  0  0  0
 71143  1  0  0  0
 71144  1  0  0  0
 71 75  1  0  0  0
 72 74  1  0  0  0
 72 75  1  0  0  0
 72145  1  0  0  0
 72146  1  0  0  0
 73 82  1  0  0  0
 73147  1  0  0  0
 73148  1  0  0  0
 74 82  1  0  0  0
 74149  1  0  0  0
 74150  1  0  0  0
 75 83  1  0  0  0
 75151  1  0  0  0
 76152  1  0  0  0
 76153  1  0  0  0
 76154  1  0  0  0
 76 83  1  0  0  0
 77 78  1  0  0  0
 77 79  1  0  0  0
 77155  1  0  0  0
 77156  1  0  0  0
 78 80  1  0  0  0
 78157  1  0  0  0
 78158  1  0  0  0
 79 81  1  0  0  0
 79159  1  0  0  0
 79160  1  0  0  0
 80 83  1  0  0  0
 80161  1  0  0  0
 80162  1  0  0  0
 81163  1  0  0  0
 81164  1  0  0  0
 83165  1  0  0  0
M  CHG  1  83   1
M  ISO  4   1 100  68 101  81 101  82 100
M  END
> <chiral flag>
0

> <version>
0

> <s_m_source_file>
/data/baiqing/PycharmProjects/Reinvent-master-3.2/result/LINK_invent/BTK/process_docking_weight1_custom_sum_contain_oxygen_bond_distance_aromatic_linkinvent_7_9_3/rearranged_h_0020.sdf

> <i_m_source_file_index>
83

> <r_mmod_Potential_Energy-OPLS-2005>
131.399642944336

> <r_mmod_Stretch_Energy-OPLS-2005>
39.9723777770996

> <r_mmod_Bend_Energy-OPLS-2005>
105.071952819824

> <r_mmod_Torsional_Energy-OPLS-2005>
358.152191162109

> <r_mmod_Improper_Torsional_Energy-OPLS-2005>
13.4566192626953

> <r_mmod_Van_der_Waal_Energy-OPLS-2005>
147.568588256836

> <r_mmod_Electrostatic_Energy-OPLS-2005>
-131.12028503418

> <r_mmod_Solvation_Energy-OPLS-2005>
-416.95947265625

> <b_mmod_Minimization_Converged-OPLS-2005>
0

> <r_mmod_RMS_Derivative-OPLS-2005>
3.14864993095398

$$$$
83
                    3D
 Structure written by MMmdl.
144152  0  0  1  0            999 V2000
  -30.2974  -15.5980   20.3309 C   0  0  0  0  0  0
  -30.4336  -13.0477   19.5484 C   0  0  0  0  0  0
  -29.5554  -12.6488   18.3272 C   0  0  0  0  0  0
  -28.1240  -12.3005   18.7641 C   0  0  0  0  0  0
  -27.6012  -13.3029   19.8178 C   0  0  2  0  0  0
  -28.6182  -13.6092   20.9428 C   0  0  0  0  0  0
  -25.2338  -13.8276   20.5774 C   0  0  0  0  0  0
  -24.1722  -13.0434   20.9279 C   0  0  0  0  0  0
  -24.6415  -11.6942   20.8757 C   0  0  0  0  0  0
  -23.9115  -10.4291   21.0393 C   0  0  0  0  0  0
  -24.3651   -9.4204   21.9177 C   0  0  0  0  0  0
  -23.6312   -8.2245   22.0753 C   0  0  0  0  0  0
  -22.4292   -8.0285   21.3544 C   0  0  0  0  0  0
  -21.9938   -9.0260   20.4643 C   0  0  0  0  0  0
  -22.7279  -10.2132   20.3047 C   0  0  0  0  0  0
  -21.6859   -6.0738   22.5276 C   0  0  0  0  0  0
  -21.4019   -6.5641   23.8209 C   0  0  0  0  0  0
  -21.3661   -5.6792   24.9171 C   0  0  0  0  0  0
  -21.6045   -4.3056   24.7221 C   0  0  0  0  0  0
  -21.8818   -3.8148   23.4342 C   0  0  0  0  0  0
  -21.9195   -4.6965   22.3398 C   0  0  0  0  0  0
  -22.7733  -13.5168   21.1913 C   0  0  0  0  0  0
  -22.1660   -4.2149   21.0977 F   0  0  0  0  0  0
  -21.5630   -3.4540   25.7734 F   0  0  0  0  0  0
  -29.8041  -14.2226   20.3014 N   0  0  0  0  0  0
  -26.2790  -12.9599   20.3229 N   0  0  0  0  0  0
  -25.9364  -11.6675   20.5703 N   0  0  0  0  0  0
  -22.0403  -12.8144   22.0469 N   0  0  0  0  0  0
  -25.3932  -15.2014   20.4197 N   0  0  0  0  0  0
  -31.5256  -15.5757   20.1238 O   0  0  0  0  0  0
  -21.6649   -6.8884   21.4239 O   0  0  0  0  0  0
  -22.3401  -14.5461   20.6744 O   0  0  0  0  0  0
  -24.6829  -31.8007   23.1518 C   0  0  0  0  0  0
  -25.9411  -32.4475   23.8065 C   0  0  1  0  0  0
  -27.2300  -26.7124   20.2096 C   0  0  0  0  0  0
  -25.5989  -33.8296   24.1956 N   0  0  0  0  0  0
  -23.5097  -30.4024   21.5048 C   0  0  2  0  0  0
  -24.9693  -28.7462   20.1153 C   0  0  0  0  0  0
  -22.7769  -29.4318   22.4705 C   0  0  0  0  0  0
  -18.0338  -28.1431   22.8465 C   0  0  0  0  0  0
  -24.1490  -36.7155   23.2657 C   0  0  0  0  0  0
  -26.0901  -30.5359   21.4158 C   0  0  0  0  0  0
  -26.1570  -29.1018   20.7653 C   0  0  0  0  0  0
  -27.2717  -28.1116   20.7829 C   0  0  0  0  0  0
  -26.0113  -26.5672   19.4977 C   0  0  0  0  0  0
  -24.9349  -27.5046   19.4579 C   0  0  0  0  0  0
  -23.7644  -29.6999   20.1398 C   0  0  0  0  0  0
  -25.4145  -36.2901   24.0282 C   0  0  1  0  0  0
  -20.5977  -28.3788   23.1144 C   0  0  2  0  0  0
  -20.6803  -26.9446   22.5406 C   0  0  0  0  0  0
  -19.5776  -26.6381   21.5221 C   0  0  0  0  0  0
  -18.1961  -26.7960   22.1629 C   0  0  0  0  0  0
  -19.1607  -28.8934   23.2788 C   0  0  0  0  0  0
  -18.9512  -30.1518   23.8835 C   0  0  0  0  0  0
  -17.6503  -30.6615   24.0555 C   0  0  0  0  0  0
  -25.9118  -34.9289   23.4956 C   0  0  0  0  0  0
  -16.5391  -29.9099   23.6354 C   0  0  0  0  0  0
  -16.7319  -28.6518   23.0377 C   0  0  0  0  0  0
  -26.4595  -31.6506   25.0683 C   0  0  0  0  0  0
  -25.3662  -31.3827   26.1301 C   0  0  0  0  0  0
  -27.0523  -30.2842   24.6576 C   0  0  0  0  0  0
  -27.6047  -32.4361   25.7503 C   0  0  0  0  0  0
  -27.5547  -37.1759   24.8485 C   0  0  0  0  0  0
  -21.4415  -29.3035   22.3462 N   0  0  0  0  0  0
  -26.4284  -37.3648   23.9380 N   0  0  0  0  0  0
  -24.7842  -30.9462   22.0767 N   0  0  0  0  0  0
  -23.4216  -28.7912   23.3040 O   0  0  0  0  0  0
  -28.1786  -25.4861   20.3089 O   0  0  0  0  0  0
  -26.5757  -34.8862   22.4574 O   0  0  0  0  0  0
  -23.5848  -32.1071   23.6477 O   0  0  0  0  0  0
  -29.7731  -21.2743   19.7906 C   0  0  0  0  0  0
  -28.5866  -22.0541   20.2705 C   0  0  0  0  0  0
  -29.3252  -18.6198   20.3762 C   0  0  0  0  0  0
  -30.1150  -19.7713   19.8399 C   0  0  0  0  0  0
  -27.8277  -20.8908   20.8033 C   0  0  0  0  0  0
  -28.1506  -19.3993   20.8506 C   0  0  0  0  0  0
  -27.9136  -23.7828   20.0075 C   0  0  0  0  0  0
  -29.4654  -16.9010   20.4449 N   0  0  0  0  0  0
  -31.2998  -19.4337   19.2768 F   0  0  0  0  0  0
  -26.6109  -21.2121   21.3047 F   0  0  0  0  0  0
  -27.1806  -18.6338   21.4077 F   0  0  0  0  0  0
  -31.4303  -13.3070   19.1896 H   0  0  0  0  0  0
  -30.5856  -12.1940   20.2110 H   0  0  0  0  0  0
  -30.0017  -11.8088   17.7933 H   0  0  0  0  0  0
  -29.5258  -13.4808   17.6224 H   0  0  0  0  0  0
  -28.1411  -11.2981   19.1940 H   0  0  0  0  0  0
  -27.4564  -12.2560   17.9028 H   0  0  0  0  0  0
  -27.4735  -14.2320   19.2609 H   0  0  0  0  0  0
  -28.8650  -12.7161   21.5190 H   0  0  0  0  0  0
  -28.1913  -14.3211   21.6507 H   0  0  0  0  0  0
  -25.2792   -9.5677   22.4758 H   0  0  0  0  0  0
  -24.0011   -7.4638   22.7481 H   0  0  0  0  0  0
  -21.0867   -8.8784   19.8952 H   0  0  0  0  0  0
  -22.3734  -10.9671   19.6157 H   0  0  0  0  0  0
  -21.2013   -7.6150   23.9711 H   0  0  0  0  0  0
  -21.1486   -6.0525   25.9073 H   0  0  0  0  0  0
  -22.0596   -2.7611   23.2842 H   0  0  0  0  0  0
  -22.4052  -11.9824   22.4862 H   0  0  0  0  0  0
  -21.1009  -13.1133   22.2671 H   0  0  0  0  0  0
  -24.6183  -15.8465   20.5295 H   0  0  0  0  0  0
  -26.2246  -15.6435   20.0524 H   0  0  0  0  0  0
  -26.7495  -32.4951   23.0782 H   0  0  0  0  0  0
  -25.0054  -33.9337   25.0055 H   0  0  0  0  0  0
  -22.8345  -31.2392   21.3149 H   0  0  0  0  0  0
  -23.3747  -35.9497   23.3351 H   0  0  0  0  0  0
  -24.3530  -36.8779   22.2061 H   0  0  0  0  0  0
  -23.7274  -37.6358   23.6710 H   0  0  0  0  0  0
  -26.2928  -31.2609   20.6267 H   0  0  0  0  0  0
  -26.9414  -30.6044   22.0809 H   0  0  0  0  0  0
  -28.1621  -28.3870   21.3307 H   0  0  0  0  0  0
  -25.8458  -25.6262   18.9930 H   0  0  0  0  0  0
  -24.0383  -27.2254   18.9212 H   0  0  0  0  0  0
  -23.9380  -30.4600   19.3774 H   0  0  0  0  0  0
  -22.8700  -29.1652   19.8158 H   0  0  0  0  0  0
  -25.1368  -36.1681   25.0776 H   0  0  0  0  0  0
  -21.0065  -28.3416   24.1267 H   0  0  0  0  0  0
  -20.5663  -26.2414   23.3669 H   0  0  0  0  0  0
  -21.6663  -26.7384   22.1224 H   0  0  0  0  0  0
  -19.6924  -25.6274   21.1297 H   0  0  0  0  0  0
  -19.6717  -27.3156   20.6721 H   0  0  0  0  0  0
  -17.4226  -26.6710   21.4032 H   0  0  0  0  0  0
  -18.0346  -26.0120   22.9041 H   0  0  0  0  0  0
  -19.7985  -30.7353   24.2177 H   0  0  0  0  0  0
  -17.5052  -31.6286   24.5174 H   0  0  0  0  0  0
  -15.5391  -30.2983   23.7711 H   0  0  0  0  0  0
  -15.8719  -28.0812   22.7134 H   0  0  0  0  0  0
  -24.5876  -30.7143   25.7611 H   0  0  0  0  0  0
  -24.8815  -32.3047   26.4517 H   0  0  0  0  0  0
  -25.7840  -30.9135   27.0216 H   0  0  0  0  0  0
  -26.3234  -29.6464   24.1562 H   0  0  0  0  0  0
  -27.3948  -29.7282   25.5315 H   0  0  0  0  0  0
  -27.9221  -30.3975   24.0102 H   0  0  0  0  0  0
  -27.2595  -33.3732   26.1885 H   0  0  0  0  0  0
  -28.3964  -32.6811   25.0410 H   0  0  0  0  0  0
  -28.0603  -31.8617   26.5580 H   0  0  0  0  0  0
  -28.2626  -37.9990   24.7410 H   0  0  0  0  0  0
  -28.0980  -36.2510   24.6489 H   0  0  0  0  0  0
  -27.2234  -37.1611   25.8884 H   0  0  0  0  0  0
  -20.9714  -29.8689   21.6531 H   0  0  0  0  0  0
  -26.0121  -38.2717   24.1321 H   0  0  0  0  0  0
  -30.5122  -21.8728   19.2792 H   0  0  0  0  0  0
  -26.8967  -23.6664   20.3812 H   0  0  0  0  0  0
  -27.7834  -23.7856   18.9251 H   0  0  0  0  0  0
  -28.5462  -16.5564   20.6764 H   0  0  0  0  0  0
  1 25  1  0  0  0
  1 30  2  0  0  0
  1 78  1  0  0  0
  2  3  1  0  0  0
  2 25  1  0  0  0
  2 82  1  0  0  0
  2 83  1  0  0  0
  3  4  1  0  0  0
  3 84  1  0  0  0
  3 85  1  0  0  0
  4  5  1  0  0  0
  4 86  1  0  0  0
  4 87  1  0  0  0
  5  6  1  0  0  0
  5 26  1  0  0  0
  5 88  1  0  0  0
  6 25  1  0  0  0
  6 89  1  0  0  0
  6 90  1  0  0  0
  7  8  2  0  0  0
  7 26  1  0  0  0
  7 29  1  0  0  0
  8  9  1  0  0  0
  8 22  1  0  0  0
  9 10  1  0  0  0
  9 27  2  0  0  0
 10 11  2  0  0  0
 10 15  1  0  0  0
 11 12  1  0  0  0
 11 91  1  0  0  0
 12 13  2  0  0  0
 12 92  1  0  0  0
 13 14  1  0  0  0
 13 31  1  0  0  0
 14 15  2  0  0  0
 14 93  1  0  0  0
 15 94  1  0  0  0
 16 17  2  0  0  0
 16 21  1  0  0  0
 16 31  1  0  0  0
 17 18  1  0  0  0
 17 95  1  0  0  0
 18 19  2  0  0  0
 18 96  1  0  0  0
 19 20  1  0  0  0
 19 24  1  0  0  0
 20 21  2  0  0  0
 20 97  1  0  0  0
 21 23  1  0  0  0
 22 28  1  0  0  0
 22 32  2  0  0  0
 26 27  1  0  0  0
 28 98  1  0  0  0
 28 99  1  0  0  0
 29100  1  0  0  0
 29101  1  0  0  0
 33 34  1  0  0  0
 33 66  1  0  0  0
 33 70  2  0  0  0
 34 36  1  0  0  0
 34 59  1  0  0  0
 34102  1  0  0  0
 35 44  2  0  0  0
 35 45  1  0  0  0
 35 68  1  0  0  0
 36 56  1  0  0  0
 36103  1  0  0  0
 37 39  1  0  0  0
 37 47  1  0  0  0
 37 66  1  0  0  0
 37104  1  0  0  0
 38 43  2  0  0  0
 38 46  1  0  0  0
 38 47  1  0  0  0
 39 64  1  0  0  0
 39 67  2  0  0  0
 40 52  1  0  0  0
 40 53  2  0  0  0
 40 58  1  0  0  0
 41105  1  0  0  0
 41106  1  0  0  0
 41107  1  0  0  0
 41 48  1  0  0  0
 42 43  1  0  0  0
 42 66  1  0  0  0
 42108  1  0  0  0
 42109  1  0  0  0
 43 44  1  0  0  0
 44110  1  0  0  0
 45 46  2  0  0  0
 45111  1  0  0  0
 46112  1  0  0  0
 47113  1  0  0  0
 47114  1  0  0  0
 48 56  1  0  0  0
 48 65  1  0  0  0
 48115  1  0  0  0
 49 50  1  0  0  0
 49 53  1  0  0  0
 49 64  1  0  0  0
 49116  1  0  0  0
 50 51  1  0  0  0
 50117  1  0  0  0
 50118  1  0  0  0
 51 52  1  0  0  0
 51119  1  0  0  0
 51120  1  0  0  0
 52121  1  0  0  0
 52122  1  0  0  0
 53 54  1  0  0  0
 54 55  2  0  0  0
 54123  1  0  0  0
 55 57  1  0  0  0
 55124  1  0  0  0
 56 69  2  0  0  0
 57 58  2  0  0  0
 57125  1  0  0  0
 58126  1  0  0  0
 59 60  1  0  0  0
 59 61  1  0  0  0
 59 62  1  0  0  0
 60127  1  0  0  0
 60128  1  0  0  0
 60129  1  0  0  0
 61130  1  0  0  0
 61131  1  0  0  0
 61132  1  0  0  0
 62133  1  0  0  0
 62134  1  0  0  0
 62135  1  0  0  0
 63 65  1  0  0  0
 63136  1  0  0  0
 63137  1  0  0  0
 63138  1  0  0  0
 64139  1  0  0  0
 65140  1  0  0  0
 68 77  1  0  0  0
 71 72  2  0  0  0
 71 74  1  0  0  0
 71141  1  0  0  0
 72 75  1  0  0  0
 72 77  1  0  0  0
 73 74  2  0  0  0
 73 76  1  0  0  0
 73 78  1  0  0  0
 74 79  1  0  0  0
 75 76  2  0  0  0
 75 80  1  0  0  0
 76 81  1  0  0  0
 77142  1  0  0  0
 77143  1  0  0  0
 78144  1  0  0  0
M  ISO  4   1 100  68 101  77 101  78 100
M  END
> <chiral flag>
0

> <version>
0

> <s_m_source_file>
/data/baiqing/PycharmProjects/Reinvent-master-3.2/result/LINK_invent/BTK/process_docking_weight1_custom_sum_contain_oxygen_bond_distance_aromatic_linkinvent_7_9_3/rearranged_h_0020.sdf

> <i_m_source_file_index>
84

> <r_mmod_Potential_Energy-OPLS-2005>
2213.34765625

> <r_mmod_Stretch_Energy-OPLS-2005>
916.914001464844

> <r_mmod_Bend_Energy-OPLS-2005>
675.477478027344

> <r_mmod_Torsional_Energy-OPLS-2005>
227.306259155273

> <r_mmod_Improper_Torsional_Energy-OPLS-2005>
6.26214551925659

> <r_mmod_Van_der_Waal_Energy-OPLS-2005>
129.558563232422

> <r_mmod_Electrostatic_Energy-OPLS-2005>
-398.743377685547

> <r_mmod_Solvation_Energy-OPLS-2005>
-211.776794433594

> <b_mmod_Minimization_Converged-OPLS-2005>
0

> <r_mmod_RMS_Derivative-OPLS-2005>
0.640359282493591

$$$$
84
                    3D
 Structure written by MMmdl.
162170  0  0  1  0            999 V2000
  -30.5446  -14.9668   20.4265 C   0  0  0  0  0  0
  -30.4379  -12.6056   19.4912 C   0  0  0  0  0  0
  -29.5187  -12.5285   18.2510 C   0  0  0  0  0  0
  -28.0546  -12.3088   18.6765 C   0  0  0  0  0  0
  -27.6268  -13.2494   19.8330 C   0  0  2  0  0  0
  -28.6707  -13.2974   20.9681 C   0  0  0  0  0  0
  -25.2456  -13.8210   20.5710 C   0  0  0  0  0  0
  -24.1779  -13.0441   20.9234 C   0  0  0  0  0  0
  -24.6395  -11.6924   20.8759 C   0  0  0  0  0  0
  -23.9075  -10.4296   21.0403 C   0  0  0  0  0  0
  -24.3618   -9.4209   21.9187 C   0  0  0  0  0  0
  -23.6289   -8.2246   22.0758 C   0  0  0  0  0  0
  -22.4272   -8.0279   21.3543 C   0  0  0  0  0  0
  -21.9911   -9.0256   20.4645 C   0  0  0  0  0  0
  -22.7244  -10.2133   20.3054 C   0  0  0  0  0  0
  -21.6857   -6.0727   22.5277 C   0  0  0  0  0  0
  -21.4012   -6.5632   23.8208 C   0  0  0  0  0  0
  -21.3658   -5.6790   24.9172 C   0  0  0  0  0  0
  -21.6041   -4.3051   24.7227 C   0  0  0  0  0  0
  -21.8823   -3.8141   23.4350 C   0  0  0  0  0  0
  -21.9192   -4.6954   22.3402 C   0  0  0  0  0  0
  -22.7799  -13.5212   21.1884 C   0  0  0  0  0  0
  -22.1664   -4.2139   21.0981 F   0  0  0  0  0  0
  -21.5627   -3.4540   25.7743 F   0  0  0  0  0  0
  -29.9390  -13.7122   20.3582 N   0  0  0  0  0  0
  -26.2880  -12.9451   20.3234 N   0  0  0  0  0  0
  -25.9327  -11.6582   20.5737 N   0  0  0  0  0  0
  -22.0434  -12.8209   22.0432 N   0  0  0  0  0  0
  -25.4122  -15.1937   20.4114 N   0  0  0  0  0  0
  -31.7581  -14.9997   20.1942 O   0  0  0  0  0  0
  -21.6639   -6.8870   21.4238 O   0  0  0  0  0  0
  -22.3491  -14.5521   20.6726 O   0  0  0  0  0  0
  -24.6449  -31.8424   23.1883 C   0  0  0  0  0  0
  -25.9217  -32.4692   23.8273 C   0  0  1  0  0  0
  -27.2150  -27.1181   20.1679 C   0  0  0  0  0  0
  -25.5973  -33.8491   24.2202 N   0  0  0  0  0  0
  -23.4488  -30.4616   21.5322 C   0  0  2  0  0  0
  -24.9012  -28.8855   20.1125 C   0  0  0  0  0  0
  -22.7568  -29.4530   22.4836 C   0  0  0  0  0  0
  -18.0309  -28.1388   22.8463 C   0  0  0  0  0  0
  -24.1495  -36.7258   23.2636 C   0  0  0  0  0  0
  -26.0053  -30.7115   21.3891 C   0  0  0  0  0  0
  -26.0774  -29.3192   20.7369 C   0  0  0  0  0  0
  -27.2349  -28.4511   20.7477 C   0  0  0  0  0  0
  -26.0175  -26.7941   19.4926 C   0  0  0  0  0  0
  -24.8864  -27.6378   19.4722 C   0  0  0  0  0  0
  -23.6790  -29.7906   20.1519 C   0  0  0  0  0  0
  -25.4116  -36.3027   24.0324 C   0  0  1  0  0  0
  -20.5920  -28.3715   23.1229 C   0  0  2  0  0  0
  -20.6794  -26.9414   22.5400 C   0  0  0  0  0  0
  -19.5776  -26.6374   21.5204 C   0  0  0  0  0  0
  -18.1947  -26.7926   22.1605 C   0  0  0  0  0  0
  -19.1566  -28.8870   23.2836 C   0  0  0  0  0  0
  -18.9483  -30.1456   23.8875 C   0  0  0  0  0  0
  -17.6483  -30.6586   24.0550 C   0  0  0  0  0  0
  -25.9071  -34.9402   23.5068 C   0  0  0  0  0  0
  -16.5372  -29.9077   23.6332 C   0  0  0  0  0  0
  -16.7293  -28.6494   23.0354 C   0  0  0  0  0  0
  -26.4547  -31.6552   25.0708 C   0  0  0  0  0  0
  -25.3735  -31.3727   26.1405 C   0  0  0  0  0  0
  -27.0410  -30.2955   24.6265 C   0  0  0  0  0  0
  -27.6087  -32.4304   25.7500 C   0  0  0  0  0  0
  -27.5573  -37.1770   24.8454 C   0  0  0  0  0  0
  -21.4260  -29.3051   22.3599 N   0  0  0  0  0  0
  -26.4269  -37.3749   23.9428 N   0  0  0  0  0  0
  -24.7194  -31.0268   22.0922 N   0  0  0  0  0  0
  -23.4200  -28.8055   23.2966 O   0  0  0  0  0  0
  -28.2672  -26.1276   20.2106 O   0  0  0  0  0  0
  -26.5644  -34.8897   22.4636 O   0  0  0  0  0  0
  -23.5567  -32.1306   23.7099 O   0  0  0  0  0  0
  -31.3574  -17.9549   21.2348 C   0  0  0  0  0  0
  -31.7396  -19.2501   21.6412 C   0  0  0  0  0  0
  -30.8734  -20.3813   21.5234 C   0  0  0  0  0  0
  -29.6254  -20.2991   20.8215 C   0  0  0  0  0  0
  -29.2611  -18.8873   20.4561 C   0  0  0  0  0  0
  -30.0975  -17.6639   20.6878 C   0  0  0  0  0  0
  -33.1206  -19.3655   22.2782 C   0  0  0  0  0  0
  -27.8944  -18.6801   19.8304 C   0  0  0  0  0  0
  -30.7713  -21.5608   23.7671 C   0  0  0  0  0  0
  -31.2609  -21.6349   22.3140 C   0  0  0  0  0  0
  -28.6468  -21.6617   20.7096 C   0  0  0  0  0  0
  -28.9660  -23.2566   20.1799 C   0  0  0  0  0  0
  -27.9833  -24.6073   20.4710 C   0  0  0  0  0  0
  -29.7664  -16.1676   20.4960 N   0  0  0  0  0  0
  -31.4705  -12.7637   19.1765 H   0  0  0  0  0  0
  -30.4355  -11.6602   20.0360 H   0  0  0  0  0  0
  -29.8422  -11.7239   17.5886 H   0  0  0  0  0  0
  -29.5994  -13.4522   17.6751 H   0  0  0  0  0  0
  -27.9628  -11.2700   18.9980 H   0  0  0  0  0  0
  -27.3875  -12.4241   17.8220 H   0  0  0  0  0  0
  -27.5834  -14.2464   19.3936 H   0  0  0  0  0  0
  -28.7692  -12.3296   21.4617 H   0  0  0  0  0  0
  -28.3708  -14.0115   21.7372 H   0  0  0  0  0  0
  -25.2753   -9.5691   22.4778 H   0  0  0  0  0  0
  -23.9992   -7.4635   22.7489 H   0  0  0  0  0  0
  -21.0840   -8.8774   19.8954 H   0  0  0  0  0  0
  -22.3695  -10.9671   19.6169 H   0  0  0  0  0  0
  -21.2006   -7.6142   23.9709 H   0  0  0  0  0  0
  -21.1475   -6.0519   25.9072 H   0  0  0  0  0  0
  -22.0601   -2.7605   23.2857 H   0  0  0  0  0  0
  -22.4038  -11.9862   22.4813 H   0  0  0  0  0  0
  -21.1049  -13.1241   22.2622 H   0  0  0  0  0  0
  -24.6399  -15.8426   20.5142 H   0  0  0  0  0  0
  -26.2513  -15.6324   20.0585 H   0  0  0  0  0  0
  -26.7267  -32.5301   23.0983 H   0  0  0  0  0  0
  -25.0123  -33.9617   25.0355 H   0  0  0  0  0  0
  -22.7526  -31.2880   21.3748 H   0  0  0  0  0  0
  -23.3773  -35.9568   23.3260 H   0  0  0  0  0  0
  -24.3584  -36.8944   22.2056 H   0  0  0  0  0  0
  -23.7235  -37.6437   23.6703 H   0  0  0  0  0  0
  -26.1546  -31.4600   20.6099 H   0  0  0  0  0  0
  -26.8778  -30.7695   22.0279 H   0  0  0  0  0  0
  -28.1275  -28.7745   21.2639 H   0  0  0  0  0  0
  -25.9313  -25.8503   18.9759 H   0  0  0  0  0  0
  -23.9937  -27.3080   18.9585 H   0  0  0  0  0  0
  -23.8209  -30.5656   19.3983 H   0  0  0  0  0  0
  -22.7939  -29.2363   19.8361 H   0  0  0  0  0  0
  -25.1294  -36.1843   25.0815 H   0  0  0  0  0  0
  -21.0009  -28.3313   24.1354 H   0  0  0  0  0  0
  -20.5686  -26.2322   23.3615 H   0  0  0  0  0  0
  -21.6653  -26.7413   22.1196 H   0  0  0  0  0  0
  -19.6943  -25.6282   21.1248 H   0  0  0  0  0  0
  -19.6736  -27.3165   20.6719 H   0  0  0  0  0  0
  -17.4220  -26.6686   21.4001 H   0  0  0  0  0  0
  -18.0335  -26.0060   22.8991 H   0  0  0  0  0  0
  -19.7958  -30.7262   24.2251 H   0  0  0  0  0  0
  -17.5040  -31.6268   24.5142 H   0  0  0  0  0  0
  -15.5370  -30.2971   23.7679 H   0  0  0  0  0  0
  -15.8688  -28.0804   22.7096 H   0  0  0  0  0  0
  -24.5979  -30.6993   25.7747 H   0  0  0  0  0  0
  -24.8835  -32.2885   26.4710 H   0  0  0  0  0  0
  -25.8026  -30.9016   27.0255 H   0  0  0  0  0  0
  -26.3013  -29.6676   24.1280 H   0  0  0  0  0  0
  -27.4065  -29.7250   25.4817 H   0  0  0  0  0  0
  -27.8909  -30.4228   23.9553 H   0  0  0  0  0  0
  -27.2720  -33.3664   26.1961 H   0  0  0  0  0  0
  -28.3960  -32.6748   25.0360 H   0  0  0  0  0  0
  -28.0666  -31.8478   26.5510 H   0  0  0  0  0  0
  -28.2531  -38.0118   24.7539 H   0  0  0  0  0  0
  -28.1129  -36.2650   24.6221 H   0  0  0  0  0  0
  -27.2300  -37.1331   25.8854 H   0  0  0  0  0  0
  -20.9468  -29.8802   21.6820 H   0  0  0  0  0  0
  -26.0142  -38.2812   24.1466 H   0  0  0  0  0  0
  -32.0463  -17.1450   21.4229 H   0  0  0  0  0  0
  -33.7048  -20.1591   21.8125 H   0  0  0  0  0  0
  -33.6993  -18.4497   22.1503 H   0  0  0  0  0  0
  -33.0491  -19.5585   23.3484 H   0  0  0  0  0  0
  -27.1113  -18.8647   20.5663 H   0  0  0  0  0  0
  -27.7691  -17.6704   19.4402 H   0  0  0  0  0  0
  -27.7481  -19.3687   18.9981 H   0  0  0  0  0  0
  -31.0605  -22.4528   24.3235 H   0  0  0  0  0  0
  -31.1841  -20.6973   24.2892 H   0  0  0  0  0  0
  -29.6852  -21.4804   23.8104 H   0  0  0  0  0  0
  -30.8698  -22.5380   21.8871 H   0  0  0  0  0  0
  -32.3362  -21.8038   22.2950 H   0  0  0  0  0  0
  -28.2581  -21.7784   21.7216 H   0  0  0  0  0  0
  -27.7709  -21.3579   20.1386 H   0  0  0  0  0  0
  -29.0772  -23.1858   19.0975 H   0  0  0  0  0  0
  -29.9483  -23.5827   20.4938 H   0  0  0  0  0  0
  -27.7709  -24.5711   21.5399 H   0  0  0  0  0  0
  -27.0276  -24.3591   20.0151 H   0  0  0  0  0  0
  -28.7777  -15.9745   20.4629 H   0  0  0  0  0  0
  1 25  1  0  0  0
  1 30  2  0  0  0
  1 84  1  0  0  0
  2  3  1  0  0  0
  2 25  1  0  0  0
  2 85  1  0  0  0
  2 86  1  0  0  0
  3  4  1  0  0  0
  3 87  1  0  0  0
  3 88  1  0  0  0
  4  5  1  0  0  0
  4 89  1  0  0  0
  4 90  1  0  0  0
  5  6  1  0  0  0
  5 26  1  0  0  0
  5 91  1  0  0  0
  6 25  1  0  0  0
  6 92  1  0  0  0
  6 93  1  0  0  0
  7  8  2  0  0  0
  7 26  1  0  0  0
  7 29  1  0  0  0
  8  9  1  0  0  0
  8 22  1  0  0  0
  9 10  1  0  0  0
  9 27  2  0  0  0
 10 11  2  0  0  0
 10 15  1  0  0  0
 11 12  1  0  0  0
 11 94  1  0  0  0
 12 13  2  0  0  0
 12 95  1  0  0  0
 13 14  1  0  0  0
 13 31  1  0  0  0
 14 15  2  0  0  0
 14 96  1  0  0  0
 15 97  1  0  0  0
 16 17  2  0  0  0
 16 21  1  0  0  0
 16 31  1  0  0  0
 17 18  1  0  0  0
 17 98  1  0  0  0
 18 19  2  0  0  0
 18 99  1  0  0  0
 19 20  1  0  0  0
 19 24  1  0  0  0
 20 21  2  0  0  0
 20100  1  0  0  0
 21 23  1  0  0  0
 22 28  1  0  0  0
 22 32  2  0  0  0
 26 27  1  0  0  0
 28101  1  0  0  0
 28102  1  0  0  0
 29103  1  0  0  0
 29104  1  0  0  0
 33 34  1  0  0  0
 33 66  1  0  0  0
 33 70  2  0  0  0
 34 36  1  0  0  0
 34 59  1  0  0  0
 34105  1  0  0  0
 35 44  2  0  0  0
 35 45  1  0  0  0
 35 68  1  0  0  0
 36 56  1  0  0  0
 36106  1  0  0  0
 37 39  1  0  0  0
 37 47  1  0  0  0
 37 66  1  0  0  0
 37107  1  0  0  0
 38 43  2  0  0  0
 38 46  1  0  0  0
 38 47  1  0  0  0
 39 64  1  0  0  0
 39 67  2  0  0  0
 40 52  1  0  0  0
 40 53  2  0  0  0
 40 58  1  0  0  0
 41108  1  0  0  0
 41109  1  0  0  0
 41110  1  0  0  0
 41 48  1  0  0  0
 42 43  1  0  0  0
 42 66  1  0  0  0
 42111  1  0  0  0
 42112  1  0  0  0
 43 44  1  0  0  0
 44113  1  0  0  0
 45 46  2  0  0  0
 45114  1  0  0  0
 46115  1  0  0  0
 47116  1  0  0  0
 47117  1  0  0  0
 48 56  1  0  0  0
 48 65  1  0  0  0
 48118  1  0  0  0
 49 50  1  0  0  0
 49 53  1  0  0  0
 49 64  1  0  0  0
 49119  1  0  0  0
 50 51  1  0  0  0
 50120  1  0  0  0
 50121  1  0  0  0
 51 52  1  0  0  0
 51122  1  0  0  0
 51123  1  0  0  0
 52124  1  0  0  0
 52125  1  0  0  0
 53 54  1  0  0  0
 54 55  2  0  0  0
 54126  1  0  0  0
 55 57  1  0  0  0
 55127  1  0  0  0
 56 69  2  0  0  0
 57 58  2  0  0  0
 57128  1  0  0  0
 58129  1  0  0  0
 59 60  1  0  0  0
 59 61  1  0  0  0
 59 62  1  0  0  0
 60130  1  0  0  0
 60131  1  0  0  0
 60132  1  0  0  0
 61133  1  0  0  0
 61134  1  0  0  0
 61135  1  0  0  0
 62136  1  0  0  0
 62137  1  0  0  0
 62138  1  0  0  0
 63 65  1  0  0  0
 63139  1  0  0  0
 63140  1  0  0  0
 63141  1  0  0  0
 64142  1  0  0  0
 65143  1  0  0  0
 68 83  1  0  0  0
 71 72  2  0  0  0
 71 76  1  0  0  0
 71144  1  0  0  0
 72 73  1  0  0  0
 72 77  1  0  0  0
 73 74  2  0  0  0
 73 80  1  0  0  0
 74 75  1  0  0  0
 74 81  1  0  0  0
 75 76  2  0  0  0
 75 78  1  0  0  0
 76 84  1  0  0  0
 77145  1  0  0  0
 77146  1  0  0  0
 77147  1  0  0  0
 78148  1  0  0  0
 78149  1  0  0  0
 78150  1  0  0  0
 79 80  1  0  0  0
 79151  1  0  0  0
 79152  1  0  0  0
 79153  1  0  0  0
 80154  1  0  0  0
 80155  1  0  0  0
 81 82  1  0  0  0
 81156  1  0  0  0
 81157  1  0  0  0
 82 83  1  0  0  0
 82158  1  0  0  0
 82159  1  0  0  0
 83160  1  0  0  0
 83161  1  0  0  0
 84162  1  0  0  0
M  ISO  4   1 100  68 101  83 101  84 100
M  END
> <chiral flag>
0

> <version>
0

> <s_m_source_file>
/data/baiqing/PycharmProjects/Reinvent-master-3.2/result/LINK_invent/BTK/process_docking_weight1_custom_sum_contain_oxygen_bond_distance_aromatic_linkinvent_7_9_3/rearranged_h_0020.sdf

> <i_m_source_file_index>
85

> <r_mmod_Potential_Energy-OPLS-2005>
552.801330566406

> <r_mmod_Stretch_Energy-OPLS-2005>
299.228302001953

> <r_mmod_Bend_Energy-OPLS-2005>
266.127624511719

> <r_mmod_Torsional_Energy-OPLS-2005>
238.356369018555

> <r_mmod_Improper_Torsional_Energy-OPLS-2005>
7.70125675201416

> <r_mmod_Van_der_Waal_Energy-OPLS-2005>
143.542678833008

> <r_mmod_Electrostatic_Energy-OPLS-2005>
-404.087493896484

> <r_mmod_Solvation_Energy-OPLS-2005>
-204.40022277832

> <b_mmod_Minimization_Converged-OPLS-2005>
0

> <r_mmod_RMS_Derivative-OPLS-2005>
1.87804508209229

$$$$
85
                    3D
 Structure written by MMmdl.
178186  0  0  1  0            999 V2000
  -30.8223  -14.3368   20.7401 C   0  0  0  0  0  0
  -30.4058  -12.2964   19.4052 C   0  0  0  0  0  0
  -29.4849  -12.5394   18.1965 C   0  0  0  0  0  0
  -28.0107  -12.3733   18.6055 C   0  0  0  0  0  0
  -27.6630  -13.1950   19.8709 C   0  0  2  0  0  0
  -28.6982  -12.9584   20.9937 C   0  0  0  0  0  0
  -25.2589  -13.8114   20.5642 C   0  0  0  0  0  0
  -24.1859  -13.0415   20.9214 C   0  0  0  0  0  0
  -24.6393  -11.6880   20.8741 C   0  0  0  0  0  0
  -23.9056  -10.4280   21.0407 C   0  0  0  0  0  0
  -24.3611   -9.4199   21.9186 C   0  0  0  0  0  0
  -23.6288   -8.2237   22.0757 C   0  0  0  0  0  0
  -22.4270   -8.0280   21.3544 C   0  0  0  0  0  0
  -21.9905   -9.0254   20.4648 C   0  0  0  0  0  0
  -22.7228  -10.2130   20.3057 C   0  0  0  0  0  0
  -21.6853   -6.0734   22.5274 C   0  0  0  0  0  0
  -21.4015   -6.5636   23.8210 C   0  0  0  0  0  0
  -21.3656   -5.6792   24.9174 C   0  0  0  0  0  0
  -21.6045   -4.3054   24.7226 C   0  0  0  0  0  0
  -21.8821   -3.8144   23.4347 C   0  0  0  0  0  0
  -21.9196   -4.6961   22.3400 C   0  0  0  0  0  0
  -22.7880  -13.5225   21.1866 C   0  0  0  0  0  0
  -22.1664   -4.2144   21.0980 F   0  0  0  0  0  0
  -21.5631   -3.4539   25.7739 F   0  0  0  0  0  0
  -30.0481  -13.2446   20.4761 N   0  0  0  0  0  0
  -26.3015  -12.9273   20.3286 N   0  0  0  0  0  0
  -25.9306  -11.6449   20.5716 N   0  0  0  0  0  0
  -22.0504  -12.8223   22.0404 N   0  0  0  0  0  0
  -25.4268  -15.1818   20.3926 N   0  0  0  0  0  0
  -31.7541  -14.6341   19.9864 O   0  0  0  0  0  0
  -21.6636   -6.8878   21.4236 O   0  0  0  0  0  0
  -22.3586  -14.5544   20.6711 O   0  0  0  0  0  0
  -24.6105  -31.8709   23.2129 C   0  0  0  0  0  0
  -25.9020  -32.4834   23.8408 C   0  0  1  0  0  0
  -27.2375  -27.4792   20.0876 C   0  0  0  0  0  0
  -25.5914  -33.8630   24.2350 N   0  0  0  0  0  0
  -23.3964  -30.4926   21.5523 C   0  0  2  0  0  0
  -24.8440  -28.9608   20.1172 C   0  0  0  0  0  0
  -22.7390  -29.4652   22.5009 C   0  0  0  0  0  0
  -18.0268  -28.1361   22.8482 C   0  0  0  0  0  0
  -24.1489  -36.7309   23.2638 C   0  0  0  0  0  0
  -25.9200  -30.8488   21.3597 C   0  0  0  0  0  0
  -26.0004  -29.4851   20.7097 C   0  0  0  0  0  0
  -27.2034  -28.7498   20.6938 C   0  0  0  0  0  0
  -26.0703  -26.9530   19.4983 C   0  0  0  0  0  0
  -24.8709  -27.6907   19.5114 C   0  0  0  0  0  0
  -23.6029  -29.8227   20.1666 C   0  0  0  0  0  0
  -25.4110  -36.3114   24.0341 C   0  0  1  0  0  0
  -20.5851  -28.3638   23.1337 C   0  0  2  0  0  0
  -20.6753  -26.9378   22.5430 C   0  0  0  0  0  0
  -19.5747  -26.6367   21.5204 C   0  0  0  0  0  0
  -18.1914  -26.7915   22.1590 C   0  0  0  0  0  0
  -19.1515  -28.8815   23.2904 C   0  0  0  0  0  0
  -18.9445  -30.1422   23.8913 C   0  0  0  0  0  0
  -17.6451  -30.6576   24.0554 C   0  0  0  0  0  0
  -25.9039  -34.9482   23.5134 C   0  0  0  0  0  0
  -16.5344  -29.9077   23.6312 C   0  0  0  0  0  0
  -16.7260  -28.6489   23.0339 C   0  0  0  0  0  0
  -26.4466  -31.6604   25.0724 C   0  0  0  0  0  0
  -25.3759  -31.3748   26.1510 C   0  0  0  0  0  0
  -27.0246  -30.3032   24.6074 C   0  0  0  0  0  0
  -27.6086  -32.4292   25.7451 C   0  0  0  0  0  0
  -27.5592  -37.1797   24.8456 C   0  0  0  0  0  0
  -21.4120  -29.3013   22.3747 N   0  0  0  0  0  0
  -26.4289  -37.3804   23.9427 N   0  0  0  0  0  0
  -24.6601  -31.0840   22.1010 N   0  0  0  0  0  0
  -23.4177  -28.8203   23.3046 O   0  0  0  0  0  0
  -28.4019  -26.7627   20.0509 O   0  0  0  0  0  0
  -26.5579  -34.8931   22.4681 O   0  0  0  0  0  0
  -23.5309  -32.1441   23.7548 O   0  0  0  0  0  0
  -29.5555  -20.0865   16.5364 C   0  0  0  0  0  0
  -29.9385  -17.8014   17.2914 C   0  0  0  0  0  0
  -30.1432  -18.8213   16.3421 C   0  0  0  0  0  0
  -28.7611  -20.3372   17.6747 C   0  0  0  0  0  0
  -29.1430  -18.0396   18.4319 C   0  0  0  0  0  0
  -28.5436  -19.3069   18.6203 C   0  0  0  0  0  0
  -31.0007  -18.5545   15.1217 C   0  0  0  0  0  0
  -29.1401  -17.0867   23.1047 C   0  0  0  0  0  0
  -31.9569  -16.0365   22.2423 C   0  0  0  0  0  0
  -30.4754  -14.3623   23.2836 C   0  0  0  0  0  0
  -28.1871  -21.7281   17.8910 C   0  0  0  0  0  0
  -28.9425  -16.9306   19.4512 C   0  0  0  0  0  0
  -29.0451  -22.5355   18.8769 C   0  0  0  0  0  0
  -28.3778  -23.8347   19.3436 C   0  0  0  0  0  0
  -29.1856  -24.5220   20.4555 C   0  0  0  0  0  0
  -28.4747  -25.7456   21.0414 C   0  0  0  0  0  0
  -29.4533  -16.2709   21.8298 C   0  0  2  0  0  0
  -30.6326  -15.2419   22.0095 C   0  0  0  0  0  0
  -29.6774  -17.2164   20.7030 N   0  3  0  0  0  0
  -27.5843  -19.5960   20.0352 Cl  0  0  0  0  0  0
  -31.4522  -12.3719   19.1044 H   0  0  0  0  0  0
  -30.2859  -11.2749   19.7713 H   0  0  0  0  0  0
  -29.7301  -11.8473   17.3896 H   0  0  0  0  0  0
  -29.6515  -13.5436   17.8028 H   0  0  0  0  0  0
  -27.8293  -11.3133   18.7885 H   0  0  0  0  0  0
  -27.3561  -12.6546   17.7796 H   0  0  0  0  0  0
  -27.7123  -14.2436   19.5862 H   0  0  0  0  0  0
  -28.6556  -11.9248   21.3403 H   0  0  0  0  0  0
  -28.4095  -13.5597   21.8455 H   0  0  0  0  0  0
  -25.2757   -9.5678   22.4755 H   0  0  0  0  0  0
  -24.0001   -7.4629   22.7476 H   0  0  0  0  0  0
  -21.0838   -8.8768   19.8955 H   0  0  0  0  0  0
  -22.3688  -10.9670   19.6171 H   0  0  0  0  0  0
  -21.2005   -7.6144   23.9713 H   0  0  0  0  0  0
  -21.1472   -6.0518   25.9078 H   0  0  0  0  0  0
  -22.0602   -2.7605   23.2846 H   0  0  0  0  0  0
  -22.4095  -11.9861   22.4774 H   0  0  0  0  0  0
  -21.1127  -13.1263   22.2608 H   0  0  0  0  0  0
  -24.6110  -15.7835   20.4280 H   0  0  0  0  0  0
  -26.1499  -15.5500   19.7933 H   0  0  0  0  0  0
  -26.7094  -32.5566   23.1185 H   0  0  0  0  0  0
  -25.0141  -33.9799   25.0545 H   0  0  0  0  0  0
  -22.6823  -31.3066   21.4145 H   0  0  0  0  0  0
  -23.3785  -35.9599   23.3227 H   0  0  0  0  0  0
  -24.3607  -36.9002   22.2067 H   0  0  0  0  0  0
  -23.7183  -37.6468   23.6701 H   0  0  0  0  0  0
  -26.0259  -31.6160   20.5912 H   0  0  0  0  0  0
  -26.8105  -30.9036   21.9739 H   0  0  0  0  0  0
  -28.1013  -29.1522   21.1418 H   0  0  0  0  0  0
  -26.0941  -25.9800   19.0282 H   0  0  0  0  0  0
  -23.9817  -27.2807   19.0524 H   0  0  0  0  0  0
  -23.7079  -30.5968   19.4055 H   0  0  0  0  0  0
  -22.7281  -29.2388   19.8729 H   0  0  0  0  0  0
  -25.1271  -36.1977   25.0829 H   0  0  0  0  0  0
  -20.9930  -28.3199   24.1462 H   0  0  0  0  0  0
  -20.5637  -26.2245   23.3609 H   0  0  0  0  0  0
  -21.6636  -26.7413   22.1256 H   0  0  0  0  0  0
  -19.6917  -25.6278   21.1235 H   0  0  0  0  0  0
  -19.6711  -27.3166   20.6727 H   0  0  0  0  0  0
  -17.4201  -26.6689   21.3968 H   0  0  0  0  0  0
  -18.0284  -26.0041   22.8962 H   0  0  0  0  0  0
  -19.7923  -30.7216   24.2314 H   0  0  0  0  0  0
  -17.5013  -31.6257   24.5152 H   0  0  0  0  0  0
  -15.5347  -30.2987   23.7629 H   0  0  0  0  0  0
  -15.8657  -28.0819   22.7048 H   0  0  0  0  0  0
  -24.5876  -30.7142   25.7884 H   0  0  0  0  0  0
  -24.9019  -32.2930   26.4988 H   0  0  0  0  0  0
  -25.8129  -30.8899   27.0249 H   0  0  0  0  0  0
  -26.2736  -29.6809   24.1192 H   0  0  0  0  0  0
  -27.4069  -29.7263   25.4507 H   0  0  0  0  0  0
  -27.8567  -30.4325   23.9149 H   0  0  0  0  0  0
  -27.2770  -33.3636   26.1991 H   0  0  0  0  0  0
  -28.3906  -32.6769   25.0261 H   0  0  0  0  0  0
  -28.0725  -31.8418   26.5386 H   0  0  0  0  0  0
  -28.2595  -38.0111   24.7541 H   0  0  0  0  0  0
  -28.1101  -36.2645   24.6219 H   0  0  0  0  0  0
  -27.2328  -37.1382   25.8863 H   0  0  0  0  0  0
  -20.9271  -29.8762   21.6995 H   0  0  0  0  0  0
  -26.0176  -38.2875   24.1469 H   0  0  0  0  0  0
  -29.7241  -20.8747   15.8153 H   0  0  0  0  0  0
  -30.3960  -16.8323   17.1400 H   0  0  0  0  0  0
  -31.3428  -19.4840   14.6655 H   0  0  0  0  0  0
  -30.4373  -17.9948   14.3744 H   0  0  0  0  0  0
  -31.8819  -17.9713   15.3912 H   0  0  0  0  0  0
  -28.9126  -16.4451   23.9556 H   0  0  0  0  0  0
  -28.2639  -17.7195   22.9579 H   0  0  0  0  0  0
  -29.9621  -17.7398   23.3975 H   0  0  0  0  0  0
  -31.9209  -16.6594   23.1357 H   0  0  0  0  0  0
  -32.2154  -16.6950   21.4122 H   0  0  0  0  0  0
  -32.8014  -15.3582   22.3777 H   0  0  0  0  0  0
  -30.8888  -14.8535   24.1649 H   0  0  0  0  0  0
  -30.9985  -13.4091   23.1926 H   0  0  0  0  0  0
  -29.4414  -14.1480   23.5435 H   0  0  0  0  0  0
  -27.1620  -21.6402   18.2531 H   0  0  0  0  0  0
  -28.1175  -22.2547   16.9382 H   0  0  0  0  0  0
  -29.2729  -15.9835   19.0261 H   0  0  0  0  0  0
  -27.8756  -16.8254   19.6521 H   0  0  0  0  0  0
  -30.0164  -22.7491   18.4298 H   0  0  0  0  0  0
  -29.2463  -21.9235   19.7562 H   0  0  0  0  0  0
  -27.3750  -23.6157   19.7142 H   0  0  0  0  0  0
  -28.2541  -24.5130   18.4983 H   0  0  0  0  0  0
  -30.1684  -24.8103   20.0810 H   0  0  0  0  0  0
  -29.3633  -23.8100   21.2628 H   0  0  0  0  0  0
  -29.0372  -26.1319   21.8921 H   0  0  0  0  0  0
  -27.4937  -25.4549   21.4231 H   0  0  0  0  0  0
  -28.5356  -15.7240   21.6191 H   0  0  0  0  0  0
  -29.3554  -18.1248   21.0030 H   0  0  0  0  0  0
  -30.6643  -17.2963   20.5103 H   0  0  0  0  0  0
  1 25  1  0  0  0
  1 30  2  0  0  0
  1 88  1  0  0  0
  2  3  1  0  0  0
  2 25  1  0  0  0
  2 91  1  0  0  0
  2 92  1  0  0  0
  3  4  1  0  0  0
  3 93  1  0  0  0
  3 94  1  0  0  0
  4  5  1  0  0  0
  4 95  1  0  0  0
  4 96  1  0  0  0
  5  6  1  0  0  0
  5 26  1  0  0  0
  5 97  1  0  0  0
  6 25  1  0  0  0
  6 98  1  0  0  0
  6 99  1  0  0  0
  7  8  2  0  0  0
  7 26  1  0  0  0
  7 29  1  0  0  0
  8  9  1  0  0  0
  8 22  1  0  0  0
  9 10  1  0  0  0
  9 27  2  0  0  0
 10 11  2  0  0  0
 10 15  1  0  0  0
 11 12  1  0  0  0
 11100  1  0  0  0
 12 13  2  0  0  0
 12101  1  0  0  0
 13 14  1  0  0  0
 13 31  1  0  0  0
 14 15  2  0  0  0
 14102  1  0  0  0
 15103  1  0  0  0
 16 17  2  0  0  0
 16 21  1  0  0  0
 16 31  1  0  0  0
 17 18  1  0  0  0
 17104  1  0  0  0
 18 19  2  0  0  0
 18105  1  0  0  0
 19 20  1  0  0  0
 19 24  1  0  0  0
 20 21  2  0  0  0
 20106  1  0  0  0
 21 23  1  0  0  0
 22 28  1  0  0  0
 22 32  2  0  0  0
 26 27  1  0  0  0
 28107  1  0  0  0
 28108  1  0  0  0
 29109  1  0  0  0
 29110  1  0  0  0
 33 34  1  0  0  0
 33 66  1  0  0  0
 33 70  2  0  0  0
 34 36  1  0  0  0
 34 59  1  0  0  0
 34111  1  0  0  0
 35 44  2  0  0  0
 35 45  1  0  0  0
 35 68  1  0  0  0
 36 56  1  0  0  0
 36112  1  0  0  0
 37 39  1  0  0  0
 37 47  1  0  0  0
 37 66  1  0  0  0
 37113  1  0  0  0
 38 43  2  0  0  0
 38 46  1  0  0  0
 38 47  1  0  0  0
 39 64  1  0  0  0
 39 67  2  0  0  0
 40 52  1  0  0  0
 40 53  2  0  0  0
 40 58  1  0  0  0
 41114  1  0  0  0
 41115  1  0  0  0
 41116  1  0  0  0
 41 48  1  0  0  0
 42 43  1  0  0  0
 42 66  1  0  0  0
 42117  1  0  0  0
 42118  1  0  0  0
 43 44  1  0  0  0
 44119  1  0  0  0
 45 46  2  0  0  0
 45120  1  0  0  0
 46121  1  0  0  0
 47122  1  0  0  0
 47123  1  0  0  0
 48 56  1  0  0  0
 48 65  1  0  0  0
 48124  1  0  0  0
 49 50  1  0  0  0
 49 53  1  0  0  0
 49 64  1  0  0  0
 49125  1  0  0  0
 50 51  1  0  0  0
 50126  1  0  0  0
 50127  1  0  0  0
 51 52  1  0  0  0
 51128  1  0  0  0
 51129  1  0  0  0
 52130  1  0  0  0
 52131  1  0  0  0
 53 54  1  0  0  0
 54 55  2  0  0  0
 54132  1  0  0  0
 55 57  1  0  0  0
 55133  1  0  0  0
 56 69  2  0  0  0
 57 58  2  0  0  0
 57134  1  0  0  0
 58135  1  0  0  0
 59 60  1  0  0  0
 59 61  1  0  0  0
 59 62  1  0  0  0
 60136  1  0  0  0
 60137  1  0  0  0
 60138  1  0  0  0
 61139  1  0  0  0
 61140  1  0  0  0
 61141  1  0  0  0
 62142  1  0  0  0
 62143  1  0  0  0
 62144  1  0  0  0
 63 65  1  0  0  0
 63145  1  0  0  0
 63146  1  0  0  0
 63147  1  0  0  0
 64148  1  0  0  0
 65149  1  0  0  0
 68 86  1  0  0  0
 71 73  2  0  0  0
 71 74  1  0  0  0
 71150  1  0  0  0
 72 73  1  0  0  0
 72 75  2  0  0  0
 72151  1  0  0  0
 73 77  1  0  0  0
 74 76  2  0  0  0
 74 81  1  0  0  0
 75 76  1  0  0  0
 75 82  1  0  0  0
 76 90  1  0  0  0
 77152  1  0  0  0
 77153  1  0  0  0
 77154  1  0  0  0
 78155  1  0  0  0
 78156  1  0  0  0
 78157  1  0  0  0
 78 87  1  0  0  0
 79158  1  0  0  0
 79159  1  0  0  0
 79160  1  0  0  0
 79 88  1  0  0  0
 80 88  1  0  0  0
 80161  1  0  0  0
 80162  1  0  0  0
 80163  1  0  0  0
 81 83  1  0  0  0
 81164  1  0  0  0
 81165  1  0  0  0
 82 89  1  0  0  0
 82166  1  0  0  0
 82167  1  0  0  0
 83 84  1  0  0  0
 83168  1  0  0  0
 83169  1  0  0  0
 84 85  1  0  0  0
 84170  1  0  0  0
 84171  1  0  0  0
 85 86  1  0  0  0
 85172  1  0  0  0
 85173  1  0  0  0
 86174  1  0  0  0
 86175  1  0  0  0
 87 88  1  0  0  0
 87 89  1  0  0  0
 87176  1  0  0  0
 89177  1  0  0  0
 89178  1  0  0  0
M  CHG  1  89   1
M  ISO  4   1 100  68 101  86 101  88 100
M  END
> <chiral flag>
0

> <version>
0

> <s_m_source_file>
/data/baiqing/PycharmProjects/Reinvent-master-3.2/result/LINK_invent/BTK/process_docking_weight1_custom_sum_contain_oxygen_bond_distance_aromatic_linkinvent_7_9_3/rearranged_h_0020.sdf

> <i_m_source_file_index>
86

> <r_mmod_Potential_Energy-OPLS-2005>
-140.708251953125

> <r_mmod_Stretch_Energy-OPLS-2005>
39.5765495300293

> <r_mmod_Bend_Energy-OPLS-2005>
97.4816589355469

> <r_mmod_Torsional_Energy-OPLS-2005>
228.449615478516

> <r_mmod_Improper_Torsional_Energy-OPLS-2005>
4.10144376754761

> <r_mmod_Van_der_Waal_Energy-OPLS-2005>
149.02766418457

> <r_mmod_Electrostatic_Energy-OPLS-2005>
-277.417846679688

> <r_mmod_Solvation_Energy-OPLS-2005>
-390.317993164062

> <b_mmod_Minimization_Converged-OPLS-2005>
0

> <r_mmod_RMS_Derivative-OPLS-2005>
1.20325660705566

$$$$
86
                    3D
 Structure written by MMmdl.
164171  0  0  1  0            999 V2000
  -30.7877  -14.5913   20.4782 C   0  0  0  0  0  0
  -30.3908  -12.3971   19.4202 C   0  0  0  0  0  0
  -29.4733  -12.4965   18.1910 C   0  0  0  0  0  0
  -28.0089  -12.3251   18.6318 C   0  0  0  0  0  0
  -27.6348  -13.2286   19.8385 C   0  0  2  0  0  0
  -28.6991  -13.1663   20.9577 C   0  0  0  0  0  0
  -25.2502  -13.8217   20.5746 C   0  0  0  0  0  0
  -24.1784  -13.0453   20.9236 C   0  0  0  0  0  0
  -24.6380  -11.6912   20.8760 C   0  0  0  0  0  0
  -23.9045  -10.4278   21.0391 C   0  0  0  0  0  0
  -24.3596   -9.4177   21.9168 C   0  0  0  0  0  0
  -23.6265   -8.2222   22.0739 C   0  0  0  0  0  0
  -22.4247   -8.0264   21.3548 C   0  0  0  0  0  0
  -21.9884   -9.0220   20.4639 C   0  0  0  0  0  0
  -22.7217  -10.2101   20.3037 C   0  0  0  0  0  0
  -21.6827   -6.0743   22.5279 C   0  0  0  0  0  0
  -21.4006   -6.5644   23.8215 C   0  0  0  0  0  0
  -21.3655   -5.6794   24.9173 C   0  0  0  0  0  0
  -21.6042   -4.3055   24.7229 C   0  0  0  0  0  0
  -21.8817   -3.8152   23.4343 C   0  0  0  0  0  0
  -21.9177   -4.6972   22.3404 C   0  0  0  0  0  0
  -22.7814  -13.5205   21.1880 C   0  0  0  0  0  0
  -22.1643   -4.2173   21.0975 F   0  0  0  0  0  0
  -21.5634   -3.4531   25.7735 F   0  0  0  0  0  0
  -29.9852  -13.4899   20.3300 N   0  0  0  0  0  0
  -26.2919  -12.9421   20.3314 N   0  0  0  0  0  0
  -25.9319  -11.6561   20.5828 N   0  0  0  0  0  0
  -22.0425  -12.8215   22.0450 N   0  0  0  0  0  0
  -25.4167  -15.1967   20.4188 N   0  0  0  0  0  0
  -32.0000  -14.4273   20.3712 O   0  0  0  0  0  0
  -21.6611   -6.8872   21.4236 O   0  0  0  0  0  0
  -22.3469  -14.5487   20.6671 O   0  0  0  0  0  0
  -24.6158  -31.8688   23.2059 C   0  0  0  0  0  0
  -25.9050  -32.4820   23.8374 C   0  0  1  0  0  0
  -27.2182  -27.3962   20.1353 C   0  0  0  0  0  0
  -25.5940  -33.8621   24.2321 N   0  0  0  0  0  0
  -23.4054  -30.4885   21.5487 C   0  0  2  0  0  0
  -24.8526  -28.9574   20.1091 C   0  0  0  0  0  0
  -22.7431  -29.4624   22.4974 C   0  0  0  0  0  0
  -18.0294  -28.1371   22.8513 C   0  0  0  0  0  0
  -24.1515  -36.7276   23.2644 C   0  0  0  0  0  0
  -25.9388  -30.8205   21.3709 C   0  0  0  0  0  0
  -26.0128  -29.4557   20.7158 C   0  0  0  0  0  0
  -27.2010  -28.6842   20.7216 C   0  0  0  0  0  0
  -26.0439  -26.9230   19.5056 C   0  0  0  0  0  0
  -24.8668  -27.6950   19.4939 C   0  0  0  0  0  0
  -23.6160  -29.8291   20.1601 C   0  0  0  0  0  0
  -25.4151  -36.3106   24.0322 C   0  0  1  0  0  0
  -20.5896  -28.3639   23.1362 C   0  0  2  0  0  0
  -20.6814  -26.9395   22.5414 C   0  0  0  0  0  0
  -19.5755  -26.6382   21.5223 C   0  0  0  0  0  0
  -18.1923  -26.7922   22.1615 C   0  0  0  0  0  0
  -19.1548  -28.8804   23.2950 C   0  0  0  0  0  0
  -18.9493  -30.1422   23.8969 C   0  0  0  0  0  0
  -17.6498  -30.6579   24.0601 C   0  0  0  0  0  0
  -25.9069  -34.9475   23.5116 C   0  0  0  0  0  0
  -16.5372  -29.9099   23.6367 C   0  0  0  0  0  0
  -16.7284  -28.6522   23.0354 C   0  0  0  0  0  0
  -26.4498  -31.6578   25.0678 C   0  0  0  0  0  0
  -25.3760  -31.3628   26.1407 C   0  0  0  0  0  0
  -27.0354  -30.3037   24.6036 C   0  0  0  0  0  0
  -27.6100  -32.4285   25.7417 C   0  0  0  0  0  0
  -27.5600  -37.1795   24.8469 C   0  0  0  0  0  0
  -21.4140  -29.3040   22.3769 N   0  0  0  0  0  0
  -26.4330  -37.3793   23.9385 N   0  0  0  0  0  0
  -24.6706  -31.0748   22.1007 N   0  0  0  0  0  0
  -23.4199  -28.8156   23.3017 O   0  0  0  0  0  0
  -28.3516  -26.6057   20.2088 O   0  0  0  0  0  0
  -26.5609  -34.8920   22.4670 O   0  0  0  0  0  0
  -23.5341  -32.1482   23.7413 O   0  0  0  0  0  0
  -32.3887  -17.3669   20.5392 C   0  0  0  0  0  0
  -31.8098  -16.4664   18.2142 C   0  0  0  0  0  0
  -29.2524  -23.1187   21.7906 C   0  0  0  0  0  0
  -29.0304  -17.8588   21.4153 C   0  0  0  0  0  0
  -29.4050  -24.5435   21.1491 C   0  0  0  0  0  0
  -28.8788  -21.9096   20.8720 C   0  0  0  0  0  0
  -28.8799  -19.2555   20.6933 C   0  0  0  0  0  0
  -29.0135  -16.5286   20.5504 C   0  0  0  0  0  0
  -28.1211  -25.2329   20.6182 C   0  0  0  0  0  0
  -31.2557  -16.8785   19.5974 C   0  0  0  0  0  0
  -28.8008  -20.5245   21.6096 C   0  0  2  0  0  0
  -30.3292  -15.8834   20.2335 N   0  0  0  0  0  0
  -27.6625  -20.4921   22.3050 F   0  0  0  0  0  0
  -31.4339  -12.4542   19.1041 H   0  0  0  0  0  0
  -30.2801  -11.4280   19.9075 H   0  0  0  0  0  0
  -29.7386  -11.7380   17.4518 H   0  0  0  0  0  0
  -29.5957  -13.4649   17.7012 H   0  0  0  0  0  0
  -27.8754  -11.2768   18.8958 H   0  0  0  0  0  0
  -27.3379  -12.5161   17.7950 H   0  0  0  0  0  0
  -27.6218  -14.2442   19.4413 H   0  0  0  0  0  0
  -28.7315  -12.1668   21.3927 H   0  0  0  0  0  0
  -28.4692  -13.8368   21.7852 H   0  0  0  0  0  0
  -25.2732   -9.5656   22.4767 H   0  0  0  0  0  0
  -23.9961   -7.4590   22.7446 H   0  0  0  0  0  0
  -21.0825   -8.8673   19.8962 H   0  0  0  0  0  0
  -22.3611  -10.9607   19.6143 H   0  0  0  0  0  0
  -21.1993   -7.6151   23.9733 H   0  0  0  0  0  0
  -21.1479   -6.0527   25.9078 H   0  0  0  0  0  0
  -22.0607   -2.7620   23.2815 H   0  0  0  0  0  0
  -22.4012  -11.9887   22.4905 H   0  0  0  0  0  0
  -21.1050  -13.1257   22.2619 H   0  0  0  0  0  0
  -24.6550  -15.8516   20.5593 H   0  0  0  0  0  0
  -26.2736  -15.6479   20.1264 H   0  0  0  0  0  0
  -26.7080  -32.5500   23.1090 H   0  0  0  0  0  0
  -25.0165  -33.9827   25.0512 H   0  0  0  0  0  0
  -22.6953  -31.3053   21.4085 H   0  0  0  0  0  0
  -23.3814  -35.9570   23.3325 H   0  0  0  0  0  0
  -24.3630  -36.8903   22.2062 H   0  0  0  0  0  0
  -23.7221  -37.6463   23.6648 H   0  0  0  0  0  0
  -26.0723  -31.5865   20.6073 H   0  0  0  0  0  0
  -26.8203  -30.8632   21.9995 H   0  0  0  0  0  0
  -28.0873  -29.0482   21.2215 H   0  0  0  0  0  0
  -26.0261  -25.9529   19.0291 H   0  0  0  0  0  0
  -23.9775  -27.3120   19.0156 H   0  0  0  0  0  0
  -23.7315  -30.6121   19.4092 H   0  0  0  0  0  0
  -22.7378  -29.2561   19.8568 H   0  0  0  0  0  0
  -25.1343  -36.1983   25.0813 H   0  0  0  0  0  0
  -21.0006  -28.3132   24.1484 H   0  0  0  0  0  0
  -20.5763  -26.2223   23.3575 H   0  0  0  0  0  0
  -21.6667  -26.7471   22.1174 H   0  0  0  0  0  0
  -19.6944  -25.6314   21.1214 H   0  0  0  0  0  0
  -19.6708  -27.3239   20.6790 H   0  0  0  0  0  0
  -17.4203  -26.6719   21.3979 H   0  0  0  0  0  0
  -18.0268  -26.0059   22.8994 H   0  0  0  0  0  0
  -19.7975  -30.7222   24.2347 H   0  0  0  0  0  0
  -17.5066  -31.6257   24.5220 H   0  0  0  0  0  0
  -15.5382  -30.3009   23.7706 H   0  0  0  0  0  0
  -15.8679  -28.0874   22.7035 H   0  0  0  0  0  0
  -24.5932  -30.7003   25.7673 H   0  0  0  0  0  0
  -24.8929  -32.2757   26.4879 H   0  0  0  0  0  0
  -25.8118  -30.8718   27.0118 H   0  0  0  0  0  0
  -26.2877  -29.6739   24.1189 H   0  0  0  0  0  0
  -27.4301  -29.7311   25.4436 H   0  0  0  0  0  0
  -27.8636  -30.4417   23.9091 H   0  0  0  0  0  0
  -27.2781  -33.3605   26.1998 H   0  0  0  0  0  0
  -28.3900  -32.6822   25.0221 H   0  0  0  0  0  0
  -28.0775  -31.8382   26.5315 H   0  0  0  0  0  0
  -28.2616  -38.0102   24.7579 H   0  0  0  0  0  0
  -28.1122  -36.2637   24.6262 H   0  0  0  0  0  0
  -27.2302  -37.1401   25.8874 H   0  0  0  0  0  0
  -20.9274  -29.8776   21.7017 H   0  0  0  0  0  0
  -26.0228  -38.2873   24.1401 H   0  0  0  0  0  0
  -32.8588  -18.2716   20.1557 H   0  0  0  0  0  0
  -33.1848  -16.6295   20.6477 H   0  0  0  0  0  0
  -32.0346  -17.5970   21.5439 H   0  0  0  0  0  0
  -32.2695  -17.3243   17.7213 H   0  0  0  0  0  0
  -31.0163  -16.1087   17.5566 H   0  0  0  0  0  0
  -32.5770  -15.6925   18.2726 H   0  0  0  0  0  0
  -28.5459  -23.1773   22.6179 H   0  0  0  0  0  0
  -30.2138  -22.8805   22.2523 H   0  0  0  0  0  0
  -28.1880  -17.7887   22.1042 H   0  0  0  0  0  0
  -29.9020  -17.8685   22.0697 H   0  0  0  0  0  0
  -30.1619  -24.5229   20.3659 H   0  0  0  0  0  0
  -29.8130  -25.2020   21.9191 H   0  0  0  0  0  0
  -29.6166  -21.8412   20.0700 H   0  0  0  0  0  0
  -27.9245  -22.1168   20.3818 H   0  0  0  0  0  0
  -28.0005  -19.2351   20.0501 H   0  0  0  0  0  0
  -29.7218  -19.4279   20.0308 H   0  0  0  0  0  0
  -28.4874  -16.7133   19.6122 H   0  0  0  0  0  0
  -28.3854  -15.8245   21.0835 H   0  0  0  0  0  0
  -27.3676  -25.2111   21.4086 H   0  0  0  0  0  0
  -27.7298  -24.6466   19.7882 H   0  0  0  0  0  0
  -30.6728  -17.7532   19.3388 H   0  0  0  0  0  0
  -29.5964  -20.4701   22.3548 H   0  0  0  0  0  0
  1 25  1  0  0  0
  1 30  2  0  0  0
  1 82  1  0  0  0
  2  3  1  0  0  0
  2 25  1  0  0  0
  2 84  1  0  0  0
  2 85  1  0  0  0
  3  4  1  0  0  0
  3 86  1  0  0  0
  3 87  1  0  0  0
  4  5  1  0  0  0
  4 88  1  0  0  0
  4 89  1  0  0  0
  5  6  1  0  0  0
  5 26  1  0  0  0
  5 90  1  0  0  0
  6 25  1  0  0  0
  6 91  1  0  0  0
  6 92  1  0  0  0
  7  8  2  0  0  0
  7 26  1  0  0  0
  7 29  1  0  0  0
  8  9  1  0  0  0
  8 22  1  0  0  0
  9 10  1  0  0  0
  9 27  2  0  0  0
 10 11  2  0  0  0
 10 15  1  0  0  0
 11 12  1  0  0  0
 11 93  1  0  0  0
 12 13  2  0  0  0
 12 94  1  0  0  0
 13 14  1  0  0  0
 13 31  1  0  0  0
 14 15  2  0  0  0
 14 95  1  0  0  0
 15 96  1  0  0  0
 16 17  2  0  0  0
 16 21  1  0  0  0
 16 31  1  0  0  0
 17 18  1  0  0  0
 17 97  1  0  0  0
 18 19  2  0  0  0
 18 98  1  0  0  0
 19 20  1  0  0  0
 19 24  1  0  0  0
 20 21  2  0  0  0
 20 99  1  0  0  0
 21 23  1  0  0  0
 22 28  1  0  0  0
 22 32  2  0  0  0
 26 27  1  0  0  0
 28100  1  0  0  0
 28101  1  0  0  0
 29102  1  0  0  0
 29103  1  0  0  0
 33 34  1  0  0  0
 33 66  1  0  0  0
 33 70  2  0  0  0
 34 36  1  0  0  0
 34 59  1  0  0  0
 34104  1  0  0  0
 35 44  2  0  0  0
 35 45  1  0  0  0
 35 68  1  0  0  0
 36 56  1  0  0  0
 36105  1  0  0  0
 37 39  1  0  0  0
 37 47  1  0  0  0
 37 66  1  0  0  0
 37106  1  0  0  0
 38 43  2  0  0  0
 38 46  1  0  0  0
 38 47  1  0  0  0
 39 64  1  0  0  0
 39 67  2  0  0  0
 40 52  1  0  0  0
 40 53  2  0  0  0
 40 58  1  0  0  0
 41107  1  0  0  0
 41108  1  0  0  0
 41109  1  0  0  0
 41 48  1  0  0  0
 42 43  1  0  0  0
 42 66  1  0  0  0
 42110  1  0  0  0
 42111  1  0  0  0
 43 44  1  0  0  0
 44112  1  0  0  0
 45 46  2  0  0  0
 45113  1  0  0  0
 46114  1  0  0  0
 47115  1  0  0  0
 47116  1  0  0  0
 48 56  1  0  0  0
 48 65  1  0  0  0
 48117  1  0  0  0
 49 50  1  0  0  0
 49 53  1  0  0  0
 49 64  1  0  0  0
 49118  1  0  0  0
 50 51  1  0  0  0
 50119  1  0  0  0
 50120  1  0  0  0
 51 52  1  0  0  0
 51121  1  0  0  0
 51122  1  0  0  0
 52123  1  0  0  0
 52124  1  0  0  0
 53 54  1  0  0  0
 54 55  2  0  0  0
 54125  1  0  0  0
 55 57  1  0  0  0
 55126  1  0  0  0
 56 69  2  0  0  0
 57 58  2  0  0  0
 57127  1  0  0  0
 58128  1  0  0  0
 59 60  1  0  0  0
 59 61  1  0  0  0
 59 62  1  0  0  0
 60129  1  0  0  0
 60130  1  0  0  0
 60131  1  0  0  0
 61132  1  0  0  0
 61133  1  0  0  0
 61134  1  0  0  0
 62135  1  0  0  0
 62136  1  0  0  0
 62137  1  0  0  0
 63 65  1  0  0  0
 63138  1  0  0  0
 63139  1  0  0  0
 63140  1  0  0  0
 64141  1  0  0  0
 65142  1  0  0  0
 68 79  1  0  0  0
 71143  1  0  0  0
 71144  1  0  0  0
 71145  1  0  0  0
 71 80  1  0  0  0
 72 80  1  0  0  0
 72146  1  0  0  0
 72147  1  0  0  0
 72148  1  0  0  0
 73 75  1  0  0  0
 73 76  1  0  0  0
 73149  1  0  0  0
 73150  1  0  0  0
 74 77  1  0  0  0
 74 78  1  0  0  0
 74151  1  0  0  0
 74152  1  0  0  0
 75 79  1  0  0  0
 75153  1  0  0  0
 75154  1  0  0  0
 76 81  1  0  0  0
 76155  1  0  0  0
 76156  1  0  0  0
 77 81  1  0  0  0
 77157  1  0  0  0
 77158  1  0  0  0
 78 82  1  0  0  0
 78159  1  0  0  0
 78160  1  0  0  0
 79161  1  0  0  0
 79162  1  0  0  0
 80 82  1  0  0  0
 80163  1  0  0  0
 81 83  1  0  0  0
 81164  1  0  0  0
M  ISO  4   1 100  68 101  79 101  82 100
M  END
> <chiral flag>
0

> <version>
0

> <s_m_source_file>
/data/baiqing/PycharmProjects/Reinvent-master-3.2/result/LINK_invent/BTK/process_docking_weight1_custom_sum_contain_oxygen_bond_distance_aromatic_linkinvent_7_9_3/rearranged_h_0020.sdf

> <i_m_source_file_index>
87

> <r_mmod_Potential_Energy-OPLS-2005>
328.909881591797

> <r_mmod_Stretch_Energy-OPLS-2005>
63.3782081604004

> <r_mmod_Bend_Energy-OPLS-2005>
149.997116088867

> <r_mmod_Torsional_Energy-OPLS-2005>
309.305755615234

> <r_mmod_Improper_Torsional_Energy-OPLS-2005>
16.4233570098877

> <r_mmod_Van_der_Waal_Energy-OPLS-2005>
138.536407470703

> <r_mmod_Electrostatic_Energy-OPLS-2005>
-233.407073974609

> <r_mmod_Solvation_Energy-OPLS-2005>
-177.943557739258

> <b_mmod_Minimization_Converged-OPLS-2005>
0

> <r_mmod_RMS_Derivative-OPLS-2005>
4.64290237426758

$$$$
87
                    3D
 Structure written by MMmdl.
178187  0  0  1  0            999 V2000
  -30.5397  -14.9636   20.4504 C   0  0  0  0  0  0
  -30.4436  -12.6049   19.4959 C   0  0  0  0  0  0
  -29.5228  -12.5343   18.2554 C   0  0  0  0  0  0
  -28.0575  -12.3128   18.6767 C   0  0  0  0  0  0
  -27.6294  -13.2473   19.8370 C   0  0  2  0  0  0
  -28.6715  -13.2790   20.9733 C   0  0  0  0  0  0
  -25.2469  -13.8209   20.5713 C   0  0  0  0  0  0
  -24.1783  -13.0433   20.9228 C   0  0  0  0  0  0
  -24.6394  -11.6916   20.8745 C   0  0  0  0  0  0
  -23.9076  -10.4290   21.0408 C   0  0  0  0  0  0
  -24.3628   -9.4205   21.9187 C   0  0  0  0  0  0
  -23.6300   -8.2243   22.0752 C   0  0  0  0  0  0
  -22.4276   -8.0283   21.3548 C   0  0  0  0  0  0
  -21.9919   -9.0254   20.4645 C   0  0  0  0  0  0
  -22.7249  -10.2133   20.3055 C   0  0  0  0  0  0
  -21.6858   -6.0740   22.5275 C   0  0  0  0  0  0
  -21.4016   -6.5645   23.8209 C   0  0  0  0  0  0
  -21.3654   -5.6798   24.9174 C   0  0  0  0  0  0
  -21.6043   -4.3059   24.7223 C   0  0  0  0  0  0
  -21.8820   -3.8151   23.4345 C   0  0  0  0  0  0
  -21.9192   -4.6968   22.3401 C   0  0  0  0  0  0
  -22.7800  -13.5207   21.1886 C   0  0  0  0  0  0
  -22.1663   -4.2156   21.0977 F   0  0  0  0  0  0
  -21.5625   -3.4537   25.7735 F   0  0  0  0  0  0
  -29.9453  -13.7023   20.3749 N   0  0  0  0  0  0
  -26.2886  -12.9440   20.3240 N   0  0  0  0  0  0
  -25.9329  -11.6569   20.5730 N   0  0  0  0  0  0
  -22.0455  -12.8194   22.0441 N   0  0  0  0  0  0
  -25.4125  -15.1941   20.4140 N   0  0  0  0  0  0
  -31.7354  -15.0307   20.1462 O   0  0  0  0  0  0
  -21.6640   -6.8880   21.4239 O   0  0  0  0  0  0
  -22.3481  -14.5513   20.6727 O   0  0  0  0  0  0
  -24.6448  -31.8406   23.1855 C   0  0  0  0  0  0
  -25.9206  -32.4672   23.8257 C   0  0  1  0  0  0
  -27.2171  -27.1160   20.1475 C   0  0  0  0  0  0
  -25.5942  -33.8478   24.2162 N   0  0  0  0  0  0
  -23.4494  -30.4598   21.5317 C   0  0  2  0  0  0
  -24.8988  -28.8822   20.1094 C   0  0  0  0  0  0
  -22.7575  -29.4523   22.4843 C   0  0  0  0  0  0
  -18.0308  -28.1375   22.8474 C   0  0  0  0  0  0
  -24.1490  -36.7251   23.2645 C   0  0  0  0  0  0
  -26.0067  -30.7067   21.3880 C   0  0  0  0  0  0
  -26.0777  -29.3169   20.7272 C   0  0  0  0  0  0
  -27.2379  -28.4513   20.7274 C   0  0  0  0  0  0
  -26.0115  -26.7850   19.4926 C   0  0  0  0  0  0
  -24.8786  -27.6293   19.4773 C   0  0  0  0  0  0
  -23.6764  -29.7874   20.1520 C   0  0  0  0  0  0
  -25.4121  -36.3015   24.0304 C   0  0  1  0  0  0
  -20.5919  -28.3699   23.1219 C   0  0  2  0  0  0
  -20.6784  -26.9393   22.5401 C   0  0  0  0  0  0
  -19.5761  -26.6355   21.5208 C   0  0  0  0  0  0
  -18.1941  -26.7908   22.1615 C   0  0  0  0  0  0
  -19.1569  -28.8859   23.2839 C   0  0  0  0  0  0
  -18.9486  -30.1463   23.8853 C   0  0  0  0  0  0
  -17.6482  -30.6573   24.0556 C   0  0  0  0  0  0
  -25.9071  -34.9390   23.5046 C   0  0  0  0  0  0
  -16.5374  -29.9058   23.6341 C   0  0  0  0  0  0
  -16.7292  -28.6484   23.0348 C   0  0  0  0  0  0
  -26.4520  -31.6554   25.0717 C   0  0  0  0  0  0
  -25.3694  -31.3761   26.1420 C   0  0  0  0  0  0
  -27.0396  -30.2939   24.6341 C   0  0  0  0  0  0
  -27.6036  -32.4347   25.7492 C   0  0  0  0  0  0
  -27.5570  -37.1779   24.8463 C   0  0  0  0  0  0
  -21.4265  -29.3031   22.3600 N   0  0  0  0  0  0
  -26.4282  -37.3730   23.9403 N   0  0  0  0  0  0
  -24.7201  -31.0245   22.0896 N   0  0  0  0  0  0
  -23.4209  -28.8065   23.2996 O   0  0  0  0  0  0
  -28.2673  -26.1211   20.2191 O   0  0  0  0  0  0
  -26.5677  -34.8889   22.4637 O   0  0  0  0  0  0
  -23.5560  -32.1288   23.7068 O   0  0  0  0  0  0
  -31.0763  -19.2324   22.4979 C   0  0  0  0  0  0
  -30.6573  -20.3920   21.8029 C   0  0  0  0  0  0
  -30.6875  -17.8928   22.2680 C   0  0  0  0  0  0
  -29.6571  -20.2764   20.7828 C   0  0  0  0  0  0
  -29.4377  -18.8356   20.3832 C   0  0  0  0  0  0
  -30.0014  -17.6030   21.0420 C   0  0  0  0  0  0
  -33.1390  -22.8894   22.2852 C   0  0  0  0  0  0
  -32.7931  -21.5025   22.7801 C   0  0  0  0  0  0
  -31.9167  -22.7530   21.3890 C   0  0  0  0  0  0
  -31.3027  -21.6916   22.3463 C   0  0  0  0  0  0
  -28.5310  -18.5851   19.1906 C   0  0  0  0  0  0
  -30.4058  -22.1874   23.4878 C   0  0  0  0  0  0
  -30.9817  -17.6041   24.8298 C   0  0  0  0  0  0
  -32.4273  -16.3267   23.2816 C   0  0  0  0  0  0
  -29.9694  -15.7577   23.6168 C   0  0  0  0  0  0
  -28.8031  -21.6080   20.2023 C   0  0  0  0  0  0
  -29.0366  -23.2898   20.4099 C   0  0  0  0  0  0
  -28.0084  -24.5854   20.0297 C   0  0  0  0  0  0
  -31.0063  -16.8963   23.4402 C   0  0  0  0  0  0
  -29.7429  -16.1350   20.6401 N   0  0  0  0  0  0
  -31.4753  -12.7703   19.1826 H   0  0  0  0  0  0
  -30.4458  -11.6551   20.0327 H   0  0  0  0  0  0
  -29.8456  -11.7345   17.5875 H   0  0  0  0  0  0
  -29.6041  -13.4613   17.6858 H   0  0  0  0  0  0
  -27.9619  -11.2724   18.9898 H   0  0  0  0  0  0
  -27.3911  -12.4358   17.8222 H   0  0  0  0  0  0
  -27.5897  -14.2479   19.4064 H   0  0  0  0  0  0
  -28.7647  -12.3033   21.4517 H   0  0  0  0  0  0
  -28.3582  -13.9746   21.7522 H   0  0  0  0  0  0
  -25.2770   -9.5683   22.4766 H   0  0  0  0  0  0
  -24.0004   -7.4634   22.7472 H   0  0  0  0  0  0
  -21.0852   -8.8777   19.8951 H   0  0  0  0  0  0
  -22.3708  -10.9675   19.6167 H   0  0  0  0  0  0
  -21.2014   -7.6152   23.9718 H   0  0  0  0  0  0
  -21.1474   -6.0525   25.9077 H   0  0  0  0  0  0
  -22.0602   -2.7611   23.2840 H   0  0  0  0  0  0
  -22.4079  -11.9862   22.4836 H   0  0  0  0  0  0
  -21.1066  -13.1206   22.2641 H   0  0  0  0  0  0
  -24.6397  -15.8412   20.5241 H   0  0  0  0  0  0
  -26.2516  -15.6381   20.0665 H   0  0  0  0  0  0
  -26.7276  -32.5266   23.0982 H   0  0  0  0  0  0
  -25.0058  -33.9589   25.0291 H   0  0  0  0  0  0
  -22.7524  -31.2858   21.3755 H   0  0  0  0  0  0
  -23.3751  -35.9591   23.3299 H   0  0  0  0  0  0
  -24.3574  -36.8896   22.2067 H   0  0  0  0  0  0
  -23.7243  -37.6435   23.6703 H   0  0  0  0  0  0
  -26.1678  -31.4595   20.6153 H   0  0  0  0  0  0
  -26.8746  -30.7529   22.0338 H   0  0  0  0  0  0
  -28.1365  -28.7785   21.2313 H   0  0  0  0  0  0
  -25.9122  -25.8278   19.0033 H   0  0  0  0  0  0
  -23.9784  -27.2892   18.9836 H   0  0  0  0  0  0
  -23.8106  -30.5615   19.3952 H   0  0  0  0  0  0
  -22.7901  -29.2295   19.8455 H   0  0  0  0  0  0
  -25.1305  -36.1846   25.0794 H   0  0  0  0  0  0
  -21.0025  -28.3295   24.1335 H   0  0  0  0  0  0
  -20.5654  -26.2309   23.3620 H   0  0  0  0  0  0
  -21.6646  -26.7359   22.1214 H   0  0  0  0  0  0
  -19.6910  -25.6259   21.1249 H   0  0  0  0  0  0
  -19.6704  -27.3163   20.6738 H   0  0  0  0  0  0
  -17.4207  -26.6665   21.4023 H   0  0  0  0  0  0
  -18.0335  -26.0045   22.9008 H   0  0  0  0  0  0
  -19.7969  -30.7309   24.2167 H   0  0  0  0  0  0
  -17.5032  -31.6247   24.5170 H   0  0  0  0  0  0
  -15.5373  -30.2950   23.7678 H   0  0  0  0  0  0
  -15.8691  -28.0807   22.7042 H   0  0  0  0  0  0
  -24.5886  -30.7083   25.7758 H   0  0  0  0  0  0
  -24.8877  -32.2952   26.4772 H   0  0  0  0  0  0
  -25.7974  -30.8994   27.0250 H   0  0  0  0  0  0
  -26.3036  -29.6651   24.1332 H   0  0  0  0  0  0
  -27.3951  -29.7259   25.4946 H   0  0  0  0  0  0
  -27.8952  -30.4137   23.9697 H   0  0  0  0  0  0
  -27.2608  -33.3675   26.1987 H   0  0  0  0  0  0
  -28.3881  -32.6876   25.0345 H   0  0  0  0  0  0
  -28.0681  -31.8546   26.5479 H   0  0  0  0  0  0
  -28.2570  -38.0091   24.7508 H   0  0  0  0  0  0
  -28.1072  -36.2613   24.6285 H   0  0  0  0  0  0
  -27.2295  -37.1427   25.8868 H   0  0  0  0  0  0
  -20.9467  -29.8753   21.6796 H   0  0  0  0  0  0
  -26.0144  -38.2787   24.1432 H   0  0  0  0  0  0
  -31.7277  -19.4085   23.3310 H   0  0  0  0  0  0
  -34.0905  -22.9667   21.7573 H   0  0  0  0  0  0
  -33.0298  -23.6556   23.0549 H   0  0  0  0  0  0
  -32.9559  -21.3498   23.8487 H   0  0  0  0  0  0
  -33.3267  -20.7480   22.1984 H   0  0  0  0  0  0
  -32.1661  -22.3580   20.4023 H   0  0  0  0  0  0
  -31.4192  -23.7174   21.3351 H   0  0  0  0  0  0
  -28.6428  -19.3590   18.4329 H   0  0  0  0  0  0
  -27.4879  -18.5558   19.5036 H   0  0  0  0  0  0
  -28.7665  -17.6407   18.6993 H   0  0  0  0  0  0
  -30.4845  -21.5372   24.3592 H   0  0  0  0  0  0
  -29.3511  -22.1963   23.2167 H   0  0  0  0  0  0
  -30.6750  -23.1920   23.8132 H   0  0  0  0  0  0
  -31.8197  -18.2801   24.9956 H   0  0  0  0  0  0
  -31.0621  -16.8955   25.6540 H   0  0  0  0  0  0
  -30.0579  -18.1663   24.9762 H   0  0  0  0  0  0
  -33.1698  -17.1257   23.2767 H   0  0  0  0  0  0
  -32.5538  -15.7715   22.3583 H   0  0  0  0  0  0
  -32.6826  -15.6520   24.0996 H   0  0  0  0  0  0
  -28.9497  -16.1119   23.4604 H   0  0  0  0  0  0
  -29.9986  -15.3210   24.6156 H   0  0  0  0  0  0
  -30.1508  -14.9057   22.9758 H   0  0  0  0  0  0
  -27.7871  -21.4214   20.5501 H   0  0  0  0  0  0
  -28.7408  -21.4714   19.1232 H   0  0  0  0  0  0
  -29.9430  -23.5149   19.8535 H   0  0  0  0  0  0
  -29.2466  -23.4519   21.4595 H   0  0  0  0  0  0
  -27.0772  -24.3817   20.5587 H   0  0  0  0  0  0
  -27.7643  -24.4635   18.9739 H   0  0  0  0  0  0
  -28.7599  -15.9147   20.6009 H   0  0  0  0  0  0
  1 25  1  0  0  0
  1 30  2  0  0  0
  1 90  1  0  0  0
  2  3  1  0  0  0
  2 25  1  0  0  0
  2 91  1  0  0  0
  2 92  1  0  0  0
  3  4  1  0  0  0
  3 93  1  0  0  0
  3 94  1  0  0  0
  4  5  1  0  0  0
  4 95  1  0  0  0
  4 96  1  0  0  0
  5  6  1  0  0  0
  5 26  1  0  0  0
  5 97  1  0  0  0
  6 25  1  0  0  0
  6 98  1  0  0  0
  6 99  1  0  0  0
  7  8  2  0  0  0
  7 26  1  0  0  0
  7 29  1  0  0  0
  8  9  1  0  0  0
  8 22  1  0  0  0
  9 10  1  0  0  0
  9 27  2  0  0  0
 10 11  2  0  0  0
 10 15  1  0  0  0
 11 12  1  0  0  0
 11100  1  0  0  0
 12 13  2  0  0  0
 12101  1  0  0  0
 13 14  1  0  0  0
 13 31  1  0  0  0
 14 15  2  0  0  0
 14102  1  0  0  0
 15103  1  0  0  0
 16 17  2  0  0  0
 16 21  1  0  0  0
 16 31  1  0  0  0
 17 18  1  0  0  0
 17104  1  0  0  0
 18 19  2  0  0  0
 18105  1  0  0  0
 19 20  1  0  0  0
 19 24  1  0  0  0
 20 21  2  0  0  0
 20106  1  0  0  0
 21 23  1  0  0  0
 22 28  1  0  0  0
 22 32  2  0  0  0
 26 27  1  0  0  0
 28107  1  0  0  0
 28108  1  0  0  0
 29109  1  0  0  0
 29110  1  0  0  0
 33 34  1  0  0  0
 33 66  1  0  0  0
 33 70  2  0  0  0
 34 36  1  0  0  0
 34 59  1  0  0  0
 34111  1  0  0  0
 35 44  2  0  0  0
 35 45  1  0  0  0
 35 68  1  0  0  0
 36 56  1  0  0  0
 36112  1  0  0  0
 37 39  1  0  0  0
 37 47  1  0  0  0
 37 66  1  0  0  0
 37113  1  0  0  0
 38 43  2  0  0  0
 38 46  1  0  0  0
 38 47  1  0  0  0
 39 64  1  0  0  0
 39 67  2  0  0  0
 40 52  1  0  0  0
 40 53  2  0  0  0
 40 58  1  0  0  0
 41114  1  0  0  0
 41115  1  0  0  0
 41116  1  0  0  0
 41 48  1  0  0  0
 42 43  1  0  0  0
 42 66  1  0  0  0
 42117  1  0  0  0
 42118  1  0  0  0
 43 44  1  0  0  0
 44119  1  0  0  0
 45 46  2  0  0  0
 45120  1  0  0  0
 46121  1  0  0  0
 47122  1  0  0  0
 47123  1  0  0  0
 48 56  1  0  0  0
 48 65  1  0  0  0
 48124  1  0  0  0
 49 50  1  0  0  0
 49 53  1  0  0  0
 49 64  1  0  0  0
 49125  1  0  0  0
 50 51  1  0  0  0
 50126  1  0  0  0
 50127  1  0  0  0
 51 52  1  0  0  0
 51128  1  0  0  0
 51129  1  0  0  0
 52130  1  0  0  0
 52131  1  0  0  0
 53 54  1  0  0  0
 54 55  2  0  0  0
 54132  1  0  0  0
 55 57  1  0  0  0
 55133  1  0  0  0
 56 69  2  0  0  0
 57 58  2  0  0  0
 57134  1  0  0  0
 58135  1  0  0  0
 59 60  1  0  0  0
 59 61  1  0  0  0
 59 62  1  0  0  0
 60136  1  0  0  0
 60137  1  0  0  0
 60138  1  0  0  0
 61139  1  0  0  0
 61140  1  0  0  0
 61141  1  0  0  0
 62142  1  0  0  0
 62143  1  0  0  0
 62144  1  0  0  0
 63 65  1  0  0  0
 63145  1  0  0  0
 63146  1  0  0  0
 63147  1  0  0  0
 64148  1  0  0  0
 65149  1  0  0  0
 68 88  1  0  0  0
 71 72  2  0  0  0
 71 73  1  0  0  0
 71150  1  0  0  0
 72 74  1  0  0  0
 72 80  1  0  0  0
 73 76  2  0  0  0
 73 89  1  0  0  0
 74 75  2  0  0  0
 74 86  1  0  0  0
 75 76  1  0  0  0
 75 81  1  0  0  0
 76 90  1  0  0  0
 77 78  1  0  0  0
 77 79  1  0  0  0
 77151  1  0  0  0
 77152  1  0  0  0
 78 80  1  0  0  0
 78153  1  0  0  0
 78154  1  0  0  0
 79 80  1  0  0  0
 79155  1  0  0  0
 79156  1  0  0  0
 80 82  1  0  0  0
 81157  1  0  0  0
 81158  1  0  0  0
 81159  1  0  0  0
 82160  1  0  0  0
 82161  1  0  0  0
 82162  1  0  0  0
 83163  1  0  0  0
 83164  1  0  0  0
 83165  1  0  0  0
 83 89  1  0  0  0
 84 89  1  0  0  0
 84166  1  0  0  0
 84167  1  0  0  0
 84168  1  0  0  0
 85 89  1  0  0  0
 85169  1  0  0  0
 85170  1  0  0  0
 85171  1  0  0  0
 86 87  1  0  0  0
 86172  1  0  0  0
 86173  1  0  0  0
 87 88  1  0  0  0
 87174  1  0  0  0
 87175  1  0  0  0
 88176  1  0  0  0
 88177  1  0  0  0
 90178  1  0  0  0
M  ISO  4   1 100  68 101  88 101  90 100
M  END
> <chiral flag>
0

> <version>
0

> <s_m_source_file>
/data/baiqing/PycharmProjects/Reinvent-master-3.2/result/LINK_invent/BTK/process_docking_weight1_custom_sum_contain_oxygen_bond_distance_aromatic_linkinvent_7_9_3/rearranged_h_0020.sdf

> <i_m_source_file_index>
88

> <r_mmod_Potential_Energy-OPLS-2005>
698.339172363281

> <r_mmod_Stretch_Energy-OPLS-2005>
319.927856445312

> <r_mmod_Bend_Energy-OPLS-2005>
331.179748535156

> <r_mmod_Torsional_Energy-OPLS-2005>
291.707336425781

> <r_mmod_Improper_Torsional_Energy-OPLS-2005>
6.47198963165283

> <r_mmod_Van_der_Waal_Energy-OPLS-2005>
167.709243774414

> <r_mmod_Electrostatic_Energy-OPLS-2005>
-430.513519287109

> <r_mmod_Solvation_Energy-OPLS-2005>
-193.901672363281

> <b_mmod_Minimization_Converged-OPLS-2005>
0

> <r_mmod_RMS_Derivative-OPLS-2005>
1.69315540790558

$$$$
88
                    3D
 Structure written by MMmdl.
149157  0  0  1  0            999 V2000
  -30.3070  -15.5893   20.3338 C   0  0  0  0  0  0
  -30.4305  -13.0294   19.5679 C   0  0  0  0  0  0
  -29.5594  -12.6582   18.3334 C   0  0  0  0  0  0
  -28.1241  -12.3109   18.7577 C   0  0  0  0  0  0
  -27.6003  -13.3094   19.8150 C   0  0  2  0  0  0
  -28.6100  -13.6144   20.9462 C   0  0  0  0  0  0
  -25.2331  -13.8297   20.5765 C   0  0  0  0  0  0
  -24.1720  -13.0442   20.9264 C   0  0  0  0  0  0
  -24.6424  -11.6952   20.8741 C   0  0  0  0  0  0
  -23.9130  -10.4297   21.0385 C   0  0  0  0  0  0
  -24.3665   -9.4213   21.9169 C   0  0  0  0  0  0
  -23.6322   -8.2253   22.0747 C   0  0  0  0  0  0
  -22.4300   -8.0291   21.3540 C   0  0  0  0  0  0
  -21.9948   -9.0267   20.4641 C   0  0  0  0  0  0
  -22.7293  -10.2136   20.3042 C   0  0  0  0  0  0
  -21.6862   -6.0744   22.5277 C   0  0  0  0  0  0
  -21.4026   -6.5643   23.8213 C   0  0  0  0  0  0
  -21.3667   -5.6793   24.9173 C   0  0  0  0  0  0
  -21.6042   -4.3055   24.7223 C   0  0  0  0  0  0
  -21.8817   -3.8150   23.4341 C   0  0  0  0  0  0
  -21.9193   -4.6971   22.3401 C   0  0  0  0  0  0
  -22.7730  -13.5169   21.1914 C   0  0  0  0  0  0
  -22.1653   -4.2154   21.0978 F   0  0  0  0  0  0
  -21.5634   -3.4537   25.7733 F   0  0  0  0  0  0
  -29.8155  -14.2106   20.3281 N   0  0  0  0  0  0
  -26.2780  -12.9632   20.3189 N   0  0  0  0  0  0
  -25.9368  -11.6703   20.5667 N   0  0  0  0  0  0
  -22.0400  -12.8149   22.0476 N   0  0  0  0  0  0
  -25.3940  -15.2043   20.4253 N   0  0  0  0  0  0
  -31.5194  -15.5269   20.0494 O   0  0  0  0  0  0
  -21.6651   -6.8894   21.4242 O   0  0  0  0  0  0
  -22.3398  -14.5464   20.6749 O   0  0  0  0  0  0
  -24.6819  -31.8003   23.1519 C   0  0  0  0  0  0
  -25.9407  -32.4465   23.8060 C   0  0  1  0  0  0
  -27.2295  -26.7196   20.2083 C   0  0  0  0  0  0
  -25.5992  -33.8290   24.1944 N   0  0  0  0  0  0
  -23.5078  -30.4026   21.5036 C   0  0  2  0  0  0
  -24.9659  -28.7463   20.1120 C   0  0  0  0  0  0
  -22.7758  -29.4322   22.4697 C   0  0  0  0  0  0
  -18.0343  -28.1430   22.8455 C   0  0  0  0  0  0
  -24.1499  -36.7161   23.2654 C   0  0  0  0  0  0
  -26.0864  -30.5380   21.4144 C   0  0  0  0  0  0
  -26.1516  -29.1052   20.7634 C   0  0  0  0  0  0
  -27.2654  -28.1167   20.7835 C   0  0  0  0  0  0
  -26.0154  -26.5676   19.4921 C   0  0  0  0  0  0
  -24.9357  -27.5031   19.4541 C   0  0  0  0  0  0
  -23.7610  -29.6996   20.1376 C   0  0  0  0  0  0
  -25.4147  -36.2894   24.0282 C   0  0  1  0  0  0
  -20.5977  -28.3791   23.1140 C   0  0  2  0  0  0
  -20.6811  -26.9449   22.5407 C   0  0  0  0  0  0
  -19.5789  -26.6373   21.5222 C   0  0  0  0  0  0
  -18.1972  -26.7958   22.1618 C   0  0  0  0  0  0
  -19.1609  -28.8931   23.2780 C   0  0  0  0  0  0
  -18.9516  -30.1513   23.8831 C   0  0  0  0  0  0
  -17.6507  -30.6609   24.0557 C   0  0  0  0  0  0
  -25.9124  -34.9285   23.4950 C   0  0  0  0  0  0
  -16.5397  -29.9095   23.6347 C   0  0  0  0  0  0
  -16.7325  -28.6519   23.0361 C   0  0  0  0  0  0
  -26.4587  -31.6499   25.0681 C   0  0  0  0  0  0
  -25.3658  -31.3824   26.1302 C   0  0  0  0  0  0
  -27.0515  -30.2837   24.6577 C   0  0  0  0  0  0
  -27.6037  -32.4359   25.7498 C   0  0  0  0  0  0
  -27.5564  -37.1740   24.8465 C   0  0  0  0  0  0
  -21.4408  -29.3036   22.3454 N   0  0  0  0  0  0
  -26.4273  -37.3653   23.9404 N   0  0  0  0  0  0
  -24.7818  -30.9467   22.0761 N   0  0  0  0  0  0
  -23.4207  -28.7926   23.3039 O   0  0  0  0  0  0
  -28.1962  -25.5150   20.3350 O   0  0  0  0  0  0
  -26.5763  -34.8865   22.4567 O   0  0  0  0  0  0
  -23.5843  -32.1071   23.6484 O   0  0  0  0  0  0
  -29.6862  -18.5517   18.4851 C   0  0  0  0  0  0
  -29.5896  -19.6544   17.6909 C   0  0  0  0  0  0
  -29.1326  -20.3997   19.7994 C   0  0  0  0  0  0
  -29.7771  -19.8084   16.2161 C   0  0  0  0  0  0
  -28.7762  -22.0546   20.5523 C   0  0  0  0  0  0
  -29.5649  -17.2776   20.6611 C   0  0  0  0  0  0
  -28.1586  -23.7981   19.9603 C   0  0  0  0  0  0
  -29.4419  -18.8578   19.8059 N   0  0  0  0  0  0
  -29.2751  -20.7010   18.5013 N   0  3  0  0  0  0
  -31.4389  -13.2607   19.2238 H   0  0  0  0  0  0
  -30.5509  -12.1656   20.2239 H   0  0  0  0  0  0
  -30.0051  -11.8260   17.7873 H   0  0  0  0  0  0
  -29.5401  -13.5033   17.6436 H   0  0  0  0  0  0
  -28.1342  -11.3051   19.1794 H   0  0  0  0  0  0
  -27.4629  -12.2771   17.8912 H   0  0  0  0  0  0
  -27.4751  -14.2420   19.2631 H   0  0  0  0  0  0
  -28.8380  -12.7242   21.5337 H   0  0  0  0  0  0
  -28.1808  -14.3365   21.6425 H   0  0  0  0  0  0
  -25.2806   -9.5682   22.4751 H   0  0  0  0  0  0
  -24.0019   -7.4649   22.7474 H   0  0  0  0  0  0
  -21.0872   -8.8802   19.8953 H   0  0  0  0  0  0
  -22.3750  -10.9679   19.6151 H   0  0  0  0  0  0
  -21.2019   -7.6149   23.9722 H   0  0  0  0  0  0
  -21.1493   -6.0519   25.9079 H   0  0  0  0  0  0
  -22.0588   -2.7610   23.2840 H   0  0  0  0  0  0
  -22.4037  -11.9831   22.4886 H   0  0  0  0  0  0
  -21.1001  -13.1138   22.2667 H   0  0  0  0  0  0
  -24.6256  -15.8547   20.5498 H   0  0  0  0  0  0
  -26.2425  -15.6513   20.1032 H   0  0  0  0  0  0
  -26.7493  -32.4938   23.0776 H   0  0  0  0  0  0
  -25.0050  -33.9327   25.0037 H   0  0  0  0  0  0
  -22.8331  -31.2401   21.3140 H   0  0  0  0  0  0
  -23.3767  -35.9484   23.3271 H   0  0  0  0  0  0
  -24.3567  -36.8864   22.2078 H   0  0  0  0  0  0
  -23.7254  -37.6329   23.6757 H   0  0  0  0  0  0
  -26.2881  -31.2644   20.6259 H   0  0  0  0  0  0
  -26.9380  -30.6043   22.0790 H   0  0  0  0  0  0
  -28.1525  -28.3920   21.3363 H   0  0  0  0  0  0
  -25.8554  -25.6245   18.9892 H   0  0  0  0  0  0
  -24.0399  -27.2199   18.9183 H   0  0  0  0  0  0
  -23.9356  -30.4601   19.3759 H   0  0  0  0  0  0
  -22.8663  -29.1658   19.8129 H   0  0  0  0  0  0
  -25.1358  -36.1657   25.0771 H   0  0  0  0  0  0
  -21.0064  -28.3425   24.1264 H   0  0  0  0  0  0
  -20.5677  -26.2419   23.3672 H   0  0  0  0  0  0
  -21.6675  -26.7394   22.1228 H   0  0  0  0  0  0
  -19.6948  -25.6262   21.1304 H   0  0  0  0  0  0
  -19.6738  -27.3138   20.6716 H   0  0  0  0  0  0
  -17.4242  -26.6699   21.4020 H   0  0  0  0  0  0
  -18.0359  -26.0120   22.9030 H   0  0  0  0  0  0
  -19.7993  -30.7346   24.2168 H   0  0  0  0  0  0
  -17.5062  -31.6280   24.5178 H   0  0  0  0  0  0
  -15.5395  -30.2980   23.7713 H   0  0  0  0  0  0
  -15.8724  -28.0820   22.7108 H   0  0  0  0  0  0
  -24.5865  -30.7145   25.7610 H   0  0  0  0  0  0
  -24.8825  -32.3051   26.4524 H   0  0  0  0  0  0
  -25.7842  -30.9124   27.0210 H   0  0  0  0  0  0
  -26.3224  -29.6449   24.1583 H   0  0  0  0  0  0
  -27.3955  -29.7286   25.5314 H   0  0  0  0  0  0
  -27.9199  -30.3956   24.0085 H   0  0  0  0  0  0
  -27.2573  -33.3726   26.1875 H   0  0  0  0  0  0
  -28.3950  -32.6812   25.0403 H   0  0  0  0  0  0
  -28.0590  -31.8622   26.5580 H   0  0  0  0  0  0
  -28.2553  -38.0060   24.7497 H   0  0  0  0  0  0
  -28.1084  -36.2579   24.6302 H   0  0  0  0  0  0
  -27.2280  -37.1394   25.8868 H   0  0  0  0  0  0
  -20.9708  -29.8687   21.6521 H   0  0  0  0  0  0
  -26.0098  -38.2703   24.1402 H   0  0  0  0  0  0
  -29.9205  -17.5424   18.1752 H   0  0  0  0  0  0
  -29.6221  -18.8544   15.7113 H   0  0  0  0  0  0
  -30.7884  -20.1522   15.9975 H   0  0  0  0  0  0
  -29.0676  -20.5285   15.8078 H   0  0  0  0  0  0
  -29.7442  -22.2741   21.0017 H   0  0  0  0  0  0
  -28.1498  -21.7962   21.4050 H   0  0  0  0  0  0
  -28.5272  -17.0424   20.8966 H   0  0  0  0  0  0
  -29.9920  -17.5489   21.6260 H   0  0  0  0  0  0
  -27.1008  -23.6282   19.7612 H   0  0  0  0  0  0
  -28.5949  -23.8436   18.9631 H   0  0  0  0  0  0
  -29.1624  -21.6458   18.1535 H   0  0  0  0  0  0
  1 25  1  0  0  0
  1 30  2  0  0  0
  1 76  1  0  0  0
  2  3  1  0  0  0
  2 25  1  0  0  0
  2 80  1  0  0  0
  2 81  1  0  0  0
  3  4  1  0  0  0
  3 82  1  0  0  0
  3 83  1  0  0  0
  4  5  1  0  0  0
  4 84  1  0  0  0
  4 85  1  0  0  0
  5  6  1  0  0  0
  5 26  1  0  0  0
  5 86  1  0  0  0
  6 25  1  0  0  0
  6 87  1  0  0  0
  6 88  1  0  0  0
  7  8  2  0  0  0
  7 26  1  0  0  0
  7 29  1  0  0  0
  8  9  1  0  0  0
  8 22  1  0  0  0
  9 10  1  0  0  0
  9 27  2  0  0  0
 10 11  2  0  0  0
 10 15  1  0  0  0
 11 12  1  0  0  0
 11 89  1  0  0  0
 12 13  2  0  0  0
 12 90  1  0  0  0
 13 14  1  0  0  0
 13 31  1  0  0  0
 14 15  2  0  0  0
 14 91  1  0  0  0
 15 92  1  0  0  0
 16 17  2  0  0  0
 16 21  1  0  0  0
 16 31  1  0  0  0
 17 18  1  0  0  0
 17 93  1  0  0  0
 18 19  2  0  0  0
 18 94  1  0  0  0
 19 20  1  0  0  0
 19 24  1  0  0  0
 20 21  2  0  0  0
 20 95  1  0  0  0
 21 23  1  0  0  0
 22 28  1  0  0  0
 22 32  2  0  0  0
 26 27  1  0  0  0
 28 96  1  0  0  0
 28 97  1  0  0  0
 29 98  1  0  0  0
 29 99  1  0  0  0
 33 34  1  0  0  0
 33 66  1  0  0  0
 33 70  2  0  0  0
 34 36  1  0  0  0
 34 59  1  0  0  0
 34100  1  0  0  0
 35 44  2  0  0  0
 35 45  1  0  0  0
 35 68  1  0  0  0
 36 56  1  0  0  0
 36101  1  0  0  0
 37 39  1  0  0  0
 37 47  1  0  0  0
 37 66  1  0  0  0
 37102  1  0  0  0
 38 43  2  0  0  0
 38 46  1  0  0  0
 38 47  1  0  0  0
 39 64  1  0  0  0
 39 67  2  0  0  0
 40 52  1  0  0  0
 40 53  2  0  0  0
 40 58  1  0  0  0
 41103  1  0  0  0
 41104  1  0  0  0
 41105  1  0  0  0
 41 48  1  0  0  0
 42 43  1  0  0  0
 42 66  1  0  0  0
 42106  1  0  0  0
 42107  1  0  0  0
 43 44  1  0  0  0
 44108  1  0  0  0
 45 46  2  0  0  0
 45109  1  0  0  0
 46110  1  0  0  0
 47111  1  0  0  0
 47112  1  0  0  0
 48 56  1  0  0  0
 48 65  1  0  0  0
 48113  1  0  0  0
 49 50  1  0  0  0
 49 53  1  0  0  0
 49 64  1  0  0  0
 49114  1  0  0  0
 50 51  1  0  0  0
 50115  1  0  0  0
 50116  1  0  0  0
 51 52  1  0  0  0
 51117  1  0  0  0
 51118  1  0  0  0
 52119  1  0  0  0
 52120  1  0  0  0
 53 54  1  0  0  0
 54 55  2  0  0  0
 54121  1  0  0  0
 55 57  1  0  0  0
 55122  1  0  0  0
 56 69  2  0  0  0
 57 58  2  0  0  0
 57123  1  0  0  0
 58124  1  0  0  0
 59 60  1  0  0  0
 59 61  1  0  0  0
 59 62  1  0  0  0
 60125  1  0  0  0
 60126  1  0  0  0
 60127  1  0  0  0
 61128  1  0  0  0
 61129  1  0  0  0
 61130  1  0  0  0
 62131  1  0  0  0
 62132  1  0  0  0
 62133  1  0  0  0
 63 65  1  0  0  0
 63134  1  0  0  0
 63135  1  0  0  0
 63136  1  0  0  0
 64137  1  0  0  0
 65138  1  0  0  0
 68 77  1  0  0  0
 71 72  2  0  0  0
 71 78  1  0  0  0
 71139  1  0  0  0
 72 74  1  0  0  0
 72 79  1  0  0  0
 73 75  1  0  0  0
 73 78  1  0  0  0
 73 79  2  0  0  0
 74140  1  0  0  0
 74141  1  0  0  0
 74142  1  0  0  0
 75 77  1  0  0  0
 75143  1  0  0  0
 75144  1  0  0  0
 76 78  1  0  0  0
 76145  1  0  0  0
 76146  1  0  0  0
 77147  1  0  0  0
 77148  1  0  0  0
 79149  1  0  0  0
M  CHG  1  79   1
M  ISO  4   1 100  68 101  76 100  77 101
M  END
> <chiral flag>
0

> <version>
0

> <s_m_source_file>
/data/baiqing/PycharmProjects/Reinvent-master-3.2/result/LINK_invent/BTK/process_docking_weight1_custom_sum_contain_oxygen_bond_distance_aromatic_linkinvent_7_9_3/rearranged_h_0020.sdf

> <i_m_source_file_index>
89

> <r_mmod_Potential_Energy-OPLS-2005>
2446.58471679688

> <r_mmod_Stretch_Energy-OPLS-2005>
1142.40466308594

> <r_mmod_Bend_Energy-OPLS-2005>
738.009399414062

> <r_mmod_Torsional_Energy-OPLS-2005>
195.873809814453

> <r_mmod_Improper_Torsional_Energy-OPLS-2005>
1.87001979351044

> <r_mmod_Van_der_Waal_Energy-OPLS-2005>
105.145637512207

> <r_mmod_Electrostatic_Energy-OPLS-2005>
-161.249069213867

> <r_mmod_Solvation_Energy-OPLS-2005>
-417.980407714844

> <b_mmod_Minimization_Converged-OPLS-2005>
0

> <r_mmod_RMS_Derivative-OPLS-2005>
0.792964339256287

$$$$
89
                    3D
 Structure written by MMmdl.
182190  0  0  1  0            999 V2000
  -30.7115  -14.5095   20.6843 C   0  0  0  0  0  0
  -30.4400  -12.3629   19.4342 C   0  0  0  0  0  0
  -29.5076  -12.5388   18.2152 C   0  0  0  0  0  0
  -28.0219  -12.3782   18.6092 C   0  0  0  0  0  0
  -27.6606  -13.1901   19.8738 C   0  0  2  0  0  0
  -28.7038  -12.9406   20.9833 C   0  0  0  0  0  0
  -25.2578  -13.8098   20.5693 C   0  0  0  0  0  0
  -24.1847  -13.0396   20.9292 C   0  0  0  0  0  0
  -24.6396  -11.6875   20.8865 C   0  0  0  0  0  0
  -23.9077  -10.4271   21.0447 C   0  0  0  0  0  0
  -24.3637   -9.4179   21.9191 C   0  0  0  0  0  0
  -23.6308   -8.2217   22.0700 C   0  0  0  0  0  0
  -22.4306   -8.0287   21.3484 C   0  0  0  0  0  0
  -21.9956   -9.0274   20.4622 C   0  0  0  0  0  0
  -22.7268  -10.2166   20.3025 C   0  0  0  0  0  0
  -21.6885   -6.0773   22.5251 C   0  0  0  0  0  0
  -21.4066   -6.5654   23.8212 C   0  0  0  0  0  0
  -21.3663   -5.6816   24.9173 C   0  0  0  0  0  0
  -21.6004   -4.3054   24.7207 C   0  0  0  0  0  0
  -21.8849   -3.8167   23.4317 C   0  0  0  0  0  0
  -21.9226   -4.6986   22.3402 C   0  0  0  0  0  0
  -22.7864  -13.5212   21.1924 C   0  0  0  0  0  0
  -22.1633   -4.2183   21.0947 F   0  0  0  0  0  0
  -21.5603   -3.4509   25.7697 F   0  0  0  0  0  0
  -30.0295  -13.3302   20.4801 N   0  0  0  0  0  0
  -26.3010  -12.9232   20.3442 N   0  0  0  0  0  0
  -25.9308  -11.6429   20.5894 N   0  0  0  0  0  0
  -22.0490  -12.8227   22.0475 N   0  0  0  0  0  0
  -25.4270  -15.1786   20.3868 N   0  0  0  0  0  0
  -31.7998  -14.6708   20.1167 O   0  0  0  0  0  0
  -21.6648   -6.8901   21.4215 O   0  0  0  0  0  0
  -22.3540  -14.5518   20.6763 O   0  0  0  0  0  0
  -24.6109  -31.8682   23.2101 C   0  0  0  0  0  0
  -25.9020  -32.4822   23.8381 C   0  0  1  0  0  0
  -27.2557  -27.4451   20.1210 C   0  0  0  0  0  0
  -25.5906  -33.8623   24.2326 N   0  0  0  0  0  0
  -23.3990  -30.4893   21.5515 C   0  0  2  0  0  0
  -24.8513  -28.9560   20.1176 C   0  0  0  0  0  0
  -22.7391  -29.4636   22.4999 C   0  0  0  0  0  0
  -18.0265  -28.1347   22.8487 C   0  0  0  0  0  0
  -24.1493  -36.7320   23.2637 C   0  0  0  0  0  0
  -25.9243  -30.8395   21.3615 C   0  0  0  0  0  0
  -26.0073  -29.4721   20.7179 C   0  0  0  0  0  0
  -27.2091  -28.7284   20.7225 C   0  0  0  0  0  0
  -26.0858  -26.9497   19.5043 C   0  0  0  0  0  0
  -24.8851  -27.6902   19.5068 C   0  0  0  0  0  0
  -23.6074  -29.8186   20.1668 C   0  0  0  0  0  0
  -25.4108  -36.3110   24.0328 C   0  0  1  0  0  0
  -20.5854  -28.3629   23.1324 C   0  0  2  0  0  0
  -20.6755  -26.9369   22.5423 C   0  0  0  0  0  0
  -19.5751  -26.6356   21.5207 C   0  0  0  0  0  0
  -18.1923  -26.7893   22.1608 C   0  0  0  0  0  0
  -19.1509  -28.8807   23.2904 C   0  0  0  0  0  0
  -18.9446  -30.1423   23.8910 C   0  0  0  0  0  0
  -17.6448  -30.6579   24.0550 C   0  0  0  0  0  0
  -25.9032  -34.9482   23.5123 C   0  0  0  0  0  0
  -16.5336  -29.9079   23.6327 C   0  0  0  0  0  0
  -16.7257  -28.6483   23.0364 C   0  0  0  0  0  0
  -26.4477  -31.6592   25.0698 C   0  0  0  0  0  0
  -25.3750  -31.3692   26.1442 C   0  0  0  0  0  0
  -27.0319  -30.3040   24.6070 C   0  0  0  0  0  0
  -27.6053  -32.4298   25.7496 C   0  0  0  0  0  0
  -27.5585  -37.1807   24.8457 C   0  0  0  0  0  0
  -21.4120  -29.3017   22.3739 N   0  0  0  0  0  0
  -26.4291  -37.3791   23.9406 N   0  0  0  0  0  0
  -24.6630  -31.0787   22.1003 N   0  0  0  0  0  0
  -23.4163  -28.8192   23.3047 O   0  0  0  0  0  0
  -28.3726  -26.6285   20.0824 O   0  0  0  0  0  0
  -26.5596  -34.8933   22.4686 O   0  0  0  0  0  0
  -23.5317  -32.1426   23.7522 O   0  0  0  0  0  0
  -31.5914  -17.8910   21.0175 C   0  0  0  0  0  0
  -32.1047  -16.5749   22.9852 C   0  0  0  0  0  0
  -31.3141  -16.7527   21.8225 C   0  0  0  0  0  0
  -32.6106  -18.8262   21.3371 C   0  0  0  0  0  0
  -33.4026  -18.5956   22.4975 C   0  0  0  0  0  0
  -33.1226  -17.4925   23.3456 C   0  0  0  0  0  0
  -34.5874  -19.4874   22.8612 C   0  0  0  0  0  0
  -33.8852  -15.1872   25.6211 C   0  0  0  0  0  0
  -33.2389  -24.2891   19.8194 C   0  0  0  0  0  0
  -29.0959  -16.4875   20.6001 C   0  0  0  0  0  0
  -29.4520  -15.4404   22.8409 C   0  0  0  0  0  0
  -32.8940  -19.9599   20.3284 C   0  0  0  0  0  0
  -30.1468  -25.5137   21.4126 C   0  0  0  0  0  0
  -30.7661  -24.6673   20.2590 C   0  0  0  0  0  0
  -32.9769  -21.4402   20.8186 C   0  0  0  0  0  0
  -33.3434  -16.6270   25.6021 C   0  0  0  0  0  0
  -29.4532  -26.8474   20.9982 C   0  0  0  0  0  0
  -32.0184  -23.7918   20.6376 C   0  0  1  0  0  0
  -30.1431  -15.7627   21.4895 C   0  0  0  0  0  0
  -31.7998  -22.3097   20.4905 N   0  3  0  0  0  0
  -33.8748  -17.3623   24.4979 O   0  0  0  0  0  0
  -31.4750  -12.4936   19.1094 H   0  0  0  0  0  0
  -30.3849  -11.3395   19.8181 H   0  0  0  0  0  0
  -29.7625  -11.8156   17.4387 H   0  0  0  0  0  0
  -29.6726  -13.5269   17.7793 H   0  0  0  0  0  0
  -27.8139  -11.3227   18.7769 H   0  0  0  0  0  0
  -27.3922  -12.6850   17.7731 H   0  0  0  0  0  0
  -27.6965  -14.2273   19.5513 H   0  0  0  0  0  0
  -28.7230  -11.8767   21.2320 H   0  0  0  0  0  0
  -28.4086  -13.3965   21.9154 H   0  0  0  0  0  0
  -25.2716   -9.5630   22.4877 H   0  0  0  0  0  0
  -23.9961   -7.4599   22.7417 H   0  0  0  0  0  0
  -21.0875   -8.8795   19.8968 H   0  0  0  0  0  0
  -22.3655  -10.9720   19.6170 H   0  0  0  0  0  0
  -21.2062   -7.6160   23.9695 H   0  0  0  0  0  0
  -21.1442   -6.0545   25.9085 H   0  0  0  0  0  0
  -22.0677   -2.7636   23.2804 H   0  0  0  0  0  0
  -22.4027  -11.9821   22.4742 H   0  0  0  0  0  0
  -21.1106  -13.1246   22.2739 H   0  0  0  0  0  0
  -24.6558  -15.8358   20.4525 H   0  0  0  0  0  0
  -26.2671  -15.6054   20.0182 H   0  0  0  0  0  0
  -26.7118  -32.5560   23.1168 H   0  0  0  0  0  0
  -25.0057  -33.9798   25.0472 H   0  0  0  0  0  0
  -22.6853  -31.3031   21.4107 H   0  0  0  0  0  0
  -23.3760  -35.9650   23.3284 H   0  0  0  0  0  0
  -24.3588  -36.8957   22.2059 H   0  0  0  0  0  0
  -23.7244  -37.6515   23.6666 H   0  0  0  0  0  0
  -26.0296  -31.6019   20.5883 H   0  0  0  0  0  0
  -26.8119  -30.8997   21.9785 H   0  0  0  0  0  0
  -28.0887  -29.1469   21.1904 H   0  0  0  0  0  0
  -26.0984  -25.9777   19.0297 H   0  0  0  0  0  0
  -23.9969  -27.2818   19.0433 H   0  0  0  0  0  0
  -23.7051  -30.5900   19.4012 H   0  0  0  0  0  0
  -22.7354  -29.2283   19.8813 H   0  0  0  0  0  0
  -25.1284  -36.1979   25.0817 H   0  0  0  0  0  0
  -20.9938  -28.3199   24.1447 H   0  0  0  0  0  0
  -20.5639  -26.2244   23.3595 H   0  0  0  0  0  0
  -21.6627  -26.7411   22.1233 H   0  0  0  0  0  0
  -19.6908  -25.6274   21.1232 H   0  0  0  0  0  0
  -19.6697  -27.3168   20.6733 H   0  0  0  0  0  0
  -17.4192  -26.6651   21.4015 H   0  0  0  0  0  0
  -18.0321  -26.0028   22.8993 H   0  0  0  0  0  0
  -19.7940  -30.7225   24.2283 H   0  0  0  0  0  0
  -17.5024  -31.6264   24.5132 H   0  0  0  0  0  0
  -15.5350  -30.2982   23.7634 H   0  0  0  0  0  0
  -15.8651  -28.0790   22.7080 H   0  0  0  0  0  0
  -24.5913  -30.7060   25.7757 H   0  0  0  0  0  0
  -24.8961  -32.2862   26.4902 H   0  0  0  0  0  0
  -25.8095  -30.8835   27.0189 H   0  0  0  0  0  0
  -26.2863  -29.6795   24.1131 H   0  0  0  0  0  0
  -27.4110  -29.7282   25.4526 H   0  0  0  0  0  0
  -27.8693  -30.4365   23.9205 H   0  0  0  0  0  0
  -27.2664  -33.3586   26.2104 H   0  0  0  0  0  0
  -28.3879  -32.6860   25.0337 H   0  0  0  0  0  0
  -28.0700  -31.8380   26.5398 H   0  0  0  0  0  0
  -28.2583  -38.0129   24.7550 H   0  0  0  0  0  0
  -28.1103  -36.2661   24.6227 H   0  0  0  0  0  0
  -27.2306  -37.1403   25.8861 H   0  0  0  0  0  0
  -20.9239  -29.8759   21.6998 H   0  0  0  0  0  0
  -26.0183  -38.2865   24.1426 H   0  0  0  0  0  0
  -31.0279  -18.0409   20.1109 H   0  0  0  0  0  0
  -31.9189  -15.7278   23.6253 H   0  0  0  0  0  0
  -35.0055  -19.9916   21.9933 H   0  0  0  0  0  0
  -35.3991  -18.8955   23.2921 H   0  0  0  0  0  0
  -34.2894  -20.2369   23.5981 H   0  0  0  0  0  0
  -33.4646  -14.6211   26.4538 H   0  0  0  0  0  0
  -34.9708  -15.1956   25.7393 H   0  0  0  0  0  0
  -33.6589  -14.6403   24.7053 H   0  0  0  0  0  0
  -33.3248  -25.3753   19.8682 H   0  0  0  0  0  0
  -33.1647  -24.0159   18.7659 H   0  0  0  0  0  0
  -34.1890  -23.9143   20.1994 H   0  0  0  0  0  0
  -29.4061  -16.5554   19.5562 H   0  0  0  0  0  0
  -28.8911  -17.4985   20.9525 H   0  0  0  0  0  0
  -28.1368  -15.9823   20.6159 H   0  0  0  0  0  0
  -29.4937  -16.2862   23.5305 H   0  0  0  0  0  0
  -29.9229  -14.5945   23.3356 H   0  0  0  0  0  0
  -28.3853  -15.2490   22.7446 H   0  0  0  0  0  0
  -32.1784  -19.8924   19.5077 H   0  0  0  0  0  0
  -33.8473  -19.7041   19.8625 H   0  0  0  0  0  0
  -30.9243  -25.7831   22.1306 H   0  0  0  0  0  0
  -29.4406  -24.8997   21.9785 H   0  0  0  0  0  0
  -31.0547  -25.3743   19.4755 H   0  0  0  0  0  0
  -29.9877  -24.0629   19.7952 H   0  0  0  0  0  0
  -33.8332  -21.8333   20.2659 H   0  0  0  0  0  0
  -33.2350  -21.5349   21.8746 H   0  0  0  0  0  0
  -33.6611  -17.1312   26.5177 H   0  0  0  0  0  0
  -32.2537  -16.6569   25.6423 H   0  0  0  0  0  0
  -30.1687  -27.5311   20.5338 H   0  0  0  0  0  0
  -29.1109  -27.3319   21.9149 H   0  0  0  0  0  0
  -32.2588  -23.9597   21.6880 H   0  0  0  0  0  0
  -31.0354  -22.0388   21.0910 H   0  0  0  0  0  0
  -31.5099  -22.1121   19.5455 H   0  0  0  0  0  0
  1 25  1  0  0  0
  1 30  2  0  0  0
  1 89  1  0  0  0
  2  3  1  0  0  0
  2 25  1  0  0  0
  2 92  1  0  0  0
  2 93  1  0  0  0
  3  4  1  0  0  0
  3 94  1  0  0  0
  3 95  1  0  0  0
  4  5  1  0  0  0
  4 96  1  0  0  0
  4 97  1  0  0  0
  5  6  1  0  0  0
  5 26  1  0  0  0
  5 98  1  0  0  0
  6 25  1  0  0  0
  6 99  1  0  0  0
  6100  1  0  0  0
  7  8  2  0  0  0
  7 26  1  0  0  0
  7 29  1  0  0  0
  8  9  1  0  0  0
  8 22  1  0  0  0
  9 10  1  0  0  0
  9 27  2  0  0  0
 10 11  2  0  0  0
 10 15  1  0  0  0
 11 12  1  0  0  0
 11101  1  0  0  0
 12 13  2  0  0  0
 12102  1  0  0  0
 13 14  1  0  0  0
 13 31  1  0  0  0
 14 15  2  0  0  0
 14103  1  0  0  0
 15104  1  0  0  0
 16 17  2  0  0  0
 16 21  1  0  0  0
 16 31  1  0  0  0
 17 18  1  0  0  0
 17105  1  0  0  0
 18 19  2  0  0  0
 18106  1  0  0  0
 19 20  1  0  0  0
 19 24  1  0  0  0
 20 21  2  0  0  0
 20107  1  0  0  0
 21 23  1  0  0  0
 22 28  1  0  0  0
 22 32  2  0  0  0
 26 27  1  0  0  0
 28108  1  0  0  0
 28109  1  0  0  0
 29110  1  0  0  0
 29111  1  0  0  0
 33 34  1  0  0  0
 33 66  1  0  0  0
 33 70  2  0  0  0
 34 36  1  0  0  0
 34 59  1  0  0  0
 34112  1  0  0  0
 35 44  2  0  0  0
 35 45  1  0  0  0
 35 68  1  0  0  0
 36 56  1  0  0  0
 36113  1  0  0  0
 37 39  1  0  0  0
 37 47  1  0  0  0
 37 66  1  0  0  0
 37114  1  0  0  0
 38 43  2  0  0  0
 38 46  1  0  0  0
 38 47  1  0  0  0
 39 64  1  0  0  0
 39 67  2  0  0  0
 40 52  1  0  0  0
 40 53  2  0  0  0
 40 58  1  0  0  0
 41115  1  0  0  0
 41116  1  0  0  0
 41117  1  0  0  0
 41 48  1  0  0  0
 42 43  1  0  0  0
 42 66  1  0  0  0
 42118  1  0  0  0
 42119  1  0  0  0
 43 44  1  0  0  0
 44120  1  0  0  0
 45 46  2  0  0  0
 45121  1  0  0  0
 46122  1  0  0  0
 47123  1  0  0  0
 47124  1  0  0  0
 48 56  1  0  0  0
 48 65  1  0  0  0
 48125  1  0  0  0
 49 50  1  0  0  0
 49 53  1  0  0  0
 49 64  1  0  0  0
 49126  1  0  0  0
 50 51  1  0  0  0
 50127  1  0  0  0
 50128  1  0  0  0
 51 52  1  0  0  0
 51129  1  0  0  0
 51130  1  0  0  0
 52131  1  0  0  0
 52132  1  0  0  0
 53 54  1  0  0  0
 54 55  2  0  0  0
 54133  1  0  0  0
 55 57  1  0  0  0
 55134  1  0  0  0
 56 69  2  0  0  0
 57 58  2  0  0  0
 57135  1  0  0  0
 58136  1  0  0  0
 59 60  1  0  0  0
 59 61  1  0  0  0
 59 62  1  0  0  0
 60137  1  0  0  0
 60138  1  0  0  0
 60139  1  0  0  0
 61140  1  0  0  0
 61141  1  0  0  0
 61142  1  0  0  0
 62143  1  0  0  0
 62144  1  0  0  0
 62145  1  0  0  0
 63 65  1  0  0  0
 63146  1  0  0  0
 63147  1  0  0  0
 63148  1  0  0  0
 64149  1  0  0  0
 65150  1  0  0  0
 68 87  1  0  0  0
 71 73  2  0  0  0
 71 74  1  0  0  0
 71151  1  0  0  0
 72 73  1  0  0  0
 72 76  2  0  0  0
 72152  1  0  0  0
 73 89  1  0  0  0
 74 75  2  0  0  0
 74 82  1  0  0  0
 75 76  1  0  0  0
 75 77  1  0  0  0
 76 91  1  0  0  0
 77153  1  0  0  0
 77154  1  0  0  0
 77155  1  0  0  0
 78 86  1  0  0  0
 78156  1  0  0  0
 78157  1  0  0  0
 78158  1  0  0  0
 79159  1  0  0  0
 79160  1  0  0  0
 79161  1  0  0  0
 79 88  1  0  0  0
 80162  1  0  0  0
 80163  1  0  0  0
 80164  1  0  0  0
 80 89  1  0  0  0
 81 89  1  0  0  0
 81165  1  0  0  0
 81166  1  0  0  0
 81167  1  0  0  0
 82 85  1  0  0  0
 82168  1  0  0  0
 82169  1  0  0  0
 83 84  1  0  0  0
 83 87  1  0  0  0
 83170  1  0  0  0
 83171  1  0  0  0
 84 88  1  0  0  0
 84172  1  0  0  0
 84173  1  0  0  0
 85 90  1  0  0  0
 85174  1  0  0  0
 85175  1  0  0  0
 86 91  1  0  0  0
 86176  1  0  0  0
 86177  1  0  0  0
 87178  1  0  0  0
 87179  1  0  0  0
 88 90  1  0  0  0
 88180  1  0  0  0
 90181  1  0  0  0
 90182  1  0  0  0
M  CHG  1  90   1
M  ISO  4   1 100  68 101  87 101  89 100
M  END
> <chiral flag>
0

> <version>
0

> <s_m_source_file>
/data/baiqing/PycharmProjects/Reinvent-master-3.2/result/LINK_invent/BTK/process_docking_weight1_custom_sum_contain_oxygen_bond_distance_aromatic_linkinvent_7_9_3/rearranged_h_0020.sdf

> <i_m_source_file_index>
90

> <r_mmod_Potential_Energy-OPLS-2005>
-13.5984382629395

> <r_mmod_Stretch_Energy-OPLS-2005>
64.0795822143555

> <r_mmod_Bend_Energy-OPLS-2005>
153.087966918945

> <r_mmod_Torsional_Energy-OPLS-2005>
252.407928466797

> <r_mmod_Improper_Torsional_Energy-OPLS-2005>
3.61084604263306

> <r_mmod_Van_der_Waal_Energy-OPLS-2005>
183.045425415039

> <r_mmod_Electrostatic_Energy-OPLS-2005>
-248.299377441406

> <r_mmod_Solvation_Energy-OPLS-2005>
-435.808532714844

> <b_mmod_Minimization_Converged-OPLS-2005>
0

> <r_mmod_RMS_Derivative-OPLS-2005>
6.91331481933594

$$$$
90
                    3D
 Structure written by MMmdl.
156164  0  0  1  0            999 V2000
  -30.2647  -15.7832   20.3113 C   0  0  0  0  0  0
  -30.4146  -13.2006   19.5218 C   0  0  0  0  0  0
  -29.5513  -12.6884   18.3302 C   0  0  0  0  0  0
  -28.1454  -12.2871   18.7953 C   0  0  0  0  0  0
  -27.5920  -13.3161   19.8069 C   0  0  2  0  0  0
  -28.6021  -13.7247   20.9094 C   0  0  0  0  0  0
  -25.2339  -13.8285   20.5826 C   0  0  0  0  0  0
  -24.1724  -13.0422   20.9294 C   0  0  0  0  0  0
  -24.6440  -11.6935   20.8756 C   0  0  0  0  0  0
  -23.9144  -10.4291   21.0386 C   0  0  0  0  0  0
  -24.3677   -9.4203   21.9173 C   0  0  0  0  0  0
  -23.6324   -8.2251   22.0757 C   0  0  0  0  0  0
  -22.4306   -8.0301   21.3552 C   0  0  0  0  0  0
  -21.9962   -9.0276   20.4654 C   0  0  0  0  0  0
  -22.7312  -10.2137   20.3043 C   0  0  0  0  0  0
  -21.6864   -6.0766   22.5283 C   0  0  0  0  0  0
  -21.4012   -6.5662   23.8216 C   0  0  0  0  0  0
  -21.3640   -5.6809   24.9176 C   0  0  0  0  0  0
  -21.6039   -4.3070   24.7226 C   0  0  0  0  0  0
  -21.8819   -3.8172   23.4345 C   0  0  0  0  0  0
  -21.9196   -4.6994   22.3409 C   0  0  0  0  0  0
  -22.7738  -13.5151   21.1901 C   0  0  0  0  0  0
  -22.1665   -4.2178   21.0985 F   0  0  0  0  0  0
  -21.5612   -3.4551   25.7733 F   0  0  0  0  0  0
  -29.7452  -14.3984   20.2287 N   0  0  0  0  0  0
  -26.2788  -12.9633   20.3263 N   0  0  0  0  0  0
  -25.9387  -11.6691   20.5700 N   0  0  0  0  0  0
  -22.0388  -12.8145   22.0449 N   0  0  0  0  0  0
  -25.3901  -15.2031   20.4301 N   0  0  0  0  0  0
  -31.5033  -15.6657   20.2009 O   0  0  0  0  0  0
  -21.6644   -6.8915   21.4251 O   0  0  0  0  0  0
  -22.3412  -14.5448   20.6713 O   0  0  0  0  0  0
  -24.6930  -31.7935   23.1415 C   0  0  0  0  0  0
  -25.9465  -32.4454   23.8005 C   0  0  1  0  0  0
  -27.2338  -26.6127   20.2240 C   0  0  0  0  0  0
  -25.6017  -33.8270   24.1928 N   0  0  0  0  0  0
  -23.5238  -30.3920   21.4953 C   0  0  2  0  0  0
  -24.9856  -28.7163   20.1142 C   0  0  0  0  0  0
  -22.7826  -29.4275   22.4628 C   0  0  0  0  0  0
  -18.0354  -28.1493   22.8451 C   0  0  0  0  0  0
  -24.1460  -36.7120   23.2656 C   0  0  0  0  0  0
  -26.1084  -30.5011   21.4172 C   0  0  0  0  0  0
  -26.1763  -29.0525   20.7711 C   0  0  0  0  0  0
  -27.2782  -28.0297   20.7920 C   0  0  0  0  0  0
  -26.0091  -26.5095   19.5073 C   0  0  0  0  0  0
  -24.9480  -27.4714   19.4576 C   0  0  0  0  0  0
  -23.7903  -29.6888   20.1314 C   0  0  0  0  0  0
  -25.4121  -36.2874   24.0279 C   0  0  1  0  0  0
  -20.6004  -28.3844   23.1143 C   0  0  2  0  0  0
  -20.6822  -26.9488   22.5437 C   0  0  0  0  0  0
  -19.5784  -26.6427   21.5265 C   0  0  0  0  0  0
  -18.1967  -26.8019   22.1649 C   0  0  0  0  0  0
  -19.1631  -28.8986   23.2786 C   0  0  0  0  0  0
  -18.9525  -30.1564   23.8846 C   0  0  0  0  0  0
  -17.6525  -30.6661   24.0594 C   0  0  0  0  0  0
  -25.9123  -34.9278   23.4941 C   0  0  0  0  0  0
  -16.5415  -29.9168   23.6376 C   0  0  0  0  0  0
  -16.7341  -28.6601   23.0371 C   0  0  0  0  0  0
  -26.4612  -31.6486   25.0637 C   0  0  0  0  0  0
  -25.3630  -31.3872   26.1231 C   0  0  0  0  0  0
  -27.0555  -30.2811   24.6563 C   0  0  0  0  0  0
  -27.6051  -32.4343   25.7466 C   0  0  0  0  0  0
  -27.5535  -37.1728   24.8470 C   0  0  0  0  0  0
  -21.4465  -29.3076   22.3419 N   0  0  0  0  0  0
  -26.4217  -37.3672   23.9442 N   0  0  0  0  0  0
  -24.7995  -30.9307   22.0705 N   0  0  0  0  0  0
  -23.4254  -28.7873   23.2972 O   0  0  0  0  0  0
  -28.1796  -25.3486   20.3135 O   0  0  0  0  0  0
  -26.5748  -34.8866   22.4553 O   0  0  0  0  0  0
  -23.5935  -32.1014   23.6342 O   0  0  0  0  0  0
  -30.1135  -21.9985   21.1789 C   0  0  0  0  0  0
  -30.9267  -20.8591   21.5679 C   0  0  0  0  0  0
  -28.9256  -21.9091   20.4034 C   0  0  0  0  0  0
  -30.7757  -19.4849   21.1144 C   0  0  0  0  0  0
  -28.7472  -20.3045   20.1116 C   0  0  0  0  0  0
  -29.6276  -18.9636   20.4412 C   0  0  0  0  0  0
  -30.5172  -23.4111   21.6121 C   0  0  0  0  0  0
  -32.0063  -21.1316   22.6211 C   0  0  0  0  0  0
  -31.9334  -18.5121   21.3255 C   0  0  0  0  0  0
  -27.4852  -19.9812   19.3376 C   0  0  0  0  0  0
  -27.9994  -23.5612   20.0900 C   0  0  0  0  0  0
  -29.5155  -17.1989   20.2773 N   0  0  0  0  0  0
  -31.3878  -13.4959   19.1257 H   0  0  0  0  0  0
  -30.6311  -12.3959   20.2278 H   0  0  0  0  0  0
  -30.0413  -11.8494   17.8359 H   0  0  0  0  0  0
  -29.4718  -13.4828   17.5858 H   0  0  0  0  0  0
  -28.2166  -11.3107   19.2764 H   0  0  0  0  0  0
  -27.4708  -12.1659   17.9452 H   0  0  0  0  0  0
  -27.4305  -14.2103   19.2023 H   0  0  0  0  0  0
  -28.9087  -12.8702   21.5139 H   0  0  0  0  0  0
  -28.1368  -14.4337   21.5970 H   0  0  0  0  0  0
  -25.2813   -9.5675   22.4758 H   0  0  0  0  0  0
  -24.0018   -7.4650   22.7499 H   0  0  0  0  0  0
  -21.0881   -8.8820   19.8965 H   0  0  0  0  0  0
  -22.3779  -10.9679   19.6157 H   0  0  0  0  0  0
  -21.2006   -7.6167   23.9731 H   0  0  0  0  0  0
  -21.1441   -6.0534   25.9077 H   0  0  0  0  0  0
  -22.0606   -2.7638   23.2840 H   0  0  0  0  0  0
  -22.4033  -11.9846   22.4879 H   0  0  0  0  0  0
  -21.0991  -13.1150   22.2608 H   0  0  0  0  0  0
  -24.6196  -15.8470   20.5706 H   0  0  0  0  0  0
  -26.2351  -15.6560   20.1082 H   0  0  0  0  0  0
  -26.7544  -32.4953   23.0727 H   0  0  0  0  0  0
  -25.0137  -33.9280   25.0061 H   0  0  0  0  0  0
  -22.8522  -31.2310   21.3028 H   0  0  0  0  0  0
  -23.3752  -35.9420   23.3257 H   0  0  0  0  0  0
  -24.3516  -36.8843   22.2080 H   0  0  0  0  0  0
  -23.7174  -37.6269   23.6753 H   0  0  0  0  0  0
  -26.3156  -31.2217   20.6254 H   0  0  0  0  0  0
  -26.9557  -30.5814   22.0844 H   0  0  0  0  0  0
  -28.1671  -28.2955   21.3471 H   0  0  0  0  0  0
  -25.8294  -25.5696   19.0039 H   0  0  0  0  0  0
  -24.0533  -27.2064   18.9100 H   0  0  0  0  0  0
  -23.9932  -30.4567   19.3837 H   0  0  0  0  0  0
  -22.8892  -29.1813   19.7833 H   0  0  0  0  0  0
  -25.1332  -36.1610   25.0765 H   0  0  0  0  0  0
  -21.0110  -28.3492   24.1260 H   0  0  0  0  0  0
  -20.5749  -26.2468   23.3720 H   0  0  0  0  0  0
  -21.6672  -26.7463   22.1219 H   0  0  0  0  0  0
  -19.6936  -25.6322   21.1355 H   0  0  0  0  0  0
  -19.6739  -27.3183   20.6731 H   0  0  0  0  0  0
  -17.4259  -26.6797   21.4026 H   0  0  0  0  0  0
  -18.0282  -26.0208   22.9076 H   0  0  0  0  0  0
  -19.8002  -30.7403   24.2190 H   0  0  0  0  0  0
  -17.5088  -31.6312   24.5235 H   0  0  0  0  0  0
  -15.5425  -30.3089   23.7705 H   0  0  0  0  0  0
  -15.8732  -28.0932   22.7119 H   0  0  0  0  0  0
  -24.5827  -30.7193   25.7555 H   0  0  0  0  0  0
  -24.8811  -32.3137   26.4370 H   0  0  0  0  0  0
  -25.7792  -30.9246   27.0188 H   0  0  0  0  0  0
  -26.3264  -29.6378   24.1618 H   0  0  0  0  0  0
  -27.4037  -29.7320   25.5327 H   0  0  0  0  0  0
  -27.9244  -30.3936   24.0061 H   0  0  0  0  0  0
  -27.2589  -33.3747   26.1771 H   0  0  0  0  0  0
  -28.4023  -32.6734   25.0399 H   0  0  0  0  0  0
  -28.0499  -31.8615   26.5608 H   0  0  0  0  0  0
  -28.2553  -38.0027   24.7543 H   0  0  0  0  0  0
  -28.1035  -36.2573   24.6273 H   0  0  0  0  0  0
  -27.2272  -37.1351   25.8875 H   0  0  0  0  0  0
  -20.9755  -29.8779   21.6529 H   0  0  0  0  0  0
  -26.0031  -38.2707   24.1503 H   0  0  0  0  0  0
  -29.8592  -23.7748   22.4012 H   0  0  0  0  0  0
  -30.4469  -24.1028   20.7724 H   0  0  0  0  0  0
  -31.5450  -23.5075   21.9574 H   0  0  0  0  0  0
  -31.6231  -21.7866   23.4057 H   0  0  0  0  0  0
  -32.8930  -21.5947   22.1888 H   0  0  0  0  0  0
  -32.3087  -20.2416   23.1713 H   0  0  0  0  0  0
  -32.8805  -18.9695   21.6029 H   0  0  0  0  0  0
  -32.1509  -18.0369   20.3708 H   0  0  0  0  0  0
  -31.6919  -17.7487   22.0628 H   0  0  0  0  0  0
  -26.7819  -20.8132   19.3506 H   0  0  0  0  0  0
  -26.9862  -19.1101   19.7643 H   0  0  0  0  0  0
  -27.7361  -19.7559   18.3001 H   0  0  0  0  0  0
  -27.0404  -23.3725   20.5685 H   0  0  0  0  0  0
  -27.7656  -23.4914   19.0285 H   0  0  0  0  0  0
  -28.5421  -16.9608   20.1582 H   0  0  0  0  0  0
  1 25  1  0  0  0
  1 30  2  0  0  0
  1 82  1  0  0  0
  2  3  1  0  0  0
  2 25  1  0  0  0
  2 83  1  0  0  0
  2 84  1  0  0  0
  3  4  1  0  0  0
  3 85  1  0  0  0
  3 86  1  0  0  0
  4  5  1  0  0  0
  4 87  1  0  0  0
  4 88  1  0  0  0
  5  6  1  0  0  0
  5 26  1  0  0  0
  5 89  1  0  0  0
  6 25  1  0  0  0
  6 90  1  0  0  0
  6 91  1  0  0  0
  7  8  2  0  0  0
  7 26  1  0  0  0
  7 29  1  0  0  0
  8  9  1  0  0  0
  8 22  1  0  0  0
  9 10  1  0  0  0
  9 27  2  0  0  0
 10 11  2  0  0  0
 10 15  1  0  0  0
 11 12  1  0  0  0
 11 92  1  0  0  0
 12 13  2  0  0  0
 12 93  1  0  0  0
 13 14  1  0  0  0
 13 31  1  0  0  0
 14 15  2  0  0  0
 14 94  1  0  0  0
 15 95  1  0  0  0
 16 17  2  0  0  0
 16 21  1  0  0  0
 16 31  1  0  0  0
 17 18  1  0  0  0
 17 96  1  0  0  0
 18 19  2  0  0  0
 18 97  1  0  0  0
 19 20  1  0  0  0
 19 24  1  0  0  0
 20 21  2  0  0  0
 20 98  1  0  0  0
 21 23  1  0  0  0
 22 28  1  0  0  0
 22 32  2  0  0  0
 26 27  1  0  0  0
 28 99  1  0  0  0
 28100  1  0  0  0
 29101  1  0  0  0
 29102  1  0  0  0
 33 34  1  0  0  0
 33 66  1  0  0  0
 33 70  2  0  0  0
 34 36  1  0  0  0
 34 59  1  0  0  0
 34103  1  0  0  0
 35 44  2  0  0  0
 35 45  1  0  0  0
 35 68  1  0  0  0
 36 56  1  0  0  0
 36104  1  0  0  0
 37 39  1  0  0  0
 37 47  1  0  0  0
 37 66  1  0  0  0
 37105  1  0  0  0
 38 43  2  0  0  0
 38 46  1  0  0  0
 38 47  1  0  0  0
 39 64  1  0  0  0
 39 67  2  0  0  0
 40 52  1  0  0  0
 40 53  2  0  0  0
 40 58  1  0  0  0
 41106  1  0  0  0
 41107  1  0  0  0
 41108  1  0  0  0
 41 48  1  0  0  0
 42 43  1  0  0  0
 42 66  1  0  0  0
 42109  1  0  0  0
 42110  1  0  0  0
 43 44  1  0  0  0
 44111  1  0  0  0
 45 46  2  0  0  0
 45112  1  0  0  0
 46113  1  0  0  0
 47114  1  0  0  0
 47115  1  0  0  0
 48 56  1  0  0  0
 48 65  1  0  0  0
 48116  1  0  0  0
 49 50  1  0  0  0
 49 53  1  0  0  0
 49 64  1  0  0  0
 49117  1  0  0  0
 50 51  1  0  0  0
 50118  1  0  0  0
 50119  1  0  0  0
 51 52  1  0  0  0
 51120  1  0  0  0
 51121  1  0  0  0
 52122  1  0  0  0
 52123  1  0  0  0
 53 54  1  0  0  0
 54 55  2  0  0  0
 54124  1  0  0  0
 55 57  1  0  0  0
 55125  1  0  0  0
 56 69  2  0  0  0
 57 58  2  0  0  0
 57126  1  0  0  0
 58127  1  0  0  0
 59 60  1  0  0  0
 59 61  1  0  0  0
 59 62  1  0  0  0
 60128  1  0  0  0
 60129  1  0  0  0
 60130  1  0  0  0
 61131  1  0  0  0
 61132  1  0  0  0
 61133  1  0  0  0
 62134  1  0  0  0
 62135  1  0  0  0
 62136  1  0  0  0
 63 65  1  0  0  0
 63137  1  0  0  0
 63138  1  0  0  0
 63139  1  0  0  0
 64140  1  0  0  0
 65141  1  0  0  0
 68 81  1  0  0  0
 71 72  2  0  0  0
 71 73  1  0  0  0
 71 77  1  0  0  0
 72 74  1  0  0  0
 72 78  1  0  0  0
 73 75  2  0  0  0
 73 81  1  0  0  0
 74 76  2  0  0  0
 74 79  1  0  0  0
 75 76  1  0  0  0
 75 80  1  0  0  0
 76 82  1  0  0  0
 77142  1  0  0  0
 77143  1  0  0  0
 77144  1  0  0  0
 78145  1  0  0  0
 78146  1  0  0  0
 78147  1  0  0  0
 79148  1  0  0  0
 79149  1  0  0  0
 79150  1  0  0  0
 80151  1  0  0  0
 80152  1  0  0  0
 80153  1  0  0  0
 81154  1  0  0  0
 81155  1  0  0  0
 82156  1  0  0  0
M  ISO  4   1 100  68 101  81 101  82 100
M  END
> <chiral flag>
0

> <version>
0

> <s_m_source_file>
/data/baiqing/PycharmProjects/Reinvent-master-3.2/result/LINK_invent/BTK/process_docking_weight1_custom_sum_contain_oxygen_bond_distance_aromatic_linkinvent_7_9_3/rearranged_h_0020.sdf

> <i_m_source_file_index>
91

> <r_mmod_Potential_Energy-OPLS-2005>
2842.55297851562

> <r_mmod_Stretch_Energy-OPLS-2005>
1283.482421875

> <r_mmod_Bend_Energy-OPLS-2005>
645.373840332031

> <r_mmod_Torsional_Energy-OPLS-2005>
245.609115600586

> <r_mmod_Improper_Torsional_Energy-OPLS-2005>
6.08743095397949

> <r_mmod_Van_der_Waal_Energy-OPLS-2005>
149.655014038086

> <r_mmod_Electrostatic_Energy-OPLS-2005>
-401.2529296875

> <r_mmod_Solvation_Energy-OPLS-2005>
-206.451370239258

> <b_mmod_Minimization_Converged-OPLS-2005>
0

> <r_mmod_RMS_Derivative-OPLS-2005>
4.1846866607666

$$$$
91
                    3D
 Structure written by MMmdl.
183191  0  0  1  0            999 V2000
  -30.8113  -14.4755   20.6199 C   0  0  0  0  0  0
  -30.4081  -12.3274   19.4846 C   0  0  0  0  0  0
  -29.5112  -12.5284   18.2479 C   0  0  0  0  0  0
  -28.0379  -12.3788   18.6488 C   0  0  0  0  0  0
  -27.6670  -13.2315   19.8899 C   0  0  2  0  0  0
  -28.7037  -13.0909   21.0343 C   0  0  0  0  0  0
  -25.2627  -13.8225   20.5724 C   0  0  0  0  0  0
  -24.1873  -13.0472   20.9117 C   0  0  0  0  0  0
  -24.6438  -11.6932   20.8674 C   0  0  0  0  0  0
  -23.9095  -10.4311   21.0313 C   0  0  0  0  0  0
  -24.3654   -9.4225   21.9108 C   0  0  0  0  0  0
  -23.6314   -8.2267   22.0692 C   0  0  0  0  0  0
  -22.4280   -8.0332   21.3509 C   0  0  0  0  0  0
  -21.9907   -9.0291   20.4605 C   0  0  0  0  0  0
  -22.7254  -10.2136   20.2967 C   0  0  0  0  0  0
  -21.6854   -6.0772   22.5258 C   0  0  0  0  0  0
  -21.4040   -6.5667   23.8203 C   0  0  0  0  0  0
  -21.3636   -5.6798   24.9154 C   0  0  0  0  0  0
  -21.6008   -4.3059   24.7188 C   0  0  0  0  0  0
  -21.8825   -3.8181   23.4302 C   0  0  0  0  0  0
  -21.9196   -4.7007   22.3379 C   0  0  0  0  0  0
  -22.7893  -13.5229   21.1815 C   0  0  0  0  0  0
  -22.1678   -4.2203   21.0953 F   0  0  0  0  0  0
  -21.5572   -3.4535   25.7687 F   0  0  0  0  0  0
  -30.0443  -13.3475   20.4908 N   0  0  0  0  0  0
  -26.3091  -12.9416   20.3445 N   0  0  0  0  0  0
  -25.9394  -11.6550   20.5772 N   0  0  0  0  0  0
  -22.0592  -12.8193   22.0390 N   0  0  0  0  0  0
  -25.4392  -15.1934   20.4166 N   0  0  0  0  0  0
  -31.8564  -14.5804   19.9746 O   0  0  0  0  0  0
  -21.6634   -6.8929   21.4222 O   0  0  0  0  0  0
  -22.3572  -14.5565   20.6726 O   0  0  0  0  0  0
  -24.6181  -31.8651   23.2143 C   0  0  0  0  0  0
  -25.9084  -32.4799   23.8433 C   0  0  1  0  0  0
  -27.2272  -27.4227   20.1371 C   0  0  0  0  0  0
  -25.5963  -33.8610   24.2380 N   0  0  0  0  0  0
  -23.4058  -30.4892   21.5497 C   0  0  2  0  0  0
  -24.8524  -28.9503   20.1160 C   0  0  0  0  0  0
  -22.7416  -29.4645   22.4994 C   0  0  0  0  0  0
  -18.0281  -28.1350   22.8481 C   0  0  0  0  0  0
  -24.1464  -36.7300   23.2644 C   0  0  0  0  0  0
  -25.9341  -30.8277   21.3691 C   0  0  0  0  0  0
  -26.0100  -29.4647   20.7141 C   0  0  0  0  0  0
  -27.2064  -28.7099   20.7162 C   0  0  0  0  0  0
  -26.0579  -26.9147   19.5368 C   0  0  0  0  0  0
  -24.8708  -27.6766   19.5202 C   0  0  0  0  0  0
  -23.6154  -29.8203   20.1637 C   0  0  0  0  0  0
  -25.4077  -36.3122   24.0370 C   0  0  1  0  0  0
  -20.5861  -28.3649   23.1323 C   0  0  2  0  0  0
  -20.6762  -26.9391   22.5416 C   0  0  0  0  0  0
  -19.5748  -26.6372   21.5212 C   0  0  0  0  0  0
  -18.1924  -26.7907   22.1604 C   0  0  0  0  0  0
  -19.1525  -28.8828   23.2878 C   0  0  0  0  0  0
  -18.9440  -30.1435   23.8859 C   0  0  0  0  0  0
  -17.6434  -30.6563   24.0531 C   0  0  0  0  0  0
  -25.9022  -34.9481   23.5159 C   0  0  0  0  0  0
  -16.5325  -29.9035   23.6340 C   0  0  0  0  0  0
  -16.7260  -28.6462   23.0353 C   0  0  0  0  0  0
  -26.4499  -31.6616   25.0790 C   0  0  0  0  0  0
  -25.3780  -31.3708   26.1561 C   0  0  0  0  0  0
  -27.0371  -30.3072   24.6226 C   0  0  0  0  0  0
  -27.6064  -32.4379   25.7536 C   0  0  0  0  0  0
  -27.5581  -37.1782   24.8439 C   0  0  0  0  0  0
  -21.4151  -29.2996   22.3723 N   0  0  0  0  0  0
  -26.4260  -37.3822   23.9457 N   0  0  0  0  0  0
  -24.6698  -31.0756   22.1003 N   0  0  0  0  0  0
  -23.4198  -28.8220   23.3050 O   0  0  0  0  0  0
  -28.3684  -26.6506   20.1754 O   0  0  0  0  0  0
  -26.5559  -34.8924   22.4691 O   0  0  0  0  0  0
  -23.5384  -32.1390   23.7558 O   0  0  0  0  0  0
  -33.7998  -17.4015   22.1394 C   0  0  0  0  0  0
  -32.3650  -17.4923   24.2505 C   0  0  0  0  0  0
  -32.4203  -17.1553   21.5118 C   0  0  0  0  0  0
  -31.4108  -16.3711   23.7480 C   0  0  0  0  0  0
  -33.8061  -17.3214   23.6911 C   0  0  2  0  0  0
  -31.6445  -16.0226   22.2508 C   0  0  1  0  0  0
  -36.2549  -18.0605   23.6273 C   0  0  0  0  0  0
  -35.1474  -17.7810   25.8151 C   0  0  0  0  0  0
  -34.4804  -19.7109   24.3728 C   0  0  0  0  0  0
  -28.6508  -20.3411   21.5067 C   0  0  0  0  0  0
  -28.5776  -21.5616   20.5473 C   0  0  0  0  0  0
  -28.8189  -18.9815   20.7829 C   0  0  0  0  0  0
  -28.5086  -22.9310   21.2821 C   0  0  0  0  0  0
  -29.1664  -17.7687   21.6912 C   0  0  0  0  0  0
  -28.4896  -24.1727   20.3460 C   0  0  0  0  0  0
  -29.6272  -16.5369   20.8484 C   0  0  0  0  0  0
  -28.2977  -25.5265   21.0760 C   0  0  0  0  0  0
  -34.8992  -18.2235   24.3597 C   0  0  0  0  0  0
  -30.4669  -15.4807   21.4889 N   0  0  0  0  0  0
  -31.4609  -12.3636   19.1973 H   0  0  0  0  0  0
  -30.2674  -11.3315   19.9090 H   0  0  0  0  0  0
  -29.7665  -11.8026   17.4772 H   0  0  0  0  0  0
  -29.6821  -13.5135   17.8118 H   0  0  0  0  0  0
  -27.8618  -11.3243   18.8627 H   0  0  0  0  0  0
  -27.3910  -12.6395   17.8125 H   0  0  0  0  0  0
  -27.6899  -14.2674   19.5607 H   0  0  0  0  0  0
  -28.6746  -12.0861   21.4592 H   0  0  0  0  0  0
  -28.4651  -13.7688   21.8557 H   0  0  0  0  0  0
  -25.2801   -9.5724   22.4674 H   0  0  0  0  0  0
  -24.0026   -7.4648   22.7414 H   0  0  0  0  0  0
  -21.0806   -8.8811   19.8957 H   0  0  0  0  0  0
  -22.3705  -10.9664   19.6073 H   0  0  0  0  0  0
  -21.2098   -7.6174   23.9727 H   0  0  0  0  0  0
  -21.1404   -6.0511   25.9041 H   0  0  0  0  0  0
  -22.0629   -2.7653   23.2745 H   0  0  0  0  0  0
  -22.4262  -11.9834   22.4695 H   0  0  0  0  0  0
  -21.1210  -13.1187   22.2675 H   0  0  0  0  0  0
  -24.6863  -15.8620   20.5270 H   0  0  0  0  0  0
  -26.3097  -15.6275   20.1412 H   0  0  0  0  0  0
  -26.7149  -32.5513   23.1196 H   0  0  0  0  0  0
  -25.0220  -33.9750   25.0617 H   0  0  0  0  0  0
  -22.6943  -31.3059   21.4113 H   0  0  0  0  0  0
  -23.3791  -35.9566   23.3215 H   0  0  0  0  0  0
  -24.3581  -36.9004   22.2069 H   0  0  0  0  0  0
  -23.7100  -37.6437   23.6689 H   0  0  0  0  0  0
  -26.0608  -31.5998   20.6091 H   0  0  0  0  0  0
  -26.8135  -30.8685   21.9993 H   0  0  0  0  0  0
  -28.0939  -29.0980   21.1934 H   0  0  0  0  0  0
  -26.0640  -25.9247   19.0977 H   0  0  0  0  0  0
  -23.9813  -27.2638   19.0648 H   0  0  0  0  0  0
  -23.7222  -30.5925   19.4010 H   0  0  0  0  0  0
  -22.7374  -29.2382   19.8719 H   0  0  0  0  0  0
  -25.1235  -36.1982   25.0864 H   0  0  0  0  0  0
  -20.9937  -28.3176   24.1433 H   0  0  0  0  0  0
  -20.5676  -26.2229   23.3580 H   0  0  0  0  0  0
  -21.6620  -26.7415   22.1167 H   0  0  0  0  0  0
  -19.6879  -25.6291   21.1202 H   0  0  0  0  0  0
  -19.6712  -27.3202   20.6755 H   0  0  0  0  0  0
  -17.4212  -26.6739   21.3953 H   0  0  0  0  0  0
  -18.0231  -26.0028   22.8956 H   0  0  0  0  0  0
  -19.7929  -30.7260   24.2192 H   0  0  0  0  0  0
  -17.4996  -31.6240   24.5124 H   0  0  0  0  0  0
  -15.5318  -30.2907   23.7679 H   0  0  0  0  0  0
  -15.8672  -28.0756   22.7066 H   0  0  0  0  0  0
  -24.5973  -30.7021   25.7914 H   0  0  0  0  0  0
  -24.8965  -32.2848   26.5046 H   0  0  0  0  0  0
  -25.8181  -30.8877   27.0307 H   0  0  0  0  0  0
  -26.2934  -29.6785   24.1310 H   0  0  0  0  0  0
  -27.4134  -29.7371   25.4734 H   0  0  0  0  0  0
  -27.8782  -30.4389   23.9419 H   0  0  0  0  0  0
  -27.2661  -33.3674   26.2114 H   0  0  0  0  0  0
  -28.3853  -32.6950   25.0345 H   0  0  0  0  0  0
  -28.0768  -31.8533   26.5453 H   0  0  0  0  0  0
  -28.2503  -38.0176   24.7672 H   0  0  0  0  0  0
  -28.1187  -36.2733   24.6039 H   0  0  0  0  0  0
  -27.2356  -37.1124   25.8848 H   0  0  0  0  0  0
  -20.9328  -29.8692   21.6918 H   0  0  0  0  0  0
  -26.0164  -38.2895   24.1571 H   0  0  0  0  0  0
  -34.1463  -18.3730   21.7894 H   0  0  0  0  0  0
  -34.5078  -16.6714   21.7457 H   0  0  0  0  0  0
  -32.3654  -17.4954   25.3397 H   0  0  0  0  0  0
  -31.9690  -18.4654   23.9571 H   0  0  0  0  0  0
  -32.5478  -16.9446   20.4498 H   0  0  0  0  0  0
  -31.8717  -18.0945   21.5328 H   0  0  0  0  0  0
  -30.3753  -16.6358   23.9622 H   0  0  0  0  0  0
  -31.5988  -15.4789   24.3453 H   0  0  0  0  0  0
  -34.0833  -16.2937   23.9302 H   0  0  0  0  0  0
  -32.3746  -15.2138   22.3336 H   0  0  0  0  0  0
  -36.5512  -17.0095   23.5760 H   0  0  0  0  0  0
  -37.0609  -18.5935   24.1368 H   0  0  0  0  0  0
  -36.2387  -18.4377   22.6043 H   0  0  0  0  0  0
  -35.4747  -16.7419   25.8660 H   0  0  0  0  0  0
  -34.2624  -17.8780   26.4393 H   0  0  0  0  0  0
  -35.9262  -18.3882   26.2816 H   0  0  0  0  0  0
  -34.2182  -20.0814   23.3812 H   0  0  0  0  0  0
  -35.2779  -20.3478   24.7610 H   0  0  0  0  0  0
  -33.6137  -19.8687   25.0173 H   0  0  0  0  0  0
  -27.7566  -20.3096   22.1333 H   0  0  0  0  0  0
  -29.4976  -20.4870   22.1794 H   0  0  0  0  0  0
  -27.7131  -21.4612   19.8875 H   0  0  0  0  0  0
  -29.4463  -21.5471   19.8895 H   0  0  0  0  0  0
  -29.6232  -19.1079   20.0571 H   0  0  0  0  0  0
  -27.9254  -18.7516   20.1995 H   0  0  0  0  0  0
  -29.3622  -23.0123   21.9580 H   0  0  0  0  0  0
  -27.6233  -22.9479   21.9184 H   0  0  0  0  0  0
  -28.3161  -17.5038   22.3213 H   0  0  0  0  0  0
  -29.9346  -18.0988   22.3824 H   0  0  0  0  0  0
  -27.6893  -24.0612   19.6157 H   0  0  0  0  0  0
  -29.4165  -24.2063   19.7726 H   0  0  0  0  0  0
  -30.1882  -16.9138   19.9897 H   0  0  0  0  0  0
  -28.7335  -16.0848   20.4179 H   0  0  0  0  0  0
  -29.0781  -25.6584   21.8273 H   0  0  0  0  0  0
  -27.3594  -25.5116   21.6402 H   0  0  0  0  0  0
  1 25  1  0  0  0
  1 30  2  0  0  0
  1 89  1  0  0  0
  2  3  1  0  0  0
  2 25  1  0  0  0
  2 90  1  0  0  0
  2 91  1  0  0  0
  3  4  1  0  0  0
  3 92  1  0  0  0
  3 93  1  0  0  0
  4  5  1  0  0  0
  4 94  1  0  0  0
  4 95  1  0  0  0
  5  6  1  0  0  0
  5 26  1  0  0  0
  5 96  1  0  0  0
  6 25  1  0  0  0
  6 97  1  0  0  0
  6 98  1  0  0  0
  7  8  2  0  0  0
  7 26  1  0  0  0
  7 29  1  0  0  0
  8  9  1  0  0  0
  8 22  1  0  0  0
  9 10  1  0  0  0
  9 27  2  0  0  0
 10 11  2  0  0  0
 10 15  1  0  0  0
 11 12  1  0  0  0
 11 99  1  0  0  0
 12 13  2  0  0  0
 12100  1  0  0  0
 13 14  1  0  0  0
 13 31  1  0  0  0
 14 15  2  0  0  0
 14101  1  0  0  0
 15102  1  0  0  0
 16 17  2  0  0  0
 16 21  1  0  0  0
 16 31  1  0  0  0
 17 18  1  0  0  0
 17103  1  0  0  0
 18 19  2  0  0  0
 18104  1  0  0  0
 19 20  1  0  0  0
 19 24  1  0  0  0
 20 21  2  0  0  0
 20105  1  0  0  0
 21 23  1  0  0  0
 22 28  1  0  0  0
 22 32  2  0  0  0
 26 27  1  0  0  0
 28106  1  0  0  0
 28107  1  0  0  0
 29108  1  0  0  0
 29109  1  0  0  0
 33 34  1  0  0  0
 33 66  1  0  0  0
 33 70  2  0  0  0
 34 36  1  0  0  0
 34 59  1  0  0  0
 34110  1  0  0  0
 35 44  2  0  0  0
 35 45  1  0  0  0
 35 68  1  0  0  0
 36 56  1  0  0  0
 36111  1  0  0  0
 37 39  1  0  0  0
 37 47  1  0  0  0
 37 66  1  0  0  0
 37112  1  0  0  0
 38 43  2  0  0  0
 38 46  1  0  0  0
 38 47  1  0  0  0
 39 64  1  0  0  0
 39 67  2  0  0  0
 40 52  1  0  0  0
 40 53  2  0  0  0
 40 58  1  0  0  0
 41113  1  0  0  0
 41114  1  0  0  0
 41115  1  0  0  0
 41 48  1  0  0  0
 42 43  1  0  0  0
 42 66  1  0  0  0
 42116  1  0  0  0
 42117  1  0  0  0
 43 44  1  0  0  0
 44118  1  0  0  0
 45 46  2  0  0  0
 45119  1  0  0  0
 46120  1  0  0  0
 47121  1  0  0  0
 47122  1  0  0  0
 48 56  1  0  0  0
 48 65  1  0  0  0
 48123  1  0  0  0
 49 50  1  0  0  0
 49 53  1  0  0  0
 49 64  1  0  0  0
 49124  1  0  0  0
 50 51  1  0  0  0
 50125  1  0  0  0
 50126  1  0  0  0
 51 52  1  0  0  0
 51127  1  0  0  0
 51128  1  0  0  0
 52129  1  0  0  0
 52130  1  0  0  0
 53 54  1  0  0  0
 54 55  2  0  0  0
 54131  1  0  0  0
 55 57  1  0  0  0
 55132  1  0  0  0
 56 69  2  0  0  0
 57 58  2  0  0  0
 57133  1  0  0  0
 58134  1  0  0  0
 59 60  1  0  0  0
 59 61  1  0  0  0
 59 62  1  0  0  0
 60135  1  0  0  0
 60136  1  0  0  0
 60137  1  0  0  0
 61138  1  0  0  0
 61139  1  0  0  0
 61140  1  0  0  0
 62141  1  0  0  0
 62142  1  0  0  0
 62143  1  0  0  0
 63 65  1  0  0  0
 63144  1  0  0  0
 63145  1  0  0  0
 63146  1  0  0  0
 64147  1  0  0  0
 65148  1  0  0  0
 68 87  1  0  0  0
 71 73  1  0  0  0
 71149  1  0  0  0
 71150  1  0  0  0
 71 75  1  0  0  0
 72 74  1  0  0  0
 72 75  1  0  0  0
 72151  1  0  0  0
 72152  1  0  0  0
 73 76  1  0  0  0
 73153  1  0  0  0
 73154  1  0  0  0
 74 76  1  0  0  0
 74155  1  0  0  0
 74156  1  0  0  0
 75 88  1  0  0  0
 75157  1  0  0  0
 76 89  1  0  0  0
 76158  1  0  0  0
 77159  1  0  0  0
 77160  1  0  0  0
 77161  1  0  0  0
 77 88  1  0  0  0
 78 88  1  0  0  0
 78162  1  0  0  0
 78163  1  0  0  0
 78164  1  0  0  0
 79 88  1  0  0  0
 79165  1  0  0  0
 79166  1  0  0  0
 79167  1  0  0  0
 80 81  1  0  0  0
 80 82  1  0  0  0
 80168  1  0  0  0
 80169  1  0  0  0
 81 83  1  0  0  0
 81170  1  0  0  0
 81171  1  0  0  0
 82 84  1  0  0  0
 82172  1  0  0  0
 82173  1  0  0  0
 83 85  1  0  0  0
 83174  1  0  0  0
 83175  1  0  0  0
 84 86  1  0  0  0
 84176  1  0  0  0
 84177  1  0  0  0
 85 87  1  0  0  0
 85178  1  0  0  0
 85179  1  0  0  0
 86 89  1  0  0  0
 86180  1  0  0  0
 86181  1  0  0  0
 87182  1  0  0  0
 87183  1  0  0  0
M  ISO  4   1 100  68 101  87 101  89 100
M  END
> <chiral flag>
0

> <version>
0

> <s_m_source_file>
/data/baiqing/PycharmProjects/Reinvent-master-3.2/result/LINK_invent/BTK/process_docking_weight1_custom_sum_contain_oxygen_bond_distance_aromatic_linkinvent_7_9_3/rearranged_h_0020.sdf

> <i_m_source_file_index>
92

> <r_mmod_Potential_Energy-OPLS-2005>
313.568878173828

> <r_mmod_Stretch_Energy-OPLS-2005>
54.8216743469238

> <r_mmod_Bend_Energy-OPLS-2005>
146.696990966797

> <r_mmod_Torsional_Energy-OPLS-2005>
378.794494628906

> <r_mmod_Improper_Torsional_Energy-OPLS-2005>
6.5454478263855

> <r_mmod_Van_der_Waal_Energy-OPLS-2005>
157.114593505859

> <r_mmod_Electrostatic_Energy-OPLS-2005>
-287.371948242188

> <r_mmod_Solvation_Energy-OPLS-2005>
-164.501510620117

> <b_mmod_Minimization_Converged-OPLS-2005>
0

> <r_mmod_RMS_Derivative-OPLS-2005>
5.54198884963989

$$$$
92
                    3D
 Structure written by MMmdl.
171179  0  0  1  0            999 V2000
  -30.6264  -14.5798   20.5301 C   0  0  0  0  0  0
  -30.4450  -12.3590   19.4466 C   0  0  0  0  0  0
  -29.5149  -12.4971   18.2207 C   0  0  0  0  0  0
  -28.0341  -12.3492   18.6276 C   0  0  0  0  0  0
  -27.6631  -13.2059   19.8693 C   0  0  2  0  0  0
  -28.7023  -13.0219   20.9982 C   0  0  0  0  0  0
  -25.2628  -13.8152   20.5664 C   0  0  0  0  0  0
  -24.1872  -13.0445   20.9158 C   0  0  0  0  0  0
  -24.6418  -11.6905   20.8721 C   0  0  0  0  0  0
  -23.9079  -10.4294   21.0399 C   0  0  0  0  0  0
  -24.3628   -9.4217   21.9189 C   0  0  0  0  0  0
  -23.6298   -8.2261   22.0763 C   0  0  0  0  0  0
  -22.4287   -8.0295   21.3549 C   0  0  0  0  0  0
  -21.9918   -9.0269   20.4655 C   0  0  0  0  0  0
  -22.7245  -10.2145   20.3053 C   0  0  0  0  0  0
  -21.6861   -6.0750   22.5285 C   0  0  0  0  0  0
  -21.4014   -6.5648   23.8222 C   0  0  0  0  0  0
  -21.3648   -5.6795   24.9178 C   0  0  0  0  0  0
  -21.6046   -4.3057   24.7225 C   0  0  0  0  0  0
  -21.8820   -3.8156   23.4346 C   0  0  0  0  0  0
  -21.9194   -4.6979   22.3405 C   0  0  0  0  0  0
  -22.7898  -13.5257   21.1831 C   0  0  0  0  0  0
  -22.1667   -4.2165   21.0983 F   0  0  0  0  0  0
  -21.5619   -3.4543   25.7734 F   0  0  0  0  0  0
  -30.0244  -13.3572   20.4458 N   0  0  0  0  0  0
  -26.3053  -12.9317   20.3324 N   0  0  0  0  0  0
  -25.9343  -11.6487   20.5751 N   0  0  0  0  0  0
  -22.0525  -12.8255   22.0374 N   0  0  0  0  0  0
  -25.4371  -15.1870   20.4084 N   0  0  0  0  0  0
  -31.7796  -14.7691   20.1287 O   0  0  0  0  0  0
  -21.6639   -6.8897   21.4253 O   0  0  0  0  0  0
  -22.3595  -14.5583   20.6693 O   0  0  0  0  0  0
  -24.6225  -31.8631   23.2051 C   0  0  0  0  0  0
  -25.9076  -32.4796   23.8383 C   0  0  1  0  0  0
  -27.2205  -27.3486   20.1189 C   0  0  0  0  0  0
  -25.5878  -33.8594   24.2296 N   0  0  0  0  0  0
  -23.4133  -30.4904   21.5454 C   0  0  2  0  0  0
  -24.8584  -28.9521   20.1088 C   0  0  0  0  0  0
  -22.7452  -29.4632   22.4912 C   0  0  0  0  0  0
  -18.0286  -28.1378   22.8462 C   0  0  0  0  0  0
  -24.1477  -36.7319   23.2655 C   0  0  0  0  0  0
  -25.9523  -30.8054   21.3696 C   0  0  0  0  0  0
  -26.0254  -29.4362   20.7136 C   0  0  0  0  0  0
  -27.2084  -28.6467   20.7098 C   0  0  0  0  0  0
  -26.0309  -26.9122   19.4881 C   0  0  0  0  0  0
  -24.8630  -27.6945   19.4869 C   0  0  0  0  0  0
  -23.6277  -29.8324   20.1572 C   0  0  0  0  0  0
  -25.4081  -36.3093   24.0363 C   0  0  1  0  0  0
  -20.5885  -28.3677   23.1271 C   0  0  2  0  0  0
  -20.6776  -26.9405   22.5400 C   0  0  0  0  0  0
  -19.5754  -26.6360   21.5209 C   0  0  0  0  0  0
  -18.1932  -26.7916   22.1620 C   0  0  0  0  0  0
  -19.1549  -28.8838   23.2861 C   0  0  0  0  0  0
  -18.9483  -30.1436   23.8894 C   0  0  0  0  0  0
  -17.6492  -30.6589   24.0562 C   0  0  0  0  0  0
  -25.9024  -34.9477   23.5126 C   0  0  0  0  0  0
  -16.5375  -29.9101   23.6324 C   0  0  0  0  0  0
  -16.7280  -28.6517   23.0318 C   0  0  0  0  0  0
  -26.4450  -31.6592   25.0748 C   0  0  0  0  0  0
  -25.3673  -31.3767   26.1476 C   0  0  0  0  0  0
  -27.0307  -30.3034   24.6158 C   0  0  0  0  0  0
  -27.6010  -32.4333   25.7506 C   0  0  0  0  0  0
  -27.5565  -37.1797   24.8462 C   0  0  0  0  0  0
  -21.4169  -29.3056   22.3685 N   0  0  0  0  0  0
  -26.4273  -37.3763   23.9431 N   0  0  0  0  0  0
  -24.6813  -31.0670   22.0988 N   0  0  0  0  0  0
  -23.4210  -28.8147   23.2955 O   0  0  0  0  0  0
  -28.3444  -26.5203   20.1833 O   0  0  0  0  0  0
  -26.5612  -34.8949   22.4712 O   0  0  0  0  0  0
  -23.5391  -32.1412   23.7392 O   0  0  0  0  0  0
  -30.0484  -19.1234   19.4536 C   0  0  0  0  0  0
  -29.6452  -19.2813   21.8522 C   0  0  0  0  0  0
  -29.8903  -19.9498   20.6130 C   0  0  0  0  0  0
  -30.0191  -17.6898   19.5451 C   0  0  0  0  0  0
  -29.7010  -17.8526   21.9551 C   0  0  0  0  0  0
  -29.9056  -17.0372   20.8072 C   0  0  0  0  0  0
  -30.2489  -19.7569   18.0775 C   0  0  0  0  0  0
  -29.3214  -20.1097   23.0959 C   0  0  0  0  0  0
  -30.0969  -16.8318   18.2787 C   0  0  0  0  0  0
  -29.5503  -17.1722   23.3176 C   0  0  0  0  0  0
  -30.5758  -24.5156   19.7482 C   0  0  0  0  0  0
  -29.5463  -24.3377   22.0368 C   0  0  0  0  0  0
  -30.1517  -21.5065   20.5889 C   0  0  0  0  0  0
  -29.0022  -22.5539   20.2674 C   0  0  0  0  0  0
  -28.1409  -25.0665   20.0565 C   0  0  0  0  0  0
  -29.3122  -24.1066   20.5267 C   0  0  0  0  0  0
  -29.8118  -15.5921   20.9425 N   0  0  0  0  0  0
  -31.4857  -12.4871   19.1456 H   0  0  0  0  0  0
  -30.3812  -11.3550   19.8695 H   0  0  0  0  0  0
  -29.7716  -11.7448   17.4729 H   0  0  0  0  0  0
  -29.6738  -13.4646   17.7438 H   0  0  0  0  0  0
  -27.8586  -11.2944   18.8455 H   0  0  0  0  0  0
  -27.3856  -12.5988   17.7873 H   0  0  0  0  0  0
  -27.6953  -14.2473   19.5510 H   0  0  0  0  0  0
  -28.7016  -11.9923   21.3608 H   0  0  0  0  0  0
  -28.4510  -13.6341   21.8649 H   0  0  0  0  0  0
  -25.2784   -9.5696   22.4759 H   0  0  0  0  0  0
  -24.0009   -7.4656   22.7483 H   0  0  0  0  0  0
  -21.0858   -8.8797   19.8957 H   0  0  0  0  0  0
  -22.3724  -10.9690   19.6157 H   0  0  0  0  0  0
  -21.2010   -7.6156   23.9734 H   0  0  0  0  0  0
  -21.1463   -6.0519   25.9081 H   0  0  0  0  0  0
  -22.0607   -2.7621   23.2843 H   0  0  0  0  0  0
  -22.4116  -11.9896   22.4739 H   0  0  0  0  0  0
  -21.1154  -13.1308   22.2578 H   0  0  0  0  0  0
  -24.6732  -15.8446   20.5179 H   0  0  0  0  0  0
  -26.2968  -15.6292   20.1081 H   0  0  0  0  0  0
  -26.7177  -32.5492   23.1175 H   0  0  0  0  0  0
  -24.9985  -33.9757   25.0404 H   0  0  0  0  0  0
  -22.7037  -31.3100   21.4063 H   0  0  0  0  0  0
  -23.3731  -35.9660   23.3304 H   0  0  0  0  0  0
  -24.3591  -36.8945   22.2074 H   0  0  0  0  0  0
  -23.7256  -37.6538   23.6671 H   0  0  0  0  0  0
  -26.0733  -31.5668   20.5975 H   0  0  0  0  0  0
  -26.8399  -30.8565   21.9901 H   0  0  0  0  0  0
  -28.0999  -29.0140   21.1990 H   0  0  0  0  0  0
  -25.9770  -25.9518   18.9979 H   0  0  0  0  0  0
  -23.9711  -27.3154   19.0076 H   0  0  0  0  0  0
  -23.7486  -30.6174   19.4097 H   0  0  0  0  0  0
  -22.7491  -29.2646   19.8472 H   0  0  0  0  0  0
  -25.1244  -36.1962   25.0854 H   0  0  0  0  0  0
  -20.9968  -28.3265   24.1394 H   0  0  0  0  0  0
  -20.5648  -26.2301   23.3597 H   0  0  0  0  0  0
  -21.6642  -26.7405   22.1209 H   0  0  0  0  0  0
  -19.6922  -25.6258   21.1260 H   0  0  0  0  0  0
  -19.6717  -27.3156   20.6726 H   0  0  0  0  0  0
  -17.4180  -26.6654   21.4043 H   0  0  0  0  0  0
  -18.0356  -26.0053   22.9019 H   0  0  0  0  0  0
  -19.7972  -30.7238   24.2256 H   0  0  0  0  0  0
  -17.5066  -31.6274   24.5167 H   0  0  0  0  0  0
  -15.5379  -30.3026   23.7628 H   0  0  0  0  0  0
  -15.8671  -28.0871   22.7002 H   0  0  0  0  0  0
  -24.5819  -30.7143   25.7813 H   0  0  0  0  0  0
  -24.8898  -32.2962   26.4875 H   0  0  0  0  0  0
  -25.7970  -30.8952   27.0272 H   0  0  0  0  0  0
  -26.2898  -29.6804   24.1134 H   0  0  0  0  0  0
  -27.4007  -29.7257   25.4638 H   0  0  0  0  0  0
  -27.8745  -30.4374   23.9390 H   0  0  0  0  0  0
  -27.2605  -33.3634   26.2078 H   0  0  0  0  0  0
  -28.3800  -32.6901   25.0310 H   0  0  0  0  0  0
  -28.0684  -31.8468   26.5424 H   0  0  0  0  0  0
  -28.2537  -38.0118   24.7469 H   0  0  0  0  0  0
  -28.1098  -36.2650   24.6289 H   0  0  0  0  0  0
  -27.2313  -37.1444   25.8872 H   0  0  0  0  0  0
  -20.9318  -29.8849   21.6975 H   0  0  0  0  0  0
  -26.0169  -38.2856   24.1407 H   0  0  0  0  0  0
  -30.4159  -20.8297   18.0844 H   0  0  0  0  0  0
  -29.3658  -19.5865   17.4619 H   0  0  0  0  0  0
  -31.1039  -19.3060   17.5704 H   0  0  0  0  0  0
  -28.8128  -21.0389   22.8428 H   0  0  0  0  0  0
  -30.2251  -20.3580   23.6525 H   0  0  0  0  0  0
  -28.6372  -19.5863   23.7636 H   0  0  0  0  0  0
  -29.8015  -17.3520   17.3709 H   0  0  0  0  0  0
  -29.4332  -15.9696   18.3455 H   0  0  0  0  0  0
  -31.1130  -16.4653   18.1360 H   0  0  0  0  0  0
  -29.9378  -17.7922   24.1252 H   0  0  0  0  0  0
  -30.1142  -16.2403   23.3803 H   0  0  0  0  0  0
  -28.5022  -16.9471   23.5167 H   0  0  0  0  0  0
  -31.4654  -24.0030   20.1126 H   0  0  0  0  0  0
  -30.7671  -25.5852   19.8333 H   0  0  0  0  0  0
  -30.4712  -24.2869   18.6883 H   0  0  0  0  0  0
  -30.4930  -23.9174   22.3765 H   0  0  0  0  0  0
  -28.7543  -23.8917   22.6401 H   0  0  0  0  0  0
  -29.5765  -25.4008   22.2831 H   0  0  0  0  0  0
  -30.9911  -21.6948   19.9215 H   0  0  0  0  0  0
  -30.5811  -21.7675   21.5535 H   0  0  0  0  0  0
  -28.1194  -22.2857   20.8478 H   0  0  0  0  0  0
  -28.7040  -22.4227   19.2271 H   0  0  0  0  0  0
  -27.2433  -24.7817   20.6101 H   0  0  0  0  0  0
  -27.9348  -24.8564   19.0062 H   0  0  0  0  0  0
  -28.9452  -15.2670   21.3414 H   0  0  0  0  0  0
  1 25  1  0  0  0
  1 30  2  0  0  0
  1 87  1  0  0  0
  2  3  1  0  0  0
  2 25  1  0  0  0
  2 88  1  0  0  0
  2 89  1  0  0  0
  3  4  1  0  0  0
  3 90  1  0  0  0
  3 91  1  0  0  0
  4  5  1  0  0  0
  4 92  1  0  0  0
  4 93  1  0  0  0
  5  6  1  0  0  0
  5 26  1  0  0  0
  5 94  1  0  0  0
  6 25  1  0  0  0
  6 95  1  0  0  0
  6 96  1  0  0  0
  7  8  2  0  0  0
  7 26  1  0  0  0
  7 29  1  0  0  0
  8  9  1  0  0  0
  8 22  1  0  0  0
  9 10  1  0  0  0
  9 27  2  0  0  0
 10 11  2  0  0  0
 10 15  1  0  0  0
 11 12  1  0  0  0
 11 97  1  0  0  0
 12 13  2  0  0  0
 12 98  1  0  0  0
 13 14  1  0  0  0
 13 31  1  0  0  0
 14 15  2  0  0  0
 14 99  1  0  0  0
 15100  1  0  0  0
 16 17  2  0  0  0
 16 21  1  0  0  0
 16 31  1  0  0  0
 17 18  1  0  0  0
 17101  1  0  0  0
 18 19  2  0  0  0
 18102  1  0  0  0
 19 20  1  0  0  0
 19 24  1  0  0  0
 20 21  2  0  0  0
 20103  1  0  0  0
 21 23  1  0  0  0
 22 28  1  0  0  0
 22 32  2  0  0  0
 26 27  1  0  0  0
 28104  1  0  0  0
 28105  1  0  0  0
 29106  1  0  0  0
 29107  1  0  0  0
 33 34  1  0  0  0
 33 66  1  0  0  0
 33 70  2  0  0  0
 34 36  1  0  0  0
 34 59  1  0  0  0
 34108  1  0  0  0
 35 44  2  0  0  0
 35 45  1  0  0  0
 35 68  1  0  0  0
 36 56  1  0  0  0
 36109  1  0  0  0
 37 39  1  0  0  0
 37 47  1  0  0  0
 37 66  1  0  0  0
 37110  1  0  0  0
 38 43  2  0  0  0
 38 46  1  0  0  0
 38 47  1  0  0  0
 39 64  1  0  0  0
 39 67  2  0  0  0
 40 52  1  0  0  0
 40 53  2  0  0  0
 40 58  1  0  0  0
 41111  1  0  0  0
 41112  1  0  0  0
 41113  1  0  0  0
 41 48  1  0  0  0
 42 43  1  0  0  0
 42 66  1  0  0  0
 42114  1  0  0  0
 42115  1  0  0  0
 43 44  1  0  0  0
 44116  1  0  0  0
 45 46  2  0  0  0
 45117  1  0  0  0
 46118  1  0  0  0
 47119  1  0  0  0
 47120  1  0  0  0
 48 56  1  0  0  0
 48 65  1  0  0  0
 48121  1  0  0  0
 49 50  1  0  0  0
 49 53  1  0  0  0
 49 64  1  0  0  0
 49122  1  0  0  0
 50 51  1  0  0  0
 50123  1  0  0  0
 50124  1  0  0  0
 51 52  1  0  0  0
 51125  1  0  0  0
 51126  1  0  0  0
 52127  1  0  0  0
 52128  1  0  0  0
 53 54  1  0  0  0
 54 55  2  0  0  0
 54129  1  0  0  0
 55 57  1  0  0  0
 55130  1  0  0  0
 56 69  2  0  0  0
 57 58  2  0  0  0
 57131  1  0  0  0
 58132  1  0  0  0
 59 60  1  0  0  0
 59 61  1  0  0  0
 59 62  1  0  0  0
 60133  1  0  0  0
 60134  1  0  0  0
 60135  1  0  0  0
 61136  1  0  0  0
 61137  1  0  0  0
 61138  1  0  0  0
 62139  1  0  0  0
 62140  1  0  0  0
 62141  1  0  0  0
 63 65  1  0  0  0
 63142  1  0  0  0
 63143  1  0  0  0
 63144  1  0  0  0
 64145  1  0  0  0
 65146  1  0  0  0
 68 85  1  0  0  0
 71 73  2  0  0  0
 71 74  1  0  0  0
 71 77  1  0  0  0
 72 73  1  0  0  0
 72 75  2  0  0  0
 72 78  1  0  0  0
 73 83  1  0  0  0
 74 76  2  0  0  0
 74 79  1  0  0  0
 75 76  1  0  0  0
 75 80  1  0  0  0
 76 87  1  0  0  0
 77147  1  0  0  0
 77148  1  0  0  0
 77149  1  0  0  0
 78150  1  0  0  0
 78151  1  0  0  0
 78152  1  0  0  0
 79153  1  0  0  0
 79154  1  0  0  0
 79155  1  0  0  0
 80156  1  0  0  0
 80157  1  0  0  0
 80158  1  0  0  0
 81159  1  0  0  0
 81160  1  0  0  0
 81161  1  0  0  0
 81 86  1  0  0  0
 82 86  1  0  0  0
 82162  1  0  0  0
 82163  1  0  0  0
 82164  1  0  0  0
 83 84  1  0  0  0
 83165  1  0  0  0
 83166  1  0  0  0
 84 86  1  0  0  0
 84167  1  0  0  0
 84168  1  0  0  0
 85 86  1  0  0  0
 85169  1  0  0  0
 85170  1  0  0  0
 87171  1  0  0  0
M  ISO  4   1 100  68 101  85 101  87 100
M  END
> <chiral flag>
0

> <version>
0

> <s_m_source_file>
/data/baiqing/PycharmProjects/Reinvent-master-3.2/result/LINK_invent/BTK/process_docking_weight1_custom_sum_contain_oxygen_bond_distance_aromatic_linkinvent_7_9_3/rearranged_h_0020.sdf

> <i_m_source_file_index>
93

> <r_mmod_Potential_Energy-OPLS-2005>
24.9484310150146

> <r_mmod_Stretch_Energy-OPLS-2005>
79.0124435424805

> <r_mmod_Bend_Energy-OPLS-2005>
130.417404174805

> <r_mmod_Torsional_Energy-OPLS-2005>
249.024383544922

> <r_mmod_Improper_Torsional_Energy-OPLS-2005>
4.92751884460449

> <r_mmod_Van_der_Waal_Energy-OPLS-2005>
164.351287841797

> <r_mmod_Electrostatic_Energy-OPLS-2005>
-441.426330566406

> <r_mmod_Solvation_Energy-OPLS-2005>
-196.658081054688

> <b_mmod_Minimization_Converged-OPLS-2005>
0

> <r_mmod_RMS_Derivative-OPLS-2005>
3.28538513183594

$$$$
93
                    3D
 Structure written by MMmdl.
202209  0  0  1  0            999 V2000
  -30.8765  -14.2853   20.8401 C   0  0  0  0  0  0
  -30.4053  -12.3249   19.4113 C   0  0  0  0  0  0
  -29.4846  -12.5471   18.2011 C   0  0  0  0  0  0
  -28.0172  -12.3574   18.6154 C   0  0  0  0  0  0
  -27.6602  -13.2042   19.8642 C   0  0  2  0  0  0
  -28.6856  -13.0092   20.9998 C   0  0  0  0  0  0
  -25.2548  -13.8128   20.5656 C   0  0  0  0  0  0
  -24.1829  -13.0386   20.9141 C   0  0  0  0  0  0
  -24.6373  -11.6839   20.8641 C   0  0  0  0  0  0
  -23.9063  -10.4229   21.0365 C   0  0  0  0  0  0
  -24.3620   -9.4148   21.9158 C   0  0  0  0  0  0
  -23.6256   -8.2215   22.0761 C   0  0  0  0  0  0
  -22.4216   -8.0269   21.3611 C   0  0  0  0  0  0
  -21.9851   -9.0225   20.4699 C   0  0  0  0  0  0
  -22.7195  -10.2080   20.3060 C   0  0  0  0  0  0
  -21.6800   -6.0725   22.5332 C   0  0  0  0  0  0
  -21.3958   -6.5633   23.8260 C   0  0  0  0  0  0
  -21.3668   -5.6810   24.9231 C   0  0  0  0  0  0
  -21.6045   -4.3071   24.7267 C   0  0  0  0  0  0
  -21.8784   -3.8157   23.4385 C   0  0  0  0  0  0
  -21.9125   -4.6963   22.3435 C   0  0  0  0  0  0
  -22.7847  -13.5174   21.1859 C   0  0  0  0  0  0
  -22.1596   -4.2148   21.1013 F   0  0  0  0  0  0
  -21.5660   -3.4559   25.7804 F   0  0  0  0  0  0
  -30.0486  -13.2553   20.4975 N   0  0  0  0  0  0
  -26.3006  -12.9305   20.3290 N   0  0  0  0  0  0
  -25.9310  -11.6450   20.5692 N   0  0  0  0  0  0
  -22.0451  -12.8269   22.0434 N   0  0  0  0  0  0
  -25.4266  -15.1859   20.4040 N   0  0  0  0  0  0
  -31.6698  -14.7455   20.0092 O   0  0  0  0  0  0
  -21.6578   -6.8871   21.4308 O   0  0  0  0  0  0
  -22.3546  -14.5480   20.6662 O   0  0  0  0  0  0
  -24.6107  -31.8645   23.2061 C   0  0  0  0  0  0
  -25.8996  -32.4797   23.8369 C   0  0  1  0  0  0
  -27.2455  -27.4388   20.1018 C   0  0  0  0  0  0
  -25.5842  -33.8612   24.2289 N   0  0  0  0  0  0
  -23.3968  -30.4799   21.5488 C   0  0  2  0  0  0
  -24.8384  -28.9337   20.1198 C   0  0  0  0  0  0
  -22.7372  -29.4633   22.5075 C   0  0  0  0  0  0
  -18.0279  -28.1320   22.8563 C   0  0  0  0  0  0
  -24.1467  -36.7299   23.2647 C   0  0  0  0  0  0
  -25.9225  -30.8306   21.3552 C   0  0  0  0  0  0
  -25.9967  -29.4700   20.6912 C   0  0  0  0  0  0
  -27.1993  -28.7366   20.6581 C   0  0  0  0  0  0
  -26.0625  -26.8939   19.5476 C   0  0  0  0  0  0
  -24.8653  -27.6456   19.5482 C   0  0  0  0  0  0
  -23.5943  -29.7892   20.1713 C   0  0  0  0  0  0
  -25.4097  -36.3117   24.0352 C   0  0  1  0  0  0
  -20.5847  -28.3584   23.1356 C   0  0  2  0  0  0
  -20.6802  -26.9337   22.5365 C   0  0  0  0  0  0
  -19.5703  -26.6332   21.5241 C   0  0  0  0  0  0
  -18.1928  -26.7832   22.1759 C   0  0  0  0  0  0
  -19.1529  -28.8796   23.2919 C   0  0  0  0  0  0
  -18.9456  -30.1447   23.8832 C   0  0  0  0  0  0
  -17.6447  -30.6571   24.0496 C   0  0  0  0  0  0
  -25.9021  -34.9477   23.5140 C   0  0  0  0  0  0
  -16.5336  -29.9025   23.6361 C   0  0  0  0  0  0
  -16.7261  -28.6430   23.0422 C   0  0  0  0  0  0
  -26.4428  -31.6606   25.0724 C   0  0  0  0  0  0
  -25.3720  -31.3730   26.1501 C   0  0  0  0  0  0
  -27.0256  -30.3039   24.6157 C   0  0  0  0  0  0
  -27.5984  -32.4355   25.7491 C   0  0  0  0  0  0
  -27.5580  -37.1806   24.8471 C   0  0  0  0  0  0
  -21.4095  -29.2986   22.3811 N   0  0  0  0  0  0
  -26.4279  -37.3808   23.9429 N   0  0  0  0  0  0
  -24.6612  -31.0756   22.0932 N   0  0  0  0  0  0
  -23.4155  -28.8254   23.3143 O   0  0  0  0  0  0
  -28.4712  -26.8038   20.1622 O   0  0  0  0  0  0
  -26.5588  -34.8930   22.4711 O   0  0  0  0  0  0
  -23.5318  -32.1416   23.7476 O   0  0  0  0  0  0
  -25.8061  -24.9325   22.6131 C   0  0  0  0  0  0
  -27.1062  -25.2299   22.3310 C   0  0  0  0  0  0
  -24.9669  -23.8678   21.9198 C   0  0  0  0  0  0
  -25.0146  -25.6144   23.7251 C   0  0  0  0  0  0
  -27.8085  -26.3587   23.0920 C   0  0  0  0  0  0
  -28.4220  -16.8989   22.5698 C   0  0  0  0  0  0
  -28.7135  -24.8076   18.7678 C   0  0  0  0  0  0
  -30.3246  -13.9598   23.4206 C   0  0  0  0  0  0
  -32.5965  -14.2917   22.5738 C   0  0  0  0  0  0
  -30.5435  -22.8148   23.7869 C   0  0  0  0  0  0
  -29.4495  -20.9757   21.3203 C   0  0  0  0  0  0
  -31.1539  -23.2816   25.1295 C   0  0  0  0  0  0
  -28.9787  -19.5169   21.5434 C   0  0  0  0  0  0
  -29.4821  -23.7836   23.2028 C   0  0  0  0  0  0
  -28.3936  -22.0224   21.8001 C   0  0  0  0  0  0
  -31.5264  -18.3445   24.1930 C   0  0  0  0  0  0
  -27.9618  -24.4805   21.2679 C   0  0  1  0  0  0
  -31.0169  -16.3480   22.5102 C   0  0  2  0  0  0
  -29.7727  -17.0732   21.8242 C   0  0  2  0  0  0
  -28.6869  -25.3817   20.1953 C   0  0  2  0  0  0
  -31.1157  -14.7501   22.3322 C   0  0  0  0  0  0
  -31.3054  -16.8294   23.9911 C   0  0  0  0  0  0
  -30.2952  -23.0217   26.3045 N   0  3  0  0  0  0
  -30.0686  -18.4970   21.4242 N   0  3  0  0  0  0
  -28.9097  -23.4340   21.8543 N   0  3  1  0  0  0
  -31.8327  -18.6114   25.4660 F   0  0  0  0  0  0
  -32.4503  -16.3082   24.4291 F   0  0  0  0  0  0
  -30.3275  -16.4427   24.8128 F   0  0  0  0  0  0
  -31.4534  -12.4077   19.1206 H   0  0  0  0  0  0
  -30.2901  -11.3006   19.7665 H   0  0  0  0  0  0
  -29.7402  -11.8439   17.4049 H   0  0  0  0  0  0
  -29.6381  -13.5481   17.7942 H   0  0  0  0  0  0
  -27.8738  -11.2975   18.8312 H   0  0  0  0  0  0
  -27.3511  -12.5893   17.7848 H   0  0  0  0  0  0
  -27.7009  -14.2504   19.5568 H   0  0  0  0  0  0
  -28.6224  -11.9991   21.4051 H   0  0  0  0  0  0
  -28.4050  -13.6907   21.7944 H   0  0  0  0  0  0
  -25.2780   -9.5580   22.4693 H   0  0  0  0  0  0
  -23.9938   -7.4584   22.7455 H   0  0  0  0  0  0
  -21.0745   -8.8737   19.9020 H   0  0  0  0  0  0
  -22.3657  -10.9596   19.6147 H   0  0  0  0  0  0
  -21.1942   -7.6139   23.9797 H   0  0  0  0  0  0
  -21.1542   -6.0540   25.9159 H   0  0  0  0  0  0
  -22.0534   -2.7611   23.2904 H   0  0  0  0  0  0
  -22.3951  -11.9905   22.4880 H   0  0  0  0  0  0
  -21.1106  -13.1458   22.2592 H   0  0  0  0  0  0
  -24.6497  -15.8323   20.4782 H   0  0  0  0  0  0
  -26.2710  -15.6240   20.0618 H   0  0  0  0  0  0
  -26.7040  -32.5468   23.1097 H   0  0  0  0  0  0
  -24.9993  -33.9816   25.0433 H   0  0  0  0  0  0
  -22.6815  -31.2913   21.4020 H   0  0  0  0  0  0
  -23.3763  -35.9603   23.3339 H   0  0  0  0  0  0
  -24.3527  -36.8901   22.2053 H   0  0  0  0  0  0
  -23.7199  -37.6508   23.6631 H   0  0  0  0  0  0
  -26.0464  -31.6019   20.5960 H   0  0  0  0  0  0
  -26.8075  -30.8687   21.9808 H   0  0  0  0  0  0
  -28.0978  -29.1521   21.0924 H   0  0  0  0  0  0
  -26.0408  -25.8937   19.1386 H   0  0  0  0  0  0
  -23.9629  -27.2133   19.1353 H   0  0  0  0  0  0
  -23.6662  -30.5454   19.3882 H   0  0  0  0  0  0
  -22.7270  -29.1785   19.9112 H   0  0  0  0  0  0
  -25.1277  -36.1984   25.0846 H   0  0  0  0  0  0
  -20.9927  -28.3081   24.1477 H   0  0  0  0  0  0
  -20.5854  -26.2130   23.3529 H   0  0  0  0  0  0
  -21.6639  -26.7477   22.1004 H   0  0  0  0  0  0
  -19.6833  -25.6237   21.1270 H   0  0  0  0  0  0
  -19.6554  -27.3164   20.6771 H   0  0  0  0  0  0
  -17.4134  -26.6506   21.4239 H   0  0  0  0  0  0
  -18.0428  -26.0015   22.9239 H   0  0  0  0  0  0
  -19.7937  -30.7323   24.2092 H   0  0  0  0  0  0
  -17.4989  -31.6287   24.5000 H   0  0  0  0  0  0
  -15.5324  -30.2902   23.7714 H   0  0  0  0  0  0
  -15.8670  -28.0705   22.7206 H   0  0  0  0  0  0
  -24.5855  -30.7098   25.7877 H   0  0  0  0  0  0
  -24.8944  -32.2885   26.5004 H   0  0  0  0  0  0
  -25.8116  -30.8877   27.0225 H   0  0  0  0  0  0
  -26.2813  -29.6825   24.1149 H   0  0  0  0  0  0
  -27.3902  -29.7289   25.4685 H   0  0  0  0  0  0
  -27.8712  -30.4365   23.9404 H   0  0  0  0  0  0
  -27.2572  -33.3637   26.2097 H   0  0  0  0  0  0
  -28.3777  -32.6967   25.0314 H   0  0  0  0  0  0
  -28.0653  -31.8466   26.5399 H   0  0  0  0  0  0
  -28.2602  -38.0099   24.7534 H   0  0  0  0  0  0
  -28.1076  -36.2641   24.6275 H   0  0  0  0  0  0
  -27.2289  -37.1430   25.8870 H   0  0  0  0  0  0
  -20.9227  -29.8638   21.6995 H   0  0  0  0  0  0
  -26.0188  -38.2895   24.1441 H   0  0  0  0  0  0
  -25.2751  -23.6098   20.9107 H   0  0  0  0  0  0
  -23.9397  -24.2204   21.8212 H   0  0  0  0  0  0
  -24.9454  -22.9544   22.5153 H   0  0  0  0  0  0
  -25.5334  -26.4258   24.2305 H   0  0  0  0  0  0
  -24.7574  -24.8765   24.4855 H   0  0  0  0  0  0
  -24.0840  -26.0287   23.3365 H   0  0  0  0  0  0
  -27.1981  -27.2610   23.0690 H   0  0  0  0  0  0
  -28.7667  -26.6421   22.6603 H   0  0  0  0  0  0
  -27.9750  -26.1038   24.1380 H   0  0  0  0  0  0
  -28.1453  -15.8526   22.6679 H   0  0  0  0  0  0
  -27.5933  -17.3633   22.0346 H   0  0  0  0  0  0
  -28.4426  -17.3254   23.5716 H   0  0  0  0  0  0
  -28.9201  -23.7372   18.7714 H   0  0  0  0  0  0
  -29.5129  -25.2758   18.1900 H   0  0  0  0  0  0
  -27.7844  -24.9703   18.2249 H   0  0  0  0  0  0
  -29.3168  -14.3231   23.6033 H   0  0  0  0  0  0
  -30.8154  -14.0153   24.3942 H   0  0  0  0  0  0
  -30.2704  -12.8955   23.1953 H   0  0  0  0  0  0
  -32.8569  -14.1852   23.6269 H   0  0  0  0  0  0
  -33.3271  -14.9793   22.1400 H   0  0  0  0  0  0
  -32.8018  -13.3040   22.1517 H   0  0  0  0  0  0
  -30.1366  -21.8118   23.9285 H   0  0  0  0  0  0
  -31.3663  -22.7256   23.0754 H   0  0  0  0  0  0
  -29.6717  -21.1414   20.2659 H   0  0  0  0  0  0
  -30.3995  -21.1086   21.8304 H   0  0  0  0  0  0
  -31.3983  -24.3437   25.0893 H   0  0  0  0  0  0
  -32.0982  -22.7578   25.2908 H   0  0  0  0  0  0
  -28.1623  -19.2862   20.8550 H   0  0  0  0  0  0
  -28.5708  -19.4746   22.5538 H   0  0  0  0  0  0
  -29.9486  -24.7660   23.1334 H   0  0  0  0  0  0
  -28.6731  -23.8572   23.9313 H   0  0  0  0  0  0
  -28.0142  -21.7506   22.7874 H   0  0  0  0  0  0
  -27.5263  -21.9291   21.1465 H   0  0  0  0  0  0
  -30.6407  -18.9386   23.9810 H   0  0  0  0  0  0
  -32.3611  -18.7155   23.5962 H   0  0  0  0  0  0
  -27.2630  -23.9437   20.6405 H   0  0  0  0  0  0
  -31.8708  -16.7106   21.9344 H   0  0  0  0  0  0
  -29.6070  -16.6068   20.8550 H   0  0  0  0  0  0
  -29.7332  -25.3676   20.5024 H   0  0  0  0  0  0
  -29.4014  -23.4759   26.2398 H   0  0  0  0  0  0
  -30.7475  -23.3814   27.1281 H   0  0  0  0  0  0
  -30.1564  -22.0364   26.4486 H   0  0  0  0  0  0
  -30.8553  -18.8289   21.9578 H   0  0  0  0  0  0
  -30.3763  -18.4765   20.4616 H   0  0  0  0  0  0
  -29.6927  -23.4406   21.2141 H   0  0  0  0  0  0
  1 25  1  0  0  0
  1 30  2  0  0  0
  1 91  1  0  0  0
  2  3  1  0  0  0
  2 25  1  0  0  0
  2 99  1  0  0  0
  2100  1  0  0  0
  3  4  1  0  0  0
  3101  1  0  0  0
  3102  1  0  0  0
  4  5  1  0  0  0
  4103  1  0  0  0
  4104  1  0  0  0
  5  6  1  0  0  0
  5 26  1  0  0  0
  5105  1  0  0  0
  6 25  1  0  0  0
  6106  1  0  0  0
  6107  1  0  0  0
  7  8  2  0  0  0
  7 26  1  0  0  0
  7 29  1  0  0  0
  8  9  1  0  0  0
  8 22  1  0  0  0
  9 10  1  0  0  0
  9 27  2  0  0  0
 10 11  2  0  0  0
 10 15  1  0  0  0
 11 12  1  0  0  0
 11108  1  0  0  0
 12 13  2  0  0  0
 12109  1  0  0  0
 13 14  1  0  0  0
 13 31  1  0  0  0
 14 15  2  0  0  0
 14110  1  0  0  0
 15111  1  0  0  0
 16 17  2  0  0  0
 16 21  1  0  0  0
 16 31  1  0  0  0
 17 18  1  0  0  0
 17112  1  0  0  0
 18 19  2  0  0  0
 18113  1  0  0  0
 19 20  1  0  0  0
 19 24  1  0  0  0
 20 21  2  0  0  0
 20114  1  0  0  0
 21 23  1  0  0  0
 22 28  1  0  0  0
 22 32  2  0  0  0
 26 27  1  0  0  0
 28115  1  0  0  0
 28116  1  0  0  0
 29117  1  0  0  0
 29118  1  0  0  0
 33 34  1  0  0  0
 33 66  1  0  0  0
 33 70  2  0  0  0
 34 36  1  0  0  0
 34 59  1  0  0  0
 34119  1  0  0  0
 35 44  2  0  0  0
 35 45  1  0  0  0
 35 68  1  0  0  0
 36 56  1  0  0  0
 36120  1  0  0  0
 37 39  1  0  0  0
 37 47  1  0  0  0
 37 66  1  0  0  0
 37121  1  0  0  0
 38 43  2  0  0  0
 38 46  1  0  0  0
 38 47  1  0  0  0
 39 64  1  0  0  0
 39 67  2  0  0  0
 40 52  1  0  0  0
 40 53  2  0  0  0
 40 58  1  0  0  0
 41122  1  0  0  0
 41123  1  0  0  0
 41124  1  0  0  0
 41 48  1  0  0  0
 42 43  1  0  0  0
 42 66  1  0  0  0
 42125  1  0  0  0
 42126  1  0  0  0
 43 44  1  0  0  0
 44127  1  0  0  0
 45 46  2  0  0  0
 45128  1  0  0  0
 46129  1  0  0  0
 47130  1  0  0  0
 47131  1  0  0  0
 48 56  1  0  0  0
 48 65  1  0  0  0
 48132  1  0  0  0
 49 50  1  0  0  0
 49 53  1  0  0  0
 49 64  1  0  0  0
 49133  1  0  0  0
 50 51  1  0  0  0
 50134  1  0  0  0
 50135  1  0  0  0
 51 52  1  0  0  0
 51136  1  0  0  0
 51137  1  0  0  0
 52138  1  0  0  0
 52139  1  0  0  0
 53 54  1  0  0  0
 54 55  2  0  0  0
 54140  1  0  0  0
 55 57  1  0  0  0
 55141  1  0  0  0
 56 69  2  0  0  0
 57 58  2  0  0  0
 57142  1  0  0  0
 58143  1  0  0  0
 59 60  1  0  0  0
 59 61  1  0  0  0
 59 62  1  0  0  0
 60144  1  0  0  0
 60145  1  0  0  0
 60146  1  0  0  0
 61147  1  0  0  0
 61148  1  0  0  0
 61149  1  0  0  0
 62150  1  0  0  0
 62151  1  0  0  0
 62152  1  0  0  0
 63 65  1  0  0  0
 63153  1  0  0  0
 63154  1  0  0  0
 63155  1  0  0  0
 64156  1  0  0  0
 65157  1  0  0  0
 68 90  1  0  0  0
 71 72  2  0  0  0
 71 73  1  0  0  0
 71 74  1  0  0  0
 72 75  1  0  0  0
 72 87  1  0  0  0
 73158  1  0  0  0
 73159  1  0  0  0
 73160  1  0  0  0
 74161  1  0  0  0
 74162  1  0  0  0
 74163  1  0  0  0
 75164  1  0  0  0
 75165  1  0  0  0
 75166  1  0  0  0
 76167  1  0  0  0
 76168  1  0  0  0
 76169  1  0  0  0
 76 89  1  0  0  0
 77170  1  0  0  0
 77171  1  0  0  0
 77172  1  0  0  0
 77 90  1  0  0  0
 78173  1  0  0  0
 78174  1  0  0  0
 78175  1  0  0  0
 78 91  1  0  0  0
 79 91  1  0  0  0
 79176  1  0  0  0
 79177  1  0  0  0
 79178  1  0  0  0
 80 82  1  0  0  0
 80 84  1  0  0  0
 80179  1  0  0  0
 80180  1  0  0  0
 81 83  1  0  0  0
 81 85  1  0  0  0
 81181  1  0  0  0
 81182  1  0  0  0
 82 93  1  0  0  0
 82183  1  0  0  0
 82184  1  0  0  0
 83 94  1  0  0  0
 83185  1  0  0  0
 83186  1  0  0  0
 84187  1  0  0  0
 84188  1  0  0  0
 84 95  1  0  0  0
 85 95  1  0  0  0
 85189  1  0  0  0
 85190  1  0  0  0
 86 92  1  0  0  0
 86 96  1  0  0  0
 86191  1  0  0  0
 86192  1  0  0  0
 87 90  1  0  0  0
 87 95  1  0  0  0
 87193  1  0  0  0
 88 89  1  0  0  0
 88 91  1  0  0  0
 88 92  1  0  0  0
 88194  1  0  0  0
 89 94  1  0  0  0
 89195  1  0  0  0
 90196  1  0  0  0
 92 97  1  0  0  0
 92 98  1  0  0  0
 93197  1  0  0  0
 93198  1  0  0  0
 93199  1  0  0  0
 94200  1  0  0  0
 94201  1  0  0  0
 95202  1  0  0  0
M  CHG  3  93   1  94   1  95   1
M  ISO  4   1 100  68 101  90 101  91 100
M  END
> <chiral flag>
0

> <version>
0

> <s_m_source_file>
/data/baiqing/PycharmProjects/Reinvent-master-3.2/result/LINK_invent/BTK/process_docking_weight1_custom_sum_contain_oxygen_bond_distance_aromatic_linkinvent_7_9_3/rearranged_h_0020.sdf

> <i_m_source_file_index>
94

> <r_mmod_Potential_Energy-OPLS-2005>
-237.456604003906

> <r_mmod_Stretch_Energy-OPLS-2005>
79.3399505615234

> <r_mmod_Bend_Energy-OPLS-2005>
209.111938476562

> <r_mmod_Torsional_Energy-OPLS-2005>
283.329345703125

> <r_mmod_Improper_Torsional_Energy-OPLS-2005>
6.01122856140137

> <r_mmod_Van_der_Waal_Energy-OPLS-2005>
149.141387939453

> <r_mmod_Electrostatic_Energy-OPLS-2005>
683.48974609375

> <r_mmod_Solvation_Energy-OPLS-2005>
-1668.13000488281

> <b_mmod_Minimization_Converged-OPLS-2005>
0

> <r_mmod_RMS_Derivative-OPLS-2005>
6.12234163284302

$$$$
94
                    3D
 Structure written by MMmdl.
171179  0  0  1  0            999 V2000
  -30.5101  -15.2674   20.3965 C   0  0  0  0  0  0
  -30.4273  -12.8109   19.5546 C   0  0  0  0  0  0
  -29.5329  -12.5858   18.3085 C   0  0  0  0  0  0
  -28.0842  -12.3092   18.7325 C   0  0  0  0  0  0
  -27.6161  -13.2862   19.8395 C   0  0  2  0  0  0
  -28.6428  -13.4902   20.9801 C   0  0  0  0  0  0
  -25.2413  -13.8285   20.5829 C   0  0  0  0  0  0
  -24.1749  -13.0473   20.9271 C   0  0  0  0  0  0
  -24.6403  -11.6975   20.8774 C   0  0  0  0  0  0
  -23.9118  -10.4319   21.0410 C   0  0  0  0  0  0
  -24.3661   -9.4225   21.9177 C   0  0  0  0  0  0
  -23.6325   -8.2278   22.0743 C   0  0  0  0  0  0
  -22.4306   -8.0299   21.3554 C   0  0  0  0  0  0
  -21.9977   -9.0276   20.4642 C   0  0  0  0  0  0
  -22.7297  -10.2149   20.3058 C   0  0  0  0  0  0
  -21.6871   -6.0746   22.5275 C   0  0  0  0  0  0
  -21.4006   -6.5648   23.8187 C   0  0  0  0  0  0
  -21.3655   -5.6807   24.9160 C   0  0  0  0  0  0
  -21.6075   -4.3079   24.7216 C   0  0  0  0  0  0
  -21.8822   -3.8151   23.4343 C   0  0  0  0  0  0
  -21.9205   -4.6981   22.3379 C   0  0  0  0  0  0
  -22.7755  -13.5208   21.1898 C   0  0  0  0  0  0
  -22.1675   -4.2151   21.0969 F   0  0  0  0  0  0
  -21.5653   -3.4538   25.7726 F   0  0  0  0  0  0
  -29.8931  -13.9789   20.3664 N   0  0  0  0  0  0
  -26.2856  -12.9569   20.3327 N   0  0  0  0  0  0
  -25.9357  -11.6669   20.5787 N   0  0  0  0  0  0
  -22.0441  -12.8158   22.0442 N   0  0  0  0  0  0
  -25.4160  -15.2017   20.4298 N   0  0  0  0  0  0
  -31.6968  -15.2090   20.0407 O   0  0  0  0  0  0
  -21.6685   -6.8898   21.4232 O   0  0  0  0  0  0
  -22.3445  -14.5511   20.6737 O   0  0  0  0  0  0
  -24.6636  -31.8213   23.1665 C   0  0  0  0  0  0
  -25.9349  -32.4508   23.8132 C   0  0  1  0  0  0
  -27.2329  -26.9556   20.1720 C   0  0  0  0  0  0
  -25.6050  -33.8317   24.2049 N   0  0  0  0  0  0
  -23.4779  -30.4315   21.5153 C   0  0  2  0  0  0
  -24.9365  -28.8260   20.1041 C   0  0  0  0  0  0
  -22.7694  -29.4366   22.4713 C   0  0  0  0  0  0
  -18.0323  -28.1357   22.8400 C   0  0  0  0  0  0
  -24.1582  -36.7077   23.2621 C   0  0  0  0  0  0
  -26.0472  -30.6451   21.3917 C   0  0  0  0  0  0
  -26.1179  -29.2354   20.7376 C   0  0  0  0  0  0
  -27.2635  -28.3214   20.7392 C   0  0  0  0  0  0
  -26.0399  -26.7099   19.4653 C   0  0  0  0  0  0
  -24.9243  -27.5878   19.4399 C   0  0  0  0  0  0
  -23.7153  -29.7483   20.1417 C   0  0  0  0  0  0
  -25.4208  -36.2862   24.0280 C   0  0  1  0  0  0
  -20.5978  -28.3648   23.1152 C   0  0  2  0  0  0
  -20.6772  -26.9302   22.5426 C   0  0  0  0  0  0
  -19.5762  -26.6298   21.5194 C   0  0  0  0  0  0
  -18.1933  -26.7877   22.1587 C   0  0  0  0  0  0
  -19.1612  -28.8813   23.2765 C   0  0  0  0  0  0
  -18.9537  -30.1403   23.8773 C   0  0  0  0  0  0
  -17.6532  -30.6500   24.0534 C   0  0  0  0  0  0
  -25.9152  -34.9251   23.4979 C   0  0  0  0  0  0
  -16.5411  -29.9023   23.6322 C   0  0  0  0  0  0
  -16.7327  -28.6495   23.0253 C   0  0  0  0  0  0
  -26.4534  -31.6431   25.0661 C   0  0  0  0  0  0
  -25.3608  -31.3724   26.1287 C   0  0  0  0  0  0
  -27.0352  -30.2777   24.6287 C   0  0  0  0  0  0
  -27.6061  -32.4120   25.7544 C   0  0  0  0  0  0
  -27.5589  -37.1680   24.8490 C   0  0  0  0  0  0
  -21.4361  -29.2963   22.3512 N   0  0  0  0  0  0
  -26.4328  -37.3601   23.9389 N   0  0  0  0  0  0
  -24.7505  -30.9935   22.0771 N   0  0  0  0  0  0
  -23.4274  -28.7892   23.2908 O   0  0  0  0  0  0
  -28.2659  -25.8763   20.2059 O   0  0  0  0  0  0
  -26.5752  -34.8818   22.4550 O   0  0  0  0  0  0
  -23.5698  -32.1126   23.6740 O   0  0  0  0  0  0
  -29.3153  -17.6704   22.9564 C   0  0  0  0  0  0
  -28.3116  -17.9919   21.8491 C   0  0  0  0  0  0
  -30.4041  -16.8158   22.2891 C   0  0  0  0  0  0
  -29.1462  -17.9951   20.5616 C   0  0  1  0  0  0
  -29.0146  -22.8098   18.5162 C   0  0  0  0  0  0
  -25.7727  -24.1391   21.5560 C   0  0  0  0  0  0
  -27.5481  -25.2935   22.9878 C   0  0  0  0  0  0
  -27.5057  -22.8835   22.7826 C   0  0  0  0  0  0
  -27.2984  -20.7228   19.8130 C   0  0  0  0  0  0
  -29.5920  -19.7381   20.3656 C   0  0  0  0  0  0
  -28.9124  -22.7055   20.0535 C   0  0  1  0  0  0
  -28.2125  -24.2847   20.6879 C   0  0  1  0  0  0
  -27.2631  -24.1607   21.9547 C   0  0  0  0  0  0
  -29.9894  -16.5781   20.8972 N   0  0  0  0  0  0
  -28.5964  -21.0903   20.4281 N   0  3  1  0  0  0
  -31.4564  -12.9688   19.2197 H   0  0  0  0  0  0
  -30.4654  -11.9063   20.1621 H   0  0  0  0  0  0
  -29.9125  -11.7516   17.7158 H   0  0  0  0  0  0
  -29.5665  -13.4644   17.6670 H   0  0  0  0  0  0
  -28.0403  -11.2828   19.1028 H   0  0  0  0  0  0
  -27.4174  -12.3551   17.8699 H   0  0  0  0  0  0
  -27.5330  -14.2504   19.3375 H   0  0  0  0  0  0
  -28.7949  -12.5794   21.5585 H   0  0  0  0  0  0
  -28.2703  -14.2380   21.6830 H   0  0  0  0  0  0
  -25.2811   -9.5710   22.4758 H   0  0  0  0  0  0
  -24.0038   -7.4687   22.7472 H   0  0  0  0  0  0
  -21.0928   -8.8810   19.8936 H   0  0  0  0  0  0
  -22.3767  -10.9707   19.6186 H   0  0  0  0  0  0
  -21.1965   -7.6136   23.9682 H   0  0  0  0  0  0
  -21.1494   -6.0533   25.9063 H   0  0  0  0  0  0
  -22.0613   -2.7613   23.2832 H   0  0  0  0  0  0
  -22.4095  -11.9811   22.4764 H   0  0  0  0  0  0
  -21.1043  -13.1144   22.2649 H   0  0  0  0  0  0
  -24.6713  -15.8760   20.5603 H   0  0  0  0  0  0
  -26.2861  -15.6291   20.1386 H   0  0  0  0  0  0
  -26.7443  -32.5056   23.0864 H   0  0  0  0  0  0
  -25.0329  -33.9402   25.0306 H   0  0  0  0  0  0
  -22.7956  -31.2646   21.3401 H   0  0  0  0  0  0
  -23.3875  -35.9399   23.3273 H   0  0  0  0  0  0
  -24.3699  -36.8710   22.2052 H   0  0  0  0  0  0
  -23.7359  -37.6258   23.6671 H   0  0  0  0  0  0
  -26.2212  -31.3924   20.6134 H   0  0  0  0  0  0
  -26.9114  -30.7035   22.0396 H   0  0  0  0  0  0
  -28.1663  -28.6382   21.2422 H   0  0  0  0  0  0
  -25.9532  -25.7701   18.9398 H   0  0  0  0  0  0
  -24.0457  -27.2789   18.8924 H   0  0  0  0  0  0
  -23.8613  -30.5252   19.3889 H   0  0  0  0  0  0
  -22.8282  -29.1936   19.8286 H   0  0  0  0  0  0
  -25.1409  -36.1623   25.0767 H   0  0  0  0  0  0
  -21.0051  -28.3248   24.1268 H   0  0  0  0  0  0
  -20.5597  -26.2235   23.3646 H   0  0  0  0  0  0
  -21.6632  -26.7177   22.1270 H   0  0  0  0  0  0
  -19.6900  -25.6217   21.1179 H   0  0  0  0  0  0
  -19.6752  -27.3132   20.6742 H   0  0  0  0  0  0
  -17.4219  -26.6602   21.3970 H   0  0  0  0  0  0
  -18.0272  -26.0067   22.9030 H   0  0  0  0  0  0
  -19.8065  -30.7212   24.2080 H   0  0  0  0  0  0
  -17.5136  -31.6182   24.5139 H   0  0  0  0  0  0
  -15.5414  -30.2876   23.7715 H   0  0  0  0  0  0
  -15.8741  -28.0832   22.6869 H   0  0  0  0  0  0
  -24.5878  -30.6940   25.7633 H   0  0  0  0  0  0
  -24.8698  -32.2924   26.4491 H   0  0  0  0  0  0
  -25.7797  -30.9127   27.0264 H   0  0  0  0  0  0
  -26.2942  -29.6387   24.1466 H   0  0  0  0  0  0
  -27.4101  -29.7175   25.4861 H   0  0  0  0  0  0
  -27.8809  -30.3878   23.9502 H   0  0  0  0  0  0
  -27.2721  -33.3530   26.1925 H   0  0  0  0  0  0
  -28.4072  -32.6392   25.0475 H   0  0  0  0  0  0
  -28.0424  -31.8292   26.5679 H   0  0  0  0  0  0
  -28.2565  -38.0026   24.7582 H   0  0  0  0  0  0
  -28.1120  -36.2510   24.6335 H   0  0  0  0  0  0
  -27.2232  -37.1335   25.8876 H   0  0  0  0  0  0
  -20.9562  -29.8866   21.6846 H   0  0  0  0  0  0
  -26.0138  -38.2646   24.1401 H   0  0  0  0  0  0
  -28.8331  -17.1527   23.7883 H   0  0  0  0  0  0
  -29.7599  -18.5750   23.3709 H   0  0  0  0  0  0
  -27.7787  -18.9191   22.0559 H   0  0  0  0  0  0
  -27.5622  -17.1985   21.7885 H   0  0  0  0  0  0
  -30.5435  -15.8950   22.8587 H   0  0  0  0  0  0
  -31.3710  -17.3303   22.3152 H   0  0  0  0  0  0
  -28.5095  -17.7631   19.7049 H   0  0  0  0  0  0
  -29.6634  -23.6332   18.2206 H   0  0  0  0  0  0
  -28.0440  -22.9644   18.0466 H   0  0  0  0  0  0
  -29.4290  -21.8956   18.0913 H   0  0  0  0  0  0
  -25.1397  -23.7373   22.3494 H   0  0  0  0  0  0
  -25.6055  -23.5243   20.6730 H   0  0  0  0  0  0
  -25.3856  -25.1345   21.3562 H   0  0  0  0  0  0
  -26.9169  -25.2092   23.8716 H   0  0  0  0  0  0
  -27.4040  -26.3011   22.6093 H   0  0  0  0  0  0
  -28.5749  -25.2460   23.3525 H   0  0  0  0  0  0
  -26.9087  -22.9025   23.6982 H   0  0  0  0  0  0
  -28.5470  -22.7968   23.0976 H   0  0  0  0  0  0
  -27.1927  -21.9803   22.2710 H   0  0  0  0  0  0
  -26.7045  -20.0716   20.4546 H   0  0  0  0  0  0
  -27.4632  -20.2070   18.8672 H   0  0  0  0  0  0
  -26.6911  -21.6000   19.5973 H   0  0  0  0  0  0
  -30.1030  -19.8050   19.4027 H   0  0  0  0  0  0
  -30.3774  -19.9302   21.0930 H   0  0  0  0  0  0
  -29.9487  -22.7573   20.3846 H   0  0  0  0  0  0
  -29.1338  -24.4670   21.2389 H   0  0  0  0  0  0
  -28.4115  -21.1393   21.4196 H   0  0  0  0  0  0
  1 25  1  0  0  0
  1 30  2  0  0  0
  1 84  1  0  0  0
  2  3  1  0  0  0
  2 25  1  0  0  0
  2 86  1  0  0  0
  2 87  1  0  0  0
  3  4  1  0  0  0
  3 88  1  0  0  0
  3 89  1  0  0  0
  4  5  1  0  0  0
  4 90  1  0  0  0
  4 91  1  0  0  0
  5  6  1  0  0  0
  5 26  1  0  0  0
  5 92  1  0  0  0
  6 25  1  0  0  0
  6 93  1  0  0  0
  6 94  1  0  0  0
  7  8  2  0  0  0
  7 26  1  0  0  0
  7 29  1  0  0  0
  8  9  1  0  0  0
  8 22  1  0  0  0
  9 10  1  0  0  0
  9 27  2  0  0  0
 10 11  2  0  0  0
 10 15  1  0  0  0
 11 12  1  0  0  0
 11 95  1  0  0  0
 12 13  2  0  0  0
 12 96  1  0  0  0
 13 14  1  0  0  0
 13 31  1  0  0  0
 14 15  2  0  0  0
 14 97  1  0  0  0
 15 98  1  0  0  0
 16 17  2  0  0  0
 16 21  1  0  0  0
 16 31  1  0  0  0
 17 18  1  0  0  0
 17 99  1  0  0  0
 18 19  2  0  0  0
 18100  1  0  0  0
 19 20  1  0  0  0
 19 24  1  0  0  0
 20 21  2  0  0  0
 20101  1  0  0  0
 21 23  1  0  0  0
 22 28  1  0  0  0
 22 32  2  0  0  0
 26 27  1  0  0  0
 28102  1  0  0  0
 28103  1  0  0  0
 29104  1  0  0  0
 29105  1  0  0  0
 33 34  1  0  0  0
 33 66  1  0  0  0
 33 70  2  0  0  0
 34 36  1  0  0  0
 34 59  1  0  0  0
 34106  1  0  0  0
 35 44  2  0  0  0
 35 45  1  0  0  0
 35 68  1  0  0  0
 36 56  1  0  0  0
 36107  1  0  0  0
 37 39  1  0  0  0
 37 47  1  0  0  0
 37 66  1  0  0  0
 37108  1  0  0  0
 38 43  2  0  0  0
 38 46  1  0  0  0
 38 47  1  0  0  0
 39 64  1  0  0  0
 39 67  2  0  0  0
 40 52  1  0  0  0
 40 53  2  0  0  0
 40 58  1  0  0  0
 41109  1  0  0  0
 41110  1  0  0  0
 41111  1  0  0  0
 41 48  1  0  0  0
 42 43  1  0  0  0
 42 66  1  0  0  0
 42112  1  0  0  0
 42113  1  0  0  0
 43 44  1  0  0  0
 44114  1  0  0  0
 45 46  2  0  0  0
 45115  1  0  0  0
 46116  1  0  0  0
 47117  1  0  0  0
 47118  1  0  0  0
 48 56  1  0  0  0
 48 65  1  0  0  0
 48119  1  0  0  0
 49 50  1  0  0  0
 49 53  1  0  0  0
 49 64  1  0  0  0
 49120  1  0  0  0
 50 51  1  0  0  0
 50121  1  0  0  0
 50122  1  0  0  0
 51 52  1  0  0  0
 51123  1  0  0  0
 51124  1  0  0  0
 52125  1  0  0  0
 52126  1  0  0  0
 53 54  1  0  0  0
 54 55  2  0  0  0
 54127  1  0  0  0
 55 57  1  0  0  0
 55128  1  0  0  0
 56 69  2  0  0  0
 57 58  2  0  0  0
 57129  1  0  0  0
 58130  1  0  0  0
 59 60  1  0  0  0
 59 61  1  0  0  0
 59 62  1  0  0  0
 60131  1  0  0  0
 60132  1  0  0  0
 60133  1  0  0  0
 61134  1  0  0  0
 61135  1  0  0  0
 61136  1  0  0  0
 62137  1  0  0  0
 62138  1  0  0  0
 62139  1  0  0  0
 63 65  1  0  0  0
 63140  1  0  0  0
 63141  1  0  0  0
 63142  1  0  0  0
 64143  1  0  0  0
 65144  1  0  0  0
 68 82  1  0  0  0
 71 72  1  0  0  0
 71 73  1  0  0  0
 71145  1  0  0  0
 71146  1  0  0  0
 72 74  1  0  0  0
 72147  1  0  0  0
 72148  1  0  0  0
 73 84  1  0  0  0
 73149  1  0  0  0
 73150  1  0  0  0
 74 80  1  0  0  0
 74 84  1  0  0  0
 74151  1  0  0  0
 75152  1  0  0  0
 75153  1  0  0  0
 75154  1  0  0  0
 75 81  1  0  0  0
 76155  1  0  0  0
 76156  1  0  0  0
 76157  1  0  0  0
 76 83  1  0  0  0
 77 83  1  0  0  0
 77158  1  0  0  0
 77159  1  0  0  0
 77160  1  0  0  0
 78 83  1  0  0  0
 78161  1  0  0  0
 78162  1  0  0  0
 78163  1  0  0  0
 79164  1  0  0  0
 79165  1  0  0  0
 79166  1  0  0  0
 79 85  1  0  0  0
 80 85  1  0  0  0
 80167  1  0  0  0
 80168  1  0  0  0
 81 82  1  0  0  0
 81 85  1  0  0  0
 81169  1  0  0  0
 82 83  1  0  0  0
 82170  1  0  0  0
 85171  1  0  0  0
M  CHG  1  85   1
M  ISO  4   1 100  68 101  82 101  84 100
M  END
> <chiral flag>
0

> <version>
0

> <s_m_source_file>
/data/baiqing/PycharmProjects/Reinvent-master-3.2/result/LINK_invent/BTK/process_docking_weight1_custom_sum_contain_oxygen_bond_distance_aromatic_linkinvent_7_9_3/rearranged_h_0020.sdf

> <i_m_source_file_index>
95

> <r_mmod_Potential_Energy-OPLS-2005>
1780.38525390625

> <r_mmod_Stretch_Energy-OPLS-2005>
674.034118652344

> <r_mmod_Bend_Energy-OPLS-2005>
619.527221679688

> <r_mmod_Torsional_Energy-OPLS-2005>
463.166534423828

> <r_mmod_Improper_Torsional_Energy-OPLS-2005>
2.49258852005005

> <r_mmod_Van_der_Waal_Energy-OPLS-2005>
110.537498474121

> <r_mmod_Electrostatic_Energy-OPLS-2005>
-113.35196685791

> <r_mmod_Solvation_Energy-OPLS-2005>
-406.885864257812

> <b_mmod_Minimization_Converged-OPLS-2005>
0

> <r_mmod_RMS_Derivative-OPLS-2005>
7.09166860580444

$$$$
