0
                    3D
 Structure written by MMmdl.
179187  0  0  1  0            999 V2000
  -30.7146  -14.5771   20.5384 C   0  0  0  0  0  0
  -30.4239  -12.3771   19.4350 C   0  0  0  0  0  0
  -29.4962  -12.5110   18.2083 C   0  0  0  0  0  0
  -28.0184  -12.3629   18.6152 C   0  0  0  0  0  0
  -27.6530  -13.2176   19.8581 C   0  0  2  0  0  0
  -28.6978  -13.0507   20.9771 C   0  0  0  0  0  0
  -25.2562  -13.8186   20.5657 C   0  0  0  0  0  0
  -24.1846  -13.0462   20.9161 C   0  0  0  0  0  0
  -24.6405  -11.6916   20.8717 C   0  0  0  0  0  0
  -23.9073  -10.4304   21.0390 C   0  0  0  0  0  0
  -24.3628   -9.4220   21.9168 C   0  0  0  0  0  0
  -23.6291   -8.2274   22.0760 C   0  0  0  0  0  0
  -22.4275   -8.0304   21.3551 C   0  0  0  0  0  0
  -21.9908   -9.0288   20.4648 C   0  0  0  0  0  0
  -22.7237  -10.2140   20.3041 C   0  0  0  0  0  0
  -21.6862   -6.0735   22.5272 C   0  0  0  0  0  0
  -21.4008   -6.5639   23.8196 C   0  0  0  0  0  0
  -21.3656   -5.6790   24.9167 C   0  0  0  0  0  0
  -21.6047   -4.3070   24.7215 C   0  0  0  0  0  0
  -21.8823   -3.8142   23.4348 C   0  0  0  0  0  0
  -21.9191   -4.6957   22.3386 C   0  0  0  0  0  0
  -22.7855  -13.5238   21.1825 C   0  0  0  0  0  0
  -22.1662   -4.2138   21.0969 F   0  0  0  0  0  0
  -21.5630   -3.4549   25.7731 F   0  0  0  0  0  0
  -30.0137  -13.4011   20.4172 N   0  0  0  0  0  0
  -26.2989  -12.9372   20.3298 N   0  0  0  0  0  0
  -25.9333  -11.6518   20.5724 N   0  0  0  0  0  0
  -22.0509  -12.8227   22.0368 N   0  0  0  0  0  0
  -25.4324  -15.1924   20.4094 N   0  0  0  0  0  0
  -31.8799  -14.6509   20.1324 O   0  0  0  0  0  0
  -21.6650   -6.8888   21.4233 O   0  0  0  0  0  0
  -22.3542  -14.5564   20.6683 O   0  0  0  0  0  0
  -24.6138  -31.8686   23.2086 C   0  0  0  0  0  0
  -25.9047  -32.4828   23.8392 C   0  0  1  0  0  0
  -27.2276  -27.4390   20.0902 C   0  0  0  0  0  0
  -25.5846  -33.8631   24.2292 N   0  0  0  0  0  0
  -23.3996  -30.4930   21.5512 C   0  0  2  0  0  0
  -24.8501  -28.9655   20.1029 C   0  0  0  0  0  0
  -22.7436  -29.4659   22.5028 C   0  0  0  0  0  0
  -18.0261  -28.1387   22.8502 C   0  0  0  0  0  0
  -24.1490  -36.7339   23.2626 C   0  0  0  0  0  0
  -25.9297  -30.8308   21.3695 C   0  0  0  0  0  0
  -26.0067  -29.4650   20.7195 C   0  0  0  0  0  0
  -27.1965  -28.7006   20.7289 C   0  0  0  0  0  0
  -26.0740  -26.9720   19.4340 C   0  0  0  0  0  0
  -24.8831  -27.7197   19.4518 C   0  0  0  0  0  0
  -23.6073  -29.8256   20.1643 C   0  0  0  0  0  0
  -25.4100  -36.3132   24.0335 C   0  0  1  0  0  0
  -20.5866  -28.3621   23.1312 C   0  0  2  0  0  0
  -20.6759  -26.9396   22.5296 C   0  0  0  0  0  0
  -19.5694  -26.6481   21.5110 C   0  0  0  0  0  0
  -18.1898  -26.7959   22.1575 C   0  0  0  0  0  0
  -19.1527  -28.8811   23.2914 C   0  0  0  0  0  0
  -18.9484  -30.1412   23.8930 C   0  0  0  0  0  0
  -17.6506  -30.6574   24.0625 C   0  0  0  0  0  0
  -25.9028  -34.9492   23.5114 C   0  0  0  0  0  0
  -16.5385  -29.9091   23.6388 C   0  0  0  0  0  0
  -16.7266  -28.6522   23.0373 C   0  0  0  0  0  0
  -26.4429  -31.6608   25.0740 C   0  0  0  0  0  0
  -25.3635  -31.3770   26.1435 C   0  0  0  0  0  0
  -27.0257  -30.3032   24.6145 C   0  0  0  0  0  0
  -27.6013  -32.4297   25.7503 C   0  0  0  0  0  0
  -27.5590  -37.1818   24.8445 C   0  0  0  0  0  0
  -21.4152  -29.3021   22.3774 N   0  0  0  0  0  0
  -26.4304  -37.3804   23.9415 N   0  0  0  0  0  0
  -24.6645  -31.0783   22.1022 N   0  0  0  0  0  0
  -23.4240  -28.8218   23.3051 O   0  0  0  0  0  0
  -28.3395  -26.6270   20.1164 O   0  0  0  0  0  0
  -26.5631  -34.8943   22.4691 O   0  0  0  0  0  0
  -23.5323  -32.1436   23.7458 O   0  0  0  0  0  0
  -28.6371  -22.1694   19.8065 C   0  0  0  0  0  0
  -30.1331  -17.1670   22.8100 C   0  0  0  0  0  0
  -29.9963  -18.4869   22.0481 C   0  0  0  0  0  0
  -29.4511  -15.9887   22.0994 C   0  0  0  0  0  0
  -29.5884  -18.3082   20.5793 C   0  0  2  0  0  0
  -30.3322  -17.0250   19.9951 C   0  0  2  0  0  0
  -28.7111  -16.9122   17.9738 C   0  0  0  0  0  0
  -31.1310  -17.6486   17.5980 C   0  0  0  0  0  0
  -26.9653  -22.2807   22.7296 C   0  0  0  0  0  0
  -25.5597  -24.0013   21.4488 C   0  0  0  0  0  0
  -28.8841  -20.8509   20.5733 C   0  0  0  0  0  0
  -29.7031  -19.7092   19.8693 C   0  0  0  0  0  0
  -28.8643  -24.3686   21.1686 C   0  0  0  0  0  0
  -28.4331  -25.8563   21.3265 C   0  0  0  0  0  0
  -27.8791  -23.3493   20.4930 C   0  0  2  0  0  0
  -30.1630  -16.8103   18.4549 C   0  0  0  0  0  0
  -26.6406  -22.9028   21.3460 C   0  0  0  0  0  0
  -30.0158  -15.7463   20.7577 N   0  0  0  0  0  0
  -29.0511  -22.3005   18.6517 O   0  0  0  0  0  0
  -31.4641  -12.4736   19.1242 H   0  0  0  0  0  0
  -30.3431  -11.3797   19.8701 H   0  0  0  0  0  0
  -29.7532  -11.7614   17.4588 H   0  0  0  0  0  0
  -29.6523  -13.4819   17.7365 H   0  0  0  0  0  0
  -27.8322  -11.3095   18.8218 H   0  0  0  0  0  0
  -27.3723  -12.6280   17.7781 H   0  0  0  0  0  0
  -27.6813  -14.2592   19.5431 H   0  0  0  0  0  0
  -28.7154  -12.0185   21.3327 H   0  0  0  0  0  0
  -28.4112  -13.6399   21.8406 H   0  0  0  0  0  0
  -25.2786   -9.5692   22.4738 H   0  0  0  0  0  0
  -23.9996   -7.4657   22.7487 H   0  0  0  0  0  0
  -21.0845   -8.8801   19.8961 H   0  0  0  0  0  0
  -22.3713  -10.9684   19.6149 H   0  0  0  0  0  0
  -21.2010   -7.6149   23.9687 H   0  0  0  0  0  0
  -21.1467   -6.0534   25.9058 H   0  0  0  0  0  0
  -22.0604   -2.7609   23.2845 H   0  0  0  0  0  0
  -22.4120  -11.9835   22.4670 H   0  0  0  0  0  0
  -21.1111  -13.1206   22.2580 H   0  0  0  0  0  0
  -24.6727  -15.8521   20.5288 H   0  0  0  0  0  0
  -26.2975  -15.6281   20.1189 H   0  0  0  0  0  0
  -26.7160  -32.5569   23.1200 H   0  0  0  0  0  0
  -24.9972  -33.9780   25.0409 H   0  0  0  0  0  0
  -22.6872  -31.3093   21.4198 H   0  0  0  0  0  0
  -23.3745  -35.9682   23.3304 H   0  0  0  0  0  0
  -24.3571  -36.8916   22.2037 H   0  0  0  0  0  0
  -23.7260  -37.6556   23.6621 H   0  0  0  0  0  0
  -26.0420  -31.5961   20.5982 H   0  0  0  0  0  0
  -26.8184  -30.8839   21.9877 H   0  0  0  0  0  0
  -28.0774  -29.0658   21.2368 H   0  0  0  0  0  0
  -26.1014  -26.0305   18.9038 H   0  0  0  0  0  0
  -24.0050  -27.3425   18.9428 H   0  0  0  0  0  0
  -23.6916  -30.5988   19.4020 H   0  0  0  0  0  0
  -22.7342  -29.2361   19.8811 H   0  0  0  0  0  0
  -25.1282  -36.2005   25.0841 H   0  0  0  0  0  0
  -20.9940  -28.3075   24.1428 H   0  0  0  0  0  0
  -20.5718  -26.2151   23.3391 H   0  0  0  0  0  0
  -21.6610  -26.7530   22.0968 H   0  0  0  0  0  0
  -19.6830  -25.6443   21.0976 H   0  0  0  0  0  0
  -19.6605  -27.3442   20.6762 H   0  0  0  0  0  0
  -17.4124  -26.6707   21.4019 H   0  0  0  0  0  0
  -18.0378  -26.0087   22.8957 H   0  0  0  0  0  0
  -19.7985  -30.7199   24.2285 H   0  0  0  0  0  0
  -17.5093  -31.6258   24.5244 H   0  0  0  0  0  0
  -15.5379  -30.3015   23.7712 H   0  0  0  0  0  0
  -15.8640  -28.0880   22.7064 H   0  0  0  0  0  0
  -24.5806  -30.7118   25.7763 H   0  0  0  0  0  0
  -24.8813  -32.2954   26.4816 H   0  0  0  0  0  0
  -25.7883  -30.8980   27.0251 H   0  0  0  0  0  0
  -26.2870  -29.6866   24.0995 H   0  0  0  0  0  0
  -27.3798  -29.7196   25.4659 H   0  0  0  0  0  0
  -27.8799  -30.4365   23.9487 H   0  0  0  0  0  0
  -27.2647  -33.3567   26.2146 H   0  0  0  0  0  0
  -28.3778  -32.6853   25.0294 H   0  0  0  0  0  0
  -28.0712  -31.8357   26.5340 H   0  0  0  0  0  0
  -28.2599  -38.0135   24.7534 H   0  0  0  0  0  0
  -28.1094  -36.2656   24.6216 H   0  0  0  0  0  0
  -27.2306  -37.1420   25.8848 H   0  0  0  0  0  0
  -20.9273  -29.8780   21.7060 H   0  0  0  0  0  0
  -26.0190  -38.2896   24.1363 H   0  0  0  0  0  0
  -29.7306  -17.2888   23.8158 H   0  0  0  0  0  0
  -31.1929  -16.9397   22.9397 H   0  0  0  0  0  0
  -30.9423  -19.0288   22.1022 H   0  0  0  0  0  0
  -29.2606  -19.1093   22.5572 H   0  0  0  0  0  0
  -28.3809  -16.1725   22.0036 H   0  0  0  0  0  0
  -29.5610  -15.1287   22.7575 H   0  0  0  0  0  0
  -28.5233  -18.0755   20.5544 H   0  0  0  0  0  0
  -31.3979  -17.1989   20.1677 H   0  0  0  0  0  0
  -28.0427  -16.3648   18.6360 H   0  0  0  0  0  0
  -28.6047  -16.4965   16.9745 H   0  0  0  0  0  0
  -28.3561  -17.9426   17.9324 H   0  0  0  0  0  0
  -32.1675  -17.4015   17.8352 H   0  0  0  0  0  0
  -31.0086  -18.7201   17.7247 H   0  0  0  0  0  0
  -30.9949  -17.4291   16.5392 H   0  0  0  0  0  0
  -26.2004  -22.4915   23.4805 H   0  0  0  0  0  0
  -27.9122  -22.6139   23.1451 H   0  0  0  0  0  0
  -27.0362  -21.1938   22.6727 H   0  0  0  0  0  0
  -24.5787  -23.5749   21.6574 H   0  0  0  0  0  0
  -25.4596  -24.5384   20.5084 H   0  0  0  0  0  0
  -25.7645  -24.7376   22.2271 H   0  0  0  0  0  0
  -27.8982  -20.4535   20.7995 H   0  0  0  0  0  0
  -29.3511  -21.1239   21.5178 H   0  0  0  0  0  0
  -29.3424  -19.6349   18.8459 H   0  0  0  0  0  0
  -30.7483  -20.0132   19.7945 H   0  0  0  0  0  0
  -29.1099  -24.0159   22.1714 H   0  0  0  0  0  0
  -29.8184  -24.3549   20.6445 H   0  0  0  0  0  0
  -29.1971  -26.3541   21.9298 H   0  0  0  0  0  0
  -27.5234  -25.9299   21.9185 H   0  0  0  0  0  0
  -27.4521  -23.8750   19.6402 H   0  0  0  0  0  0
  -30.4585  -15.7913   18.2177 H   0  0  0  0  0  0
  -26.1483  -22.1080   20.7816 H   0  0  0  0  0  0
  1 25  1  0  0  0
  1 30  2  0  0  0
  1 88  1  0  0  0
  2  3  1  0  0  0
  2 25  1  0  0  0
  2 90  1  0  0  0
  2 91  1  0  0  0
  3  4  1  0  0  0
  3 92  1  0  0  0
  3 93  1  0  0  0
  4  5  1  0  0  0
  4 94  1  0  0  0
  4 95  1  0  0  0
  5  6  1  0  0  0
  5 26  1  0  0  0
  5 96  1  0  0  0
  6 25  1  0  0  0
  6 97  1  0  0  0
  6 98  1  0  0  0
  7  8  2  0  0  0
  7 26  1  0  0  0
  7 29  1  0  0  0
  8  9  1  0  0  0
  8 22  1  0  0  0
  9 10  1  0  0  0
  9 27  2  0  0  0
 10 11  2  0  0  0
 10 15  1  0  0  0
 11 12  1  0  0  0
 11 99  1  0  0  0
 12 13  2  0  0  0
 12100  1  0  0  0
 13 14  1  0  0  0
 13 31  1  0  0  0
 14 15  2  0  0  0
 14101  1  0  0  0
 15102  1  0  0  0
 16 17  2  0  0  0
 16 21  1  0  0  0
 16 31  1  0  0  0
 17 18  1  0  0  0
 17103  1  0  0  0
 18 19  2  0  0  0
 18104  1  0  0  0
 19 20  1  0  0  0
 19 24  1  0  0  0
 20 21  2  0  0  0
 20105  1  0  0  0
 21 23  1  0  0  0
 22 28  1  0  0  0
 22 32  2  0  0  0
 26 27  1  0  0  0
 28106  1  0  0  0
 28107  1  0  0  0
 29108  1  0  0  0
 29109  1  0  0  0
 33 34  1  0  0  0
 33 66  1  0  0  0
 33 70  2  0  0  0
 34 36  1  0  0  0
 34 59  1  0  0  0
 34110  1  0  0  0
 35 44  2  0  0  0
 35 45  1  0  0  0
 35 68  1  0  0  0
 36 56  1  0  0  0
 36111  1  0  0  0
 37 39  1  0  0  0
 37 47  1  0  0  0
 37 66  1  0  0  0
 37112  1  0  0  0
 38 43  2  0  0  0
 38 46  1  0  0  0
 38 47  1  0  0  0
 39 64  1  0  0  0
 39 67  2  0  0  0
 40 52  1  0  0  0
 40 53  2  0  0  0
 40 58  1  0  0  0
 41113  1  0  0  0
 41114  1  0  0  0
 41115  1  0  0  0
 41 48  1  0  0  0
 42 43  1  0  0  0
 42 66  1  0  0  0
 42116  1  0  0  0
 42117  1  0  0  0
 43 44  1  0  0  0
 44118  1  0  0  0
 45 46  2  0  0  0
 45119  1  0  0  0
 46120  1  0  0  0
 47121  1  0  0  0
 47122  1  0  0  0
 48 56  1  0  0  0
 48 65  1  0  0  0
 48123  1  0  0  0
 49 50  1  0  0  0
 49 53  1  0  0  0
 49 64  1  0  0  0
 49124  1  0  0  0
 50 51  1  0  0  0
 50125  1  0  0  0
 50126  1  0  0  0
 51 52  1  0  0  0
 51127  1  0  0  0
 51128  1  0  0  0
 52129  1  0  0  0
 52130  1  0  0  0
 53 54  1  0  0  0
 54 55  2  0  0  0
 54131  1  0  0  0
 55 57  1  0  0  0
 55132  1  0  0  0
 56 69  2  0  0  0
 57 58  2  0  0  0
 57133  1  0  0  0
 58134  1  0  0  0
 59 60  1  0  0  0
 59 61  1  0  0  0
 59 62  1  0  0  0
 60135  1  0  0  0
 60136  1  0  0  0
 60137  1  0  0  0
 61138  1  0  0  0
 61139  1  0  0  0
 61140  1  0  0  0
 62141  1  0  0  0
 62142  1  0  0  0
 62143  1  0  0  0
 63 65  1  0  0  0
 63144  1  0  0  0
 63145  1  0  0  0
 63146  1  0  0  0
 64147  1  0  0  0
 65148  1  0  0  0
 68 84  1  0  0  0
 71 81  1  0  0  0
 71 85  1  0  0  0
 71 89  2  0  0  0
 72 73  1  0  0  0
 72 74  1  0  0  0
 72149  1  0  0  0
 72150  1  0  0  0
 73 75  1  0  0  0
 73151  1  0  0  0
 73152  1  0  0  0
 74 88  1  0  0  0
 74153  1  0  0  0
 74154  1  0  0  0
 75 76  1  0  0  0
 75 82  1  0  0  0
 75155  1  0  0  0
 76 86  1  0  0  0
 76 88  1  0  0  0
 76156  1  0  0  0
 77157  1  0  0  0
 77158  1  0  0  0
 77159  1  0  0  0
 77 86  1  0  0  0
 78 86  1  0  0  0
 78160  1  0  0  0
 78161  1  0  0  0
 78162  1  0  0  0
 79163  1  0  0  0
 79164  1  0  0  0
 79165  1  0  0  0
 79 87  1  0  0  0
 80 87  1  0  0  0
 80166  1  0  0  0
 80167  1  0  0  0
 80168  1  0  0  0
 81 82  1  0  0  0
 81169  1  0  0  0
 81170  1  0  0  0
 82171  1  0  0  0
 82172  1  0  0  0
 83 84  1  0  0  0
 83173  1  0  0  0
 83174  1  0  0  0
 83 85  1  0  0  0
 84175  1  0  0  0
 84176  1  0  0  0
 85 87  1  0  0  0
 85177  1  0  0  0
 86178  1  0  0  0
 87179  1  0  0  0
M  ISO  4   1 100  68 101  84 101  88 100
M  END
> <chiral flag>
0

> <version>
0

> <s_m_source_file>
/data/baiqing/PycharmProjects/Reinvent-master-3.2/result/LINK_invent/BTK/process_docking_weight1_custom_sum_contain_oxygen_bond_distance_aromatic_linkinvent_7_9_3/rearranged_h_0023.sdf

> <i_m_source_file_index>
1

> <r_mmod_Potential_Energy-OPLS-2005>
312.297302246094

> <r_mmod_Stretch_Energy-OPLS-2005>
64.3512115478516

> <r_mmod_Bend_Energy-OPLS-2005>
147.197998046875

> <r_mmod_Torsional_Energy-OPLS-2005>
401.269653320312

> <r_mmod_Improper_Torsional_Energy-OPLS-2005>
11.7571411132812

> <r_mmod_Van_der_Waal_Energy-OPLS-2005>
138.049819946289

> <r_mmod_Electrostatic_Energy-OPLS-2005>
-287.694091796875

> <r_mmod_Solvation_Energy-OPLS-2005>
-188.789276123047

> <b_mmod_Minimization_Converged-OPLS-2005>
0

> <r_mmod_RMS_Derivative-OPLS-2005>
6.36803674697876

$$$$
1
                    3D
 Structure written by MMmdl.
187195  0  0  1  0            999 V2000
  -30.5255  -14.9757   20.4674 C   0  0  0  0  0  0
  -30.4407  -12.6158   19.5100 C   0  0  0  0  0  0
  -29.5256  -12.5565   18.2644 C   0  0  0  0  0  0
  -28.0579  -12.3347   18.6739 C   0  0  0  0  0  0
  -27.6282  -13.2540   19.8446 C   0  0  2  0  0  0
  -28.6654  -13.2791   20.9853 C   0  0  0  0  0  0
  -25.2379  -13.8034   20.5498 C   0  0  0  0  0  0
  -24.1762  -13.0327   20.9214 C   0  0  0  0  0  0
  -24.6440  -11.6842   20.8811 C   0  0  0  0  0  0
  -23.9110  -10.4229   21.0446 C   0  0  0  0  0  0
  -24.3640   -9.4133   21.9223 C   0  0  0  0  0  0
  -23.6281   -8.2187   22.0766 C   0  0  0  0  0  0
  -22.4270   -8.0252   21.3548 C   0  0  0  0  0  0
  -21.9926   -9.0243   20.4656 C   0  0  0  0  0  0
  -22.7279  -10.2110   20.3079 C   0  0  0  0  0  0
  -21.6826   -6.0718   22.5268 C   0  0  0  0  0  0
  -21.3995   -6.5624   23.8204 C   0  0  0  0  0  0
  -21.3665   -5.6783   24.9176 C   0  0  0  0  0  0
  -21.6052   -4.3048   24.7232 C   0  0  0  0  0  0
  -21.8813   -3.8134   23.4357 C   0  0  0  0  0  0
  -21.9178   -4.6943   22.3405 C   0  0  0  0  0  0
  -22.7803  -13.5149   21.1842 C   0  0  0  0  0  0
  -22.1644   -4.2133   21.0988 F   0  0  0  0  0  0
  -21.5649   -3.4537   25.7751 F   0  0  0  0  0  0
  -29.9391  -13.7088   20.3963 N   0  0  0  0  0  0
  -26.2886  -12.9365   20.3231 N   0  0  0  0  0  0
  -25.9392  -11.6508   20.5830 N   0  0  0  0  0  0
  -22.0465  -12.8176   22.0423 N   0  0  0  0  0  0
  -25.3846  -15.1631   20.3344 N   0  0  0  0  0  0
  -31.7229  -15.0490   20.1696 O   0  0  0  0  0  0
  -21.6621   -6.8870   21.4237 O   0  0  0  0  0  0
  -22.3527  -14.5480   20.6691 O   0  0  0  0  0  0
  -24.6421  -31.8389   23.1811 C   0  0  0  0  0  0
  -25.9197  -32.4617   23.8193 C   0  0  1  0  0  0
  -27.2351  -27.1299   20.1417 C   0  0  0  0  0  0
  -25.5923  -33.8423   24.2088 N   0  0  0  0  0  0
  -23.4462  -30.4490   21.5319 C   0  0  2  0  0  0
  -24.8991  -28.8751   20.1039 C   0  0  0  0  0  0
  -22.7586  -29.4441   22.4893 C   0  0  0  0  0  0
  -18.0285  -28.1342   22.8388 C   0  0  0  0  0  0
  -24.1517  -36.7291   23.2634 C   0  0  0  0  0  0
  -25.9986  -30.7092   21.3823 C   0  0  0  0  0  0
  -26.0717  -29.3180   20.7253 C   0  0  0  0  0  0
  -27.2343  -28.4593   20.7322 C   0  0  0  0  0  0
  -26.0338  -26.7837   19.4841 C   0  0  0  0  0  0
  -24.8917  -27.6197   19.4715 C   0  0  0  0  0  0
  -23.6726  -29.7765   20.1507 C   0  0  0  0  0  0
  -25.4134  -36.2938   24.0267 C   0  0  1  0  0  0
  -20.5900  -28.3650   23.1229 C   0  0  2  0  0  0
  -20.6798  -26.9368   22.5393 C   0  0  0  0  0  0
  -19.5782  -26.6322   21.5182 C   0  0  0  0  0  0
  -18.1945  -26.7850   22.1578 C   0  0  0  0  0  0
  -19.1560  -28.8832   23.2745 C   0  0  0  0  0  0
  -18.9473  -30.1425   23.8755 C   0  0  0  0  0  0
  -17.6485  -30.6529   24.0509 C   0  0  0  0  0  0
  -25.9082  -34.9327   23.4994 C   0  0  0  0  0  0
  -16.5369  -29.9017   23.6278 C   0  0  0  0  0  0
  -16.7285  -28.6458   23.0245 C   0  0  0  0  0  0
  -26.4515  -31.6500   25.0654 C   0  0  0  0  0  0
  -25.3676  -31.3771   26.1353 C   0  0  0  0  0  0
  -27.0351  -30.2819   24.6323 C   0  0  0  0  0  0
  -27.6000  -32.4333   25.7460 C   0  0  0  0  0  0
  -27.5564  -37.1788   24.8423 C   0  0  0  0  0  0
  -21.4285  -29.2946   22.3621 N   0  0  0  0  0  0
  -26.4267  -37.3680   23.9382 N   0  0  0  0  0  0
  -24.7144  -31.0206   22.0866 N   0  0  0  0  0  0
  -23.4222  -28.8050   23.3083 O   0  0  0  0  0  0
  -28.3226  -26.1861   20.2553 O   0  0  0  0  0  0
  -26.5684  -34.8826   22.4573 O   0  0  0  0  0  0
  -23.5537  -32.1285   23.7010 O   0  0  0  0  0  0
  -27.3426  -20.4286   19.7437 C   0  0  0  0  0  0
  -28.6204  -20.3636   20.2226 C   0  0  0  0  0  0
  -28.8095  -18.8672   20.5411 C   0  0  0  0  0  0
  -27.5030  -18.5165   20.8336 C   0  0  0  0  0  0
  -24.8797  -21.6207   22.4901 C   0  0  0  0  0  0
  -31.2739  -17.0283   22.9689 C   0  0  0  0  0  0
  -32.0501  -19.0203   21.6170 C   0  0  0  0  0  0
  -25.9420  -19.6271   25.7259 C   0  0  0  0  0  0
  -23.6819  -20.0136   24.7678 C   0  0  0  0  0  0
  -25.2785  -19.0502   19.6628 C   0  0  0  0  0  0
  -29.3584  -21.8243   20.1405 C   0  0  0  0  0  0
  -26.9170  -17.5546   21.8338 C   0  0  0  0  0  0
  -25.6984  -21.1185   23.6974 C   0  0  0  0  0  0
  -28.6310  -23.2837   20.6300 C   0  0  0  0  0  0
  -25.3082  -18.5808   23.4878 C   0  0  0  0  0  0
  -28.4012  -24.7081   19.7494 C   0  0  0  0  0  0
  -30.0121  -17.7269   20.7468 C   0  0  1  0  0  0
  -30.8397  -18.1508   22.0046 C   0  0  0  0  0  0
  -25.1719  -19.8323   24.4018 C   0  0  0  0  0  0
  -26.6624  -19.2901   20.0540 N   0  0  0  0  0  0
  -29.7379  -16.1488   20.7019 N   0  0  0  0  0  0
  -26.7124  -18.2581   23.1207 N   0  3  0  0  0  0
  -31.4744  -12.7845   19.2003 H   0  0  0  0  0  0
  -30.4421  -11.6625   20.0409 H   0  0  0  0  0  0
  -29.8491  -11.7657   17.5880 H   0  0  0  0  0  0
  -29.6130  -13.4920   17.7086 H   0  0  0  0  0  0
  -27.9502  -11.2922   18.9706 H   0  0  0  0  0  0
  -27.3983  -12.4755   17.8155 H   0  0  0  0  0  0
  -27.5899  -14.2600   19.4230 H   0  0  0  0  0  0
  -28.7556  -12.2975   21.4506 H   0  0  0  0  0  0
  -28.3576  -13.9689   21.7711 H   0  0  0  0  0  0
  -25.2778   -9.5578   22.4810 H   0  0  0  0  0  0
  -23.9971   -7.4563   22.7484 H   0  0  0  0  0  0
  -21.0853   -8.8782   19.8957 H   0  0  0  0  0  0
  -22.3760  -10.9659   19.6198 H   0  0  0  0  0  0
  -21.1975   -7.6124   23.9700 H   0  0  0  0  0  0
  -21.1497   -6.0521   25.9075 H   0  0  0  0  0  0
  -22.0590   -2.7592   23.2870 H   0  0  0  0  0  0
  -22.4092  -11.9817   22.4756 H   0  0  0  0  0  0
  -21.1106  -13.1216   22.2684 H   0  0  0  0  0  0
  -24.5091  -15.6571   20.1953 H   0  0  0  0  0  0
  -26.0868  -15.4355   19.6592 H   0  0  0  0  0  0
  -26.7332  -32.5208   23.0994 H   0  0  0  0  0  0
  -24.9954  -33.9585   25.0146 H   0  0  0  0  0  0
  -22.7400  -31.2675   21.3767 H   0  0  0  0  0  0
  -23.3698  -35.9698   23.3217 H   0  0  0  0  0  0
  -24.3629  -36.9038   22.2075 H   0  0  0  0  0  0
  -23.7416  -37.6504   23.6772 H   0  0  0  0  0  0
  -26.1458  -31.4649   20.6112 H   0  0  0  0  0  0
  -26.8731  -30.7636   22.0178 H   0  0  0  0  0  0
  -28.1272  -28.7914   21.2432 H   0  0  0  0  0  0
  -25.9297  -25.8253   19.0024 H   0  0  0  0  0  0
  -23.9988  -27.2724   18.9737 H   0  0  0  0  0  0
  -23.8146  -30.5541   19.3975 H   0  0  0  0  0  0
  -22.7847  -29.2222   19.8387 H   0  0  0  0  0  0
  -25.1351  -36.1718   25.0765 H   0  0  0  0  0  0
  -20.9916  -28.3264   24.1388 H   0  0  0  0  0  0
  -20.5687  -26.2289   23.3628 H   0  0  0  0  0  0
  -21.6678  -26.7405   22.1198 H   0  0  0  0  0  0
  -19.6963  -25.6226   21.1246 H   0  0  0  0  0  0
  -19.6712  -27.3098   20.6675 H   0  0  0  0  0  0
  -17.4217  -26.6495   21.3982 H   0  0  0  0  0  0
  -18.0352  -26.0009   22.9006 H   0  0  0  0  0  0
  -19.7968  -30.7221   24.2103 H   0  0  0  0  0  0
  -17.5037  -31.6198   24.5157 H   0  0  0  0  0  0
  -15.5366  -30.2875   23.7678 H   0  0  0  0  0  0
  -15.8666  -28.0809   22.6934 H   0  0  0  0  0  0
  -24.5903  -30.7021   25.7779 H   0  0  0  0  0  0
  -24.8804  -32.2974   26.4547 H   0  0  0  0  0  0
  -25.7958  -30.9163   27.0262 H   0  0  0  0  0  0
  -26.2950  -29.6528   24.1353 H   0  0  0  0  0  0
  -27.3866  -29.7149   25.4958 H   0  0  0  0  0  0
  -27.8903  -30.3909   23.9647 H   0  0  0  0  0  0
  -27.2549  -33.3734   26.1795 H   0  0  0  0  0  0
  -28.3941  -32.6795   25.0394 H   0  0  0  0  0  0
  -28.0490  -31.8622   26.5600 H   0  0  0  0  0  0
  -28.2498  -38.0140   24.7434 H   0  0  0  0  0  0
  -28.1144  -36.2661   24.6275 H   0  0  0  0  0  0
  -27.2269  -37.1467   25.8814 H   0  0  0  0  0  0
  -20.9520  -29.8714   21.6869 H   0  0  0  0  0  0
  -26.0061  -38.2715   24.1395 H   0  0  0  0  0  0
  -26.8244  -21.2465   19.2587 H   0  0  0  0  0  0
  -25.4184  -22.4078   21.9622 H   0  0  0  0  0  0
  -23.9173  -22.0405   22.7868 H   0  0  0  0  0  0
  -24.6879  -20.8349   21.7634 H   0  0  0  0  0  0
  -31.7451  -17.4519   23.8574 H   0  0  0  0  0  0
  -32.0019  -16.3614   22.5083 H   0  0  0  0  0  0
  -30.4309  -16.4337   23.3223 H   0  0  0  0  0  0
  -32.5475  -19.4235   22.5001 H   0  0  0  0  0  0
  -31.7535  -19.8704   21.0022 H   0  0  0  0  0  0
  -32.7873  -18.4516   21.0501 H   0  0  0  0  0  0
  -25.7509  -20.4502   26.4170 H   0  0  0  0  0  0
  -27.0214  -19.5816   25.5805 H   0  0  0  0  0  0
  -25.6387  -18.7098   26.2340 H   0  0  0  0  0  0
  -23.5290  -20.9081   25.3733 H   0  0  0  0  0  0
  -23.3038  -19.1644   25.3395 H   0  0  0  0  0  0
  -23.0475  -20.1071   23.8857 H   0  0  0  0  0  0
  -24.8141  -19.9850   19.3448 H   0  0  0  0  0  0
  -24.6706  -18.6440   20.4629 H   0  0  0  0  0  0
  -25.2601  -18.3456   18.8285 H   0  0  0  0  0  0
  -29.6652  -21.9560   19.1022 H   0  0  0  0  0  0
  -30.2923  -21.7158   20.6938 H   0  0  0  0  0  0
  -27.5612  -16.6936   21.9902 H   0  0  0  0  0  0
  -25.9604  -17.1732   21.5039 H   0  0  0  0  0  0
  -25.7483  -21.9308   24.4240 H   0  0  0  0  0  0
  -26.7291  -20.9727   23.3725 H   0  0  0  0  0  0
  -29.2416  -23.6028   21.4752 H   0  0  0  0  0  0
  -27.6816  -23.0242   21.0958 H   0  0  0  0  0  0
  -24.7002  -18.7521   22.6036 H   0  0  0  0  0  0
  -24.8701  -17.7048   23.9700 H   0  0  0  0  0  0
  -27.5814  -24.5241   19.0599 H   0  0  0  0  0  0
  -29.2700  -24.7399   19.0914 H   0  0  0  0  0  0
  -30.6569  -17.8671   19.8795 H   0  0  0  0  0  0
  -30.1889  -18.7841   22.6127 H   0  0  0  0  0  0
  -28.7671  -15.9145   20.8240 H   0  0  0  0  0  0
  -27.2396  -19.1141   23.0634 H   0  0  0  0  0  0
  -27.1061  -17.6954   23.8549 H   0  0  0  0  0  0
  1 25  1  0  0  0
  1 30  2  0  0  0
  1 91  1  0  0  0
  2  3  1  0  0  0
  2 25  1  0  0  0
  2 93  1  0  0  0
  2 94  1  0  0  0
  3  4  1  0  0  0
  3 95  1  0  0  0
  3 96  1  0  0  0
  4  5  1  0  0  0
  4 97  1  0  0  0
  4 98  1  0  0  0
  5  6  1  0  0  0
  5 26  1  0  0  0
  5 99  1  0  0  0
  6 25  1  0  0  0
  6100  1  0  0  0
  6101  1  0  0  0
  7  8  2  0  0  0
  7 26  1  0  0  0
  7 29  1  0  0  0
  8  9  1  0  0  0
  8 22  1  0  0  0
  9 10  1  0  0  0
  9 27  2  0  0  0
 10 11  2  0  0  0
 10 15  1  0  0  0
 11 12  1  0  0  0
 11102  1  0  0  0
 12 13  2  0  0  0
 12103  1  0  0  0
 13 14  1  0  0  0
 13 31  1  0  0  0
 14 15  2  0  0  0
 14104  1  0  0  0
 15105  1  0  0  0
 16 17  2  0  0  0
 16 21  1  0  0  0
 16 31  1  0  0  0
 17 18  1  0  0  0
 17106  1  0  0  0
 18 19  2  0  0  0
 18107  1  0  0  0
 19 20  1  0  0  0
 19 24  1  0  0  0
 20 21  2  0  0  0
 20108  1  0  0  0
 21 23  1  0  0  0
 22 28  1  0  0  0
 22 32  2  0  0  0
 26 27  1  0  0  0
 28109  1  0  0  0
 28110  1  0  0  0
 29111  1  0  0  0
 29112  1  0  0  0
 33 34  1  0  0  0
 33 66  1  0  0  0
 33 70  2  0  0  0
 34 36  1  0  0  0
 34 59  1  0  0  0
 34113  1  0  0  0
 35 44  2  0  0  0
 35 45  1  0  0  0
 35 68  1  0  0  0
 36 56  1  0  0  0
 36114  1  0  0  0
 37 39  1  0  0  0
 37 47  1  0  0  0
 37 66  1  0  0  0
 37115  1  0  0  0
 38 43  2  0  0  0
 38 46  1  0  0  0
 38 47  1  0  0  0
 39 64  1  0  0  0
 39 67  2  0  0  0
 40 52  1  0  0  0
 40 53  2  0  0  0
 40 58  1  0  0  0
 41116  1  0  0  0
 41117  1  0  0  0
 41118  1  0  0  0
 41 48  1  0  0  0
 42 43  1  0  0  0
 42 66  1  0  0  0
 42119  1  0  0  0
 42120  1  0  0  0
 43 44  1  0  0  0
 44121  1  0  0  0
 45 46  2  0  0  0
 45122  1  0  0  0
 46123  1  0  0  0
 47124  1  0  0  0
 47125  1  0  0  0
 48 56  1  0  0  0
 48 65  1  0  0  0
 48126  1  0  0  0
 49 50  1  0  0  0
 49 53  1  0  0  0
 49 64  1  0  0  0
 49127  1  0  0  0
 50 51  1  0  0  0
 50128  1  0  0  0
 50129  1  0  0  0
 51 52  1  0  0  0
 51130  1  0  0  0
 51131  1  0  0  0
 52132  1  0  0  0
 52133  1  0  0  0
 53 54  1  0  0  0
 54 55  2  0  0  0
 54134  1  0  0  0
 55 57  1  0  0  0
 55135  1  0  0  0
 56 69  2  0  0  0
 57 58  2  0  0  0
 57136  1  0  0  0
 58137  1  0  0  0
 59 60  1  0  0  0
 59 61  1  0  0  0
 59 62  1  0  0  0
 60138  1  0  0  0
 60139  1  0  0  0
 60140  1  0  0  0
 61141  1  0  0  0
 61142  1  0  0  0
 61143  1  0  0  0
 62144  1  0  0  0
 62145  1  0  0  0
 62146  1  0  0  0
 63 65  1  0  0  0
 63147  1  0  0  0
 63148  1  0  0  0
 63149  1  0  0  0
 64150  1  0  0  0
 65151  1  0  0  0
 68 86  1  0  0  0
 71 72  2  0  0  0
 71 90  1  0  0  0
 71152  1  0  0  0
 72 73  1  0  0  0
 72 81  1  0  0  0
 73 74  2  0  0  0
 73 87  1  0  0  0
 74 82  1  0  0  0
 74 90  1  0  0  0
 75 83  1  0  0  0
 75153  1  0  0  0
 75154  1  0  0  0
 75155  1  0  0  0
 76156  1  0  0  0
 76157  1  0  0  0
 76158  1  0  0  0
 76 88  1  0  0  0
 77 88  1  0  0  0
 77159  1  0  0  0
 77160  1  0  0  0
 77161  1  0  0  0
 78162  1  0  0  0
 78163  1  0  0  0
 78164  1  0  0  0
 78 89  1  0  0  0
 79 89  1  0  0  0
 79165  1  0  0  0
 79166  1  0  0  0
 79167  1  0  0  0
 80 90  1  0  0  0
 80168  1  0  0  0
 80169  1  0  0  0
 80170  1  0  0  0
 81 84  1  0  0  0
 81171  1  0  0  0
 81172  1  0  0  0
 82 92  1  0  0  0
 82173  1  0  0  0
 82174  1  0  0  0
 83 89  1  0  0  0
 83175  1  0  0  0
 83176  1  0  0  0
 84 86  1  0  0  0
 84177  1  0  0  0
 84178  1  0  0  0
 85 89  1  0  0  0
 85 92  1  0  0  0
 85179  1  0  0  0
 85180  1  0  0  0
 86181  1  0  0  0
 86182  1  0  0  0
 87 88  1  0  0  0
 87 91  1  0  0  0
 87183  1  0  0  0
 88184  1  0  0  0
 91185  1  0  0  0
 92186  1  0  0  0
 92187  1  0  0  0
M  CHG  1  92   1
M  ISO  4   1 100  68 101  86 101  91 100
M  END
> <chiral flag>
0

> <version>
0

> <s_m_source_file>
/data/baiqing/PycharmProjects/Reinvent-master-3.2/result/LINK_invent/BTK/process_docking_weight1_custom_sum_contain_oxygen_bond_distance_aromatic_linkinvent_7_9_3/rearranged_h_0023.sdf

> <i_m_source_file_index>
2

> <r_mmod_Potential_Energy-OPLS-2005>
447.302795410156

> <r_mmod_Stretch_Energy-OPLS-2005>
300.806396484375

> <r_mmod_Bend_Energy-OPLS-2005>
333.462432861328

> <r_mmod_Torsional_Energy-OPLS-2005>
344.114135742188

> <r_mmod_Improper_Torsional_Energy-OPLS-2005>
9.51398372650146

> <r_mmod_Van_der_Waal_Energy-OPLS-2005>
98.6557388305664

> <r_mmod_Electrostatic_Energy-OPLS-2005>
-410.253204345703

> <r_mmod_Solvation_Energy-OPLS-2005>
-431.667144775391

> <b_mmod_Minimization_Converged-OPLS-2005>
0

> <r_mmod_RMS_Derivative-OPLS-2005>
4.79046010971069

$$$$
2
                    3D
 Structure written by MMmdl.
206215  0  0  1  0            999 V2000
  -30.7545  -14.5561   20.4433 C   0  0  0  0  0  0
  -30.4046  -12.3296   19.4294 C   0  0  0  0  0  0
  -29.4741  -12.4255   18.2043 C   0  0  0  0  0  0
  -28.0100  -12.2245   18.6427 C   0  0  0  0  0  0
  -27.6170  -13.1346   19.8264 C   0  0  2  0  0  0
  -28.6909  -13.1443   20.9538 C   0  0  0  0  0  0
  -25.2567  -13.7926   20.5740 C   0  0  0  0  0  0
  -24.1759  -13.0270   20.9292 C   0  0  0  0  0  0
  -24.6264  -11.6753   20.8869 C   0  0  0  0  0  0
  -23.8938  -10.4188   21.0512 C   0  0  0  0  0  0
  -24.3529   -9.4105   21.9245 C   0  0  0  0  0  0
  -23.6220   -8.2137   22.0776 C   0  0  0  0  0  0
  -22.4210   -8.0212   21.3554 C   0  0  0  0  0  0
  -21.9841   -9.0183   20.4660 C   0  0  0  0  0  0
  -22.7158  -10.2066   20.3102 C   0  0  0  0  0  0
  -21.6812   -6.0702   22.5288 C   0  0  0  0  0  0
  -21.3984   -6.5623   23.8218 C   0  0  0  0  0  0
  -21.3653   -5.6787   24.9189 C   0  0  0  0  0  0
  -21.6049   -4.3054   24.7245 C   0  0  0  0  0  0
  -21.8821   -3.8133   23.4373 C   0  0  0  0  0  0
  -21.9174   -4.6937   22.3420 C   0  0  0  0  0  0
  -22.7837  -13.5201   21.1910 C   0  0  0  0  0  0
  -22.1649   -4.2125   21.0997 F   0  0  0  0  0  0
  -21.5635   -3.4543   25.7763 F   0  0  0  0  0  0
  -30.0157  -13.4037   20.3599 N   0  0  0  0  0  0
  -26.2819  -12.8872   20.3315 N   0  0  0  0  0  0
  -25.9139  -11.6153   20.5879 N   0  0  0  0  0  0
  -22.0414  -12.8194   22.0464 N   0  0  0  0  0  0
  -25.4307  -15.1612   20.4111 N   0  0  0  0  0  0
  -31.9546  -14.5639   20.1621 O   0  0  0  0  0  0
  -21.6577   -6.8817   21.4240 O   0  0  0  0  0  0
  -22.3594  -14.5511   20.6759 O   0  0  0  0  0  0
  -24.6301  -31.8626   23.2434 C   0  0  0  0  0  0
  -25.9230  -32.4744   23.8703 C   0  0  1  0  0  0
  -27.2119  -27.4702   20.0861 C   0  0  0  0  0  0
  -25.6288  -33.8571   24.2696 N   0  0  0  0  0  0
  -23.4004  -30.5025   21.5769 C   0  0  2  0  0  0
  -24.8307  -28.9717   20.1333 C   0  0  0  0  0  0
  -22.7427  -29.4626   22.5104 C   0  0  0  0  0  0
  -18.0244  -28.1436   22.8436 C   0  0  0  0  0  0
  -24.1886  -36.7075   23.2274 C   0  0  0  0  0  0
  -25.9211  -30.8541   21.3696 C   0  0  0  0  0  0
  -25.9867  -29.4788   20.7386 C   0  0  0  0  0  0
  -27.1682  -28.7150   20.7529 C   0  0  0  0  0  0
  -26.0423  -26.9667   19.4928 C   0  0  0  0  0  0
  -24.8491  -27.7074   19.5165 C   0  0  0  0  0  0
  -23.5997  -29.8494   20.1812 C   0  0  0  0  0  0
  -25.4291  -36.3012   24.0388 C   0  0  1  0  0  0
  -20.5844  -28.3672   23.1376 C   0  0  2  0  0  0
  -20.6771  -26.9455   22.5413 C   0  0  0  0  0  0
  -19.5748  -26.6411   21.5223 C   0  0  0  0  0  0
  -18.1920  -26.7952   22.1599 C   0  0  0  0  0  0
  -19.1494  -28.8875   23.2881 C   0  0  0  0  0  0
  -18.9440  -30.1470   23.8907 C   0  0  0  0  0  0
  -17.6466  -30.6636   24.0631 C   0  0  0  0  0  0
  -25.9301  -34.9341   23.5318 C   0  0  0  0  0  0
  -16.5343  -29.9146   23.6377 C   0  0  0  0  0  0
  -16.7245  -28.6573   23.0326 C   0  0  0  0  0  0
  -26.4825  -31.6402   25.0832 C   0  0  0  0  0  0
  -25.4173  -31.3641   26.1703 C   0  0  0  0  0  0
  -27.0531  -30.2792   24.6093 C   0  0  0  0  0  0
  -27.6613  -32.4054   25.7356 C   0  0  0  0  0  0
  -27.5650  -37.1467   24.8719 C   0  0  0  0  0  0
  -21.4175  -29.2961   22.3832 N   0  0  0  0  0  0
  -26.4526  -37.3675   23.9533 N   0  0  0  0  0  0
  -24.6719  -31.0832   22.1266 N   0  0  0  0  0  0
  -23.4207  -28.8150   23.3098 O   0  0  0  0  0  0
  -28.3504  -26.7199   19.9249 O   0  0  0  0  0  0
  -26.5699  -34.8676   22.4763 O   0  0  0  0  0  0
  -23.5498  -32.1395   23.7774 O   0  0  0  0  0  0
  -30.3653  -19.3290   21.7116 C   0  0  0  0  0  0
  -31.7818  -16.9345   22.0074 C   0  0  0  0  0  0
  -29.9232  -18.1735   21.0577 C   0  0  0  0  0  0
  -32.2816  -18.1304   22.5822 C   0  0  0  0  0  0
  -30.6037  -16.9319   21.2065 C   0  0  0  0  0  0
  -31.5688  -19.3411   22.4472 C   0  0  0  0  0  0
  -28.7490  -18.3505   20.1208 C   0  0  0  0  0  0
  -28.8829  -17.3734   18.9773 C   0  0  0  0  0  0
  -28.9923  -15.9770   19.5677 C   0  0  0  0  0  0
  -33.6126  -18.1281   23.3145 C   0  0  0  0  0  0
  -28.6052  -27.7389   16.9802 C   0  0  0  0  0  0
  -31.3351  -30.5617   22.3756 C   0  0  0  0  0  0
  -30.7162  -29.2104   22.7468 C   0  0  0  0  0  0
  -30.2548  -31.6085   22.0399 C   0  0  0  0  0  0
  -31.7342  -28.0667   22.8481 C   0  0  0  0  0  0
  -30.8201  -32.9030   21.4352 C   0  0  0  0  0  0
  -31.0251  -26.7091   22.9727 C   0  0  0  0  0  0
  -31.2365  -32.7943   19.9500 C   0  0  0  0  0  0
  -31.9859  -25.5176   23.1004 C   0  0  0  0  0  0
  -30.1488  -33.1653   18.9096 C   0  0  0  0  0  0
  -31.2416  -24.1917   22.9261 C   0  0  0  0  0  0
  -29.0416  -32.1229   18.6555 C   0  0  0  0  0  0
  -32.1214  -22.9529   23.1656 C   0  0  0  0  0  0
  -29.5394  -30.8104   18.0042 C   0  0  0  0  0  0
  -31.3540  -21.6995   22.7574 C   0  0  0  0  0  0
  -29.5327  -27.3296   19.3891 C   0  0  0  0  0  0
  -29.3869  -28.3028   18.1837 C   0  0  2  0  0  0
  -30.0929  -15.7532   20.5246 N   0  0  0  0  0  0
  -28.8807  -29.6329   18.6006 N   0  3  0  0  0  0
  -32.0839  -20.4979   23.0045 O   0  0  0  0  0  0
  -31.4468  -12.3937   19.1134 H   0  0  0  0  0  0
  -30.3001  -11.3568   19.9129 H   0  0  0  0  0  0
  -29.7453  -11.6701   17.4652 H   0  0  0  0  0  0
  -29.5970  -13.3856   17.7015 H   0  0  0  0  0  0
  -27.8879  -11.1771   18.9221 H   0  0  0  0  0  0
  -27.3390  -12.3884   17.7998 H   0  0  0  0  0  0
  -27.5059  -14.0752   19.3262 H   0  0  0  0  0  0
  -28.7045  -12.1855   21.4745 H   0  0  0  0  0  0
  -28.4508  -13.9000   21.7040 H   0  0  0  0  0  0
  -25.2679   -9.5565   22.4815 H   0  0  0  0  0  0
  -23.9940   -7.4513   22.7467 H   0  0  0  0  0  0
  -21.0792   -8.8707   19.8937 H   0  0  0  0  0  0
  -22.3661  -10.9618   19.6211 H   0  0  0  0  0  0
  -21.1965   -7.6128   23.9724 H   0  0  0  0  0  0
  -21.1480   -6.0516   25.9094 H   0  0  0  0  0  0
  -22.0606   -2.7593   23.2890 H   0  0  0  0  0  0
  -22.3993  -11.9828   22.4810 H   0  0  0  0  0  0
  -21.1058  -13.1271   22.2688 H   0  0  0  0  0  0
  -24.6681  -15.8203   20.5307 H   0  0  0  0  0  0
  -26.2859  -15.6004   20.0948 H   0  0  0  0  0  0
  -26.7186  -32.5488   23.1408 H   0  0  0  0  0  0
  -25.0929  -33.9865   25.1156 H   0  0  0  0  0  0
  -22.6874  -31.3250   21.4553 H   0  0  0  0  0  0
  -23.7831  -37.6500   23.5994 H   0  0  0  0  0  0
  -24.4444  -36.8002   22.1660 H   0  0  0  0  0  0
  -23.3914  -35.9655   23.3243 H   0  0  0  0  0  0
  -25.9975  -31.6120   20.5838 H   0  0  0  0  0  0
  -26.8225  -30.9291   21.9661 H   0  0  0  0  0  0
  -28.0551  -29.0861   21.2364 H   0  0  0  0  0  0
  -26.0954  -26.0265   18.9648 H   0  0  0  0  0  0
  -23.9563  -27.3297   19.0370 H   0  0  0  0  0  0
  -23.7297  -30.6233   19.4270 H   0  0  0  0  0  0
  -22.7162  -29.2891   19.8596 H   0  0  0  0  0  0
  -25.1208  -36.1835   25.0842 H   0  0  0  0  0  0
  -20.9887  -28.3221   24.1517 H   0  0  0  0  0  0
  -20.5778  -26.2315   23.3566 H   0  0  0  0  0  0
  -21.6654  -26.7589   22.1168 H   0  0  0  0  0  0
  -19.6922  -25.6320   21.1244 H   0  0  0  0  0  0
  -19.6677  -27.3250   20.6745 H   0  0  0  0  0  0
  -17.4193  -26.6684   21.3993 H   0  0  0  0  0  0
  -18.0325  -26.0153   22.9021 H   0  0  0  0  0  0
  -19.7919  -30.7279   24.2287 H   0  0  0  0  0  0
  -17.5020  -31.6310   24.5268 H   0  0  0  0  0  0
  -15.5378  -30.3123   23.7674 H   0  0  0  0  0  0
  -15.8568  -28.0976   22.7041 H   0  0  0  0  0  0
  -24.6258  -30.7062   25.8228 H   0  0  0  0  0  0
  -24.9563  -32.2804   26.5385 H   0  0  0  0  0  0
  -25.8558  -30.8730   27.0373 H   0  0  0  0  0  0
  -26.3071  -29.6673   24.0993 H   0  0  0  0  0  0
  -27.4157  -29.6862   25.4519 H   0  0  0  0  0  0
  -27.9062  -30.4212   23.9426 H   0  0  0  0  0  0
  -27.3492  -33.3514   26.1861 H   0  0  0  0  0  0
  -28.4423  -32.6172   24.9971 H   0  0  0  0  0  0
  -28.1325  -31.8148   26.5230 H   0  0  0  0  0  0
  -28.2908  -37.9580   24.8148 H   0  0  0  0  0  0
  -28.0983  -36.2236   24.6383 H   0  0  0  0  0  0
  -27.2098  -37.0768   25.9008 H   0  0  0  0  0  0
  -20.9473  -29.8609   21.6936 H   0  0  0  0  0  0
  -26.0513  -38.2897   24.1224 H   0  0  0  0  0  0
  -29.7644  -20.2145   21.5714 H   0  0  0  0  0  0
  -32.3559  -16.0302   22.1497 H   0  0  0  0  0  0
  -28.7163  -19.3662   19.7197 H   0  0  0  0  0  0
  -27.8157  -18.1938   20.6637 H   0  0  0  0  0  0
  -29.7641  -17.5993   18.3737 H   0  0  0  0  0  0
  -28.0175  -17.4402   18.3156 H   0  0  0  0  0  0
  -29.0526  -15.2998   18.7180 H   0  0  0  0  0  0
  -28.0800  -15.8239   20.1366 H   0  0  0  0  0  0
  -34.0713  -17.1411   23.3251 H   0  0  0  0  0  0
  -33.4883  -18.4597   24.3445 H   0  0  0  0  0  0
  -34.3083  -18.8129   22.8277 H   0  0  0  0  0  0
  -29.0519  -26.8082   16.6290 H   0  0  0  0  0  0
  -28.5952  -28.4362   16.1386 H   0  0  0  0  0  0
  -27.5662  -27.5270   17.2090 H   0  0  0  0  0  0
  -31.9901  -30.4288   21.5167 H   0  0  0  0  0  0
  -31.9689  -30.9210   23.1899 H   0  0  0  0  0  0
  -30.0040  -28.9476   21.9756 H   0  0  0  0  0  0
  -30.1386  -29.2918   23.6719 H   0  0  0  0  0  0
  -29.7066  -31.8438   22.9526 H   0  0  0  0  0  0
  -29.5196  -31.1920   21.3567 H   0  0  0  0  0  0
  -32.3866  -28.2339   23.7071 H   0  0  0  0  0  0
  -32.3776  -28.0693   21.9658 H   0  0  0  0  0  0
  -31.6942  -33.1852   22.0216 H   0  0  0  0  0  0
  -30.1056  -33.7182   21.5643 H   0  0  0  0  0  0
  -30.3743  -26.5513   22.1094 H   0  0  0  0  0  0
  -30.3553  -26.7297   23.8339 H   0  0  0  0  0  0
  -31.6509  -31.8093   19.7403 H   0  0  0  0  0  0
  -32.0833  -33.4581   19.7833 H   0  0  0  0  0  0
  -32.4860  -25.5497   24.0704 H   0  0  0  0  0  0
  -32.7696  -25.5777   22.3426 H   0  0  0  0  0  0
  -30.6492  -33.3537   17.9569 H   0  0  0  0  0  0
  -29.6830  -34.1128   19.1918 H   0  0  0  0  0  0
  -30.8294  -24.1572   21.9146 H   0  0  0  0  0  0
  -30.3864  -24.1492   23.6014 H   0  0  0  0  0  0
  -28.3016  -32.5699   17.9896 H   0  0  0  0  0  0
  -28.5047  -31.9302   19.5837 H   0  0  0  0  0  0
  -32.4147  -22.8819   24.2127 H   0  0  0  0  0  0
  -33.0367  -23.0265   22.5763 H   0  0  0  0  0  0
  -30.6158  -30.6934   18.1166 H   0  0  0  0  0  0
  -29.3551  -30.8287   16.9315 H   0  0  0  0  0  0
  -31.1506  -21.8074   21.6897 H   0  0  0  0  0  0
  -30.3982  -21.6609   23.2851 H   0  0  0  0  0  0
  -30.1048  -27.7755   20.1977 H   0  0  0  0  0  0
  -30.1637  -26.5006   19.0591 H   0  0  0  0  0  0
  -30.4144  -28.4399   17.8445 H   0  0  0  0  0  0
  -29.0228  -29.6970   19.5968 H   0  0  0  0  0  0
  -27.8796  -29.6748   18.4498 H   0  0  0  0  0  0
  1 25  1  0  0  0
  1 30  2  0  0  0
  1 98  1  0  0  0
  2  3  1  0  0  0
  2 25  1  0  0  0
  2101  1  0  0  0
  2102  1  0  0  0
  3  4  1  0  0  0
  3103  1  0  0  0
  3104  1  0  0  0
  4  5  1  0  0  0
  4105  1  0  0  0
  4106  1  0  0  0
  5  6  1  0  0  0
  5 26  1  0  0  0
  5107  1  0  0  0
  6 25  1  0  0  0
  6108  1  0  0  0
  6109  1  0  0  0
  7  8  2  0  0  0
  7 26  1  0  0  0
  7 29  1  0  0  0
  8  9  1  0  0  0
  8 22  1  0  0  0
  9 10  1  0  0  0
  9 27  2  0  0  0
 10 11  2  0  0  0
 10 15  1  0  0  0
 11 12  1  0  0  0
 11110  1  0  0  0
 12 13  2  0  0  0
 12111  1  0  0  0
 13 14  1  0  0  0
 13 31  1  0  0  0
 14 15  2  0  0  0
 14112  1  0  0  0
 15113  1  0  0  0
 16 17  2  0  0  0
 16 21  1  0  0  0
 16 31  1  0  0  0
 17 18  1  0  0  0
 17114  1  0  0  0
 18 19  2  0  0  0
 18115  1  0  0  0
 19 20  1  0  0  0
 19 24  1  0  0  0
 20 21  2  0  0  0
 20116  1  0  0  0
 21 23  1  0  0  0
 22 28  1  0  0  0
 22 32  2  0  0  0
 26 27  1  0  0  0
 28117  1  0  0  0
 28118  1  0  0  0
 29119  1  0  0  0
 29120  1  0  0  0
 33 34  1  0  0  0
 33 66  1  0  0  0
 33 70  2  0  0  0
 34 36  1  0  0  0
 34 59  1  0  0  0
 34121  1  0  0  0
 35 44  2  0  0  0
 35 45  1  0  0  0
 35 68  1  0  0  0
 36 56  1  0  0  0
 36122  1  0  0  0
 37 39  1  0  0  0
 37 47  1  0  0  0
 37 66  1  0  0  0
 37123  1  0  0  0
 38 43  2  0  0  0
 38 46  1  0  0  0
 38 47  1  0  0  0
 39 64  1  0  0  0
 39 67  2  0  0  0
 40 52  1  0  0  0
 40 53  2  0  0  0
 40 58  1  0  0  0
 41124  1  0  0  0
 41125  1  0  0  0
 41126  1  0  0  0
 41 48  1  0  0  0
 42 43  1  0  0  0
 42 66  1  0  0  0
 42127  1  0  0  0
 42128  1  0  0  0
 43 44  1  0  0  0
 44129  1  0  0  0
 45 46  2  0  0  0
 45130  1  0  0  0
 46131  1  0  0  0
 47132  1  0  0  0
 47133  1  0  0  0
 48 56  1  0  0  0
 48 65  1  0  0  0
 48134  1  0  0  0
 49 50  1  0  0  0
 49 53  1  0  0  0
 49 64  1  0  0  0
 49135  1  0  0  0
 50 51  1  0  0  0
 50136  1  0  0  0
 50137  1  0  0  0
 51 52  1  0  0  0
 51138  1  0  0  0
 51139  1  0  0  0
 52140  1  0  0  0
 52141  1  0  0  0
 53 54  1  0  0  0
 54 55  2  0  0  0
 54142  1  0  0  0
 55 57  1  0  0  0
 55143  1  0  0  0
 56 69  2  0  0  0
 57 58  2  0  0  0
 57144  1  0  0  0
 58145  1  0  0  0
 59 60  1  0  0  0
 59 61  1  0  0  0
 59 62  1  0  0  0
 60146  1  0  0  0
 60147  1  0  0  0
 60148  1  0  0  0
 61149  1  0  0  0
 61150  1  0  0  0
 61151  1  0  0  0
 62152  1  0  0  0
 62153  1  0  0  0
 62154  1  0  0  0
 63 65  1  0  0  0
 63155  1  0  0  0
 63156  1  0  0  0
 63157  1  0  0  0
 64158  1  0  0  0
 65159  1  0  0  0
 68 96  1  0  0  0
 71 73  2  0  0  0
 71 76  1  0  0  0
 71160  1  0  0  0
 72 74  1  0  0  0
 72 75  2  0  0  0
 72161  1  0  0  0
 73 75  1  0  0  0
 73 77  1  0  0  0
 74 76  2  0  0  0
 74 80  1  0  0  0
 75 98  1  0  0  0
 76100  1  0  0  0
 77 78  1  0  0  0
 77162  1  0  0  0
 77163  1  0  0  0
 78 79  1  0  0  0
 78164  1  0  0  0
 78165  1  0  0  0
 79 98  1  0  0  0
 79166  1  0  0  0
 79167  1  0  0  0
 80168  1  0  0  0
 80169  1  0  0  0
 80170  1  0  0  0
 81171  1  0  0  0
 81172  1  0  0  0
 81173  1  0  0  0
 81 97  1  0  0  0
 82 83  1  0  0  0
 82 84  1  0  0  0
 82174  1  0  0  0
 82175  1  0  0  0
 83 85  1  0  0  0
 83176  1  0  0  0
 83177  1  0  0  0
 84 86  1  0  0  0
 84178  1  0  0  0
 84179  1  0  0  0
 85 87  1  0  0  0
 85180  1  0  0  0
 85181  1  0  0  0
 86 88  1  0  0  0
 86182  1  0  0  0
 86183  1  0  0  0
 87 89  1  0  0  0
 87184  1  0  0  0
 87185  1  0  0  0
 88 90  1  0  0  0
 88186  1  0  0  0
 88187  1  0  0  0
 89 91  1  0  0  0
 89188  1  0  0  0
 89189  1  0  0  0
 90 92  1  0  0  0
 90190  1  0  0  0
 90191  1  0  0  0
 91 93  1  0  0  0
 91192  1  0  0  0
 91193  1  0  0  0
 92 94  1  0  0  0
 92194  1  0  0  0
 92195  1  0  0  0
 93 95  1  0  0  0
 93196  1  0  0  0
 93197  1  0  0  0
 94 99  1  0  0  0
 94198  1  0  0  0
 94199  1  0  0  0
 95100  1  0  0  0
 95200  1  0  0  0
 95201  1  0  0  0
 96 97  1  0  0  0
 96202  1  0  0  0
 96203  1  0  0  0
 97 99  1  0  0  0
 97204  1  0  0  0
 99205  1  0  0  0
 99206  1  0  0  0
M  CHG  1  99   1
M  ISO  4   1 100  68 101  96 101  98 100
M  END
> <chiral flag>
0

> <version>
0

> <s_m_source_file>
/data/baiqing/PycharmProjects/Reinvent-master-3.2/result/LINK_invent/BTK/process_docking_weight1_custom_sum_contain_oxygen_bond_distance_aromatic_linkinvent_7_9_3/rearranged_h_0023.sdf

> <i_m_source_file_index>
3

> <r_mmod_Potential_Energy-OPLS-2005>
201.444549560547

> <r_mmod_Stretch_Energy-OPLS-2005>
46.9488868713379

> <r_mmod_Bend_Energy-OPLS-2005>
153.746688842773

> <r_mmod_Torsional_Energy-OPLS-2005>
349.971862792969

> <r_mmod_Improper_Torsional_Energy-OPLS-2005>
8.82841968536377

> <r_mmod_Van_der_Waal_Energy-OPLS-2005>
168.934936523438

> <r_mmod_Electrostatic_Energy-OPLS-2005>
-173.558929443359

> <r_mmod_Solvation_Energy-OPLS-2005>
-393.780578613281

> <b_mmod_Minimization_Converged-OPLS-2005>
0

> <r_mmod_RMS_Derivative-OPLS-2005>
10.0407333374023

$$$$
3
                    3D
 Structure written by MMmdl.
159167  0  0  1  0            999 V2000
  -30.3256  -15.5635   20.3332 C   0  0  0  0  0  0
  -30.4301  -13.0335   19.5145 C   0  0  0  0  0  0
  -29.5410  -12.6300   18.3060 C   0  0  0  0  0  0
  -28.1096  -12.2916   18.7538 C   0  0  0  0  0  0
  -27.5941  -13.2974   19.8095 C   0  0  2  0  0  0
  -28.6250  -13.5978   20.9200 C   0  0  0  0  0  0
  -25.2298  -13.8240   20.5817 C   0  0  0  0  0  0
  -24.1677  -13.0408   20.9303 C   0  0  0  0  0  0
  -24.6362  -11.6929   20.8769 C   0  0  0  0  0  0
  -23.9056  -10.4275   21.0393 C   0  0  0  0  0  0
  -24.3613   -9.4185   21.9163 C   0  0  0  0  0  0
  -23.6306   -8.2216   22.0719 C   0  0  0  0  0  0
  -22.4272   -8.0252   21.3535 C   0  0  0  0  0  0
  -21.9918   -9.0211   20.4625 C   0  0  0  0  0  0
  -22.7249  -10.2110   20.3029 C   0  0  0  0  0  0
  -21.6857   -6.0723   22.5289 C   0  0  0  0  0  0
  -21.4027   -6.5618   23.8223 C   0  0  0  0  0  0
  -21.3655   -5.6769   24.9184 C   0  0  0  0  0  0
  -21.6053   -4.3023   24.7216 C   0  0  0  0  0  0
  -21.8830   -3.8130   23.4339 C   0  0  0  0  0  0
  -21.9187   -4.6949   22.3397 C   0  0  0  0  0  0
  -22.7691  -13.5155   21.1964 C   0  0  0  0  0  0
  -22.1661   -4.2145   21.0974 F   0  0  0  0  0  0
  -21.5631   -3.4499   25.7720 F   0  0  0  0  0  0
  -29.7960  -14.2103   20.2503 N   0  0  0  0  0  0
  -26.2742  -12.9583   20.3268 N   0  0  0  0  0  0
  -25.9304  -11.6648   20.5719 N   0  0  0  0  0  0
  -22.0377  -12.8120   22.0533 N   0  0  0  0  0  0
  -25.3844  -15.2005   20.4294 N   0  0  0  0  0  0
  -31.5664  -15.5135   20.2695 O   0  0  0  0  0  0
  -21.6633   -6.8859   21.4237 O   0  0  0  0  0  0
  -22.3353  -14.5443   20.6802 O   0  0  0  0  0  0
  -24.6804  -31.8116   23.1529 C   0  0  0  0  0  0
  -25.9390  -32.4565   23.8093 C   0  0  1  0  0  0
  -27.2207  -26.7351   20.2155 C   0  0  0  0  0  0
  -25.6022  -33.8394   24.2001 N   0  0  0  0  0  0
  -23.5061  -30.4111   21.5074 C   0  0  2  0  0  0
  -24.9610  -28.7618   20.1228 C   0  0  0  0  0  0
  -22.7786  -29.4371   22.4730 C   0  0  0  0  0  0
  -18.0331  -28.1489   22.8478 C   0  0  0  0  0  0
  -24.1440  -36.7127   23.2653 C   0  0  0  0  0  0
  -26.0863  -30.5504   21.4168 C   0  0  0  0  0  0
  -26.1508  -29.1176   20.7713 C   0  0  0  0  0  0
  -27.2692  -28.1334   20.7835 C   0  0  0  0  0  0
  -26.0057  -26.5982   19.4976 C   0  0  0  0  0  0
  -24.9235  -27.5237   19.4651 C   0  0  0  0  0  0
  -23.7620  -29.7161   20.1401 C   0  0  0  0  0  0
  -25.4097  -36.2926   24.0296 C   0  0  1  0  0  0
  -20.5977  -28.3829   23.1178 C   0  0  2  0  0  0
  -20.6812  -26.9501   22.5427 C   0  0  0  0  0  0
  -19.5758  -26.6413   21.5278 C   0  0  0  0  0  0
  -18.1931  -26.8013   22.1649 C   0  0  0  0  0  0
  -19.1612  -28.8970   23.2803 C   0  0  0  0  0  0
  -18.9519  -30.1566   23.8832 C   0  0  0  0  0  0
  -17.6521  -30.6670   24.0577 C   0  0  0  0  0  0
  -25.9123  -34.9352   23.4964 C   0  0  0  0  0  0
  -16.5393  -29.9169   23.6385 C   0  0  0  0  0  0
  -16.7317  -28.6605   23.0381 C   0  0  0  0  0  0
  -26.4572  -31.6565   25.0680 C   0  0  0  0  0  0
  -25.3646  -31.3925   26.1286 C   0  0  0  0  0  0
  -27.0518  -30.2911   24.6581 C   0  0  0  0  0  0
  -27.5998  -32.4434   25.7519 C   0  0  0  0  0  0
  -27.5517  -37.1717   24.8481 C   0  0  0  0  0  0
  -21.4430  -29.3074   22.3489 N   0  0  0  0  0  0
  -26.4197  -37.3702   23.9473 N   0  0  0  0  0  0
  -24.7800  -30.9582   22.0769 N   0  0  0  0  0  0
  -23.4264  -28.7981   23.3058 O   0  0  0  0  0  0
  -28.2054  -25.5379   20.2096 O   0  0  0  0  0  0
  -26.5760  -34.8925   22.4578 O   0  0  0  0  0  0
  -23.5820  -32.1194   23.6467 O   0  0  0  0  0  0
  -29.2818  -20.3385   19.8966 C   0  0  1  0  0  0
  -28.1050  -21.0649   19.3120 C   0  0  1  0  0  0
  -28.9560  -22.2165   19.9607 C   0  0  1  0  0  0
  -27.4092  -19.6166   17.3537 C   0  0  0  0  0  0
  -27.1254  -22.1202   17.1854 C   0  0  0  0  0  0
  -28.3882  -23.8452   21.9991 C   0  0  0  0  0  0
  -26.5557  -23.5593   20.3942 C   0  0  0  0  0  0
  -29.5653  -18.6327   20.6545 C   0  0  0  0  0  0
  -27.9571  -20.9839   17.7901 C   0  0  0  0  0  0
  -28.0738  -23.8095   20.4941 C   0  0  0  0  0  0
  -29.5539  -16.9039   20.2897 N   0  0  0  0  0  0
  -31.4186  -13.3056   19.1436 H   0  0  0  0  0  0
  -30.5916  -12.1857   20.1830 H   0  0  0  0  0  0
  -29.9871  -11.7921   17.7684 H   0  0  0  0  0  0
  -29.5058  -13.4604   17.6007 H   0  0  0  0  0  0
  -28.1257  -11.2896   19.1846 H   0  0  0  0  0  0
  -27.4344  -12.2474   17.8986 H   0  0  0  0  0  0
  -27.4608  -14.2288   19.2559 H   0  0  0  0  0  0
  -28.8844  -12.6982   21.4798 H   0  0  0  0  0  0
  -28.2085  -14.2984   21.6439 H   0  0  0  0  0  0
  -25.2761   -9.5657   22.4716 H   0  0  0  0  0  0
  -24.0033   -7.4579   22.7397 H   0  0  0  0  0  0
  -21.0870   -8.8697   19.8909 H   0  0  0  0  0  0
  -22.3691  -10.9608   19.6093 H   0  0  0  0  0  0
  -21.2021   -7.6131   23.9733 H   0  0  0  0  0  0
  -21.1484   -6.0487   25.9098 H   0  0  0  0  0  0
  -22.0609   -2.7583   23.2817 H   0  0  0  0  0  0
  -22.4041  -11.9760   22.4851 H   0  0  0  0  0  0
  -21.0978  -13.1092   22.2776 H   0  0  0  0  0  0
  -24.6040  -15.8372   20.5444 H   0  0  0  0  0  0
  -26.2249  -15.6578   20.1036 H   0  0  0  0  0  0
  -26.7475  -32.5057   23.0814 H   0  0  0  0  0  0
  -25.0184  -33.9519   25.0167 H   0  0  0  0  0  0
  -22.8259  -31.2443   21.3219 H   0  0  0  0  0  0
  -23.3740  -35.9417   23.3302 H   0  0  0  0  0  0
  -24.3485  -36.8808   22.2064 H   0  0  0  0  0  0
  -23.7138  -37.6271   23.6752 H   0  0  0  0  0  0
  -26.2887  -31.2737   20.6242 H   0  0  0  0  0  0
  -26.9352  -30.6191   22.0844 H   0  0  0  0  0  0
  -28.1717  -28.4182   21.3036 H   0  0  0  0  0  0
  -25.8458  -25.6821   18.9519 H   0  0  0  0  0  0
  -24.0315  -27.2443   18.9227 H   0  0  0  0  0  0
  -23.9511  -30.4814   19.3865 H   0  0  0  0  0  0
  -22.8694  -29.1902   19.7976 H   0  0  0  0  0  0
  -25.1283  -36.1658   25.0778 H   0  0  0  0  0  0
  -21.0048  -28.3422   24.1311 H   0  0  0  0  0  0
  -20.5730  -26.2472   23.3694 H   0  0  0  0  0  0
  -21.6662  -26.7497   22.1191 H   0  0  0  0  0  0
  -19.6913  -25.6311   21.1346 H   0  0  0  0  0  0
  -19.6668  -27.3190   20.6782 H   0  0  0  0  0  0
  -17.4220  -26.6815   21.4010 H   0  0  0  0  0  0
  -18.0243  -26.0181   22.9057 H   0  0  0  0  0  0
  -19.7999  -30.7422   24.2111 H   0  0  0  0  0  0
  -17.5091  -31.6315   24.5242 H   0  0  0  0  0  0
  -15.5405  -30.3079   23.7774 H   0  0  0  0  0  0
  -15.8700  -28.0947   22.7114 H   0  0  0  0  0  0
  -24.5828  -30.7286   25.7585 H   0  0  0  0  0  0
  -24.8838  -32.3181   26.4466 H   0  0  0  0  0  0
  -25.7797  -30.9235   27.0213 H   0  0  0  0  0  0
  -26.3245  -29.6499   24.1591 H   0  0  0  0  0  0
  -27.3971  -29.7378   25.5321 H   0  0  0  0  0  0
  -27.9212  -30.4030   24.0104 H   0  0  0  0  0  0
  -27.2518  -33.3810   26.1868 H   0  0  0  0  0  0
  -28.3932  -32.6890   25.0455 H   0  0  0  0  0  0
  -28.0525  -31.8717   26.5623 H   0  0  0  0  0  0
  -28.2506  -38.0039   24.7557 H   0  0  0  0  0  0
  -28.1025  -36.2568   24.6233 H   0  0  0  0  0  0
  -27.2293  -37.1285   25.8902 H   0  0  0  0  0  0
  -20.9762  -29.8751   21.6546 H   0  0  0  0  0  0
  -25.9991  -38.2721   24.1575 H   0  0  0  0  0  0
  -30.0956  -20.2825   19.1765 H   0  0  0  0  0  0
  -27.1711  -20.8414   19.8222 H   0  0  0  0  0  0
  -29.7895  -22.6135   19.3828 H   0  0  0  0  0  0
  -27.9836  -18.8043   17.8009 H   0  0  0  0  0  0
  -27.4608  -19.4992   16.2694 H   0  0  0  0  0  0
  -26.3653  -19.4935   17.6483 H   0  0  0  0  0  0
  -27.5631  -23.0951   17.4061 H   0  0  0  0  0  0
  -26.1007  -22.1076   17.5527 H   0  0  0  0  0  0
  -27.0869  -22.0249   16.0984 H   0  0  0  0  0  0
  -28.1806  -22.8854   22.4780 H   0  0  0  0  0  0
  -27.8039  -24.6056   22.5160 H   0  0  0  0  0  0
  -29.4411  -24.0729   22.1683 H   0  0  0  0  0  0
  -26.2719  -22.5989   20.8187 H   0  0  0  0  0  0
  -26.2021  -23.5846   19.3667 H   0  0  0  0  0  0
  -25.9899  -24.3053   20.9530 H   0  0  0  0  0  0
  -28.9278  -18.6643   21.5379 H   0  0  0  0  0  0
  -30.5696  -18.7292   21.0692 H   0  0  0  0  0  0
  -28.9554  -21.0841   17.3594 H   0  0  0  0  0  0
  -28.5901  -16.6454   20.1368 H   0  0  0  0  0  0
  1 25  1  0  0  0
  1 30  2  0  0  0
  1 81  1  0  0  0
  2  3  1  0  0  0
  2 25  1  0  0  0
  2 82  1  0  0  0
  2 83  1  0  0  0
  3  4  1  0  0  0
  3 84  1  0  0  0
  3 85  1  0  0  0
  4  5  1  0  0  0
  4 86  1  0  0  0
  4 87  1  0  0  0
  5  6  1  0  0  0
  5 26  1  0  0  0
  5 88  1  0  0  0
  6 25  1  0  0  0
  6 89  1  0  0  0
  6 90  1  0  0  0
  7  8  2  0  0  0
  7 26  1  0  0  0
  7 29  1  0  0  0
  8  9  1  0  0  0
  8 22  1  0  0  0
  9 10  1  0  0  0
  9 27  2  0  0  0
 10 11  2  0  0  0
 10 15  1  0  0  0
 11 12  1  0  0  0
 11 91  1  0  0  0
 12 13  2  0  0  0
 12 92  1  0  0  0
 13 14  1  0  0  0
 13 31  1  0  0  0
 14 15  2  0  0  0
 14 93  1  0  0  0
 15 94  1  0  0  0
 16 17  2  0  0  0
 16 21  1  0  0  0
 16 31  1  0  0  0
 17 18  1  0  0  0
 17 95  1  0  0  0
 18 19  2  0  0  0
 18 96  1  0  0  0
 19 20  1  0  0  0
 19 24  1  0  0  0
 20 21  2  0  0  0
 20 97  1  0  0  0
 21 23  1  0  0  0
 22 28  1  0  0  0
 22 32  2  0  0  0
 26 27  1  0  0  0
 28 98  1  0  0  0
 28 99  1  0  0  0
 29100  1  0  0  0
 29101  1  0  0  0
 33 34  1  0  0  0
 33 66  1  0  0  0
 33 70  2  0  0  0
 34 36  1  0  0  0
 34 59  1  0  0  0
 34102  1  0  0  0
 35 44  2  0  0  0
 35 45  1  0  0  0
 35 68  1  0  0  0
 36 56  1  0  0  0
 36103  1  0  0  0
 37 39  1  0  0  0
 37 47  1  0  0  0
 37 66  1  0  0  0
 37104  1  0  0  0
 38 43  2  0  0  0
 38 46  1  0  0  0
 38 47  1  0  0  0
 39 64  1  0  0  0
 39 67  2  0  0  0
 40 52  1  0  0  0
 40 53  2  0  0  0
 40 58  1  0  0  0
 41105  1  0  0  0
 41106  1  0  0  0
 41107  1  0  0  0
 41 48  1  0  0  0
 42 43  1  0  0  0
 42 66  1  0  0  0
 42108  1  0  0  0
 42109  1  0  0  0
 43 44  1  0  0  0
 44110  1  0  0  0
 45 46  2  0  0  0
 45111  1  0  0  0
 46112  1  0  0  0
 47113  1  0  0  0
 47114  1  0  0  0
 48 56  1  0  0  0
 48 65  1  0  0  0
 48115  1  0  0  0
 49 50  1  0  0  0
 49 53  1  0  0  0
 49 64  1  0  0  0
 49116  1  0  0  0
 50 51  1  0  0  0
 50117  1  0  0  0
 50118  1  0  0  0
 51 52  1  0  0  0
 51119  1  0  0  0
 51120  1  0  0  0
 52121  1  0  0  0
 52122  1  0  0  0
 53 54  1  0  0  0
 54 55  2  0  0  0
 54123  1  0  0  0
 55 57  1  0  0  0
 55124  1  0  0  0
 56 69  2  0  0  0
 57 58  2  0  0  0
 57125  1  0  0  0
 58126  1  0  0  0
 59 60  1  0  0  0
 59 61  1  0  0  0
 59 62  1  0  0  0
 60127  1  0  0  0
 60128  1  0  0  0
 60129  1  0  0  0
 61130  1  0  0  0
 61131  1  0  0  0
 61132  1  0  0  0
 62133  1  0  0  0
 62134  1  0  0  0
 62135  1  0  0  0
 63 65  1  0  0  0
 63136  1  0  0  0
 63137  1  0  0  0
 63138  1  0  0  0
 64139  1  0  0  0
 65140  1  0  0  0
 68 80  1  0  0  0
 71 72  1  0  0  0
 71 73  1  0  0  0
 71 78  1  0  0  0
 71141  1  0  0  0
 72 73  1  0  0  0
 72 79  1  0  0  0
 72142  1  0  0  0
 73 80  1  0  0  0
 73143  1  0  0  0
 74144  1  0  0  0
 74145  1  0  0  0
 74146  1  0  0  0
 74 79  1  0  0  0
 75 79  1  0  0  0
 75147  1  0  0  0
 75148  1  0  0  0
 75149  1  0  0  0
 76150  1  0  0  0
 76151  1  0  0  0
 76152  1  0  0  0
 76 80  1  0  0  0
 77 80  1  0  0  0
 77153  1  0  0  0
 77154  1  0  0  0
 77155  1  0  0  0
 78 81  1  0  0  0
 78156  1  0  0  0
 78157  1  0  0  0
 79158  1  0  0  0
 81159  1  0  0  0
M  ISO  4   1 100  68 101  80 101  81 100
M  END
> <chiral flag>
0

> <version>
0

> <s_m_source_file>
/data/baiqing/PycharmProjects/Reinvent-master-3.2/result/LINK_invent/BTK/process_docking_weight1_custom_sum_contain_oxygen_bond_distance_aromatic_linkinvent_7_9_3/rearranged_h_0023.sdf

> <i_m_source_file_index>
4

> <r_mmod_Potential_Energy-OPLS-2005>
2471.49389648438

> <r_mmod_Stretch_Energy-OPLS-2005>
1097.63366699219

> <r_mmod_Bend_Energy-OPLS-2005>
745.032775878906

> <r_mmod_Torsional_Energy-OPLS-2005>
296.093963623047

> <r_mmod_Improper_Torsional_Energy-OPLS-2005>
4.81168031692505

> <r_mmod_Van_der_Waal_Energy-OPLS-2005>
109.403846740723

> <r_mmod_Electrostatic_Energy-OPLS-2005>
-390.790863037109

> <r_mmod_Solvation_Energy-OPLS-2005>
-200.820983886719

> <b_mmod_Minimization_Converged-OPLS-2005>
0

> <r_mmod_RMS_Derivative-OPLS-2005>
4.21821260452271

$$$$
4
                    3D
 Structure written by MMmdl.
168176  0  0  1  0            999 V2000
  -30.7403  -14.4268   20.6031 C   0  0  0  0  0  0
  -30.4174  -12.2878   19.4199 C   0  0  0  0  0  0
  -29.4912  -12.4981   18.2061 C   0  0  0  0  0  0
  -28.0130  -12.3617   18.6219 C   0  0  0  0  0  0
  -27.6630  -13.2045   19.8772 C   0  0  2  0  0  0
  -28.7037  -12.9788   20.9973 C   0  0  0  0  0  0
  -25.2525  -13.8105   20.5585 C   0  0  0  0  0  0
  -24.1795  -13.0398   20.9119 C   0  0  0  0  0  0
  -24.6367  -11.6878   20.8709 C   0  0  0  0  0  0
  -23.9034  -10.4275   21.0384 C   0  0  0  0  0  0
  -24.3583   -9.4195   21.9165 C   0  0  0  0  0  0
  -23.6257   -8.2236   22.0749 C   0  0  0  0  0  0
  -22.4243   -8.0267   21.3541 C   0  0  0  0  0  0
  -21.9857   -9.0249   20.4655 C   0  0  0  0  0  0
  -22.7195  -10.2119   20.3057 C   0  0  0  0  0  0
  -21.6850   -6.0711   22.5265 C   0  0  0  0  0  0
  -21.4027   -6.5624   23.8201 C   0  0  0  0  0  0
  -21.3661   -5.6779   24.9159 C   0  0  0  0  0  0
  -21.6034   -4.3040   24.7223 C   0  0  0  0  0  0
  -21.8821   -3.8135   23.4349 C   0  0  0  0  0  0
  -21.9196   -4.6942   22.3396 C   0  0  0  0  0  0
  -22.7837  -13.5233   21.1811 C   0  0  0  0  0  0
  -22.1663   -4.2124   21.0972 F   0  0  0  0  0  0
  -21.5616   -3.4533   25.7745 F   0  0  0  0  0  0
  -30.0423  -13.2699   20.4486 N   0  0  0  0  0  0
  -26.3015  -12.9309   20.3374 N   0  0  0  0  0  0
  -25.9301  -11.6466   20.5772 N   0  0  0  0  0  0
  -22.0477  -12.8280   22.0418 N   0  0  0  0  0  0
  -25.4145  -15.1792   20.3900 N   0  0  0  0  0  0
  -31.8336  -14.6230   20.0676 O   0  0  0  0  0  0
  -21.6622   -6.8858   21.4230 O   0  0  0  0  0  0
  -22.3523  -14.5543   20.6668 O   0  0  0  0  0  0
  -24.6100  -31.8687   23.2090 C   0  0  0  0  0  0
  -25.9006  -32.4826   23.8369 C   0  0  1  0  0  0
  -27.2526  -27.4677   20.0939 C   0  0  0  0  0  0
  -25.5862  -33.8620   24.2314 N   0  0  0  0  0  0
  -23.3953  -30.4884   21.5505 C   0  0  2  0  0  0
  -24.8447  -28.9487   20.1232 C   0  0  0  0  0  0
  -22.7373  -29.4655   22.5028 C   0  0  0  0  0  0
  -18.0263  -28.1381   22.8498 C   0  0  0  0  0  0
  -24.1489  -36.7330   23.2636 C   0  0  0  0  0  0
  -25.9176  -30.8467   21.3518 C   0  0  0  0  0  0
  -26.0006  -29.4792   20.7081 C   0  0  0  0  0  0
  -27.2049  -28.7469   20.6867 C   0  0  0  0  0  0
  -26.0780  -26.9353   19.5179 C   0  0  0  0  0  0
  -24.8762  -27.6729   19.5285 C   0  0  0  0  0  0
  -23.6025  -29.8099   20.1687 C   0  0  0  0  0  0
  -25.4106  -36.3108   24.0332 C   0  0  1  0  0  0
  -20.5841  -28.3646   23.1349 C   0  0  2  0  0  0
  -20.6746  -26.9381   22.5443 C   0  0  0  0  0  0
  -19.5731  -26.6381   21.5223 C   0  0  0  0  0  0
  -18.1904  -26.7932   22.1619 C   0  0  0  0  0  0
  -19.1508  -28.8830   23.2920 C   0  0  0  0  0  0
  -18.9438  -30.1443   23.8928 C   0  0  0  0  0  0
  -17.6441  -30.6583   24.0572 C   0  0  0  0  0  0
  -25.9018  -34.9472   23.5124 C   0  0  0  0  0  0
  -16.5337  -29.9092   23.6325 C   0  0  0  0  0  0
  -16.7249  -28.6508   23.0344 C   0  0  0  0  0  0
  -26.4445  -31.6602   25.0687 C   0  0  0  0  0  0
  -25.3726  -31.3770   26.1469 C   0  0  0  0  0  0
  -27.0221  -30.3025   24.6043 C   0  0  0  0  0  0
  -27.6063  -32.4290   25.7409 C   0  0  0  0  0  0
  -27.5574  -37.1817   24.8465 C   0  0  0  0  0  0
  -21.4103  -29.3021   22.3764 N   0  0  0  0  0  0
  -26.4308  -37.3772   23.9376 N   0  0  0  0  0  0
  -24.6592  -31.0809   22.0973 N   0  0  0  0  0  0
  -23.4163  -28.8210   23.3064 O   0  0  0  0  0  0
  -28.4680  -26.8246   20.0518 O   0  0  0  0  0  0
  -26.5586  -34.8921   22.4687 O   0  0  0  0  0  0
  -23.5304  -32.1435   23.7511 O   0  0  0  0  0  0
  -31.7525  -17.2553   21.4953 C   0  0  0  0  0  0
  -29.6001  -19.0518   21.6571 C   0  0  0  0  0  0
  -32.0027  -18.6342   21.6758 C   0  0  0  0  0  0
  -30.9166  -19.5385   21.7845 C   0  0  0  0  0  0
  -30.4275  -16.7626   21.4102 C   0  0  0  0  0  0
  -29.3557  -17.6786   21.4830 C   0  0  0  0  0  0
  -33.4424  -19.1161   21.7772 C   0  0  0  0  0  0
  -28.1630  -23.9399   18.2163 C   0  0  0  0  0  0
  -31.2269  -23.3969   18.1803 C   0  0  0  0  0  0
  -31.1259  -21.0106   22.1132 C   0  0  0  0  0  0
  -31.3857  -21.9135   20.8917 C   0  0  0  0  0  0
  -30.1350  -22.6623   20.3790 C   0  0  0  0  0  0
  -28.5312  -25.4148   20.2625 C   0  0  0  0  0  0
  -29.2026  -24.7096   19.0530 C   0  0  1  0  0  0
  -30.4500  -23.8515   19.4318 C   0  0  2  0  0  0
  -30.1141  -15.3761   21.3163 N   0  0  0  0  0  0
  -31.2810  -24.6749   20.0740 F   0  0  0  0  0  0
  -27.7237  -17.1315   21.3729 Cl  0  0  0  0  0  0
  -31.4641  -12.3665   19.1219 H   0  0  0  0  0  0
  -30.3028  -11.2780   19.8162 H   0  0  0  0  0  0
  -29.7264  -11.7708   17.4275 H   0  0  0  0  0  0
  -29.6673  -13.4827   17.7711 H   0  0  0  0  0  0
  -27.8252  -11.3069   18.8249 H   0  0  0  0  0  0
  -27.3616  -12.6332   17.7906 H   0  0  0  0  0  0
  -27.7111  -14.2525   19.5798 H   0  0  0  0  0  0
  -28.6707  -11.9425   21.3362 H   0  0  0  0  0  0
  -28.4584  -13.5732   21.8779 H   0  0  0  0  0  0
  -25.2716   -9.5685   22.4739 H   0  0  0  0  0  0
  -23.9968   -7.4637   22.7474 H   0  0  0  0  0  0
  -21.0777   -8.8778   19.8974 H   0  0  0  0  0  0
  -22.3637  -10.9663   19.6184 H   0  0  0  0  0  0
  -21.2028   -7.6132   23.9700 H   0  0  0  0  0  0
  -21.1472   -6.0504   25.9061 H   0  0  0  0  0  0
  -22.0597   -2.7594   23.2857 H   0  0  0  0  0  0
  -22.4080  -11.9966   22.4855 H   0  0  0  0  0  0
  -21.1119  -13.1363   22.2634 H   0  0  0  0  0  0
  -24.6555  -15.8353   20.5342 H   0  0  0  0  0  0
  -26.2949  -15.6362   20.1871 H   0  0  0  0  0  0
  -26.7078  -32.5562   23.1138 H   0  0  0  0  0  0
  -25.0011  -33.9784   25.0453 H   0  0  0  0  0  0
  -22.6816  -31.3022   21.4079 H   0  0  0  0  0  0
  -23.3690  -35.9737   23.3431 H   0  0  0  0  0  0
  -24.3563  -36.8800   22.2024 H   0  0  0  0  0  0
  -23.7342  -37.6617   23.6565 H   0  0  0  0  0  0
  -26.0124  -31.6086   20.5770 H   0  0  0  0  0  0
  -26.8112  -30.9129   21.9597 H   0  0  0  0  0  0
  -28.1025  -29.1619   21.1235 H   0  0  0  0  0  0
  -26.0863  -25.9652   19.0448 H   0  0  0  0  0  0
  -23.9870  -27.2546   19.0776 H   0  0  0  0  0  0
  -23.7054  -30.5778   19.4017 H   0  0  0  0  0  0
  -22.7286  -29.2226   19.8807 H   0  0  0  0  0  0
  -25.1297  -36.1986   25.0830 H   0  0  0  0  0  0
  -20.9934  -28.3220   24.1468 H   0  0  0  0  0  0
  -20.5624  -26.2251   23.3627 H   0  0  0  0  0  0
  -21.6628  -26.7423   22.1262 H   0  0  0  0  0  0
  -19.6888  -25.6300   21.1230 H   0  0  0  0  0  0
  -19.6673  -27.3209   20.6769 H   0  0  0  0  0  0
  -17.4180  -26.6702   21.4013 H   0  0  0  0  0  0
  -18.0274  -26.0069   22.8998 H   0  0  0  0  0  0
  -19.7919  -30.7250   24.2305 H   0  0  0  0  0  0
  -17.5002  -31.6274   24.5165 H   0  0  0  0  0  0
  -15.5336  -30.2998   23.7641 H   0  0  0  0  0  0
  -15.8652  -28.0835   22.7042 H   0  0  0  0  0  0
  -24.5898  -30.7080   25.7877 H   0  0  0  0  0  0
  -24.8906  -32.2951   26.4844 H   0  0  0  0  0  0
  -25.8093  -30.9032   27.0268 H   0  0  0  0  0  0
  -26.2730  -29.6818   24.1109 H   0  0  0  0  0  0
  -27.3989  -29.7240   25.4489 H   0  0  0  0  0  0
  -27.8575  -30.4317   23.9156 H   0  0  0  0  0  0
  -27.2720  -33.3567   26.2065 H   0  0  0  0  0  0
  -28.3812  -32.6881   25.0180 H   0  0  0  0  0  0
  -28.0798  -31.8359   26.5244 H   0  0  0  0  0  0
  -28.2691  -38.0009   24.7379 H   0  0  0  0  0  0
  -28.0964  -36.2550   24.6450 H   0  0  0  0  0  0
  -27.2292  -37.1691   25.8870 H   0  0  0  0  0  0
  -20.9245  -29.8740   21.6998 H   0  0  0  0  0  0
  -26.0216  -38.2869   24.1307 H   0  0  0  0  0  0
  -32.5907  -16.5749   21.4494 H   0  0  0  0  0  0
  -28.7628  -19.7322   21.7225 H   0  0  0  0  0  0
  -34.1389  -18.3690   21.3963 H   0  0  0  0  0  0
  -33.7074  -19.3228   22.8144 H   0  0  0  0  0  0
  -33.5960  -20.0251   21.1954 H   0  0  0  0  0  0
  -27.3802  -24.6063   17.8582 H   0  0  0  0  0  0
  -27.6857  -23.1495   18.7957 H   0  0  0  0  0  0
  -28.6096  -23.4859   17.3325 H   0  0  0  0  0  0
  -30.7115  -22.5946   17.6530 H   0  0  0  0  0  0
  -32.2211  -23.0314   18.4362 H   0  0  0  0  0  0
  -31.3658  -24.2207   17.4796 H   0  0  0  0  0  0
  -31.9653  -21.0899   22.8042 H   0  0  0  0  0  0
  -30.2727  -21.3764   22.6862 H   0  0  0  0  0  0
  -31.8653  -21.3516   20.0892 H   0  0  0  0  0  0
  -32.1181  -22.6592   21.2032 H   0  0  0  0  0  0
  -29.5798  -23.0345   21.2394 H   0  0  0  0  0  0
  -29.4720  -21.9520   19.8835 H   0  0  0  0  0  0
  -29.1429  -25.2933   21.1562 H   0  0  0  0  0  0
  -27.5712  -24.9642   20.5179 H   0  0  0  0  0  0
  -29.5810  -25.5047   18.4071 H   0  0  0  0  0  0
  -29.1909  -15.1227   21.6351 H   0  0  0  0  0  0
  1 25  1  0  0  0
  1 30  2  0  0  0
  1 86  1  0  0  0
  2  3  1  0  0  0
  2 25  1  0  0  0
  2 89  1  0  0  0
  2 90  1  0  0  0
  3  4  1  0  0  0
  3 91  1  0  0  0
  3 92  1  0  0  0
  4  5  1  0  0  0
  4 93  1  0  0  0
  4 94  1  0  0  0
  5  6  1  0  0  0
  5 26  1  0  0  0
  5 95  1  0  0  0
  6 25  1  0  0  0
  6 96  1  0  0  0
  6 97  1  0  0  0
  7  8  2  0  0  0
  7 26  1  0  0  0
  7 29  1  0  0  0
  8  9  1  0  0  0
  8 22  1  0  0  0
  9 10  1  0  0  0
  9 27  2  0  0  0
 10 11  2  0  0  0
 10 15  1  0  0  0
 11 12  1  0  0  0
 11 98  1  0  0  0
 12 13  2  0  0  0
 12 99  1  0  0  0
 13 14  1  0  0  0
 13 31  1  0  0  0
 14 15  2  0  0  0
 14100  1  0  0  0
 15101  1  0  0  0
 16 17  2  0  0  0
 16 21  1  0  0  0
 16 31  1  0  0  0
 17 18  1  0  0  0
 17102  1  0  0  0
 18 19  2  0  0  0
 18103  1  0  0  0
 19 20  1  0  0  0
 19 24  1  0  0  0
 20 21  2  0  0  0
 20104  1  0  0  0
 21 23  1  0  0  0
 22 28  1  0  0  0
 22 32  2  0  0  0
 26 27  1  0  0  0
 28105  1  0  0  0
 28106  1  0  0  0
 29107  1  0  0  0
 29108  1  0  0  0
 33 34  1  0  0  0
 33 66  1  0  0  0
 33 70  2  0  0  0
 34 36  1  0  0  0
 34 59  1  0  0  0
 34109  1  0  0  0
 35 44  2  0  0  0
 35 45  1  0  0  0
 35 68  1  0  0  0
 36 56  1  0  0  0
 36110  1  0  0  0
 37 39  1  0  0  0
 37 47  1  0  0  0
 37 66  1  0  0  0
 37111  1  0  0  0
 38 43  2  0  0  0
 38 46  1  0  0  0
 38 47  1  0  0  0
 39 64  1  0  0  0
 39 67  2  0  0  0
 40 52  1  0  0  0
 40 53  2  0  0  0
 40 58  1  0  0  0
 41112  1  0  0  0
 41113  1  0  0  0
 41114  1  0  0  0
 41 48  1  0  0  0
 42 43  1  0  0  0
 42 66  1  0  0  0
 42115  1  0  0  0
 42116  1  0  0  0
 43 44  1  0  0  0
 44117  1  0  0  0
 45 46  2  0  0  0
 45118  1  0  0  0
 46119  1  0  0  0
 47120  1  0  0  0
 47121  1  0  0  0
 48 56  1  0  0  0
 48 65  1  0  0  0
 48122  1  0  0  0
 49 50  1  0  0  0
 49 53  1  0  0  0
 49 64  1  0  0  0
 49123  1  0  0  0
 50 51  1  0  0  0
 50124  1  0  0  0
 50125  1  0  0  0
 51 52  1  0  0  0
 51126  1  0  0  0
 51127  1  0  0  0
 52128  1  0  0  0
 52129  1  0  0  0
 53 54  1  0  0  0
 54 55  2  0  0  0
 54130  1  0  0  0
 55 57  1  0  0  0
 55131  1  0  0  0
 56 69  2  0  0  0
 57 58  2  0  0  0
 57132  1  0  0  0
 58133  1  0  0  0
 59 60  1  0  0  0
 59 61  1  0  0  0
 59 62  1  0  0  0
 60134  1  0  0  0
 60135  1  0  0  0
 60136  1  0  0  0
 61137  1  0  0  0
 61138  1  0  0  0
 61139  1  0  0  0
 62140  1  0  0  0
 62141  1  0  0  0
 62142  1  0  0  0
 63 65  1  0  0  0
 63143  1  0  0  0
 63144  1  0  0  0
 63145  1  0  0  0
 64146  1  0  0  0
 65147  1  0  0  0
 68 83  1  0  0  0
 71 73  2  0  0  0
 71 75  1  0  0  0
 71148  1  0  0  0
 72 74  2  0  0  0
 72 76  1  0  0  0
 72149  1  0  0  0
 73 74  1  0  0  0
 73 77  1  0  0  0
 74 80  1  0  0  0
 75 76  2  0  0  0
 75 86  1  0  0  0
 76 88  1  0  0  0
 77150  1  0  0  0
 77151  1  0  0  0
 77152  1  0  0  0
 78153  1  0  0  0
 78154  1  0  0  0
 78155  1  0  0  0
 78 84  1  0  0  0
 79156  1  0  0  0
 79157  1  0  0  0
 79158  1  0  0  0
 79 85  1  0  0  0
 80 81  1  0  0  0
 80159  1  0  0  0
 80160  1  0  0  0
 81 82  1  0  0  0
 81161  1  0  0  0
 81162  1  0  0  0
 82 85  1  0  0  0
 82163  1  0  0  0
 82164  1  0  0  0
 83 84  1  0  0  0
 83165  1  0  0  0
 83166  1  0  0  0
 84 85  1  0  0  0
 84167  1  0  0  0
 85 87  1  0  0  0
 86168  1  0  0  0
M  ISO  4   1 100  68 101  83 101  86 100
M  END
> <chiral flag>
0

> <version>
0

> <s_m_source_file>
/data/baiqing/PycharmProjects/Reinvent-master-3.2/result/LINK_invent/BTK/process_docking_weight1_custom_sum_contain_oxygen_bond_distance_aromatic_linkinvent_7_9_3/rearranged_h_0023.sdf

> <i_m_source_file_index>
5

> <r_mmod_Potential_Energy-OPLS-2005>
-41.499683380127

> <r_mmod_Stretch_Energy-OPLS-2005>
35.5077285766602

> <r_mmod_Bend_Energy-OPLS-2005>
105.831954956055

> <r_mmod_Torsional_Energy-OPLS-2005>
255.841201782227

> <r_mmod_Improper_Torsional_Energy-OPLS-2005>
3.20068264007568

> <r_mmod_Van_der_Waal_Energy-OPLS-2005>
159.35383605957

> <r_mmod_Electrostatic_Energy-OPLS-2005>
-426.712341308594

> <r_mmod_Solvation_Energy-OPLS-2005>
-184.497161865234

> <b_mmod_Minimization_Converged-OPLS-2005>
0

> <r_mmod_RMS_Derivative-OPLS-2005>
2.32529973983765

$$$$
5
                    3D
 Structure written by MMmdl.
196205  0  0  1  0            999 V2000
  -30.8388  -14.3292   20.7057 C   0  0  0  0  0  0
  -30.4166  -12.2866   19.3977 C   0  0  0  0  0  0
  -29.4917  -12.5499   18.1987 C   0  0  0  0  0  0
  -28.0190  -12.4036   18.6170 C   0  0  0  0  0  0
  -27.6795  -13.2154   19.8951 C   0  0  2  0  0  0
  -28.7241  -12.9805   21.0138 C   0  0  0  0  0  0
  -25.2670  -13.8178   20.5703 C   0  0  0  0  0  0
  -24.1908  -13.0453   20.9162 C   0  0  0  0  0  0
  -24.6473  -11.6933   20.8737 C   0  0  0  0  0  0
  -23.9118  -10.4310   21.0403 C   0  0  0  0  0  0
  -24.3655   -9.4215   21.9199 C   0  0  0  0  0  0
  -23.6309   -8.2262   22.0766 C   0  0  0  0  0  0
  -22.4294   -8.0296   21.3546 C   0  0  0  0  0  0
  -21.9939   -9.0289   20.4653 C   0  0  0  0  0  0
  -22.7284  -10.2166   20.3059 C   0  0  0  0  0  0
  -21.6852   -6.0753   22.5282 C   0  0  0  0  0  0
  -21.4018   -6.5650   23.8215 C   0  0  0  0  0  0
  -21.3658   -5.6806   24.9165 C   0  0  0  0  0  0
  -21.6031   -4.3071   24.7220 C   0  0  0  0  0  0
  -21.8814   -3.8164   23.4349 C   0  0  0  0  0  0
  -21.9193   -4.6978   22.3406 C   0  0  0  0  0  0
  -22.7922  -13.5255   21.1808 C   0  0  0  0  0  0
  -22.1659   -4.2169   21.0981 F   0  0  0  0  0  0
  -21.5622   -3.4555   25.7734 F   0  0  0  0  0  0
  -30.0733  -13.2302   20.4735 N   0  0  0  0  0  0
  -26.3158  -12.9383   20.3478 N   0  0  0  0  0  0
  -25.9423  -11.6541   20.5819 N   0  0  0  0  0  0
  -22.0540  -12.8242   22.0358 N   0  0  0  0  0  0
  -25.4371  -15.1897   20.4104 N   0  0  0  0  0  0
  -31.7834  -14.6563   19.9828 O   0  0  0  0  0  0
  -21.6639   -6.8905   21.4248 O   0  0  0  0  0  0
  -22.3610  -14.5563   20.6667 O   0  0  0  0  0  0
  -24.6138  -31.8700   23.2102 C   0  0  0  0  0  0
  -25.9033  -32.4798   23.8396 C   0  0  1  0  0  0
  -27.2124  -27.4065   20.0976 C   0  0  0  0  0  0
  -25.5906  -33.8612   24.2307 N   0  0  0  0  0  0
  -23.4042  -30.4929   21.5541 C   0  0  2  0  0  0
  -24.8488  -28.9672   20.1129 C   0  0  0  0  0  0
  -22.7405  -29.4653   22.5000 C   0  0  0  0  0  0
  -18.0290  -28.1404   22.8485 C   0  0  0  0  0  0
  -24.1489  -36.7339   23.2643 C   0  0  0  0  0  0
  -25.9403  -30.8139   21.3874 C   0  0  0  0  0  0
  -26.0102  -29.4491   20.7327 C   0  0  0  0  0  0
  -27.1920  -28.6639   20.7501 C   0  0  0  0  0  0
  -26.0746  -27.0191   19.3727 C   0  0  0  0  0  0
  -24.8734  -27.7442   19.4314 C   0  0  0  0  0  0
  -23.6124  -29.8354   20.1688 C   0  0  0  0  0  0
  -25.4095  -36.3076   24.0332 C   0  0  1  0  0  0
  -20.5872  -28.3674   23.1331 C   0  0  2  0  0  0
  -20.6786  -26.9421   22.5415 C   0  0  0  0  0  0
  -19.5762  -26.6389   21.5230 C   0  0  0  0  0  0
  -18.1928  -26.7950   22.1613 C   0  0  0  0  0  0
  -19.1531  -28.8846   23.2881 C   0  0  0  0  0  0
  -18.9452  -30.1470   23.8860 C   0  0  0  0  0  0
  -17.6462  -30.6582   24.0571 C   0  0  0  0  0  0
  -25.9033  -34.9443   23.5098 C   0  0  0  0  0  0
  -16.5341  -29.9087   23.6375 C   0  0  0  0  0  0
  -16.7285  -28.6521   23.0344 C   0  0  0  0  0  0
  -26.4443  -31.6588   25.0740 C   0  0  0  0  0  0
  -25.3668  -31.3694   26.1447 C   0  0  0  0  0  0
  -27.0349  -30.3037   24.6193 C   0  0  0  0  0  0
  -27.6015  -32.4348   25.7466 C   0  0  0  0  0  0
  -27.5560  -37.1785   24.8460 C   0  0  0  0  0  0
  -21.4158  -29.3031   22.3719 N   0  0  0  0  0  0
  -26.4276  -37.3740   23.9417 N   0  0  0  0  0  0
  -24.6690  -31.0761   22.1052 N   0  0  0  0  0  0
  -23.4155  -28.8196   23.3074 O   0  0  0  0  0  0
  -28.3117  -26.5688   20.1263 O   0  0  0  0  0  0
  -26.5589  -34.8883   22.4655 O   0  0  0  0  0  0
  -23.5342  -32.1496   23.7473 O   0  0  0  0  0  0
  -28.4403  -21.9859   24.8655 C   0  0  0  0  0  0
  -29.2358  -22.5773   21.4366 C   0  0  0  0  0  0
  -27.9244  -20.6542   25.3928 C   0  0  0  0  0  0
  -27.8056  -22.7595   20.9642 C   0  0  0  0  0  0
  -30.2481  -20.3932   24.6400 C   0  0  0  0  0  0
  -29.5941  -25.0355   21.4841 C   0  0  0  0  0  0
  -29.9580  -21.8545   25.0490 C   0  0  1  0  0  0
  -29.6219  -23.7447   22.3438 C   0  0  2  0  0  0
  -28.9200  -19.5955   24.8703 C   0  0  1  0  0  0
  -28.1729  -25.3355   20.9020 C   0  0  2  0  0  0
  -27.5512  -24.0630   20.1632 C   0  0  0  0  0  0
  -28.1729  -23.8996   18.7602 C   0  0  0  0  0  0
  -25.9962  -24.0763   20.0568 C   0  0  0  0  0  0
  -30.5782  -24.2834   25.3741 C   0  0  0  0  0  0
  -32.3521  -22.6064   24.9506 C   0  0  0  0  0  0
  -27.6622  -17.6509   25.7747 C   0  0  0  0  0  0
  -30.9531  -23.3879   23.0473 C   0  0  0  0  0  0
  -30.6854  -17.0645   23.2330 C   0  0  0  0  0  0
  -30.2130  -16.4845   24.5774 C   0  0  0  0  0  0
  -31.4568  -16.0509   22.3719 C   0  0  0  0  0  0
  -30.1335  -17.5004   25.7435 C   0  0  0  0  0  0
  -30.9133  -23.0139   24.5669 C   0  0  0  0  0  0
  -30.6051  -14.9755   21.8564 N   0  0  0  0  0  0
  -28.9460  -18.4026   25.7795 N   0  3  1  0  0  0
  -31.4614  -12.3636   19.0917 H   0  0  0  0  0  0
  -30.2951  -11.2637   19.7575 H   0  0  0  0  0  0
  -29.7243  -11.8626   17.3849 H   0  0  0  0  0  0
  -29.6713  -13.5557   17.8135 H   0  0  0  0  0  0
  -27.8211  -11.3447   18.7848 H   0  0  0  0  0  0
  -27.3687  -12.7138   17.7983 H   0  0  0  0  0  0
  -27.7344  -14.2694   19.6274 H   0  0  0  0  0  0
  -28.6727  -11.9545   21.3804 H   0  0  0  0  0  0
  -28.4903  -13.6116   21.8714 H   0  0  0  0  0  0
  -25.2807   -9.5664   22.4781 H   0  0  0  0  0  0
  -24.0001   -7.4643   22.7494 H   0  0  0  0  0  0
  -21.0864   -8.8842   19.8957 H   0  0  0  0  0  0
  -22.3775  -10.9719   19.6169 H   0  0  0  0  0  0
  -21.2023   -7.6158   23.9717 H   0  0  0  0  0  0
  -21.1470   -6.0536   25.9066 H   0  0  0  0  0  0
  -22.0591   -2.7634   23.2844 H   0  0  0  0  0  0
  -22.4142  -11.9887   22.4747 H   0  0  0  0  0  0
  -21.1164  -13.1287   22.2557 H   0  0  0  0  0  0
  -24.6734  -15.8476   20.5050 H   0  0  0  0  0  0
  -26.2996  -15.6261   20.1104 H   0  0  0  0  0  0
  -26.7058  -32.5511   23.1124 H   0  0  0  0  0  0
  -25.0115  -33.9790   25.0488 H   0  0  0  0  0  0
  -22.6943  -31.3110   21.4165 H   0  0  0  0  0  0
  -23.3710  -35.9718   23.3319 H   0  0  0  0  0  0
  -24.3599  -36.8974   22.2065 H   0  0  0  0  0  0
  -23.7289  -37.6554   23.6680 H   0  0  0  0  0  0
  -26.0808  -31.5786   20.6232 H   0  0  0  0  0  0
  -26.8174  -30.8481   22.0176 H   0  0  0  0  0  0
  -28.0726  -29.0043   21.2789 H   0  0  0  0  0  0
  -26.1192  -26.1614   18.7308 H   0  0  0  0  0  0
  -24.0002  -27.3859   18.9048 H   0  0  0  0  0  0
  -23.7206  -30.6134   19.4152 H   0  0  0  0  0  0
  -22.7365  -29.2596   19.8677 H   0  0  0  0  0  0
  -25.1246  -36.1931   25.0820 H   0  0  0  0  0  0
  -20.9928  -28.3255   24.1478 H   0  0  0  0  0  0
  -20.5781  -26.2284   23.3604 H   0  0  0  0  0  0
  -21.6646  -26.7560   22.1122 H   0  0  0  0  0  0
  -19.6942  -25.6304   21.1270 H   0  0  0  0  0  0
  -19.6688  -27.3193   20.6764 H   0  0  0  0  0  0
  -17.4203  -26.6754   21.4002 H   0  0  0  0  0  0
  -18.0264  -26.0099   22.9008 H   0  0  0  0  0  0
  -19.7924  -30.7320   24.2171 H   0  0  0  0  0  0
  -17.5009  -31.6277   24.5195 H   0  0  0  0  0  0
  -15.5330  -30.2945   23.7751 H   0  0  0  0  0  0
  -15.8710  -28.0861   22.7029 H   0  0  0  0  0  0
  -24.5895  -30.6984   25.7778 H   0  0  0  0  0  0
  -24.8752  -32.2824   26.4797 H   0  0  0  0  0  0
  -25.7953  -30.8938   27.0270 H   0  0  0  0  0  0
  -26.2945  -29.6687   24.1307 H   0  0  0  0  0  0
  -27.4187  -29.7354   25.4672 H   0  0  0  0  0  0
  -27.8713  -30.4393   23.9329 H   0  0  0  0  0  0
  -27.2688  -33.3757   26.1862 H   0  0  0  0  0  0
  -28.3831  -32.6748   25.0251 H   0  0  0  0  0  0
  -28.0621  -31.8577   26.5471 H   0  0  0  0  0  0
  -28.2523  -38.0119   24.7520 H   0  0  0  0  0  0
  -28.1076  -36.2643   24.6236 H   0  0  0  0  0  0
  -27.2297  -37.1401   25.8860 H   0  0  0  0  0  0
  -20.9319  -29.8754   21.6938 H   0  0  0  0  0  0
  -26.0159  -38.2819   24.1394 H   0  0  0  0  0  0
  -28.0143  -22.8430   25.3869 H   0  0  0  0  0  0
  -28.1485  -22.0419   23.8242 H   0  0  0  0  0  0
  -29.9183  -22.5005   20.5905 H   0  0  0  0  0  0
  -29.3216  -21.6283   21.9620 H   0  0  0  0  0  0
  -26.8971  -20.4561   25.0855 H   0  0  0  0  0  0
  -27.9373  -20.6922   26.4828 H   0  0  0  0  0  0
  -27.1632  -22.7426   21.8463 H   0  0  0  0  0  0
  -27.5247  -21.8859   20.3707 H   0  0  0  0  0  0
  -31.1113  -20.0275   25.1905 H   0  0  0  0  0  0
  -30.5158  -20.3476   23.5835 H   0  0  0  0  0  0
  -30.3115  -24.9506   20.6680 H   0  0  0  0  0  0
  -29.9334  -25.8815   22.0845 H   0  0  0  0  0  0
  -30.0866  -21.8419   26.1336 H   0  0  0  0  0  0
  -28.8621  -23.9105   23.1041 H   0  0  0  0  0  0
  -28.5806  -19.2612   23.8867 H   0  0  0  0  0  0
  -27.5370  -25.5473   21.7646 H   0  0  0  0  0  0
  -29.2634  -23.9074   18.7937 H   0  0  0  0  0  0
  -27.8691  -24.7097   18.0972 H   0  0  0  0  0  0
  -27.8738  -22.9596   18.2927 H   0  0  0  0  0  0
  -25.5459  -24.8223   20.7109 H   0  0  0  0  0  0
  -25.5337  -23.1301   20.3432 H   0  0  0  0  0  0
  -25.6404  -24.2214   19.0373 H   0  0  0  0  0  0
  -30.6736  -24.1033   26.4469 H   0  0  0  0  0  0
  -29.5615  -24.6302   25.1967 H   0  0  0  0  0  0
  -31.2501  -25.1064   25.1283 H   0  0  0  0  0  0
  -32.4335  -22.3576   26.0102 H   0  0  0  0  0  0
  -33.0664  -23.4060   24.7525 H   0  0  0  0  0  0
  -32.6864  -21.7365   24.3827 H   0  0  0  0  0  0
  -26.8437  -18.2528   26.1706 H   0  0  0  0  0  0
  -27.7194  -16.7577   26.3956 H   0  0  0  0  0  0
  -27.3805  -17.3371   24.7677 H   0  0  0  0  0  0
  -31.6403  -24.2253   22.9146 H   0  0  0  0  0  0
  -31.4345  -22.5732   22.5052 H   0  0  0  0  0  0
  -31.3534  -17.9071   23.4163 H   0  0  0  0  0  0
  -29.8405  -17.4682   22.6754 H   0  0  0  0  0  0
  -30.9441  -15.7379   24.8921 H   0  0  0  0  0  0
  -29.2837  -15.9291   24.4525 H   0  0  0  0  0  0
  -32.2764  -15.6082   22.9429 H   0  0  0  0  0  0
  -31.9323  -16.5948   21.5531 H   0  0  0  0  0  0
  -31.0687  -18.0461   25.8491 H   0  0  0  0  0  0
  -30.0827  -16.9194   26.6654 H   0  0  0  0  0  0
  -29.8641  -14.6226   22.4418 H   0  0  0  0  0  0
  -29.0000  -18.7983   26.7067 H   0  0  0  0  0  0
  1 25  1  0  0  0
  1 30  2  0  0  0
  1 93  1  0  0  0
  2  3  1  0  0  0
  2 25  1  0  0  0
  2 95  1  0  0  0
  2 96  1  0  0  0
  3  4  1  0  0  0
  3 97  1  0  0  0
  3 98  1  0  0  0
  4  5  1  0  0  0
  4 99  1  0  0  0
  4100  1  0  0  0
  5  6  1  0  0  0
  5 26  1  0  0  0
  5101  1  0  0  0
  6 25  1  0  0  0
  6102  1  0  0  0
  6103  1  0  0  0
  7  8  2  0  0  0
  7 26  1  0  0  0
  7 29  1  0  0  0
  8  9  1  0  0  0
  8 22  1  0  0  0
  9 10  1  0  0  0
  9 27  2  0  0  0
 10 11  2  0  0  0
 10 15  1  0  0  0
 11 12  1  0  0  0
 11104  1  0  0  0
 12 13  2  0  0  0
 12105  1  0  0  0
 13 14  1  0  0  0
 13 31  1  0  0  0
 14 15  2  0  0  0
 14106  1  0  0  0
 15107  1  0  0  0
 16 17  2  0  0  0
 16 21  1  0  0  0
 16 31  1  0  0  0
 17 18  1  0  0  0
 17108  1  0  0  0
 18 19  2  0  0  0
 18109  1  0  0  0
 19 20  1  0  0  0
 19 24  1  0  0  0
 20 21  2  0  0  0
 20110  1  0  0  0
 21 23  1  0  0  0
 22 28  1  0  0  0
 22 32  2  0  0  0
 26 27  1  0  0  0
 28111  1  0  0  0
 28112  1  0  0  0
 29113  1  0  0  0
 29114  1  0  0  0
 33 34  1  0  0  0
 33 66  1  0  0  0
 33 70  2  0  0  0
 34 36  1  0  0  0
 34 59  1  0  0  0
 34115  1  0  0  0
 35 44  2  0  0  0
 35 45  1  0  0  0
 35 68  1  0  0  0
 36 56  1  0  0  0
 36116  1  0  0  0
 37 39  1  0  0  0
 37 47  1  0  0  0
 37 66  1  0  0  0
 37117  1  0  0  0
 38 43  2  0  0  0
 38 46  1  0  0  0
 38 47  1  0  0  0
 39 64  1  0  0  0
 39 67  2  0  0  0
 40 52  1  0  0  0
 40 53  2  0  0  0
 40 58  1  0  0  0
 41118  1  0  0  0
 41119  1  0  0  0
 41120  1  0  0  0
 41 48  1  0  0  0
 42 43  1  0  0  0
 42 66  1  0  0  0
 42121  1  0  0  0
 42122  1  0  0  0
 43 44  1  0  0  0
 44123  1  0  0  0
 45 46  2  0  0  0
 45124  1  0  0  0
 46125  1  0  0  0
 47126  1  0  0  0
 47127  1  0  0  0
 48 56  1  0  0  0
 48 65  1  0  0  0
 48128  1  0  0  0
 49 50  1  0  0  0
 49 53  1  0  0  0
 49 64  1  0  0  0
 49129  1  0  0  0
 50 51  1  0  0  0
 50130  1  0  0  0
 50131  1  0  0  0
 51 52  1  0  0  0
 51132  1  0  0  0
 51133  1  0  0  0
 52134  1  0  0  0
 52135  1  0  0  0
 53 54  1  0  0  0
 54 55  2  0  0  0
 54136  1  0  0  0
 55 57  1  0  0  0
 55137  1  0  0  0
 56 69  2  0  0  0
 57 58  2  0  0  0
 57138  1  0  0  0
 58139  1  0  0  0
 59 60  1  0  0  0
 59 61  1  0  0  0
 59 62  1  0  0  0
 60140  1  0  0  0
 60141  1  0  0  0
 60142  1  0  0  0
 61143  1  0  0  0
 61144  1  0  0  0
 61145  1  0  0  0
 62146  1  0  0  0
 62147  1  0  0  0
 62148  1  0  0  0
 63 65  1  0  0  0
 63149  1  0  0  0
 63150  1  0  0  0
 63151  1  0  0  0
 64152  1  0  0  0
 65153  1  0  0  0
 68 80  1  0  0  0
 71 73  1  0  0  0
 71154  1  0  0  0
 71155  1  0  0  0
 71 77  1  0  0  0
 72 74  1  0  0  0
 72 78  1  0  0  0
 72156  1  0  0  0
 72157  1  0  0  0
 73158  1  0  0  0
 73159  1  0  0  0
 73 79  1  0  0  0
 74 81  1  0  0  0
 74160  1  0  0  0
 74161  1  0  0  0
 75 77  1  0  0  0
 75 79  1  0  0  0
 75162  1  0  0  0
 75163  1  0  0  0
 76 78  1  0  0  0
 76 80  1  0  0  0
 76164  1  0  0  0
 76165  1  0  0  0
 77 92  1  0  0  0
 77166  1  0  0  0
 78 87  1  0  0  0
 78167  1  0  0  0
 79 94  1  0  0  0
 79168  1  0  0  0
 80 81  1  0  0  0
 80169  1  0  0  0
 81 82  1  0  0  0
 81 83  1  0  0  0
 82170  1  0  0  0
 82171  1  0  0  0
 82172  1  0  0  0
 83173  1  0  0  0
 83174  1  0  0  0
 83175  1  0  0  0
 84176  1  0  0  0
 84177  1  0  0  0
 84178  1  0  0  0
 84 92  1  0  0  0
 85 92  1  0  0  0
 85179  1  0  0  0
 85180  1  0  0  0
 85181  1  0  0  0
 86182  1  0  0  0
 86183  1  0  0  0
 86184  1  0  0  0
 86 94  1  0  0  0
 87 92  1  0  0  0
 87185  1  0  0  0
 87186  1  0  0  0
 88 89  1  0  0  0
 88 90  1  0  0  0
 88187  1  0  0  0
 88188  1  0  0  0
 89 91  1  0  0  0
 89189  1  0  0  0
 89190  1  0  0  0
 90 93  1  0  0  0
 90191  1  0  0  0
 90192  1  0  0  0
 91 94  1  0  0  0
 91193  1  0  0  0
 91194  1  0  0  0
 93195  1  0  0  0
 94196  1  0  0  0
M  CHG  1  94   1
M  ISO  4   1 100  68 101  80 101  93 100
M  END
> <chiral flag>
0

> <version>
0

> <s_m_source_file>
/data/baiqing/PycharmProjects/Reinvent-master-3.2/result/LINK_invent/BTK/process_docking_weight1_custom_sum_contain_oxygen_bond_distance_aromatic_linkinvent_7_9_3/rearranged_h_0023.sdf

> <i_m_source_file_index>
6

> <r_mmod_Potential_Energy-OPLS-2005>
97.641227722168

> <r_mmod_Stretch_Energy-OPLS-2005>
52.8605995178223

> <r_mmod_Bend_Energy-OPLS-2005>
199.850738525391

> <r_mmod_Torsional_Energy-OPLS-2005>
375.404815673828

> <r_mmod_Improper_Torsional_Energy-OPLS-2005>
2.99809336662292

> <r_mmod_Van_der_Waal_Energy-OPLS-2005>
155.037338256836

> <r_mmod_Electrostatic_Energy-OPLS-2005>
-278.444396972656

> <r_mmod_Solvation_Energy-OPLS-2005>
-428.835906982422

> <b_mmod_Minimization_Converged-OPLS-2005>
0

> <r_mmod_RMS_Derivative-OPLS-2005>
4.5926194190979

$$$$
6
                    3D
 Structure written by MMmdl.
168176  0  0  1  0            999 V2000
  -30.6127  -13.7497   20.5656 C   0  0  0  0  0  0
  -30.5983  -11.4519   19.2462 C   0  0  0  0  0  0
  -29.3494  -11.9872   17.8710 C   0  0  0  0  0  0
  -27.8643  -13.0992   18.3247 C   0  0  0  0  0  0
  -27.4872  -13.7786   20.0986 C   0  0  2  0  0  0
  -28.6069  -13.2518   21.6116 C   0  0  0  0  0  0
  -25.2816  -14.5908   20.8780 C   0  0  0  0  0  0
  -24.2807  -13.7969   21.2907 C   0  0  0  0  0  0
  -24.9710  -12.5554   21.0562 C   0  0  0  0  0  0
  -24.3587   -9.9324   20.2821 C   0  0  0  0  0  0
  -24.6356   -8.6812   21.0410 C   0  0  0  0  0  0
  -23.6891   -7.9054   21.7316 C   0  0  0  0  0  0
  -22.3948   -7.8869   21.2237 C   0  0  0  0  0  0
  -22.1309   -8.6888   20.1206 C   0  0  0  0  0  0
  -23.1533   -9.4802   19.5529 C   0  0  0  0  0  0
  -21.6263   -6.0771   22.5656 C   0  0  0  0  0  0
  -21.3787   -6.5542   23.8658 C   0  0  0  0  0  0
  -21.3735   -5.6595   24.9498 C   0  0  0  0  0  0
  -21.6187   -4.2915   24.7333 C   0  0  0  0  0  0
  -21.8964   -3.8172   23.4380 C   0  0  0  0  0  0
  -21.9032   -4.7096   22.3511 C   0  0  0  0  0  0
  -22.8407  -14.1779   21.5411 C   0  0  0  0  0  0
  -22.1427   -4.2433   21.1009 F   0  0  0  0  0  0
  -21.5810   -3.4298   25.7752 F   0  0  0  0  0  0
  -30.1720  -12.5687   20.7750 N   0  0  0  0  0  0
  -26.2190  -13.7314   20.5202 N   0  0  0  0  0  0
  -26.0481  -13.0363   21.5368 N   0  0  0  0  0  0
  -22.2150  -13.5906   22.5606 N   0  0  0  0  0  0
  -25.5121  -15.9016   20.6950 N   0  0  0  0  0  0
  -31.5782  -14.3270   20.0324 O   0  0  0  0  0  0
  -21.4730   -6.9217   21.5052 O   0  0  0  0  0  0
  -22.2444  -14.8921   20.7548 O   0  0  0  0  0  0
  -24.6642  -31.8341   23.1925 C   0  0  0  0  0  0
  -25.9382  -32.4601   23.8274 C   0  0  1  0  0  0
  -26.9033  -26.9057   20.0343 C   0  0  0  0  0  0
  -25.6086  -33.8430   24.2148 N   0  0  0  0  0  0
  -23.4532  -30.4861   21.5535 C   0  0  2  0  0  0
  -24.8362  -28.9323   20.0715 C   0  0  0  0  0  0
  -22.7615  -29.4535   22.4821 C   0  0  0  0  0  0
  -18.0314  -28.1397   22.8473 C   0  0  0  0  0  0
  -24.1507  -36.7204   23.2635 C   0  0  0  0  0  0
  -26.0339  -30.6051   21.4377 C   0  0  0  0  0  0
  -26.0346  -29.2195   20.7368 C   0  0  0  0  0  0
  -27.0878  -28.1996   20.7313 C   0  0  0  0  0  0
  -25.7736  -26.8739   19.2202 C   0  0  0  0  0  0
  -24.7309  -27.7863   19.2988 C   0  0  0  0  0  0
  -23.6617  -29.8821   20.1518 C   0  0  0  0  0  0
  -25.4150  -36.2973   24.0290 C   0  0  1  0  0  0
  -20.5935  -28.3730   23.1201 C   0  0  2  0  0  0
  -20.6797  -26.9427   22.5381 C   0  0  0  0  0  0
  -19.5759  -26.6375   21.5205 C   0  0  0  0  0  0
  -18.1946  -26.7932   22.1627 C   0  0  0  0  0  0
  -19.1575  -28.8884   23.2828 C   0  0  0  0  0  0
  -18.9485  -30.1477   23.8861 C   0  0  0  0  0  0
  -17.6479  -30.6589   24.0556 C   0  0  0  0  0  0
  -25.9133  -34.9354   23.5017 C   0  0  0  0  0  0
  -16.5370  -29.9079   23.6337 C   0  0  0  0  0  0
  -16.7297  -28.6497   23.0362 C   0  0  0  0  0  0
  -26.4596  -31.6551   25.0813 C   0  0  0  0  0  0
  -25.3703  -31.3833   26.1459 C   0  0  0  0  0  0
  -27.0476  -30.2889   24.6625 C   0  0  0  0  0  0
  -27.6093  -32.4368   25.7588 C   0  0  0  0  0  0
  -27.5580  -37.1771   24.8464 C   0  0  0  0  0  0
  -21.4301  -29.3056   22.3577 N   0  0  0  0  0  0
  -26.4291  -37.3711   23.9402 N   0  0  0  0  0  0
  -24.7423  -31.0023   22.1091 N   0  0  0  0  0  0
  -23.4243  -28.7998   23.2920 O   0  0  0  0  0  0
  -27.5665  -25.5966   20.0757 O   0  0  0  0  0  0
  -26.5704  -34.8867   22.4593 O   0  0  0  0  0  0
  -23.5742  -32.1368   23.7049 O   0  0  0  0  0  0
  -23.9317  -10.9531   22.2821 C   0  0  0  0  0  0
  -26.5473  -10.9718   20.3022 C   0  0  0  0  0  0
  -23.7400  -12.0483   19.2141 C   0  0  0  0  0  0
  -25.7860  -10.6357   21.9954 C   0  0  0  0  0  0
  -22.8934  -11.6037   20.8369 C   0  0  0  0  0  0
  -25.4439  -11.5405   18.9891 C   0  0  0  0  0  0
  -28.3010  -11.4279   20.0994 C   0  0  0  0  0  0
  -23.4234  -13.5707   18.4123 C   0  0  0  0  0  0
  -25.3076  -19.5071   19.3300 C   0  0  0  0  0  0
  -25.9577  -21.1242   18.9266 C   0  0  0  0  0  0
  -25.0992  -17.9874   18.4109 C   0  0  0  0  0  0
  -26.6695  -22.4759   19.8616 C   0  0  0  0  0  0
  -23.9724  -16.5904   18.4784 C   0  0  0  0  0  0
  -26.7940  -24.2245   19.5334 C   0  0  0  0  0  0
  -29.6870  -13.2664   19.7946 N   0  0  0  0  0  0
  -24.3238  -14.9778   18.3323 N   0  3  0  0  0  0
  -26.7889  -10.1571   23.3188 Cl  0  0  0  0  0  0
  -21.1413  -11.5560   20.8609 Cl  0  0  0  0  0  0
  -25.8098  -11.0474   17.3648 Cl  0  0  0  0  0  0
  -31.6203  -11.6547   18.9182 H   0  0  0  0  0  0
  -30.5749  -10.3863   19.4843 H   0  0  0  0  0  0
  -28.9920  -11.1023   17.3429 H   0  0  0  0  0  0
  -29.9224  -12.5145   17.1054 H   0  0  0  0  0  0
  -27.0238  -13.0934   17.6512 H   0  0  0  0  0  0
  -28.2328  -14.0290   17.8852 H   0  0  0  0  0  0
  -27.7016  -14.8437   19.9808 H   0  0  0  0  0  0
  -28.2304  -12.5169   22.3256 H   0  0  0  0  0  0
  -28.8061  -14.1269   22.2366 H   0  0  0  0  0  0
  -25.6377   -8.4377   21.3675 H   0  0  0  0  0  0
  -24.0210   -7.1669   22.4477 H   0  0  0  0  0  0
  -21.1845   -8.5899   19.6082 H   0  0  0  0  0  0
  -22.7856   -9.9934   18.6767 H   0  0  0  0  0  0
  -21.1523   -7.5980   24.0263 H   0  0  0  0  0  0
  -21.1620   -6.0166   25.9466 H   0  0  0  0  0  0
  -22.0889   -2.7681   23.2766 H   0  0  0  0  0  0
  -22.7182  -13.0197   23.2225 H   0  0  0  0  0  0
  -21.2368  -13.7832   22.7210 H   0  0  0  0  0  0
  -24.9370  -16.5490   21.2224 H   0  0  0  0  0  0
  -26.4781  -16.2114   20.7026 H   0  0  0  0  0  0
  -26.7413  -32.5024   23.0927 H   0  0  0  0  0  0
  -25.0214  -33.9532   25.0285 H   0  0  0  0  0  0
  -22.7640  -31.3247   21.4335 H   0  0  0  0  0  0
  -23.3785  -35.9518   23.3261 H   0  0  0  0  0  0
  -24.3583  -36.8890   22.2056 H   0  0  0  0  0  0
  -23.7248  -37.6375   23.6714 H   0  0  0  0  0  0
  -26.2631  -31.3585   20.6829 H   0  0  0  0  0  0
  -26.8847  -30.6025   22.1062 H   0  0  0  0  0  0
  -27.9738  -28.3504   21.3311 H   0  0  0  0  0  0
  -25.5845  -26.0774   18.5209 H   0  0  0  0  0  0
  -23.8376  -27.6109   18.7141 H   0  0  0  0  0  0
  -23.8429  -30.6853   19.4370 H   0  0  0  0  0  0
  -22.7507  -29.3862   19.8114 H   0  0  0  0  0  0
  -25.1342  -36.1773   25.0780 H   0  0  0  0  0  0
  -21.0026  -28.3313   24.1322 H   0  0  0  0  0  0
  -20.5700  -26.2343   23.3606 H   0  0  0  0  0  0
  -21.6656  -26.7428   22.1167 H   0  0  0  0  0  0
  -19.6912  -25.6276   21.1257 H   0  0  0  0  0  0
  -19.6682  -27.3166   20.6718 H   0  0  0  0  0  0
  -17.4208  -26.6676   21.4036 H   0  0  0  0  0  0
  -18.0346  -26.0084   22.9035 H   0  0  0  0  0  0
  -19.7958  -30.7305   24.2216 H   0  0  0  0  0  0
  -17.5026  -31.6265   24.5166 H   0  0  0  0  0  0
  -15.5366  -30.2968   23.7678 H   0  0  0  0  0  0
  -15.8698  -28.0800   22.7103 H   0  0  0  0  0  0
  -24.5900  -30.7158   25.7783 H   0  0  0  0  0  0
  -24.8872  -32.3042   26.4734 H   0  0  0  0  0  0
  -25.7914  -30.9105   27.0340 H   0  0  0  0  0  0
  -26.3133  -29.6541   24.1653 H   0  0  0  0  0  0
  -27.3949  -29.7299   25.5325 H   0  0  0  0  0  0
  -27.9130  -30.4018   24.0092 H   0  0  0  0  0  0
  -27.2670  -33.3718   26.2034 H   0  0  0  0  0  0
  -28.3955  -32.6855   25.0447 H   0  0  0  0  0  0
  -28.0707  -31.8596   26.5611 H   0  0  0  0  0  0
  -28.2569  -38.0095   24.7527 H   0  0  0  0  0  0
  -28.1110  -36.2622   24.6276 H   0  0  0  0  0  0
  -27.2295  -37.1389   25.8865 H   0  0  0  0  0  0
  -20.9509  -29.8853   21.6830 H   0  0  0  0  0  0
  -26.0134  -38.2768   24.1413 H   0  0  0  0  0  0
  -23.4726  -10.6983   23.2260 H   0  0  0  0  0  0
  -28.4139  -10.6003   19.3991 H   0  0  0  0  0  0
  -28.6470  -10.8481   20.9668 H   0  0  0  0  0  0
  -22.3907  -13.8379   18.6218 H   0  0  0  0  0  0
  -23.3568  -13.2701   17.3664 H   0  0  0  0  0  0
  -24.3203  -19.7115   19.7451 H   0  0  0  0  0  0
  -25.8802  -19.1993   20.2063 H   0  0  0  0  0  0
  -25.1456  -21.5924   18.3693 H   0  0  0  0  0  0
  -26.7020  -20.9270   18.1550 H   0  0  0  0  0  0
  -26.0931  -17.5399   18.4050 H   0  0  0  0  0  0
  -24.9924  -18.3322   17.3822 H   0  0  0  0  0  0
  -27.6932  -22.1559   20.0565 H   0  0  0  0  0  0
  -26.1950  -22.4182   20.8418 H   0  0  0  0  0  0
  -23.2280  -16.7775   17.7045 H   0  0  0  0  0  0
  -23.4016  -16.7040   19.3976 H   0  0  0  0  0  0
  -25.7417  -24.4389   19.7071 H   0  0  0  0  0  0
  -26.9379  -24.2745   18.4537 H   0  0  0  0  0  0
  -29.6625  -13.6559   18.8671 H   0  0  0  0  0  0
  -24.8784  -14.8978   17.4956 H   0  0  0  0  0  0
  -24.9609  -14.9283   19.1147 H   0  0  0  0  0  0
  1 25  1  0  0  0
  1 30  2  0  0  0
  1 85  1  0  0  0
  2  3  1  0  0  0
  2 25  1  0  0  0
  2 90  1  0  0  0
  2 91  1  0  0  0
  3  4  1  0  0  0
  3 92  1  0  0  0
  3 93  1  0  0  0
  4  5  1  0  0  0
  4 94  1  0  0  0
  4 95  1  0  0  0
  5  6  1  0  0  0
  5 26  1  0  0  0
  5 96  1  0  0  0
  6 25  1  0  0  0
  6 97  1  0  0  0
  6 98  1  0  0  0
  7  8  2  0  0  0
  7 26  1  0  0  0
  7 29  1  0  0  0
  8  9  1  0  0  0
  8 22  1  0  0  0
  9 10  1  0  0  0
  9 27  2  0  0  0
 10 11  2  0  0  0
 10 15  1  0  0  0
 11 12  1  0  0  0
 11 99  1  0  0  0
 12 13  2  0  0  0
 12100  1  0  0  0
 13 14  1  0  0  0
 13 31  1  0  0  0
 14 15  2  0  0  0
 14101  1  0  0  0
 15102  1  0  0  0
 16 17  2  0  0  0
 16 21  1  0  0  0
 16 31  1  0  0  0
 17 18  1  0  0  0
 17103  1  0  0  0
 18 19  2  0  0  0
 18104  1  0  0  0
 19 20  1  0  0  0
 19 24  1  0  0  0
 20 21  2  0  0  0
 20105  1  0  0  0
 21 23  1  0  0  0
 22 28  1  0  0  0
 22 32  2  0  0  0
 26 27  1  0  0  0
 28106  1  0  0  0
 28107  1  0  0  0
 29108  1  0  0  0
 29109  1  0  0  0
 33 34  1  0  0  0
 33 66  1  0  0  0
 33 70  2  0  0  0
 34 36  1  0  0  0
 34 59  1  0  0  0
 34110  1  0  0  0
 35 44  2  0  0  0
 35 45  1  0  0  0
 35 68  1  0  0  0
 36 56  1  0  0  0
 36111  1  0  0  0
 37 39  1  0  0  0
 37 47  1  0  0  0
 37 66  1  0  0  0
 37112  1  0  0  0
 38 43  2  0  0  0
 38 46  1  0  0  0
 38 47  1  0  0  0
 39 64  1  0  0  0
 39 67  2  0  0  0
 40 52  1  0  0  0
 40 53  2  0  0  0
 40 58  1  0  0  0
 41113  1  0  0  0
 41114  1  0  0  0
 41115  1  0  0  0
 41 48  1  0  0  0
 42 43  1  0  0  0
 42 66  1  0  0  0
 42116  1  0  0  0
 42117  1  0  0  0
 43 44  1  0  0  0
 44118  1  0  0  0
 45 46  2  0  0  0
 45119  1  0  0  0
 46120  1  0  0  0
 47121  1  0  0  0
 47122  1  0  0  0
 48 56  1  0  0  0
 48 65  1  0  0  0
 48123  1  0  0  0
 49 50  1  0  0  0
 49 53  1  0  0  0
 49 64  1  0  0  0
 49124  1  0  0  0
 50 51  1  0  0  0
 50125  1  0  0  0
 50126  1  0  0  0
 51 52  1  0  0  0
 51127  1  0  0  0
 51128  1  0  0  0
 52129  1  0  0  0
 52130  1  0  0  0
 53 54  1  0  0  0
 54 55  2  0  0  0
 54131  1  0  0  0
 55 57  1  0  0  0
 55132  1  0  0  0
 56 69  2  0  0  0
 57 58  2  0  0  0
 57133  1  0  0  0
 58134  1  0  0  0
 59 60  1  0  0  0
 59 61  1  0  0  0
 59 62  1  0  0  0
 60135  1  0  0  0
 60136  1  0  0  0
 60137  1  0  0  0
 61138  1  0  0  0
 61139  1  0  0  0
 61140  1  0  0  0
 62141  1  0  0  0
 62142  1  0  0  0
 62143  1  0  0  0
 63 65  1  0  0  0
 63144  1  0  0  0
 63145  1  0  0  0
 63146  1  0  0  0
 64147  1  0  0  0
 65148  1  0  0  0
 68 84  1  0  0  0
 71 74  2  0  0  0
 71 75  1  0  0  0
 71149  1  0  0  0
 72 74  1  0  0  0
 72 76  2  0  0  0
 72 77  1  0  0  0
 73 75  2  0  0  0
 73 76  1  0  0  0
 73 78  1  0  0  0
 74 87  1  0  0  0
 75 88  1  0  0  0
 76 89  1  0  0  0
 77 85  1  0  0  0
 77150  1  0  0  0
 77151  1  0  0  0
 78 86  1  0  0  0
 78152  1  0  0  0
 78153  1  0  0  0
 79 80  1  0  0  0
 79 81  1  0  0  0
 79154  1  0  0  0
 79155  1  0  0  0
 80 82  1  0  0  0
 80156  1  0  0  0
 80157  1  0  0  0
 81 83  1  0  0  0
 81158  1  0  0  0
 81159  1  0  0  0
 82 84  1  0  0  0
 82160  1  0  0  0
 82161  1  0  0  0
 83 86  1  0  0  0
 83162  1  0  0  0
 83163  1  0  0  0
 84164  1  0  0  0
 84165  1  0  0  0
 85166  1  0  0  0
 86167  1  0  0  0
 86168  1  0  0  0
M  CHG  1  86   1
M  ISO  4   1 100  68 101  84 101  85 100
M  END
> <chiral flag>
0

> <version>
0

> <s_m_source_file>
/data/baiqing/PycharmProjects/Reinvent-master-3.2/result/LINK_invent/BTK/process_docking_weight1_custom_sum_contain_oxygen_bond_distance_aromatic_linkinvent_7_9_3/rearranged_h_0023.sdf

> <i_m_source_file_index>
7

> <r_mmod_Potential_Energy-OPLS-2005>
16087.51171875

> <r_mmod_Stretch_Energy-OPLS-2005>
8429.0810546875

> <r_mmod_Bend_Energy-OPLS-2005>
1357.79650878906

> <r_mmod_Torsional_Energy-OPLS-2005>
837.1181640625

> <r_mmod_Improper_Torsional_Energy-OPLS-2005>
106.796546936035

> <r_mmod_Van_der_Waal_Energy-OPLS-2005>
4262.80908203125

> <r_mmod_Electrostatic_Energy-OPLS-2005>
-393.820739746094

> <r_mmod_Solvation_Energy-OPLS-2005>
-434.083770751953

> <b_mmod_Minimization_Converged-OPLS-2005>
0

> <r_mmod_RMS_Derivative-OPLS-2005>
2.22478318214417

$$$$
7
                    3D
 Structure written by MMmdl.
193201  0  0  1  0            999 V2000
  -30.9628  -14.1489   20.7412 C   0  0  0  0  0  0
  -30.3878  -12.2338   19.3567 C   0  0  0  0  0  0
  -29.4568  -12.5238   18.1756 C   0  0  0  0  0  0
  -27.9953  -12.3757   18.6200 C   0  0  0  0  0  0
  -27.6737  -13.2146   19.8835 C   0  0  2  0  0  0
  -28.7308  -13.0065   21.0038 C   0  0  0  0  0  0
  -25.2605  -13.8198   20.5720 C   0  0  0  0  0  0
  -24.1839  -13.0488   20.9135 C   0  0  0  0  0  0
  -24.6393  -11.6944   20.8735 C   0  0  0  0  0  0
  -23.9046  -10.4326   21.0378 C   0  0  0  0  0  0
  -24.3572   -9.4250   21.9181 C   0  0  0  0  0  0
  -23.6252   -8.2282   22.0772 C   0  0  0  0  0  0
  -22.4253   -8.0268   21.3544 C   0  0  0  0  0  0
  -21.9874   -9.0251   20.4649 C   0  0  0  0  0  0
  -22.7204  -10.2138   20.3048 C   0  0  0  0  0  0
  -21.6834   -6.0704   22.5271 C   0  0  0  0  0  0
  -21.4013   -6.5620   23.8207 C   0  0  0  0  0  0
  -21.3654   -5.6783   24.9169 C   0  0  0  0  0  0
  -21.6053   -4.3043   24.7239 C   0  0  0  0  0  0
  -21.8796   -3.8127   23.4348 C   0  0  0  0  0  0
  -21.9183   -4.6933   22.3402 C   0  0  0  0  0  0
  -22.7858  -13.5275   21.1807 C   0  0  0  0  0  0
  -22.1644   -4.2124   21.0974 F   0  0  0  0  0  0
  -21.5625   -3.4527   25.7749 F   0  0  0  0  0  0
  -30.0920  -13.1570   20.4570 N   0  0  0  0  0  0
  -26.3095  -12.9415   20.3489 N   0  0  0  0  0  0
  -25.9342  -11.6554   20.5808 N   0  0  0  0  0  0
  -22.0443  -12.8316   22.0314 N   0  0  0  0  0  0
  -25.4335  -15.1923   20.4098 N   0  0  0  0  0  0
  -31.6326  -14.7378   19.8906 O   0  0  0  0  0  0
  -21.6622   -6.8856   21.4244 O   0  0  0  0  0  0
  -22.3576  -14.5596   20.6607 O   0  0  0  0  0  0
  -24.6157  -31.8684   23.2099 C   0  0  0  0  0  0
  -25.9087  -32.4785   23.8376 C   0  0  1  0  0  0
  -27.2157  -27.4205   20.1549 C   0  0  0  0  0  0
  -25.5970  -33.8567   24.2320 N   0  0  0  0  0  0
  -23.4009  -30.4915   21.5502 C   0  0  2  0  0  0
  -24.8501  -28.9627   20.1005 C   0  0  0  0  0  0
  -22.7392  -29.4665   22.5020 C   0  0  0  0  0  0
  -18.0238  -28.1401   22.8477 C   0  0  0  0  0  0
  -24.1504  -36.7284   23.2642 C   0  0  0  0  0  0
  -25.9250  -30.8425   21.3511 C   0  0  0  0  0  0
  -26.0079  -29.4757   20.7015 C   0  0  0  0  0  0
  -27.1981  -28.7132   20.7226 C   0  0  0  0  0  0
  -26.0548  -26.9341   19.5134 C   0  0  0  0  0  0
  -24.8732  -27.6992   19.4868 C   0  0  0  0  0  0
  -23.6040  -29.8190   20.1615 C   0  0  0  0  0  0
  -25.4120  -36.3064   24.0344 C   0  0  1  0  0  0
  -20.5831  -28.3683   23.1331 C   0  0  2  0  0  0
  -20.6734  -26.9432   22.5406 C   0  0  0  0  0  0
  -19.5704  -26.6405   21.5213 C   0  0  0  0  0  0
  -18.1874  -26.7933   22.1618 C   0  0  0  0  0  0
  -19.1490  -28.8858   23.2890 C   0  0  0  0  0  0
  -18.9427  -30.1461   23.8905 C   0  0  0  0  0  0
  -17.6434  -30.6607   24.0559 C   0  0  0  0  0  0
  -25.9063  -34.9454   23.5127 C   0  0  0  0  0  0
  -16.5329  -29.9119   23.6340 C   0  0  0  0  0  0
  -16.7231  -28.6537   23.0375 C   0  0  0  0  0  0
  -26.4520  -31.6537   25.0683 C   0  0  0  0  0  0
  -25.3783  -31.3577   26.1396 C   0  0  0  0  0  0
  -27.0343  -30.2992   24.6001 C   0  0  0  0  0  0
  -27.6075  -32.4249   25.7463 C   0  0  0  0  0  0
  -27.5583  -37.1794   24.8456 C   0  0  0  0  0  0
  -21.4120  -29.3065   22.3743 N   0  0  0  0  0  0
  -26.4282  -37.3772   23.9428 N   0  0  0  0  0  0
  -24.6654  -31.0810   22.0969 N   0  0  0  0  0  0
  -23.4172  -28.8205   23.3060 O   0  0  0  0  0  0
  -28.3010  -26.5973   20.3470 O   0  0  0  0  0  0
  -26.5600  -34.8905   22.4662 O   0  0  0  0  0  0
  -23.5383  -32.1433   23.7546 O   0  0  0  0  0  0
  -30.7064  -23.1326   22.1191 C   0  0  0  0  0  0
  -30.0582  -23.8898   21.0645 C   0  0  0  0  0  0
  -30.3316  -23.6050   23.3721 C   0  0  0  0  0  0
  -29.1441  -24.6916   21.7185 C   0  0  0  0  0  0
  -31.2561  -22.7846   18.9414 C   0  0  0  0  0  0
  -30.8242  -25.1652   19.0114 C   0  0  0  0  0  0
  -28.9325  -23.5018   18.7579 C   0  0  0  0  0  0
  -31.7066  -22.0022   24.9746 C   0  0  0  0  0  0
  -29.4326  -22.6045   25.5577 C   0  0  0  0  0  0
  -31.3810  -24.2725   25.6815 C   0  0  0  0  0  0
  -28.6433  -25.4245   24.0653 C   0  0  0  0  0  0
  -31.5482  -21.9115   21.8654 C   0  0  0  0  0  0
  -27.9404  -25.4833   21.1956 C   0  0  0  0  0  0
  -32.0260  -16.5516   23.7111 C   0  0  0  0  0  0
  -32.1443  -17.4050   22.4330 C   0  0  0  0  0  0
  -32.8348  -15.2470   23.7088 C   0  0  0  0  0  0
  -31.5251  -18.7850   22.6441 C   0  0  0  0  0  0
  -32.7717  -14.4860   22.3819 C   0  0  0  0  0  0
  -31.1825  -19.5076   21.3331 C   0  0  0  0  0  0
  -30.2489  -23.8229   19.5029 C   0  0  0  0  0  0
  -30.6873  -23.1632   24.8368 C   0  0  0  0  0  0
  -29.3764  -24.6004   23.0991 N   0  0  0  0  0  0
  -31.4026  -14.0973   22.0049 N   0  0  0  0  0  0
  -30.5909  -20.8231   21.6091 N   0  3  0  0  0  0
  -31.4298  -12.2981   19.0348 H   0  0  0  0  0  0
  -30.2496  -11.2072   19.7025 H   0  0  0  0  0  0
  -29.6680  -11.8361   17.3551 H   0  0  0  0  0  0
  -29.6360  -13.5284   17.7885 H   0  0  0  0  0  0
  -27.8128  -11.3183   18.8190 H   0  0  0  0  0  0
  -27.3265  -12.6481   17.8024 H   0  0  0  0  0  0
  -27.7201  -14.2609   19.5805 H   0  0  0  0  0  0
  -28.6296  -12.0128   21.4389 H   0  0  0  0  0  0
  -28.5535  -13.7184   21.8098 H   0  0  0  0  0  0
  -25.2690   -9.5738   22.4783 H   0  0  0  0  0  0
  -23.9925   -7.4701   22.7543 H   0  0  0  0  0  0
  -21.0781   -8.8757   19.8979 H   0  0  0  0  0  0
  -22.3617  -10.9659   19.6157 H   0  0  0  0  0  0
  -21.1995   -7.6126   23.9698 H   0  0  0  0  0  0
  -21.1494   -6.0514   25.9078 H   0  0  0  0  0  0
  -22.0563   -2.7585   23.2865 H   0  0  0  0  0  0
  -22.3935  -11.9934   22.4752 H   0  0  0  0  0  0
  -21.1078  -13.1442   22.2471 H   0  0  0  0  0  0
  -24.6735  -15.8554   20.5132 H   0  0  0  0  0  0
  -26.2991  -15.6267   20.1174 H   0  0  0  0  0  0
  -26.7151  -32.5502   23.1147 H   0  0  0  0  0  0
  -25.0165  -33.9688   25.0494 H   0  0  0  0  0  0
  -22.6921  -31.3107   21.4126 H   0  0  0  0  0  0
  -23.3785  -35.9593   23.3226 H   0  0  0  0  0  0
  -24.3610  -36.8977   22.2072 H   0  0  0  0  0  0
  -23.7209  -37.6451   23.6695 H   0  0  0  0  0  0
  -26.0188  -31.6057   20.5775 H   0  0  0  0  0  0
  -26.8204  -30.9153   21.9560 H   0  0  0  0  0  0
  -28.0772  -29.0805   21.2354 H   0  0  0  0  0  0
  -26.0457  -25.9447   19.0780 H   0  0  0  0  0  0
  -23.9855  -27.3005   19.0162 H   0  0  0  0  0  0
  -23.6871  -30.5889   19.3925 H   0  0  0  0  0  0
  -22.7310  -29.2242   19.8799 H   0  0  0  0  0  0
  -25.1293  -36.1942   25.0841 H   0  0  0  0  0  0
  -20.9908  -28.3291   24.1476 H   0  0  0  0  0  0
  -20.5655  -26.2338   23.3607 H   0  0  0  0  0  0
  -21.6610  -26.7488   22.1220 H   0  0  0  0  0  0
  -19.6880  -25.6327   21.1249 H   0  0  0  0  0  0
  -19.6654  -27.3217   20.6742 H   0  0  0  0  0  0
  -17.4167  -26.6724   21.4009 H   0  0  0  0  0  0
  -18.0233  -26.0059   22.8988 H   0  0  0  0  0  0
  -19.7912  -30.7230   24.2365 H   0  0  0  0  0  0
  -17.5012  -31.6281   24.5153 H   0  0  0  0  0  0
  -15.5346  -30.3043   23.7661 H   0  0  0  0  0  0
  -15.8612  -28.0841   22.7173 H   0  0  0  0  0  0
  -24.5992  -30.6908   25.7672 H   0  0  0  0  0  0
  -24.8919  -32.2697   26.4862 H   0  0  0  0  0  0
  -25.8143  -30.8698   27.0119 H   0  0  0  0  0  0
  -26.2837  -29.6714   24.1163 H   0  0  0  0  0  0
  -27.4262  -29.7257   25.4410 H   0  0  0  0  0  0
  -27.8607  -30.4300   23.9001 H   0  0  0  0  0  0
  -27.2710  -33.3595   26.1938 H   0  0  0  0  0  0
  -28.3952  -32.6705   25.0335 H   0  0  0  0  0  0
  -28.0632  -31.8403   26.5458 H   0  0  0  0  0  0
  -28.2546  -38.0149   24.7605 H   0  0  0  0  0  0
  -28.1147  -36.2687   24.6183 H   0  0  0  0  0  0
  -27.2300  -37.1331   25.8852 H   0  0  0  0  0  0
  -20.9325  -29.8802   21.6931 H   0  0  0  0  0  0
  -26.0175  -38.2844   24.1470 H   0  0  0  0  0  0
  -32.2873  -22.9928   19.2277 H   0  0  0  0  0  0
  -31.2770  -22.8169   17.8506 H   0  0  0  0  0  0
  -31.0024  -21.7550   19.1820 H   0  0  0  0  0  0
  -31.8131  -25.3472   19.4335 H   0  0  0  0  0  0
  -30.2197  -26.0220   19.2713 H   0  0  0  0  0  0
  -30.9361  -25.1779   17.9268 H   0  0  0  0  0  0
  -28.5194  -22.5395   19.0669 H   0  0  0  0  0  0
  -29.1025  -23.4442   17.6807 H   0  0  0  0  0  0
  -28.1676  -24.2593   18.8716 H   0  0  0  0  0  0
  -31.3529  -21.0834   24.5120 H   0  0  0  0  0  0
  -31.8707  -21.7412   26.0208 H   0  0  0  0  0  0
  -32.6976  -22.2559   24.5973 H   0  0  0  0  0  0
  -29.0530  -21.7210   25.0421 H   0  0  0  0  0  0
  -28.5984  -23.2941   25.6298 H   0  0  0  0  0  0
  -29.6640  -22.2963   26.5813 H   0  0  0  0  0  0
  -32.3360  -24.5605   25.2405 H   0  0  0  0  0  0
  -31.6145  -23.9085   26.6849 H   0  0  0  0  0  0
  -30.8223  -25.1849   25.8436 H   0  0  0  0  0  0
  -28.9687  -25.3108   25.0883 H   0  0  0  0  0  0
  -27.5830  -25.1645   24.0609 H   0  0  0  0  0  0
  -28.7592  -26.4765   23.8007 H   0  0  0  0  0  0
  -32.2374  -21.6629   22.6535 H   0  0  0  0  0  0
  -32.2374  -22.0596   21.0509 H   0  0  0  0  0  0
  -27.3261  -25.8623   22.0124 H   0  0  0  0  0  0
  -27.2652  -24.7922   20.6923 H   0  0  0  0  0  0
  -30.9749  -16.3137   23.8691 H   0  0  0  0  0  0
  -32.3359  -17.1469   24.5732 H   0  0  0  0  0  0
  -31.6257  -16.9092   21.6123 H   0  0  0  0  0  0
  -33.1845  -17.5144   22.1208 H   0  0  0  0  0  0
  -32.4830  -14.6107   24.5218 H   0  0  0  0  0  0
  -33.8785  -15.4635   23.9441 H   0  0  0  0  0  0
  -32.2189  -19.3771   23.2427 H   0  0  0  0  0  0
  -30.6074  -18.6819   23.2262 H   0  0  0  0  0  0
  -33.3901  -13.5907   22.4364 H   0  0  0  0  0  0
  -33.2521  -15.1106   21.6235 H   0  0  0  0  0  0
  -30.4385  -18.9294   20.7834 H   0  0  0  0  0  0
  -32.0460  -19.6096   20.6743 H   0  0  0  0  0  0
  -30.9029  -13.4827   22.6305 H   0  0  0  0  0  0
  -30.0334  -21.1022   20.8200 H   0  0  0  0  0  0
  -29.9633  -20.7573   22.3926 H   0  0  0  0  0  0
  1 25  1  0  0  0
  1 30  2  0  0  0
  1 93  1  0  0  0
  2  3  1  0  0  0
  2 25  1  0  0  0
  2 95  1  0  0  0
  2 96  1  0  0  0
  3  4  1  0  0  0
  3 97  1  0  0  0
  3 98  1  0  0  0
  4  5  1  0  0  0
  4 99  1  0  0  0
  4100  1  0  0  0
  5  6  1  0  0  0
  5 26  1  0  0  0
  5101  1  0  0  0
  6 25  1  0  0  0
  6102  1  0  0  0
  6103  1  0  0  0
  7  8  2  0  0  0
  7 26  1  0  0  0
  7 29  1  0  0  0
  8  9  1  0  0  0
  8 22  1  0  0  0
  9 10  1  0  0  0
  9 27  2  0  0  0
 10 11  2  0  0  0
 10 15  1  0  0  0
 11 12  1  0  0  0
 11104  1  0  0  0
 12 13  2  0  0  0
 12105  1  0  0  0
 13 14  1  0  0  0
 13 31  1  0  0  0
 14 15  2  0  0  0
 14106  1  0  0  0
 15107  1  0  0  0
 16 17  2  0  0  0
 16 21  1  0  0  0
 16 31  1  0  0  0
 17 18  1  0  0  0
 17108  1  0  0  0
 18 19  2  0  0  0
 18109  1  0  0  0
 19 20  1  0  0  0
 19 24  1  0  0  0
 20 21  2  0  0  0
 20110  1  0  0  0
 21 23  1  0  0  0
 22 28  1  0  0  0
 22 32  2  0  0  0
 26 27  1  0  0  0
 28111  1  0  0  0
 28112  1  0  0  0
 29113  1  0  0  0
 29114  1  0  0  0
 33 34  1  0  0  0
 33 66  1  0  0  0
 33 70  2  0  0  0
 34 36  1  0  0  0
 34 59  1  0  0  0
 34115  1  0  0  0
 35 44  2  0  0  0
 35 45  1  0  0  0
 35 68  1  0  0  0
 36 56  1  0  0  0
 36116  1  0  0  0
 37 39  1  0  0  0
 37 47  1  0  0  0
 37 66  1  0  0  0
 37117  1  0  0  0
 38 43  2  0  0  0
 38 46  1  0  0  0
 38 47  1  0  0  0
 39 64  1  0  0  0
 39 67  2  0  0  0
 40 52  1  0  0  0
 40 53  2  0  0  0
 40 58  1  0  0  0
 41118  1  0  0  0
 41119  1  0  0  0
 41120  1  0  0  0
 41 48  1  0  0  0
 42 43  1  0  0  0
 42 66  1  0  0  0
 42121  1  0  0  0
 42122  1  0  0  0
 43 44  1  0  0  0
 44123  1  0  0  0
 45 46  2  0  0  0
 45124  1  0  0  0
 46125  1  0  0  0
 47126  1  0  0  0
 47127  1  0  0  0
 48 56  1  0  0  0
 48 65  1  0  0  0
 48128  1  0  0  0
 49 50  1  0  0  0
 49 53  1  0  0  0
 49 64  1  0  0  0
 49129  1  0  0  0
 50 51  1  0  0  0
 50130  1  0  0  0
 50131  1  0  0  0
 51 52  1  0  0  0
 51132  1  0  0  0
 51133  1  0  0  0
 52134  1  0  0  0
 52135  1  0  0  0
 53 54  1  0  0  0
 54 55  2  0  0  0
 54136  1  0  0  0
 55 57  1  0  0  0
 55137  1  0  0  0
 56 69  2  0  0  0
 57 58  2  0  0  0
 57138  1  0  0  0
 58139  1  0  0  0
 59 60  1  0  0  0
 59 61  1  0  0  0
 59 62  1  0  0  0
 60140  1  0  0  0
 60141  1  0  0  0
 60142  1  0  0  0
 61143  1  0  0  0
 61144  1  0  0  0
 61145  1  0  0  0
 62146  1  0  0  0
 62147  1  0  0  0
 62148  1  0  0  0
 63 65  1  0  0  0
 63149  1  0  0  0
 63150  1  0  0  0
 63151  1  0  0  0
 64152  1  0  0  0
 65153  1  0  0  0
 68 83  1  0  0  0
 71 72  1  0  0  0
 71 73  2  0  0  0
 71 82  1  0  0  0
 72 74  2  0  0  0
 72 90  1  0  0  0
 73 91  1  0  0  0
 73 92  1  0  0  0
 74 83  1  0  0  0
 74 92  1  0  0  0
 75154  1  0  0  0
 75155  1  0  0  0
 75156  1  0  0  0
 75 90  1  0  0  0
 76 90  1  0  0  0
 76157  1  0  0  0
 76158  1  0  0  0
 76159  1  0  0  0
 77 90  1  0  0  0
 77160  1  0  0  0
 77161  1  0  0  0
 77162  1  0  0  0
 78163  1  0  0  0
 78164  1  0  0  0
 78165  1  0  0  0
 78 91  1  0  0  0
 79 91  1  0  0  0
 79166  1  0  0  0
 79167  1  0  0  0
 79168  1  0  0  0
 80 91  1  0  0  0
 80169  1  0  0  0
 80170  1  0  0  0
 80171  1  0  0  0
 81 92  1  0  0  0
 81172  1  0  0  0
 81173  1  0  0  0
 81174  1  0  0  0
 82 94  1  0  0  0
 82175  1  0  0  0
 82176  1  0  0  0
 83177  1  0  0  0
 83178  1  0  0  0
 84 85  1  0  0  0
 84 86  1  0  0  0
 84179  1  0  0  0
 84180  1  0  0  0
 85 87  1  0  0  0
 85181  1  0  0  0
 85182  1  0  0  0
 86 88  1  0  0  0
 86183  1  0  0  0
 86184  1  0  0  0
 87 89  1  0  0  0
 87185  1  0  0  0
 87186  1  0  0  0
 88 93  1  0  0  0
 88187  1  0  0  0
 88188  1  0  0  0
 89 94  1  0  0  0
 89189  1  0  0  0
 89190  1  0  0  0
 93191  1  0  0  0
 94192  1  0  0  0
 94193  1  0  0  0
M  CHG  1  94   1
M  ISO  4   1 100  68 101  83 101  93 100
M  END
> <chiral flag>
0

> <version>
0

> <s_m_source_file>
/data/baiqing/PycharmProjects/Reinvent-master-3.2/result/LINK_invent/BTK/process_docking_weight1_custom_sum_contain_oxygen_bond_distance_aromatic_linkinvent_7_9_3/rearranged_h_0023.sdf

> <i_m_source_file_index>
8

> <r_mmod_Potential_Energy-OPLS-2005>
-112.725830078125

> <r_mmod_Stretch_Energy-OPLS-2005>
59.0324630737305

> <r_mmod_Bend_Energy-OPLS-2005>
157.234451293945

> <r_mmod_Torsional_Energy-OPLS-2005>
283.577331542969

> <r_mmod_Improper_Torsional_Energy-OPLS-2005>
17.0073432922363

> <r_mmod_Van_der_Waal_Energy-OPLS-2005>
168.743087768555

> <r_mmod_Electrostatic_Energy-OPLS-2005>
-440.482940673828

> <r_mmod_Solvation_Energy-OPLS-2005>
-394.759704589844

> <b_mmod_Minimization_Converged-OPLS-2005>
0

> <r_mmod_RMS_Derivative-OPLS-2005>
6.40230798721313

$$$$
8
                    3D
 Structure written by MMmdl.
177185  0  0  1  0            999 V2000
  -30.6920  -14.4491   20.5289 C   0  0  0  0  0  0
  -30.4522  -12.2521   19.4380 C   0  0  0  0  0  0
  -29.4912  -12.2830   18.2251 C   0  0  0  0  0  0
  -27.9933  -12.3485   18.6202 C   0  0  0  0  0  0
  -27.6661  -13.1755   19.8984 C   0  0  2  0  0  0
  -28.7222  -12.9298   20.9964 C   0  0  0  0  0  0
  -25.2646  -13.8075   20.5865 C   0  0  0  0  0  0
  -24.1807  -13.0388   20.9228 C   0  0  0  0  0  0
  -24.6286  -11.6838   20.8780 C   0  0  0  0  0  0
  -23.8932  -10.4231   21.0406 C   0  0  0  0  0  0
  -24.3543   -9.4151   21.9153 C   0  0  0  0  0  0
  -23.6249   -8.2182   22.0779 C   0  0  0  0  0  0
  -22.4228   -8.0172   21.3549 C   0  0  0  0  0  0
  -21.9823   -9.0123   20.4646 C   0  0  0  0  0  0
  -22.7103  -10.2051   20.3052 C   0  0  0  0  0  0
  -21.6862   -6.0599   22.5260 C   0  0  0  0  0  0
  -21.4002   -6.5544   23.8157 C   0  0  0  0  0  0
  -21.3733   -5.6754   24.9171 C   0  0  0  0  0  0
  -21.6120   -4.3014   24.7273 C   0  0  0  0  0  0
  -21.8878   -3.8045   23.4408 C   0  0  0  0  0  0
  -21.9223   -4.6823   22.3432 C   0  0  0  0  0  0
  -22.7849  -13.5231   21.1869 C   0  0  0  0  0  0
  -22.1667   -4.1977   21.1028 F   0  0  0  0  0  0
  -21.5705   -3.4531   25.7817 F   0  0  0  0  0  0
  -30.0427  -13.2540   20.4329 N   0  0  0  0  0  0
  -26.3043  -12.9173   20.3611 N   0  0  0  0  0  0
  -25.9247  -11.6363   20.5995 N   0  0  0  0  0  0
  -22.0449  -12.8198   22.0376 N   0  0  0  0  0  0
  -25.4556  -15.1796   20.4394 N   0  0  0  0  0  0
  -31.8529  -14.6229   20.1542 O   0  0  0  0  0  0
  -21.6653   -6.8727   21.4217 O   0  0  0  0  0  0
  -22.3561  -14.5552   20.6743 O   0  0  0  0  0  0
  -24.6041  -31.8666   23.2168 C   0  0  0  0  0  0
  -25.8936  -32.4833   23.8419 C   0  0  1  0  0  0
  -27.2421  -27.4799   20.0571 C   0  0  0  0  0  0
  -25.5847  -33.8642   24.2365 N   0  0  0  0  0  0
  -23.3951  -30.4895   21.5493 C   0  0  2  0  0  0
  -24.8416  -28.9663   20.1150 C   0  0  0  0  0  0
  -22.7361  -29.4613   22.4947 C   0  0  0  0  0  0
  -18.0212  -28.1386   22.8433 C   0  0  0  0  0  0
  -24.1515  -36.7264   23.2653 C   0  0  0  0  0  0
  -25.9221  -30.8436   21.3674 C   0  0  0  0  0  0
  -26.0005  -29.4802   20.7086 C   0  0  0  0  0  0
  -27.1964  -28.7367   20.6936 C   0  0  0  0  0  0
  -26.0504  -26.9547   19.4941 C   0  0  0  0  0  0
  -24.8565  -27.6965   19.5112 C   0  0  0  0  0  0
  -23.6046  -29.8296   20.1618 C   0  0  0  0  0  0
  -25.4144  -36.3159   24.0391 C   0  0  1  0  0  0
  -20.5808  -28.3671   23.1312 C   0  0  2  0  0  0
  -20.6719  -26.9411   22.5425 C   0  0  0  0  0  0
  -19.5712  -26.6388   21.5209 C   0  0  0  0  0  0
  -18.1861  -26.7920   22.1574 C   0  0  0  0  0  0
  -19.1456  -28.8827   23.2861 C   0  0  0  0  0  0
  -18.9388  -30.1416   23.8911 C   0  0  0  0  0  0
  -17.6405  -30.6591   24.0534 C   0  0  0  0  0  0
  -25.9006  -34.9501   23.5173 C   0  0  0  0  0  0
  -16.5286  -29.9091   23.6336 C   0  0  0  0  0  0
  -16.7193  -28.6497   23.0360 C   0  0  0  0  0  0
  -26.4400  -31.6641   25.0723 C   0  0  0  0  0  0
  -25.3745  -31.3633   26.1510 C   0  0  0  0  0  0
  -27.0241  -30.3105   24.6080 C   0  0  0  0  0  0
  -27.5978  -32.4410   25.7416 C   0  0  0  0  0  0
  -27.5628  -37.1836   24.8479 C   0  0  0  0  0  0
  -21.4078  -29.3032   22.3733 N   0  0  0  0  0  0
  -26.4356  -37.3827   23.9424 N   0  0  0  0  0  0
  -24.6574  -31.0798   22.1032 N   0  0  0  0  0  0
  -23.4139  -28.8123   23.2957 O   0  0  0  0  0  0
  -28.4524  -26.8244   20.0070 O   0  0  0  0  0  0
  -26.5556  -34.8954   22.4724 O   0  0  0  0  0  0
  -23.5264  -32.1362   23.7581 O   0  0  0  0  0  0
  -30.1749  -17.9081   21.0047 C   0  0  0  0  0  0
  -30.1761  -19.2052   20.4446 C   0  0  0  0  0  0
  -29.6814  -18.2455   18.2418 C   0  0  0  0  0  0
  -29.9418  -19.3816   19.0552 C   0  0  0  0  0  0
  -29.6433  -16.9539   18.8232 C   0  0  0  0  0  0
  -29.9289  -16.7688   20.2083 C   0  0  0  0  0  0
  -30.4157  -20.3948   21.3639 C   0  0  0  0  0  0
  -29.4484  -18.3766   16.7312 C   0  0  0  0  0  0
  -29.2549  -15.7948   17.9197 C   0  0  0  0  0  0
  -29.9491  -20.7780   18.4287 C   0  0  0  0  0  0
  -28.5342  -21.3776   18.2673 C   0  0  0  0  0  0
  -28.3897  -22.1783   16.9637 C   0  0  0  0  0  0
  -27.0917  -22.9954   16.9021 C   0  0  0  0  0  0
  -27.0395  -23.9241   15.6748 C   0  0  0  0  0  0
  -27.2860  -25.4186   15.9776 C   0  0  0  0  0  0
  -28.7417  -25.8240   16.3185 C   0  0  0  0  0  0
  -28.8318  -26.7237   17.5684 C   0  0  0  0  0  0
  -28.6896  -25.9541   18.9012 C   0  0  0  0  0  0
  -29.8902  -15.4888   20.8448 N   0  0  0  0  0  0
  -31.4735  -12.4080   19.0844 H   0  0  0  0  0  0
  -30.4520  -11.2684   19.9094 H   0  0  0  0  0  0
  -29.6463  -11.3649   17.6572 H   0  0  0  0  0  0
  -29.7674  -13.0599   17.5204 H   0  0  0  0  0  0
  -27.6621  -11.3225   18.7775 H   0  0  0  0  0  0
  -27.3942  -12.7134   17.7836 H   0  0  0  0  0  0
  -27.7035  -14.2274   19.6423 H   0  0  0  0  0  0
  -28.6969  -11.8815   21.3067 H   0  0  0  0  0  0
  -28.5142  -13.4992   21.9017 H   0  0  0  0  0  0
  -25.2737   -9.5628   22.4643 H   0  0  0  0  0  0
  -23.9994   -7.4571   22.7466 H   0  0  0  0  0  0
  -21.0799   -8.8520   19.8895 H   0  0  0  0  0  0
  -22.3491  -10.9540   19.6134 H   0  0  0  0  0  0
  -21.1885   -7.6043   23.9539 H   0  0  0  0  0  0
  -21.1605   -6.0555   25.9059 H   0  0  0  0  0  0
  -22.0625   -2.7484   23.3011 H   0  0  0  0  0  0
  -22.3827  -11.9624   22.4507 H   0  0  0  0  0  0
  -21.1262  -13.1564   22.2865 H   0  0  0  0  0  0
  -24.7414  -15.8745   20.6305 H   0  0  0  0  0  0
  -26.3374  -15.5809   20.1466 H   0  0  0  0  0  0
  -26.6981  -32.5473   23.1176 H   0  0  0  0  0  0
  -25.0237  -33.9848   25.0662 H   0  0  0  0  0  0
  -22.6809  -31.3051   21.4169 H   0  0  0  0  0  0
  -23.3893  -35.9481   23.3313 H   0  0  0  0  0  0
  -24.3620  -36.8818   22.2065 H   0  0  0  0  0  0
  -23.7173  -37.6449   23.6588 H   0  0  0  0  0  0
  -26.0440  -31.6321   20.6229 H   0  0  0  0  0  0
  -26.8048  -30.8815   21.9932 H   0  0  0  0  0  0
  -28.0960  -29.1355   21.1461 H   0  0  0  0  0  0
  -26.0118  -25.9794   19.0305 H   0  0  0  0  0  0
  -23.9607  -27.2924   19.0581 H   0  0  0  0  0  0
  -23.7137  -30.6027   19.3993 H   0  0  0  0  0  0
  -22.7271  -29.2535   19.8610 H   0  0  0  0  0  0
  -25.1365  -36.2049   25.0907 H   0  0  0  0  0  0
  -20.9906  -28.3262   24.1422 H   0  0  0  0  0  0
  -20.5604  -26.2283   23.3611 H   0  0  0  0  0  0
  -21.6587  -26.7445   22.1211 H   0  0  0  0  0  0
  -19.6907  -25.6328   21.1150 H   0  0  0  0  0  0
  -19.6675  -27.3274   20.6805 H   0  0  0  0  0  0
  -17.4166  -26.6639   21.3953 H   0  0  0  0  0  0
  -18.0235  -26.0086   22.8977 H   0  0  0  0  0  0
  -19.7853  -30.7180   24.2357 H   0  0  0  0  0  0
  -17.4947  -31.6289   24.5114 H   0  0  0  0  0  0
  -15.5277  -30.3005   23.7697 H   0  0  0  0  0  0
  -15.8540  -28.0832   22.7171 H   0  0  0  0  0  0
  -24.5948  -30.6951   25.7830 H   0  0  0  0  0  0
  -24.8888  -32.2724   26.5070 H   0  0  0  0  0  0
  -25.8192  -30.8720   27.0183 H   0  0  0  0  0  0
  -26.2740  -29.6862   24.1215 H   0  0  0  0  0  0
  -27.4129  -29.7358   25.4502 H   0  0  0  0  0  0
  -27.8510  -30.4461   23.9120 H   0  0  0  0  0  0
  -27.2600  -33.3733   26.1972 H   0  0  0  0  0  0
  -28.3722  -32.6986   25.0172 H   0  0  0  0  0  0
  -28.0733  -31.8586   26.5329 H   0  0  0  0  0  0
  -28.2679  -38.0125   24.7625 H   0  0  0  0  0  0
  -28.1138  -36.2684   24.6256 H   0  0  0  0  0  0
  -27.2303  -37.1405   25.8868 H   0  0  0  0  0  0
  -20.9237  -29.8786   21.6987 H   0  0  0  0  0  0
  -26.0263  -38.2877   24.1558 H   0  0  0  0  0  0
  -30.3494  -17.7859   22.0648 H   0  0  0  0  0  0
  -30.4850  -20.0867   22.4068 H   0  0  0  0  0  0
  -29.5859  -21.0954   21.2851 H   0  0  0  0  0  0
  -31.3406  -20.9205   21.1127 H   0  0  0  0  0  0
  -29.1502  -19.3682   16.4057 H   0  0  0  0  0  0
  -28.6646  -17.7133   16.3675 H   0  0  0  0  0  0
  -30.3711  -18.1207   16.2076 H   0  0  0  0  0  0
  -29.3067  -14.8573   18.4260 H   0  0  0  0  0  0
  -29.9055  -15.7127   17.0472 H   0  0  0  0  0  0
  -28.2213  -15.9011   17.5910 H   0  0  0  0  0  0
  -30.4582  -20.7282   17.4658 H   0  0  0  0  0  0
  -30.5721  -21.4705   18.9935 H   0  0  0  0  0  0
  -28.3073  -21.9975   19.1354 H   0  0  0  0  0  0
  -27.7689  -20.5987   18.2674 H   0  0  0  0  0  0
  -28.4227  -21.5039   16.1023 H   0  0  0  0  0  0
  -29.2554  -22.8263   16.8467 H   0  0  0  0  0  0
  -26.9326  -23.5607   17.8208 H   0  0  0  0  0  0
  -26.2482  -22.3039   16.8672 H   0  0  0  0  0  0
  -26.0350  -23.8470   15.2545 H   0  0  0  0  0  0
  -27.7045  -23.5694   14.8840 H   0  0  0  0  0  0
  -26.6098  -25.7294   16.7753 H   0  0  0  0  0  0
  -26.9667  -25.9942   15.1086 H   0  0  0  0  0  0
  -29.1584  -26.3798   15.4734 H   0  0  0  0  0  0
  -29.3938  -24.9582   16.4201 H   0  0  0  0  0  0
  -28.0665  -27.4940   17.4971 H   0  0  0  0  0  0
  -29.7785  -27.2648   17.5717 H   0  0  0  0  0  0
  -29.6227  -25.4297   19.0897 H   0  0  0  0  0  0
  -27.9344  -25.1746   18.8635 H   0  0  0  0  0  0
  -29.0065  -15.2381   21.2584 H   0  0  0  0  0  0
  1 25  1  0  0  0
  1 30  2  0  0  0
  1 89  1  0  0  0
  2  3  1  0  0  0
  2 25  1  0  0  0
  2 90  1  0  0  0
  2 91  1  0  0  0
  3  4  1  0  0  0
  3 92  1  0  0  0
  3 93  1  0  0  0
  4  5  1  0  0  0
  4 94  1  0  0  0
  4 95  1  0  0  0
  5  6  1  0  0  0
  5 26  1  0  0  0
  5 96  1  0  0  0
  6 25  1  0  0  0
  6 97  1  0  0  0
  6 98  1  0  0  0
  7  8  2  0  0  0
  7 26  1  0  0  0
  7 29  1  0  0  0
  8  9  1  0  0  0
  8 22  1  0  0  0
  9 10  1  0  0  0
  9 27  2  0  0  0
 10 11  2  0  0  0
 10 15  1  0  0  0
 11 12  1  0  0  0
 11 99  1  0  0  0
 12 13  2  0  0  0
 12100  1  0  0  0
 13 14  1  0  0  0
 13 31  1  0  0  0
 14 15  2  0  0  0
 14101  1  0  0  0
 15102  1  0  0  0
 16 17  2  0  0  0
 16 21  1  0  0  0
 16 31  1  0  0  0
 17 18  1  0  0  0
 17103  1  0  0  0
 18 19  2  0  0  0
 18104  1  0  0  0
 19 20  1  0  0  0
 19 24  1  0  0  0
 20 21  2  0  0  0
 20105  1  0  0  0
 21 23  1  0  0  0
 22 28  1  0  0  0
 22 32  2  0  0  0
 26 27  1  0  0  0
 28106  1  0  0  0
 28107  1  0  0  0
 29108  1  0  0  0
 29109  1  0  0  0
 33 34  1  0  0  0
 33 66  1  0  0  0
 33 70  2  0  0  0
 34 36  1  0  0  0
 34 59  1  0  0  0
 34110  1  0  0  0
 35 44  2  0  0  0
 35 45  1  0  0  0
 35 68  1  0  0  0
 36 56  1  0  0  0
 36111  1  0  0  0
 37 39  1  0  0  0
 37 47  1  0  0  0
 37 66  1  0  0  0
 37112  1  0  0  0
 38 43  2  0  0  0
 38 46  1  0  0  0
 38 47  1  0  0  0
 39 64  1  0  0  0
 39 67  2  0  0  0
 40 52  1  0  0  0
 40 53  2  0  0  0
 40 58  1  0  0  0
 41113  1  0  0  0
 41114  1  0  0  0
 41115  1  0  0  0
 41 48  1  0  0  0
 42 43  1  0  0  0
 42 66  1  0  0  0
 42116  1  0  0  0
 42117  1  0  0  0
 43 44  1  0  0  0
 44118  1  0  0  0
 45 46  2  0  0  0
 45119  1  0  0  0
 46120  1  0  0  0
 47121  1  0  0  0
 47122  1  0  0  0
 48 56  1  0  0  0
 48 65  1  0  0  0
 48123  1  0  0  0
 49 50  1  0  0  0
 49 53  1  0  0  0
 49 64  1  0  0  0
 49124  1  0  0  0
 50 51  1  0  0  0
 50125  1  0  0  0
 50126  1  0  0  0
 51 52  1  0  0  0
 51127  1  0  0  0
 51128  1  0  0  0
 52129  1  0  0  0
 52130  1  0  0  0
 53 54  1  0  0  0
 54 55  2  0  0  0
 54131  1  0  0  0
 55 57  1  0  0  0
 55132  1  0  0  0
 56 69  2  0  0  0
 57 58  2  0  0  0
 57133  1  0  0  0
 58134  1  0  0  0
 59 60  1  0  0  0
 59 61  1  0  0  0
 59 62  1  0  0  0
 60135  1  0  0  0
 60136  1  0  0  0
 60137  1  0  0  0
 61138  1  0  0  0
 61139  1  0  0  0
 61140  1  0  0  0
 62141  1  0  0  0
 62142  1  0  0  0
 62143  1  0  0  0
 63 65  1  0  0  0
 63144  1  0  0  0
 63145  1  0  0  0
 63146  1  0  0  0
 64147  1  0  0  0
 65148  1  0  0  0
 68 88  1  0  0  0
 71 72  2  0  0  0
 71 76  1  0  0  0
 71149  1  0  0  0
 72 74  1  0  0  0
 72 77  1  0  0  0
 73 74  2  0  0  0
 73 75  1  0  0  0
 73 78  1  0  0  0
 74 80  1  0  0  0
 75 76  2  0  0  0
 75 79  1  0  0  0
 76 89  1  0  0  0
 77150  1  0  0  0
 77151  1  0  0  0
 77152  1  0  0  0
 78153  1  0  0  0
 78154  1  0  0  0
 78155  1  0  0  0
 79156  1  0  0  0
 79157  1  0  0  0
 79158  1  0  0  0
 80 81  1  0  0  0
 80159  1  0  0  0
 80160  1  0  0  0
 81 82  1  0  0  0
 81161  1  0  0  0
 81162  1  0  0  0
 82 83  1  0  0  0
 82163  1  0  0  0
 82164  1  0  0  0
 83 84  1  0  0  0
 83165  1  0  0  0
 83166  1  0  0  0
 84 85  1  0  0  0
 84167  1  0  0  0
 84168  1  0  0  0
 85 86  1  0  0  0
 85169  1  0  0  0
 85170  1  0  0  0
 86 87  1  0  0  0
 86171  1  0  0  0
 86172  1  0  0  0
 87 88  1  0  0  0
 87173  1  0  0  0
 87174  1  0  0  0
 88175  1  0  0  0
 88176  1  0  0  0
 89177  1  0  0  0
M  ISO  4   1 100  68 101  88 101  89 100
M  END
> <chiral flag>
0

> <version>
0

> <s_m_source_file>
/data/baiqing/PycharmProjects/Reinvent-master-3.2/result/LINK_invent/BTK/process_docking_weight1_custom_sum_contain_oxygen_bond_distance_aromatic_linkinvent_7_9_3/rearranged_h_0023.sdf

> <i_m_source_file_index>
9

> <r_mmod_Potential_Energy-OPLS-2005>
45.8459243774414

> <r_mmod_Stretch_Energy-OPLS-2005>
40.4680976867676

> <r_mmod_Bend_Energy-OPLS-2005>
105.218193054199

> <r_mmod_Torsional_Energy-OPLS-2005>
289.183288574219

> <r_mmod_Improper_Torsional_Energy-OPLS-2005>
6.60716533660889

> <r_mmod_Van_der_Waal_Energy-OPLS-2005>
176.091720581055

> <r_mmod_Electrostatic_Energy-OPLS-2005>
-393.558990478516

> <r_mmod_Solvation_Energy-OPLS-2005>
-198.623519897461

> <b_mmod_Minimization_Converged-OPLS-2005>
0

> <r_mmod_RMS_Derivative-OPLS-2005>
7.29837846755981

$$$$
9
                    3D
 Structure written by MMmdl.
171179  0  0  1  0            999 V2000
  -30.8773  -14.2220   20.7372 C   0  0  0  0  0  0
  -30.3879  -12.2519   19.3657 C   0  0  0  0  0  0
  -29.4690  -12.5514   18.1743 C   0  0  0  0  0  0
  -28.0011  -12.4125   18.6096 C   0  0  0  0  0  0
  -27.6752  -13.2147   19.8973 C   0  0  2  0  0  0
  -28.7169  -12.9601   21.0114 C   0  0  0  0  0  0
  -25.2631  -13.8170   20.5774 C   0  0  0  0  0  0
  -24.1871  -13.0402   20.9233 C   0  0  0  0  0  0
  -24.6442  -11.6897   20.8713 C   0  0  0  0  0  0
  -23.9094  -10.4280   21.0382 C   0  0  0  0  0  0
  -24.3629   -9.4208   21.9181 C   0  0  0  0  0  0
  -23.6302   -8.2235   22.0740 C   0  0  0  0  0  0
  -22.4290   -8.0276   21.3515 C   0  0  0  0  0  0
  -21.9922   -9.0255   20.4623 C   0  0  0  0  0  0
  -22.7252  -10.2137   20.3048 C   0  0  0  0  0  0
  -21.6849   -6.0756   22.5275 C   0  0  0  0  0  0
  -21.4022   -6.5652   23.8211 C   0  0  0  0  0  0
  -21.3667   -5.6785   24.9155 C   0  0  0  0  0  0
  -21.6033   -4.3046   24.7190 C   0  0  0  0  0  0
  -21.8817   -3.8161   23.4303 C   0  0  0  0  0  0
  -21.9203   -4.6992   22.3375 C   0  0  0  0  0  0
  -22.7902  -13.5195   21.1873 C   0  0  0  0  0  0
  -22.1684   -4.2189   21.0947 F   0  0  0  0  0  0
  -21.5618   -3.4518   25.7697 F   0  0  0  0  0  0
  -30.0681  -13.1750   20.4618 N   0  0  0  0  0  0
  -26.3109  -12.9368   20.3524 N   0  0  0  0  0  0
  -25.9376  -11.6501   20.5785 N   0  0  0  0  0  0
  -22.0532  -12.8137   22.0400 N   0  0  0  0  0  0
  -25.4245  -15.1872   20.4262 N   0  0  0  0  0  0
  -31.7466  -14.6329   19.9640 O   0  0  0  0  0  0
  -21.6630   -6.8896   21.4235 O   0  0  0  0  0  0
  -22.3585  -14.5518   20.6783 O   0  0  0  0  0  0
  -24.6078  -31.8726   23.2165 C   0  0  0  0  0  0
  -25.8952  -32.4880   23.8447 C   0  0  1  0  0  0
  -27.2396  -27.4689   20.0789 C   0  0  0  0  0  0
  -25.5773  -33.8665   24.2399 N   0  0  0  0  0  0
  -23.4015  -30.4915   21.5605 C   0  0  2  0  0  0
  -24.8485  -28.9564   20.1234 C   0  0  0  0  0  0
  -22.7409  -29.4660   22.5076 C   0  0  0  0  0  0
  -18.0280  -28.1399   22.8530 C   0  0  0  0  0  0
  -24.1468  -36.7307   23.2659 C   0  0  0  0  0  0
  -25.9245  -30.8399   21.3707 C   0  0  0  0  0  0
  -26.0028  -29.4730   20.7260 C   0  0  0  0  0  0
  -27.2000  -28.7277   20.7181 C   0  0  0  0  0  0
  -26.0902  -26.9898   19.4243 C   0  0  0  0  0  0
  -24.8821  -27.7089   19.4754 C   0  0  0  0  0  0
  -23.6067  -29.8142   20.1789 C   0  0  0  0  0  0
  -25.4087  -36.3152   24.0382 C   0  0  1  0  0  0
  -20.5886  -28.3629   23.1359 C   0  0  2  0  0  0
  -20.6734  -26.9367   22.5432 C   0  0  0  0  0  0
  -19.5703  -26.6402   21.5221 C   0  0  0  0  0  0
  -18.1896  -26.7954   22.1665 C   0  0  0  0  0  0
  -19.1533  -28.8823   23.2964 C   0  0  0  0  0  0
  -18.9447  -30.1446   23.8953 C   0  0  0  0  0  0
  -17.6441  -30.6594   24.0563 C   0  0  0  0  0  0
  -25.8982  -34.9508   23.5217 C   0  0  0  0  0  0
  -16.5346  -29.9090   23.6308 C   0  0  0  0  0  0
  -16.7271  -28.6519   23.0325 C   0  0  0  0  0  0
  -26.4380  -31.6604   25.0737 C   0  0  0  0  0  0
  -25.3634  -31.3546   26.1447 C   0  0  0  0  0  0
  -27.0206  -30.3098   24.6001 C   0  0  0  0  0  0
  -27.6040  -32.4220   25.7426 C   0  0  0  0  0  0
  -27.5580  -37.1803   24.8479 C   0  0  0  0  0  0
  -21.4146  -29.3031   22.3794 N   0  0  0  0  0  0
  -26.4300  -37.3807   23.9435 N   0  0  0  0  0  0
  -24.6639  -31.0805   22.1080 N   0  0  0  0  0  0
  -23.4183  -28.8197   23.3108 O   0  0  0  0  0  0
  -28.3699  -26.6886   20.0917 O   0  0  0  0  0  0
  -26.5612  -34.8935   22.4812 O   0  0  0  0  0  0
  -23.5272  -32.1456   23.7556 O   0  0  0  0  0  0
  -29.5368  -19.4104   19.2791 C   0  0  0  0  0  0
  -30.0988  -20.6954   19.3866 C   0  0  0  0  0  0
  -31.0639  -20.9612   20.3967 C   0  0  0  0  0  0
  -30.7046  -18.6893   21.2921 C   0  0  0  0  0  0
  -29.7945  -18.4273   20.2408 C   0  0  0  0  0  0
  -31.3881  -19.9331   21.3227 C   0  0  0  0  0  0
  -31.7139  -22.3394   20.5540 C   0  0  0  0  0  0
  -30.9065  -17.6595   22.4018 C   0  0  0  0  0  0
  -29.4705  -21.7807   18.5275 C   0  0  0  0  0  0
  -32.1387  -16.7683   22.1807 C   0  0  0  0  0  0
  -27.3723  -24.0537   20.6711 C   0  0  0  0  0  0
  -28.4187  -24.7020   21.6011 C   0  0  0  0  0  0
  -31.9600  -15.3172   22.6733 C   0  0  0  0  0  0
  -27.9418  -23.6543   19.2879 C   0  0  0  0  0  0
  -28.7157  -26.2085   21.3946 C   0  0  0  0  0  0
  -30.8671  -14.5980   22.0200 N   0  0  0  0  0  0
  -28.2857  -22.2212   19.2881 N   0  3  0  0  0  0
  -28.9019  -16.9501   20.1233 Cl  0  0  0  0  0  0
  -32.5869  -20.2222   22.5423 Cl  0  0  0  0  0  0
  -31.4363  -12.3059   19.0637 H   0  0  0  0  0  0
  -30.2244  -11.2274   19.7033 H   0  0  0  0  0  0
  -29.6872  -11.8663   17.3536 H   0  0  0  0  0  0
  -29.6582  -13.5563   17.7901 H   0  0  0  0  0  0
  -27.8012  -11.3547   18.7795 H   0  0  0  0  0  0
  -27.3391  -12.7242   17.8022 H   0  0  0  0  0  0
  -27.7318  -14.2720   19.6413 H   0  0  0  0  0  0
  -28.6340  -11.9377   21.3823 H   0  0  0  0  0  0
  -28.5038  -13.6079   21.8632 H   0  0  0  0  0  0
  -25.2766   -9.5686   22.4756 H   0  0  0  0  0  0
  -24.0019   -7.4609   22.7443 H   0  0  0  0  0  0
  -21.0864   -8.8763   19.8910 H   0  0  0  0  0  0
  -22.3699  -10.9685   19.6167 H   0  0  0  0  0  0
  -21.2026   -7.6160   23.9721 H   0  0  0  0  0  0
  -21.1499   -6.0511   25.9056 H   0  0  0  0  0  0
  -22.0596   -2.7639   23.2765 H   0  0  0  0  0  0
  -22.4137  -11.9788   22.4773 H   0  0  0  0  0  0
  -21.1157  -13.1157   22.2604 H   0  0  0  0  0  0
  -24.6461  -15.8272   20.5369 H   0  0  0  0  0  0
  -26.2834  -15.6469   20.1494 H   0  0  0  0  0  0
  -26.7013  -32.5619   23.1208 H   0  0  0  0  0  0
  -24.9722  -33.9793   25.0407 H   0  0  0  0  0  0
  -22.6949  -31.3117   21.4247 H   0  0  0  0  0  0
  -23.3758  -35.9598   23.3337 H   0  0  0  0  0  0
  -24.3573  -36.8881   22.2061 H   0  0  0  0  0  0
  -23.7164  -37.6503   23.6641 H   0  0  0  0  0  0
  -26.0268  -31.6020   20.5971 H   0  0  0  0  0  0
  -26.8138  -30.9053   21.9843 H   0  0  0  0  0  0
  -28.0876  -29.1161   21.1977 H   0  0  0  0  0  0
  -26.1270  -26.0553   18.8852 H   0  0  0  0  0  0
  -23.9999  -27.3111   18.9920 H   0  0  0  0  0  0
  -23.7034  -30.5849   19.4137 H   0  0  0  0  0  0
  -22.7361  -29.2186   19.8949 H   0  0  0  0  0  0
  -25.1279  -36.2038   25.0874 H   0  0  0  0  0  0
  -21.0005  -28.3141   24.1456 H   0  0  0  0  0  0
  -20.5538  -26.2245   23.3621 H   0  0  0  0  0  0
  -21.6589  -26.7325   22.1257 H   0  0  0  0  0  0
  -19.6816  -25.6305   21.1230 H   0  0  0  0  0  0
  -19.6625  -27.3204   20.6751 H   0  0  0  0  0  0
  -17.4135  -26.6696   21.4101 H   0  0  0  0  0  0
  -18.0306  -26.0114   22.9086 H   0  0  0  0  0  0
  -19.7903  -30.7290   24.2333 H   0  0  0  0  0  0
  -17.4963  -31.6260   24.5170 H   0  0  0  0  0  0
  -15.5317  -30.2972   23.7624 H   0  0  0  0  0  0
  -15.8705  -28.0855   22.6978 H   0  0  0  0  0  0
  -24.5922  -30.6833   25.7651 H   0  0  0  0  0  0
  -24.8664  -32.2591   26.4934 H   0  0  0  0  0  0
  -25.7942  -30.8641   27.0186 H   0  0  0  0  0  0
  -26.2712  -29.6890   24.1086 H   0  0  0  0  0  0
  -27.4088  -29.7273   25.4365 H   0  0  0  0  0  0
  -27.8494  -30.4527   23.9070 H   0  0  0  0  0  0
  -27.2838  -33.3572   26.1997 H   0  0  0  0  0  0
  -28.3770  -32.6632   25.0129 H   0  0  0  0  0  0
  -28.0774  -31.8314   26.5274 H   0  0  0  0  0  0
  -28.2604  -38.0097   24.7559 H   0  0  0  0  0  0
  -28.1077  -36.2638   24.6282 H   0  0  0  0  0  0
  -27.2323  -37.1386   25.8886 H   0  0  0  0  0  0
  -20.9289  -29.8733   21.7022 H   0  0  0  0  0  0
  -26.0237  -38.2913   24.1379 H   0  0  0  0  0  0
  -28.8173  -19.1954   18.5023 H   0  0  0  0  0  0
  -31.1593  -23.1444   20.0793 H   0  0  0  0  0  0
  -32.7238  -22.3523   20.1395 H   0  0  0  0  0  0
  -31.7844  -22.6094   21.6090 H   0  0  0  0  0  0
  -30.0127  -17.0464   22.4882 H   0  0  0  0  0  0
  -30.9678  -18.1564   23.3707 H   0  0  0  0  0  0
  -29.1623  -21.3712   17.5644 H   0  0  0  0  0  0
  -30.1673  -22.5826   18.2963 H   0  0  0  0  0  0
  -33.0002  -17.2217   22.6682 H   0  0  0  0  0  0
  -32.4005  -16.7609   21.1231 H   0  0  0  0  0  0
  -26.5043  -24.7012   20.5786 H   0  0  0  0  0  0
  -26.9598  -23.1721   21.1654 H   0  0  0  0  0  0
  -29.3488  -24.1346   21.5590 H   0  0  0  0  0  0
  -28.0696  -24.5805   22.6262 H   0  0  0  0  0  0
  -31.7829  -15.3026   23.7476 H   0  0  0  0  0  0
  -32.8803  -14.7523   22.5125 H   0  0  0  0  0  0
  -28.8008  -24.2722   19.0253 H   0  0  0  0  0  0
  -27.1954  -23.8223   18.5105 H   0  0  0  0  0  0
  -29.7812  -26.3839   21.5512 H   0  0  0  0  0  0
  -28.2202  -26.7822   22.1816 H   0  0  0  0  0  0
  -30.1902  -14.1550   22.6237 H   0  0  0  0  0  0
  -28.4818  -21.9602   20.2395 H   0  0  0  0  0  0
  -27.4764  -21.6950   19.0032 H   0  0  0  0  0  0
  1 25  1  0  0  0
  1 30  2  0  0  0
  1 86  1  0  0  0
  2  3  1  0  0  0
  2 25  1  0  0  0
  2 90  1  0  0  0
  2 91  1  0  0  0
  3  4  1  0  0  0
  3 92  1  0  0  0
  3 93  1  0  0  0
  4  5  1  0  0  0
  4 94  1  0  0  0
  4 95  1  0  0  0
  5  6  1  0  0  0
  5 26  1  0  0  0
  5 96  1  0  0  0
  6 25  1  0  0  0
  6 97  1  0  0  0
  6 98  1  0  0  0
  7  8  2  0  0  0
  7 26  1  0  0  0
  7 29  1  0  0  0
  8  9  1  0  0  0
  8 22  1  0  0  0
  9 10  1  0  0  0
  9 27  2  0  0  0
 10 11  2  0  0  0
 10 15  1  0  0  0
 11 12  1  0  0  0
 11 99  1  0  0  0
 12 13  2  0  0  0
 12100  1  0  0  0
 13 14  1  0  0  0
 13 31  1  0  0  0
 14 15  2  0  0  0
 14101  1  0  0  0
 15102  1  0  0  0
 16 17  2  0  0  0
 16 21  1  0  0  0
 16 31  1  0  0  0
 17 18  1  0  0  0
 17103  1  0  0  0
 18 19  2  0  0  0
 18104  1  0  0  0
 19 20  1  0  0  0
 19 24  1  0  0  0
 20 21  2  0  0  0
 20105  1  0  0  0
 21 23  1  0  0  0
 22 28  1  0  0  0
 22 32  2  0  0  0
 26 27  1  0  0  0
 28106  1  0  0  0
 28107  1  0  0  0
 29108  1  0  0  0
 29109  1  0  0  0
 33 34  1  0  0  0
 33 66  1  0  0  0
 33 70  2  0  0  0
 34 36  1  0  0  0
 34 59  1  0  0  0
 34110  1  0  0  0
 35 44  2  0  0  0
 35 45  1  0  0  0
 35 68  1  0  0  0
 36 56  1  0  0  0
 36111  1  0  0  0
 37 39  1  0  0  0
 37 47  1  0  0  0
 37 66  1  0  0  0
 37112  1  0  0  0
 38 43  2  0  0  0
 38 46  1  0  0  0
 38 47  1  0  0  0
 39 64  1  0  0  0
 39 67  2  0  0  0
 40 52  1  0  0  0
 40 53  2  0  0  0
 40 58  1  0  0  0
 41113  1  0  0  0
 41114  1  0  0  0
 41115  1  0  0  0
 41 48  1  0  0  0
 42 43  1  0  0  0
 42 66  1  0  0  0
 42116  1  0  0  0
 42117  1  0  0  0
 43 44  1  0  0  0
 44118  1  0  0  0
 45 46  2  0  0  0
 45119  1  0  0  0
 46120  1  0  0  0
 47121  1  0  0  0
 47122  1  0  0  0
 48 56  1  0  0  0
 48 65  1  0  0  0
 48123  1  0  0  0
 49 50  1  0  0  0
 49 53  1  0  0  0
 49 64  1  0  0  0
 49124  1  0  0  0
 50 51  1  0  0  0
 50125  1  0  0  0
 50126  1  0  0  0
 51 52  1  0  0  0
 51127  1  0  0  0
 51128  1  0  0  0
 52129  1  0  0  0
 52130  1  0  0  0
 53 54  1  0  0  0
 54 55  2  0  0  0
 54131  1  0  0  0
 55 57  1  0  0  0
 55132  1  0  0  0
 56 69  2  0  0  0
 57 58  2  0  0  0
 57133  1  0  0  0
 58134  1  0  0  0
 59 60  1  0  0  0
 59 61  1  0  0  0
 59 62  1  0  0  0
 60135  1  0  0  0
 60136  1  0  0  0
 60137  1  0  0  0
 61138  1  0  0  0
 61139  1  0  0  0
 61140  1  0  0  0
 62141  1  0  0  0
 62142  1  0  0  0
 62143  1  0  0  0
 63 65  1  0  0  0
 63144  1  0  0  0
 63145  1  0  0  0
 63146  1  0  0  0
 64147  1  0  0  0
 65148  1  0  0  0
 68 85  1  0  0  0
 71 72  2  0  0  0
 71 75  1  0  0  0
 71149  1  0  0  0
 72 73  1  0  0  0
 72 79  1  0  0  0
 73 76  2  0  0  0
 73 77  1  0  0  0
 74 75  2  0  0  0
 74 76  1  0  0  0
 74 78  1  0  0  0
 75 88  1  0  0  0
 76 89  1  0  0  0
 77150  1  0  0  0
 77151  1  0  0  0
 77152  1  0  0  0
 78 80  1  0  0  0
 78153  1  0  0  0
 78154  1  0  0  0
 79 87  1  0  0  0
 79155  1  0  0  0
 79156  1  0  0  0
 80 83  1  0  0  0
 80157  1  0  0  0
 80158  1  0  0  0
 81 82  1  0  0  0
 81 84  1  0  0  0
 81159  1  0  0  0
 81160  1  0  0  0
 82 85  1  0  0  0
 82161  1  0  0  0
 82162  1  0  0  0
 83 86  1  0  0  0
 83163  1  0  0  0
 83164  1  0  0  0
 84 87  1  0  0  0
 84165  1  0  0  0
 84166  1  0  0  0
 85167  1  0  0  0
 85168  1  0  0  0
 86169  1  0  0  0
 87170  1  0  0  0
 87171  1  0  0  0
M  CHG  1  87   1
M  ISO  4   1 100  68 101  85 101  86 100
M  END
> <chiral flag>
0

> <version>
0

> <s_m_source_file>
/data/baiqing/PycharmProjects/Reinvent-master-3.2/result/LINK_invent/BTK/process_docking_weight1_custom_sum_contain_oxygen_bond_distance_aromatic_linkinvent_7_9_3/rearranged_h_0023.sdf

> <i_m_source_file_index>
10

> <r_mmod_Potential_Energy-OPLS-2005>
-202.09797668457

> <r_mmod_Stretch_Energy-OPLS-2005>
33.6123313903809

> <r_mmod_Bend_Energy-OPLS-2005>
100.750999450684

> <r_mmod_Torsional_Energy-OPLS-2005>
278.804901123047

> <r_mmod_Improper_Torsional_Energy-OPLS-2005>
8.2313175201416

> <r_mmod_Van_der_Waal_Energy-OPLS-2005>
152.291549682617

> <r_mmod_Electrostatic_Energy-OPLS-2005>
-335.593933105469

> <r_mmod_Solvation_Energy-OPLS-2005>
-453.110168457031

> <b_mmod_Minimization_Converged-OPLS-2005>
0

> <r_mmod_RMS_Derivative-OPLS-2005>
5.26761913299561

$$$$
10
                    3D
 Structure written by MMmdl.
202211  0  0  1  0            999 V2000
  -31.5083  -13.7172   20.1658 C   0  0  0  0  0  0
  -29.9022  -13.3588   18.7855 C   0  0  0  0  0  0
  -29.1419  -12.3029   18.1020 C   0  0  0  0  0  0
  -27.7957  -12.2953   18.7599 C   0  0  0  0  0  0
  -27.6843  -13.1515   20.0603 C   0  0  2  0  0  0
  -29.0005  -13.0799   20.9826 C   0  0  0  0  0  0
  -25.2854  -13.8318   20.6828 C   0  0  0  0  0  0
  -24.1852  -13.0449   20.9881 C   0  0  0  0  0  0
  -24.6418  -11.7045   20.9741 C   0  0  0  0  0  0
  -23.9173  -10.4299   21.0792 C   0  0  0  0  0  0
  -24.3678   -9.3991   21.9314 C   0  0  0  0  0  0
  -23.6314   -8.2017   22.0506 C   0  0  0  0  0  0
  -22.4218   -8.0371   21.3432 C   0  0  0  0  0  0
  -22.0004   -9.0471   20.4552 C   0  0  0  0  0  0
  -22.7453  -10.2316   20.3236 C   0  0  0  0  0  0
  -21.6890   -6.0880   22.5320 C   0  0  0  0  0  0
  -21.4110   -6.5793   23.8293 C   0  0  0  0  0  0
  -21.3693   -5.6925   24.9224 C   0  0  0  0  0  0
  -21.5974   -4.3195   24.7228 C   0  0  0  0  0  0
  -21.8711   -3.8314   23.4359 C   0  0  0  0  0  0
  -21.9084   -4.7103   22.3419 C   0  0  0  0  0  0
  -22.7862  -13.5289   21.2257 C   0  0  0  0  0  0
  -22.1561   -4.2378   21.0957 F   0  0  0  0  0  0
  -21.5514   -3.4602   25.7656 F   0  0  0  0  0  0
  -30.2746  -13.1071   20.1369 N   0  0  0  0  0  0
  -26.3514  -12.9361   20.5968 N   0  0  0  0  0  0
  -25.9561  -11.6639   20.8067 N   0  0  0  0  0  0
  -22.0405  -12.8475   22.1021 N   0  0  0  0  0  0
  -25.4472  -15.2023   20.4998 N   0  0  0  0  0  0
  -31.6870  -14.8194   20.6540 O   0  0  0  0  0  0
  -21.6545   -6.8937   21.4205 O   0  0  0  0  0  0
  -22.3584  -14.5292   20.6682 O   0  0  0  0  0  0
  -24.6157  -31.8735   23.2170 C   0  0  0  0  0  0
  -25.9061  -32.4813   23.8375 C   0  0  1  0  0  0
  -27.2016  -27.4458   20.0528 C   0  0  0  0  0  0
  -25.5961  -33.8615   24.2353 N   0  0  0  0  0  0
  -23.3944  -30.5096   21.5629 C   0  0  2  0  0  0
  -24.8260  -28.9815   20.1131 C   0  0  0  0  0  0
  -22.7460  -29.4685   22.4986 C   0  0  0  0  0  0
  -18.0332  -28.1344   22.8557 C   0  0  0  0  0  0
  -24.1486  -36.7262   23.2608 C   0  0  0  0  0  0
  -25.9261  -30.8338   21.3739 C   0  0  0  0  0  0
  -25.9909  -29.4672   20.7208 C   0  0  0  0  0  0
  -27.1798  -28.7026   20.7035 C   0  0  0  0  0  0
  -26.0146  -26.9863   19.4322 C   0  0  0  0  0  0
  -24.8306  -27.7405   19.4690 C   0  0  0  0  0  0
  -23.5945  -29.8539   20.1728 C   0  0  0  0  0  0
  -25.4101  -36.3092   24.0340 C   0  0  1  0  0  0
  -20.5919  -28.3651   23.1380 C   0  0  2  0  0  0
  -20.6780  -26.9358   22.5491 C   0  0  0  0  0  0
  -19.5728  -26.6353   21.5295 C   0  0  0  0  0  0
  -18.1917  -26.7884   22.1700 C   0  0  0  0  0  0
  -19.1570  -28.8821   23.2952 C   0  0  0  0  0  0
  -18.9441  -30.1420   23.8927 C   0  0  0  0  0  0
  -17.6407  -30.6535   24.0562 C   0  0  0  0  0  0
  -25.9058  -34.9468   23.5132 C   0  0  0  0  0  0
  -16.5320  -29.9025   23.6283 C   0  0  0  0  0  0
  -16.7297  -28.6453   23.0331 C   0  0  0  0  0  0
  -26.4516  -31.6519   25.0662 C   0  0  0  0  0  0
  -25.3766  -31.3670   26.1416 C   0  0  0  0  0  0
  -27.0255  -30.2910   24.5965 C   0  0  0  0  0  0
  -27.6163  -32.4180   25.7370 C   0  0  0  0  0  0
  -27.5580  -37.1769   24.8476 C   0  0  0  0  0  0
  -21.4184  -29.3012   22.3800 N   0  0  0  0  0  0
  -26.4277  -37.3775   23.9440 N   0  0  0  0  0  0
  -24.6635  -31.0867   22.1062 N   0  0  0  0  0  0
  -23.4261  -28.8113   23.2910 O   0  0  0  0  0  0
  -28.3720  -26.7120   20.0291 O   0  0  0  0  0  0
  -26.5618  -34.8932   22.4705 O   0  0  0  0  0  0
  -23.5387  -32.1445   23.7668 O   0  0  0  0  0  0
  -31.8232  -14.2833   14.6836 C   0  0  0  0  0  0
  -32.0621  -15.5093   16.7924 C   0  0  0  0  0  0
  -32.8300   -9.6814   18.5212 C   0  0  0  0  0  0
  -30.3638  -14.8485   14.5420 C   0  0  0  0  0  0
  -30.7439  -16.2746   16.6114 C   0  0  0  0  0  0
  -31.9898  -14.0958   16.1914 C   0  0  2  0  0  0
  -32.3989   -9.9309   17.0982 C   0  0  1  0  0  0
  -33.2690  -10.9734   17.8602 C   0  0  1  0  0  0
  -31.9571   -7.6703   16.1547 C   0  0  0  0  0  0
  -32.6730   -9.5455   14.5822 C   0  0  0  0  0  0
  -28.0320  -16.8155   13.8947 C   0  0  0  0  0  0
  -33.9604  -13.5408   19.7941 C   0  0  0  0  0  0
  -33.0816  -13.2077   16.8296 C   0  0  0  0  0  0
  -29.3360  -21.4146   17.1151 C   0  0  0  0  0  0
  -29.0680  -22.4104   18.2841 C   0  0  0  0  0  0
  -28.5411  -20.0860   17.2111 C   0  0  0  0  0  0
  -29.9462  -23.6957   18.2538 C   0  0  0  0  0  0
  -28.7773  -19.1097   16.0221 C   0  0  0  0  0  0
  -29.6992  -24.7620   19.3634 C   0  0  0  0  0  0
  -28.2425  -17.6830   16.2950 C   0  0  0  0  0  0
  -28.3486  -25.4865   19.2886 C   0  0  0  0  0  0
  -32.8235   -8.9451   16.0018 C   0  0  0  0  0  0
  -32.6200  -12.3610   18.0855 C   0  0  2  0  0  0
  -28.6442  -16.5467   15.2832 C   0  0  2  0  0  0
  -32.5877  -13.0884   19.4574 N   0  0  0  0  0  0
  -30.1089  -16.1526   15.2625 N   0  3  2  0  0  0
  -29.3080  -14.2664   18.7854 H   0  0  0  0  0  0
  -30.5848  -13.8381   18.1281 H   0  0  0  0  0  0
  -29.6215  -11.3414   18.2372 H   0  0  0  0  0  0
  -29.0492  -12.4700   17.0276 H   0  0  0  0  0  0
  -27.5744  -11.2652   19.0301 H   0  0  0  0  0  0
  -27.0306  -12.5762   18.0417 H   0  0  0  0  0  0
  -27.6289  -14.1929   19.7825 H   0  0  0  0  0  0
  -29.0594  -12.1365   21.5279 H   0  0  0  0  0  0
  -29.0395  -13.8879   21.7308 H   0  0  0  0  0  0
  -25.2700   -9.5361   22.5174 H   0  0  0  0  0  0
  -24.0009   -7.4226   22.7031 H   0  0  0  0  0  0
  -21.0729   -8.9376   19.9124 H   0  0  0  0  0  0
  -22.4029  -11.0330   19.6932 H   0  0  0  0  0  0
  -21.2292   -7.6370   23.9905 H   0  0  0  0  0  0
  -21.1598   -6.0559   25.9167 H   0  0  0  0  0  0
  -22.0456   -2.7823   23.2781 H   0  0  0  0  0  0
  -22.4065  -12.0395   22.5836 H   0  0  0  0  0  0
  -21.1019  -13.1618   22.3196 H   0  0  0  0  0  0
  -24.6901  -15.8475   20.7258 H   0  0  0  0  0  0
  -26.3479  -15.6724   20.5164 H   0  0  0  0  0  0
  -26.7104  -32.5483   23.1102 H   0  0  0  0  0  0
  -25.0168  -33.9754   25.0550 H   0  0  0  0  0  0
  -22.6793  -31.3279   21.4424 H   0  0  0  0  0  0
  -23.3790  -35.9539   23.3287 H   0  0  0  0  0  0
  -24.3582  -36.8852   22.2002 H   0  0  0  0  0  0
  -23.7159  -37.6453   23.6607 H   0  0  0  0  0  0
  -26.0472  -31.6007   20.6064 H   0  0  0  0  0  0
  -26.8220  -30.8797   21.9817 H   0  0  0  0  0  0
  -28.0781  -29.0695   21.1803 H   0  0  0  0  0  0
  -25.9517  -26.0504   18.9010 H   0  0  0  0  0  0
  -23.9300  -27.3830   18.9819 H   0  0  0  0  0  0
  -23.6962  -30.6366   19.4204 H   0  0  0  0  0  0
  -22.7112  -29.2885   19.8688 H   0  0  0  0  0  0
  -25.1249  -36.1945   25.0812 H   0  0  0  0  0  0
  -21.0054  -28.3159   24.1476 H   0  0  0  0  0  0
  -20.5744  -26.2189   23.3676 H   0  0  0  0  0  0
  -21.6611  -26.7375   22.1183 H   0  0  0  0  0  0
  -19.6872  -25.6301   21.1219 H   0  0  0  0  0  0
  -19.6598  -27.3266   20.6908 H   0  0  0  0  0  0
  -17.4182  -26.6761   21.4080 H   0  0  0  0  0  0
  -18.0217  -25.9987   22.9049 H   0  0  0  0  0  0
  -19.7888  -30.7314   24.2233 H   0  0  0  0  0  0
  -17.4920  -31.6206   24.5182 H   0  0  0  0  0  0
  -15.5303  -30.2910   23.7574 H   0  0  0  0  0  0
  -15.8725  -28.0786   22.6968 H   0  0  0  0  0  0
  -24.5988  -30.6949   25.7776 H   0  0  0  0  0  0
  -24.8908  -32.2850   26.4710 H   0  0  0  0  0  0
  -25.8103  -30.8924   27.0216 H   0  0  0  0  0  0
  -26.2713  -29.6723   24.1054 H   0  0  0  0  0  0
  -27.4090  -29.7059   25.4343 H   0  0  0  0  0  0
  -27.8569  -30.4240   23.9029 H   0  0  0  0  0  0
  -27.2872  -33.3538   26.1882 H   0  0  0  0  0  0
  -28.3954  -32.6576   25.0122 H   0  0  0  0  0  0
  -28.0789  -31.8264   26.5270 H   0  0  0  0  0  0
  -28.2605  -38.0066   24.7543 H   0  0  0  0  0  0
  -28.1090  -36.2605   24.6293 H   0  0  0  0  0  0
  -27.2326  -37.1384   25.8889 H   0  0  0  0  0  0
  -20.9388  -29.8699   21.6982 H   0  0  0  0  0  0
  -26.0197  -38.2851   24.1501 H   0  0  0  0  0  0
  -32.5954  -14.9265   14.2512 H   0  0  0  0  0  0
  -31.9339  -13.3439   14.1354 H   0  0  0  0  0  0
  -32.2934  -15.4873   17.8628 H   0  0  0  0  0  0
  -32.9085  -16.0471   16.3590 H   0  0  0  0  0  0
  -33.5334   -8.8446   18.6041 H   0  0  0  0  0  0
  -32.0415   -9.7517   19.2706 H   0  0  0  0  0  0
  -29.6684  -14.0971   14.9367 H   0  0  0  0  0  0
  -30.1086  -14.9494   13.4906 H   0  0  0  0  0  0
  -30.9094  -17.3348   16.8191 H   0  0  0  0  0  0
  -30.0552  -15.9224   17.3763 H   0  0  0  0  0  0
  -31.0493  -13.5580   16.3234 H   0  0  0  0  0  0
  -31.3170  -10.0743   17.0483 H   0  0  0  0  0  0
  -34.3227  -11.0274   17.5476 H   0  0  0  0  0  0
  -31.9716   -7.2884   17.1767 H   0  0  0  0  0  0
  -32.3060   -6.8498   15.5354 H   0  0  0  0  0  0
  -30.9212   -7.8751   15.8838 H   0  0  0  0  0  0
  -33.3915  -10.3576   14.4158 H   0  0  0  0  0  0
  -31.6667   -9.9344   14.4193 H   0  0  0  0  0  0
  -32.8346   -8.7857   13.8094 H   0  0  0  0  0  0
  -27.0048  -17.1550   14.0118 H   0  0  0  0  0  0
  -27.9701  -15.9300   13.2596 H   0  0  0  0  0  0
  -28.5519  -17.6082   13.3622 H   0  0  0  0  0  0
  -34.2896  -13.0772   20.7208 H   0  0  0  0  0  0
  -34.0302  -14.6290   19.8845 H   0  0  0  0  0  0
  -34.7272  -13.2825   19.0565 H   0  0  0  0  0  0
  -34.0078  -13.7431   17.0597 H   0  0  0  0  0  0
  -33.4289  -12.5370   16.0408 H   0  0  0  0  0  0
  -30.3983  -21.1628   17.0994 H   0  0  0  0  0  0
  -29.1230  -21.8919   16.1545 H   0  0  0  0  0  0
  -29.2489  -21.8961   19.2277 H   0  0  0  0  0  0
  -28.0137  -22.6847   18.2893 H   0  0  0  0  0  0
  -27.4720  -20.2895   17.3205 H   0  0  0  0  0  0
  -28.8479  -19.5850   18.1310 H   0  0  0  0  0  0
  -29.8454  -24.1805   17.2834 H   0  0  0  0  0  0
  -30.9922  -23.3845   18.3289 H   0  0  0  0  0  0
  -29.8362  -19.0741   15.7860 H   0  0  0  0  0  0
  -28.2994  -19.4941   15.1237 H   0  0  0  0  0  0
  -30.4756  -25.5296   19.2875 H   0  0  0  0  0  0
  -29.8146  -24.3178   20.3521 H   0  0  0  0  0  0
  -27.1522  -17.7656   16.3229 H   0  0  0  0  0  0
  -28.5035  -17.3828   17.3076 H   0  0  0  0  0  0
  -27.5735  -24.8276   19.6835 H   0  0  0  0  0  0
  -28.1051  -25.7098   18.2487 H   0  0  0  0  0  0
  -33.8815   -8.6971   16.1341 H   0  0  0  0  0  0
  -31.6039  -12.0642   17.9383 H   0  0  0  0  0  0
  -28.1241  -15.6552   15.6296 H   0  0  0  0  0  0
  -30.6304  -16.8235   14.7255 H   0  0  0  0  0  0
  1 25  1  0  0  0
  1 30  2  0  0  0
  1 95  1  0  0  0
  2  3  1  0  0  0
  2 25  1  0  0  0
  2 97  1  0  0  0
  2 98  1  0  0  0
  3  4  1  0  0  0
  3 99  1  0  0  0
  3100  1  0  0  0
  4  5  1  0  0  0
  4101  1  0  0  0
  4102  1  0  0  0
  5  6  1  0  0  0
  5 26  1  0  0  0
  5103  1  0  0  0
  6 25  1  0  0  0
  6104  1  0  0  0
  6105  1  0  0  0
  7  8  2  0  0  0
  7 26  1  0  0  0
  7 29  1  0  0  0
  8  9  1  0  0  0
  8 22  1  0  0  0
  9 10  1  0  0  0
  9 27  2  0  0  0
 10 11  2  0  0  0
 10 15  1  0  0  0
 11 12  1  0  0  0
 11106  1  0  0  0
 12 13  2  0  0  0
 12107  1  0  0  0
 13 14  1  0  0  0
 13 31  1  0  0  0
 14 15  2  0  0  0
 14108  1  0  0  0
 15109  1  0  0  0
 16 17  2  0  0  0
 16 21  1  0  0  0
 16 31  1  0  0  0
 17 18  1  0  0  0
 17110  1  0  0  0
 18 19  2  0  0  0
 18111  1  0  0  0
 19 20  1  0  0  0
 19 24  1  0  0  0
 20 21  2  0  0  0
 20112  1  0  0  0
 21 23  1  0  0  0
 22 28  1  0  0  0
 22 32  2  0  0  0
 26 27  1  0  0  0
 28113  1  0  0  0
 28114  1  0  0  0
 29115  1  0  0  0
 29116  1  0  0  0
 33 34  1  0  0  0
 33 66  1  0  0  0
 33 70  2  0  0  0
 34 36  1  0  0  0
 34 59  1  0  0  0
 34117  1  0  0  0
 35 44  2  0  0  0
 35 45  1  0  0  0
 35 68  1  0  0  0
 36 56  1  0  0  0
 36118  1  0  0  0
 37 39  1  0  0  0
 37 47  1  0  0  0
 37 66  1  0  0  0
 37119  1  0  0  0
 38 43  2  0  0  0
 38 46  1  0  0  0
 38 47  1  0  0  0
 39 64  1  0  0  0
 39 67  2  0  0  0
 40 52  1  0  0  0
 40 53  2  0  0  0
 40 58  1  0  0  0
 41120  1  0  0  0
 41121  1  0  0  0
 41122  1  0  0  0
 41 48  1  0  0  0
 42 43  1  0  0  0
 42 66  1  0  0  0
 42123  1  0  0  0
 42124  1  0  0  0
 43 44  1  0  0  0
 44125  1  0  0  0
 45 46  2  0  0  0
 45126  1  0  0  0
 46127  1  0  0  0
 47128  1  0  0  0
 47129  1  0  0  0
 48 56  1  0  0  0
 48 65  1  0  0  0
 48130  1  0  0  0
 49 50  1  0  0  0
 49 53  1  0  0  0
 49 64  1  0  0  0
 49131  1  0  0  0
 50 51  1  0  0  0
 50132  1  0  0  0
 50133  1  0  0  0
 51 52  1  0  0  0
 51134  1  0  0  0
 51135  1  0  0  0
 52136  1  0  0  0
 52137  1  0  0  0
 53 54  1  0  0  0
 54 55  2  0  0  0
 54138  1  0  0  0
 55 57  1  0  0  0
 55139  1  0  0  0
 56 69  2  0  0  0
 57 58  2  0  0  0
 57140  1  0  0  0
 58141  1  0  0  0
 59 60  1  0  0  0
 59 61  1  0  0  0
 59 62  1  0  0  0
 60142  1  0  0  0
 60143  1  0  0  0
 60144  1  0  0  0
 61145  1  0  0  0
 61146  1  0  0  0
 61147  1  0  0  0
 62148  1  0  0  0
 62149  1  0  0  0
 62150  1  0  0  0
 63 65  1  0  0  0
 63151  1  0  0  0
 63152  1  0  0  0
 63153  1  0  0  0
 64154  1  0  0  0
 65155  1  0  0  0
 68 91  1  0  0  0
 71 74  1  0  0  0
 71 76  1  0  0  0
 71156  1  0  0  0
 71157  1  0  0  0
 72 75  1  0  0  0
 72 76  1  0  0  0
 72158  1  0  0  0
 72159  1  0  0  0
 73160  1  0  0  0
 73161  1  0  0  0
 73 77  1  0  0  0
 73 78  1  0  0  0
 74162  1  0  0  0
 74163  1  0  0  0
 74 96  1  0  0  0
 75 96  1  0  0  0
 75164  1  0  0  0
 75165  1  0  0  0
 76 83  1  0  0  0
 76166  1  0  0  0
 77 78  1  0  0  0
 77 92  1  0  0  0
 77167  1  0  0  0
 78 93  1  0  0  0
 78168  1  0  0  0
 79169  1  0  0  0
 79170  1  0  0  0
 79171  1  0  0  0
 79 92  1  0  0  0
 80 92  1  0  0  0
 80172  1  0  0  0
 80173  1  0  0  0
 80174  1  0  0  0
 81175  1  0  0  0
 81176  1  0  0  0
 81177  1  0  0  0
 81 94  1  0  0  0
 82 95  1  0  0  0
 82178  1  0  0  0
 82179  1  0  0  0
 82180  1  0  0  0
 83181  1  0  0  0
 83182  1  0  0  0
 83 93  1  0  0  0
 84 85  1  0  0  0
 84 86  1  0  0  0
 84183  1  0  0  0
 84184  1  0  0  0
 85 87  1  0  0  0
 85185  1  0  0  0
 85186  1  0  0  0
 86 88  1  0  0  0
 86187  1  0  0  0
 86188  1  0  0  0
 87 89  1  0  0  0
 87189  1  0  0  0
 87190  1  0  0  0
 88 90  1  0  0  0
 88191  1  0  0  0
 88192  1  0  0  0
 89 91  1  0  0  0
 89193  1  0  0  0
 89194  1  0  0  0
 90 94  1  0  0  0
 90195  1  0  0  0
 90196  1  0  0  0
 91197  1  0  0  0
 91198  1  0  0  0
 92199  1  0  0  0
 93 95  1  0  0  0
 93200  1  0  0  0
 94 96  1  0  0  0
 94201  1  0  0  0
 96202  1  0  0  0
M  CHG  1  96   1
M  ISO  4   1 100  68 101  91 101  95 100
M  END
> <chiral flag>
0

> <version>
0

> <s_m_source_file>
/data/baiqing/PycharmProjects/Reinvent-master-3.2/result/LINK_invent/BTK/process_docking_weight1_custom_sum_contain_oxygen_bond_distance_aromatic_linkinvent_7_9_3/rearranged_h_0023.sdf

> <i_m_source_file_index>
11

> <r_mmod_Potential_Energy-OPLS-2005>
1044.71801757812

> <r_mmod_Stretch_Energy-OPLS-2005>
120.02424621582

> <r_mmod_Bend_Energy-OPLS-2005>
314.231964111328

> <r_mmod_Torsional_Energy-OPLS-2005>
468.825775146484

> <r_mmod_Improper_Torsional_Energy-OPLS-2005>
11.3096799850464

> <r_mmod_Van_der_Waal_Energy-OPLS-2005>
251.430923461914

> <r_mmod_Electrostatic_Energy-OPLS-2005>
-152.007675170898

> <r_mmod_Solvation_Energy-OPLS-2005>
-397.135040283203

> <b_mmod_Minimization_Converged-OPLS-2005>
0

> <r_mmod_RMS_Derivative-OPLS-2005>
21.0673027038574

$$$$
11
                    3D
 Structure written by MMmdl.
171179  0  0  1  0            999 V2000
  -30.6808  -14.4488   20.6752 C   0  0  0  0  0  0
  -30.4457  -12.3314   19.3975 C   0  0  0  0  0  0
  -29.4965  -12.5390   18.1975 C   0  0  0  0  0  0
  -28.0181  -12.3867   18.6107 C   0  0  0  0  0  0
  -27.6735  -13.1969   19.8871 C   0  0  2  0  0  0
  -28.7136  -12.8993   20.9883 C   0  0  0  0  0  0
  -25.2634  -13.8136   20.5632 C   0  0  0  0  0  0
  -24.1876  -13.0430   20.9149 C   0  0  0  0  0  0
  -24.6420  -11.6892   20.8726 C   0  0  0  0  0  0
  -23.9069  -10.4288   21.0400 C   0  0  0  0  0  0
  -24.3619   -9.4211   21.9187 C   0  0  0  0  0  0
  -23.6300   -8.2240   22.0757 C   0  0  0  0  0  0
  -22.4283   -8.0271   21.3539 C   0  0  0  0  0  0
  -21.9912   -9.0252   20.4654 C   0  0  0  0  0  0
  -22.7236  -10.2133   20.3061 C   0  0  0  0  0  0
  -21.6865   -6.0730   22.5275 C   0  0  0  0  0  0
  -21.4015   -6.5635   23.8205 C   0  0  0  0  0  0
  -21.3660   -5.6789   24.9168 C   0  0  0  0  0  0
  -21.6050   -4.3056   24.7227 C   0  0  0  0  0  0
  -21.8820   -3.8143   23.4351 C   0  0  0  0  0  0
  -21.9198   -4.6955   22.3404 C   0  0  0  0  0  0
  -22.7902  -13.5240   21.1825 C   0  0  0  0  0  0
  -22.1655   -4.2140   21.0981 F   0  0  0  0  0  0
  -21.5644   -3.4540   25.7742 F   0  0  0  0  0  0
  -30.0508  -13.2568   20.4723 N   0  0  0  0  0  0
  -26.3088  -12.9295   20.3400 N   0  0  0  0  0  0
  -25.9344  -11.6454   20.5761 N   0  0  0  0  0  0
  -22.0539  -12.8242   22.0391 N   0  0  0  0  0  0
  -25.4327  -15.1841   20.3937 N   0  0  0  0  0  0
  -31.7107  -14.7778   20.0743 O   0  0  0  0  0  0
  -21.6642   -6.8869   21.4236 O   0  0  0  0  0  0
  -22.3576  -14.5548   20.6692 O   0  0  0  0  0  0
  -24.6130  -31.8686   23.2100 C   0  0  0  0  0  0
  -25.9015  -32.4828   23.8409 C   0  0  1  0  0  0
  -27.2420  -27.4306   20.1134 C   0  0  0  0  0  0
  -25.5880  -33.8630   24.2339 N   0  0  0  0  0  0
  -23.4037  -30.4892   21.5500 C   0  0  2  0  0  0
  -24.8554  -28.9492   20.1233 C   0  0  0  0  0  0
  -22.7401  -29.4651   22.4985 C   0  0  0  0  0  0
  -18.0275  -28.1387   22.8488 C   0  0  0  0  0  0
  -24.1484  -36.7315   23.2636 C   0  0  0  0  0  0
  -25.9320  -30.8295   21.3690 C   0  0  0  0  0  0
  -26.0119  -29.4581   20.7304 C   0  0  0  0  0  0
  -27.2085  -28.7029   20.7333 C   0  0  0  0  0  0
  -26.0762  -26.9418   19.4932 C   0  0  0  0  0  0
  -24.8807  -27.6863   19.5065 C   0  0  0  0  0  0
  -23.6174  -29.8189   20.1666 C   0  0  0  0  0  0
  -25.4104  -36.3113   24.0341 C   0  0  1  0  0  0
  -20.5864  -28.3663   23.1327 C   0  0  2  0  0  0
  -20.6761  -26.9396   22.5432 C   0  0  0  0  0  0
  -19.5744  -26.6389   21.5223 C   0  0  0  0  0  0
  -18.1918  -26.7933   22.1622 C   0  0  0  0  0  0
  -19.1522  -28.8840   23.2908 C   0  0  0  0  0  0
  -18.9451  -30.1451   23.8912 C   0  0  0  0  0  0
  -17.6452  -30.6588   24.0580 C   0  0  0  0  0  0
  -25.9028  -34.9476   23.5139 C   0  0  0  0  0  0
  -16.5344  -29.9094   23.6335 C   0  0  0  0  0  0
  -16.7265  -28.6520   23.0336 C   0  0  0  0  0  0
  -26.4451  -31.6601   25.0728 C   0  0  0  0  0  0
  -25.3727  -31.3724   26.1491 C   0  0  0  0  0  0
  -27.0268  -30.3036   24.6095 C   0  0  0  0  0  0
  -27.6040  -32.4305   25.7481 C   0  0  0  0  0  0
  -27.5591  -37.1806   24.8461 C   0  0  0  0  0  0
  -21.4127  -29.3031   22.3720 N   0  0  0  0  0  0
  -26.4289  -37.3799   23.9415 N   0  0  0  0  0  0
  -24.6674  -31.0779   22.1015 N   0  0  0  0  0  0
  -23.4161  -28.8193   23.3036 O   0  0  0  0  0  0
  -28.3822  -26.6628   20.0210 O   0  0  0  0  0  0
  -26.5592  -34.8921   22.4699 O   0  0  0  0  0  0
  -23.5309  -32.1442   23.7468 O   0  0  0  0  0  0
  -28.8650  -19.2659   21.8407 C   0  0  0  0  0  0
  -30.5007  -17.6373   21.0514 C   0  0  0  0  0  0
  -30.0720  -18.9912   21.1661 C   0  0  0  0  0  0
  -28.0793  -18.2362   22.3967 C   0  0  0  0  0  0
  -29.7478  -16.5851   21.6414 C   0  0  0  0  0  0
  -28.5503  -16.9007   22.3334 C   0  0  0  0  0  0
  -25.9255  -19.6191   22.2773 C   0  0  0  0  0  0
  -26.9829  -19.0629   24.5181 C   0  0  0  0  0  0
  -31.5089  -23.1162   21.4486 C   0  0  0  0  0  0
  -30.9315  -20.1457   20.6172 C   0  0  0  0  0  0
  -28.7245  -24.7538   21.5763 C   0  0  0  0  0  0
  -29.2154  -23.6918   20.5442 C   0  0  0  0  0  0
  -29.0042  -26.2453   21.2389 C   0  0  0  0  0  0
  -26.7524  -18.5927   23.0760 C   0  0  0  0  0  0
  -30.1139  -22.5437   21.1161 C   0  0  1  0  0  0
  -30.1256  -15.2020   21.6429 N   0  0  0  0  0  0
  -30.1999  -21.3754   20.1761 N   0  3  0  0  0  0
  -27.6773  -15.6333   23.1338 Cl  0  0  0  0  0  0
  -31.4819  -12.4819   19.0885 H   0  0  0  0  0  0
  -30.3904  -11.3014   19.7551 H   0  0  0  0  0  0
  -29.7357  -11.8319   17.4020 H   0  0  0  0  0  0
  -29.6522  -13.5329   17.7757 H   0  0  0  0  0  0
  -27.8252  -11.3269   18.7843 H   0  0  0  0  0  0
  -27.3667  -12.6832   17.7879 H   0  0  0  0  0  0
  -27.7398  -14.2559   19.6345 H   0  0  0  0  0  0
  -28.6951  -11.8362   21.2335 H   0  0  0  0  0  0
  -28.4516  -13.3905   21.9206 H   0  0  0  0  0  0
  -25.2759   -9.5699   22.4770 H   0  0  0  0  0  0
  -24.0019   -7.4635   22.7477 H   0  0  0  0  0  0
  -21.0838   -8.8776   19.8964 H   0  0  0  0  0  0
  -22.3689  -10.9680   19.6181 H   0  0  0  0  0  0
  -21.1992   -7.6138   23.9704 H   0  0  0  0  0  0
  -21.1480   -6.0516   25.9070 H   0  0  0  0  0  0
  -22.0602   -2.7607   23.2849 H   0  0  0  0  0  0
  -22.4144  -11.9893   22.4766 H   0  0  0  0  0  0
  -21.1169  -13.1297   22.2602 H   0  0  0  0  0  0
  -24.6720  -15.8432   20.5136 H   0  0  0  0  0  0
  -26.3018  -15.6234   20.1223 H   0  0  0  0  0  0
  -26.7085  -32.5550   23.1176 H   0  0  0  0  0  0
  -25.0032  -33.9804   25.0483 H   0  0  0  0  0  0
  -22.6933  -31.3064   21.4085 H   0  0  0  0  0  0
  -23.3739  -35.9655   23.3299 H   0  0  0  0  0  0
  -24.3590  -36.8926   22.2052 H   0  0  0  0  0  0
  -23.7235  -37.6521   23.6645 H   0  0  0  0  0  0
  -26.0445  -31.5873   20.5920 H   0  0  0  0  0  0
  -26.8205  -30.8890   21.9861 H   0  0  0  0  0  0
  -28.1018  -29.1001   21.1941 H   0  0  0  0  0  0
  -26.0973  -25.9784   19.0039 H   0  0  0  0  0  0
  -23.9946  -27.2869   19.0315 H   0  0  0  0  0  0
  -23.7316  -30.5937   19.4076 H   0  0  0  0  0  0
  -22.7409  -29.2418   19.8674 H   0  0  0  0  0  0
  -25.1276  -36.1983   25.0834 H   0  0  0  0  0  0
  -20.9980  -28.3238   24.1440 H   0  0  0  0  0  0
  -20.5665  -26.2269   23.3619 H   0  0  0  0  0  0
  -21.6635  -26.7437   22.1240 H   0  0  0  0  0  0
  -19.6903  -25.6308   21.1241 H   0  0  0  0  0  0
  -19.6696  -27.3214   20.6767 H   0  0  0  0  0  0
  -17.4204  -26.6695   21.4007 H   0  0  0  0  0  0
  -18.0301  -26.0075   22.9015 H   0  0  0  0  0  0
  -19.7927  -30.7270   24.2270 H   0  0  0  0  0  0
  -17.5012  -31.6267   24.5184 H   0  0  0  0  0  0
  -15.5347  -30.3001   23.7652 H   0  0  0  0  0  0
  -15.8670  -28.0862   22.7011 H   0  0  0  0  0  0
  -24.5906  -30.7041   25.7867 H   0  0  0  0  0  0
  -24.8897  -32.2882   26.4910 H   0  0  0  0  0  0
  -25.8099  -30.8944   27.0265 H   0  0  0  0  0  0
  -26.2816  -29.6815   24.1119 H   0  0  0  0  0  0
  -27.4003  -29.7247   25.4551 H   0  0  0  0  0  0
  -27.8668  -30.4347   23.9267 H   0  0  0  0  0  0
  -27.2684  -33.3600   26.2087 H   0  0  0  0  0  0
  -28.3837  -32.6867   25.0299 H   0  0  0  0  0  0
  -28.0716  -31.8402   26.5368 H   0  0  0  0  0  0
  -28.2608  -38.0103   24.7519 H   0  0  0  0  0  0
  -28.1084  -36.2640   24.6263 H   0  0  0  0  0  0
  -27.2324  -37.1442   25.8867 H   0  0  0  0  0  0
  -20.9265  -29.8761   21.6965 H   0  0  0  0  0  0
  -26.0177  -38.2874   24.1420 H   0  0  0  0  0  0
  -28.5316  -20.2837   21.9550 H   0  0  0  0  0  0
  -31.4313  -17.4143   20.5483 H   0  0  0  0  0  0
  -25.7661  -19.2852   21.2514 H   0  0  0  0  0  0
  -26.3968  -20.6008   22.2431 H   0  0  0  0  0  0
  -24.9428  -19.7594   22.7277 H   0  0  0  0  0  0
  -27.4657  -18.2843   25.1091 H   0  0  0  0  0  0
  -26.0401  -19.3077   25.0077 H   0  0  0  0  0  0
  -27.6160  -19.9500   24.5525 H   0  0  0  0  0  0
  -31.4326  -23.9838   22.1033 H   0  0  0  0  0  0
  -32.0324  -23.4364   20.5470 H   0  0  0  0  0  0
  -32.1447  -22.4013   21.9687 H   0  0  0  0  0  0
  -31.4513  -19.7655   19.7370 H   0  0  0  0  0  0
  -31.7147  -20.3723   21.3382 H   0  0  0  0  0  0
  -29.1703  -24.5479   22.5499 H   0  0  0  0  0  0
  -27.6522  -24.6279   21.7346 H   0  0  0  0  0  0
  -29.7406  -24.1908   19.7284 H   0  0  0  0  0  0
  -28.3258  -23.2589   20.0852 H   0  0  0  0  0  0
  -30.0776  -26.4064   21.1415 H   0  0  0  0  0  0
  -28.6868  -26.8663   22.0792 H   0  0  0  0  0  0
  -26.1261  -17.7022   23.1176 H   0  0  0  0  0  0
  -29.6619  -22.1891   22.0430 H   0  0  0  0  0  0
  -29.4935  -14.6528   22.2078 H   0  0  0  0  0  0
  -29.2756  -21.0915   19.8945 H   0  0  0  0  0  0
  -30.6623  -21.6918   19.3389 H   0  0  0  0  0  0
  1 25  1  0  0  0
  1 30  2  0  0  0
  1 86  1  0  0  0
  2  3  1  0  0  0
  2 25  1  0  0  0
  2 89  1  0  0  0
  2 90  1  0  0  0
  3  4  1  0  0  0
  3 91  1  0  0  0
  3 92  1  0  0  0
  4  5  1  0  0  0
  4 93  1  0  0  0
  4 94  1  0  0  0
  5  6  1  0  0  0
  5 26  1  0  0  0
  5 95  1  0  0  0
  6 25  1  0  0  0
  6 96  1  0  0  0
  6 97  1  0  0  0
  7  8  2  0  0  0
  7 26  1  0  0  0
  7 29  1  0  0  0
  8  9  1  0  0  0
  8 22  1  0  0  0
  9 10  1  0  0  0
  9 27  2  0  0  0
 10 11  2  0  0  0
 10 15  1  0  0  0
 11 12  1  0  0  0
 11 98  1  0  0  0
 12 13  2  0  0  0
 12 99  1  0  0  0
 13 14  1  0  0  0
 13 31  1  0  0  0
 14 15  2  0  0  0
 14100  1  0  0  0
 15101  1  0  0  0
 16 17  2  0  0  0
 16 21  1  0  0  0
 16 31  1  0  0  0
 17 18  1  0  0  0
 17102  1  0  0  0
 18 19  2  0  0  0
 18103  1  0  0  0
 19 20  1  0  0  0
 19 24  1  0  0  0
 20 21  2  0  0  0
 20104  1  0  0  0
 21 23  1  0  0  0
 22 28  1  0  0  0
 22 32  2  0  0  0
 26 27  1  0  0  0
 28105  1  0  0  0
 28106  1  0  0  0
 29107  1  0  0  0
 29108  1  0  0  0
 33 34  1  0  0  0
 33 66  1  0  0  0
 33 70  2  0  0  0
 34 36  1  0  0  0
 34 59  1  0  0  0
 34109  1  0  0  0
 35 44  2  0  0  0
 35 45  1  0  0  0
 35 68  1  0  0  0
 36 56  1  0  0  0
 36110  1  0  0  0
 37 39  1  0  0  0
 37 47  1  0  0  0
 37 66  1  0  0  0
 37111  1  0  0  0
 38 43  2  0  0  0
 38 46  1  0  0  0
 38 47  1  0  0  0
 39 64  1  0  0  0
 39 67  2  0  0  0
 40 52  1  0  0  0
 40 53  2  0  0  0
 40 58  1  0  0  0
 41112  1  0  0  0
 41113  1  0  0  0
 41114  1  0  0  0
 41 48  1  0  0  0
 42 43  1  0  0  0
 42 66  1  0  0  0
 42115  1  0  0  0
 42116  1  0  0  0
 43 44  1  0  0  0
 44117  1  0  0  0
 45 46  2  0  0  0
 45118  1  0  0  0
 46119  1  0  0  0
 47120  1  0  0  0
 47121  1  0  0  0
 48 56  1  0  0  0
 48 65  1  0  0  0
 48122  1  0  0  0
 49 50  1  0  0  0
 49 53  1  0  0  0
 49 64  1  0  0  0
 49123  1  0  0  0
 50 51  1  0  0  0
 50124  1  0  0  0
 50125  1  0  0  0
 51 52  1  0  0  0
 51126  1  0  0  0
 51127  1  0  0  0
 52128  1  0  0  0
 52129  1  0  0  0
 53 54  1  0  0  0
 54 55  2  0  0  0
 54130  1  0  0  0
 55 57  1  0  0  0
 55131  1  0  0  0
 56 69  2  0  0  0
 57 58  2  0  0  0
 57132  1  0  0  0
 58133  1  0  0  0
 59 60  1  0  0  0
 59 61  1  0  0  0
 59 62  1  0  0  0
 60134  1  0  0  0
 60135  1  0  0  0
 60136  1  0  0  0
 61137  1  0  0  0
 61138  1  0  0  0
 61139  1  0  0  0
 62140  1  0  0  0
 62141  1  0  0  0
 62142  1  0  0  0
 63 65  1  0  0  0
 63143  1  0  0  0
 63144  1  0  0  0
 63145  1  0  0  0
 64146  1  0  0  0
 65147  1  0  0  0
 68 83  1  0  0  0
 71 73  2  0  0  0
 71 74  1  0  0  0
 71148  1  0  0  0
 72 73  1  0  0  0
 72 75  2  0  0  0
 72149  1  0  0  0
 73 80  1  0  0  0
 74 76  2  0  0  0
 74 84  1  0  0  0
 75 76  1  0  0  0
 75 86  1  0  0  0
 76 88  1  0  0  0
 77150  1  0  0  0
 77151  1  0  0  0
 77152  1  0  0  0
 77 84  1  0  0  0
 78 84  1  0  0  0
 78153  1  0  0  0
 78154  1  0  0  0
 78155  1  0  0  0
 79156  1  0  0  0
 79157  1  0  0  0
 79158  1  0  0  0
 79 85  1  0  0  0
 80 87  1  0  0  0
 80159  1  0  0  0
 80160  1  0  0  0
 81 82  1  0  0  0
 81 83  1  0  0  0
 81161  1  0  0  0
 81162  1  0  0  0
 82 85  1  0  0  0
 82163  1  0  0  0
 82164  1  0  0  0
 83165  1  0  0  0
 83166  1  0  0  0
 84167  1  0  0  0
 85 87  1  0  0  0
 85168  1  0  0  0
 86169  1  0  0  0
 87170  1  0  0  0
 87171  1  0  0  0
M  CHG  1  87   1
M  ISO  4   1 100  68 101  83 101  86 100
M  END
> <chiral flag>
0

> <version>
0

> <s_m_source_file>
/data/baiqing/PycharmProjects/Reinvent-master-3.2/result/LINK_invent/BTK/process_docking_weight1_custom_sum_contain_oxygen_bond_distance_aromatic_linkinvent_7_9_3/rearranged_h_0023.sdf

> <i_m_source_file_index>
12

> <r_mmod_Potential_Energy-OPLS-2005>
-204.137054443359

> <r_mmod_Stretch_Energy-OPLS-2005>
44.549430847168

> <r_mmod_Bend_Energy-OPLS-2005>
119.20484161377

> <r_mmod_Torsional_Energy-OPLS-2005>
261.825408935547

> <r_mmod_Improper_Torsional_Energy-OPLS-2005>
5.18361282348633

> <r_mmod_Van_der_Waal_Energy-OPLS-2005>
143.336151123047

> <r_mmod_Electrostatic_Energy-OPLS-2005>
-340.034942626953

> <r_mmod_Solvation_Energy-OPLS-2005>
-450.479736328125

> <b_mmod_Minimization_Converged-OPLS-2005>
0

> <r_mmod_RMS_Derivative-OPLS-2005>
1.62593555450439

$$$$
12
                    3D
 Structure written by MMmdl.
183191  0  0  1  0            999 V2000
  -30.8205  -14.2676   20.7609 C   0  0  0  0  0  0
  -30.4094  -12.2796   19.3653 C   0  0  0  0  0  0
  -29.4699  -12.5365   18.1763 C   0  0  0  0  0  0
  -28.0004  -12.3807   18.6029 C   0  0  0  0  0  0
  -27.6657  -13.2001   19.8745 C   0  0  2  0  0  0
  -28.7016  -12.9361   20.9883 C   0  0  0  0  0  0
  -25.2605  -13.8159   20.5666 C   0  0  0  0  0  0
  -24.1844  -13.0441   20.9157 C   0  0  0  0  0  0
  -24.6386  -11.6905   20.8717 C   0  0  0  0  0  0
  -23.9048  -10.4292   21.0395 C   0  0  0  0  0  0
  -24.3604   -9.4212   21.9178 C   0  0  0  0  0  0
  -23.6285   -8.2247   22.0754 C   0  0  0  0  0  0
  -22.4269   -8.0277   21.3543 C   0  0  0  0  0  0
  -21.9899   -9.0249   20.4644 C   0  0  0  0  0  0
  -22.7223  -10.2127   20.3048 C   0  0  0  0  0  0
  -21.6849   -6.0732   22.5278 C   0  0  0  0  0  0
  -21.4012   -6.5638   23.8212 C   0  0  0  0  0  0
  -21.3661   -5.6790   24.9176 C   0  0  0  0  0  0
  -21.6042   -4.3053   24.7226 C   0  0  0  0  0  0
  -21.8819   -3.8145   23.4350 C   0  0  0  0  0  0
  -21.9192   -4.6960   22.3405 C   0  0  0  0  0  0
  -22.7867  -13.5242   21.1834 C   0  0  0  0  0  0
  -22.1659   -4.2146   21.0983 F   0  0  0  0  0  0
  -21.5630   -3.4538   25.7741 F   0  0  0  0  0  0
  -30.0551  -13.1934   20.4586 N   0  0  0  0  0  0
  -26.3040  -12.9320   20.3355 N   0  0  0  0  0  0
  -25.9305  -11.6480   20.5736 N   0  0  0  0  0  0
  -22.0503  -12.8233   22.0388 N   0  0  0  0  0  0
  -25.4341  -15.1878   20.4087 N   0  0  0  0  0  0
  -31.7427  -14.6796   20.0485 O   0  0  0  0  0  0
  -21.6635   -6.8873   21.4241 O   0  0  0  0  0  0
  -22.3551  -14.5554   20.6693 O   0  0  0  0  0  0
  -24.6046  -31.8741   23.2108 C   0  0  0  0  0  0
  -25.8953  -32.4890   23.8390 C   0  0  1  0  0  0
  -27.2709  -27.4950   20.0900 C   0  0  0  0  0  0
  -25.5835  -33.8685   24.2331 N   0  0  0  0  0  0
  -23.3923  -30.4887   21.5508 C   0  0  2  0  0  0
  -24.8455  -28.9530   20.1207 C   0  0  0  0  0  0
  -22.7363  -29.4654   22.5033 C   0  0  0  0  0  0
  -18.0259  -28.1357   22.8493 C   0  0  0  0  0  0
  -24.1479  -36.7348   23.2632 C   0  0  0  0  0  0
  -25.9097  -30.8525   21.3585 C   0  0  0  0  0  0
  -25.9913  -29.4846   20.7205 C   0  0  0  0  0  0
  -27.1921  -28.7559   20.7239 C   0  0  0  0  0  0
  -26.1021  -26.9538   19.5129 C   0  0  0  0  0  0
  -24.8907  -27.6793   19.5215 C   0  0  0  0  0  0
  -23.6006  -29.8098   20.1675 C   0  0  0  0  0  0
  -25.4099  -36.3159   24.0337 C   0  0  1  0  0  0
  -20.5843  -28.3635   23.1346 C   0  0  2  0  0  0
  -20.6762  -26.9384   22.5422 C   0  0  0  0  0  0
  -19.5741  -26.6382   21.5209 C   0  0  0  0  0  0
  -18.1913  -26.7913   22.1608 C   0  0  0  0  0  0
  -19.1509  -28.8812   23.2913 C   0  0  0  0  0  0
  -18.9446  -30.1424   23.8918 C   0  0  0  0  0  0
  -17.6457  -30.6573   24.0567 C   0  0  0  0  0  0
  -25.9015  -34.9522   23.5135 C   0  0  0  0  0  0
  -16.5343  -29.9073   23.6325 C   0  0  0  0  0  0
  -16.7253  -28.6489   23.0342 C   0  0  0  0  0  0
  -26.4385  -31.6692   25.0706 C   0  0  0  0  0  0
  -25.3684  -31.3771   26.1478 C   0  0  0  0  0  0
  -27.0141  -30.3168   24.6037 C   0  0  0  0  0  0
  -27.6034  -32.4339   25.7436 C   0  0  0  0  0  0
  -27.5584  -37.1817   24.8463 C   0  0  0  0  0  0
  -21.4100  -29.3008   22.3764 N   0  0  0  0  0  0
  -26.4299  -37.3828   23.9411 N   0  0  0  0  0  0
  -24.6532  -31.0857   22.1001 N   0  0  0  0  0  0
  -23.4152  -28.8215   23.3071 O   0  0  0  0  0  0
  -28.4513  -26.7875   20.0119 O   0  0  0  0  0  0
  -26.5577  -34.8950   22.4698 O   0  0  0  0  0  0
  -23.5250  -32.1467   23.7523 O   0  0  0  0  0  0
  -31.6084  -25.3021   23.8795 C   0  0  0  0  0  0
  -31.8764  -24.5189   22.7466 C   0  0  0  0  0  0
  -31.1144  -26.6227   23.7925 C   0  0  0  0  0  0
  -31.5922  -25.0261   21.4543 C   0  0  0  0  0  0
  -31.1392  -26.3706   21.3190 C   0  0  0  0  0  0
  -30.9414  -27.1720   22.4829 C   0  0  0  0  0  0
  -31.8012  -24.1528   20.2156 C   0  0  0  0  0  0
  -31.0246  -26.5457   26.3865 C   0  0  0  0  0  0
  -29.2610  -27.7030   25.1336 C   0  0  0  0  0  0
  -31.6110  -28.6661   25.2952 C   0  0  0  0  0  0
  -30.9597  -26.9775   19.9123 C   0  0  0  0  0  0
  -32.4920  -23.1451   22.9887 C   0  0  0  0  0  0
  -31.6168  -18.2424   23.1281 C   0  0  0  0  0  0
  -30.7318  -17.1299   22.5567 C   0  0  0  0  0  0
  -30.9971  -19.6378   22.9692 C   0  0  0  0  0  0
  -31.4075  -15.7580   22.6681 C   0  0  0  0  0  0
  -32.0137  -20.7483   23.2740 C   0  0  0  0  0  0
  -29.5733  -27.5492   19.5409 C   0  0  0  0  0  0
  -30.7673  -27.3840   25.1073 C   0  0  0  0  0  0
  -30.6156  -14.7372   21.9960 N   0  0  0  0  0  0
  -31.4624  -22.0928   23.0182 N   0  3  0  0  0  0
  -30.5394  -28.8446   22.2707 Cl  0  0  0  0  0  0
  -31.4501  -12.3884   19.0534 H   0  0  0  0  0  0
  -30.3105  -11.2492   19.7099 H   0  0  0  0  0  0
  -29.6961  -11.8467   17.3620 H   0  0  0  0  0  0
  -29.6365  -13.5410   17.7833 H   0  0  0  0  0  0
  -27.8132  -11.3215   18.7834 H   0  0  0  0  0  0
  -27.3396  -12.6698   17.7846 H   0  0  0  0  0  0
  -27.7277  -14.2548   19.6054 H   0  0  0  0  0  0
  -28.6448  -11.8993   21.3226 H   0  0  0  0  0  0
  -28.4474  -13.5410   21.8589 H   0  0  0  0  0  0
  -25.2747   -9.5694   22.4752 H   0  0  0  0  0  0
  -23.9993   -7.4642   22.7478 H   0  0  0  0  0  0
  -21.0828   -8.8761   19.8952 H   0  0  0  0  0  0
  -22.3678  -10.9663   19.6155 H   0  0  0  0  0  0
  -21.2003   -7.6144   23.9713 H   0  0  0  0  0  0
  -21.1483   -6.0523   25.9076 H   0  0  0  0  0  0
  -22.0598   -2.7605   23.2852 H   0  0  0  0  0  0
  -22.4102  -11.9880   22.4766 H   0  0  0  0  0  0
  -21.1125  -13.1267   22.2600 H   0  0  0  0  0  0
  -24.6743  -15.8499   20.5246 H   0  0  0  0  0  0
  -26.2986  -15.6246   20.1124 H   0  0  0  0  0  0
  -26.7043  -32.5625   23.1190 H   0  0  0  0  0  0
  -25.0010  -33.9870   25.0488 H   0  0  0  0  0  0
  -22.6776  -31.3017   21.4083 H   0  0  0  0  0  0
  -23.3747  -35.9677   23.3307 H   0  0  0  0  0  0
  -24.3581  -36.8945   22.2047 H   0  0  0  0  0  0
  -23.7211  -37.6550   23.6633 H   0  0  0  0  0  0
  -26.0026  -31.6124   20.5810 H   0  0  0  0  0  0
  -26.8037  -30.9236   21.9661 H   0  0  0  0  0  0
  -28.0521  -29.1806   21.2169 H   0  0  0  0  0  0
  -26.1389  -25.9846   19.0365 H   0  0  0  0  0  0
  -24.0099  -27.2549   19.0597 H   0  0  0  0  0  0
  -23.6957  -30.5786   19.4001 H   0  0  0  0  0  0
  -22.7306  -29.2175   19.8806 H   0  0  0  0  0  0
  -25.1265  -36.2053   25.0833 H   0  0  0  0  0  0
  -20.9921  -28.3207   24.1469 H   0  0  0  0  0  0
  -20.5680  -26.2239   23.3595 H   0  0  0  0  0  0
  -21.6636  -26.7443   22.1210 H   0  0  0  0  0  0
  -19.6905  -25.6299   21.1225 H   0  0  0  0  0  0
  -19.6694  -27.3212   20.6761 H   0  0  0  0  0  0
  -17.4190  -26.6672   21.4002 H   0  0  0  0  0  0
  -18.0289  -26.0040   22.8988 H   0  0  0  0  0  0
  -19.7928  -30.7239   24.2285 H   0  0  0  0  0  0
  -17.5013  -31.6262   24.5148 H   0  0  0  0  0  0
  -15.5346  -30.2988   23.7640 H   0  0  0  0  0  0
  -15.8645  -28.0833   22.7024 H   0  0  0  0  0  0
  -24.5865  -30.7112   25.7809 H   0  0  0  0  0  0
  -24.8872  -32.2914   26.4964 H   0  0  0  0  0  0
  -25.8059  -30.8918   27.0213 H   0  0  0  0  0  0
  -26.2701  -29.6962   24.1037 H   0  0  0  0  0  0
  -27.3719  -29.7452   25.4581 H   0  0  0  0  0  0
  -27.8582  -30.4462   23.9253 H   0  0  0  0  0  0
  -27.2749  -33.3672   26.2019 H   0  0  0  0  0  0
  -28.3842  -32.6828   25.0234 H   0  0  0  0  0  0
  -28.0686  -31.8421   26.5327 H   0  0  0  0  0  0
  -28.2610  -38.0111   24.7542 H   0  0  0  0  0  0
  -28.1076  -36.2650   24.6266 H   0  0  0  0  0  0
  -27.2315  -37.1449   25.8869 H   0  0  0  0  0  0
  -20.9255  -29.8706   21.6981 H   0  0  0  0  0  0
  -26.0207  -38.2914   24.1426 H   0  0  0  0  0  0
  -31.8111  -24.8449   24.8342 H   0  0  0  0  0  0
  -32.0095  -23.1075   20.4282 H   0  0  0  0  0  0
  -32.6323  -24.5312   19.6195 H   0  0  0  0  0  0
  -30.9025  -24.1520   19.5969 H   0  0  0  0  0  0
  -30.4348  -25.6280   26.4020 H   0  0  0  0  0  0
  -30.7520  -27.0954   27.2884 H   0  0  0  0  0  0
  -32.0771  -26.2816   26.4947 H   0  0  0  0  0  0
  -28.6638  -26.7908   25.1010 H   0  0  0  0  0  0
  -28.9438  -28.3145   24.2936 H   0  0  0  0  0  0
  -28.9887  -28.2375   26.0435 H   0  0  0  0  0  0
  -32.6757  -28.4514   25.2026 H   0  0  0  0  0  0
  -31.4548  -29.0960   26.2855 H   0  0  0  0  0  0
  -31.3725  -29.4640   24.5983 H   0  0  0  0  0  0
  -31.2359  -26.2860   19.1224 H   0  0  0  0  0  0
  -31.6972  -27.7743   19.8113 H   0  0  0  0  0  0
  -33.0245  -23.1454   23.9415 H   0  0  0  0  0  0
  -33.2554  -22.9328   22.2398 H   0  0  0  0  0  0
  -32.5791  -18.2156   22.6139 H   0  0  0  0  0  0
  -31.8267  -18.0489   24.1815 H   0  0  0  0  0  0
  -30.5205  -17.3453   21.5081 H   0  0  0  0  0  0
  -29.7694  -17.1159   23.0713 H   0  0  0  0  0  0
  -30.1272  -19.7316   23.6216 H   0  0  0  0  0  0
  -30.6338  -19.7543   21.9469 H   0  0  0  0  0  0
  -31.5217  -15.4783   23.7164 H   0  0  0  0  0  0
  -32.4171  -15.7936   22.2538 H   0  0  0  0  0  0
  -32.8967  -20.6027   22.6489 H   0  0  0  0  0  0
  -32.3502  -20.6833   24.3098 H   0  0  0  0  0  0
  -29.5046  -27.6072   18.4537 H   0  0  0  0  0  0
  -29.5499  -28.5895   19.8517 H   0  0  0  0  0  0
  -29.8902  -14.2830   22.5325 H   0  0  0  0  0  0
  -30.9867  -22.0961   22.1321 H   0  0  0  0  0  0
  -30.7874  -22.3200   23.7296 H   0  0  0  0  0  0
  1 25  1  0  0  0
  1 30  2  0  0  0
  1 90  1  0  0  0
  2  3  1  0  0  0
  2 25  1  0  0  0
  2 93  1  0  0  0
  2 94  1  0  0  0
  3  4  1  0  0  0
  3 95  1  0  0  0
  3 96  1  0  0  0
  4  5  1  0  0  0
  4 97  1  0  0  0
  4 98  1  0  0  0
  5  6  1  0  0  0
  5 26  1  0  0  0
  5 99  1  0  0  0
  6 25  1  0  0  0
  6100  1  0  0  0
  6101  1  0  0  0
  7  8  2  0  0  0
  7 26  1  0  0  0
  7 29  1  0  0  0
  8  9  1  0  0  0
  8 22  1  0  0  0
  9 10  1  0  0  0
  9 27  2  0  0  0
 10 11  2  0  0  0
 10 15  1  0  0  0
 11 12  1  0  0  0
 11102  1  0  0  0
 12 13  2  0  0  0
 12103  1  0  0  0
 13 14  1  0  0  0
 13 31  1  0  0  0
 14 15  2  0  0  0
 14104  1  0  0  0
 15105  1  0  0  0
 16 17  2  0  0  0
 16 21  1  0  0  0
 16 31  1  0  0  0
 17 18  1  0  0  0
 17106  1  0  0  0
 18 19  2  0  0  0
 18107  1  0  0  0
 19 20  1  0  0  0
 19 24  1  0  0  0
 20 21  2  0  0  0
 20108  1  0  0  0
 21 23  1  0  0  0
 22 28  1  0  0  0
 22 32  2  0  0  0
 26 27  1  0  0  0
 28109  1  0  0  0
 28110  1  0  0  0
 29111  1  0  0  0
 29112  1  0  0  0
 33 34  1  0  0  0
 33 66  1  0  0  0
 33 70  2  0  0  0
 34 36  1  0  0  0
 34 59  1  0  0  0
 34113  1  0  0  0
 35 44  2  0  0  0
 35 45  1  0  0  0
 35 68  1  0  0  0
 36 56  1  0  0  0
 36114  1  0  0  0
 37 39  1  0  0  0
 37 47  1  0  0  0
 37 66  1  0  0  0
 37115  1  0  0  0
 38 43  2  0  0  0
 38 46  1  0  0  0
 38 47  1  0  0  0
 39 64  1  0  0  0
 39 67  2  0  0  0
 40 52  1  0  0  0
 40 53  2  0  0  0
 40 58  1  0  0  0
 41116  1  0  0  0
 41117  1  0  0  0
 41118  1  0  0  0
 41 48  1  0  0  0
 42 43  1  0  0  0
 42 66  1  0  0  0
 42119  1  0  0  0
 42120  1  0  0  0
 43 44  1  0  0  0
 44121  1  0  0  0
 45 46  2  0  0  0
 45122  1  0  0  0
 46123  1  0  0  0
 47124  1  0  0  0
 47125  1  0  0  0
 48 56  1  0  0  0
 48 65  1  0  0  0
 48126  1  0  0  0
 49 50  1  0  0  0
 49 53  1  0  0  0
 49 64  1  0  0  0
 49127  1  0  0  0
 50 51  1  0  0  0
 50128  1  0  0  0
 50129  1  0  0  0
 51 52  1  0  0  0
 51130  1  0  0  0
 51131  1  0  0  0
 52132  1  0  0  0
 52133  1  0  0  0
 53 54  1  0  0  0
 54 55  2  0  0  0
 54134  1  0  0  0
 55 57  1  0  0  0
 55135  1  0  0  0
 56 69  2  0  0  0
 57 58  2  0  0  0
 57136  1  0  0  0
 58137  1  0  0  0
 59 60  1  0  0  0
 59 61  1  0  0  0
 59 62  1  0  0  0
 60138  1  0  0  0
 60139  1  0  0  0
 60140  1  0  0  0
 61141  1  0  0  0
 61142  1  0  0  0
 61143  1  0  0  0
 62144  1  0  0  0
 62145  1  0  0  0
 62146  1  0  0  0
 63 65  1  0  0  0
 63147  1  0  0  0
 63148  1  0  0  0
 63149  1  0  0  0
 64150  1  0  0  0
 65151  1  0  0  0
 68 88  1  0  0  0
 71 72  2  0  0  0
 71 73  1  0  0  0
 71152  1  0  0  0
 72 74  1  0  0  0
 72 82  1  0  0  0
 73 76  2  0  0  0
 73 89  1  0  0  0
 74 75  2  0  0  0
 74 77  1  0  0  0
 75 76  1  0  0  0
 75 81  1  0  0  0
 76 92  1  0  0  0
 77153  1  0  0  0
 77154  1  0  0  0
 77155  1  0  0  0
 78156  1  0  0  0
 78157  1  0  0  0
 78158  1  0  0  0
 78 89  1  0  0  0
 79 89  1  0  0  0
 79159  1  0  0  0
 79160  1  0  0  0
 79161  1  0  0  0
 80 89  1  0  0  0
 80162  1  0  0  0
 80163  1  0  0  0
 80164  1  0  0  0
 81 88  1  0  0  0
 81165  1  0  0  0
 81166  1  0  0  0
 82 91  1  0  0  0
 82167  1  0  0  0
 82168  1  0  0  0
 83 84  1  0  0  0
 83 85  1  0  0  0
 83169  1  0  0  0
 83170  1  0  0  0
 84 86  1  0  0  0
 84171  1  0  0  0
 84172  1  0  0  0
 85 87  1  0  0  0
 85173  1  0  0  0
 85174  1  0  0  0
 86 90  1  0  0  0
 86175  1  0  0  0
 86176  1  0  0  0
 87 91  1  0  0  0
 87177  1  0  0  0
 87178  1  0  0  0
 88179  1  0  0  0
 88180  1  0  0  0
 90181  1  0  0  0
 91182  1  0  0  0
 91183  1  0  0  0
M  CHG  1  91   1
M  ISO  4   1 100  68 101  88 101  90 100
M  END
> <chiral flag>
0

> <version>
0

> <s_m_source_file>
/data/baiqing/PycharmProjects/Reinvent-master-3.2/result/LINK_invent/BTK/process_docking_weight1_custom_sum_contain_oxygen_bond_distance_aromatic_linkinvent_7_9_3/rearranged_h_0023.sdf

> <i_m_source_file_index>
13

> <r_mmod_Potential_Energy-OPLS-2005>
-218.213470458984

> <r_mmod_Stretch_Energy-OPLS-2005>
40.9739685058594

> <r_mmod_Bend_Energy-OPLS-2005>
108.07674407959

> <r_mmod_Torsional_Energy-OPLS-2005>
208.115386962891

> <r_mmod_Improper_Torsional_Energy-OPLS-2005>
3.81626391410828

> <r_mmod_Van_der_Waal_Energy-OPLS-2005>
180.965255737305

> <r_mmod_Electrostatic_Energy-OPLS-2005>
-316.884002685547

> <r_mmod_Solvation_Energy-OPLS-2005>
-451.692138671875

> <b_mmod_Minimization_Converged-OPLS-2005>
0

> <r_mmod_RMS_Derivative-OPLS-2005>
1.30854988098145

$$$$
13
                    3D
 Structure written by MMmdl.
156164  0  0  1  0            999 V2000
  -30.7482  -14.6056   20.4698 C   0  0  0  0  0  0
  -30.4129  -12.3743   19.4538 C   0  0  0  0  0  0
  -29.5030  -12.5049   18.2174 C   0  0  0  0  0  0
  -28.0255  -12.3659   18.6309 C   0  0  0  0  0  0
  -27.6521  -13.2476   19.8551 C   0  0  2  0  0  0
  -28.7101  -13.1656   20.9836 C   0  0  0  0  0  0
  -25.2544  -13.8222   20.5672 C   0  0  0  0  0  0
  -24.1875  -13.0447   20.9210 C   0  0  0  0  0  0
  -24.6467  -11.6921   20.8751 C   0  0  0  0  0  0
  -23.9119  -10.4290   21.0366 C   0  0  0  0  0  0
  -24.3647   -9.4194   21.9150 C   0  0  0  0  0  0
  -23.6309   -8.2240   22.0715 C   0  0  0  0  0  0
  -22.4303   -8.0261   21.3495 C   0  0  0  0  0  0
  -21.9933   -9.0250   20.4616 C   0  0  0  0  0  0
  -22.7268  -10.2133   20.3022 C   0  0  0  0  0  0
  -21.6856   -6.0713   22.5267 C   0  0  0  0  0  0
  -21.4013   -6.5617   23.8201 C   0  0  0  0  0  0
  -21.3682   -5.6777   24.9181 C   0  0  0  0  0  0
  -21.6050   -4.3034   24.7215 C   0  0  0  0  0  0
  -21.8822   -3.8118   23.4343 C   0  0  0  0  0  0
  -21.9201   -4.6942   22.3408 C   0  0  0  0  0  0
  -22.7885  -13.5183   21.1891 C   0  0  0  0  0  0
  -22.1648   -4.2123   21.0981 F   0  0  0  0  0  0
  -21.5662   -3.4524   25.7724 F   0  0  0  0  0  0
  -30.0249  -13.4482   20.3901 N   0  0  0  0  0  0
  -26.3036  -12.9492   20.3358 N   0  0  0  0  0  0
  -25.9422  -11.6605   20.5836 N   0  0  0  0  0  0
  -22.0525  -12.8178   22.0450 N   0  0  0  0  0  0
  -25.4186  -15.1951   20.3963 N   0  0  0  0  0  0
  -31.9225  -14.6457   20.1037 O   0  0  0  0  0  0
  -21.6649   -6.8856   21.4213 O   0  0  0  0  0  0
  -22.3576  -14.5485   20.6709 O   0  0  0  0  0  0
  -24.6241  -31.8641   23.2086 C   0  0  0  0  0  0
  -25.9093  -32.4832   23.8380 C   0  0  1  0  0  0
  -27.2167  -27.3570   20.1380 C   0  0  0  0  0  0
  -25.5924  -33.8615   24.2318 N   0  0  0  0  0  0
  -23.4177  -30.4929   21.5501 C   0  0  2  0  0  0
  -24.8653  -28.9724   20.1052 C   0  0  0  0  0  0
  -22.7508  -29.4613   22.4923 C   0  0  0  0  0  0
  -18.0285  -28.1393   22.8502 C   0  0  0  0  0  0
  -24.1500  -36.7324   23.2629 C   0  0  0  0  0  0
  -25.9550  -30.8230   21.3649 C   0  0  0  0  0  0
  -26.0335  -29.4547   20.7088 C   0  0  0  0  0  0
  -27.2183  -28.6631   20.7097 C   0  0  0  0  0  0
  -26.0215  -26.9276   19.5068 C   0  0  0  0  0  0
  -24.8602  -27.7166   19.4869 C   0  0  0  0  0  0
  -23.6336  -29.8469   20.1579 C   0  0  0  0  0  0
  -25.4104  -36.3108   24.0349 C   0  0  1  0  0  0
  -20.5894  -28.3669   23.1306 C   0  0  2  0  0  0
  -20.6799  -26.9384   22.5412 C   0  0  0  0  0  0
  -19.5784  -26.6367   21.5226 C   0  0  0  0  0  0
  -18.1959  -26.7926   22.1617 C   0  0  0  0  0  0
  -19.1548  -28.8848   23.2909 C   0  0  0  0  0  0
  -18.9446  -30.1460   23.8933 C   0  0  0  0  0  0
  -17.6444  -30.6584   24.0562 C   0  0  0  0  0  0
  -25.9020  -34.9474   23.5113 C   0  0  0  0  0  0
  -16.5340  -29.9092   23.6310 C   0  0  0  0  0  0
  -16.7269  -28.6505   23.0332 C   0  0  0  0  0  0
  -26.4469  -31.6621   25.0726 C   0  0  0  0  0  0
  -25.3706  -31.3737   26.1460 C   0  0  0  0  0  0
  -27.0254  -30.3065   24.6075 C   0  0  0  0  0  0
  -27.6061  -32.4298   25.7503 C   0  0  0  0  0  0
  -27.5589  -37.1811   24.8453 C   0  0  0  0  0  0
  -21.4203  -29.3049   22.3719 N   0  0  0  0  0  0
  -26.4293  -37.3784   23.9421 N   0  0  0  0  0  0
  -24.6853  -31.0724   22.1003 N   0  0  0  0  0  0
  -23.4265  -28.8091   23.2916 O   0  0  0  0  0  0
  -28.3212  -26.4987   20.2312 O   0  0  0  0  0  0
  -26.5552  -34.8946   22.4650 O   0  0  0  0  0  0
  -23.5414  -32.1351   23.7479 O   0  0  0  0  0  0
  -28.7600  -20.3575   21.4393 C   0  0  0  0  0  0
  -29.1886  -21.1710   20.3659 C   0  0  0  0  0  0
  -30.5785  -19.2493   19.6075 C   0  0  0  0  0  0
  -30.1606  -18.4476   20.7194 C   0  0  0  0  0  0
  -29.2253  -19.0293   21.6151 C   0  0  0  0  0  0
  -30.1116  -20.5989   19.4483 C   0  0  0  0  0  0
  -31.5120  -18.6353   18.5664 C   0  0  0  0  0  0
  -28.4647  -22.5277   20.0956 C   0  0  0  0  0  0
  -30.8198  -17.0694   21.0666 C   0  0  0  0  0  0
  -29.0370  -23.9280   20.5409 C   0  0  0  0  0  0
  -28.0148  -25.0643   20.1507 C   0  0  0  0  0  0
  -30.1159  -15.7689   20.7993 N   0  0  0  0  0  0
  -28.6236  -18.1277   22.9632 Cl  0  0  0  0  0  0
  -30.6380  -21.5586   18.1029 Cl  0  0  0  0  0  0
  -31.4644  -12.4144   19.1643 H   0  0  0  0  0  0
  -30.2800  -11.3996   19.9239 H   0  0  0  0  0  0
  -29.7536  -11.7414   17.4802 H   0  0  0  0  0  0
  -29.6711  -13.4684   17.7324 H   0  0  0  0  0  0
  -27.8472  -11.3182   18.8697 H   0  0  0  0  0  0
  -27.3743  -12.5971   17.7882 H   0  0  0  0  0  0
  -27.6517  -14.2770   19.4932 H   0  0  0  0  0  0
  -28.7186  -12.1755   21.4411 H   0  0  0  0  0  0
  -28.4832  -13.8814   21.7792 H   0  0  0  0  0  0
  -25.2760   -9.5685   22.4783 H   0  0  0  0  0  0
  -23.9988   -7.4629   22.7458 H   0  0  0  0  0  0
  -21.0833   -8.8760   19.8953 H   0  0  0  0  0  0
  -22.3657  -10.9672   19.6165 H   0  0  0  0  0  0
  -21.1966   -7.6119   23.9685 H   0  0  0  0  0  0
  -21.1532   -6.0516   25.9086 H   0  0  0  0  0  0
  -22.0591   -2.7573   23.2857 H   0  0  0  0  0  0
  -22.4052  -11.9807   22.4850 H   0  0  0  0  0  0
  -21.1152  -13.1194   22.2646 H   0  0  0  0  0  0
  -24.6388  -15.8408   20.4613 H   0  0  0  0  0  0
  -26.2631  -15.6191   20.0325 H   0  0  0  0  0  0
  -26.7169  -32.5535   23.1154 H   0  0  0  0  0  0
  -25.0161  -33.9727   25.0532 H   0  0  0  0  0  0
  -22.7088  -31.3117   21.4148 H   0  0  0  0  0  0
  -23.3759  -35.9647   23.3229 H   0  0  0  0  0  0
  -24.3628  -36.8972   22.2048 H   0  0  0  0  0  0
  -23.7228  -37.6519   23.6648 H   0  0  0  0  0  0
  -26.0631  -31.5890   20.5970 H   0  0  0  0  0  0
  -26.8437  -30.8836   21.9789 H   0  0  0  0  0  0
  -28.1125  -29.0342   21.1911 H   0  0  0  0  0  0
  -25.9357  -25.9586   19.0394 H   0  0  0  0  0  0
  -23.9711  -27.3429   19.0002 H   0  0  0  0  0  0
  -23.7602  -30.6329   19.4139 H   0  0  0  0  0  0
  -22.7569  -29.2806   19.8427 H   0  0  0  0  0  0
  -25.1266  -36.1957   25.0834 H   0  0  0  0  0  0
  -20.9994  -28.3208   24.1421 H   0  0  0  0  0  0
  -20.5766  -26.2230   23.3591 H   0  0  0  0  0  0
  -21.6660  -26.7472   22.1157 H   0  0  0  0  0  0
  -19.6946  -25.6280   21.1262 H   0  0  0  0  0  0
  -19.6762  -27.3179   20.6766 H   0  0  0  0  0  0
  -17.4240  -26.6701   21.4002 H   0  0  0  0  0  0
  -18.0346  -26.0075   22.9012 H   0  0  0  0  0  0
  -19.7917  -30.7273   24.2334 H   0  0  0  0  0  0
  -17.4982  -31.6273   24.5129 H   0  0  0  0  0  0
  -15.5347  -30.2995   23.7610 H   0  0  0  0  0  0
  -15.8669  -28.0835   22.7016 H   0  0  0  0  0  0
  -24.5914  -30.7069   25.7762 H   0  0  0  0  0  0
  -24.8897  -32.2908   26.4862 H   0  0  0  0  0  0
  -25.8055  -30.8921   27.0228 H   0  0  0  0  0  0
  -26.2775  -29.6910   24.1100 H   0  0  0  0  0  0
  -27.3969  -29.7233   25.4496 H   0  0  0  0  0  0
  -27.8627  -30.4379   23.9237 H   0  0  0  0  0  0
  -27.2710  -33.3584   26.2121 H   0  0  0  0  0  0
  -28.3888  -32.6857   25.0355 H   0  0  0  0  0  0
  -28.0712  -31.8392   26.5403 H   0  0  0  0  0  0
  -28.2547  -38.0161   24.7527 H   0  0  0  0  0  0
  -28.1150  -36.2686   24.6230 H   0  0  0  0  0  0
  -27.2332  -37.1395   25.8865 H   0  0  0  0  0  0
  -20.9351  -29.8773   21.6965 H   0  0  0  0  0  0
  -26.0185  -38.2858   24.1438 H   0  0  0  0  0  0
  -28.0285  -20.7364   22.1389 H   0  0  0  0  0  0
  -31.1531  -17.6349   18.3095 H   0  0  0  0  0  0
  -32.5344  -18.5645   18.9502 H   0  0  0  0  0  0
  -31.5528  -19.1897   17.6252 H   0  0  0  0  0  0
  -27.4715  -22.4341   20.5336 H   0  0  0  0  0  0
  -28.2728  -22.5785   19.0231 H   0  0  0  0  0  0
  -30.9780  -17.0858   22.1459 H   0  0  0  0  0  0
  -31.8426  -17.0729   20.6820 H   0  0  0  0  0  0
  -30.0026  -24.1112   20.0673 H   0  0  0  0  0  0
  -29.2064  -23.9278   21.6198 H   0  0  0  0  0  0
  -27.1185  -24.8711   20.7487 H   0  0  0  0  0  0
  -27.7565  -24.8692   19.1099 H   0  0  0  0  0  0
  -29.1271  -15.7267   20.9914 H   0  0  0  0  0  0
  1 25  1  0  0  0
  1 30  2  0  0  0
  1 82  1  0  0  0
  2  3  1  0  0  0
  2 25  1  0  0  0
  2 85  1  0  0  0
  2 86  1  0  0  0
  3  4  1  0  0  0
  3 87  1  0  0  0
  3 88  1  0  0  0
  4  5  1  0  0  0
  4 89  1  0  0  0
  4 90  1  0  0  0
  5  6  1  0  0  0
  5 26  1  0  0  0
  5 91  1  0  0  0
  6 25  1  0  0  0
  6 92  1  0  0  0
  6 93  1  0  0  0
  7  8  2  0  0  0
  7 26  1  0  0  0
  7 29  1  0  0  0
  8  9  1  0  0  0
  8 22  1  0  0  0
  9 10  1  0  0  0
  9 27  2  0  0  0
 10 11  2  0  0  0
 10 15  1  0  0  0
 11 12  1  0  0  0
 11 94  1  0  0  0
 12 13  2  0  0  0
 12 95  1  0  0  0
 13 14  1  0  0  0
 13 31  1  0  0  0
 14 15  2  0  0  0
 14 96  1  0  0  0
 15 97  1  0  0  0
 16 17  2  0  0  0
 16 21  1  0  0  0
 16 31  1  0  0  0
 17 18  1  0  0  0
 17 98  1  0  0  0
 18 19  2  0  0  0
 18 99  1  0  0  0
 19 20  1  0  0  0
 19 24  1  0  0  0
 20 21  2  0  0  0
 20100  1  0  0  0
 21 23  1  0  0  0
 22 28  1  0  0  0
 22 32  2  0  0  0
 26 27  1  0  0  0
 28101  1  0  0  0
 28102  1  0  0  0
 29103  1  0  0  0
 29104  1  0  0  0
 33 34  1  0  0  0
 33 66  1  0  0  0
 33 70  2  0  0  0
 34 36  1  0  0  0
 34 59  1  0  0  0
 34105  1  0  0  0
 35 44  2  0  0  0
 35 45  1  0  0  0
 35 68  1  0  0  0
 36 56  1  0  0  0
 36106  1  0  0  0
 37 39  1  0  0  0
 37 47  1  0  0  0
 37 66  1  0  0  0
 37107  1  0  0  0
 38 43  2  0  0  0
 38 46  1  0  0  0
 38 47  1  0  0  0
 39 64  1  0  0  0
 39 67  2  0  0  0
 40 52  1  0  0  0
 40 53  2  0  0  0
 40 58  1  0  0  0
 41108  1  0  0  0
 41109  1  0  0  0
 41110  1  0  0  0
 41 48  1  0  0  0
 42 43  1  0  0  0
 42 66  1  0  0  0
 42111  1  0  0  0
 42112  1  0  0  0
 43 44  1  0  0  0
 44113  1  0  0  0
 45 46  2  0  0  0
 45114  1  0  0  0
 46115  1  0  0  0
 47116  1  0  0  0
 47117  1  0  0  0
 48 56  1  0  0  0
 48 65  1  0  0  0
 48118  1  0  0  0
 49 50  1  0  0  0
 49 53  1  0  0  0
 49 64  1  0  0  0
 49119  1  0  0  0
 50 51  1  0  0  0
 50120  1  0  0  0
 50121  1  0  0  0
 51 52  1  0  0  0
 51122  1  0  0  0
 51123  1  0  0  0
 52124  1  0  0  0
 52125  1  0  0  0
 53 54  1  0  0  0
 54 55  2  0  0  0
 54126  1  0  0  0
 55 57  1  0  0  0
 55127  1  0  0  0
 56 69  2  0  0  0
 57 58  2  0  0  0
 57128  1  0  0  0
 58129  1  0  0  0
 59 60  1  0  0  0
 59 61  1  0  0  0
 59 62  1  0  0  0
 60130  1  0  0  0
 60131  1  0  0  0
 60132  1  0  0  0
 61133  1  0  0  0
 61134  1  0  0  0
 61135  1  0  0  0
 62136  1  0  0  0
 62137  1  0  0  0
 62138  1  0  0  0
 63 65  1  0  0  0
 63139  1  0  0  0
 63140  1  0  0  0
 63141  1  0  0  0
 64142  1  0  0  0
 65143  1  0  0  0
 68 81  1  0  0  0
 71 72  2  0  0  0
 71 75  1  0  0  0
 71144  1  0  0  0
 72 76  1  0  0  0
 72 78  1  0  0  0
 73 74  1  0  0  0
 73 76  2  0  0  0
 73 77  1  0  0  0
 74 75  2  0  0  0
 74 79  1  0  0  0
 75 83  1  0  0  0
 76 84  1  0  0  0
 77145  1  0  0  0
 77146  1  0  0  0
 77147  1  0  0  0
 78 80  1  0  0  0
 78148  1  0  0  0
 78149  1  0  0  0
 79 82  1  0  0  0
 79150  1  0  0  0
 79151  1  0  0  0
 80 81  1  0  0  0
 80152  1  0  0  0
 80153  1  0  0  0
 81154  1  0  0  0
 81155  1  0  0  0
 82156  1  0  0  0
M  ISO  4   1 100  68 101  81 101  82 100
M  END
> <chiral flag>
0

> <version>
0

> <s_m_source_file>
/data/baiqing/PycharmProjects/Reinvent-master-3.2/result/LINK_invent/BTK/process_docking_weight1_custom_sum_contain_oxygen_bond_distance_aromatic_linkinvent_7_9_3/rearranged_h_0023.sdf

> <i_m_source_file_index>
14

> <r_mmod_Potential_Energy-OPLS-2005>
35.3561706542969

> <r_mmod_Stretch_Energy-OPLS-2005>
67.7495956420898

> <r_mmod_Bend_Energy-OPLS-2005>
138.86116027832

> <r_mmod_Torsional_Energy-OPLS-2005>
212.809448242188

> <r_mmod_Improper_Torsional_Energy-OPLS-2005>
5.7356538772583

> <r_mmod_Van_der_Waal_Energy-OPLS-2005>
158.130081176758

> <r_mmod_Electrostatic_Energy-OPLS-2005>
-398.138214111328

> <r_mmod_Solvation_Energy-OPLS-2005>
-198.123611450195

> <b_mmod_Minimization_Converged-OPLS-2005>
0

> <r_mmod_RMS_Derivative-OPLS-2005>
5.93176507949829

$$$$
14
                    3D
 Structure written by MMmdl.
162170  0  0  1  0            999 V2000
  -30.7857  -14.3318   20.7042 C   0  0  0  0  0  0
  -30.4076  -12.2795   19.3922 C   0  0  0  0  0  0
  -29.4802  -12.5300   18.1905 C   0  0  0  0  0  0
  -28.0057  -12.3818   18.6073 C   0  0  0  0  0  0
  -27.6642  -13.2034   19.8774 C   0  0  2  0  0  0
  -28.6981  -12.9459   20.9949 C   0  0  0  0  0  0
  -25.2587  -13.8160   20.5657 C   0  0  0  0  0  0
  -24.1834  -13.0437   20.9156 C   0  0  0  0  0  0
  -24.6387  -11.6904   20.8722 C   0  0  0  0  0  0
  -23.9057  -10.4291   21.0401 C   0  0  0  0  0  0
  -24.3612   -9.4211   21.9185 C   0  0  0  0  0  0
  -23.6287   -8.2249   22.0755 C   0  0  0  0  0  0
  -22.4272   -8.0284   21.3543 C   0  0  0  0  0  0
  -21.9908   -9.0255   20.4644 C   0  0  0  0  0  0
  -22.7233  -10.2135   20.3049 C   0  0  0  0  0  0
  -21.6852   -6.0737   22.5282 C   0  0  0  0  0  0
  -21.4017   -6.5641   23.8214 C   0  0  0  0  0  0
  -21.3657   -5.6793   24.9176 C   0  0  0  0  0  0
  -21.6041   -4.3056   24.7225 C   0  0  0  0  0  0
  -21.8821   -3.8147   23.4345 C   0  0  0  0  0  0
  -21.9192   -4.6964   22.3402 C   0  0  0  0  0  0
  -22.7863  -13.5242   21.1830 C   0  0  0  0  0  0
  -22.1661   -4.2149   21.0978 F   0  0  0  0  0  0
  -21.5625   -3.4538   25.7738 F   0  0  0  0  0  0
  -30.0463  -13.2205   20.4621 N   0  0  0  0  0  0
  -26.3027  -12.9326   20.3352 N   0  0  0  0  0  0
  -25.9307  -11.6485   20.5736 N   0  0  0  0  0  0
  -22.0498  -12.8229   22.0383 N   0  0  0  0  0  0
  -25.4327  -15.1873   20.4075 N   0  0  0  0  0  0
  -31.7874  -14.6329   20.0490 O   0  0  0  0  0  0
  -21.6638   -6.8883   21.4242 O   0  0  0  0  0  0
  -22.3552  -14.5556   20.6694 O   0  0  0  0  0  0
  -24.6110  -31.8719   23.2118 C   0  0  0  0  0  0
  -25.9023  -32.4838   23.8399 C   0  0  1  0  0  0
  -27.2378  -27.4801   20.0845 C   0  0  0  0  0  0
  -25.5896  -33.8633   24.2336 N   0  0  0  0  0  0
  -23.3959  -30.4946   21.5532 C   0  0  2  0  0  0
  -24.8433  -28.9606   20.1175 C   0  0  0  0  0  0
  -22.7380  -29.4686   22.5029 C   0  0  0  0  0  0
  -18.0261  -28.1368   22.8493 C   0  0  0  0  0  0
  -24.1483  -36.7311   23.2638 C   0  0  0  0  0  0
  -25.9185  -30.8478   21.3599 C   0  0  0  0  0  0
  -25.9988  -29.4838   20.7119 C   0  0  0  0  0  0
  -27.2017  -28.7484   20.6971 C   0  0  0  0  0  0
  -26.0732  -26.9569   19.4897 C   0  0  0  0  0  0
  -24.8720  -27.6928   19.5064 C   0  0  0  0  0  0
  -23.6025  -29.8229   20.1685 C   0  0  0  0  0  0
  -25.4106  -36.3123   24.0343 C   0  0  1  0  0  0
  -20.5846  -28.3666   23.1337 C   0  0  2  0  0  0
  -20.6759  -26.9414   22.5426 C   0  0  0  0  0  0
  -19.5755  -26.6388   21.5210 C   0  0  0  0  0  0
  -18.1921  -26.7920   22.1607 C   0  0  0  0  0  0
  -19.1506  -28.8831   23.2910 C   0  0  0  0  0  0
  -18.9443  -30.1431   23.8928 C   0  0  0  0  0  0
  -17.6456  -30.6587   24.0575 C   0  0  0  0  0  0
  -25.9033  -34.9486   23.5137 C   0  0  0  0  0  0
  -16.5346  -29.9095   23.6323 C   0  0  0  0  0  0
  -16.7256  -28.6502   23.0356 C   0  0  0  0  0  0
  -26.4465  -31.6602   25.0711 C   0  0  0  0  0  0
  -25.3735  -31.3680   26.1462 C   0  0  0  0  0  0
  -27.0304  -30.3056   24.6043 C   0  0  0  0  0  0
  -27.6040  -32.4315   25.7477 C   0  0  0  0  0  0
  -27.5585  -37.1815   24.8463 C   0  0  0  0  0  0
  -21.4115  -29.3034   22.3745 N   0  0  0  0  0  0
  -26.4299  -37.3808   23.9408 N   0  0  0  0  0  0
  -24.6595  -31.0854   22.1005 N   0  0  0  0  0  0
  -23.4171  -28.8247   23.3067 O   0  0  0  0  0  0
  -28.4007  -26.7586   20.0600 O   0  0  0  0  0  0
  -26.5596  -34.8933   22.4698 O   0  0  0  0  0  0
  -23.5316  -32.1456   23.7549 O   0  0  0  0  0  0
  -29.6746  -17.8449   23.6809 C   0  0  0  0  0  0
  -29.0219  -19.1011   23.7497 C   0  0  0  0  0  0
  -30.2633  -17.4606   22.4499 C   0  0  0  0  0  0
  -28.9653  -19.9026   22.5904 C   0  0  0  0  0  0
  -30.1035  -18.3188   21.3373 C   0  0  0  0  0  0
  -29.7737  -16.9362   24.9030 C   0  0  0  0  0  0
  -28.4123  -19.6036   25.0542 C   0  0  0  0  0  0
  -31.1138  -16.1926   22.3265 C   0  0  0  0  0  0
  -28.3208  -24.4379   20.7532 C   0  0  0  0  0  0
  -28.3501  -23.4670   21.9426 C   0  0  0  0  0  0
  -28.5530  -25.8934   21.1806 C   0  0  0  0  0  0
  -28.4125  -22.0009   21.4983 C   0  0  0  0  0  0
  -29.4636  -19.4973   21.4088 N   0  0  0  0  0  0
  -30.3996  -15.0459   21.7695 N   0  0  0  0  0  0
  -28.4128  -21.1676   22.6589 O   0  0  0  0  0  0
  -30.7484  -17.9057   19.7890 Cl  0  0  0  0  0  0
  -31.4525  -12.3690   19.0900 H   0  0  0  0  0  0
  -30.2927  -11.2557   19.7525 H   0  0  0  0  0  0
  -29.7116  -11.8354   17.3816 H   0  0  0  0  0  0
  -29.6537  -13.5319   17.7940 H   0  0  0  0  0  0
  -27.8146  -11.3230   18.7874 H   0  0  0  0  0  0
  -27.3513  -12.6732   17.7843 H   0  0  0  0  0  0
  -27.7235  -14.2577   19.6040 H   0  0  0  0  0  0
  -28.6497  -11.9064   21.3223 H   0  0  0  0  0  0
  -28.4419  -13.5371   21.8744 H   0  0  0  0  0  0
  -25.2756   -9.5690   22.4761 H   0  0  0  0  0  0
  -23.9994   -7.4643   22.7479 H   0  0  0  0  0  0
  -21.0840   -8.8776   19.8945 H   0  0  0  0  0  0
  -22.3698  -10.9674   19.6155 H   0  0  0  0  0  0
  -21.2021   -7.6151   23.9720 H   0  0  0  0  0  0
  -21.1474   -6.0523   25.9080 H   0  0  0  0  0  0
  -22.0601   -2.7608   23.2846 H   0  0  0  0  0  0
  -22.4097  -11.9867   22.4743 H   0  0  0  0  0  0
  -21.1122  -13.1261   22.2591 H   0  0  0  0  0  0
  -24.6712  -15.8480   20.5199 H   0  0  0  0  0  0
  -26.2951  -15.6250   20.1076 H   0  0  0  0  0  0
  -26.7099  -32.5570   23.1175 H   0  0  0  0  0  0
  -25.0087  -33.9787   25.0507 H   0  0  0  0  0  0
  -22.6823  -31.3101   21.4152 H   0  0  0  0  0  0
  -23.3751  -35.9642   23.3308 H   0  0  0  0  0  0
  -24.3587  -36.8910   22.2053 H   0  0  0  0  0  0
  -23.7218  -37.6511   23.6645 H   0  0  0  0  0  0
  -26.0230  -31.6146   20.5922 H   0  0  0  0  0  0
  -26.8078  -30.9041   21.9752 H   0  0  0  0  0  0
  -28.0978  -29.1492   21.1510 H   0  0  0  0  0  0
  -26.0970  -25.9883   19.0108 H   0  0  0  0  0  0
  -23.9842  -27.2838   19.0423 H   0  0  0  0  0  0
  -23.7042  -30.5955   19.4056 H   0  0  0  0  0  0
  -22.7276  -29.2386   19.8784 H   0  0  0  0  0  0
  -25.1278  -36.2009   25.0837 H   0  0  0  0  0  0
  -20.9921  -28.3236   24.1466 H   0  0  0  0  0  0
  -20.5649  -26.2281   23.3612 H   0  0  0  0  0  0
  -21.6641  -26.7468   22.1239 H   0  0  0  0  0  0
  -19.6925  -25.6296   21.1247 H   0  0  0  0  0  0
  -19.6696  -27.3190   20.6735 H   0  0  0  0  0  0
  -17.4198  -26.6681   21.3992 H   0  0  0  0  0  0
  -18.0303  -26.0040   22.8969 H   0  0  0  0  0  0
  -19.7924  -30.7215   24.2331 H   0  0  0  0  0  0
  -17.5029  -31.6277   24.5166 H   0  0  0  0  0  0
  -15.5353  -30.3031   23.7626 H   0  0  0  0  0  0
  -15.8642  -28.0843   22.7077 H   0  0  0  0  0  0
  -24.5960  -30.6962   25.7803 H   0  0  0  0  0  0
  -24.8866  -32.2816   26.4880 H   0  0  0  0  0  0
  -25.8113  -30.8900   27.0237 H   0  0  0  0  0  0
  -26.2837  -29.6811   24.1121 H   0  0  0  0  0  0
  -27.4120  -29.7296   25.4484 H   0  0  0  0  0  0
  -27.8648  -30.4384   23.9155 H   0  0  0  0  0  0
  -27.2659  -33.3602   26.2093 H   0  0  0  0  0  0
  -28.3843  -32.6890   25.0301 H   0  0  0  0  0  0
  -28.0721  -31.8410   26.5368 H   0  0  0  0  0  0
  -28.2617  -38.0103   24.7542 H   0  0  0  0  0  0
  -28.1075  -36.2642   24.6263 H   0  0  0  0  0  0
  -27.2322  -37.1446   25.8874 H   0  0  0  0  0  0
  -20.9274  -29.8749   21.6960 H   0  0  0  0  0  0
  -26.0195  -38.2893   24.1401 H   0  0  0  0  0  0
  -29.0919  -17.2074   25.7066 H   0  0  0  0  0  0
  -30.7847  -16.9572   25.3104 H   0  0  0  0  0  0
  -29.5341  -15.9070   24.6347 H   0  0  0  0  0  0
  -29.1668  -19.6431   25.8411 H   0  0  0  0  0  0
  -27.6094  -18.9415   25.3804 H   0  0  0  0  0  0
  -27.9877  -20.6024   24.9629 H   0  0  0  0  0  0
  -31.5170  -15.8960   23.2939 H   0  0  0  0  0  0
  -32.0030  -16.4356   21.7425 H   0  0  0  0  0  0
  -27.3629  -24.3433   20.2414 H   0  0  0  0  0  0
  -29.0872  -24.1622   20.0274 H   0  0  0  0  0  0
  -27.4747  -23.6328   22.5725 H   0  0  0  0  0  0
  -29.2225  -23.6808   22.5614 H   0  0  0  0  0  0
  -29.5668  -26.0072   21.5648 H   0  0  0  0  0  0
  -27.8828  -26.1604   22.0015 H   0  0  0  0  0  0
  -29.3122  -21.8828   20.8922 H   0  0  0  0  0  0
  -27.5545  -21.7464   20.8747 H   0  0  0  0  0  0
  -29.5998  -14.6996   22.2772 H   0  0  0  0  0  0
  1 25  1  0  0  0
  1 30  2  0  0  0
  1 84  1  0  0  0
  2  3  1  0  0  0
  2 25  1  0  0  0
  2 87  1  0  0  0
  2 88  1  0  0  0
  3  4  1  0  0  0
  3 89  1  0  0  0
  3 90  1  0  0  0
  4  5  1  0  0  0
  4 91  1  0  0  0
  4 92  1  0  0  0
  5  6  1  0  0  0
  5 26  1  0  0  0
  5 93  1  0  0  0
  6 25  1  0  0  0
  6 94  1  0  0  0
  6 95  1  0  0  0
  7  8  2  0  0  0
  7 26  1  0  0  0
  7 29  1  0  0  0
  8  9  1  0  0  0
  8 22  1  0  0  0
  9 10  1  0  0  0
  9 27  2  0  0  0
 10 11  2  0  0  0
 10 15  1  0  0  0
 11 12  1  0  0  0
 11 96  1  0  0  0
 12 13  2  0  0  0
 12 97  1  0  0  0
 13 14  1  0  0  0
 13 31  1  0  0  0
 14 15  2  0  0  0
 14 98  1  0  0  0
 15 99  1  0  0  0
 16 17  2  0  0  0
 16 21  1  0  0  0
 16 31  1  0  0  0
 17 18  1  0  0  0
 17100  1  0  0  0
 18 19  2  0  0  0
 18101  1  0  0  0
 19 20  1  0  0  0
 19 24  1  0  0  0
 20 21  2  0  0  0
 20102  1  0  0  0
 21 23  1  0  0  0
 22 28  1  0  0  0
 22 32  2  0  0  0
 26 27  1  0  0  0
 28103  1  0  0  0
 28104  1  0  0  0
 29105  1  0  0  0
 29106  1  0  0  0
 33 34  1  0  0  0
 33 66  1  0  0  0
 33 70  2  0  0  0
 34 36  1  0  0  0
 34 59  1  0  0  0
 34107  1  0  0  0
 35 44  2  0  0  0
 35 45  1  0  0  0
 35 68  1  0  0  0
 36 56  1  0  0  0
 36108  1  0  0  0
 37 39  1  0  0  0
 37 47  1  0  0  0
 37 66  1  0  0  0
 37109  1  0  0  0
 38 43  2  0  0  0
 38 46  1  0  0  0
 38 47  1  0  0  0
 39 64  1  0  0  0
 39 67  2  0  0  0
 40 52  1  0  0  0
 40 53  2  0  0  0
 40 58  1  0  0  0
 41110  1  0  0  0
 41111  1  0  0  0
 41112  1  0  0  0
 41 48  1  0  0  0
 42 43  1  0  0  0
 42 66  1  0  0  0
 42113  1  0  0  0
 42114  1  0  0  0
 43 44  1  0  0  0
 44115  1  0  0  0
 45 46  2  0  0  0
 45116  1  0  0  0
 46117  1  0  0  0
 47118  1  0  0  0
 47119  1  0  0  0
 48 56  1  0  0  0
 48 65  1  0  0  0
 48120  1  0  0  0
 49 50  1  0  0  0
 49 53  1  0  0  0
 49 64  1  0  0  0
 49121  1  0  0  0
 50 51  1  0  0  0
 50122  1  0  0  0
 50123  1  0  0  0
 51 52  1  0  0  0
 51124  1  0  0  0
 51125  1  0  0  0
 52126  1  0  0  0
 52127  1  0  0  0
 53 54  1  0  0  0
 54 55  2  0  0  0
 54128  1  0  0  0
 55 57  1  0  0  0
 55129  1  0  0  0
 56 69  2  0  0  0
 57 58  2  0  0  0
 57130  1  0  0  0
 58131  1  0  0  0
 59 60  1  0  0  0
 59 61  1  0  0  0
 59 62  1  0  0  0
 60132  1  0  0  0
 60133  1  0  0  0
 60134  1  0  0  0
 61135  1  0  0  0
 61136  1  0  0  0
 61137  1  0  0  0
 62138  1  0  0  0
 62139  1  0  0  0
 62140  1  0  0  0
 63 65  1  0  0  0
 63141  1  0  0  0
 63142  1  0  0  0
 63143  1  0  0  0
 64144  1  0  0  0
 65145  1  0  0  0
 68 81  1  0  0  0
 71 72  2  0  0  0
 71 73  1  0  0  0
 71 76  1  0  0  0
 72 74  1  0  0  0
 72 77  1  0  0  0
 73 75  2  0  0  0
 73 78  1  0  0  0
 74 83  2  0  0  0
 74 85  1  0  0  0
 75 83  1  0  0  0
 75 86  1  0  0  0
 76146  1  0  0  0
 76147  1  0  0  0
 76148  1  0  0  0
 77149  1  0  0  0
 77150  1  0  0  0
 77151  1  0  0  0
 78 84  1  0  0  0
 78152  1  0  0  0
 78153  1  0  0  0
 79 80  1  0  0  0
 79 81  1  0  0  0
 79154  1  0  0  0
 79155  1  0  0  0
 80 82  1  0  0  0
 80156  1  0  0  0
 80157  1  0  0  0
 81158  1  0  0  0
 81159  1  0  0  0
 82 85  1  0  0  0
 82160  1  0  0  0
 82161  1  0  0  0
 84162  1  0  0  0
M  ISO  4   1 100  68 101  81 101  84 100
M  END
> <chiral flag>
0

> <version>
0

> <s_m_source_file>
/data/baiqing/PycharmProjects/Reinvent-master-3.2/result/LINK_invent/BTK/process_docking_weight1_custom_sum_contain_oxygen_bond_distance_aromatic_linkinvent_7_9_3/rearranged_h_0023.sdf

> <i_m_source_file_index>
15

> <r_mmod_Potential_Energy-OPLS-2005>
-223.296920776367

> <r_mmod_Stretch_Energy-OPLS-2005>
32.4996452331543

> <r_mmod_Bend_Energy-OPLS-2005>
93.9147567749023

> <r_mmod_Torsional_Energy-OPLS-2005>
211.335357666016

> <r_mmod_Improper_Torsional_Energy-OPLS-2005>
2.26485848426819

> <r_mmod_Van_der_Waal_Energy-OPLS-2005>
169.105834960938

> <r_mmod_Electrostatic_Energy-OPLS-2005>
-530.066223144531

> <r_mmod_Solvation_Energy-OPLS-2005>
-208.830718994141

> <b_mmod_Minimization_Converged-OPLS-2005>
0

> <r_mmod_RMS_Derivative-OPLS-2005>
1.41137731075287

$$$$
15
                    3D
 Structure written by MMmdl.
182190  0  0  1  0            999 V2000
  -30.7000  -14.4899   20.3329 C   0  0  0  0  0  0
  -30.4178  -12.2502   19.4450 C   0  0  0  0  0  0
  -29.4996  -12.3965   18.2162 C   0  0  0  0  0  0
  -28.0097  -12.3211   18.6299 C   0  0  0  0  0  0
  -27.6468  -13.1887   19.8744 C   0  0  2  0  0  0
  -28.7163  -13.0712   20.9841 C   0  0  0  0  0  0
  -25.2496  -13.8025   20.5777 C   0  0  0  0  0  0
  -24.1757  -13.0348   20.9238 C   0  0  0  0  0  0
  -24.6319  -11.6827   20.8823 C   0  0  0  0  0  0
  -23.8982  -10.4246   21.0452 C   0  0  0  0  0  0
  -24.3549   -9.4188   21.9227 C   0  0  0  0  0  0
  -23.6257   -8.2210   22.0771 C   0  0  0  0  0  0
  -22.4243   -8.0260   21.3555 C   0  0  0  0  0  0
  -21.9855   -9.0219   20.4658 C   0  0  0  0  0  0
  -22.7170  -10.2093   20.3088 C   0  0  0  0  0  0
  -21.6828   -6.0752   22.5288 C   0  0  0  0  0  0
  -21.4004   -6.5664   23.8222 C   0  0  0  0  0  0
  -21.3670   -5.6826   24.9186 C   0  0  0  0  0  0
  -21.6047   -4.3086   24.7239 C   0  0  0  0  0  0
  -21.8803   -3.8175   23.4356 C   0  0  0  0  0  0
  -21.9155   -4.6983   22.3417 C   0  0  0  0  0  0
  -22.7788  -13.5183   21.1855 C   0  0  0  0  0  0
  -22.1585   -4.2161   21.0983 F   0  0  0  0  0  0
  -21.5647   -3.4574   25.7760 F   0  0  0  0  0  0
  -30.0370  -13.3082   20.3841 N   0  0  0  0  0  0
  -26.2950  -12.9183   20.3515 N   0  0  0  0  0  0
  -25.9247  -11.6371   20.5899 N   0  0  0  0  0  0
  -22.0396  -12.8191   22.0389 N   0  0  0  0  0  0
  -25.4121  -15.1748   20.4206 N   0  0  0  0  0  0
  -31.9227  -14.5643   20.2484 O   0  0  0  0  0  0
  -21.6611   -6.8866   21.4245 O   0  0  0  0  0  0
  -22.3523  -14.5523   20.6697 O   0  0  0  0  0  0
  -24.6056  -31.8720   23.2142 C   0  0  0  0  0  0
  -25.8986  -32.4846   23.8419 C   0  0  1  0  0  0
  -27.2735  -27.5114   20.1147 C   0  0  0  0  0  0
  -25.5857  -33.8637   24.2353 N   0  0  0  0  0  0
  -23.3903  -30.4912   21.5495 C   0  0  2  0  0  0
  -24.8470  -28.9586   20.1182 C   0  0  0  0  0  0
  -22.7364  -29.4682   22.5032 C   0  0  0  0  0  0
  -18.0255  -28.1411   22.8495 C   0  0  0  0  0  0
  -24.1493  -36.7333   23.2641 C   0  0  0  0  0  0
  -25.9029  -30.8696   21.3501 C   0  0  0  0  0  0
  -25.9910  -29.5048   20.7092 C   0  0  0  0  0  0
  -27.1990  -28.7926   20.7073 C   0  0  0  0  0  0
  -26.1144  -26.9680   19.5197 C   0  0  0  0  0  0
  -24.8985  -27.6842   19.5225 C   0  0  0  0  0  0
  -23.5988  -29.8081   20.1670 C   0  0  0  0  0  0
  -25.4104  -36.3124   24.0349 C   0  0  1  0  0  0
  -20.5833  -28.3674   23.1361 C   0  0  2  0  0  0
  -20.6747  -26.9414   22.5450 C   0  0  0  0  0  0
  -19.5729  -26.6397   21.5244 C   0  0  0  0  0  0
  -18.1905  -26.7962   22.1634 C   0  0  0  0  0  0
  -19.1498  -28.8855   23.2932 C   0  0  0  0  0  0
  -18.9444  -30.1466   23.8949 C   0  0  0  0  0  0
  -17.6455  -30.6616   24.0586 C   0  0  0  0  0  0
  -25.9013  -34.9484   23.5145 C   0  0  0  0  0  0
  -16.5340  -29.9140   23.6325 C   0  0  0  0  0  0
  -16.7249  -28.6560   23.0318 C   0  0  0  0  0  0
  -26.4467  -31.6597   25.0711 C   0  0  0  0  0  0
  -25.3769  -31.3640   26.1475 C   0  0  0  0  0  0
  -27.0306  -30.3070   24.6010 C   0  0  0  0  0  0
  -27.6059  -32.4296   25.7486 C   0  0  0  0  0  0
  -27.5589  -37.1804   24.8466 C   0  0  0  0  0  0
  -21.4096  -29.3047   22.3793 N   0  0  0  0  0  0
  -26.4305  -37.3791   23.9404 N   0  0  0  0  0  0
  -24.6506  -31.0898   22.0996 N   0  0  0  0  0  0
  -23.4166  -28.8256   23.3077 O   0  0  0  0  0  0
  -28.4316  -26.7665   20.0892 O   0  0  0  0  0  0
  -26.5581  -34.8930   22.4707 O   0  0  0  0  0  0
  -23.5288  -32.1435   23.7607 O   0  0  0  0  0  0
  -29.4948  -24.0453   18.7371 C   0  0  0  0  0  0
  -30.7552  -22.6219   16.6561 C   0  0  0  0  0  0
  -29.6344  -22.0591   17.3315 C   0  0  0  0  0  0
  -30.5648  -24.6430   18.0437 C   0  0  0  0  0  0
  -29.0300  -22.7707   18.3917 C   0  0  0  0  0  0
  -31.2014  -23.9243   17.0050 C   0  0  0  0  0  0
  -31.4830  -21.8616   15.5481 C   0  0  0  0  0  0
  -31.4824  -16.5662   18.2025 C   0  0  0  0  0  0
  -27.7980  -17.4626   19.2115 C   0  0  0  0  0  0
  -28.5384  -15.9468   17.3432 C   0  0  0  0  0  0
  -30.3507  -26.9993   17.5068 C   0  0  0  0  0  0
  -29.0288  -20.7234   16.9223 C   0  0  0  0  0  0
  -30.7102  -26.2450   20.8584 C   0  0  0  0  0  0
  -31.6057  -26.2889   19.6033 C   0  0  0  0  0  0
  -29.1291  -18.3022   17.2476 C   0  0  0  0  0  0
  -29.5381  -27.2395   20.8638 C   0  0  0  0  0  0
  -30.2288  -16.7223   19.1032 C   0  0  1  0  0  0
  -28.9609  -17.1228   18.2533 C   0  0  0  0  0  0
  -29.9207  -15.5207   19.9395 N   0  0  0  0  0  0
  -30.9485  -25.9631   18.3384 N   0  0  0  0  0  0
  -29.4260  -19.6254   17.8295 N   0  3  0  0  0  0
  -27.7170  -22.1000   19.2949 Cl  0  0  0  0  0  0
  -32.5263  -24.6561   16.1520 Cl  0  0  0  0  0  0
  -31.4644  -12.3149   19.1423 H   0  0  0  0  0  0
  -30.2946  -11.2711   19.9102 H   0  0  0  0  0  0
  -29.7179  -11.6112   17.4914 H   0  0  0  0  0  0
  -29.7257  -13.3300   17.7027 H   0  0  0  0  0  0
  -27.7984  -11.2706   18.8437 H   0  0  0  0  0  0
  -27.3695  -12.5842   17.7868 H   0  0  0  0  0  0
  -27.6296  -14.2242   19.5655 H   0  0  0  0  0  0
  -28.6905  -12.0845   21.4474 H   0  0  0  0  0  0
  -28.5255  -13.7912   21.7826 H   0  0  0  0  0  0
  -25.2676   -9.5703   22.4820 H   0  0  0  0  0  0
  -23.9996   -7.4608   22.7482 H   0  0  0  0  0  0
  -21.0788   -8.8726   19.8961 H   0  0  0  0  0  0
  -22.3631  -10.9639   19.6211 H   0  0  0  0  0  0
  -21.1997   -7.6174   23.9736 H   0  0  0  0  0  0
  -21.1497   -6.0557   25.9088 H   0  0  0  0  0  0
  -22.0563   -2.7630   23.2866 H   0  0  0  0  0  0
  -22.3963  -11.9796   22.4737 H   0  0  0  0  0  0
  -21.1009  -13.1227   22.2570 H   0  0  0  0  0  0
  -24.6387  -15.8179   20.5444 H   0  0  0  0  0  0
  -26.2717  -15.6382   20.1628 H   0  0  0  0  0  0
  -26.7065  -32.5620   23.1215 H   0  0  0  0  0  0
  -25.0014  -33.9812   25.0507 H   0  0  0  0  0  0
  -22.6761  -31.3036   21.4020 H   0  0  0  0  0  0
  -23.3752  -35.9666   23.3309 H   0  0  0  0  0  0
  -24.3603  -36.8948   22.2058 H   0  0  0  0  0  0
  -23.7252  -37.6540   23.6654 H   0  0  0  0  0  0
  -25.9919  -31.6378   20.5805 H   0  0  0  0  0  0
  -26.7963  -30.9399   21.9578 H   0  0  0  0  0  0
  -28.0602  -29.2570   21.1639 H   0  0  0  0  0  0
  -26.1573  -25.9870   19.0660 H   0  0  0  0  0  0
  -24.0173  -27.2516   19.0693 H   0  0  0  0  0  0
  -23.6919  -30.5726   19.3957 H   0  0  0  0  0  0
  -22.7312  -29.2098   19.8800 H   0  0  0  0  0  0
  -25.1291  -36.1985   25.0847 H   0  0  0  0  0  0
  -20.9903  -28.3229   24.1483 H   0  0  0  0  0  0
  -20.5673  -26.2296   23.3635 H   0  0  0  0  0  0
  -21.6621  -26.7505   22.1208 H   0  0  0  0  0  0
  -19.6906  -25.6307   21.1278 H   0  0  0  0  0  0
  -19.6680  -27.3213   20.6781 H   0  0  0  0  0  0
  -17.4178  -26.6723   21.4026 H   0  0  0  0  0  0
  -18.0283  -26.0101   22.9031 H   0  0  0  0  0  0
  -19.7920  -30.7255   24.2344 H   0  0  0  0  0  0
  -17.5019  -31.6294   24.5186 H   0  0  0  0  0  0
  -15.5349  -30.3065   23.7641 H   0  0  0  0  0  0
  -15.8638  -28.0929   22.6983 H   0  0  0  0  0  0
  -24.5934  -30.7016   25.7788 H   0  0  0  0  0  0
  -24.8991  -32.2782   26.5009 H   0  0  0  0  0  0
  -25.8157  -30.8734   27.0177 H   0  0  0  0  0  0
  -26.2821  -29.6806   24.1149 H   0  0  0  0  0  0
  -27.4225  -29.7321   25.4420 H   0  0  0  0  0  0
  -27.8589  -30.4455   23.9046 H   0  0  0  0  0  0
  -27.2666  -33.3547   26.2160 H   0  0  0  0  0  0
  -28.3825  -32.6923   25.0286 H   0  0  0  0  0  0
  -28.0770  -31.8356   26.5329 H   0  0  0  0  0  0
  -28.2583  -38.0124   24.7516 H   0  0  0  0  0  0
  -28.1102  -36.2650   24.6270 H   0  0  0  0  0  0
  -27.2309  -37.1424   25.8870 H   0  0  0  0  0  0
  -20.9265  -29.8786   21.7024 H   0  0  0  0  0  0
  -26.0211  -38.2883   24.1375 H   0  0  0  0  0  0
  -28.9867  -24.5610   19.5318 H   0  0  0  0  0  0
  -31.0852  -22.1318   14.5697 H   0  0  0  0  0  0
  -31.4165  -20.7813   15.6644 H   0  0  0  0  0  0
  -32.5491  -22.0839   15.5494 H   0  0  0  0  0  0
  -31.6637  -17.4398   17.5798 H   0  0  0  0  0  0
  -31.4057  -15.7031   17.5391 H   0  0  0  0  0  0
  -32.3949  -16.4564   18.7867 H   0  0  0  0  0  0
  -26.8915  -17.7357   18.6696 H   0  0  0  0  0  0
  -28.0464  -18.2949   19.8713 H   0  0  0  0  0  0
  -27.5439  -16.6251   19.8534 H   0  0  0  0  0  0
  -27.5896  -16.1384   16.8431 H   0  0  0  0  0  0
  -28.4173  -15.0192   17.8725 H   0  0  0  0  0  0
  -29.2746  -15.7549   16.5628 H   0  0  0  0  0  0
  -29.4662  -26.6341   16.9808 H   0  0  0  0  0  0
  -31.0706  -27.3428   16.7625 H   0  0  0  0  0  0
  -30.0490  -27.8585   18.1062 H   0  0  0  0  0  0
  -29.2789  -20.4881   15.8890 H   0  0  0  0  0  0
  -27.9397  -20.8125   16.9137 H   0  0  0  0  0  0
  -31.3525  -26.5029   21.7013 H   0  0  0  0  0  0
  -30.3659  -25.2374   21.0842 H   0  0  0  0  0  0
  -32.4604  -25.6247   19.7357 H   0  0  0  0  0  0
  -32.0256  -27.2932   19.5172 H   0  0  0  0  0  0
  -28.1913  -18.3975   16.6958 H   0  0  0  0  0  0
  -29.8739  -18.0808   16.4834 H   0  0  0  0  0  0
  -29.8867  -28.2027   20.4883 H   0  0  0  0  0  0
  -29.2193  -27.3919   21.8967 H   0  0  0  0  0  0
  -30.4407  -17.5325   19.8049 H   0  0  0  0  0  0
  -28.9378  -15.3313   20.0459 H   0  0  0  0  0  0
  -28.9225  -19.7445   18.6929 H   0  0  0  0  0  0
  -30.4119  -19.6940   18.0221 H   0  0  0  0  0  0
  1 25  1  0  0  0
  1 30  2  0  0  0
  1 89  1  0  0  0
  2  3  1  0  0  0
  2 25  1  0  0  0
  2 94  1  0  0  0
  2 95  1  0  0  0
  3  4  1  0  0  0
  3 96  1  0  0  0
  3 97  1  0  0  0
  4  5  1  0  0  0
  4 98  1  0  0  0
  4 99  1  0  0  0
  5  6  1  0  0  0
  5 26  1  0  0  0
  5100  1  0  0  0
  6 25  1  0  0  0
  6101  1  0  0  0
  6102  1  0  0  0
  7  8  2  0  0  0
  7 26  1  0  0  0
  7 29  1  0  0  0
  8  9  1  0  0  0
  8 22  1  0  0  0
  9 10  1  0  0  0
  9 27  2  0  0  0
 10 11  2  0  0  0
 10 15  1  0  0  0
 11 12  1  0  0  0
 11103  1  0  0  0
 12 13  2  0  0  0
 12104  1  0  0  0
 13 14  1  0  0  0
 13 31  1  0  0  0
 14 15  2  0  0  0
 14105  1  0  0  0
 15106  1  0  0  0
 16 17  2  0  0  0
 16 21  1  0  0  0
 16 31  1  0  0  0
 17 18  1  0  0  0
 17107  1  0  0  0
 18 19  2  0  0  0
 18108  1  0  0  0
 19 20  1  0  0  0
 19 24  1  0  0  0
 20 21  2  0  0  0
 20109  1  0  0  0
 21 23  1  0  0  0
 22 28  1  0  0  0
 22 32  2  0  0  0
 26 27  1  0  0  0
 28110  1  0  0  0
 28111  1  0  0  0
 29112  1  0  0  0
 29113  1  0  0  0
 33 34  1  0  0  0
 33 66  1  0  0  0
 33 70  2  0  0  0
 34 36  1  0  0  0
 34 59  1  0  0  0
 34114  1  0  0  0
 35 44  2  0  0  0
 35 45  1  0  0  0
 35 68  1  0  0  0
 36 56  1  0  0  0
 36115  1  0  0  0
 37 39  1  0  0  0
 37 47  1  0  0  0
 37 66  1  0  0  0
 37116  1  0  0  0
 38 43  2  0  0  0
 38 46  1  0  0  0
 38 47  1  0  0  0
 39 64  1  0  0  0
 39 67  2  0  0  0
 40 52  1  0  0  0
 40 53  2  0  0  0
 40 58  1  0  0  0
 41117  1  0  0  0
 41118  1  0  0  0
 41119  1  0  0  0
 41 48  1  0  0  0
 42 43  1  0  0  0
 42 66  1  0  0  0
 42120  1  0  0  0
 42121  1  0  0  0
 43 44  1  0  0  0
 44122  1  0  0  0
 45 46  2  0  0  0
 45123  1  0  0  0
 46124  1  0  0  0
 47125  1  0  0  0
 47126  1  0  0  0
 48 56  1  0  0  0
 48 65  1  0  0  0
 48127  1  0  0  0
 49 50  1  0  0  0
 49 53  1  0  0  0
 49 64  1  0  0  0
 49128  1  0  0  0
 50 51  1  0  0  0
 50129  1  0  0  0
 50130  1  0  0  0
 51 52  1  0  0  0
 51131  1  0  0  0
 51132  1  0  0  0
 52133  1  0  0  0
 52134  1  0  0  0
 53 54  1  0  0  0
 54 55  2  0  0  0
 54135  1  0  0  0
 55 57  1  0  0  0
 55136  1  0  0  0
 56 69  2  0  0  0
 57 58  2  0  0  0
 57137  1  0  0  0
 58138  1  0  0  0
 59 60  1  0  0  0
 59 61  1  0  0  0
 59 62  1  0  0  0
 60139  1  0  0  0
 60140  1  0  0  0
 60141  1  0  0  0
 61142  1  0  0  0
 61143  1  0  0  0
 61144  1  0  0  0
 62145  1  0  0  0
 62146  1  0  0  0
 62147  1  0  0  0
 63 65  1  0  0  0
 63148  1  0  0  0
 63149  1  0  0  0
 63150  1  0  0  0
 64151  1  0  0  0
 65152  1  0  0  0
 68 86  1  0  0  0
 71 74  2  0  0  0
 71 75  1  0  0  0
 71153  1  0  0  0
 72 73  1  0  0  0
 72 76  2  0  0  0
 72 77  1  0  0  0
 73 75  2  0  0  0
 73 82  1  0  0  0
 74 76  1  0  0  0
 74 90  1  0  0  0
 75 92  1  0  0  0
 76 93  1  0  0  0
 77154  1  0  0  0
 77155  1  0  0  0
 77156  1  0  0  0
 78157  1  0  0  0
 78158  1  0  0  0
 78159  1  0  0  0
 78 87  1  0  0  0
 79160  1  0  0  0
 79161  1  0  0  0
 79162  1  0  0  0
 79 88  1  0  0  0
 80 88  1  0  0  0
 80163  1  0  0  0
 80164  1  0  0  0
 80165  1  0  0  0
 81 90  1  0  0  0
 81166  1  0  0  0
 81167  1  0  0  0
 81168  1  0  0  0
 82 91  1  0  0  0
 82169  1  0  0  0
 82170  1  0  0  0
 83 84  1  0  0  0
 83 86  1  0  0  0
 83171  1  0  0  0
 83172  1  0  0  0
 84 90  1  0  0  0
 84173  1  0  0  0
 84174  1  0  0  0
 85 88  1  0  0  0
 85 91  1  0  0  0
 85175  1  0  0  0
 85176  1  0  0  0
 86177  1  0  0  0
 86178  1  0  0  0
 87 88  1  0  0  0
 87 89  1  0  0  0
 87179  1  0  0  0
 89180  1  0  0  0
 91181  1  0  0  0
 91182  1  0  0  0
M  CHG  1  91   1
M  ISO  4   1 100  68 101  86 101  89 100
M  END
> <chiral flag>
0

> <version>
0

> <s_m_source_file>
/data/baiqing/PycharmProjects/Reinvent-master-3.2/result/LINK_invent/BTK/process_docking_weight1_custom_sum_contain_oxygen_bond_distance_aromatic_linkinvent_7_9_3/rearranged_h_0023.sdf

> <i_m_source_file_index>
16

> <r_mmod_Potential_Energy-OPLS-2005>
-72.9896469116211

> <r_mmod_Stretch_Energy-OPLS-2005>
42.3395767211914

> <r_mmod_Bend_Energy-OPLS-2005>
135.283004760742

> <r_mmod_Torsional_Energy-OPLS-2005>
285.294647216797

> <r_mmod_Improper_Torsional_Energy-OPLS-2005>
14.0915489196777

> <r_mmod_Van_der_Waal_Energy-OPLS-2005>
171.656799316406

> <r_mmod_Electrostatic_Energy-OPLS-2005>
-280.760192871094

> <r_mmod_Solvation_Energy-OPLS-2005>
-472.859619140625

> <b_mmod_Minimization_Converged-OPLS-2005>
0

> <r_mmod_RMS_Derivative-OPLS-2005>
3.27019309997559

$$$$
16
                    3D
 Structure written by MMmdl.
166174  0  0  1  0            999 V2000
  -30.6227  -14.6997   20.4938 C   0  0  0  0  0  0
  -30.4302  -12.4284   19.4752 C   0  0  0  0  0  0
  -29.5133  -12.4975   18.2347 C   0  0  0  0  0  0
  -28.0351  -12.3324   18.6445 C   0  0  0  0  0  0
  -27.6431  -13.2267   19.8514 C   0  0  2  0  0  0
  -28.6834  -13.1390   20.9882 C   0  0  0  0  0  0
  -25.2511  -13.8186   20.5703 C   0  0  0  0  0  0
  -24.1796  -13.0439   20.9216 C   0  0  0  0  0  0
  -24.6383  -11.6915   20.8745 C   0  0  0  0  0  0
  -23.9068  -10.4286   21.0398 C   0  0  0  0  0  0
  -24.3621   -9.4200   21.9176 C   0  0  0  0  0  0
  -23.6292   -8.2236   22.0748 C   0  0  0  0  0  0
  -22.4268   -8.0281   21.3548 C   0  0  0  0  0  0
  -21.9901   -9.0254   20.4658 C   0  0  0  0  0  0
  -22.7231  -10.2131   20.3059 C   0  0  0  0  0  0
  -21.6844   -6.0741   22.5290 C   0  0  0  0  0  0
  -21.4012   -6.5646   23.8227 C   0  0  0  0  0  0
  -21.3648   -5.6799   24.9189 C   0  0  0  0  0  0
  -21.6031   -4.3061   24.7228 C   0  0  0  0  0  0
  -21.8807   -3.8155   23.4348 C   0  0  0  0  0  0
  -21.9181   -4.6972   22.3409 C   0  0  0  0  0  0
  -22.7817  -13.5239   21.1873 C   0  0  0  0  0  0
  -22.1649   -4.2162   21.0983 F   0  0  0  0  0  0
  -21.5621   -3.4549   25.7738 F   0  0  0  0  0  0
  -29.9897  -13.4833   20.4138 N   0  0  0  0  0  0
  -26.2933  -12.9384   20.3277 N   0  0  0  0  0  0
  -25.9310  -11.6526   20.5754 N   0  0  0  0  0  0
  -22.0449  -12.8263   22.0440 N   0  0  0  0  0  0
  -25.4189  -15.1915   20.4119 N   0  0  0  0  0  0
  -31.8057  -14.8068   20.1612 O   0  0  0  0  0  0
  -21.6631   -6.8877   21.4243 O   0  0  0  0  0  0
  -22.3503  -14.5538   20.6704 O   0  0  0  0  0  0
  -24.6259  -31.8574   23.1984 C   0  0  0  0  0  0
  -25.9099  -32.4765   23.8331 C   0  0  1  0  0  0
  -27.2276  -27.2902   20.1246 C   0  0  0  0  0  0
  -25.5904  -33.8565   24.2254 N   0  0  0  0  0  0
  -23.4219  -30.4757   21.5419 C   0  0  2  0  0  0
  -24.8691  -28.9223   20.1101 C   0  0  0  0  0  0
  -22.7486  -29.4592   22.4946 C   0  0  0  0  0  0
  -18.0289  -28.1373   22.8498 C   0  0  0  0  0  0
  -24.1483  -36.7271   23.2640 C   0  0  0  0  0  0
  -25.9627  -30.7782   21.3732 C   0  0  0  0  0  0
  -26.0358  -29.4019   20.7167 C   0  0  0  0  0  0
  -27.2134  -28.5954   20.7143 C   0  0  0  0  0  0
  -26.0357  -26.8587   19.5026 C   0  0  0  0  0  0
  -24.8724  -27.6579   19.4965 C   0  0  0  0  0  0
  -23.6370  -29.8045   20.1585 C   0  0  0  0  0  0
  -25.4115  -36.3072   24.0324 C   0  0  1  0  0  0
  -20.5888  -28.3678   23.1292 C   0  0  2  0  0  0
  -20.6776  -26.9403   22.5415 C   0  0  0  0  0  0
  -19.5746  -26.6378   21.5221 C   0  0  0  0  0  0
  -18.1926  -26.7918   22.1636 C   0  0  0  0  0  0
  -19.1539  -28.8853   23.2886 C   0  0  0  0  0  0
  -18.9460  -30.1449   23.8904 C   0  0  0  0  0  0
  -17.6458  -30.6584   24.0558 C   0  0  0  0  0  0
  -25.9053  -34.9442   23.5093 C   0  0  0  0  0  0
  -16.5354  -29.9079   23.6320 C   0  0  0  0  0  0
  -16.7274  -28.6492   23.0363 C   0  0  0  0  0  0
  -26.4477  -31.6594   25.0720 C   0  0  0  0  0  0
  -25.3691  -31.3763   26.1441 C   0  0  0  0  0  0
  -27.0319  -30.3012   24.6196 C   0  0  0  0  0  0
  -27.6042  -32.4336   25.7482 C   0  0  0  0  0  0
  -27.5574  -37.1791   24.8466 C   0  0  0  0  0  0
  -21.4200  -29.3022   22.3688 N   0  0  0  0  0  0
  -26.4289  -37.3773   23.9409 N   0  0  0  0  0  0
  -24.6890  -31.0557   22.0941 N   0  0  0  0  0  0
  -23.4214  -28.8150   23.3043 O   0  0  0  0  0  0
  -28.3664  -26.4681   20.2082 O   0  0  0  0  0  0
  -26.5639  -34.8917   22.4670 O   0  0  0  0  0  0
  -23.5410  -32.1392   23.7280 O   0  0  0  0  0  0
  -28.3664  -20.7412   18.6546 C   0  0  0  0  0  0
  -29.0389  -21.0236   19.8767 C   0  0  0  0  0  0
  -28.2000  -19.3981   18.2033 C   0  0  0  0  0  0
  -29.5306  -19.8750   20.6322 C   0  0  0  0  0  0
  -29.4611  -18.4998   20.1410 C   0  0  0  0  0  0
  -28.7574  -18.3055   18.9232 C   0  0  0  0  0  0
  -27.8909  -21.8754   17.7844 C   0  0  0  0  0  0
  -30.1645  -20.1381   21.9926 C   0  0  0  0  0  0
  -28.5525  -19.0515   15.7132 C   0  0  0  0  0  0
  -29.4053  -22.5482   20.2165 C   0  0  0  0  0  0
  -27.5246  -19.1042   16.8544 C   0  0  0  0  0  0
  -30.2835  -17.2835   20.7954 C   0  0  0  0  0  0
  -28.3309  -23.7406   20.4344 C   0  0  0  0  0  0
  -28.4959  -25.1121   19.6031 C   0  0  0  0  0  0
  -28.8212  -22.4432   17.0272 N   0  0  0  0  0  0
  -29.8609  -15.8174   20.7662 N   0  0  0  0  0  0
  -26.7169  -22.2376   17.7768 O   0  0  0  0  0  0
  -28.6306  -16.7167   18.2346 Cl  0  0  0  0  0  0
  -31.4744  -12.5482   19.1807 H   0  0  0  0  0  0
  -30.3656  -11.4493   19.9517 H   0  0  0  0  0  0
  -29.7949  -11.7252   17.5174 H   0  0  0  0  0  0
  -29.6525  -13.4511   17.7247 H   0  0  0  0  0  0
  -27.8838  -11.2838   18.9035 H   0  0  0  0  0  0
  -27.3840  -12.5309   17.7924 H   0  0  0  0  0  0
  -27.6441  -14.2531   19.4846 H   0  0  0  0  0  0
  -28.7062  -12.1348   21.4120 H   0  0  0  0  0  0
  -28.4200  -13.8089   21.8089 H   0  0  0  0  0  0
  -25.2748   -9.5692   22.4771 H   0  0  0  0  0  0
  -24.0001   -7.4622   22.7467 H   0  0  0  0  0  0
  -21.0823   -8.8789   19.8974 H   0  0  0  0  0  0
  -22.3678  -10.9683   19.6193 H   0  0  0  0  0  0
  -21.2017   -7.6154   23.9749 H   0  0  0  0  0  0
  -21.1479   -6.0526   25.9103 H   0  0  0  0  0  0
  -22.0592   -2.7616   23.2856 H   0  0  0  0  0  0
  -22.4050  -11.9939   22.4866 H   0  0  0  0  0  0
  -21.1067  -13.1320   22.2617 H   0  0  0  0  0  0
  -24.6441  -15.8403   20.5111 H   0  0  0  0  0  0
  -26.2526  -15.6267   20.0405 H   0  0  0  0  0  0
  -26.7167  -32.5423   23.1073 H   0  0  0  0  0  0
  -25.0038  -33.9718   25.0389 H   0  0  0  0  0  0
  -22.7145  -31.2948   21.3962 H   0  0  0  0  0  0
  -23.3759  -35.9587   23.3306 H   0  0  0  0  0  0
  -24.3576  -36.8893   22.2054 H   0  0  0  0  0  0
  -23.7223  -37.6462   23.6670 H   0  0  0  0  0  0
  -26.0994  -31.5409   20.6051 H   0  0  0  0  0  0
  -26.8395  -30.8271   22.0069 H   0  0  0  0  0  0
  -28.1079  -28.9587   21.2015 H   0  0  0  0  0  0
  -25.9683  -25.8820   19.0466 H   0  0  0  0  0  0
  -23.9738  -27.2809   19.0275 H   0  0  0  0  0  0
  -23.7531  -30.5775   19.3981 H   0  0  0  0  0  0
  -22.7568  -29.2312   19.8613 H   0  0  0  0  0  0
  -25.1294  -36.1921   25.0819 H   0  0  0  0  0  0
  -20.9970  -28.3245   24.1417 H   0  0  0  0  0  0
  -20.5689  -26.2282   23.3613 H   0  0  0  0  0  0
  -21.6642  -26.7443   22.1199 H   0  0  0  0  0  0
  -19.6903  -25.6294   21.1240 H   0  0  0  0  0  0
  -19.6663  -27.3200   20.6761 H   0  0  0  0  0  0
  -17.4192  -26.6668   21.4039 H   0  0  0  0  0  0
  -18.0323  -26.0063   22.9035 H   0  0  0  0  0  0
  -19.7937  -30.7255   24.2287 H   0  0  0  0  0  0
  -17.5016  -31.6265   24.5142 H   0  0  0  0  0  0
  -15.5352  -30.2980   23.7636 H   0  0  0  0  0  0
  -15.8678  -28.0793   22.7096 H   0  0  0  0  0  0
  -24.5852  -30.7131   25.7767 H   0  0  0  0  0  0
  -24.8892  -32.2943   26.4846 H   0  0  0  0  0  0
  -25.7981  -30.8947   27.0236 H   0  0  0  0  0  0
  -26.2902  -29.6781   24.1183 H   0  0  0  0  0  0
  -27.3975  -29.7260   25.4713 H   0  0  0  0  0  0
  -27.8793  -30.4304   23.9458 H   0  0  0  0  0  0
  -27.2670  -33.3660   26.2027 H   0  0  0  0  0  0
  -28.3857  -32.6860   25.0300 H   0  0  0  0  0  0
  -28.0706  -31.8484   26.5419 H   0  0  0  0  0  0
  -28.2594  -38.0083   24.7511 H   0  0  0  0  0  0
  -28.1063  -36.2614   24.6294 H   0  0  0  0  0  0
  -27.2291  -37.1446   25.8869 H   0  0  0  0  0  0
  -20.9388  -29.8733   21.6880 H   0  0  0  0  0  0
  -26.0162  -38.2841   24.1424 H   0  0  0  0  0  0
  -29.7242  -21.0095   22.4755 H   0  0  0  0  0  0
  -31.2390  -20.2954   21.9073 H   0  0  0  0  0  0
  -29.9815  -19.3273   22.6949 H   0  0  0  0  0  0
  -29.0631  -20.0070   15.5894 H   0  0  0  0  0  0
  -28.0771  -18.8008   14.7658 H   0  0  0  0  0  0
  -29.3179  -18.2997   15.9069 H   0  0  0  0  0  0
  -30.0568  -22.8570   19.4002 H   0  0  0  0  0  0
  -30.0940  -22.5852   21.0566 H   0  0  0  0  0  0
  -26.7433  -19.8262   16.6189 H   0  0  0  0  0  0
  -26.9712  -18.1668   16.8969 H   0  0  0  0  0  0
  -30.4858  -17.4895   21.8418 H   0  0  0  0  0  0
  -31.2642  -17.3427   20.3205 H   0  0  0  0  0  0
  -28.3628  -23.9969   21.4936 H   0  0  0  0  0  0
  -27.3208  -23.3622   20.2833 H   0  0  0  0  0  0
  -27.9175  -25.0436   18.6828 H   0  0  0  0  0  0
  -29.5251  -25.1125   19.2448 H   0  0  0  0  0  0
  -29.7700  -22.1003   17.0566 H   0  0  0  0  0  0
  -28.5808  -23.1979   16.4023 H   0  0  0  0  0  0
  -28.8876  -15.6420   20.9597 H   0  0  0  0  0  0
  1 25  1  0  0  0
  1 30  2  0  0  0
  1 86  1  0  0  0
  2  3  1  0  0  0
  2 25  1  0  0  0
  2 89  1  0  0  0
  2 90  1  0  0  0
  3  4  1  0  0  0
  3 91  1  0  0  0
  3 92  1  0  0  0
  4  5  1  0  0  0
  4 93  1  0  0  0
  4 94  1  0  0  0
  5  6  1  0  0  0
  5 26  1  0  0  0
  5 95  1  0  0  0
  6 25  1  0  0  0
  6 96  1  0  0  0
  6 97  1  0  0  0
  7  8  2  0  0  0
  7 26  1  0  0  0
  7 29  1  0  0  0
  8  9  1  0  0  0
  8 22  1  0  0  0
  9 10  1  0  0  0
  9 27  2  0  0  0
 10 11  2  0  0  0
 10 15  1  0  0  0
 11 12  1  0  0  0
 11 98  1  0  0  0
 12 13  2  0  0  0
 12 99  1  0  0  0
 13 14  1  0  0  0
 13 31  1  0  0  0
 14 15  2  0  0  0
 14100  1  0  0  0
 15101  1  0  0  0
 16 17  2  0  0  0
 16 21  1  0  0  0
 16 31  1  0  0  0
 17 18  1  0  0  0
 17102  1  0  0  0
 18 19  2  0  0  0
 18103  1  0  0  0
 19 20  1  0  0  0
 19 24  1  0  0  0
 20 21  2  0  0  0
 20104  1  0  0  0
 21 23  1  0  0  0
 22 28  1  0  0  0
 22 32  2  0  0  0
 26 27  1  0  0  0
 28105  1  0  0  0
 28106  1  0  0  0
 29107  1  0  0  0
 29108  1  0  0  0
 33 34  1  0  0  0
 33 66  1  0  0  0
 33 70  2  0  0  0
 34 36  1  0  0  0
 34 59  1  0  0  0
 34109  1  0  0  0
 35 44  2  0  0  0
 35 45  1  0  0  0
 35 68  1  0  0  0
 36 56  1  0  0  0
 36110  1  0  0  0
 37 39  1  0  0  0
 37 47  1  0  0  0
 37 66  1  0  0  0
 37111  1  0  0  0
 38 43  2  0  0  0
 38 46  1  0  0  0
 38 47  1  0  0  0
 39 64  1  0  0  0
 39 67  2  0  0  0
 40 52  1  0  0  0
 40 53  2  0  0  0
 40 58  1  0  0  0
 41112  1  0  0  0
 41113  1  0  0  0
 41114  1  0  0  0
 41 48  1  0  0  0
 42 43  1  0  0  0
 42 66  1  0  0  0
 42115  1  0  0  0
 42116  1  0  0  0
 43 44  1  0  0  0
 44117  1  0  0  0
 45 46  2  0  0  0
 45118  1  0  0  0
 46119  1  0  0  0
 47120  1  0  0  0
 47121  1  0  0  0
 48 56  1  0  0  0
 48 65  1  0  0  0
 48122  1  0  0  0
 49 50  1  0  0  0
 49 53  1  0  0  0
 49 64  1  0  0  0
 49123  1  0  0  0
 50 51  1  0  0  0
 50124  1  0  0  0
 50125  1  0  0  0
 51 52  1  0  0  0
 51126  1  0  0  0
 51127  1  0  0  0
 52128  1  0  0  0
 52129  1  0  0  0
 53 54  1  0  0  0
 54 55  2  0  0  0
 54130  1  0  0  0
 55 57  1  0  0  0
 55131  1  0  0  0
 56 69  2  0  0  0
 57 58  2  0  0  0
 57132  1  0  0  0
 58133  1  0  0  0
 59 60  1  0  0  0
 59 61  1  0  0  0
 59 62  1  0  0  0
 60134  1  0  0  0
 60135  1  0  0  0
 60136  1  0  0  0
 61137  1  0  0  0
 61138  1  0  0  0
 61139  1  0  0  0
 62140  1  0  0  0
 62141  1  0  0  0
 62142  1  0  0  0
 63 65  1  0  0  0
 63143  1  0  0  0
 63144  1  0  0  0
 63145  1  0  0  0
 64146  1  0  0  0
 65147  1  0  0  0
 68 84  1  0  0  0
 71 72  2  0  0  0
 71 73  1  0  0  0
 71 77  1  0  0  0
 72 74  1  0  0  0
 72 80  1  0  0  0
 73 76  2  0  0  0
 73 81  1  0  0  0
 74 75  2  0  0  0
 74 78  1  0  0  0
 75 76  1  0  0  0
 75 82  1  0  0  0
 76 88  1  0  0  0
 77 85  1  0  0  0
 77 87  2  0  0  0
 78148  1  0  0  0
 78149  1  0  0  0
 78150  1  0  0  0
 79 81  1  0  0  0
 79151  1  0  0  0
 79152  1  0  0  0
 79153  1  0  0  0
 80 83  1  0  0  0
 80154  1  0  0  0
 80155  1  0  0  0
 81156  1  0  0  0
 81157  1  0  0  0
 82 86  1  0  0  0
 82158  1  0  0  0
 82159  1  0  0  0
 83 84  1  0  0  0
 83160  1  0  0  0
 83161  1  0  0  0
 84162  1  0  0  0
 84163  1  0  0  0
 85164  1  0  0  0
 85165  1  0  0  0
 86166  1  0  0  0
M  ISO  4   1 100  68 101  84 101  86 100
M  END
> <chiral flag>
0

> <version>
0

> <s_m_source_file>
/data/baiqing/PycharmProjects/Reinvent-master-3.2/result/LINK_invent/BTK/process_docking_weight1_custom_sum_contain_oxygen_bond_distance_aromatic_linkinvent_7_9_3/rearranged_h_0023.sdf

> <i_m_source_file_index>
17

> <r_mmod_Potential_Energy-OPLS-2005>
29.7144260406494

> <r_mmod_Stretch_Energy-OPLS-2005>
122.88614654541

> <r_mmod_Bend_Energy-OPLS-2005>
181.466186523438

> <r_mmod_Torsional_Energy-OPLS-2005>
254.205230712891

> <r_mmod_Improper_Torsional_Energy-OPLS-2005>
6.4975380897522

> <r_mmod_Van_der_Waal_Energy-OPLS-2005>
156.633865356445

> <r_mmod_Electrostatic_Energy-OPLS-2005>
-525.630859375

> <r_mmod_Solvation_Energy-OPLS-2005>
-232.478225708008

> <b_mmod_Minimization_Converged-OPLS-2005>
0

> <r_mmod_RMS_Derivative-OPLS-2005>
2.68395233154297

$$$$
17
                    3D
 Structure written by MMmdl.
150158  0  0  1  0            999 V2000
  -30.5035  -15.0270   20.4284 C   0  0  0  0  0  0
  -30.4379  -12.6439   19.5164 C   0  0  0  0  0  0
  -29.5284  -12.5725   18.2668 C   0  0  0  0  0  0
  -28.0553  -12.3549   18.6665 C   0  0  0  0  0  0
  -27.6256  -13.2647   19.8451 C   0  0  2  0  0  0
  -28.6645  -13.3059   20.9864 C   0  0  0  0  0  0
  -25.2425  -13.8226   20.5713 C   0  0  0  0  0  0
  -24.1781  -13.0462   20.9269 C   0  0  0  0  0  0
  -24.6412  -11.6943   20.8803 C   0  0  0  0  0  0
  -23.9079  -10.4323   21.0426 C   0  0  0  0  0  0
  -24.3624   -9.4226   21.9185 C   0  0  0  0  0  0
  -23.6305   -8.2254   22.0752 C   0  0  0  0  0  0
  -22.4276   -8.0293   21.3562 C   0  0  0  0  0  0
  -21.9928   -9.0274   20.4660 C   0  0  0  0  0  0
  -22.7255  -10.2161   20.3066 C   0  0  0  0  0  0
  -21.6852   -6.0751   22.5284 C   0  0  0  0  0  0
  -21.4022   -6.5658   23.8221 C   0  0  0  0  0  0
  -21.3653   -5.6798   24.9171 C   0  0  0  0  0  0
  -21.6034   -4.3060   24.7216 C   0  0  0  0  0  0
  -21.8814   -3.8164   23.4331 C   0  0  0  0  0  0
  -21.9201   -4.6985   22.3395 C   0  0  0  0  0  0
  -22.7785  -13.5231   21.1902 C   0  0  0  0  0  0
  -22.1666   -4.2172   21.0970 F   0  0  0  0  0  0
  -21.5616   -3.4547   25.7725 F   0  0  0  0  0  0
  -29.9335  -13.7461   20.3914 N   0  0  0  0  0  0
  -26.2866  -12.9497   20.3269 N   0  0  0  0  0  0
  -25.9351  -11.6608   20.5766 N   0  0  0  0  0  0
  -22.0416  -12.8257   22.0460 N   0  0  0  0  0  0
  -25.4025  -15.1956   20.4029 N   0  0  0  0  0  0
  -31.7012  -15.0883   20.1275 O   0  0  0  0  0  0
  -21.6651   -6.8889   21.4242 O   0  0  0  0  0  0
  -22.3471  -14.5513   20.6691 O   0  0  0  0  0  0
  -24.6455  -31.8393   23.1827 C   0  0  0  0  0  0
  -25.9209  -32.4668   23.8234 C   0  0  1  0  0  0
  -27.2294  -27.1042   20.1623 C   0  0  0  0  0  0
  -25.5958  -33.8475   24.2152 N   0  0  0  0  0  0
  -23.4542  -30.4569   21.5280 C   0  0  2  0  0  0
  -24.9061  -28.8766   20.1126 C   0  0  0  0  0  0
  -22.7599  -29.4501   22.4816 C   0  0  0  0  0  0
  -18.0317  -28.1396   22.8492 C   0  0  0  0  0  0
  -24.1487  -36.7220   23.2648 C   0  0  0  0  0  0
  -26.0122  -30.7043   21.3893 C   0  0  0  0  0  0
  -26.0853  -29.3134   20.7289 C   0  0  0  0  0  0
  -27.2479  -28.4470   20.7302 C   0  0  0  0  0  0
  -26.0242  -26.7800   19.5006 C   0  0  0  0  0  0
  -24.8909  -27.6246   19.4802 C   0  0  0  0  0  0
  -23.6820  -29.7816   20.1508 C   0  0  0  0  0  0
  -25.4126  -36.3002   24.0308 C   0  0  1  0  0  0
  -20.5948  -28.3712   23.1220 C   0  0  2  0  0  0
  -20.6782  -26.9412   22.5391 C   0  0  0  0  0  0
  -19.5743  -26.6404   21.5188 C   0  0  0  0  0  0
  -18.1938  -26.7940   22.1620 C   0  0  0  0  0  0
  -19.1584  -28.8866   23.2854 C   0  0  0  0  0  0
  -18.9506  -30.1477   23.8853 C   0  0  0  0  0  0
  -17.6513  -30.6601   24.0566 C   0  0  0  0  0  0
  -25.9063  -34.9386   23.5027 C   0  0  0  0  0  0
  -16.5392  -29.9084   23.6372 C   0  0  0  0  0  0
  -16.7310  -28.6526   23.0369 C   0  0  0  0  0  0
  -26.4525  -31.6549   25.0694 C   0  0  0  0  0  0
  -25.3748  -31.3725   26.1413 C   0  0  0  0  0  0
  -27.0426  -30.2945   24.6339 C   0  0  0  0  0  0
  -27.6054  -32.4341   25.7491 C   0  0  0  0  0  0
  -27.5558  -37.1766   24.8461 C   0  0  0  0  0  0
  -21.4284  -29.3022   22.3572 N   0  0  0  0  0  0
  -26.4269  -37.3721   23.9395 N   0  0  0  0  0  0
  -24.7230  -31.0253   22.0854 N   0  0  0  0  0  0
  -23.4232  -28.8056   23.2980 O   0  0  0  0  0  0
  -28.2763  -26.0974   20.2393 O   0  0  0  0  0  0
  -26.5672  -34.8904   22.4617 O   0  0  0  0  0  0
  -23.5555  -32.1261   23.7027 O   0  0  0  0  0  0
  -29.8199  -17.7492   20.5007 C   0  0  0  0  0  0
  -30.9619  -18.6165   20.3360 C   0  0  0  0  0  0
  -28.8394  -18.7762   20.5569 C   0  0  0  0  0  0
  -32.4189  -18.2367   20.2996 C   0  0  0  0  0  0
  -28.9928  -23.1746   20.3926 C   0  0  0  0  0  0
  -28.5296  -21.5454   20.1370 C   0  0  0  0  0  0
  -27.9901  -24.5488   20.1430 C   0  0  0  0  0  0
  -30.6506  -19.9532   20.2261 N   0  0  0  0  0  0
  -29.2973  -20.1448   20.3755 N   0  0  0  0  0  0
  -29.6902  -16.1968   20.6176 N   0  0  0  0  0  0
  -27.1638  -18.4980   20.8219 Cl  0  0  0  0  0  0
  -31.4726  -12.8159   19.2167 H   0  0  0  0  0  0
  -30.4306  -11.6933   20.0498 H   0  0  0  0  0  0
  -29.8602  -11.7799   17.5970 H   0  0  0  0  0  0
  -29.6161  -13.5023   17.7037 H   0  0  0  0  0  0
  -27.9298  -11.3072   18.9409 H   0  0  0  0  0  0
  -27.3992  -12.5225   17.8112 H   0  0  0  0  0  0
  -27.5805  -14.2703   19.4233 H   0  0  0  0  0  0
  -28.7719  -12.3307   21.4621 H   0  0  0  0  0  0
  -28.3464  -13.9991   21.7675 H   0  0  0  0  0  0
  -25.2743   -9.5724   22.4794 H   0  0  0  0  0  0
  -24.0023   -7.4648   22.7461 H   0  0  0  0  0  0
  -21.0859   -8.8793   19.8964 H   0  0  0  0  0  0
  -22.3679  -10.9718   19.6209 H   0  0  0  0  0  0
  -21.2009   -7.6167   23.9737 H   0  0  0  0  0  0
  -21.1477   -6.0519   25.9080 H   0  0  0  0  0  0
  -22.0595   -2.7629   23.2817 H   0  0  0  0  0  0
  -22.3980  -11.9973   22.4978 H   0  0  0  0  0  0
  -21.1002  -13.1291   22.2545 H   0  0  0  0  0  0
  -24.6300  -15.8399   20.5238 H   0  0  0  0  0  0
  -26.2020  -15.6282   19.9650 H   0  0  0  0  0  0
  -26.7284  -32.5252   23.0965 H   0  0  0  0  0  0
  -25.0121  -33.9582   25.0317 H   0  0  0  0  0  0
  -22.7558  -31.2812   21.3702 H   0  0  0  0  0  0
  -23.3764  -35.9539   23.3296 H   0  0  0  0  0  0
  -24.3552  -36.8855   22.2058 H   0  0  0  0  0  0
  -23.7244  -37.6413   23.6693 H   0  0  0  0  0  0
  -26.1852  -31.4617   20.6225 H   0  0  0  0  0  0
  -26.8730  -30.7454   22.0434 H   0  0  0  0  0  0
  -28.1465  -28.7815   21.2280 H   0  0  0  0  0  0
  -25.9203  -25.8267   19.0066 H   0  0  0  0  0  0
  -23.9942  -27.2843   18.9836 H   0  0  0  0  0  0
  -23.8174  -30.5509   19.3907 H   0  0  0  0  0  0
  -22.7962  -29.2219   19.8450 H   0  0  0  0  0  0
  -25.1328  -36.1800   25.0803 H   0  0  0  0  0  0
  -21.0072  -28.3267   24.1332 H   0  0  0  0  0  0
  -20.5681  -26.2316   23.3599 H   0  0  0  0  0  0
  -21.6643  -26.7390   22.1173 H   0  0  0  0  0  0
  -19.6898  -25.6321   21.1186 H   0  0  0  0  0  0
  -19.6664  -27.3256   20.6734 H   0  0  0  0  0  0
  -17.4205  -26.6768   21.4007 H   0  0  0  0  0  0
  -18.0271  -26.0057   22.8975 H   0  0  0  0  0  0
  -19.7988  -30.7345   24.2144 H   0  0  0  0  0  0
  -17.5065  -31.6289   24.5175 H   0  0  0  0  0  0
  -15.5383  -30.2977   23.7736 H   0  0  0  0  0  0
  -15.8713  -28.0846   22.7043 H   0  0  0  0  0  0
  -24.5886  -30.7112   25.7719 H   0  0  0  0  0  0
  -24.9018  -32.2915   26.4872 H   0  0  0  0  0  0
  -25.8064  -30.8849   27.0168 H   0  0  0  0  0  0
  -26.3074  -29.6640   24.1324 H   0  0  0  0  0  0
  -27.3972  -29.7242   25.4933 H   0  0  0  0  0  0
  -27.8988  -30.4132   23.9714 H   0  0  0  0  0  0
  -27.2594  -33.3622   26.2054 H   0  0  0  0  0  0
  -28.3873  -32.6933   25.0340 H   0  0  0  0  0  0
  -28.0732  -31.8506   26.5426 H   0  0  0  0  0  0
  -28.2580  -38.0059   24.7512 H   0  0  0  0  0  0
  -28.1067  -36.2593   24.6307 H   0  0  0  0  0  0
  -27.2273  -37.1420   25.8867 H   0  0  0  0  0  0
  -20.9450  -29.8799   21.6839 H   0  0  0  0  0  0
  -26.0125  -38.2778   24.1438 H   0  0  0  0  0  0
  -32.7803  -18.1009   19.2813 H   0  0  0  0  0  0
  -32.6070  -17.3167   20.8488 H   0  0  0  0  0  0
  -33.0358  -18.9991   20.7706 H   0  0  0  0  0  0
  -29.8875  -23.3365   19.7932 H   0  0  0  0  0  0
  -29.3470  -23.2322   21.4212 H   0  0  0  0  0  0
  -28.2636  -21.5146   19.0808 H   0  0  0  0  0  0
  -27.5693  -21.4314   20.6414 H   0  0  0  0  0  0
  -27.1409  -24.3996   20.8116 H   0  0  0  0  0  0
  -27.5856  -24.4034   19.1437 H   0  0  0  0  0  0
  -28.7444  -15.9225   20.8289 H   0  0  0  0  0  0
  1 25  1  0  0  0
  1 30  2  0  0  0
  1 80  1  0  0  0
  2  3  1  0  0  0
  2 25  1  0  0  0
  2 82  1  0  0  0
  2 83  1  0  0  0
  3  4  1  0  0  0
  3 84  1  0  0  0
  3 85  1  0  0  0
  4  5  1  0  0  0
  4 86  1  0  0  0
  4 87  1  0  0  0
  5  6  1  0  0  0
  5 26  1  0  0  0
  5 88  1  0  0  0
  6 25  1  0  0  0
  6 89  1  0  0  0
  6 90  1  0  0  0
  7  8  2  0  0  0
  7 26  1  0  0  0
  7 29  1  0  0  0
  8  9  1  0  0  0
  8 22  1  0  0  0
  9 10  1  0  0  0
  9 27  2  0  0  0
 10 11  2  0  0  0
 10 15  1  0  0  0
 11 12  1  0  0  0
 11 91  1  0  0  0
 12 13  2  0  0  0
 12 92  1  0  0  0
 13 14  1  0  0  0
 13 31  1  0  0  0
 14 15  2  0  0  0
 14 93  1  0  0  0
 15 94  1  0  0  0
 16 17  2  0  0  0
 16 21  1  0  0  0
 16 31  1  0  0  0
 17 18  1  0  0  0
 17 95  1  0  0  0
 18 19  2  0  0  0
 18 96  1  0  0  0
 19 20  1  0  0  0
 19 24  1  0  0  0
 20 21  2  0  0  0
 20 97  1  0  0  0
 21 23  1  0  0  0
 22 28  1  0  0  0
 22 32  2  0  0  0
 26 27  1  0  0  0
 28 98  1  0  0  0
 28 99  1  0  0  0
 29100  1  0  0  0
 29101  1  0  0  0
 33 34  1  0  0  0
 33 66  1  0  0  0
 33 70  2  0  0  0
 34 36  1  0  0  0
 34 59  1  0  0  0
 34102  1  0  0  0
 35 44  2  0  0  0
 35 45  1  0  0  0
 35 68  1  0  0  0
 36 56  1  0  0  0
 36103  1  0  0  0
 37 39  1  0  0  0
 37 47  1  0  0  0
 37 66  1  0  0  0
 37104  1  0  0  0
 38 43  2  0  0  0
 38 46  1  0  0  0
 38 47  1  0  0  0
 39 64  1  0  0  0
 39 67  2  0  0  0
 40 52  1  0  0  0
 40 53  2  0  0  0
 40 58  1  0  0  0
 41105  1  0  0  0
 41106  1  0  0  0
 41107  1  0  0  0
 41 48  1  0  0  0
 42 43  1  0  0  0
 42 66  1  0  0  0
 42108  1  0  0  0
 42109  1  0  0  0
 43 44  1  0  0  0
 44110  1  0  0  0
 45 46  2  0  0  0
 45111  1  0  0  0
 46112  1  0  0  0
 47113  1  0  0  0
 47114  1  0  0  0
 48 56  1  0  0  0
 48 65  1  0  0  0
 48115  1  0  0  0
 49 50  1  0  0  0
 49 53  1  0  0  0
 49 64  1  0  0  0
 49116  1  0  0  0
 50 51  1  0  0  0
 50117  1  0  0  0
 50118  1  0  0  0
 51 52  1  0  0  0
 51119  1  0  0  0
 51120  1  0  0  0
 52121  1  0  0  0
 52122  1  0  0  0
 53 54  1  0  0  0
 54 55  2  0  0  0
 54123  1  0  0  0
 55 57  1  0  0  0
 55124  1  0  0  0
 56 69  2  0  0  0
 57 58  2  0  0  0
 57125  1  0  0  0
 58126  1  0  0  0
 59 60  1  0  0  0
 59 61  1  0  0  0
 59 62  1  0  0  0
 60127  1  0  0  0
 60128  1  0  0  0
 60129  1  0  0  0
 61130  1  0  0  0
 61131  1  0  0  0
 61132  1  0  0  0
 62133  1  0  0  0
 62134  1  0  0  0
 62135  1  0  0  0
 63 65  1  0  0  0
 63136  1  0  0  0
 63137  1  0  0  0
 63138  1  0  0  0
 64139  1  0  0  0
 65140  1  0  0  0
 68 77  1  0  0  0
 71 72  1  0  0  0
 71 73  2  0  0  0
 71 80  1  0  0  0
 72 74  1  0  0  0
 72 78  2  0  0  0
 73 79  1  0  0  0
 73 81  1  0  0  0
 74141  1  0  0  0
 74142  1  0  0  0
 74143  1  0  0  0
 75 76  1  0  0  0
 75 77  1  0  0  0
 75144  1  0  0  0
 75145  1  0  0  0
 76 79  1  0  0  0
 76146  1  0  0  0
 76147  1  0  0  0
 77148  1  0  0  0
 77149  1  0  0  0
 78 79  1  0  0  0
 80150  1  0  0  0
M  ISO  4   1 100  68 101  77 101  80 100
M  END
> <chiral flag>
0

> <version>
0

> <s_m_source_file>
/data/baiqing/PycharmProjects/Reinvent-master-3.2/result/LINK_invent/BTK/process_docking_weight1_custom_sum_contain_oxygen_bond_distance_aromatic_linkinvent_7_9_3/rearranged_h_0023.sdf

> <i_m_source_file_index>
18

> <r_mmod_Potential_Energy-OPLS-2005>
570.291931152344

> <r_mmod_Stretch_Energy-OPLS-2005>
309.611389160156

> <r_mmod_Bend_Energy-OPLS-2005>
322.255065917969

> <r_mmod_Torsional_Energy-OPLS-2005>
222.165954589844

> <r_mmod_Improper_Torsional_Energy-OPLS-2005>
5.12865018844604

> <r_mmod_Van_der_Waal_Energy-OPLS-2005>
105.274765014648

> <r_mmod_Electrostatic_Energy-OPLS-2005>
-420.827453613281

> <r_mmod_Solvation_Energy-OPLS-2005>
-210.128814697266

> <b_mmod_Minimization_Converged-OPLS-2005>
0

> <r_mmod_RMS_Derivative-OPLS-2005>
5.39412641525269

$$$$
18
                    3D
 Structure written by MMmdl.
194202  0  0  1  0            999 V2000
  -30.4083  -15.3389   20.3877 C   0  0  0  0  0  0
  -30.4468  -12.8761   19.5066 C   0  0  0  0  0  0
  -29.5365  -12.5746   18.2877 C   0  0  0  0  0  0
  -28.0941  -12.2773   18.7347 C   0  0  0  0  0  0
  -27.6076  -13.2735   19.8137 C   0  0  2  0  0  0
  -28.6426  -13.4862   20.9374 C   0  0  0  0  0  0
  -25.2370  -13.8242   20.5744 C   0  0  0  0  0  0
  -24.1732  -13.0429   20.9276 C   0  0  0  0  0  0
  -24.6387  -11.6921   20.8765 C   0  0  0  0  0  0
  -23.9092  -10.4280   21.0413 C   0  0  0  0  0  0
  -24.3639   -9.4200   21.9194 C   0  0  0  0  0  0
  -23.6300   -8.2240   22.0756 C   0  0  0  0  0  0
  -22.4281   -8.0281   21.3551 C   0  0  0  0  0  0
  -21.9925   -9.0256   20.4649 C   0  0  0  0  0  0
  -22.7263  -10.2133   20.3060 C   0  0  0  0  0  0
  -21.6842   -6.0744   22.5280 C   0  0  0  0  0  0
  -21.4013   -6.5646   23.8216 C   0  0  0  0  0  0
  -21.3653   -5.6795   24.9177 C   0  0  0  0  0  0
  -21.6044   -4.3057   24.7225 C   0  0  0  0  0  0
  -21.8812   -3.8146   23.4349 C   0  0  0  0  0  0
  -21.9195   -4.6967   22.3406 C   0  0  0  0  0  0
  -22.7745  -13.5175   21.1916 C   0  0  0  0  0  0
  -22.1651   -4.2151   21.0985 F   0  0  0  0  0  0
  -21.5632   -3.4536   25.7739 F   0  0  0  0  0  0
  -29.8545  -14.0240   20.2910 N   0  0  0  0  0  0
  -26.2803  -12.9515   20.3208 N   0  0  0  0  0  0
  -25.9326  -11.6624   20.5729 N   0  0  0  0  0  0
  -22.0404  -12.8151   22.0481 N   0  0  0  0  0  0
  -25.3988  -15.1985   20.4180 N   0  0  0  0  0  0
  -31.6446  -15.3342   20.2772 O   0  0  0  0  0  0
  -21.6638   -6.8887   21.4246 O   0  0  0  0  0  0
  -22.3412  -14.5476   20.6762 O   0  0  0  0  0  0
  -24.6658  -31.8213   23.1666 C   0  0  0  0  0  0
  -25.9306  -32.4574   23.8156 C   0  0  1  0  0  0
  -27.2116  -26.8776   20.2130 C   0  0  0  0  0  0
  -25.5993  -33.8402   24.2072 N   0  0  0  0  0  0
  -23.4845  -30.4326   21.5165 C   0  0  2  0  0  0
  -24.9371  -28.8096   20.1213 C   0  0  0  0  0  0
  -22.7710  -29.4445   22.4763 C   0  0  0  0  0  0
  -18.0347  -28.1415   22.8494 C   0  0  0  0  0  0
  -24.1470  -36.7186   23.2655 C   0  0  0  0  0  0
  -26.0568  -30.6122   21.4082 C   0  0  0  0  0  0
  -26.1221  -29.1937   20.7633 C   0  0  0  0  0  0
  -27.2527  -28.2501   20.7836 C   0  0  0  0  0  0
  -26.0081  -26.6777   19.4950 C   0  0  0  0  0  0
  -24.9067  -27.5711   19.4660 C   0  0  0  0  0  0
  -23.7284  -29.7475   20.1443 C   0  0  0  0  0  0
  -25.4105  -36.2957   24.0325 C   0  0  1  0  0  0
  -20.5985  -28.3764   23.1178 C   0  0  2  0  0  0
  -20.6831  -26.9446   22.5396 C   0  0  0  0  0  0
  -19.5787  -26.6379   21.5230 C   0  0  0  0  0  0
  -18.1964  -26.7955   22.1616 C   0  0  0  0  0  0
  -19.1617  -28.8903   23.2822 C   0  0  0  0  0  0
  -18.9510  -30.1483   23.8858 C   0  0  0  0  0  0
  -17.6505  -30.6608   24.0556 C   0  0  0  0  0  0
  -25.9089  -34.9354   23.5015 C   0  0  0  0  0  0
  -16.5394  -29.9103   23.6354 C   0  0  0  0  0  0
  -16.7328  -28.6516   23.0399 C   0  0  0  0  0  0
  -26.4554  -31.6546   25.0707 C   0  0  0  0  0  0
  -25.3669  -31.3796   26.1352 C   0  0  0  0  0  0
  -27.0467  -30.2912   24.6495 C   0  0  0  0  0  0
  -27.6044  -32.4389   25.7480 C   0  0  0  0  0  0
  -27.5546  -37.1741   24.8481 C   0  0  0  0  0  0
  -21.4372  -29.3048   22.3520 N   0  0  0  0  0  0
  -26.4233  -37.3715   23.9455 N   0  0  0  0  0  0
  -24.7573  -30.9843   22.0831 N   0  0  0  0  0  0
  -23.4244  -28.8026   23.3023 O   0  0  0  0  0  0
  -28.2105  -25.7451   20.2000 O   0  0  0  0  0  0
  -26.5691  -34.8909   22.4608 O   0  0  0  0  0  0
  -23.5714  -32.1207   23.6715 O   0  0  0  0  0  0
  -28.7798  -21.1778   20.7349 C   0  0  0  0  0  0
  -30.1530  -20.1481   19.0596 C   0  0  0  0  0  0
  -29.4253  -19.8584   20.2276 C   0  0  0  0  0  0
  -28.8189  -22.6283   20.1633 C   0  0  0  0  0  0
  -30.3022  -21.4589   18.5105 C   0  0  0  0  0  0
  -29.6447  -22.6355   19.0092 C   0  0  0  0  0  0
  -33.2194  -10.4416   16.3088 C   0  0  0  0  0  0
  -33.6161  -22.1443   17.4399 C   0  0  0  0  0  0
  -26.5521  -23.8266   20.7382 C   0  0  0  0  0  0
  -28.5389  -24.3251   22.1368 C   0  0  0  0  0  0
  -36.4126  -14.7306   17.5185 C   0  0  0  0  0  0
  -35.3685  -15.3937   15.3416 C   0  0  0  0  0  0
  -29.6593  -18.2329   20.8884 C   0  0  0  0  0  0
  -33.0322  -11.8380   16.9159 C   0  0  0  0  0  0
  -34.1609  -12.8118   16.5456 C   0  0  0  0  0  0
  -33.7211  -18.8033   17.5735 C   0  0  0  0  0  0
  -32.7848  -19.7994   16.8658 C   0  0  0  0  0  0
  -33.9574  -14.2290   17.1304 C   0  0  0  0  0  0
  -33.8914  -17.4854   16.7928 C   0  0  0  0  0  0
  -32.5467  -21.0776   17.6973 C   0  0  2  0  0  0
  -28.0568  -24.1423   20.6900 C   0  0  0  0  0  0
  -35.1125  -15.2388   16.8616 C   0  0  0  0  0  0
  -31.2139  -21.6254   17.4518 N   0  0  0  0  0  0
  -29.6175  -16.6133   20.3946 N   0  0  0  0  0  0
  -34.7978  -16.5501   17.5001 N   0  3  0  0  0  0
  -29.9110  -24.1345   18.1801 Cl  0  0  0  0  0  0
  -31.4440  -13.1311   19.1486 H   0  0  0  0  0  0
  -30.5734  -11.9931   20.1346 H   0  0  0  0  0  0
  -29.9313  -11.7329   17.7171 H   0  0  0  0  0  0
  -29.5405  -13.4326   17.6132 H   0  0  0  0  0  0
  -28.0827  -11.2678   19.1481 H   0  0  0  0  0  0
  -27.4185  -12.2656   17.8801 H   0  0  0  0  0  0
  -27.5104  -14.2254   19.2891 H   0  0  0  0  0  0
  -28.8414  -12.5629   21.4831 H   0  0  0  0  0  0
  -28.2659  -14.2077   21.6649 H   0  0  0  0  0  0
  -25.2785   -9.5666   22.4769 H   0  0  0  0  0  0
  -23.9998   -7.4631   22.7474 H   0  0  0  0  0  0
  -21.0856   -8.8784   19.8959 H   0  0  0  0  0  0
  -22.3725  -10.9671   19.6164 H   0  0  0  0  0  0
  -21.1995   -7.6152   23.9720 H   0  0  0  0  0  0
  -21.1476   -6.0522   25.9079 H   0  0  0  0  0  0
  -22.0592   -2.7605   23.2845 H   0  0  0  0  0  0
  -22.4017  -11.9818   22.4874 H   0  0  0  0  0  0
  -21.1020  -13.1168   22.2695 H   0  0  0  0  0  0
  -24.6266  -15.8463   20.5330 H   0  0  0  0  0  0
  -26.2414  -15.6476   20.0851 H   0  0  0  0  0  0
  -26.7394  -32.5085   23.0878 H   0  0  0  0  0  0
  -25.0225  -33.9473   25.0285 H   0  0  0  0  0  0
  -22.8023  -31.2664   21.3432 H   0  0  0  0  0  0
  -23.3753  -35.9485   23.3265 H   0  0  0  0  0  0
  -24.3580  -36.8864   22.2083 H   0  0  0  0  0  0
  -23.7177  -37.6346   23.6731 H   0  0  0  0  0  0
  -26.2455  -31.3437   20.6220 H   0  0  0  0  0  0
  -26.9117  -30.6758   22.0667 H   0  0  0  0  0  0
  -28.1508  -28.5491   21.3043 H   0  0  0  0  0  0
  -25.8875  -25.7514   18.9562 H   0  0  0  0  0  0
  -24.0168  -27.2746   18.9277 H   0  0  0  0  0  0
  -23.8988  -30.5127   19.3866 H   0  0  0  0  0  0
  -22.8370  -29.2110   19.8163 H   0  0  0  0  0  0
  -25.1303  -36.1736   25.0813 H   0  0  0  0  0  0
  -21.0073  -28.3334   24.1298 H   0  0  0  0  0  0
  -20.5728  -26.2388   23.3642 H   0  0  0  0  0  0
  -21.6694  -26.7446   22.1177 H   0  0  0  0  0  0
  -19.6950  -25.6280   21.1291 H   0  0  0  0  0  0
  -19.6699  -27.3166   20.6740 H   0  0  0  0  0  0
  -17.4247  -26.6739   21.3991 H   0  0  0  0  0  0
  -18.0306  -26.0105   22.9000 H   0  0  0  0  0  0
  -19.7983  -30.7326   24.2192 H   0  0  0  0  0  0
  -17.5065  -31.6281   24.5165 H   0  0  0  0  0  0
  -15.5393  -30.2994   23.7694 H   0  0  0  0  0  0
  -15.8728  -28.0800   22.7166 H   0  0  0  0  0  0
  -24.5865  -30.7138   25.7648 H   0  0  0  0  0  0
  -24.8824  -32.2994   26.4657 H   0  0  0  0  0  0
  -25.7884  -30.9035   27.0213 H   0  0  0  0  0  0
  -26.3155  -29.6556   24.1495 H   0  0  0  0  0  0
  -27.3982  -29.7329   25.5183 H   0  0  0  0  0  0
  -27.9112  -30.4089   23.9954 H   0  0  0  0  0  0
  -27.2627  -33.3774   26.1856 H   0  0  0  0  0  0
  -28.3920  -32.6809   25.0329 H   0  0  0  0  0  0
  -28.0655  -31.8660   26.5529 H   0  0  0  0  0  0
  -28.2545  -38.0061   24.7558 H   0  0  0  0  0  0
  -28.1048  -36.2600   24.6234 H   0  0  0  0  0  0
  -27.2312  -37.1294   25.8894 H   0  0  0  0  0  0
  -20.9633  -29.8749   21.6660 H   0  0  0  0  0  0
  -26.0069  -38.2753   24.1489 H   0  0  0  0  0  0
  -28.2234  -21.0803   21.6569 H   0  0  0  0  0  0
  -30.6957  -19.3256   18.6194 H   0  0  0  0  0  0
  -32.4040   -9.7796   16.6033 H   0  0  0  0  0  0
  -34.1512   -9.9808   16.6409 H   0  0  0  0  0  0
  -33.2356  -10.4769   15.2184 H   0  0  0  0  0  0
  -34.6154  -21.7531   17.6312 H   0  0  0  0  0  0
  -33.4766  -23.0013   18.0999 H   0  0  0  0  0  0
  -33.5957  -22.5059   16.4122 H   0  0  0  0  0  0
  -26.3629  -22.9138   21.3022 H   0  0  0  0  0  0
  -26.1509  -23.6646   19.7400 H   0  0  0  0  0  0
  -25.9762  -24.6157   21.2228 H   0  0  0  0  0  0
  -28.3447  -23.4416   22.7451 H   0  0  0  0  0  0
  -28.0515  -25.1708   22.6216 H   0  0  0  0  0  0
  -29.6133  -24.5124   22.1590 H   0  0  0  0  0  0
  -36.7752  -13.8122   17.0596 H   0  0  0  0  0  0
  -36.2752  -14.5309   18.5817 H   0  0  0  0  0  0
  -37.2192  -15.4579   17.4227 H   0  0  0  0  0  0
  -35.7679  -14.4769   14.9080 H   0  0  0  0  0  0
  -36.0973  -16.1779   15.1333 H   0  0  0  0  0  0
  -34.4553  -15.6276   14.7925 H   0  0  0  0  0  0
  -28.9688  -18.2309   21.7332 H   0  0  0  0  0  0
  -30.6372  -18.3100   21.3635 H   0  0  0  0  0  0
  -32.9762  -11.7443   18.0015 H   0  0  0  0  0  0
  -32.0749  -12.2453   16.5877 H   0  0  0  0  0  0
  -34.2347  -12.8658   15.4587 H   0  0  0  0  0  0
  -35.1013  -12.3873   16.8978 H   0  0  0  0  0  0
  -33.3226  -18.5851   18.5658 H   0  0  0  0  0  0
  -34.6961  -19.2697   17.7262 H   0  0  0  0  0  0
  -31.8388  -19.2917   16.6711 H   0  0  0  0  0  0
  -33.1811  -20.0588   15.8826 H   0  0  0  0  0  0
  -33.8068  -14.1381   18.2081 H   0  0  0  0  0  0
  -33.0195  -14.6273   16.7399 H   0  0  0  0  0  0
  -34.2862  -17.7262   15.8053 H   0  0  0  0  0  0
  -32.9207  -17.0118   16.6419 H   0  0  0  0  0  0
  -32.6320  -20.8196   18.7547 H   0  0  0  0  0  0
  -31.2203  -22.5903   17.1291 H   0  0  0  0  0  0
  -28.6540  -16.3627   20.2300 H   0  0  0  0  0  0
  -34.4248  -16.3748   18.4203 H   0  0  0  0  0  0
  -35.6708  -17.0380   17.6307 H   0  0  0  0  0  0
  1 25  1  0  0  0
  1 30  2  0  0  0
  1 94  1  0  0  0
  2  3  1  0  0  0
  2 25  1  0  0  0
  2 97  1  0  0  0
  2 98  1  0  0  0
  3  4  1  0  0  0
  3 99  1  0  0  0
  3100  1  0  0  0
  4  5  1  0  0  0
  4101  1  0  0  0
  4102  1  0  0  0
  5  6  1  0  0  0
  5 26  1  0  0  0
  5103  1  0  0  0
  6 25  1  0  0  0
  6104  1  0  0  0
  6105  1  0  0  0
  7  8  2  0  0  0
  7 26  1  0  0  0
  7 29  1  0  0  0
  8  9  1  0  0  0
  8 22  1  0  0  0
  9 10  1  0  0  0
  9 27  2  0  0  0
 10 11  2  0  0  0
 10 15  1  0  0  0
 11 12  1  0  0  0
 11106  1  0  0  0
 12 13  2  0  0  0
 12107  1  0  0  0
 13 14  1  0  0  0
 13 31  1  0  0  0
 14 15  2  0  0  0
 14108  1  0  0  0
 15109  1  0  0  0
 16 17  2  0  0  0
 16 21  1  0  0  0
 16 31  1  0  0  0
 17 18  1  0  0  0
 17110  1  0  0  0
 18 19  2  0  0  0
 18111  1  0  0  0
 19 20  1  0  0  0
 19 24  1  0  0  0
 20 21  2  0  0  0
 20112  1  0  0  0
 21 23  1  0  0  0
 22 28  1  0  0  0
 22 32  2  0  0  0
 26 27  1  0  0  0
 28113  1  0  0  0
 28114  1  0  0  0
 29115  1  0  0  0
 29116  1  0  0  0
 33 34  1  0  0  0
 33 66  1  0  0  0
 33 70  2  0  0  0
 34 36  1  0  0  0
 34 59  1  0  0  0
 34117  1  0  0  0
 35 44  2  0  0  0
 35 45  1  0  0  0
 35 68  1  0  0  0
 36 56  1  0  0  0
 36118  1  0  0  0
 37 39  1  0  0  0
 37 47  1  0  0  0
 37 66  1  0  0  0
 37119  1  0  0  0
 38 43  2  0  0  0
 38 46  1  0  0  0
 38 47  1  0  0  0
 39 64  1  0  0  0
 39 67  2  0  0  0
 40 52  1  0  0  0
 40 53  2  0  0  0
 40 58  1  0  0  0
 41120  1  0  0  0
 41121  1  0  0  0
 41122  1  0  0  0
 41 48  1  0  0  0
 42 43  1  0  0  0
 42 66  1  0  0  0
 42123  1  0  0  0
 42124  1  0  0  0
 43 44  1  0  0  0
 44125  1  0  0  0
 45 46  2  0  0  0
 45126  1  0  0  0
 46127  1  0  0  0
 47128  1  0  0  0
 47129  1  0  0  0
 48 56  1  0  0  0
 48 65  1  0  0  0
 48130  1  0  0  0
 49 50  1  0  0  0
 49 53  1  0  0  0
 49 64  1  0  0  0
 49131  1  0  0  0
 50 51  1  0  0  0
 50132  1  0  0  0
 50133  1  0  0  0
 51 52  1  0  0  0
 51134  1  0  0  0
 51135  1  0  0  0
 52136  1  0  0  0
 52137  1  0  0  0
 53 54  1  0  0  0
 54 55  2  0  0  0
 54138  1  0  0  0
 55 57  1  0  0  0
 55139  1  0  0  0
 56 69  2  0  0  0
 57 58  2  0  0  0
 57140  1  0  0  0
 58141  1  0  0  0
 59 60  1  0  0  0
 59 61  1  0  0  0
 59 62  1  0  0  0
 60142  1  0  0  0
 60143  1  0  0  0
 60144  1  0  0  0
 61145  1  0  0  0
 61146  1  0  0  0
 61147  1  0  0  0
 62148  1  0  0  0
 62149  1  0  0  0
 62150  1  0  0  0
 63 65  1  0  0  0
 63151  1  0  0  0
 63152  1  0  0  0
 63153  1  0  0  0
 64154  1  0  0  0
 65155  1  0  0  0
 68 91  1  0  0  0
 71 73  2  0  0  0
 71 74  1  0  0  0
 71156  1  0  0  0
 72 73  1  0  0  0
 72 75  2  0  0  0
 72157  1  0  0  0
 73 83  1  0  0  0
 74 76  2  0  0  0
 74 91  1  0  0  0
 75 76  1  0  0  0
 75 93  1  0  0  0
 76 96  1  0  0  0
 77 84  1  0  0  0
 77158  1  0  0  0
 77159  1  0  0  0
 77160  1  0  0  0
 78161  1  0  0  0
 78162  1  0  0  0
 78163  1  0  0  0
 78 90  1  0  0  0
 79164  1  0  0  0
 79165  1  0  0  0
 79166  1  0  0  0
 79 91  1  0  0  0
 80 91  1  0  0  0
 80167  1  0  0  0
 80168  1  0  0  0
 80169  1  0  0  0
 81170  1  0  0  0
 81171  1  0  0  0
 81172  1  0  0  0
 81 92  1  0  0  0
 82 92  1  0  0  0
 82173  1  0  0  0
 82174  1  0  0  0
 82175  1  0  0  0
 83 94  1  0  0  0
 83176  1  0  0  0
 83177  1  0  0  0
 84 85  1  0  0  0
 84178  1  0  0  0
 84179  1  0  0  0
 85 88  1  0  0  0
 85180  1  0  0  0
 85181  1  0  0  0
 86 87  1  0  0  0
 86 89  1  0  0  0
 86182  1  0  0  0
 86183  1  0  0  0
 87 90  1  0  0  0
 87184  1  0  0  0
 87185  1  0  0  0
 88 92  1  0  0  0
 88186  1  0  0  0
 88187  1  0  0  0
 89 95  1  0  0  0
 89188  1  0  0  0
 89189  1  0  0  0
 90 93  1  0  0  0
 90190  1  0  0  0
 92 95  1  0  0  0
 93191  1  0  0  0
 94192  1  0  0  0
 95193  1  0  0  0
 95194  1  0  0  0
M  CHG  1  95   1
M  ISO  4   1 100  68 101  91 101  94 100
M  END
> <chiral flag>
0

> <version>
0

> <s_m_source_file>
/data/baiqing/PycharmProjects/Reinvent-master-3.2/result/LINK_invent/BTK/process_docking_weight1_custom_sum_contain_oxygen_bond_distance_aromatic_linkinvent_7_9_3/rearranged_h_0023.sdf

> <i_m_source_file_index>
19

> <r_mmod_Potential_Energy-OPLS-2005>
1316.2587890625

> <r_mmod_Stretch_Energy-OPLS-2005>
655.795288085938

> <r_mmod_Bend_Energy-OPLS-2005>
485.425262451172

> <r_mmod_Torsional_Energy-OPLS-2005>
279.742462158203

> <r_mmod_Improper_Torsional_Energy-OPLS-2005>
11.8249177932739

> <r_mmod_Van_der_Waal_Energy-OPLS-2005>
121.670204162598

> <r_mmod_Electrostatic_Energy-OPLS-2005>
-363.575836181641

> <r_mmod_Solvation_Energy-OPLS-2005>
-414.7177734375

> <b_mmod_Minimization_Converged-OPLS-2005>
0

> <r_mmod_RMS_Derivative-OPLS-2005>
3.21898937225342

$$$$
19
                    3D
 Structure written by MMmdl.
168176  0  0  1  0            999 V2000
  -30.6468  -14.4761   20.5456 C   0  0  0  0  0  0
  -30.4391  -12.3282   19.3775 C   0  0  0  0  0  0
  -29.4734  -12.4895   18.1850 C   0  0  0  0  0  0
  -28.0109  -12.2973   18.6330 C   0  0  0  0  0  0
  -27.6554  -13.1758   19.8609 C   0  0  2  0  0  0
  -28.7021  -12.9596   20.9838 C   0  0  0  0  0  0
  -25.2597  -13.8061   20.5586 C   0  0  0  0  0  0
  -24.1853  -13.0398   20.9126 C   0  0  0  0  0  0
  -24.6330  -11.6845   20.8715 C   0  0  0  0  0  0
  -23.8964  -10.4255   21.0418 C   0  0  0  0  0  0
  -24.3515   -9.4187   21.9190 C   0  0  0  0  0  0
  -23.6206   -8.2226   22.0795 C   0  0  0  0  0  0
  -22.4204   -8.0282   21.3582 C   0  0  0  0  0  0
  -21.9810   -9.0235   20.4683 C   0  0  0  0  0  0
  -22.7141  -10.2114   20.3084 C   0  0  0  0  0  0
  -21.6864   -6.0685   22.5242 C   0  0  0  0  0  0
  -21.3982   -6.5570   23.8174 C   0  0  0  0  0  0
  -21.3655   -5.6751   24.9139 C   0  0  0  0  0  0
  -21.6051   -4.3010   24.7215 C   0  0  0  0  0  0
  -21.8825   -3.8098   23.4334 C   0  0  0  0  0  0
  -21.9174   -4.6893   22.3381 C   0  0  0  0  0  0
  -22.7887  -13.5262   21.1750 C   0  0  0  0  0  0
  -22.1653   -4.2082   21.0955 F   0  0  0  0  0  0
  -21.5642   -3.4524   25.7708 F   0  0  0  0  0  0
  -30.0289  -13.2760   20.4238 N   0  0  0  0  0  0
  -26.3003  -12.9181   20.3311 N   0  0  0  0  0  0
  -25.9257  -11.6385   20.5771 N   0  0  0  0  0  0
  -22.0486  -12.8371   22.0341 N   0  0  0  0  0  0
  -25.4229  -15.1779   20.3808 N   0  0  0  0  0  0
  -31.7915  -14.7083   20.1384 O   0  0  0  0  0  0
  -21.6634   -6.8833   21.4236 O   0  0  0  0  0  0
  -22.3648  -14.5581   20.6575 O   0  0  0  0  0  0
  -24.6191  -31.8637   23.2081 C   0  0  0  0  0  0
  -25.9080  -32.4792   23.8324 C   0  0  1  0  0  0
  -27.2231  -27.4143   20.0976 C   0  0  0  0  0  0
  -25.5904  -33.8590   24.2261 N   0  0  0  0  0  0
  -23.4043  -30.4906   21.5523 C   0  0  2  0  0  0
  -24.8423  -28.9472   20.1220 C   0  0  0  0  0  0
  -22.7385  -29.4683   22.5029 C   0  0  0  0  0  0
  -18.0261  -28.1431   22.8508 C   0  0  0  0  0  0
  -24.1474  -36.7273   23.2630 C   0  0  0  0  0  0
  -25.9335  -30.8289   21.3566 C   0  0  0  0  0  0
  -26.0052  -29.4621   20.7021 C   0  0  0  0  0  0
  -27.1989  -28.7044   20.6796 C   0  0  0  0  0  0
  -26.0330  -26.9077   19.5247 C   0  0  0  0  0  0
  -24.8486  -27.6678   19.5368 C   0  0  0  0  0  0
  -23.6076  -29.8170   20.1684 C   0  0  0  0  0  0
  -25.4107  -36.3072   24.0307 C   0  0  1  0  0  0
  -20.5845  -28.3707   23.1346 C   0  0  2  0  0  0
  -20.6730  -26.9427   22.5495 C   0  0  0  0  0  0
  -19.5743  -26.6426   21.5237 C   0  0  0  0  0  0
  -18.1893  -26.7992   22.1585 C   0  0  0  0  0  0
  -19.1507  -28.8871   23.2924 C   0  0  0  0  0  0
  -18.9449  -30.1466   23.8985 C   0  0  0  0  0  0
  -17.6465  -30.6625   24.0618 C   0  0  0  0  0  0
  -25.9058  -34.9451   23.5090 C   0  0  0  0  0  0
  -16.5359  -29.9162   23.6334 C   0  0  0  0  0  0
  -16.7260  -28.6563   23.0374 C   0  0  0  0  0  0
  -26.4498  -31.6558   25.0668 C   0  0  0  0  0  0
  -25.3739  -31.3688   26.1391 C   0  0  0  0  0  0
  -27.0281  -30.2952   24.6093 C   0  0  0  0  0  0
  -27.6042  -32.4292   25.7484 C   0  0  0  0  0  0
  -27.5609  -37.1733   24.8410 C   0  0  0  0  0  0
  -21.4107  -29.3058   22.3727 N   0  0  0  0  0  0
  -26.4232  -37.3797   23.9489 N   0  0  0  0  0  0
  -24.6729  -31.0750   22.0975 N   0  0  0  0  0  0
  -23.4128  -28.8203   23.3056 O   0  0  0  0  0  0
  -28.4118  -26.7112   20.1168 O   0  0  0  0  0  0
  -26.5670  -34.8925   22.4691 O   0  0  0  0  0  0
  -23.5398  -32.1399   23.7454 O   0  0  0  0  0  0
  -26.7155  -18.5544   19.8595 C   0  0  0  0  0  0
  -27.9333  -17.8575   19.7657 C   0  0  0  0  0  0
  -28.6884  -17.6363   20.9442 C   0  0  0  0  0  0
  -28.1588  -18.1290   22.1664 C   0  0  0  0  0  0
  -26.2824  -19.0095   21.1122 C   0  0  0  0  0  0
  -28.4128  -17.3823   18.4072 C   0  0  0  0  0  0
  -28.8816  -17.9416   23.4894 C   0  0  0  0  0  0
  -30.0261  -16.8877   20.8827 C   0  0  0  0  0  0
  -26.7869  -23.7173   20.8006 C   0  0  0  0  0  0
  -26.6376  -22.3243   21.4507 C   0  0  0  0  0  0
  -28.2198  -24.2913   20.7874 C   0  0  0  0  0  0
  -25.1704  -22.0482   21.8478 C   0  0  0  0  0  0
  -28.4804  -25.3421   19.6765 C   0  0  0  0  0  0
  -24.8504  -20.6028   22.2701 C   0  0  0  0  0  0
  -26.9835  -18.7891   22.2438 N   0  0  0  0  0  0
  -29.8210  -15.4492   20.9547 N   0  0  0  0  0  0
  -25.0929  -19.7036   21.1857 O   0  0  0  0  0  0
  -31.4671  -12.4945   19.0471 H   0  0  0  0  0  0
  -30.4178  -11.3107   19.7612 H   0  0  0  0  0  0
  -29.7277  -11.7748   17.3958 H   0  0  0  0  0  0
  -29.5899  -13.4860   17.7530 H   0  0  0  0  0  0
  -27.8828  -11.2456   18.8964 H   0  0  0  0  0  0
  -27.3231  -12.4934   17.8096 H   0  0  0  0  0  0
  -27.6900  -14.2124   19.5242 H   0  0  0  0  0  0
  -28.6953  -11.9280   21.3336 H   0  0  0  0  0  0
  -28.4521  -13.5512   21.8674 H   0  0  0  0  0  0
  -25.2661   -9.5641   22.4760 H   0  0  0  0  0  0
  -23.9872   -7.4624   22.7527 H   0  0  0  0  0  0
  -21.0742   -8.8772   19.8959 H   0  0  0  0  0  0
  -22.3636  -10.9646   19.6181 H   0  0  0  0  0  0
  -21.1997   -7.6075   23.9670 H   0  0  0  0  0  0
  -21.1476   -6.0471   25.9039 H   0  0  0  0  0  0
  -22.0614   -2.7567   23.2855 H   0  0  0  0  0  0
  -22.4043  -12.0049   22.4806 H   0  0  0  0  0  0
  -21.1135  -13.1539   22.2460 H   0  0  0  0  0  0
  -24.6164  -15.7910   20.4012 H   0  0  0  0  0  0
  -26.2537  -15.6300   20.0208 H   0  0  0  0  0  0
  -26.7172  -32.5480   23.1089 H   0  0  0  0  0  0
  -24.9907  -33.9730   25.0302 H   0  0  0  0  0  0
  -22.6980  -31.3115   21.4097 H   0  0  0  0  0  0
  -23.3780  -35.9545   23.3167 H   0  0  0  0  0  0
  -24.3572  -36.9044   22.2070 H   0  0  0  0  0  0
  -23.7125  -37.6385   23.6766 H   0  0  0  0  0  0
  -26.0498  -31.5976   20.5901 H   0  0  0  0  0  0
  -26.8195  -30.8764   21.9773 H   0  0  0  0  0  0
  -28.1023  -29.1066   21.1164 H   0  0  0  0  0  0
  -25.9850  -25.9268   19.0810 H   0  0  0  0  0  0
  -23.9453  -27.2562   19.1094 H   0  0  0  0  0  0
  -23.7192  -30.5911   19.4083 H   0  0  0  0  0  0
  -22.7307  -29.2405   19.8692 H   0  0  0  0  0  0
  -25.1270  -36.1883   25.0773 H   0  0  0  0  0  0
  -20.9956  -28.3341   24.1449 H   0  0  0  0  0  0
  -20.5590  -26.2358   23.3721 H   0  0  0  0  0  0
  -21.6632  -26.7418   22.1388 H   0  0  0  0  0  0
  -19.6932  -25.6327   21.1301 H   0  0  0  0  0  0
  -19.6748  -27.3250   20.6795 H   0  0  0  0  0  0
  -17.4211  -26.6854   21.3923 H   0  0  0  0  0  0
  -18.0186  -26.0097   22.8936 H   0  0  0  0  0  0
  -19.7898  -30.7243   24.2439 H   0  0  0  0  0  0
  -17.5005  -31.6311   24.5238 H   0  0  0  0  0  0
  -15.5372  -30.3122   23.7565 H   0  0  0  0  0  0
  -15.8660  -28.0915   22.7088 H   0  0  0  0  0  0
  -24.6110  -30.6780   25.7806 H   0  0  0  0  0  0
  -24.8699  -32.2814   26.4589 H   0  0  0  0  0  0
  -25.8106  -30.9154   27.0290 H   0  0  0  0  0  0
  -26.2792  -29.6761   24.1146 H   0  0  0  0  0  0
  -27.3952  -29.7182   25.4594 H   0  0  0  0  0  0
  -27.8698  -30.4198   23.9269 H   0  0  0  0  0  0
  -27.2615  -33.3572   26.2083 H   0  0  0  0  0  0
  -28.3866  -32.6871   25.0337 H   0  0  0  0  0  0
  -28.0685  -31.8389   26.5387 H   0  0  0  0  0  0
  -28.2477  -38.0190   24.7687 H   0  0  0  0  0  0
  -28.1234  -36.2713   24.5896 H   0  0  0  0  0  0
  -27.2371  -37.1018   25.8810 H   0  0  0  0  0  0
  -20.9293  -29.8750   21.6912 H   0  0  0  0  0  0
  -26.0085  -38.2810   24.1705 H   0  0  0  0  0  0
  -26.1163  -18.7579   18.9823 H   0  0  0  0  0  0
  -27.6329  -17.4704   17.6542 H   0  0  0  0  0  0
  -28.7208  -16.3367   18.4381 H   0  0  0  0  0  0
  -29.2642  -17.9850   18.0871 H   0  0  0  0  0  0
  -29.8321  -18.4726   23.4712 H   0  0  0  0  0  0
  -29.0732  -16.8858   23.6856 H   0  0  0  0  0  0
  -28.3075  -18.3328   24.3321 H   0  0  0  0  0  0
  -30.7062  -17.2022   21.6747 H   0  0  0  0  0  0
  -30.5298  -17.1493   19.9508 H   0  0  0  0  0  0
  -26.1275  -24.4313   21.2939 H   0  0  0  0  0  0
  -26.4245  -23.6203   19.7777 H   0  0  0  0  0  0
  -27.2831  -22.2139   22.3246 H   0  0  0  0  0  0
  -26.9715  -21.5807   20.7249 H   0  0  0  0  0  0
  -28.9204  -23.4669   20.6473 H   0  0  0  0  0  0
  -28.4705  -24.7103   21.7632 H   0  0  0  0  0  0
  -24.5168  -22.3223   21.0188 H   0  0  0  0  0  0
  -24.9034  -22.7140   22.6678 H   0  0  0  0  0  0
  -27.9034  -25.1371   18.7733 H   0  0  0  0  0  0
  -29.5125  -25.2051   19.3524 H   0  0  0  0  0  0
  -23.7852  -20.5432   22.4958 H   0  0  0  0  0  0
  -25.3474  -20.3477   23.2047 H   0  0  0  0  0  0
  -28.8879  -15.1520   21.1896 H   0  0  0  0  0  0
  1 25  1  0  0  0
  1 30  2  0  0  0
  1 86  1  0  0  0
  2  3  1  0  0  0
  2 25  1  0  0  0
  2 88  1  0  0  0
  2 89  1  0  0  0
  3  4  1  0  0  0
  3 90  1  0  0  0
  3 91  1  0  0  0
  4  5  1  0  0  0
  4 92  1  0  0  0
  4 93  1  0  0  0
  5  6  1  0  0  0
  5 26  1  0  0  0
  5 94  1  0  0  0
  6 25  1  0  0  0
  6 95  1  0  0  0
  6 96  1  0  0  0
  7  8  2  0  0  0
  7 26  1  0  0  0
  7 29  1  0  0  0
  8  9  1  0  0  0
  8 22  1  0  0  0
  9 10  1  0  0  0
  9 27  2  0  0  0
 10 11  2  0  0  0
 10 15  1  0  0  0
 11 12  1  0  0  0
 11 97  1  0  0  0
 12 13  2  0  0  0
 12 98  1  0  0  0
 13 14  1  0  0  0
 13 31  1  0  0  0
 14 15  2  0  0  0
 14 99  1  0  0  0
 15100  1  0  0  0
 16 17  2  0  0  0
 16 21  1  0  0  0
 16 31  1  0  0  0
 17 18  1  0  0  0
 17101  1  0  0  0
 18 19  2  0  0  0
 18102  1  0  0  0
 19 20  1  0  0  0
 19 24  1  0  0  0
 20 21  2  0  0  0
 20103  1  0  0  0
 21 23  1  0  0  0
 22 28  1  0  0  0
 22 32  2  0  0  0
 26 27  1  0  0  0
 28104  1  0  0  0
 28105  1  0  0  0
 29106  1  0  0  0
 29107  1  0  0  0
 33 34  1  0  0  0
 33 66  1  0  0  0
 33 70  2  0  0  0
 34 36  1  0  0  0
 34 59  1  0  0  0
 34108  1  0  0  0
 35 44  2  0  0  0
 35 45  1  0  0  0
 35 68  1  0  0  0
 36 56  1  0  0  0
 36109  1  0  0  0
 37 39  1  0  0  0
 37 47  1  0  0  0
 37 66  1  0  0  0
 37110  1  0  0  0
 38 43  2  0  0  0
 38 46  1  0  0  0
 38 47  1  0  0  0
 39 64  1  0  0  0
 39 67  2  0  0  0
 40 52  1  0  0  0
 40 53  2  0  0  0
 40 58  1  0  0  0
 41111  1  0  0  0
 41112  1  0  0  0
 41113  1  0  0  0
 41 48  1  0  0  0
 42 43  1  0  0  0
 42 66  1  0  0  0
 42114  1  0  0  0
 42115  1  0  0  0
 43 44  1  0  0  0
 44116  1  0  0  0
 45 46  2  0  0  0
 45117  1  0  0  0
 46118  1  0  0  0
 47119  1  0  0  0
 47120  1  0  0  0
 48 56  1  0  0  0
 48 65  1  0  0  0
 48121  1  0  0  0
 49 50  1  0  0  0
 49 53  1  0  0  0
 49 64  1  0  0  0
 49122  1  0  0  0
 50 51  1  0  0  0
 50123  1  0  0  0
 50124  1  0  0  0
 51 52  1  0  0  0
 51125  1  0  0  0
 51126  1  0  0  0
 52127  1  0  0  0
 52128  1  0  0  0
 53 54  1  0  0  0
 54 55  2  0  0  0
 54129  1  0  0  0
 55 57  1  0  0  0
 55130  1  0  0  0
 56 69  2  0  0  0
 57 58  2  0  0  0
 57131  1  0  0  0
 58132  1  0  0  0
 59 60  1  0  0  0
 59 61  1  0  0  0
 59 62  1  0  0  0
 60133  1  0  0  0
 60134  1  0  0  0
 60135  1  0  0  0
 61136  1  0  0  0
 61137  1  0  0  0
 61138  1  0  0  0
 62139  1  0  0  0
 62140  1  0  0  0
 62141  1  0  0  0
 63 65  1  0  0  0
 63142  1  0  0  0
 63143  1  0  0  0
 63144  1  0  0  0
 64145  1  0  0  0
 65146  1  0  0  0
 68 83  1  0  0  0
 71 72  2  0  0  0
 71 75  1  0  0  0
 71147  1  0  0  0
 72 73  1  0  0  0
 72 76  1  0  0  0
 73 74  2  0  0  0
 73 78  1  0  0  0
 74 77  1  0  0  0
 74 85  1  0  0  0
 75 85  2  0  0  0
 75 87  1  0  0  0
 76148  1  0  0  0
 76149  1  0  0  0
 76150  1  0  0  0
 77151  1  0  0  0
 77152  1  0  0  0
 77153  1  0  0  0
 78 86  1  0  0  0
 78154  1  0  0  0
 78155  1  0  0  0
 79 80  1  0  0  0
 79 81  1  0  0  0
 79156  1  0  0  0
 79157  1  0  0  0
 80 82  1  0  0  0
 80158  1  0  0  0
 80159  1  0  0  0
 81 83  1  0  0  0
 81160  1  0  0  0
 81161  1  0  0  0
 82 84  1  0  0  0
 82162  1  0  0  0
 82163  1  0  0  0
 83164  1  0  0  0
 83165  1  0  0  0
 84 87  1  0  0  0
 84166  1  0  0  0
 84167  1  0  0  0
 86168  1  0  0  0
M  ISO  4   1 100  68 101  83 101  86 100
M  END
> <chiral flag>
0

> <version>
0

> <s_m_source_file>
/data/baiqing/PycharmProjects/Reinvent-master-3.2/result/LINK_invent/BTK/process_docking_weight1_custom_sum_contain_oxygen_bond_distance_aromatic_linkinvent_7_9_3/rearranged_h_0023.sdf

> <i_m_source_file_index>
20

> <r_mmod_Potential_Energy-OPLS-2005>
-201.552932739258

> <r_mmod_Stretch_Energy-OPLS-2005>
35.7762336730957

> <r_mmod_Bend_Energy-OPLS-2005>
116.227813720703

> <r_mmod_Torsional_Energy-OPLS-2005>
204.058090209961

> <r_mmod_Improper_Torsional_Energy-OPLS-2005>
5.83116388320923

> <r_mmod_Van_der_Waal_Energy-OPLS-2005>
150.852355957031

> <r_mmod_Electrostatic_Energy-OPLS-2005>
-529.244018554688

> <r_mmod_Solvation_Energy-OPLS-2005>
-202.831909179688

> <b_mmod_Minimization_Converged-OPLS-2005>
0

> <r_mmod_RMS_Derivative-OPLS-2005>
6.50349378585815

$$$$
20
                    3D
 Structure written by MMmdl.
165173  0  0  1  0            999 V2000
  -30.6008  -14.6297   20.5134 C   0  0  0  0  0  0
  -30.4412  -12.3942   19.4402 C   0  0  0  0  0  0
  -29.5053  -12.5364   18.2187 C   0  0  0  0  0  0
  -28.0256  -12.3787   18.6241 C   0  0  0  0  0  0
  -27.6577  -13.2190   19.8758 C   0  0  2  0  0  0
  -28.7025  -13.0304   20.9979 C   0  0  0  0  0  0
  -25.2573  -13.8174   20.5716 C   0  0  0  0  0  0
  -24.1839  -13.0441   20.9194 C   0  0  0  0  0  0
  -24.6421  -11.6910   20.8747 C   0  0  0  0  0  0
  -23.9100  -10.4290   21.0412 C   0  0  0  0  0  0
  -24.3645   -9.4196   21.9177 C   0  0  0  0  0  0
  -23.6314   -8.2240   22.0758 C   0  0  0  0  0  0
  -22.4291   -8.0294   21.3559 C   0  0  0  0  0  0
  -21.9944   -9.0262   20.4638 C   0  0  0  0  0  0
  -22.7282  -10.2137   20.3045 C   0  0  0  0  0  0
  -21.6856   -6.0746   22.5280 C   0  0  0  0  0  0
  -21.4009   -6.5651   23.8211 C   0  0  0  0  0  0
  -21.3661   -5.6805   24.9179 C   0  0  0  0  0  0
  -21.6051   -4.3064   24.7225 C   0  0  0  0  0  0
  -21.8826   -3.8156   23.4340 C   0  0  0  0  0  0
  -21.9191   -4.6972   22.3396 C   0  0  0  0  0  0
  -22.7851  -13.5204   21.1852 C   0  0  0  0  0  0
  -22.1656   -4.2160   21.0975 F   0  0  0  0  0  0
  -21.5631   -3.4541   25.7737 F   0  0  0  0  0  0
  -30.0193  -13.3908   20.4449 N   0  0  0  0  0  0
  -26.3017  -12.9365   20.3379 N   0  0  0  0  0  0
  -25.9347  -11.6512   20.5763 N   0  0  0  0  0  0
  -22.0503  -12.8167   22.0391 N   0  0  0  0  0  0
  -25.4297  -15.1905   20.4165 N   0  0  0  0  0  0
  -31.7468  -14.8263   20.0967 O   0  0  0  0  0  0
  -21.6649   -6.8899   21.4256 O   0  0  0  0  0  0
  -22.3517  -14.5509   20.6718 O   0  0  0  0  0  0
  -24.6224  -31.8588   23.1982 C   0  0  0  0  0  0
  -25.9074  -32.4773   23.8322 C   0  0  1  0  0  0
  -27.2356  -27.3333   20.1375 C   0  0  0  0  0  0
  -25.5898  -33.8569   24.2274 N   0  0  0  0  0  0
  -23.4159  -30.4782   21.5394 C   0  0  2  0  0  0
  -24.8653  -28.9197   20.1189 C   0  0  0  0  0  0
  -22.7451  -29.4629   22.4929 C   0  0  0  0  0  0
  -18.0289  -28.1393   22.8499 C   0  0  0  0  0  0
  -24.1500  -36.7305   23.2637 C   0  0  0  0  0  0
  -25.9504  -30.7994   21.3581 C   0  0  0  0  0  0
  -26.0290  -29.4199   20.7166 C   0  0  0  0  0  0
  -27.2179  -28.6387   20.7119 C   0  0  0  0  0  0
  -26.0554  -26.8712   19.5192 C   0  0  0  0  0  0
  -24.8796  -27.6510   19.5110 C   0  0  0  0  0  0
  -23.6305  -29.7978   20.1591 C   0  0  0  0  0  0
  -25.4119  -36.3090   24.0338 C   0  0  1  0  0  0
  -20.5879  -28.3702   23.1295 C   0  0  2  0  0  0
  -20.6770  -26.9419   22.5427 C   0  0  0  0  0  0
  -19.5752  -26.6387   21.5223 C   0  0  0  0  0  0
  -18.1930  -26.7940   22.1628 C   0  0  0  0  0  0
  -19.1536  -28.8866   23.2898 C   0  0  0  0  0  0
  -18.9450  -30.1463   23.8911 C   0  0  0  0  0  0
  -17.6451  -30.6586   24.0579 C   0  0  0  0  0  0
  -25.9053  -34.9452   23.5123 C   0  0  0  0  0  0
  -16.5348  -29.9092   23.6320 C   0  0  0  0  0  0
  -16.7279  -28.6507   23.0353 C   0  0  0  0  0  0
  -26.4467  -31.6544   25.0667 C   0  0  0  0  0  0
  -25.3703  -31.3629   26.1386 C   0  0  0  0  0  0
  -27.0284  -30.2984   24.6036 C   0  0  0  0  0  0
  -27.6035  -32.4227   25.7487 C   0  0  0  0  0  0
  -27.5598  -37.1805   24.8456 C   0  0  0  0  0  0
  -21.4166  -29.3050   22.3676 N   0  0  0  0  0  0
  -26.4296  -37.3783   23.9418 N   0  0  0  0  0  0
  -24.6822  -31.0617   22.0915 N   0  0  0  0  0  0
  -23.4184  -28.8181   23.3003 O   0  0  0  0  0  0
  -28.3929  -26.5492   20.1168 O   0  0  0  0  0  0
  -26.5624  -34.8918   22.4690 O   0  0  0  0  0  0
  -23.5389  -32.1354   23.7350 O   0  0  0  0  0  0
  -29.3440  -17.9449   21.7613 C   0  0  0  0  0  0
  -29.4544  -19.0622   19.1981 C   0  0  0  0  0  0
  -28.9903  -19.9031   20.2655 C   0  0  0  0  0  0
  -29.7059  -17.0734   20.7024 C   0  0  0  0  0  0
  -28.9901  -19.3104   21.5571 C   0  0  0  0  0  0
  -29.7617  -17.6686   19.4050 C   0  0  0  0  0  0
  -29.5631  -19.6294   17.7851 C   0  0  0  0  0  0
  -28.8960  -24.1801   18.4492 C   0  0  0  0  0  0
  -29.9455  -25.2989   21.3248 C   0  0  0  0  0  0
  -27.5431  -25.1452   21.9902 C   0  0  0  0  0  0
  -28.2898  -21.3058   20.0129 C   0  0  0  0  0  0
  -28.3432  -23.9160   19.8647 C   0  0  2  0  0  0
  -28.5040  -25.2257   20.7840 C   0  0  0  0  0  0
  -29.7998  -15.6350   20.9847 N   0  0  0  0  0  0
  -28.9397  -22.6136   20.4192 N   0  3  0  0  0  0
  -28.4912  -20.2388   22.9257 Cl  0  0  0  0  0  0
  -30.0744  -16.6702   18.0226 Cl  0  0  0  0  0  0
  -31.4792  -12.5361   19.1320 H   0  0  0  0  0  0
  -30.3869  -11.3872   19.8550 H   0  0  0  0  0  0
  -29.7620  -11.8036   17.4536 H   0  0  0  0  0  0
  -29.6500  -13.5169   17.7621 H   0  0  0  0  0  0
  -27.8369  -11.3222   18.8138 H   0  0  0  0  0  0
  -27.3801  -12.6579   17.7907 H   0  0  0  0  0  0
  -27.6880  -14.2637   19.5682 H   0  0  0  0  0  0
  -28.7125  -11.9922   21.3363 H   0  0  0  0  0  0
  -28.4482  -13.6216   21.8783 H   0  0  0  0  0  0
  -25.2793   -9.5653   22.4742 H   0  0  0  0  0  0
  -24.0019   -7.4624   22.7474 H   0  0  0  0  0  0
  -21.0887   -8.8787   19.8918 H   0  0  0  0  0  0
  -22.3763  -10.9683   19.6143 H   0  0  0  0  0  0
  -21.2001   -7.6157   23.9726 H   0  0  0  0  0  0
  -21.1477   -6.0529   25.9090 H   0  0  0  0  0  0
  -22.0604   -2.7619   23.2840 H   0  0  0  0  0  0
  -22.4140  -11.9810   22.4734 H   0  0  0  0  0  0
  -21.1103  -13.1141   22.2602 H   0  0  0  0  0  0
  -24.6705  -15.8501   20.5444 H   0  0  0  0  0  0
  -26.2825  -15.6297   20.0946 H   0  0  0  0  0  0
  -26.7148  -32.5476   23.1081 H   0  0  0  0  0  0
  -25.0038  -33.9703   25.0419 H   0  0  0  0  0  0
  -22.7106  -31.2977   21.3889 H   0  0  0  0  0  0
  -23.3775  -35.9618   23.3245 H   0  0  0  0  0  0
  -24.3602  -36.8972   22.2059 H   0  0  0  0  0  0
  -23.7220  -37.6483   23.6687 H   0  0  0  0  0  0
  -26.0533  -31.5542   20.5776 H   0  0  0  0  0  0
  -26.8422  -30.8720   21.9688 H   0  0  0  0  0  0
  -28.1178  -29.0237   21.1691 H   0  0  0  0  0  0
  -26.0418  -25.8984   19.0470 H   0  0  0  0  0  0
  -23.9860  -27.2626   19.0398 H   0  0  0  0  0  0
  -23.7445  -30.5649   19.3921 H   0  0  0  0  0  0
  -22.7531  -29.2184   19.8647 H   0  0  0  0  0  0
  -25.1291  -36.1959   25.0828 H   0  0  0  0  0  0
  -20.9991  -28.3290   24.1415 H   0  0  0  0  0  0
  -20.5654  -26.2322   23.3630 H   0  0  0  0  0  0
  -21.6646  -26.7426   22.1238 H   0  0  0  0  0  0
  -19.6916  -25.6297   21.1258 H   0  0  0  0  0  0
  -19.6700  -27.3200   20.6753 H   0  0  0  0  0  0
  -17.4206  -26.6714   21.4026 H   0  0  0  0  0  0
  -18.0313  -26.0080   22.9015 H   0  0  0  0  0  0
  -19.7924  -30.7288   24.2290 H   0  0  0  0  0  0
  -17.4997  -31.6267   24.5192 H   0  0  0  0  0  0
  -15.5352  -30.3005   23.7611 H   0  0  0  0  0  0
  -15.8685  -28.0828   22.7055 H   0  0  0  0  0  0
  -24.5932  -30.6918   25.7706 H   0  0  0  0  0  0
  -24.8823  -32.2759   26.4800 H   0  0  0  0  0  0
  -25.8042  -30.8827   27.0164 H   0  0  0  0  0  0
  -26.2816  -29.6766   24.1077 H   0  0  0  0  0  0
  -27.4038  -29.7195   25.4487 H   0  0  0  0  0  0
  -27.8662  -30.4300   23.9181 H   0  0  0  0  0  0
  -27.2662  -33.3537   26.2049 H   0  0  0  0  0  0
  -28.3896  -32.6720   25.0354 H   0  0  0  0  0  0
  -28.0615  -31.8307   26.5421 H   0  0  0  0  0  0
  -28.2561  -38.0155   24.7563 H   0  0  0  0  0  0
  -28.1149  -36.2685   24.6218 H   0  0  0  0  0  0
  -27.2312  -37.1370   25.8852 H   0  0  0  0  0  0
  -20.9346  -29.8791   21.6900 H   0  0  0  0  0  0
  -26.0189  -38.2857   24.1438 H   0  0  0  0  0  0
  -29.2755  -17.5494   22.7636 H   0  0  0  0  0  0
  -29.7646  -20.6997   17.7877 H   0  0  0  0  0  0
  -28.6457  -19.4422   17.2264 H   0  0  0  0  0  0
  -30.3919  -19.1819   17.2360 H   0  0  0  0  0  0
  -28.4616  -25.0816   18.0143 H   0  0  0  0  0  0
  -28.6690  -23.3600   17.7680 H   0  0  0  0  0  0
  -29.9770  -24.3184   18.4549 H   0  0  0  0  0  0
  -30.1978  -24.4454   21.9523 H   0  0  0  0  0  0
  -30.0882  -26.1899   21.9375 H   0  0  0  0  0  0
  -30.6732  -25.3457   20.5157 H   0  0  0  0  0  0
  -27.7088  -24.2409   22.5744 H   0  0  0  0  0  0
  -26.4990  -25.1320   21.6788 H   0  0  0  0  0  0
  -27.6796  -25.9920   22.6634 H   0  0  0  0  0  0
  -27.3248  -21.2692   20.5209 H   0  0  0  0  0  0
  -28.0095  -21.3794   18.9638 H   0  0  0  0  0  0
  -27.2703  -23.7528   19.7529 H   0  0  0  0  0  0
  -29.0203  -15.2787   21.5163 H   0  0  0  0  0  0
  -29.9150  -22.5749   20.1686 H   0  0  0  0  0  0
  -28.8987  -22.6365   21.4267 H   0  0  0  0  0  0
  1 25  1  0  0  0
  1 30  2  0  0  0
  1 84  1  0  0  0
  2  3  1  0  0  0
  2 25  1  0  0  0
  2 88  1  0  0  0
  2 89  1  0  0  0
  3  4  1  0  0  0
  3 90  1  0  0  0
  3 91  1  0  0  0
  4  5  1  0  0  0
  4 92  1  0  0  0
  4 93  1  0  0  0
  5  6  1  0  0  0
  5 26  1  0  0  0
  5 94  1  0  0  0
  6 25  1  0  0  0
  6 95  1  0  0  0
  6 96  1  0  0  0
  7  8  2  0  0  0
  7 26  1  0  0  0
  7 29  1  0  0  0
  8  9  1  0  0  0
  8 22  1  0  0  0
  9 10  1  0  0  0
  9 27  2  0  0  0
 10 11  2  0  0  0
 10 15  1  0  0  0
 11 12  1  0  0  0
 11 97  1  0  0  0
 12 13  2  0  0  0
 12 98  1  0  0  0
 13 14  1  0  0  0
 13 31  1  0  0  0
 14 15  2  0  0  0
 14 99  1  0  0  0
 15100  1  0  0  0
 16 17  2  0  0  0
 16 21  1  0  0  0
 16 31  1  0  0  0
 17 18  1  0  0  0
 17101  1  0  0  0
 18 19  2  0  0  0
 18102  1  0  0  0
 19 20  1  0  0  0
 19 24  1  0  0  0
 20 21  2  0  0  0
 20103  1  0  0  0
 21 23  1  0  0  0
 22 28  1  0  0  0
 22 32  2  0  0  0
 26 27  1  0  0  0
 28104  1  0  0  0
 28105  1  0  0  0
 29106  1  0  0  0
 29107  1  0  0  0
 33 34  1  0  0  0
 33 66  1  0  0  0
 33 70  2  0  0  0
 34 36  1  0  0  0
 34 59  1  0  0  0
 34108  1  0  0  0
 35 44  2  0  0  0
 35 45  1  0  0  0
 35 68  1  0  0  0
 36 56  1  0  0  0
 36109  1  0  0  0
 37 39  1  0  0  0
 37 47  1  0  0  0
 37 66  1  0  0  0
 37110  1  0  0  0
 38 43  2  0  0  0
 38 46  1  0  0  0
 38 47  1  0  0  0
 39 64  1  0  0  0
 39 67  2  0  0  0
 40 52  1  0  0  0
 40 53  2  0  0  0
 40 58  1  0  0  0
 41111  1  0  0  0
 41112  1  0  0  0
 41113  1  0  0  0
 41 48  1  0  0  0
 42 43  1  0  0  0
 42 66  1  0  0  0
 42114  1  0  0  0
 42115  1  0  0  0
 43 44  1  0  0  0
 44116  1  0  0  0
 45 46  2  0  0  0
 45117  1  0  0  0
 46118  1  0  0  0
 47119  1  0  0  0
 47120  1  0  0  0
 48 56  1  0  0  0
 48 65  1  0  0  0
 48121  1  0  0  0
 49 50  1  0  0  0
 49 53  1  0  0  0
 49 64  1  0  0  0
 49122  1  0  0  0
 50 51  1  0  0  0
 50123  1  0  0  0
 50124  1  0  0  0
 51 52  1  0  0  0
 51125  1  0  0  0
 51126  1  0  0  0
 52127  1  0  0  0
 52128  1  0  0  0
 53 54  1  0  0  0
 54 55  2  0  0  0
 54129  1  0  0  0
 55 57  1  0  0  0
 55130  1  0  0  0
 56 69  2  0  0  0
 57 58  2  0  0  0
 57131  1  0  0  0
 58132  1  0  0  0
 59 60  1  0  0  0
 59 61  1  0  0  0
 59 62  1  0  0  0
 60133  1  0  0  0
 60134  1  0  0  0
 60135  1  0  0  0
 61136  1  0  0  0
 61137  1  0  0  0
 61138  1  0  0  0
 62139  1  0  0  0
 62140  1  0  0  0
 62141  1  0  0  0
 63 65  1  0  0  0
 63142  1  0  0  0
 63143  1  0  0  0
 63144  1  0  0  0
 64145  1  0  0  0
 65146  1  0  0  0
 68 83  1  0  0  0
 71 74  2  0  0  0
 71 75  1  0  0  0
 71147  1  0  0  0
 72 73  1  0  0  0
 72 76  2  0  0  0
 72 77  1  0  0  0
 73 75  2  0  0  0
 73 81  1  0  0  0
 74 76  1  0  0  0
 74 84  1  0  0  0
 75 86  1  0  0  0
 76 87  1  0  0  0
 77148  1  0  0  0
 77149  1  0  0  0
 77150  1  0  0  0
 78151  1  0  0  0
 78152  1  0  0  0
 78153  1  0  0  0
 78 82  1  0  0  0
 79154  1  0  0  0
 79155  1  0  0  0
 79156  1  0  0  0
 79 83  1  0  0  0
 80 83  1  0  0  0
 80157  1  0  0  0
 80158  1  0  0  0
 80159  1  0  0  0
 81 85  1  0  0  0
 81160  1  0  0  0
 81161  1  0  0  0
 82 83  1  0  0  0
 82 85  1  0  0  0
 82162  1  0  0  0
 84163  1  0  0  0
 85164  1  0  0  0
 85165  1  0  0  0
M  CHG  1  85   1
M  ISO  4   1 100  68 101  83 101  84 100
M  END
> <chiral flag>
0

> <version>
0

> <s_m_source_file>
/data/baiqing/PycharmProjects/Reinvent-master-3.2/result/LINK_invent/BTK/process_docking_weight1_custom_sum_contain_oxygen_bond_distance_aromatic_linkinvent_7_9_3/rearranged_h_0023.sdf

> <i_m_source_file_index>
21

> <r_mmod_Potential_Energy-OPLS-2005>
-73.5910797119141

> <r_mmod_Stretch_Energy-OPLS-2005>
88.7570495605469

> <r_mmod_Bend_Energy-OPLS-2005>
155.262435913086

> <r_mmod_Torsional_Energy-OPLS-2005>
281.355010986328

> <r_mmod_Improper_Torsional_Energy-OPLS-2005>
5.62905693054199

> <r_mmod_Van_der_Waal_Energy-OPLS-2005>
136.573776245117

> <r_mmod_Electrostatic_Energy-OPLS-2005>
-334.843566894531

> <r_mmod_Solvation_Energy-OPLS-2005>
-446.1171875

> <b_mmod_Minimization_Converged-OPLS-2005>
0

> <r_mmod_RMS_Derivative-OPLS-2005>
2.1999831199646

$$$$
21
                    3D
 Structure written by MMmdl.
162170  0  0  1  0            999 V2000
  -30.7819  -14.3848   20.6874 C   0  0  0  0  0  0
  -30.4163  -12.3085   19.4013 C   0  0  0  0  0  0
  -29.4819  -12.5359   18.1984 C   0  0  0  0  0  0
  -28.0095  -12.3788   18.6182 C   0  0  0  0  0  0
  -27.6668  -13.2050   19.8845 C   0  0  2  0  0  0
  -28.7075  -12.9546   20.9996 C   0  0  0  0  0  0
  -25.2600  -13.8161   20.5714 C   0  0  0  0  0  0
  -24.1833  -13.0447   20.9201 C   0  0  0  0  0  0
  -24.6379  -11.6908   20.8731 C   0  0  0  0  0  0
  -23.9047  -10.4291   21.0389 C   0  0  0  0  0  0
  -24.3597   -9.4216   21.9175 C   0  0  0  0  0  0
  -23.6284   -8.2244   22.0736 C   0  0  0  0  0  0
  -22.4266   -8.0276   21.3533 C   0  0  0  0  0  0
  -21.9898   -9.0249   20.4637 C   0  0  0  0  0  0
  -22.7217  -10.2135   20.3049 C   0  0  0  0  0  0
  -21.6857   -6.0735   22.5282 C   0  0  0  0  0  0
  -21.4008   -6.5634   23.8214 C   0  0  0  0  0  0
  -21.3662   -5.6789   24.9178 C   0  0  0  0  0  0
  -21.6042   -4.3051   24.7227 C   0  0  0  0  0  0
  -21.8819   -3.8146   23.4351 C   0  0  0  0  0  0
  -21.9195   -4.6962   22.3407 C   0  0  0  0  0  0
  -22.7853  -13.5252   21.1860 C   0  0  0  0  0  0
  -22.1663   -4.2143   21.0985 F   0  0  0  0  0  0
  -21.5636   -3.4536   25.7748 F   0  0  0  0  0  0
  -30.0469  -13.2587   20.4658 N   0  0  0  0  0  0
  -26.3044  -12.9335   20.3417 N   0  0  0  0  0  0
  -25.9309  -11.6494   20.5770 N   0  0  0  0  0  0
  -22.0484  -12.8229   22.0397 N   0  0  0  0  0  0
  -25.4327  -15.1879   20.4123 N   0  0  0  0  0  0
  -31.8022  -14.6516   20.0484 O   0  0  0  0  0  0
  -21.6643   -6.8864   21.4235 O   0  0  0  0  0  0
  -22.3559  -14.5581   20.6735 O   0  0  0  0  0  0
  -24.6097  -31.8708   23.2105 C   0  0  0  0  0  0
  -25.9016  -32.4832   23.8394 C   0  0  1  0  0  0
  -27.2505  -27.4697   20.1115 C   0  0  0  0  0  0
  -25.5893  -33.8624   24.2335 N   0  0  0  0  0  0
  -23.3968  -30.4903   21.5490 C   0  0  2  0  0  0
  -24.8499  -28.9508   20.1277 C   0  0  0  0  0  0
  -22.7365  -29.4681   22.4996 C   0  0  0  0  0  0
  -18.0259  -28.1383   22.8479 C   0  0  0  0  0  0
  -24.1485  -36.7325   23.2631 C   0  0  0  0  0  0
  -25.9198  -30.8469   21.3594 C   0  0  0  0  0  0
  -26.0035  -29.4764   20.7250 C   0  0  0  0  0  0
  -27.2069  -28.7401   20.7223 C   0  0  0  0  0  0
  -26.0874  -26.9476   19.5121 C   0  0  0  0  0  0
  -24.8818  -27.6787   19.5267 C   0  0  0  0  0  0
  -23.6077  -29.8122   20.1685 C   0  0  0  0  0  0
  -25.4103  -36.3111   24.0332 C   0  0  1  0  0  0
  -20.5842  -28.3671   23.1312 C   0  0  2  0  0  0
  -20.6762  -26.9408   22.5413 C   0  0  0  0  0  0
  -19.5754  -26.6393   21.5194 C   0  0  0  0  0  0
  -18.1922  -26.7932   22.1598 C   0  0  0  0  0  0
  -19.1504  -28.8840   23.2896 C   0  0  0  0  0  0
  -18.9446  -30.1445   23.8916 C   0  0  0  0  0  0
  -17.6457  -30.6595   24.0565 C   0  0  0  0  0  0
  -25.9031  -34.9474   23.5123 C   0  0  0  0  0  0
  -16.5345  -29.9102   23.6328 C   0  0  0  0  0  0
  -16.7253  -28.6511   23.0354 C   0  0  0  0  0  0
  -26.4479  -31.6600   25.0699 C   0  0  0  0  0  0
  -25.3766  -31.3719   26.1464 C   0  0  0  0  0  0
  -27.0303  -30.3034   24.6058 C   0  0  0  0  0  0
  -27.6051  -32.4311   25.7479 C   0  0  0  0  0  0
  -27.5580  -37.1806   24.8462 C   0  0  0  0  0  0
  -21.4102  -29.3036   22.3710 N   0  0  0  0  0  0
  -26.4296  -37.3787   23.9400 N   0  0  0  0  0  0
  -24.6594  -31.0843   22.0984 N   0  0  0  0  0  0
  -23.4138  -28.8235   23.3041 O   0  0  0  0  0  0
  -28.4235  -26.7682   19.9934 O   0  0  0  0  0  0
  -26.5577  -34.8917   22.4672 O   0  0  0  0  0  0
  -23.5303  -32.1437   23.7535 O   0  0  0  0  0  0
  -28.4090  -22.5364   20.8864 C   0  0  0  0  0  0
  -28.5807  -24.5049   22.8742 C   0  0  0  0  0  0
  -28.1723  -22.1808   22.2305 C   0  0  0  0  0  0
  -28.7717  -24.8712   21.5233 C   0  0  0  0  0  0
  -28.2839  -23.1744   23.2329 C   0  0  0  0  0  0
  -28.7281  -23.8601   20.5292 C   0  0  0  0  0  0
  -27.9113  -18.0120   23.9878 C   0  0  0  0  0  0
  -27.7623  -20.7474   22.5518 C   0  0  0  0  0  0
  -29.0650  -26.3305   21.1894 C   0  0  0  0  0  0
  -29.7276  -17.4363   22.2745 C   0  0  0  0  0  0
  -29.3355  -15.9682   21.9669 C   0  0  0  0  0  0
  -28.5233  -18.3606   22.6104 C   0  0  2  0  0  0
  -30.5097  -15.1062   21.7834 N   0  0  0  0  0  0
  -28.9038  -19.7994   22.5427 N   0  3  0  0  0  0
  -28.0515  -22.8019   24.9044 Cl  0  0  0  0  0  0
  -29.0717  -24.1804   18.8642 Cl  0  0  0  0  0  0
  -31.4585  -12.4091   19.0919 H   0  0  0  0  0  0
  -30.3226  -11.2857   19.7698 H   0  0  0  0  0  0
  -29.7168  -11.8379   17.3943 H   0  0  0  0  0  0
  -29.6429  -13.5360   17.7933 H   0  0  0  0  0  0
  -27.8238  -11.3194   18.8036 H   0  0  0  0  0  0
  -27.3514  -12.6646   17.7969 H   0  0  0  0  0  0
  -27.7212  -14.2569   19.6023 H   0  0  0  0  0  0
  -28.6777  -11.9090   21.3107 H   0  0  0  0  0  0
  -28.4568  -13.5183   21.8952 H   0  0  0  0  0  0
  -25.2719   -9.5722   22.4767 H   0  0  0  0  0  0
  -24.0002   -7.4641   22.7449 H   0  0  0  0  0  0
  -21.0827   -8.8764   19.8937 H   0  0  0  0  0  0
  -22.3650  -10.9681   19.6172 H   0  0  0  0  0  0
  -21.1972   -7.6139   23.9719 H   0  0  0  0  0  0
  -21.1498   -6.0514   25.9082 H   0  0  0  0  0  0
  -22.0587   -2.7604   23.2857 H   0  0  0  0  0  0
  -22.4082  -11.9873   22.4762 H   0  0  0  0  0  0
  -21.1104  -13.1253   22.2609 H   0  0  0  0  0  0
  -24.6564  -15.8351   20.4938 H   0  0  0  0  0  0
  -26.2730  -15.6191   20.0507 H   0  0  0  0  0  0
  -26.7086  -32.5587   23.1168 H   0  0  0  0  0  0
  -25.0078  -33.9789   25.0508 H   0  0  0  0  0  0
  -22.6840  -31.3042   21.4042 H   0  0  0  0  0  0
  -23.3724  -35.9684   23.3306 H   0  0  0  0  0  0
  -24.3588  -36.8919   22.2045 H   0  0  0  0  0  0
  -23.7257  -37.6538   23.6640 H   0  0  0  0  0  0
  -26.0146  -31.6062   20.5821 H   0  0  0  0  0  0
  -26.8128  -30.9159   21.9679 H   0  0  0  0  0  0
  -28.1047  -29.1540   21.1585 H   0  0  0  0  0  0
  -26.1210  -25.9788   19.0327 H   0  0  0  0  0  0
  -23.9938  -27.2620   19.0714 H   0  0  0  0  0  0
  -23.7120  -30.5791   19.4005 H   0  0  0  0  0  0
  -22.7365  -29.2224   19.8782 H   0  0  0  0  0  0
  -25.1271  -36.1973   25.0825 H   0  0  0  0  0  0
  -20.9929  -28.3257   24.1435 H   0  0  0  0  0  0
  -20.5665  -26.2270   23.3595 H   0  0  0  0  0  0
  -21.6639  -26.7487   22.1201 H   0  0  0  0  0  0
  -19.6933  -25.6303   21.1222 H   0  0  0  0  0  0
  -19.6707  -27.3205   20.6722 H   0  0  0  0  0  0
  -17.4189  -26.6651   21.4007 H   0  0  0  0  0  0
  -18.0357  -26.0079   22.9002 H   0  0  0  0  0  0
  -19.7935  -30.7234   24.2299 H   0  0  0  0  0  0
  -17.5035  -31.6287   24.5150 H   0  0  0  0  0  0
  -15.5352  -30.3024   23.7668 H   0  0  0  0  0  0
  -15.8640  -28.0854   22.7084 H   0  0  0  0  0  0
  -24.5933  -30.7058   25.7823 H   0  0  0  0  0  0
  -24.8983  -32.2893   26.4907 H   0  0  0  0  0  0
  -25.8150  -30.8908   27.0217 H   0  0  0  0  0  0
  -26.2843  -29.6782   24.1128 H   0  0  0  0  0  0
  -27.4081  -29.7271   25.4517 H   0  0  0  0  0  0
  -27.8674  -30.4322   23.9184 H   0  0  0  0  0  0
  -27.2656  -33.3574   26.2120 H   0  0  0  0  0  0
  -28.3862  -32.6917   25.0327 H   0  0  0  0  0  0
  -28.0722  -31.8395   26.5360 H   0  0  0  0  0  0
  -28.2593  -38.0103   24.7499 H   0  0  0  0  0  0
  -28.1070  -36.2628   24.6299 H   0  0  0  0  0  0
  -27.2301  -37.1479   25.8866 H   0  0  0  0  0  0
  -20.9260  -29.8698   21.6886 H   0  0  0  0  0  0
  -26.0179  -38.2854   24.1415 H   0  0  0  0  0  0
  -28.3416  -21.7920   20.1054 H   0  0  0  0  0  0
  -28.6569  -25.2532   23.6496 H   0  0  0  0  0  0
  -27.6208  -16.9651   24.0480 H   0  0  0  0  0  0
  -27.0053  -18.5818   24.1950 H   0  0  0  0  0  0
  -28.6175  -18.2010   24.7979 H   0  0  0  0  0  0
  -27.0284  -20.4391   21.8070 H   0  0  0  0  0  0
  -27.2374  -20.7109   23.5040 H   0  0  0  0  0  0
  -30.1420  -26.4335   21.0569 H   0  0  0  0  0  0
  -28.8081  -26.9647   22.0401 H   0  0  0  0  0  0
  -30.2596  -17.8328   21.4078 H   0  0  0  0  0  0
  -30.4394  -17.4629   23.1012 H   0  0  0  0  0  0
  -28.6885  -15.9402   21.0873 H   0  0  0  0  0  0
  -28.7580  -15.5559   22.7918 H   0  0  0  0  0  0
  -27.7650  -18.1949   21.8419 H   0  0  0  0  0  0
  -31.3500  -15.5479   22.1297 H   0  0  0  0  0  0
  -29.5318  -20.0289   23.2971 H   0  0  0  0  0  0
  -29.4066  -19.9504   21.6833 H   0  0  0  0  0  0
  1 25  1  0  0  0
  1 30  2  0  0  0
  1 83  1  0  0  0
  2  3  1  0  0  0
  2 25  1  0  0  0
  2 87  1  0  0  0
  2 88  1  0  0  0
  3  4  1  0  0  0
  3 89  1  0  0  0
  3 90  1  0  0  0
  4  5  1  0  0  0
  4 91  1  0  0  0
  4 92  1  0  0  0
  5  6  1  0  0  0
  5 26  1  0  0  0
  5 93  1  0  0  0
  6 25  1  0  0  0
  6 94  1  0  0  0
  6 95  1  0  0  0
  7  8  2  0  0  0
  7 26  1  0  0  0
  7 29  1  0  0  0
  8  9  1  0  0  0
  8 22  1  0  0  0
  9 10  1  0  0  0
  9 27  2  0  0  0
 10 11  2  0  0  0
 10 15  1  0  0  0
 11 12  1  0  0  0
 11 96  1  0  0  0
 12 13  2  0  0  0
 12 97  1  0  0  0
 13 14  1  0  0  0
 13 31  1  0  0  0
 14 15  2  0  0  0
 14 98  1  0  0  0
 15 99  1  0  0  0
 16 17  2  0  0  0
 16 21  1  0  0  0
 16 31  1  0  0  0
 17 18  1  0  0  0
 17100  1  0  0  0
 18 19  2  0  0  0
 18101  1  0  0  0
 19 20  1  0  0  0
 19 24  1  0  0  0
 20 21  2  0  0  0
 20102  1  0  0  0
 21 23  1  0  0  0
 22 28  1  0  0  0
 22 32  2  0  0  0
 26 27  1  0  0  0
 28103  1  0  0  0
 28104  1  0  0  0
 29105  1  0  0  0
 29106  1  0  0  0
 33 34  1  0  0  0
 33 66  1  0  0  0
 33 70  2  0  0  0
 34 36  1  0  0  0
 34 59  1  0  0  0
 34107  1  0  0  0
 35 44  2  0  0  0
 35 45  1  0  0  0
 35 68  1  0  0  0
 36 56  1  0  0  0
 36108  1  0  0  0
 37 39  1  0  0  0
 37 47  1  0  0  0
 37 66  1  0  0  0
 37109  1  0  0  0
 38 43  2  0  0  0
 38 46  1  0  0  0
 38 47  1  0  0  0
 39 64  1  0  0  0
 39 67  2  0  0  0
 40 52  1  0  0  0
 40 53  2  0  0  0
 40 58  1  0  0  0
 41110  1  0  0  0
 41111  1  0  0  0
 41112  1  0  0  0
 41 48  1  0  0  0
 42 43  1  0  0  0
 42 66  1  0  0  0
 42113  1  0  0  0
 42114  1  0  0  0
 43 44  1  0  0  0
 44115  1  0  0  0
 45 46  2  0  0  0
 45116  1  0  0  0
 46117  1  0  0  0
 47118  1  0  0  0
 47119  1  0  0  0
 48 56  1  0  0  0
 48 65  1  0  0  0
 48120  1  0  0  0
 49 50  1  0  0  0
 49 53  1  0  0  0
 49 64  1  0  0  0
 49121  1  0  0  0
 50 51  1  0  0  0
 50122  1  0  0  0
 50123  1  0  0  0
 51 52  1  0  0  0
 51124  1  0  0  0
 51125  1  0  0  0
 52126  1  0  0  0
 52127  1  0  0  0
 53 54  1  0  0  0
 54 55  2  0  0  0
 54128  1  0  0  0
 55 57  1  0  0  0
 55129  1  0  0  0
 56 69  2  0  0  0
 57 58  2  0  0  0
 57130  1  0  0  0
 58131  1  0  0  0
 59 60  1  0  0  0
 59 61  1  0  0  0
 59 62  1  0  0  0
 60132  1  0  0  0
 60133  1  0  0  0
 60134  1  0  0  0
 61135  1  0  0  0
 61136  1  0  0  0
 61137  1  0  0  0
 62138  1  0  0  0
 62139  1  0  0  0
 62140  1  0  0  0
 63 65  1  0  0  0
 63141  1  0  0  0
 63142  1  0  0  0
 63143  1  0  0  0
 64144  1  0  0  0
 65145  1  0  0  0
 68 79  1  0  0  0
 71 73  2  0  0  0
 71 76  1  0  0  0
 71146  1  0  0  0
 72 74  1  0  0  0
 72 75  2  0  0  0
 72147  1  0  0  0
 73 75  1  0  0  0
 73 78  1  0  0  0
 74 76  2  0  0  0
 74 79  1  0  0  0
 75 85  1  0  0  0
 76 86  1  0  0  0
 77148  1  0  0  0
 77149  1  0  0  0
 77150  1  0  0  0
 77 82  1  0  0  0
 78 84  1  0  0  0
 78151  1  0  0  0
 78152  1  0  0  0
 79153  1  0  0  0
 79154  1  0  0  0
 80 81  1  0  0  0
 80 82  1  0  0  0
 80155  1  0  0  0
 80156  1  0  0  0
 81 83  1  0  0  0
 81157  1  0  0  0
 81158  1  0  0  0
 82 84  1  0  0  0
 82159  1  0  0  0
 83160  1  0  0  0
 84161  1  0  0  0
 84162  1  0  0  0
M  CHG  1  84   1
M  ISO  4   1 100  68 101  79 101  83 100
M  END
> <chiral flag>
0

> <version>
0

> <s_m_source_file>
/data/baiqing/PycharmProjects/Reinvent-master-3.2/result/LINK_invent/BTK/process_docking_weight1_custom_sum_contain_oxygen_bond_distance_aromatic_linkinvent_7_9_3/rearranged_h_0023.sdf

> <i_m_source_file_index>
22

> <r_mmod_Potential_Energy-OPLS-2005>
-194.284774780273

> <r_mmod_Stretch_Energy-OPLS-2005>
34.9362258911133

> <r_mmod_Bend_Energy-OPLS-2005>
102.268463134766

> <r_mmod_Torsional_Energy-OPLS-2005>
273.458801269531

> <r_mmod_Improper_Torsional_Energy-OPLS-2005>
9.12224102020264

> <r_mmod_Van_der_Waal_Energy-OPLS-2005>
144.881301879883

> <r_mmod_Electrostatic_Energy-OPLS-2005>
-275.055633544922

> <r_mmod_Solvation_Energy-OPLS-2005>
-490.432525634766

> <b_mmod_Minimization_Converged-OPLS-2005>
0

> <r_mmod_RMS_Derivative-OPLS-2005>
2.60855555534363

$$$$
22
                    3D
 Structure written by MMmdl.
178186  0  0  1  0            999 V2000
  -30.7951  -14.2542   20.7800 C   0  0  0  0  0  0
  -30.4296  -12.2733   19.3572 C   0  0  0  0  0  0
  -29.5005  -12.5772   18.1703 C   0  0  0  0  0  0
  -28.0235  -12.4134   18.5738 C   0  0  0  0  0  0
  -27.6760  -13.1884   19.8744 C   0  0  2  0  0  0
  -28.7038  -12.8605   20.9749 C   0  0  0  0  0  0
  -25.2683  -13.8121   20.5641 C   0  0  0  0  0  0
  -24.1893  -13.0444   20.9143 C   0  0  0  0  0  0
  -24.6374  -11.6902   20.8660 C   0  0  0  0  0  0
  -23.9010  -10.4297   21.0337 C   0  0  0  0  0  0
  -24.3564   -9.4245   21.9148 C   0  0  0  0  0  0
  -23.6254   -8.2288   22.0754 C   0  0  0  0  0  0
  -22.4241   -8.0288   21.3561 C   0  0  0  0  0  0
  -21.9854   -9.0237   20.4663 C   0  0  0  0  0  0
  -22.7164  -10.2117   20.3042 C   0  0  0  0  0  0
  -21.6891   -6.0705   22.5262 C   0  0  0  0  0  0
  -21.4029   -6.5604   23.8206 C   0  0  0  0  0  0
  -21.3677   -5.6748   24.9159 C   0  0  0  0  0  0
  -21.6074   -4.3022   24.7209 C   0  0  0  0  0  0
  -21.8813   -3.8106   23.4331 C   0  0  0  0  0  0
  -21.9189   -4.6912   22.3376 C   0  0  0  0  0  0
  -22.7934  -13.5310   21.1780 C   0  0  0  0  0  0
  -22.1677   -4.2106   21.0970 F   0  0  0  0  0  0
  -21.5643   -3.4502   25.7731 F   0  0  0  0  0  0
  -30.0586  -13.1616   20.4641 N   0  0  0  0  0  0
  -26.3070  -12.9265   20.3238 N   0  0  0  0  0  0
  -25.9279  -11.6416   20.5498 N   0  0  0  0  0  0
  -22.0494  -12.8380   22.0321 N   0  0  0  0  0  0
  -25.4413  -15.1883   20.4151 N   0  0  0  0  0  0
  -31.7748  -14.6232   20.1320 O   0  0  0  0  0  0
  -21.6657   -6.8845   21.4256 O   0  0  0  0  0  0
  -22.3659  -14.5588   20.6528 O   0  0  0  0  0  0
  -24.6167  -31.8642   23.2115 C   0  0  0  0  0  0
  -25.9061  -32.4772   23.8357 C   0  0  1  0  0  0
  -27.2188  -27.4444   20.1182 C   0  0  0  0  0  0
  -25.5894  -33.8565   24.2293 N   0  0  0  0  0  0
  -23.3988  -30.4960   21.5476 C   0  0  2  0  0  0
  -24.8424  -28.9633   20.1185 C   0  0  0  0  0  0
  -22.7415  -29.4660   22.4936 C   0  0  0  0  0  0
  -18.0338  -28.1250   22.8609 C   0  0  0  0  0  0
  -24.1473  -36.7289   23.2638 C   0  0  0  0  0  0
  -25.9269  -30.8391   21.3640 C   0  0  0  0  0  0
  -26.0006  -29.4787   20.7141 C   0  0  0  0  0  0
  -27.1955  -28.7253   20.7125 C   0  0  0  0  0  0
  -26.0602  -26.9594   19.4852 C   0  0  0  0  0  0
  -24.8667  -27.7001   19.5018 C   0  0  0  0  0  0
  -23.6050  -29.8270   20.1623 C   0  0  0  0  0  0
  -25.4101  -36.3066   24.0344 C   0  0  1  0  0  0
  -20.5933  -28.3654   23.1326 C   0  0  2  0  0  0
  -20.6905  -26.9427   22.5240 C   0  0  0  0  0  0
  -19.5805  -26.6491   21.5082 C   0  0  0  0  0  0
  -18.2062  -26.7778   22.1771 C   0  0  0  0  0  0
  -19.1575  -28.8786   23.2908 C   0  0  0  0  0  0
  -18.9465  -30.1496   23.8716 C   0  0  0  0  0  0
  -17.6457  -30.6610   24.0356 C   0  0  0  0  0  0
  -25.9059  -34.9442   23.5127 C   0  0  0  0  0  0
  -16.5356  -29.8987   23.6310 C   0  0  0  0  0  0
  -16.7323  -28.6289   23.0535 C   0  0  0  0  0  0
  -26.4542  -31.6551   25.0656 C   0  0  0  0  0  0
  -25.3822  -31.3639   26.1407 C   0  0  0  0  0  0
  -27.0403  -30.2963   24.6076 C   0  0  0  0  0  0
  -27.6105  -32.4274   25.7450 C   0  0  0  0  0  0
  -27.5564  -37.1790   24.8476 C   0  0  0  0  0  0
  -21.4114  -29.3155   22.3814 N   0  0  0  0  0  0
  -26.4263  -37.3781   23.9432 N   0  0  0  0  0  0
  -24.6637  -31.0821   22.0969 N   0  0  0  0  0  0
  -23.4238  -28.8123   23.2875 O   0  0  0  0  0  0
  -28.3518  -26.6685   20.1162 O   0  0  0  0  0  0
  -26.5595  -34.8963   22.4681 O   0  0  0  0  0  0
  -23.5366  -32.1310   23.7558 O   0  0  0  0  0  0
  -27.5319  -22.2670   24.0631 C   0  0  0  0  0  0
  -27.3171  -23.5663   23.5188 C   0  0  0  0  0  0
  -27.6938  -21.4001   23.0177 C   0  0  0  0  0  0
  -27.4261  -23.4790   22.1559 C   0  0  0  0  0  0
  -27.5935  -21.9088   25.5315 C   0  0  0  0  0  0
  -27.0345  -24.8031   24.3363 C   0  0  0  0  0  0
  -30.8550  -17.6646   20.6447 C   0  0  0  0  0  0
  -30.2199  -15.8195   24.1028 C   0  0  0  0  0  0
  -32.3227  -16.0875   22.8143 C   0  0  0  0  0  0
  -27.7178  -21.5679   20.4851 C   0  0  0  0  0  0
  -28.0205  -19.9279   23.0840 C   0  0  0  0  0  0
  -27.3199  -24.5860   21.1251 C   0  0  0  0  0  0
  -29.3667  -19.6281   22.4056 C   0  0  0  0  0  0
  -28.4296  -25.6757   21.1629 C   0  0  0  0  0  0
  -30.1503  -17.2832   21.9823 C   0  0  1  0  0  0
  -30.7812  -16.0210   22.6724 C   0  0  0  0  0  0
  -27.6017  -22.1308   21.8321 N   0  0  0  0  0  0
  -30.3799  -14.8274   21.9217 N   0  0  0  0  0  0
  -30.0949  -18.4424   22.9100 N   0  3  0  0  0  0
  -31.4769  -12.3855   19.0724 H   0  0  0  0  0  0
  -30.3255  -11.2338   19.6607 H   0  0  0  0  0  0
  -29.7414  -11.9275   17.3286 H   0  0  0  0  0  0
  -29.6827  -13.5948   17.8246 H   0  0  0  0  0  0
  -27.8348  -11.3477   18.7019 H   0  0  0  0  0  0
  -27.3749  -12.7419   17.7586 H   0  0  0  0  0  0
  -27.7534  -14.2536   19.6539 H   0  0  0  0  0  0
  -28.6515  -11.7999   21.2291 H   0  0  0  0  0  0
  -28.4289  -13.3853   21.8862 H   0  0  0  0  0  0
  -25.2720   -9.5758   22.4701 H   0  0  0  0  0  0
  -23.9985   -7.4689   22.7506 H   0  0  0  0  0  0
  -21.0774   -8.8695   19.8964 H   0  0  0  0  0  0
  -22.3604  -10.9610   19.6101 H   0  0  0  0  0  0
  -21.2064   -7.6108   23.9689 H   0  0  0  0  0  0
  -21.1516   -6.0494   25.9075 H   0  0  0  0  0  0
  -22.0576   -2.7555   23.2831 H   0  0  0  0  0  0
  -22.3974  -12.0074   22.4833 H   0  0  0  0  0  0
  -21.1059  -13.1420   22.2291 H   0  0  0  0  0  0
  -24.6712  -15.8364   20.5381 H   0  0  0  0  0  0
  -26.2736  -15.6251   20.0379 H   0  0  0  0  0  0
  -26.7133  -32.5545   23.1143 H   0  0  0  0  0  0
  -25.0029  -33.9681   25.0394 H   0  0  0  0  0  0
  -22.6887  -31.3154   21.4164 H   0  0  0  0  0  0
  -23.3719  -35.9643   23.3259 H   0  0  0  0  0  0
  -24.3538  -36.8873   22.2049 H   0  0  0  0  0  0
  -23.7258  -37.6492   23.6686 H   0  0  0  0  0  0
  -26.0546  -31.6125   20.6080 H   0  0  0  0  0  0
  -26.8065  -30.8691   21.9927 H   0  0  0  0  0  0
  -28.0921  -29.1166   21.1721 H   0  0  0  0  0  0
  -26.0794  -25.9954   18.9908 H   0  0  0  0  0  0
  -23.9790  -27.2942   19.0426 H   0  0  0  0  0  0
  -23.7234  -30.5962   19.3975 H   0  0  0  0  0  0
  -22.7361  -29.2322   19.8694 H   0  0  0  0  0  0
  -25.1301  -36.1895   25.0834 H   0  0  0  0  0  0
  -21.0091  -28.3139   24.1441 H   0  0  0  0  0  0
  -20.5866  -26.2175   23.3317 H   0  0  0  0  0  0
  -21.6787  -26.7576   22.1008 H   0  0  0  0  0  0
  -19.6997  -25.6476   21.0897 H   0  0  0  0  0  0
  -19.6613  -27.3473   20.6747 H   0  0  0  0  0  0
  -17.4142  -26.6347   21.4412 H   0  0  0  0  0  0
  -18.0834  -25.9893   22.9225 H   0  0  0  0  0  0
  -19.7965  -30.7419   24.1770 H   0  0  0  0  0  0
  -17.5024  -31.6454   24.4639 H   0  0  0  0  0  0
  -15.5337  -30.2883   23.7562 H   0  0  0  0  0  0
  -15.8731  -28.0516   22.7483 H   0  0  0  0  0  0
  -24.6053  -30.6928   25.7698 H   0  0  0  0  0  0
  -24.9038  -32.2802   26.4845 H   0  0  0  0  0  0
  -25.8198  -30.8800   27.0125 H   0  0  0  0  0  0
  -26.2923  -29.6614   24.1294 H   0  0  0  0  0  0
  -27.4248  -29.7342   25.4585 H   0  0  0  0  0  0
  -27.8754  -30.4147   23.9167 H   0  0  0  0  0  0
  -27.2661  -33.3544   26.2036 H   0  0  0  0  0  0
  -28.3948  -32.6769   25.0290 H   0  0  0  0  0  0
  -28.0729  -31.8355   26.5347 H   0  0  0  0  0  0
  -28.2612  -38.0060   24.7564 H   0  0  0  0  0  0
  -28.1030  -36.2613   24.6285 H   0  0  0  0  0  0
  -27.2308  -37.1407   25.8877 H   0  0  0  0  0  0
  -20.9114  -29.9100   21.7345 H   0  0  0  0  0  0
  -26.0120  -38.2835   24.1446 H   0  0  0  0  0  0
  -27.3568  -22.7667   26.1576 H   0  0  0  0  0  0
  -28.5929  -21.5706   25.8103 H   0  0  0  0  0  0
  -26.8904  -21.1089   25.7620 H   0  0  0  0  0  0
  -26.0842  -24.6868   24.8621 H   0  0  0  0  0  0
  -26.9724  -25.7007   23.7207 H   0  0  0  0  0  0
  -27.8197  -24.9504   25.0809 H   0  0  0  0  0  0
  -30.9069  -16.8352   19.9481 H   0  0  0  0  0  0
  -31.8750  -18.0195   20.8116 H   0  0  0  0  0  0
  -30.3414  -18.4379   20.0769 H   0  0  0  0  0  0
  -30.5206  -16.6175   24.7845 H   0  0  0  0  0  0
  -30.6079  -14.8968   24.5391 H   0  0  0  0  0  0
  -29.1304  -15.7518   24.1293 H   0  0  0  0  0  0
  -32.6314  -16.8865   23.4900 H   0  0  0  0  0  0
  -32.8341  -16.2310   21.8627 H   0  0  0  0  0  0
  -32.7184  -15.1603   23.2346 H   0  0  0  0  0  0
  -27.2998  -20.5641   20.4568 H   0  0  0  0  0  0
  -28.7678  -21.5228   20.1899 H   0  0  0  0  0  0
  -27.1656  -22.1427   19.7441 H   0  0  0  0  0  0
  -27.2219  -19.3393   22.6279 H   0  0  0  0  0  0
  -28.0428  -19.6138   24.1228 H   0  0  0  0  0  0
  -26.3458  -25.0518   21.2716 H   0  0  0  0  0  0
  -27.3079  -24.1942   20.1139 H   0  0  0  0  0  0
  -30.0336  -20.4850   22.5056 H   0  0  0  0  0  0
  -29.1604  -19.5297   21.3452 H   0  0  0  0  0  0
  -29.3947  -25.1785   21.0658 H   0  0  0  0  0  0
  -28.4517  -26.1840   22.1265 H   0  0  0  0  0  0
  -29.1105  -17.0410   21.7475 H   0  0  0  0  0  0
  -29.5890  -14.3336   22.3111 H   0  0  0  0  0  0
  -29.6904  -18.1528   23.7908 H   0  0  0  0  0  0
  -31.0371  -18.7475   23.1145 H   0  0  0  0  0  0
  1 25  1  0  0  0
  1 30  2  0  0  0
  1 88  1  0  0  0
  2  3  1  0  0  0
  2 25  1  0  0  0
  2 90  1  0  0  0
  2 91  1  0  0  0
  3  4  1  0  0  0
  3 92  1  0  0  0
  3 93  1  0  0  0
  4  5  1  0  0  0
  4 94  1  0  0  0
  4 95  1  0  0  0
  5  6  1  0  0  0
  5 26  1  0  0  0
  5 96  1  0  0  0
  6 25  1  0  0  0
  6 97  1  0  0  0
  6 98  1  0  0  0
  7  8  2  0  0  0
  7 26  1  0  0  0
  7 29  1  0  0  0
  8  9  1  0  0  0
  8 22  1  0  0  0
  9 10  1  0  0  0
  9 27  2  0  0  0
 10 11  2  0  0  0
 10 15  1  0  0  0
 11 12  1  0  0  0
 11 99  1  0  0  0
 12 13  2  0  0  0
 12100  1  0  0  0
 13 14  1  0  0  0
 13 31  1  0  0  0
 14 15  2  0  0  0
 14101  1  0  0  0
 15102  1  0  0  0
 16 17  2  0  0  0
 16 21  1  0  0  0
 16 31  1  0  0  0
 17 18  1  0  0  0
 17103  1  0  0  0
 18 19  2  0  0  0
 18104  1  0  0  0
 19 20  1  0  0  0
 19 24  1  0  0  0
 20 21  2  0  0  0
 20105  1  0  0  0
 21 23  1  0  0  0
 22 28  1  0  0  0
 22 32  2  0  0  0
 26 27  1  0  0  0
 28106  1  0  0  0
 28107  1  0  0  0
 29108  1  0  0  0
 29109  1  0  0  0
 33 34  1  0  0  0
 33 66  1  0  0  0
 33 70  2  0  0  0
 34 36  1  0  0  0
 34 59  1  0  0  0
 34110  1  0  0  0
 35 44  2  0  0  0
 35 45  1  0  0  0
 35 68  1  0  0  0
 36 56  1  0  0  0
 36111  1  0  0  0
 37 39  1  0  0  0
 37 47  1  0  0  0
 37 66  1  0  0  0
 37112  1  0  0  0
 38 43  2  0  0  0
 38 46  1  0  0  0
 38 47  1  0  0  0
 39 64  1  0  0  0
 39 67  2  0  0  0
 40 52  1  0  0  0
 40 53  2  0  0  0
 40 58  1  0  0  0
 41113  1  0  0  0
 41114  1  0  0  0
 41115  1  0  0  0
 41 48  1  0  0  0
 42 43  1  0  0  0
 42 66  1  0  0  0
 42116  1  0  0  0
 42117  1  0  0  0
 43 44  1  0  0  0
 44118  1  0  0  0
 45 46  2  0  0  0
 45119  1  0  0  0
 46120  1  0  0  0
 47121  1  0  0  0
 47122  1  0  0  0
 48 56  1  0  0  0
 48 65  1  0  0  0
 48123  1  0  0  0
 49 50  1  0  0  0
 49 53  1  0  0  0
 49 64  1  0  0  0
 49124  1  0  0  0
 50 51  1  0  0  0
 50125  1  0  0  0
 50126  1  0  0  0
 51 52  1  0  0  0
 51127  1  0  0  0
 51128  1  0  0  0
 52129  1  0  0  0
 52130  1  0  0  0
 53 54  1  0  0  0
 54 55  2  0  0  0
 54131  1  0  0  0
 55 57  1  0  0  0
 55132  1  0  0  0
 56 69  2  0  0  0
 57 58  2  0  0  0
 57133  1  0  0  0
 58134  1  0  0  0
 59 60  1  0  0  0
 59 61  1  0  0  0
 59 62  1  0  0  0
 60135  1  0  0  0
 60136  1  0  0  0
 60137  1  0  0  0
 61138  1  0  0  0
 61139  1  0  0  0
 61140  1  0  0  0
 62141  1  0  0  0
 62142  1  0  0  0
 62143  1  0  0  0
 63 65  1  0  0  0
 63144  1  0  0  0
 63145  1  0  0  0
 63146  1  0  0  0
 64147  1  0  0  0
 65148  1  0  0  0
 68 84  1  0  0  0
 71 72  1  0  0  0
 71 73  2  0  0  0
 71 75  1  0  0  0
 72 74  2  0  0  0
 72 76  1  0  0  0
 73 81  1  0  0  0
 73 87  1  0  0  0
 74 82  1  0  0  0
 74 87  1  0  0  0
 75149  1  0  0  0
 75150  1  0  0  0
 75151  1  0  0  0
 76152  1  0  0  0
 76153  1  0  0  0
 76154  1  0  0  0
 77155  1  0  0  0
 77156  1  0  0  0
 77157  1  0  0  0
 77 85  1  0  0  0
 78158  1  0  0  0
 78159  1  0  0  0
 78160  1  0  0  0
 78 86  1  0  0  0
 79 86  1  0  0  0
 79161  1  0  0  0
 79162  1  0  0  0
 79163  1  0  0  0
 80 87  1  0  0  0
 80164  1  0  0  0
 80165  1  0  0  0
 80166  1  0  0  0
 81 83  1  0  0  0
 81167  1  0  0  0
 81168  1  0  0  0
 82 84  1  0  0  0
 82169  1  0  0  0
 82170  1  0  0  0
 83 89  1  0  0  0
 83171  1  0  0  0
 83172  1  0  0  0
 84173  1  0  0  0
 84174  1  0  0  0
 85 86  1  0  0  0
 85 89  1  0  0  0
 85175  1  0  0  0
 86 88  1  0  0  0
 88176  1  0  0  0
 89177  1  0  0  0
 89178  1  0  0  0
M  CHG  1  89   1
M  ISO  4   1 100  68 101  84 101  88 100
M  END
> <chiral flag>
0

> <version>
0

> <s_m_source_file>
/data/baiqing/PycharmProjects/Reinvent-master-3.2/result/LINK_invent/BTK/process_docking_weight1_custom_sum_contain_oxygen_bond_distance_aromatic_linkinvent_7_9_3/rearranged_h_0023.sdf

> <i_m_source_file_index>
23

> <r_mmod_Potential_Energy-OPLS-2005>
-253.713104248047

> <r_mmod_Stretch_Energy-OPLS-2005>
39.1598510742188

> <r_mmod_Bend_Energy-OPLS-2005>
125.427169799805

> <r_mmod_Torsional_Energy-OPLS-2005>
270.888305664062

> <r_mmod_Improper_Torsional_Energy-OPLS-2005>
2.52768111228943

> <r_mmod_Van_der_Waal_Energy-OPLS-2005>
148.117248535156

> <r_mmod_Electrostatic_Energy-OPLS-2005>
-395.193481445312

> <r_mmod_Solvation_Energy-OPLS-2005>
-458.281616210938

> <b_mmod_Minimization_Converged-OPLS-2005>
0

> <r_mmod_RMS_Derivative-OPLS-2005>
7.67243194580078

$$$$
23
                    3D
 Structure written by MMmdl.
177185  0  0  1  0            999 V2000
  -30.7337  -14.3436   20.7141 C   0  0  0  0  0  0
  -30.4270  -12.2910   19.3790 C   0  0  0  0  0  0
  -29.4843  -12.5335   18.1840 C   0  0  0  0  0  0
  -28.0075  -12.3840   18.6010 C   0  0  0  0  0  0
  -27.6668  -13.1903   19.8810 C   0  0  2  0  0  0
  -28.6992  -12.8878   20.9864 C   0  0  0  0  0  0
  -25.2614  -13.8101   20.5659 C   0  0  0  0  0  0
  -24.1856  -13.0419   20.9191 C   0  0  0  0  0  0
  -24.6379  -11.6873   20.8747 C   0  0  0  0  0  0
  -23.9042  -10.4283   21.0412 C   0  0  0  0  0  0
  -24.3599   -9.4200   21.9188 C   0  0  0  0  0  0
  -23.6277   -8.2234   22.0756 C   0  0  0  0  0  0
  -22.4260   -8.0277   21.3547 C   0  0  0  0  0  0
  -21.9893   -9.0251   20.4652 C   0  0  0  0  0  0
  -22.7216  -10.2131   20.3059 C   0  0  0  0  0  0
  -21.6852   -6.0730   22.5278 C   0  0  0  0  0  0
  -21.4012   -6.5635   23.8208 C   0  0  0  0  0  0
  -21.3658   -5.6784   24.9177 C   0  0  0  0  0  0
  -21.6044   -4.3051   24.7224 C   0  0  0  0  0  0
  -21.8821   -3.8144   23.4344 C   0  0  0  0  0  0
  -21.9189   -4.6957   22.3404 C   0  0  0  0  0  0
  -22.7893  -13.5255   21.1852 C   0  0  0  0  0  0
  -22.1662   -4.2145   21.0979 F   0  0  0  0  0  0
  -21.5630   -3.4537   25.7741 F   0  0  0  0  0  0
  -30.0453  -13.2029   20.4646 N   0  0  0  0  0  0
  -26.3039  -12.9242   20.3351 N   0  0  0  0  0  0
  -25.9291  -11.6430   20.5743 N   0  0  0  0  0  0
  -22.0489  -12.8265   22.0385 N   0  0  0  0  0  0
  -25.4349  -15.1789   20.3936 N   0  0  0  0  0  0
  -31.7424  -14.6919   20.0914 O   0  0  0  0  0  0
  -21.6630   -6.8871   21.4239 O   0  0  0  0  0  0
  -22.3620  -14.5578   20.6694 O   0  0  0  0  0  0
  -24.6070  -31.8737   23.2147 C   0  0  0  0  0  0
  -25.8988  -32.4851   23.8439 C   0  0  1  0  0  0
  -27.2314  -27.4806   20.0826 C   0  0  0  0  0  0
  -25.5878  -33.8646   24.2386 N   0  0  0  0  0  0
  -23.3956  -30.4950   21.5562 C   0  0  2  0  0  0
  -24.8411  -28.9688   20.1149 C   0  0  0  0  0  0
  -22.7412  -29.4622   22.4998 C   0  0  0  0  0  0
  -18.0273  -28.1310   22.8459 C   0  0  0  0  0  0
  -24.1462  -36.7326   23.2642 C   0  0  0  0  0  0
  -25.9196  -30.8524   21.3621 C   0  0  0  0  0  0
  -25.9982  -29.4884   20.7100 C   0  0  0  0  0  0
  -27.1994  -28.7496   20.6960 C   0  0  0  0  0  0
  -26.0717  -26.9742   19.4633 C   0  0  0  0  0  0
  -24.8710  -27.7098   19.4877 C   0  0  0  0  0  0
  -23.5998  -29.8299   20.1698 C   0  0  0  0  0  0
  -25.4083  -36.3144   24.0361 C   0  0  1  0  0  0
  -20.5854  -28.3635   23.1328 C   0  0  2  0  0  0
  -20.6752  -26.9339   22.5522 C   0  0  0  0  0  0
  -19.5789  -26.6269   21.5275 C   0  0  0  0  0  0
  -18.1922  -26.7839   22.1586 C   0  0  0  0  0  0
  -19.1514  -28.8779   23.2878 C   0  0  0  0  0  0
  -18.9447  -30.1384   23.8889 C   0  0  0  0  0  0
  -17.6457  -30.6536   24.0520 C   0  0  0  0  0  0
  -25.8998  -34.9504   23.5172 C   0  0  0  0  0  0
  -16.5349  -29.9043   23.6271 C   0  0  0  0  0  0
  -16.7260  -28.6438   23.0328 C   0  0  0  0  0  0
  -26.4456  -31.6607   25.0731 C   0  0  0  0  0  0
  -25.3753  -31.3683   26.1505 C   0  0  0  0  0  0
  -27.0288  -30.3061   24.6067 C   0  0  0  0  0  0
  -27.6059  -32.4297   25.7473 C   0  0  0  0  0  0
  -27.5578  -37.1822   24.8475 C   0  0  0  0  0  0
  -21.4142  -29.2991   22.3745 N   0  0  0  0  0  0
  -26.4291  -37.3821   23.9414 N   0  0  0  0  0  0
  -24.6587  -31.0856   22.1038 N   0  0  0  0  0  0
  -23.4229  -28.8081   23.2946 O   0  0  0  0  0  0
  -28.3553  -26.7034   20.1226 O   0  0  0  0  0  0
  -26.5577  -34.8956   22.4733 O   0  0  0  0  0  0
  -23.5277  -32.1461   23.7595 O   0  0  0  0  0  0
  -24.5668  -20.2533   22.8954 C   0  0  0  0  0  0
  -24.2003  -21.6135   22.8851 C   0  0  0  0  0  0
  -25.6979  -19.8150   23.6104 C   0  0  0  0  0  0
  -24.9484  -22.5551   23.6429 C   0  0  0  0  0  0
  -26.4246  -20.7388   24.3953 C   0  0  0  0  0  0
  -26.0483  -22.1029   24.4178 C   0  0  0  0  0  0
  -23.0144  -22.0254   22.0244 C   0  0  0  0  0  0
  -26.7408  -18.5085   21.0444 C   0  0  0  0  0  0
  -26.1743  -18.3756   23.4461 C   0  0  0  0  0  0
  -24.5865  -24.0419   23.6080 C   0  0  0  0  0  0
  -29.5551  -17.4325   21.9228 C   0  0  0  0  0  0
  -27.5685  -25.0382   21.7888 C   0  0  0  0  0  0
  -30.6352  -16.3696   22.2039 C   0  0  0  0  0  0
  -28.1720  -17.1601   22.5690 C   0  0  0  0  0  0
  -26.3444  -25.5430   22.5912 C   0  0  0  0  0  0
  -28.6032  -26.1316   21.4118 C   0  0  0  0  0  0
  -30.2264  -15.0546   21.7287 N   0  0  0  0  0  0
  -25.1345  -24.7045   22.4029 N   0  3  0  0  0  0
  -27.2563  -18.3225   22.4259 N   0  3  1  0  0  0
  -27.8221  -20.2128   25.2736 Cl  0  0  0  0  0  0
  -26.9846  -23.2211   25.3538 Cl  0  0  0  0  0  0
  -31.4660  -12.4234   19.0715 H   0  0  0  0  0  0
  -30.3520  -11.2583   19.7225 H   0  0  0  0  0  0
  -29.7154  -11.8373   17.3764 H   0  0  0  0  0  0
  -29.6514  -13.5345   17.7829 H   0  0  0  0  0  0
  -27.8118  -11.3237   18.7687 H   0  0  0  0  0  0
  -27.3545  -12.6880   17.7824 H   0  0  0  0  0  0
  -27.7395  -14.2498   19.6346 H   0  0  0  0  0  0
  -28.6632  -11.8301   21.2516 H   0  0  0  0  0  0
  -28.4326  -13.4117   21.9037 H   0  0  0  0  0  0
  -25.2747   -9.5678   22.4758 H   0  0  0  0  0  0
  -23.9989   -7.4626   22.7474 H   0  0  0  0  0  0
  -21.0823   -8.8769   19.8960 H   0  0  0  0  0  0
  -22.3677  -10.9671   19.6166 H   0  0  0  0  0  0
  -21.2004   -7.6140   23.9713 H   0  0  0  0  0  0
  -21.1481   -6.0518   25.9076 H   0  0  0  0  0  0
  -22.0599   -2.7605   23.2847 H   0  0  0  0  0  0
  -22.4054  -11.9914   22.4787 H   0  0  0  0  0  0
  -21.1116  -13.1327   22.2567 H   0  0  0  0  0  0
  -24.6014  -15.7533   20.3237 H   0  0  0  0  0  0
  -26.1946  -15.5167   19.8168 H   0  0  0  0  0  0
  -26.7053  -32.5585   23.1212 H   0  0  0  0  0  0
  -25.0033  -33.9821   25.0543 H   0  0  0  0  0  0
  -22.6780  -31.3082   21.4239 H   0  0  0  0  0  0
  -23.3734  -35.9652   23.3329 H   0  0  0  0  0  0
  -24.3558  -36.8903   22.2050 H   0  0  0  0  0  0
  -23.7208  -37.6540   23.6623 H   0  0  0  0  0  0
  -26.0293  -31.6177   20.5941 H   0  0  0  0  0  0
  -26.8072  -30.9055   21.9815 H   0  0  0  0  0  0
  -28.0944  -29.1444   21.1566 H   0  0  0  0  0  0
  -26.0964  -26.0069   18.9811 H   0  0  0  0  0  0
  -23.9841  -27.3066   19.0188 H   0  0  0  0  0  0
  -23.7069  -30.6061   19.4105 H   0  0  0  0  0  0
  -22.7210  -29.2538   19.8705 H   0  0  0  0  0  0
  -25.1257  -36.2040   25.0859 H   0  0  0  0  0  0
  -20.9932  -28.3260   24.1452 H   0  0  0  0  0  0
  -20.5567  -26.2304   23.3769 H   0  0  0  0  0  0
  -21.6650  -26.7324   22.1414 H   0  0  0  0  0  0
  -19.6983  -25.6157   21.1364 H   0  0  0  0  0  0
  -19.6773  -27.3016   20.6780 H   0  0  0  0  0  0
  -17.4259  -26.6625   21.3876 H   0  0  0  0  0  0
  -18.0212  -25.9966   22.8933 H   0  0  0  0  0  0
  -19.7937  -30.7163   24.2274 H   0  0  0  0  0  0
  -17.5028  -31.6221   24.5118 H   0  0  0  0  0  0
  -15.5346  -30.2956   23.7575 H   0  0  0  0  0  0
  -15.8651  -28.0750   22.7060 H   0  0  0  0  0  0
  -24.5891  -30.7073   25.7851 H   0  0  0  0  0  0
  -24.8976  -32.2809   26.5050 H   0  0  0  0  0  0
  -25.8124  -30.8779   27.0207 H   0  0  0  0  0  0
  -26.2817  -29.6818   24.1150 H   0  0  0  0  0  0
  -27.4107  -29.7306   25.4510 H   0  0  0  0  0  0
  -27.8630  -30.4404   23.9188 H   0  0  0  0  0  0
  -27.2716  -33.3574   26.2135 H   0  0  0  0  0  0
  -28.3828  -32.6889   25.0261 H   0  0  0  0  0  0
  -28.0777  -31.8355   26.5319 H   0  0  0  0  0  0
  -28.2638  -38.0086   24.7518 H   0  0  0  0  0  0
  -28.1034  -36.2625   24.6292 H   0  0  0  0  0  0
  -27.2301  -37.1481   25.8884 H   0  0  0  0  0  0
  -20.9302  -29.8772   21.7030 H   0  0  0  0  0  0
  -26.0199  -38.2914   24.1392 H   0  0  0  0  0  0
  -24.0072  -19.5451   22.2990 H   0  0  0  0  0  0
  -22.6639  -21.1946   21.4103 H   0  0  0  0  0  0
  -23.2739  -22.8302   21.3362 H   0  0  0  0  0  0
  -22.1809  -22.3512   22.6459 H   0  0  0  0  0  0
  -26.2961  -19.4949   20.9206 H   0  0  0  0  0  0
  -25.9762  -17.7724   20.8064 H   0  0  0  0  0  0
  -27.5227  -18.4316   20.2908 H   0  0  0  0  0  0
  -25.3468  -17.7260   23.1538 H   0  0  0  0  0  0
  -26.5087  -17.9962   24.4127 H   0  0  0  0  0  0
  -24.8773  -24.5562   24.5251 H   0  0  0  0  0  0
  -23.5015  -24.1490   23.5875 H   0  0  0  0  0  0
  -29.4548  -17.5356   20.8421 H   0  0  0  0  0  0
  -29.9333  -18.3920   22.2796 H   0  0  0  0  0  0
  -27.2582  -24.5276   20.8759 H   0  0  0  0  0  0
  -28.0631  -24.2802   22.3996 H   0  0  0  0  0  0
  -30.8325  -16.3055   23.2749 H   0  0  0  0  0  0
  -31.5759  -16.6728   21.7414 H   0  0  0  0  0  0
  -28.3316  -16.9545   23.6277 H   0  0  0  0  0  0
  -27.7064  -16.2666   22.1522 H   0  0  0  0  0  0
  -26.0634  -26.5453   22.2686 H   0  0  0  0  0  0
  -26.6115  -25.6526   23.6408 H   0  0  0  0  0  0
  -28.6718  -26.8986   22.1886 H   0  0  0  0  0  0
  -29.5944  -25.6837   21.3577 H   0  0  0  0  0  0
  -29.4521  -14.6158   22.2026 H   0  0  0  0  0  0
  -24.4094  -25.3298   22.0869 H   0  0  0  0  0  0
  -25.2727  -24.0269   21.6712 H   0  0  0  0  0  0
  -27.8320  -19.1247   22.6309 H   0  0  0  0  0  0
  1 25  1  0  0  0
  1 30  2  0  0  0
  1 87  1  0  0  0
  2  3  1  0  0  0
  2 25  1  0  0  0
  2 92  1  0  0  0
  2 93  1  0  0  0
  3  4  1  0  0  0
  3 94  1  0  0  0
  3 95  1  0  0  0
  4  5  1  0  0  0
  4 96  1  0  0  0
  4 97  1  0  0  0
  5  6  1  0  0  0
  5 26  1  0  0  0
  5 98  1  0  0  0
  6 25  1  0  0  0
  6 99  1  0  0  0
  6100  1  0  0  0
  7  8  2  0  0  0
  7 26  1  0  0  0
  7 29  1  0  0  0
  8  9  1  0  0  0
  8 22  1  0  0  0
  9 10  1  0  0  0
  9 27  2  0  0  0
 10 11  2  0  0  0
 10 15  1  0  0  0
 11 12  1  0  0  0
 11101  1  0  0  0
 12 13  2  0  0  0
 12102  1  0  0  0
 13 14  1  0  0  0
 13 31  1  0  0  0
 14 15  2  0  0  0
 14103  1  0  0  0
 15104  1  0  0  0
 16 17  2  0  0  0
 16 21  1  0  0  0
 16 31  1  0  0  0
 17 18  1  0  0  0
 17105  1  0  0  0
 18 19  2  0  0  0
 18106  1  0  0  0
 19 20  1  0  0  0
 19 24  1  0  0  0
 20 21  2  0  0  0
 20107  1  0  0  0
 21 23  1  0  0  0
 22 28  1  0  0  0
 22 32  2  0  0  0
 26 27  1  0  0  0
 28108  1  0  0  0
 28109  1  0  0  0
 29110  1  0  0  0
 29111  1  0  0  0
 33 34  1  0  0  0
 33 66  1  0  0  0
 33 70  2  0  0  0
 34 36  1  0  0  0
 34 59  1  0  0  0
 34112  1  0  0  0
 35 44  2  0  0  0
 35 45  1  0  0  0
 35 68  1  0  0  0
 36 56  1  0  0  0
 36113  1  0  0  0
 37 39  1  0  0  0
 37 47  1  0  0  0
 37 66  1  0  0  0
 37114  1  0  0  0
 38 43  2  0  0  0
 38 46  1  0  0  0
 38 47  1  0  0  0
 39 64  1  0  0  0
 39 67  2  0  0  0
 40 52  1  0  0  0
 40 53  2  0  0  0
 40 58  1  0  0  0
 41115  1  0  0  0
 41116  1  0  0  0
 41117  1  0  0  0
 41 48  1  0  0  0
 42 43  1  0  0  0
 42 66  1  0  0  0
 42118  1  0  0  0
 42119  1  0  0  0
 43 44  1  0  0  0
 44120  1  0  0  0
 45 46  2  0  0  0
 45121  1  0  0  0
 46122  1  0  0  0
 47123  1  0  0  0
 47124  1  0  0  0
 48 56  1  0  0  0
 48 65  1  0  0  0
 48125  1  0  0  0
 49 50  1  0  0  0
 49 53  1  0  0  0
 49 64  1  0  0  0
 49126  1  0  0  0
 50 51  1  0  0  0
 50127  1  0  0  0
 50128  1  0  0  0
 51 52  1  0  0  0
 51129  1  0  0  0
 51130  1  0  0  0
 52131  1  0  0  0
 52132  1  0  0  0
 53 54  1  0  0  0
 54 55  2  0  0  0
 54133  1  0  0  0
 55 57  1  0  0  0
 55134  1  0  0  0
 56 69  2  0  0  0
 57 58  2  0  0  0
 57135  1  0  0  0
 58136  1  0  0  0
 59 60  1  0  0  0
 59 61  1  0  0  0
 59 62  1  0  0  0
 60137  1  0  0  0
 60138  1  0  0  0
 60139  1  0  0  0
 61140  1  0  0  0
 61141  1  0  0  0
 61142  1  0  0  0
 62143  1  0  0  0
 62144  1  0  0  0
 62145  1  0  0  0
 63 65  1  0  0  0
 63146  1  0  0  0
 63147  1  0  0  0
 63148  1  0  0  0
 64149  1  0  0  0
 65150  1  0  0  0
 68 86  1  0  0  0
 71 72  2  0  0  0
 71 73  1  0  0  0
 71151  1  0  0  0
 72 74  1  0  0  0
 72 77  1  0  0  0
 73 75  2  0  0  0
 73 79  1  0  0  0
 74 76  2  0  0  0
 74 80  1  0  0  0
 75 76  1  0  0  0
 75 90  1  0  0  0
 76 91  1  0  0  0
 77152  1  0  0  0
 77153  1  0  0  0
 77154  1  0  0  0
 78155  1  0  0  0
 78156  1  0  0  0
 78157  1  0  0  0
 78 89  1  0  0  0
 79 89  1  0  0  0
 79158  1  0  0  0
 79159  1  0  0  0
 80 88  1  0  0  0
 80160  1  0  0  0
 80161  1  0  0  0
 81 83  1  0  0  0
 81 84  1  0  0  0
 81162  1  0  0  0
 81163  1  0  0  0
 82 85  1  0  0  0
 82 86  1  0  0  0
 82164  1  0  0  0
 82165  1  0  0  0
 83 87  1  0  0  0
 83166  1  0  0  0
 83167  1  0  0  0
 84 89  1  0  0  0
 84168  1  0  0  0
 84169  1  0  0  0
 85 88  1  0  0  0
 85170  1  0  0  0
 85171  1  0  0  0
 86172  1  0  0  0
 86173  1  0  0  0
 87174  1  0  0  0
 88175  1  0  0  0
 88176  1  0  0  0
 89177  1  0  0  0
M  CHG  2  88   1  89   1
M  ISO  4   1 100  68 101  86 101  87 100
M  END
> <chiral flag>
0

> <version>
0

> <s_m_source_file>
/data/baiqing/PycharmProjects/Reinvent-master-3.2/result/LINK_invent/BTK/process_docking_weight1_custom_sum_contain_oxygen_bond_distance_aromatic_linkinvent_7_9_3/rearranged_h_0023.sdf

> <i_m_source_file_index>
24

> <r_mmod_Potential_Energy-OPLS-2005>
-383.993072509766

> <r_mmod_Stretch_Energy-OPLS-2005>
35.735237121582

> <r_mmod_Bend_Energy-OPLS-2005>
93.7998275756836

> <r_mmod_Torsional_Energy-OPLS-2005>
242.098861694336

> <r_mmod_Improper_Torsional_Energy-OPLS-2005>
5.24670934677124

> <r_mmod_Van_der_Waal_Energy-OPLS-2005>
140.280044555664

> <r_mmod_Electrostatic_Energy-OPLS-2005>
-28.2405109405518

> <r_mmod_Solvation_Energy-OPLS-2005>
-881.935607910156

> <b_mmod_Minimization_Converged-OPLS-2005>
0

> <r_mmod_RMS_Derivative-OPLS-2005>
3.95395874977112

$$$$
24
                    3D
 Structure written by MMmdl.
153161  0  0  1  0            999 V2000
  -30.7120  -14.5709   20.5286 C   0  0  0  0  0  0
  -30.4153  -12.3602   19.4478 C   0  0  0  0  0  0
  -29.4940  -12.4912   18.2181 C   0  0  0  0  0  0
  -28.0202  -12.3402   18.6368 C   0  0  0  0  0  0
  -27.6498  -13.2231   19.8588 C   0  0  2  0  0  0
  -28.6962  -13.0983   20.9893 C   0  0  0  0  0  0
  -25.2540  -13.8191   20.5700 C   0  0  0  0  0  0
  -24.1820  -13.0443   20.9192 C   0  0  0  0  0  0
  -24.6393  -11.6915   20.8737 C   0  0  0  0  0  0
  -23.9065  -10.4296   21.0400 C   0  0  0  0  0  0
  -24.3622   -9.4216   21.9179 C   0  0  0  0  0  0
  -23.6297   -8.2253   22.0754 C   0  0  0  0  0  0
  -22.4276   -8.0290   21.3549 C   0  0  0  0  0  0
  -21.9909   -9.0257   20.4651 C   0  0  0  0  0  0
  -22.7235  -10.2137   20.3053 C   0  0  0  0  0  0
  -21.6861   -6.0736   22.5276 C   0  0  0  0  0  0
  -21.4022   -6.5636   23.8209 C   0  0  0  0  0  0
  -21.3667   -5.6786   24.9171 C   0  0  0  0  0  0
  -21.6046   -4.3050   24.7222 C   0  0  0  0  0  0
  -21.8814   -3.8141   23.4340 C   0  0  0  0  0  0
  -21.9195   -4.6959   22.3397 C   0  0  0  0  0  0
  -22.7841  -13.5224   21.1849 C   0  0  0  0  0  0
  -22.1663   -4.2146   21.0973 F   0  0  0  0  0  0
  -21.5630   -3.4533   25.7732 F   0  0  0  0  0  0
  -30.0143  -13.4007   20.4150 N   0  0  0  0  0  0
  -26.2978  -12.9394   20.3326 N   0  0  0  0  0  0
  -25.9328  -11.6537   20.5769 N   0  0  0  0  0  0
  -22.0491  -12.8230   22.0419 N   0  0  0  0  0  0
  -25.4207  -15.1916   20.4142 N   0  0  0  0  0  0
  -31.8743  -14.6598   20.1287 O   0  0  0  0  0  0
  -21.6649   -6.8882   21.4237 O   0  0  0  0  0  0
  -22.3517  -14.5518   20.6680 O   0  0  0  0  0  0
  -24.6226  -31.8653   23.2083 C   0  0  0  0  0  0
  -25.9085  -32.4811   23.8395 C   0  0  1  0  0  0
  -27.2129  -27.3445   20.1129 C   0  0  0  0  0  0
  -25.5917  -33.8614   24.2321 N   0  0  0  0  0  0
  -23.4144  -30.4933   21.5505 C   0  0  2  0  0  0
  -24.8588  -28.9613   20.1101 C   0  0  0  0  0  0
  -22.7458  -29.4659   22.4947 C   0  0  0  0  0  0
  -18.0284  -28.1382   22.8488 C   0  0  0  0  0  0
  -24.1487  -36.7308   23.2635 C   0  0  0  0  0  0
  -25.9553  -30.8037   21.3783 C   0  0  0  0  0  0
  -26.0279  -29.4349   20.7187 C   0  0  0  0  0  0
  -27.2078  -28.6361   20.7177 C   0  0  0  0  0  0
  -26.0230  -26.9356   19.4593 C   0  0  0  0  0  0
  -24.8559  -27.7144   19.4748 C   0  0  0  0  0  0
  -23.6279  -29.8387   20.1625 C   0  0  0  0  0  0
  -25.4108  -36.3113   24.0336 C   0  0  1  0  0  0
  -20.5883  -28.3691   23.1284 C   0  0  2  0  0  0
  -20.6780  -26.9418   22.5407 C   0  0  0  0  0  0
  -19.5756  -26.6382   21.5212 C   0  0  0  0  0  0
  -18.1932  -26.7925   22.1623 C   0  0  0  0  0  0
  -19.1535  -28.8849   23.2886 C   0  0  0  0  0  0
  -18.9462  -30.1448   23.8910 C   0  0  0  0  0  0
  -17.6464  -30.6590   24.0564 C   0  0  0  0  0  0
  -25.9043  -34.9475   23.5129 C   0  0  0  0  0  0
  -16.5354  -29.9095   23.6321 C   0  0  0  0  0  0
  -16.7270  -28.6507   23.0352 C   0  0  0  0  0  0
  -26.4469  -31.6602   25.0748 C   0  0  0  0  0  0
  -25.3698  -31.3740   26.1474 C   0  0  0  0  0  0
  -27.0298  -30.3028   24.6173 C   0  0  0  0  0  0
  -27.6044  -32.4321   25.7507 C   0  0  0  0  0  0
  -27.5586  -37.1806   24.8456 C   0  0  0  0  0  0
  -21.4173  -29.3058   22.3688 N   0  0  0  0  0  0
  -26.4289  -37.3803   23.9413 N   0  0  0  0  0  0
  -24.6829  -31.0694   22.1026 N   0  0  0  0  0  0
  -23.4194  -28.8178   23.3000 O   0  0  0  0  0  0
  -28.3165  -26.4805   20.1916 O   0  0  0  0  0  0
  -26.5614  -34.8933   22.4697 O   0  0  0  0  0  0
  -23.5394  -32.1436   23.7422 O   0  0  0  0  0  0
  -28.3546  -19.9217   19.8711 C   0  0  0  0  0  0
  -30.1713  -20.9010   21.1036 C   0  0  0  0  0  0
  -28.9901  -21.0940   20.3557 C   0  0  0  0  0  0
  -30.0323  -18.4090   20.8811 C   0  0  0  0  0  0
  -28.8516  -18.6114   20.1124 C   0  0  0  0  0  0
  -30.6796  -19.5947   21.3547 C   0  0  0  0  0  0
  -28.3482  -22.4770   20.0286 C   0  0  0  0  0  0
  -30.6962  -17.0181   21.1983 C   0  0  0  0  0  0
  -28.9681  -23.8722   20.4454 C   0  0  0  0  0  0
  -28.0299  -25.0523   19.9728 C   0  0  0  0  0  0
  -30.0536  -15.6831   20.9579 N   0  0  0  0  0  0
  -27.9795  -17.2918   19.4161 Cl  0  0  0  0  0  0
  -32.1512  -19.4839   22.2578 Cl  0  0  0  0  0  0
  -31.4604  -12.4430   19.1456 H   0  0  0  0  0  0
  -30.3168  -11.3711   19.8972 H   0  0  0  0  0  0
  -29.7480  -11.7344   17.4749 H   0  0  0  0  0  0
  -29.6469  -13.4587   17.7372 H   0  0  0  0  0  0
  -27.8575  -11.2890   18.8798 H   0  0  0  0  0  0
  -27.3618  -12.5623   17.7960 H   0  0  0  0  0  0
  -27.6645  -14.2545   19.5070 H   0  0  0  0  0  0
  -28.6945  -12.0897   21.4055 H   0  0  0  0  0  0
  -28.4534  -13.7664   21.8167 H   0  0  0  0  0  0
  -25.2769   -9.5696   22.4753 H   0  0  0  0  0  0
  -24.0010   -7.4641   22.7470 H   0  0  0  0  0  0
  -21.0840   -8.8766   19.8955 H   0  0  0  0  0  0
  -22.3685  -10.9676   19.6162 H   0  0  0  0  0  0
  -21.2023   -7.6146   23.9711 H   0  0  0  0  0  0
  -21.1499   -6.0521   25.9076 H   0  0  0  0  0  0
  -22.0591   -2.7602   23.2835 H   0  0  0  0  0  0
  -22.4118  -11.9912   22.4838 H   0  0  0  0  0  0
  -21.1107  -13.1253   22.2614 H   0  0  0  0  0  0
  -24.6482  -15.8385   20.5285 H   0  0  0  0  0  0
  -26.2671  -15.6437   20.0891 H   0  0  0  0  0  0
  -26.7155  -32.5495   23.1150 H   0  0  0  0  0  0
  -25.0048  -33.9765   25.0453 H   0  0  0  0  0  0
  -22.7068  -31.3136   21.4130 H   0  0  0  0  0  0
  -23.3763  -35.9626   23.3285 H   0  0  0  0  0  0
  -24.3588  -36.8934   22.2053 H   0  0  0  0  0  0
  -23.7212  -37.6498   23.6653 H   0  0  0  0  0  0
  -26.0822  -31.5691   20.6121 H   0  0  0  0  0  0
  -26.8386  -30.8525   22.0033 H   0  0  0  0  0  0
  -28.0995  -28.9891   21.2165 H   0  0  0  0  0  0
  -25.9502  -25.9931   18.9383 H   0  0  0  0  0  0
  -23.9606  -27.3476   18.9918 H   0  0  0  0  0  0
  -23.7504  -30.6203   19.4118 H   0  0  0  0  0  0
  -22.7472  -29.2712   19.8560 H   0  0  0  0  0  0
  -25.1281  -36.1981   25.0827 H   0  0  0  0  0  0
  -20.9973  -28.3265   24.1404 H   0  0  0  0  0  0
  -20.5684  -26.2306   23.3606 H   0  0  0  0  0  0
  -21.6651  -26.7455   22.1199 H   0  0  0  0  0  0
  -19.6922  -25.6288   21.1253 H   0  0  0  0  0  0
  -19.6693  -27.3184   20.6733 H   0  0  0  0  0  0
  -17.4202  -26.6665   21.4026 H   0  0  0  0  0  0
  -18.0339  -26.0067   22.9019 H   0  0  0  0  0  0
  -19.7937  -30.7255   24.2296 H   0  0  0  0  0  0
  -17.5021  -31.6271   24.5163 H   0  0  0  0  0  0
  -15.5357  -30.3008   23.7632 H   0  0  0  0  0  0
  -15.8666  -28.0827   22.7070 H   0  0  0  0  0  0
  -24.5859  -30.7111   25.7784 H   0  0  0  0  0  0
  -24.8905  -32.2918   26.4900 H   0  0  0  0  0  0
  -25.8009  -30.8897   27.0245 H   0  0  0  0  0  0
  -26.2863  -29.6802   24.1181 H   0  0  0  0  0  0
  -27.3984  -29.7256   25.4661 H   0  0  0  0  0  0
  -27.8741  -30.4320   23.9399 H   0  0  0  0  0  0
  -27.2660  -33.3601   26.2129 H   0  0  0  0  0  0
  -28.3828  -32.6913   25.0318 H   0  0  0  0  0  0
  -28.0746  -31.8422   26.5385 H   0  0  0  0  0  0
  -28.2590  -38.0119   24.7546 H   0  0  0  0  0  0
  -28.1102  -36.2658   24.6234 H   0  0  0  0  0  0
  -27.2319  -37.1399   25.8862 H   0  0  0  0  0  0
  -20.9335  -29.8805   21.6930 H   0  0  0  0  0  0
  -26.0183  -38.2878   24.1442 H   0  0  0  0  0  0
  -27.4540  -20.0255   19.2816 H   0  0  0  0  0  0
  -30.7065  -21.7576   21.4885 H   0  0  0  0  0  0
  -27.3366  -22.4336   20.4340 H   0  0  0  0  0  0
  -28.2174  -22.4923   18.9460 H   0  0  0  0  0  0
  -30.9364  -17.0208   22.2618 H   0  0  0  0  0  0
  -31.6631  -17.0453   20.6936 H   0  0  0  0  0  0
  -29.9591  -23.9855   20.0069 H   0  0  0  0  0  0
  -29.0911  -23.9146   21.5288 H   0  0  0  0  0  0
  -27.0727  -24.8293   20.4485 H   0  0  0  0  0  0
  -27.8855  -24.9271   18.8991 H   0  0  0  0  0  0
  -29.0813  -15.5821   21.2049 H   0  0  0  0  0  0
  1 25  1  0  0  0
  1 30  2  0  0  0
  1 81  1  0  0  0
  2  3  1  0  0  0
  2 25  1  0  0  0
  2 84  1  0  0  0
  2 85  1  0  0  0
  3  4  1  0  0  0
  3 86  1  0  0  0
  3 87  1  0  0  0
  4  5  1  0  0  0
  4 88  1  0  0  0
  4 89  1  0  0  0
  5  6  1  0  0  0
  5 26  1  0  0  0
  5 90  1  0  0  0
  6 25  1  0  0  0
  6 91  1  0  0  0
  6 92  1  0  0  0
  7  8  2  0  0  0
  7 26  1  0  0  0
  7 29  1  0  0  0
  8  9  1  0  0  0
  8 22  1  0  0  0
  9 10  1  0  0  0
  9 27  2  0  0  0
 10 11  2  0  0  0
 10 15  1  0  0  0
 11 12  1  0  0  0
 11 93  1  0  0  0
 12 13  2  0  0  0
 12 94  1  0  0  0
 13 14  1  0  0  0
 13 31  1  0  0  0
 14 15  2  0  0  0
 14 95  1  0  0  0
 15 96  1  0  0  0
 16 17  2  0  0  0
 16 21  1  0  0  0
 16 31  1  0  0  0
 17 18  1  0  0  0
 17 97  1  0  0  0
 18 19  2  0  0  0
 18 98  1  0  0  0
 19 20  1  0  0  0
 19 24  1  0  0  0
 20 21  2  0  0  0
 20 99  1  0  0  0
 21 23  1  0  0  0
 22 28  1  0  0  0
 22 32  2  0  0  0
 26 27  1  0  0  0
 28100  1  0  0  0
 28101  1  0  0  0
 29102  1  0  0  0
 29103  1  0  0  0
 33 34  1  0  0  0
 33 66  1  0  0  0
 33 70  2  0  0  0
 34 36  1  0  0  0
 34 59  1  0  0  0
 34104  1  0  0  0
 35 44  2  0  0  0
 35 45  1  0  0  0
 35 68  1  0  0  0
 36 56  1  0  0  0
 36105  1  0  0  0
 37 39  1  0  0  0
 37 47  1  0  0  0
 37 66  1  0  0  0
 37106  1  0  0  0
 38 43  2  0  0  0
 38 46  1  0  0  0
 38 47  1  0  0  0
 39 64  1  0  0  0
 39 67  2  0  0  0
 40 52  1  0  0  0
 40 53  2  0  0  0
 40 58  1  0  0  0
 41107  1  0  0  0
 41108  1  0  0  0
 41109  1  0  0  0
 41 48  1  0  0  0
 42 43  1  0  0  0
 42 66  1  0  0  0
 42110  1  0  0  0
 42111  1  0  0  0
 43 44  1  0  0  0
 44112  1  0  0  0
 45 46  2  0  0  0
 45113  1  0  0  0
 46114  1  0  0  0
 47115  1  0  0  0
 47116  1  0  0  0
 48 56  1  0  0  0
 48 65  1  0  0  0
 48117  1  0  0  0
 49 50  1  0  0  0
 49 53  1  0  0  0
 49 64  1  0  0  0
 49118  1  0  0  0
 50 51  1  0  0  0
 50119  1  0  0  0
 50120  1  0  0  0
 51 52  1  0  0  0
 51121  1  0  0  0
 51122  1  0  0  0
 52123  1  0  0  0
 52124  1  0  0  0
 53 54  1  0  0  0
 54 55  2  0  0  0
 54125  1  0  0  0
 55 57  1  0  0  0
 55126  1  0  0  0
 56 69  2  0  0  0
 57 58  2  0  0  0
 57127  1  0  0  0
 58128  1  0  0  0
 59 60  1  0  0  0
 59 61  1  0  0  0
 59 62  1  0  0  0
 60129  1  0  0  0
 60130  1  0  0  0
 60131  1  0  0  0
 61132  1  0  0  0
 61133  1  0  0  0
 61134  1  0  0  0
 62135  1  0  0  0
 62136  1  0  0  0
 62137  1  0  0  0
 63 65  1  0  0  0
 63138  1  0  0  0
 63139  1  0  0  0
 63140  1  0  0  0
 64141  1  0  0  0
 65142  1  0  0  0
 68 80  1  0  0  0
 71 73  2  0  0  0
 71 75  1  0  0  0
 71143  1  0  0  0
 72 73  1  0  0  0
 72 76  2  0  0  0
 72144  1  0  0  0
 73 77  1  0  0  0
 74 75  2  0  0  0
 74 76  1  0  0  0
 74 78  1  0  0  0
 75 82  1  0  0  0
 76 83  1  0  0  0
 77 79  1  0  0  0
 77145  1  0  0  0
 77146  1  0  0  0
 78 81  1  0  0  0
 78147  1  0  0  0
 78148  1  0  0  0
 79 80  1  0  0  0
 79149  1  0  0  0
 79150  1  0  0  0
 80151  1  0  0  0
 80152  1  0  0  0
 81153  1  0  0  0
M  ISO  4   1 100  68 101  80 101  81 100
M  END
> <chiral flag>
0

> <version>
0

> <s_m_source_file>
/data/baiqing/PycharmProjects/Reinvent-master-3.2/result/LINK_invent/BTK/process_docking_weight1_custom_sum_contain_oxygen_bond_distance_aromatic_linkinvent_7_9_3/rearranged_h_0023.sdf

> <i_m_source_file_index>
25

> <r_mmod_Potential_Energy-OPLS-2005>
27.4784297943115

> <r_mmod_Stretch_Energy-OPLS-2005>
66.8810577392578

> <r_mmod_Bend_Energy-OPLS-2005>
152.532012939453

> <r_mmod_Torsional_Energy-OPLS-2005>
190.907272338867

> <r_mmod_Improper_Torsional_Energy-OPLS-2005>
3.1338107585907

> <r_mmod_Van_der_Waal_Energy-OPLS-2005>
154.823837280273

> <r_mmod_Electrostatic_Energy-OPLS-2005>
-381.026153564453

> <r_mmod_Solvation_Energy-OPLS-2005>
-199.81266784668

> <b_mmod_Minimization_Converged-OPLS-2005>
0

> <r_mmod_RMS_Derivative-OPLS-2005>
1.31204414367676

$$$$
25
                    3D
 Structure written by MMmdl.
159167  0  0  1  0            999 V2000
  -30.5323  -14.8580   20.4333 C   0  0  0  0  0  0
  -30.4474  -12.5248   19.4894 C   0  0  0  0  0  0
  -29.5193  -12.5237   18.2509 C   0  0  0  0  0  0
  -28.0477  -12.3242   18.6640 C   0  0  0  0  0  0
  -27.6385  -13.2345   19.8512 C   0  0  2  0  0  0
  -28.6823  -13.1922   20.9891 C   0  0  0  0  0  0
  -25.2474  -13.8178   20.5672 C   0  0  0  0  0  0
  -24.1775  -13.0426   20.9220 C   0  0  0  0  0  0
  -24.6375  -11.6909   20.8762 C   0  0  0  0  0  0
  -23.9059  -10.4289   21.0419 C   0  0  0  0  0  0
  -24.3599   -9.4191   21.9187 C   0  0  0  0  0  0
  -23.6278   -8.2228   22.0742 C   0  0  0  0  0  0
  -22.4254   -8.0284   21.3545 C   0  0  0  0  0  0
  -21.9905   -9.0255   20.4638 C   0  0  0  0  0  0
  -22.7236  -10.2132   20.3069 C   0  0  0  0  0  0
  -21.6842   -6.0740   22.5286 C   0  0  0  0  0  0
  -21.4004   -6.5638   23.8221 C   0  0  0  0  0  0
  -21.3664   -5.6781   24.9181 C   0  0  0  0  0  0
  -21.6050   -4.3049   24.7215 C   0  0  0  0  0  0
  -21.8819   -3.8145   23.4330 C   0  0  0  0  0  0
  -21.9179   -4.6968   22.3388 C   0  0  0  0  0  0
  -22.7794  -13.5205   21.1879 C   0  0  0  0  0  0
  -22.1655   -4.2158   21.0966 F   0  0  0  0  0  0
  -21.5625   -3.4529   25.7725 F   0  0  0  0  0  0
  -29.9744  -13.5898   20.4107 N   0  0  0  0  0  0
  -26.2910  -12.9394   20.3276 N   0  0  0  0  0  0
  -25.9306  -11.6534   20.5759 N   0  0  0  0  0  0
  -22.0434  -12.8217   22.0449 N   0  0  0  0  0  0
  -25.4124  -15.1906   20.4041 N   0  0  0  0  0  0
  -31.7110  -14.9933   20.0845 O   0  0  0  0  0  0
  -21.6619   -6.8883   21.4251 O   0  0  0  0  0  0
  -22.3485  -14.5507   20.6719 O   0  0  0  0  0  0
  -24.6388  -31.8484   23.1935 C   0  0  0  0  0  0
  -25.9193  -32.4716   23.8287 C   0  0  1  0  0  0
  -27.2154  -27.1912   20.1362 C   0  0  0  0  0  0
  -25.5958  -33.8520   24.2205 N   0  0  0  0  0  0
  -23.4392  -30.4699   21.5379 C   0  0  2  0  0  0
  -24.8863  -28.9082   20.1099 C   0  0  0  0  0  0
  -22.7554  -29.4569   22.4887 C   0  0  0  0  0  0
  -18.0304  -28.1387   22.8482 C   0  0  0  0  0  0
  -24.1491  -36.7266   23.2639 C   0  0  0  0  0  0
  -25.9932  -30.7383   21.3855 C   0  0  0  0  0  0
  -26.0637  -29.3570   20.7227 C   0  0  0  0  0  0
  -27.2308  -28.5139   20.7201 C   0  0  0  0  0  0
  -26.0091  -26.8312   19.4920 C   0  0  0  0  0  0
  -24.8688  -27.6559   19.4828 C   0  0  0  0  0  0
  -23.6615  -29.8038   20.1559 C   0  0  0  0  0  0
  -25.4123  -36.3041   24.0312 C   0  0  1  0  0  0
  -20.5912  -28.3706   23.1243 C   0  0  2  0  0  0
  -20.6796  -26.9413   22.5404 C   0  0  0  0  0  0
  -19.5767  -26.6375   21.5223 C   0  0  0  0  0  0
  -18.1942  -26.7927   22.1627 C   0  0  0  0  0  0
  -19.1559  -28.8872   23.2846 C   0  0  0  0  0  0
  -18.9474  -30.1470   23.8865 C   0  0  0  0  0  0
  -17.6473  -30.6587   24.0554 C   0  0  0  0  0  0
  -25.9068  -34.9415   23.5058 C   0  0  0  0  0  0
  -16.5359  -29.9076   23.6335 C   0  0  0  0  0  0
  -16.7285  -28.6497   23.0359 C   0  0  0  0  0  0
  -26.4520  -31.6585   25.0725 C   0  0  0  0  0  0
  -25.3721  -31.3792   26.1440 C   0  0  0  0  0  0
  -27.0387  -30.2982   24.6306 C   0  0  0  0  0  0
  -27.6025  -32.4373   25.7519 C   0  0  0  0  0  0
  -27.5579  -37.1787   24.8461 C   0  0  0  0  0  0
  -21.4254  -29.3038   22.3627 N   0  0  0  0  0  0
  -26.4292  -37.3751   23.9406 N   0  0  0  0  0  0
  -24.7100  -31.0409   22.0928 N   0  0  0  0  0  0
  -23.4233  -28.8101   23.2998 O   0  0  0  0  0  0
  -28.2796  -26.2358   20.1987 O   0  0  0  0  0  0
  -26.5643  -34.8901   22.4628 O   0  0  0  0  0  0
  -23.5525  -32.1321   23.7205 O   0  0  0  0  0  0
  -29.3575  -18.2937   21.6536 C   0  0  0  0  0  0
  -29.0555  -19.7049   21.5768 C   0  0  0  0  0  0
  -29.4304  -19.6269   19.2216 C   0  0  0  0  0  0
  -29.0341  -20.4415   20.3460 C   0  0  0  0  0  0
  -29.7282  -18.1958   19.3098 C   0  0  0  0  0  0
  -29.6843  -17.4548   20.5448 C   0  0  0  0  0  0
  -28.6697  -20.3910   22.8756 C   0  0  0  0  0  0
  -29.4597  -20.2858   17.8447 C   0  0  0  0  0  0
  -30.0188  -17.4412   18.0171 C   0  0  0  0  0  0
  -28.3175  -21.9112   20.2045 C   0  0  0  0  0  0
  -28.9526  -23.4334   20.3107 C   0  0  0  0  0  0
  -27.9722  -24.7420   20.0280 C   0  0  0  0  0  0
  -29.6895  -15.9462   20.7177 N   0  0  0  0  0  0
  -31.4817  -12.6859   19.1816 H   0  0  0  0  0  0
  -30.4330  -11.5552   19.9901 H   0  0  0  0  0  0
  -29.8213  -11.7393   17.5549 H   0  0  0  0  0  0
  -29.6241  -13.4680   17.7159 H   0  0  0  0  0  0
  -27.9240  -11.2768   18.9427 H   0  0  0  0  0  0
  -27.3858  -12.4918   17.8134 H   0  0  0  0  0  0
  -27.6250  -14.2505   19.4567 H   0  0  0  0  0  0
  -28.7427  -12.1940   21.4253 H   0  0  0  0  0  0
  -28.3923  -13.8601   21.8016 H   0  0  0  0  0  0
  -25.2738   -9.5652   22.4775 H   0  0  0  0  0  0
  -23.9987   -7.4604   22.7441 H   0  0  0  0  0  0
  -21.0845   -8.8773   19.8929 H   0  0  0  0  0  0
  -22.3699  -10.9678   19.6183 H   0  0  0  0  0  0
  -21.2011   -7.6148   23.9734 H   0  0  0  0  0  0
  -21.1491   -6.0507   25.9086 H   0  0  0  0  0  0
  -22.0597   -2.7614   23.2819 H   0  0  0  0  0  0
  -22.4050  -11.9899   22.4881 H   0  0  0  0  0  0
  -21.1055  -13.1266   22.2652 H   0  0  0  0  0  0
  -24.6321  -15.8324   20.4920 H   0  0  0  0  0  0
  -26.2440  -15.6294   20.0298 H   0  0  0  0  0  0
  -26.7258  -32.5347   23.1013 H   0  0  0  0  0  0
  -25.0133  -33.9625   25.0374 H   0  0  0  0  0  0
  -22.7384  -31.2944   21.3901 H   0  0  0  0  0  0
  -23.3751  -35.9606   23.3293 H   0  0  0  0  0  0
  -24.3569  -36.8908   22.2056 H   0  0  0  0  0  0
  -23.7255  -37.6461   23.6680 H   0  0  0  0  0  0
  -26.1483  -31.4955   20.6162 H   0  0  0  0  0  0
  -26.8639  -30.7818   22.0282 H   0  0  0  0  0  0
  -28.1296  -28.8530   21.2166 H   0  0  0  0  0  0
  -25.9053  -25.8747   19.0046 H   0  0  0  0  0  0
  -23.9696  -27.3034   18.9979 H   0  0  0  0  0  0
  -23.7906  -30.5794   19.4006 H   0  0  0  0  0  0
  -22.7787  -29.2405   19.8468 H   0  0  0  0  0  0
  -25.1310  -36.1868   25.0807 H   0  0  0  0  0  0
  -20.9989  -28.3294   24.1373 H   0  0  0  0  0  0
  -20.5715  -26.2311   23.3616 H   0  0  0  0  0  0
  -21.6652  -26.7438   22.1181 H   0  0  0  0  0  0
  -19.6903  -25.6285   21.1259 H   0  0  0  0  0  0
  -19.6697  -27.3176   20.6748 H   0  0  0  0  0  0
  -17.4212  -26.6680   21.4021 H   0  0  0  0  0  0
  -18.0314  -26.0082   22.9032 H   0  0  0  0  0  0
  -19.7955  -30.7294   24.2205 H   0  0  0  0  0  0
  -17.5028  -31.6260   24.5161 H   0  0  0  0  0  0
  -15.5353  -30.2960   23.7691 H   0  0  0  0  0  0
  -15.8693  -28.0803   22.7084 H   0  0  0  0  0  0
  -24.5859  -30.7175   25.7783 H   0  0  0  0  0  0
  -24.8963  -32.2998   26.4835 H   0  0  0  0  0  0
  -25.8015  -30.8984   27.0242 H   0  0  0  0  0  0
  -26.3002  -29.6715   24.1293 H   0  0  0  0  0  0
  -27.3968  -29.7275   25.4886 H   0  0  0  0  0  0
  -27.8925  -30.4206   23.9638 H   0  0  0  0  0  0
  -27.2553  -33.3659   26.2064 H   0  0  0  0  0  0
  -28.3854  -32.6974   25.0382 H   0  0  0  0  0  0
  -28.0678  -31.8551   26.5479 H   0  0  0  0  0  0
  -28.2580  -38.0094   24.7500 H   0  0  0  0  0  0
  -28.1079  -36.2615   24.6290 H   0  0  0  0  0  0
  -27.2287  -37.1453   25.8860 H   0  0  0  0  0  0
  -20.9459  -29.8776   21.6834 H   0  0  0  0  0  0
  -26.0153  -38.2821   24.1406 H   0  0  0  0  0  0
  -29.2770  -17.8211   22.6220 H   0  0  0  0  0  0
  -29.2775  -20.0152   23.6997 H   0  0  0  0  0  0
  -27.6252  -20.1966   23.1156 H   0  0  0  0  0  0
  -28.8244  -21.4684   22.8336 H   0  0  0  0  0  0
  -29.4536  -21.3736   17.8900 H   0  0  0  0  0  0
  -28.5953  -19.9710   17.2583 H   0  0  0  0  0  0
  -30.3642  -20.0149   17.2990 H   0  0  0  0  0  0
  -31.0067  -17.7129   17.6445 H   0  0  0  0  0  0
  -29.2814  -17.6836   17.2502 H   0  0  0  0  0  0
  -29.9926  -16.3609   18.1371 H   0  0  0  0  0  0
  -27.5018  -21.8938   20.9271 H   0  0  0  0  0  0
  -27.7772  -21.8816   19.2584 H   0  0  0  0  0  0
  -29.7889  -23.4971   19.6144 H   0  0  0  0  0  0
  -29.3909  -23.5454   21.3013 H   0  0  0  0  0  0
  -27.0744  -24.5603   20.6211 H   0  0  0  0  0  0
  -27.6615  -24.6255   18.9889 H   0  0  0  0  0  0
  -28.8297  -15.6108   21.1251 H   0  0  0  0  0  0
  1 25  1  0  0  0
  1 30  2  0  0  0
  1 83  1  0  0  0
  2  3  1  0  0  0
  2 25  1  0  0  0
  2 84  1  0  0  0
  2 85  1  0  0  0
  3  4  1  0  0  0
  3 86  1  0  0  0
  3 87  1  0  0  0
  4  5  1  0  0  0
  4 88  1  0  0  0
  4 89  1  0  0  0
  5  6  1  0  0  0
  5 26  1  0  0  0
  5 90  1  0  0  0
  6 25  1  0  0  0
  6 91  1  0  0  0
  6 92  1  0  0  0
  7  8  2  0  0  0
  7 26  1  0  0  0
  7 29  1  0  0  0
  8  9  1  0  0  0
  8 22  1  0  0  0
  9 10  1  0  0  0
  9 27  2  0  0  0
 10 11  2  0  0  0
 10 15  1  0  0  0
 11 12  1  0  0  0
 11 93  1  0  0  0
 12 13  2  0  0  0
 12 94  1  0  0  0
 13 14  1  0  0  0
 13 31  1  0  0  0
 14 15  2  0  0  0
 14 95  1  0  0  0
 15 96  1  0  0  0
 16 17  2  0  0  0
 16 21  1  0  0  0
 16 31  1  0  0  0
 17 18  1  0  0  0
 17 97  1  0  0  0
 18 19  2  0  0  0
 18 98  1  0  0  0
 19 20  1  0  0  0
 19 24  1  0  0  0
 20 21  2  0  0  0
 20 99  1  0  0  0
 21 23  1  0  0  0
 22 28  1  0  0  0
 22 32  2  0  0  0
 26 27  1  0  0  0
 28100  1  0  0  0
 28101  1  0  0  0
 29102  1  0  0  0
 29103  1  0  0  0
 33 34  1  0  0  0
 33 66  1  0  0  0
 33 70  2  0  0  0
 34 36  1  0  0  0
 34 59  1  0  0  0
 34104  1  0  0  0
 35 44  2  0  0  0
 35 45  1  0  0  0
 35 68  1  0  0  0
 36 56  1  0  0  0
 36105  1  0  0  0
 37 39  1  0  0  0
 37 47  1  0  0  0
 37 66  1  0  0  0
 37106  1  0  0  0
 38 43  2  0  0  0
 38 46  1  0  0  0
 38 47  1  0  0  0
 39 64  1  0  0  0
 39 67  2  0  0  0
 40 52  1  0  0  0
 40 53  2  0  0  0
 40 58  1  0  0  0
 41107  1  0  0  0
 41108  1  0  0  0
 41109  1  0  0  0
 41 48  1  0  0  0
 42 43  1  0  0  0
 42 66  1  0  0  0
 42110  1  0  0  0
 42111  1  0  0  0
 43 44  1  0  0  0
 44112  1  0  0  0
 45 46  2  0  0  0
 45113  1  0  0  0
 46114  1  0  0  0
 47115  1  0  0  0
 47116  1  0  0  0
 48 56  1  0  0  0
 48 65  1  0  0  0
 48117  1  0  0  0
 49 50  1  0  0  0
 49 53  1  0  0  0
 49 64  1  0  0  0
 49118  1  0  0  0
 50 51  1  0  0  0
 50119  1  0  0  0
 50120  1  0  0  0
 51 52  1  0  0  0
 51121  1  0  0  0
 51122  1  0  0  0
 52123  1  0  0  0
 52124  1  0  0  0
 53 54  1  0  0  0
 54 55  2  0  0  0
 54125  1  0  0  0
 55 57  1  0  0  0
 55126  1  0  0  0
 56 69  2  0  0  0
 57 58  2  0  0  0
 57127  1  0  0  0
 58128  1  0  0  0
 59 60  1  0  0  0
 59 61  1  0  0  0
 59 62  1  0  0  0
 60129  1  0  0  0
 60130  1  0  0  0
 60131  1  0  0  0
 61132  1  0  0  0
 61133  1  0  0  0
 61134  1  0  0  0
 62135  1  0  0  0
 62136  1  0  0  0
 62137  1  0  0  0
 63 65  1  0  0  0
 63138  1  0  0  0
 63139  1  0  0  0
 63140  1  0  0  0
 64141  1  0  0  0
 65142  1  0  0  0
 68 82  1  0  0  0
 71 72  2  0  0  0
 71 76  1  0  0  0
 71143  1  0  0  0
 72 74  1  0  0  0
 72 77  1  0  0  0
 73 74  2  0  0  0
 73 75  1  0  0  0
 73 78  1  0  0  0
 74 80  1  0  0  0
 75 76  2  0  0  0
 75 79  1  0  0  0
 76 83  1  0  0  0
 77144  1  0  0  0
 77145  1  0  0  0
 77146  1  0  0  0
 78147  1  0  0  0
 78148  1  0  0  0
 78149  1  0  0  0
 79150  1  0  0  0
 79151  1  0  0  0
 79152  1  0  0  0
 80 81  1  0  0  0
 80153  1  0  0  0
 80154  1  0  0  0
 81 82  1  0  0  0
 81155  1  0  0  0
 81156  1  0  0  0
 82157  1  0  0  0
 82158  1  0  0  0
 83159  1  0  0  0
M  ISO  4   1 100  68 101  82 101  83 100
M  END
> <chiral flag>
0

> <version>
0

> <s_m_source_file>
/data/baiqing/PycharmProjects/Reinvent-master-3.2/result/LINK_invent/BTK/process_docking_weight1_custom_sum_contain_oxygen_bond_distance_aromatic_linkinvent_7_9_3/rearranged_h_0023.sdf

> <i_m_source_file_index>
26

> <r_mmod_Potential_Energy-OPLS-2005>
336.928527832031

> <r_mmod_Stretch_Energy-OPLS-2005>
186.250061035156

> <r_mmod_Bend_Energy-OPLS-2005>
227.729400634766

> <r_mmod_Torsional_Energy-OPLS-2005>
244.369918823242

> <r_mmod_Improper_Torsional_Energy-OPLS-2005>
7.66756391525269

> <r_mmod_Van_der_Waal_Energy-OPLS-2005>
143.017669677734

> <r_mmod_Electrostatic_Energy-OPLS-2005>
-406.582824707031

> <r_mmod_Solvation_Energy-OPLS-2005>
-206.882965087891

> <b_mmod_Minimization_Converged-OPLS-2005>
0

> <r_mmod_RMS_Derivative-OPLS-2005>
2.45392060279846

$$$$
26
                    3D
 Structure written by MMmdl.
188196  0  0  1  0            999 V2000
  -30.4313  -14.6694   20.7108 C   0  0  0  0  0  0
  -30.4502  -12.4698   19.4664 C   0  0  0  0  0  0
  -29.5142  -12.5540   18.2362 C   0  0  0  0  0  0
  -28.0326  -12.3525   18.6261 C   0  0  0  0  0  0
  -27.6389  -13.1882   19.8713 C   0  0  2  0  0  0
  -28.6519  -12.9492   21.0049 C   0  0  0  0  0  0
  -25.2494  -13.8104   20.5628 C   0  0  0  0  0  0
  -24.1752  -13.0409   20.9158 C   0  0  0  0  0  0
  -24.6297  -11.6871   20.8714 C   0  0  0  0  0  0
  -23.8990  -10.4274   21.0413 C   0  0  0  0  0  0
  -24.3575   -9.4198   21.9184 C   0  0  0  0  0  0
  -23.6273   -8.2221   22.0750 C   0  0  0  0  0  0
  -22.4248   -8.0262   21.3550 C   0  0  0  0  0  0
  -21.9868   -9.0220   20.4645 C   0  0  0  0  0  0
  -22.7172  -10.2110   20.3059 C   0  0  0  0  0  0
  -21.6842   -6.0723   22.5280 C   0  0  0  0  0  0
  -21.4014   -6.5633   23.8213 C   0  0  0  0  0  0
  -21.3657   -5.6787   24.9176 C   0  0  0  0  0  0
  -21.6042   -4.3049   24.7226 C   0  0  0  0  0  0
  -21.8820   -3.8140   23.4349 C   0  0  0  0  0  0
  -21.9196   -4.6955   22.3405 C   0  0  0  0  0  0
  -22.7800  -13.5228   21.1852 C   0  0  0  0  0  0
  -22.1659   -4.2143   21.0981 F   0  0  0  0  0  0
  -21.5628   -3.4535   25.7740 F   0  0  0  0  0  0
  -29.9474  -13.4059   20.4975 N   0  0  0  0  0  0
  -26.2829  -12.9196   20.3196 N   0  0  0  0  0  0
  -25.9181  -11.6385   20.5659 N   0  0  0  0  0  0
  -22.0464  -12.8233   22.0435 N   0  0  0  0  0  0
  -25.4275  -15.1821   20.4055 N   0  0  0  0  0  0
  -31.5707  -14.9722   20.3205 O   0  0  0  0  0  0
  -21.6627   -6.8855   21.4238 O   0  0  0  0  0  0
  -22.3512  -14.5550   20.6716 O   0  0  0  0  0  0
  -24.7509  -31.9674   23.2356 C   0  0  0  0  0  0
  -26.0093  -32.5403   23.8971 C   0  0  1  0  0  0
  -26.8376  -27.3817   20.0511 C   0  0  0  0  0  0
  -25.6725  -33.9064   24.2928 N   0  0  0  0  0  0
  -23.7143  -30.5121   21.6205 C   0  0  2  0  0  0
  -25.0599  -29.3486   19.8520 C   0  0  0  0  0  0
  -23.4982  -29.3138   22.5939 C   0  0  0  0  0  0
  -17.6055  -28.1540   22.8546 C   0  0  0  0  0  0
  -24.1541  -36.7356   23.2574 C   0  0  0  0  0  0
  -26.1658  -30.8583   21.4888 C   0  0  0  0  0  0
  -26.1360  -29.5603   20.7050 C   0  0  0  0  0  0
  -27.1025  -28.5544   20.7936 C   0  0  0  0  0  0
  -26.1911  -27.4608   18.8457 C   0  0  0  0  0  0
  -25.1696  -28.4133   18.8053 C   0  0  0  0  0  0
  -23.8976  -30.2258   20.1050 C   0  0  0  0  0  0
  -25.4138  -36.3287   24.0364 C   0  0  1  0  0  0
  -21.5949  -27.7821   22.8993 C   0  0  2  0  0  0
  -21.2043  -26.0105   22.2235 C   0  0  0  0  0  0
  -19.4069  -25.4967   21.7237 C   0  0  0  0  0  0
  -17.7725  -26.4784   22.1175 C   0  0  0  0  0  0
  -18.8236  -29.1067   23.3089 C   0  0  0  0  0  0
  -18.4557  -30.3337   23.9455 C   0  0  0  0  0  0
  -17.1514  -30.7252   24.0783 C   0  0  0  0  0  0
  -25.9177  -34.9734   23.5261 C   0  0  0  0  0  0
  -16.1155  -29.9104   23.6269 C   0  0  0  0  0  0
  -16.3302  -28.6545   23.0461 C   0  0  0  0  0  0
  -26.4960  -31.6877   25.1247 C   0  0  0  0  0  0
  -25.3949  -31.3948   26.1667 C   0  0  0  0  0  0
  -27.0837  -30.3269   24.6828 C   0  0  0  0  0  0
  -27.6439  -32.4514   25.8222 C   0  0  0  0  0  0
  -27.5605  -37.1953   24.8483 C   0  0  0  0  0  0
  -22.6836  -28.4154   22.2242 N   0  0  0  0  0  0
  -26.4308  -37.3962   23.9431 N   0  0  0  0  0  0
  -24.8831  -31.1903   22.1334 N   0  0  0  0  0  0
  -23.9426  -29.1641   23.7123 O   0  0  0  0  0  0
  -25.9600  -26.5066   20.6140 O   0  0  0  0  0  0
  -26.5335  -34.9062   22.4586 O   0  0  0  0  0  0
  -23.6547  -32.2301   23.7482 O   0  0  0  0  0  0
  -20.9641  -29.5946   24.2695 C   0  0  0  0  0  0
  -20.8480  -30.0927   22.6163 C   0  0  0  0  0  0
  -20.3824  -28.0939   24.8374 C   0  0  0  0  0  0
  -20.3764  -29.0788   21.3592 C   0  0  0  0  0  0
  -19.6533  -27.0847   23.7052 C   0  0  0  0  0  0
  -21.5055  -30.5667   25.3025 C   0  0  0  0  0  0
  -20.7497  -31.5869   22.2746 C   0  0  0  0  0  0
  -21.0323  -27.3122   26.0678 C   0  0  0  0  0  0
  -21.3253  -28.4354   20.0579 C   0  0  0  0  0  0
  -22.7813  -27.3087   19.8656 C   0  0  0  0  0  0
  -25.6584  -20.6596   23.7802 C   0  0  0  0  0  0
  -26.8433  -20.1311   22.8032 C   0  0  0  0  0  0
  -25.2857  -22.2391   23.8590 C   0  0  0  0  0  0
  -27.3980  -18.6024   22.8591 C   0  0  0  0  0  0
  -23.9878  -22.7849   24.6707 C   0  0  0  0  0  0
  -28.3332  -18.0030   21.6696 C   0  0  0  0  0  0
  -23.7488  -24.3767   24.8967 C   0  0  0  0  0  0
  -29.5491  -16.9396   21.8937 C   0  0  0  0  0  0
  -22.3992  -24.9671   25.5908 C   0  0  0  0  0  0
  -24.2987  -26.6600   20.7128 C   0  0  0  0  0  0
  -19.7168  -27.7884   21.7785 N   0  0  0  0  0  0
  -29.5085  -15.5456   21.2845 N   0  0  0  0  0  0
  -22.3342  -26.4862   25.8597 N   0  3  0  0  0  0
  -19.0565  -25.6201   24.5056 Cl  0  0  0  0  0  0
  -31.4741  -12.7082   19.1778 H   0  0  0  0  0  0
  -30.4774  -11.4546   19.8628 H   0  0  0  0  0  0
  -29.8088  -11.8205   17.4851 H   0  0  0  0  0  0
  -29.6285  -13.5319   17.7668 H   0  0  0  0  0  0
  -27.8790  -11.2916   18.8314 H   0  0  0  0  0  0
  -27.3832  -12.5966   17.7845 H   0  0  0  0  0  0
  -27.6813  -14.2363   19.5749 H   0  0  0  0  0  0
  -28.6968  -11.8888   21.2588 H   0  0  0  0  0  0
  -28.3463  -13.4441   21.9289 H   0  0  0  0  0  0
  -25.2732   -9.5681   22.4740 H   0  0  0  0  0  0
  -23.9994   -7.4613   22.7466 H   0  0  0  0  0  0
  -21.0797   -8.8730   19.8955 H   0  0  0  0  0  0
  -22.3630  -10.9647   19.6166 H   0  0  0  0  0  0
  -21.2004   -7.6141   23.9714 H   0  0  0  0  0  0
  -21.1475   -6.0517   25.9077 H   0  0  0  0  0  0
  -22.0604   -2.7604   23.2849 H   0  0  0  0  0  0
  -22.4087  -11.9886   22.4800 H   0  0  0  0  0  0
  -21.1094  -13.1269   22.2662 H   0  0  0  0  0  0
  -24.6613  -15.8372   20.5145 H   0  0  0  0  0  0
  -26.2728  -15.6185   20.0606 H   0  0  0  0  0  0
  -26.8347  -32.6088   23.1917 H   0  0  0  0  0  0
  -25.1185  -34.0280   25.1280 H   0  0  0  0  0  0
  -22.9383  -31.2374   21.6321 H   0  0  0  0  0  0
  -23.3847  -35.9638   23.3233 H   0  0  0  0  0  0
  -24.3686  -36.8942   22.1999 H   0  0  0  0  0  0
  -23.7218  -37.6569   23.6470 H   0  0  0  0  0  0
  -26.4241  -31.6795   20.8171 H   0  0  0  0  0  0
  -27.0002  -30.7704   22.1726 H   0  0  0  0  0  0
  -27.8576  -28.5800   21.5646 H   0  0  0  0  0  0
  -26.1474  -26.6326   18.1527 H   0  0  0  0  0  0
  -24.4799  -28.4181   17.9736 H   0  0  0  0  0  0
  -24.1607  -31.1803   19.6463 H   0  0  0  0  0  0
  -23.0459  -29.9763   19.5252 H   0  0  0  0  0  0
  -25.1252  -36.2185   25.0840 H   0  0  0  0  0  0
  -22.2343  -27.4630   23.7174 H   0  0  0  0  0  0
  -21.4030  -25.3471   23.0547 H   0  0  0  0  0  0
  -21.9524  -25.5795   21.5764 H   0  0  0  0  0  0
  -19.2628  -24.4494   21.9955 H   0  0  0  0  0  0
  -19.4276  -25.4368   20.6335 H   0  0  0  0  0  0
  -17.2505  -26.5668   21.1638 H   0  0  0  0  0  0
  -17.1186  -25.8184   22.6877 H   0  0  0  0  0  0
  -19.1379  -31.0653   24.3475 H   0  0  0  0  0  0
  -16.9191  -31.6703   24.5455 H   0  0  0  0  0  0
  -15.0967  -30.2587   23.7394 H   0  0  0  0  0  0
  -15.4783  -28.0622   22.7469 H   0  0  0  0  0  0
  -24.6970  -30.6438   25.8041 H   0  0  0  0  0  0
  -24.8206  -32.2855   26.4267 H   0  0  0  0  0  0
  -25.8184  -31.0011   27.0918 H   0  0  0  0  0  0
  -26.3701  -29.7184   24.1323 H   0  0  0  0  0  0
  -27.3790  -29.7360   25.5511 H   0  0  0  0  0  0
  -27.9778  -30.4477   24.0697 H   0  0  0  0  0  0
  -27.3024  -33.3811   26.2791 H   0  0  0  0  0  0
  -28.4344  -32.7150   25.1170 H   0  0  0  0  0  0
  -28.0959  -31.8633   26.6232 H   0  0  0  0  0  0
  -28.2601  -38.0280   24.7565 H   0  0  0  0  0  0
  -28.1135  -36.2831   24.6229 H   0  0  0  0  0  0
  -27.2324  -37.1490   25.8887 H   0  0  0  0  0  0
  -22.5204  -28.4375   21.2273 H   0  0  0  0  0  0
  -26.0196  -38.3030   24.1462 H   0  0  0  0  0  0
  -21.4208  -31.5998   24.9754 H   0  0  0  0  0  0
  -22.5528  -30.3670   25.5149 H   0  0  0  0  0  0
  -20.9449  -30.4879   26.2302 H   0  0  0  0  0  0
  -21.4585  -32.2133   22.8031 H   0  0  0  0  0  0
  -19.7659  -31.9880   22.4953 H   0  0  0  0  0  0
  -20.8710  -31.7296   21.1996 H   0  0  0  0  0  0
  -20.2865  -26.6999   26.5740 H   0  0  0  0  0  0
  -21.2771  -28.0777   26.8051 H   0  0  0  0  0  0
  -21.2853  -29.2066   19.2917 H   0  0  0  0  0  0
  -20.5768  -27.8025   19.5795 H   0  0  0  0  0  0
  -22.9693  -27.3661   18.8003 H   0  0  0  0  0  0
  -22.2359  -26.3752   19.7649 H   0  0  0  0  0  0
  -25.8931  -20.3304   24.7930 H   0  0  0  0  0  0
  -24.7508  -20.1170   23.5125 H   0  0  0  0  0  0
  -27.7017  -20.7864   22.9559 H   0  0  0  0  0  0
  -26.5238  -20.3292   21.7802 H   0  0  0  0  0  0
  -25.2027  -22.6077   22.8353 H   0  0  0  0  0  0
  -26.1594  -22.7462   24.2679 H   0  0  0  0  0  0
  -26.5279  -17.9462   22.9309 H   0  0  0  0  0  0
  -27.9167  -18.4748   23.8095 H   0  0  0  0  0  0
  -23.9897  -22.3132   25.6540 H   0  0  0  0  0  0
  -23.1070  -22.3816   24.1708 H   0  0  0  0  0  0
  -28.8101  -18.8798   21.2283 H   0  0  0  0  0  0
  -27.6842  -17.6386   20.8719 H   0  0  0  0  0  0
  -23.8428  -24.8558   23.9233 H   0  0  0  0  0  0
  -24.5977  -24.7416   25.4759 H   0  0  0  0  0  0
  -29.7123  -16.8210   22.9653 H   0  0  0  0  0  0
  -30.4659  -17.4040   21.5283 H   0  0  0  0  0  0
  -22.2555  -24.4642   26.5478 H   0  0  0  0  0  0
  -21.5377  -24.6490   25.0140 H   0  0  0  0  0  0
  -24.1437  -25.6138   20.4505 H   0  0  0  0  0  0
  -24.1292  -26.5687   21.7817 H   0  0  0  0  0  0
  -28.6261  -15.0828   21.4454 H   0  0  0  0  0  0
  -22.8276  -26.5852   26.7345 H   0  0  0  0  0  0
  -22.9218  -26.9680   25.1964 H   0  0  0  0  0  0
  1 25  1  0  0  0
  1 30  2  0  0  0
  1 92  1  0  0  0
  2  3  1  0  0  0
  2 25  1  0  0  0
  2 95  1  0  0  0
  2 96  1  0  0  0
  3  4  1  0  0  0
  3 97  1  0  0  0
  3 98  1  0  0  0
  4  5  1  0  0  0
  4 99  1  0  0  0
  4100  1  0  0  0
  5  6  1  0  0  0
  5 26  1  0  0  0
  5101  1  0  0  0
  6 25  1  0  0  0
  6102  1  0  0  0
  6103  1  0  0  0
  7  8  2  0  0  0
  7 26  1  0  0  0
  7 29  1  0  0  0
  8  9  1  0  0  0
  8 22  1  0  0  0
  9 10  1  0  0  0
  9 27  2  0  0  0
 10 11  2  0  0  0
 10 15  1  0  0  0
 11 12  1  0  0  0
 11104  1  0  0  0
 12 13  2  0  0  0
 12105  1  0  0  0
 13 14  1  0  0  0
 13 31  1  0  0  0
 14 15  2  0  0  0
 14106  1  0  0  0
 15107  1  0  0  0
 16 17  2  0  0  0
 16 21  1  0  0  0
 16 31  1  0  0  0
 17 18  1  0  0  0
 17108  1  0  0  0
 18 19  2  0  0  0
 18109  1  0  0  0
 19 20  1  0  0  0
 19 24  1  0  0  0
 20 21  2  0  0  0
 20110  1  0  0  0
 21 23  1  0  0  0
 22 28  1  0  0  0
 22 32  2  0  0  0
 26 27  1  0  0  0
 28111  1  0  0  0
 28112  1  0  0  0
 29113  1  0  0  0
 29114  1  0  0  0
 33 34  1  0  0  0
 33 66  1  0  0  0
 33 70  2  0  0  0
 34 36  1  0  0  0
 34 59  1  0  0  0
 34115  1  0  0  0
 35 44  2  0  0  0
 35 45  1  0  0  0
 35 68  1  0  0  0
 36 56  1  0  0  0
 36116  1  0  0  0
 37 39  1  0  0  0
 37 47  1  0  0  0
 37 66  1  0  0  0
 37117  1  0  0  0
 38 43  2  0  0  0
 38 46  1  0  0  0
 38 47  1  0  0  0
 39 64  1  0  0  0
 39 67  2  0  0  0
 40 52  1  0  0  0
 40 53  2  0  0  0
 40 58  1  0  0  0
 41118  1  0  0  0
 41119  1  0  0  0
 41120  1  0  0  0
 41 48  1  0  0  0
 42 43  1  0  0  0
 42 66  1  0  0  0
 42121  1  0  0  0
 42122  1  0  0  0
 43 44  1  0  0  0
 44123  1  0  0  0
 45 46  2  0  0  0
 45124  1  0  0  0
 46125  1  0  0  0
 47126  1  0  0  0
 47127  1  0  0  0
 48 56  1  0  0  0
 48 65  1  0  0  0
 48128  1  0  0  0
 49 50  1  0  0  0
 49 53  1  0  0  0
 49 64  1  0  0  0
 49129  1  0  0  0
 50 51  1  0  0  0
 50130  1  0  0  0
 50131  1  0  0  0
 51 52  1  0  0  0
 51132  1  0  0  0
 51133  1  0  0  0
 52134  1  0  0  0
 52135  1  0  0  0
 53 54  1  0  0  0
 54 55  2  0  0  0
 54136  1  0  0  0
 55 57  1  0  0  0
 55137  1  0  0  0
 56 69  2  0  0  0
 57 58  2  0  0  0
 57138  1  0  0  0
 58139  1  0  0  0
 59 60  1  0  0  0
 59 61  1  0  0  0
 59 62  1  0  0  0
 60140  1  0  0  0
 60141  1  0  0  0
 60142  1  0  0  0
 61143  1  0  0  0
 61144  1  0  0  0
 61145  1  0  0  0
 62146  1  0  0  0
 62147  1  0  0  0
 62148  1  0  0  0
 63 65  1  0  0  0
 63149  1  0  0  0
 63150  1  0  0  0
 63151  1  0  0  0
 64152  1  0  0  0
 65153  1  0  0  0
 68 90  1  0  0  0
 71 72  2  0  0  0
 71 73  1  0  0  0
 71 76  1  0  0  0
 72 74  1  0  0  0
 72 77  1  0  0  0
 73 75  2  0  0  0
 73 78  1  0  0  0
 74 79  1  0  0  0
 74 91  2  0  0  0
 75 91  1  0  0  0
 75 94  1  0  0  0
 76154  1  0  0  0
 76155  1  0  0  0
 76156  1  0  0  0
 77157  1  0  0  0
 77158  1  0  0  0
 77159  1  0  0  0
 78 93  1  0  0  0
 78160  1  0  0  0
 78161  1  0  0  0
 79 80  1  0  0  0
 79162  1  0  0  0
 79163  1  0  0  0
 80 90  1  0  0  0
 80164  1  0  0  0
 80165  1  0  0  0
 81 82  1  0  0  0
 81 83  1  0  0  0
 81166  1  0  0  0
 81167  1  0  0  0
 82 84  1  0  0  0
 82168  1  0  0  0
 82169  1  0  0  0
 83 85  1  0  0  0
 83170  1  0  0  0
 83171  1  0  0  0
 84 86  1  0  0  0
 84172  1  0  0  0
 84173  1  0  0  0
 85 87  1  0  0  0
 85174  1  0  0  0
 85175  1  0  0  0
 86 88  1  0  0  0
 86176  1  0  0  0
 86177  1  0  0  0
 87 89  1  0  0  0
 87178  1  0  0  0
 87179  1  0  0  0
 88 92  1  0  0  0
 88180  1  0  0  0
 88181  1  0  0  0
 89 93  1  0  0  0
 89182  1  0  0  0
 89183  1  0  0  0
 90184  1  0  0  0
 90185  1  0  0  0
 92186  1  0  0  0
 93187  1  0  0  0
 93188  1  0  0  0
M  CHG  1  93   1
M  ISO  4   1 100  68 101  90 101  92 100
M  END
> <chiral flag>
0

> <version>
0

> <s_m_source_file>
/data/baiqing/PycharmProjects/Reinvent-master-3.2/result/LINK_invent/BTK/process_docking_weight1_custom_sum_contain_oxygen_bond_distance_aromatic_linkinvent_7_9_3/rearranged_h_0023.sdf

> <i_m_source_file_index>
27

> <r_mmod_Potential_Energy-OPLS-2005>
12602.6181640625

> <r_mmod_Stretch_Energy-OPLS-2005>
6511.10791015625

> <r_mmod_Bend_Energy-OPLS-2005>
872.677001953125

> <r_mmod_Torsional_Energy-OPLS-2005>
604.884765625

> <r_mmod_Improper_Torsional_Energy-OPLS-2005>
54.5703506469727

> <r_mmod_Van_der_Waal_Energy-OPLS-2005>
3505.36157226562

> <r_mmod_Electrostatic_Energy-OPLS-2005>
-426.954895019531

> <r_mmod_Solvation_Energy-OPLS-2005>
-427.152191162109

> <b_mmod_Minimization_Converged-OPLS-2005>
0

> <r_mmod_RMS_Derivative-OPLS-2005>
6.72988271713257

$$$$
27
                    3D
 Structure written by MMmdl.
156164  0  0  1  0            999 V2000
  -30.6280  -14.6584   20.4842 C   0  0  0  0  0  0
  -30.4260  -12.4017   19.4579 C   0  0  0  0  0  0
  -29.5019  -12.5085   18.2249 C   0  0  0  0  0  0
  -28.0252  -12.3463   18.6367 C   0  0  0  0  0  0
  -27.6461  -13.2249   19.8589 C   0  0  2  0  0  0
  -28.6900  -13.1067   20.9921 C   0  0  0  0  0  0
  -25.2529  -13.8190   20.5722 C   0  0  0  0  0  0
  -24.1806  -13.0443   20.9212 C   0  0  0  0  0  0
  -24.6381  -11.6914   20.8748 C   0  0  0  0  0  0
  -23.9054  -10.4296   21.0402 C   0  0  0  0  0  0
  -24.3610   -9.4212   21.9178 C   0  0  0  0  0  0
  -23.6291   -8.2242   22.0738 C   0  0  0  0  0  0
  -22.4274   -8.0283   21.3534 C   0  0  0  0  0  0
  -21.9909   -9.0251   20.4637 C   0  0  0  0  0  0
  -22.7228  -10.2135   20.3052 C   0  0  0  0  0  0
  -21.6842   -6.0747   22.5284 C   0  0  0  0  0  0
  -21.4007   -6.5641   23.8222 C   0  0  0  0  0  0
  -21.3658   -5.6792   24.9184 C   0  0  0  0  0  0
  -21.6044   -4.3053   24.7224 C   0  0  0  0  0  0
  -21.8815   -3.8155   23.4344 C   0  0  0  0  0  0
  -21.9183   -4.6973   22.3404 C   0  0  0  0  0  0
  -22.7833  -13.5234   21.1870 C   0  0  0  0  0  0
  -22.1645   -4.2165   21.0981 F   0  0  0  0  0  0
  -21.5634   -3.4533   25.7731 F   0  0  0  0  0  0
  -30.0019  -13.4400   20.4216 N   0  0  0  0  0  0
  -26.2950  -12.9389   20.3304 N   0  0  0  0  0  0
  -25.9310  -11.6538   20.5750 N   0  0  0  0  0  0
  -22.0479  -12.8234   22.0429 N   0  0  0  0  0  0
  -25.4222  -15.1922   20.4173 N   0  0  0  0  0  0
  -31.7989  -14.7894   20.1202 O   0  0  0  0  0  0
  -21.6628   -6.8883   21.4243 O   0  0  0  0  0  0
  -22.3517  -14.5543   20.6717 O   0  0  0  0  0  0
  -24.6275  -31.8596   23.2023 C   0  0  0  0  0  0
  -25.9121  -32.4774   23.8346 C   0  0  1  0  0  0
  -27.2173  -27.2992   20.1178 C   0  0  0  0  0  0
  -25.5932  -33.8575   24.2272 N   0  0  0  0  0  0
  -23.4198  -30.4842   21.5467 C   0  0  2  0  0  0
  -24.8654  -28.9420   20.1073 C   0  0  0  0  0  0
  -22.7477  -29.4623   22.4949 C   0  0  0  0  0  0
  -18.0285  -28.1373   22.8485 C   0  0  0  0  0  0
  -24.1486  -36.7292   23.2639 C   0  0  0  0  0  0
  -25.9638  -30.7811   21.3790 C   0  0  0  0  0  0
  -26.0352  -29.4089   20.7196 C   0  0  0  0  0  0
  -27.2109  -28.5977   20.7216 C   0  0  0  0  0  0
  -26.0305  -26.9090   19.4507 C   0  0  0  0  0  0
  -24.8669  -27.6978   19.4633 C   0  0  0  0  0  0
  -23.6326  -29.8213   20.1613 C   0  0  0  0  0  0
  -25.4112  -36.3085   24.0330 C   0  0  1  0  0  0
  -20.5889  -28.3666   23.1269 C   0  0  2  0  0  0
  -20.6777  -26.9396   22.5381 C   0  0  0  0  0  0
  -19.5742  -26.6353   21.5204 C   0  0  0  0  0  0
  -18.1921  -26.7917   22.1608 C   0  0  0  0  0  0
  -19.1543  -28.8834   23.2875 C   0  0  0  0  0  0
  -18.9479  -30.1433   23.8907 C   0  0  0  0  0  0
  -17.6483  -30.6568   24.0593 C   0  0  0  0  0  0
  -25.9054  -34.9455   23.5101 C   0  0  0  0  0  0
  -16.5369  -29.9082   23.6348 C   0  0  0  0  0  0
  -16.7273  -28.6500   23.0358 C   0  0  0  0  0  0
  -26.4485  -31.6588   25.0730 C   0  0  0  0  0  0
  -25.3696  -31.3760   26.1445 C   0  0  0  0  0  0
  -27.0335  -30.3003   24.6220 C   0  0  0  0  0  0
  -27.6035  -32.4334   25.7502 C   0  0  0  0  0  0
  -27.5574  -37.1805   24.8466 C   0  0  0  0  0  0
  -21.4190  -29.3039   22.3689 N   0  0  0  0  0  0
  -26.4292  -37.3777   23.9401 N   0  0  0  0  0  0
  -24.6891  -31.0592   22.0985 N   0  0  0  0  0  0
  -23.4200  -28.8159   23.3025 O   0  0  0  0  0  0
  -28.3182  -26.4209   20.2077 O   0  0  0  0  0  0
  -26.5625  -34.8923   22.4673 O   0  0  0  0  0  0
  -23.5439  -32.1414   23.7347 O   0  0  0  0  0  0
  -28.2350  -18.3926   21.7066 C   0  0  0  0  0  0
  -29.3247  -18.5050   20.8192 C   0  0  0  0  0  0
  -27.6256  -20.7640   21.4071 C   0  0  0  0  0  0
  -28.7430  -20.9762   20.5457 C   0  0  0  0  0  0
  -27.4080  -19.4914   22.0023 C   0  0  0  0  0  0
  -29.5779  -19.8181   20.2650 C   0  0  0  0  0  0
  -26.6132  -21.8781   21.6639 C   0  0  0  0  0  0
  -28.9009  -22.3685   19.7922 C   0  0  0  0  0  0
  -30.1771  -17.2142   20.4735 C   0  0  0  0  0  0
  -28.9795  -23.8003   20.5236 C   0  0  0  0  0  0
  -28.1330  -24.9837   19.8574 C   0  0  0  0  0  0
  -29.8479  -15.7597   20.7420 N   0  0  0  0  0  0
  -26.0932  -19.2163   23.0936 Cl  0  0  0  0  0  0
  -30.9142  -19.9727   19.1782 Cl  0  0  0  0  0  0
  -31.4689  -12.5144   19.1558 H   0  0  0  0  0  0
  -30.3517  -11.4111   19.9100 H   0  0  0  0  0  0
  -29.7697  -11.7544   17.4839 H   0  0  0  0  0  0
  -29.6433  -13.4758   17.7397 H   0  0  0  0  0  0
  -27.8618  -11.2943   18.8742 H   0  0  0  0  0  0
  -27.3697  -12.5693   17.7930 H   0  0  0  0  0  0
  -27.6547  -14.2569   19.5080 H   0  0  0  0  0  0
  -28.7020  -12.0961   21.4035 H   0  0  0  0  0  0
  -28.4357  -13.7663   21.8235 H   0  0  0  0  0  0
  -25.2740   -9.5699   22.4771 H   0  0  0  0  0  0
  -24.0008   -7.4630   22.7448 H   0  0  0  0  0  0
  -21.0845   -8.8757   19.8946 H   0  0  0  0  0  0
  -22.3663  -10.9680   19.6181 H   0  0  0  0  0  0
  -21.1994   -7.6147   23.9730 H   0  0  0  0  0  0
  -21.1484   -6.0519   25.9087 H   0  0  0  0  0  0
  -22.0598   -2.7617   23.2833 H   0  0  0  0  0  0
  -22.4093  -11.9899   22.4833 H   0  0  0  0  0  0
  -21.1096  -13.1268   22.2623 H   0  0  0  0  0  0
  -24.6516  -15.8394   20.5420 H   0  0  0  0  0  0
  -26.2621  -15.6412   20.0772 H   0  0  0  0  0  0
  -26.7189  -32.5415   23.1089 H   0  0  0  0  0  0
  -25.0075  -33.9714   25.0413 H   0  0  0  0  0  0
  -22.7136  -31.3055   21.4057 H   0  0  0  0  0  0
  -23.3749  -35.9624   23.3317 H   0  0  0  0  0  0
  -24.3573  -36.8895   22.2051 H   0  0  0  0  0  0
  -23.7237  -37.6499   23.6646 H   0  0  0  0  0  0
  -26.1035  -31.5423   20.6108 H   0  0  0  0  0  0
  -26.8417  -30.8256   22.0121 H   0  0  0  0  0  0
  -28.1010  -28.9490   21.2253 H   0  0  0  0  0  0
  -25.9581  -25.9761   18.9132 H   0  0  0  0  0  0
  -23.9764  -27.3383   18.9656 H   0  0  0  0  0  0
  -23.7438  -30.5969   19.4028 H   0  0  0  0  0  0
  -22.7521  -29.2483   19.8650 H   0  0  0  0  0  0
  -25.1295  -36.1946   25.0824 H   0  0  0  0  0  0
  -20.9987  -28.3221   24.1383 H   0  0  0  0  0  0
  -20.5705  -26.2275   23.3577 H   0  0  0  0  0  0
  -21.6639  -26.7437   22.1150 H   0  0  0  0  0  0
  -19.6892  -25.6257   21.1251 H   0  0  0  0  0  0
  -19.6676  -27.3149   20.6720 H   0  0  0  0  0  0
  -17.4197  -26.6697   21.3995 H   0  0  0  0  0  0
  -18.0295  -26.0045   22.8983 H   0  0  0  0  0  0
  -19.7964  -30.7235   24.2284 H   0  0  0  0  0  0
  -17.5049  -31.6236   24.5223 H   0  0  0  0  0  0
  -15.5375  -30.2993   23.7679 H   0  0  0  0  0  0
  -15.8666  -28.0829   22.7077 H   0  0  0  0  0  0
  -24.5868  -30.7111   25.7773 H   0  0  0  0  0  0
  -24.8896  -32.2950   26.4820 H   0  0  0  0  0  0
  -25.7996  -30.8965   27.0248 H   0  0  0  0  0  0
  -26.2940  -29.6753   24.1205 H   0  0  0  0  0  0
  -27.3972  -29.7257   25.4745 H   0  0  0  0  0  0
  -27.8825  -30.4270   23.9500 H   0  0  0  0  0  0
  -27.2629  -33.3635   26.2060 H   0  0  0  0  0  0
  -28.3849  -32.6894   25.0335 H   0  0  0  0  0  0
  -28.0695  -31.8476   26.5432 H   0  0  0  0  0  0
  -28.2611  -38.0085   24.7502 H   0  0  0  0  0  0
  -28.1052  -36.2619   24.6313 H   0  0  0  0  0  0
  -27.2291  -37.1485   25.8869 H   0  0  0  0  0  0
  -20.9365  -29.8778   21.6920 H   0  0  0  0  0  0
  -26.0180  -38.2858   24.1385 H   0  0  0  0  0  0
  -28.0112  -17.4402   22.1654 H   0  0  0  0  0  0
  -26.4557  -22.4965   20.7823 H   0  0  0  0  0  0
  -26.9402  -22.5116   22.4874 H   0  0  0  0  0  0
  -25.6269  -21.4933   21.9176 H   0  0  0  0  0  0
  -28.0619  -22.4027   19.0973 H   0  0  0  0  0  0
  -29.7623  -22.3196   19.1297 H   0  0  0  0  0  0
  -29.3157  -17.0577   19.8213 H   0  0  0  0  0  0
  -30.3540  -17.1936   21.5503 H   0  0  0  0  0  0
  -30.0272  -24.0977   20.5629 H   0  0  0  0  0  0
  -28.6862  -23.7076   21.5676 H   0  0  0  0  0  0
  -27.1070  -24.6888   20.0696 H   0  0  0  0  0  0
  -28.2550  -24.9193   18.7753 H   0  0  0  0  0  0
  -28.8963  -15.5609   21.0095 H   0  0  0  0  0  0
  1 25  1  0  0  0
  1 30  2  0  0  0
  1 82  1  0  0  0
  2  3  1  0  0  0
  2 25  1  0  0  0
  2 85  1  0  0  0
  2 86  1  0  0  0
  3  4  1  0  0  0
  3 87  1  0  0  0
  3 88  1  0  0  0
  4  5  1  0  0  0
  4 89  1  0  0  0
  4 90  1  0  0  0
  5  6  1  0  0  0
  5 26  1  0  0  0
  5 91  1  0  0  0
  6 25  1  0  0  0
  6 92  1  0  0  0
  6 93  1  0  0  0
  7  8  2  0  0  0
  7 26  1  0  0  0
  7 29  1  0  0  0
  8  9  1  0  0  0
  8 22  1  0  0  0
  9 10  1  0  0  0
  9 27  2  0  0  0
 10 11  2  0  0  0
 10 15  1  0  0  0
 11 12  1  0  0  0
 11 94  1  0  0  0
 12 13  2  0  0  0
 12 95  1  0  0  0
 13 14  1  0  0  0
 13 31  1  0  0  0
 14 15  2  0  0  0
 14 96  1  0  0  0
 15 97  1  0  0  0
 16 17  2  0  0  0
 16 21  1  0  0  0
 16 31  1  0  0  0
 17 18  1  0  0  0
 17 98  1  0  0  0
 18 19  2  0  0  0
 18 99  1  0  0  0
 19 20  1  0  0  0
 19 24  1  0  0  0
 20 21  2  0  0  0
 20100  1  0  0  0
 21 23  1  0  0  0
 22 28  1  0  0  0
 22 32  2  0  0  0
 26 27  1  0  0  0
 28101  1  0  0  0
 28102  1  0  0  0
 29103  1  0  0  0
 29104  1  0  0  0
 33 34  1  0  0  0
 33 66  1  0  0  0
 33 70  2  0  0  0
 34 36  1  0  0  0
 34 59  1  0  0  0
 34105  1  0  0  0
 35 44  2  0  0  0
 35 45  1  0  0  0
 35 68  1  0  0  0
 36 56  1  0  0  0
 36106  1  0  0  0
 37 39  1  0  0  0
 37 47  1  0  0  0
 37 66  1  0  0  0
 37107  1  0  0  0
 38 43  2  0  0  0
 38 46  1  0  0  0
 38 47  1  0  0  0
 39 64  1  0  0  0
 39 67  2  0  0  0
 40 52  1  0  0  0
 40 53  2  0  0  0
 40 58  1  0  0  0
 41108  1  0  0  0
 41109  1  0  0  0
 41110  1  0  0  0
 41 48  1  0  0  0
 42 43  1  0  0  0
 42 66  1  0  0  0
 42111  1  0  0  0
 42112  1  0  0  0
 43 44  1  0  0  0
 44113  1  0  0  0
 45 46  2  0  0  0
 45114  1  0  0  0
 46115  1  0  0  0
 47116  1  0  0  0
 47117  1  0  0  0
 48 56  1  0  0  0
 48 65  1  0  0  0
 48118  1  0  0  0
 49 50  1  0  0  0
 49 53  1  0  0  0
 49 64  1  0  0  0
 49119  1  0  0  0
 50 51  1  0  0  0
 50120  1  0  0  0
 50121  1  0  0  0
 51 52  1  0  0  0
 51122  1  0  0  0
 51123  1  0  0  0
 52124  1  0  0  0
 52125  1  0  0  0
 53 54  1  0  0  0
 54 55  2  0  0  0
 54126  1  0  0  0
 55 57  1  0  0  0
 55127  1  0  0  0
 56 69  2  0  0  0
 57 58  2  0  0  0
 57128  1  0  0  0
 58129  1  0  0  0
 59 60  1  0  0  0
 59 61  1  0  0  0
 59 62  1  0  0  0
 60130  1  0  0  0
 60131  1  0  0  0
 60132  1  0  0  0
 61133  1  0  0  0
 61134  1  0  0  0
 61135  1  0  0  0
 62136  1  0  0  0
 62137  1  0  0  0
 62138  1  0  0  0
 63 65  1  0  0  0
 63139  1  0  0  0
 63140  1  0  0  0
 63141  1  0  0  0
 64142  1  0  0  0
 65143  1  0  0  0
 68 81  1  0  0  0
 71 72  2  0  0  0
 71 75  1  0  0  0
 71144  1  0  0  0
 72 76  1  0  0  0
 72 79  1  0  0  0
 73 74  1  0  0  0
 73 75  2  0  0  0
 73 77  1  0  0  0
 74 76  2  0  0  0
 74 78  1  0  0  0
 75 83  1  0  0  0
 76 84  1  0  0  0
 77145  1  0  0  0
 77146  1  0  0  0
 77147  1  0  0  0
 78 80  1  0  0  0
 78148  1  0  0  0
 78149  1  0  0  0
 79 82  1  0  0  0
 79150  1  0  0  0
 79151  1  0  0  0
 80 81  1  0  0  0
 80152  1  0  0  0
 80153  1  0  0  0
 81154  1  0  0  0
 81155  1  0  0  0
 82156  1  0  0  0
M  ISO  4   1 100  68 101  81 101  82 100
M  END
> <chiral flag>
0

> <version>
0

> <s_m_source_file>
/data/baiqing/PycharmProjects/Reinvent-master-3.2/result/LINK_invent/BTK/process_docking_weight1_custom_sum_contain_oxygen_bond_distance_aromatic_linkinvent_7_9_3/rearranged_h_0023.sdf

> <i_m_source_file_index>
28

> <r_mmod_Potential_Energy-OPLS-2005>
272.502868652344

> <r_mmod_Stretch_Energy-OPLS-2005>
99.8594284057617

> <r_mmod_Bend_Energy-OPLS-2005>
346.358001708984

> <r_mmod_Torsional_Energy-OPLS-2005>
210.266128540039

> <r_mmod_Improper_Torsional_Energy-OPLS-2005>
6.33874034881592

> <r_mmod_Van_der_Waal_Energy-OPLS-2005>
153.548614501953

> <r_mmod_Electrostatic_Energy-OPLS-2005>
-392.197174072266

> <r_mmod_Solvation_Energy-OPLS-2005>
-211.070755004883

> <b_mmod_Minimization_Converged-OPLS-2005>
0

> <r_mmod_RMS_Derivative-OPLS-2005>
1.47443473339081

$$$$
28
                    3D
 Structure written by MMmdl.
199207  0  0  1  0            999 V2000
  -30.5660  -14.6350   20.7306 C   0  0  0  0  0  0
  -30.4350  -12.4681   19.4665 C   0  0  0  0  0  0
  -29.5099  -12.5777   18.2231 C   0  0  0  0  0  0
  -28.0266  -12.4075   18.5847 C   0  0  0  0  0  0
  -27.6495  -13.1734   19.8701 C   0  0  2  0  0  0
  -28.6608  -12.9968   21.0087 C   0  0  0  0  0  0
  -25.2408  -13.7033   20.4128 C   0  0  0  0  0  0
  -24.1628  -12.9849   20.8966 C   0  0  0  0  0  0
  -24.6362  -11.6504   20.9033 C   0  0  0  0  0  0
  -23.8952  -10.4008   21.0680 C   0  0  0  0  0  0
  -24.3575   -9.3986   21.9404 C   0  0  0  0  0  0
  -23.6226   -8.2030   22.0899 C   0  0  0  0  0  0
  -22.4187   -8.0166   21.3610 C   0  0  0  0  0  0
  -21.9826   -9.0153   20.4723 C   0  0  0  0  0  0
  -22.7211  -10.2028   20.3184 C   0  0  0  0  0  0
  -21.6814   -6.0659   22.5272 C   0  0  0  0  0  0
  -21.3980   -6.5594   23.8201 C   0  0  0  0  0  0
  -21.3660   -5.6777   24.9177 C   0  0  0  0  0  0
  -21.6035   -4.3016   24.7228 C   0  0  0  0  0  0
  -21.8799   -3.8111   23.4335 C   0  0  0  0  0  0
  -21.9164   -4.6904   22.3413 C   0  0  0  0  0  0
  -22.7766  -13.5049   21.1636 C   0  0  0  0  0  0
  -22.1642   -4.2075   21.0996 F   0  0  0  0  0  0
  -21.5648   -3.4535   25.7779 F   0  0  0  0  0  0
  -29.9735  -13.4147   20.5000 N   0  0  0  0  0  0
  -26.3012  -12.8536   20.3113 N   0  0  0  0  0  0
  -25.9377  -11.5892   20.6089 N   0  0  0  0  0  0
  -22.0441  -12.8183   22.0441 N   0  0  0  0  0  0
  -25.4268  -14.9703   20.0047 N   0  0  0  0  0  0
  -31.6887  -14.8855   20.2811 O   0  0  0  0  0  0
  -21.6576   -6.8720   21.4202 O   0  0  0  0  0  0
  -22.3491  -14.5249   20.6507 O   0  0  0  0  0  0
  -24.6324  -31.8294   23.2002 C   0  0  0  0  0  0
  -25.9035  -32.4613   23.8327 C   0  0  1  0  0  0
  -27.1820  -27.0983   20.0570 C   0  0  0  0  0  0
  -25.5771  -33.8436   24.2212 N   0  0  0  0  0  0
  -23.4355  -30.4327   21.5577 C   0  0  2  0  0  0
  -24.8732  -28.8656   20.1021 C   0  0  0  0  0  0
  -22.7614  -29.4002   22.4973 C   0  0  0  0  0  0
  -18.0054  -28.1467   22.8981 C   0  0  0  0  0  0
  -24.1521  -36.7251   23.2646 C   0  0  0  0  0  0
  -25.9846  -30.6667   21.4120 C   0  0  0  0  0  0
  -26.0513  -29.2731   20.7433 C   0  0  0  0  0  0
  -27.1999  -28.3892   20.7315 C   0  0  0  0  0  0
  -25.9906  -26.8163   19.3737 C   0  0  0  0  0  0
  -24.8590  -27.6531   19.3966 C   0  0  0  0  0  0
  -23.6552  -29.7733   20.1684 C   0  0  0  0  0  0
  -25.4169  -36.3024   24.0337 C   0  0  1  0  0  0
  -20.5718  -28.3634   23.1637 C   0  0  2  0  0  0
  -20.6350  -26.9274   22.6042 C   0  0  0  0  0  0
  -19.5150  -26.5934   21.5934 C   0  0  0  0  0  0
  -18.1557  -26.7669   22.2667 C   0  0  0  0  0  0
  -19.1388  -28.8836   23.3159 C   0  0  0  0  0  0
  -18.9535  -30.1627   23.8893 C   0  0  0  0  0  0
  -17.6625  -30.7137   24.0200 C   0  0  0  0  0  0
  -25.9060  -34.9309   23.5123 C   0  0  0  0  0  0
  -16.5419  -29.9647   23.6224 C   0  0  0  0  0  0
  -16.7193  -28.6775   23.0783 C   0  0  0  0  0  0
  -26.4448  -31.6473   25.0698 C   0  0  0  0  0  0
  -25.3725  -31.3472   26.1436 C   0  0  0  0  0  0
  -27.0253  -30.2883   24.6179 C   0  0  0  0  0  0
  -27.5980  -32.4221   25.7479 C   0  0  0  0  0  0
  -27.5607  -37.1751   24.8450 C   0  0  0  0  0  0
  -21.4252  -29.3134   22.4328 N   0  0  0  0  0  0
  -26.4360  -37.3696   23.9347 N   0  0  0  0  0  0
  -24.7022  -30.9986   22.1142 N   0  0  0  0  0  0
  -23.4355  -28.6950   23.2453 O   0  0  0  0  0  0
  -28.2119  -26.1031   20.0970 O   0  0  0  0  0  0
  -26.5634  -34.8746   22.4701 O   0  0  0  0  0  0
  -23.5434  -32.1149   23.7187 O   0  0  0  0  0  0
  -26.9638  -20.7701   20.3482 C   0  0  0  0  0  0
  -27.1268  -22.1460   20.0621 C   0  0  0  0  0  0
  -23.2750  -24.2315   22.0343 C   0  0  0  0  0  0
  -23.9895  -24.1251   20.7007 C   0  0  0  0  0  0
  -24.3342  -23.8869   23.0901 C   0  0  0  0  0  0
  -25.4271  -23.7033   21.0708 C   0  0  2  0  0  0
  -29.2468  -23.5365   21.3068 C   0  0  0  0  0  0
  -24.1438  -17.7907   20.2127 C   0  0  0  0  0  0
  -26.3048  -17.4752   21.5119 C   0  0  0  0  0  0
  -27.0942  -24.0846   24.3151 C   0  0  0  0  0  0
  -25.3578  -19.9774   22.3713 C   0  0  0  0  0  0
  -24.1570  -20.4430   20.4276 C   0  0  0  0  0  0
  -29.0188  -19.1156   23.0667 C   0  0  0  0  0  0
  -28.7527  -20.6777   22.8934 C   0  0  0  0  0  0
  -29.6315  -18.2831   21.8568 C   0  0  0  0  0  0
  -27.5952  -21.5225   23.6629 C   0  0  0  0  0  0
  -30.1901  -16.8218   22.1951 C   0  0  0  0  0  0
  -28.2028  -24.7460   19.3694 C   0  0  0  0  0  0
  -25.8924  -22.9074   19.8238 C   0  0  2  0  0  0
  -28.3715  -23.2141   20.0007 C   0  0  2  0  0  0
  -25.5861  -18.3932   20.4691 C   0  0  0  0  0  0
  -26.6945  -22.8890   23.3716 C   0  0  2  0  0  0
  -25.5992  -19.9433   20.8246 C   0  0  0  0  0  0
  -29.8098  -15.5762   21.4035 N   0  0  0  0  0  0
  -25.4205  -23.0763   22.4612 N   0  3  1  0  0  0
  -25.0279  -22.3377   18.9875 F   0  0  0  0  0  0
  -31.4634  -12.6712   19.1772 H   0  0  0  0  0  0
  -30.4312  -11.4507   19.8532 H   0  0  0  0  0  0
  -29.7928  -11.8511   17.4585 H   0  0  0  0  0  0
  -29.6468  -13.5486   17.7781 H   0  0  0  0  0  0
  -27.7962  -11.3399   18.6994 H   0  0  0  0  0  0
  -27.4070  -12.7548   17.7665 H   0  0  0  0  0  0
  -27.6934  -14.2160   19.6001 H   0  0  0  0  0  0
  -28.6794  -11.9521   21.3292 H   0  0  0  0  0  0
  -28.3311  -13.5602   21.8777 H   0  0  0  0  0  0
  -25.2642   -9.5448   22.5076 H   0  0  0  0  0  0
  -23.9920   -7.4311   22.7549 H   0  0  0  0  0  0
  -21.0776   -8.8675   19.8958 H   0  0  0  0  0  0
  -22.3648  -10.9642   19.6354 H   0  0  0  0  0  0
  -21.1993   -7.6103   23.9662 H   0  0  0  0  0  0
  -21.1525   -6.0535   25.9068 H   0  0  0  0  0  0
  -22.0613   -2.7560   23.2897 H   0  0  0  0  0  0
  -22.4479  -12.0000   22.4615 H   0  0  0  0  0  0
  -21.1263  -13.1556   22.3029 H   0  0  0  0  0  0
  -24.7457  -15.7080   20.0975 H   0  0  0  0  0  0
  -26.3498  -15.3081   19.7544 H   0  0  0  0  0  0
  -26.6898  -32.5176   23.0865 H   0  0  0  0  0  0
  -24.9971  -33.9637   25.0389 H   0  0  0  0  0  0
  -22.7318  -31.2589   21.4206 H   0  0  0  0  0  0
  -23.3770  -35.9589   23.3328 H   0  0  0  0  0  0
  -24.3562  -36.8879   22.2035 H   0  0  0  0  0  0
  -23.7268  -37.6445   23.6682 H   0  0  0  0  0  0
  -26.0844  -31.4021   20.6151 H   0  0  0  0  0  0
  -26.8769  -30.7530   22.0250 H   0  0  0  0  0  0
  -28.0682  -28.6626   21.3182 H   0  0  0  0  0  0
  -25.8974  -25.8937   18.8349 H   0  0  0  0  0  0
  -23.9822  -27.3400   18.8483 H   0  0  0  0  0  0
  -23.7735  -30.5477   19.4121 H   0  0  0  0  0  0
  -22.7761  -29.1912   19.8818 H   0  0  0  0  0  0
  -25.1361  -36.1934   25.0841 H   0  0  0  0  0  0
  -20.9710  -28.3438   24.1765 H   0  0  0  0  0  0
  -20.5242  -26.2453   23.4566 H   0  0  0  0  0  0
  -21.6223  -26.7929   22.1955 H   0  0  0  0  0  0
  -19.6003  -25.5740   21.1922 H   0  0  0  0  0  0
  -19.6083  -27.2546   20.7398 H   0  0  0  0  0  0
  -17.2939  -26.6274   21.5926 H   0  0  0  0  0  0
  -18.0311  -26.0191   23.0583 H   0  0  0  0  0  0
  -19.8055  -30.7338   24.2052 H   0  0  0  0  0  0
  -17.5309  -31.7053   24.3852 H   0  0  0  0  0  0
  -15.5481  -30.4046   23.7070 H   0  0  0  0  0  0
  -15.8449  -28.0957   22.8052 H   0  0  0  0  0  0
  -24.5984  -30.6751   25.7745 H   0  0  0  0  0  0
  -24.8792  -32.2502   26.4968 H   0  0  0  0  0  0
  -25.8120  -30.8529   27.0127 H   0  0  0  0  0  0
  -26.2814  -29.6689   24.1190 H   0  0  0  0  0  0
  -27.3805  -29.7076   25.4703 H   0  0  0  0  0  0
  -27.8748  -30.4083   23.9490 H   0  0  0  0  0  0
  -27.2578  -33.3542   26.2018 H   0  0  0  0  0  0
  -28.3796  -32.6788   25.0314 H   0  0  0  0  0  0
  -28.0617  -31.8353   26.5418 H   0  0  0  0  0  0
  -28.2654  -38.0026   24.7493 H   0  0  0  0  0  0
  -28.1108  -36.2544   24.6391 H   0  0  0  0  0  0
  -27.2234  -37.1475   25.8825 H   0  0  0  0  0  0
  -20.9633  -30.1203   22.0281 H   0  0  0  0  0  0
  -26.0284  -38.2825   24.1197 H   0  0  0  0  0  0
  -27.8901  -20.1511   20.3175 H   0  0  0  0  0  0
  -22.3931  -23.6023   22.0563 H   0  0  0  0  0  0
  -22.9945  -25.2901   22.1040 H   0  0  0  0  0  0
  -23.9686  -25.0262   20.1032 H   0  0  0  0  0  0
  -23.4677  -23.4349   20.0515 H   0  0  0  0  0  0
  -23.9373  -23.4885   24.0372 H   0  0  0  0  0  0
  -24.7132  -24.8765   23.3076 H   0  0  0  0  0  0
  -26.0045  -24.6166   21.2198 H   0  0  0  0  0  0
  -29.5930  -22.7925   22.0068 H   0  0  0  0  0  0
  -28.8377  -24.3163   21.9545 H   0  0  0  0  0  0
  -30.2068  -23.9631   20.9918 H   0  0  0  0  0  0
  -24.0563  -16.7812   19.8638 H   0  0  0  0  0  0
  -23.5950  -18.2515   19.3964 H   0  0  0  0  0  0
  -23.5411  -17.8141   21.1158 H   0  0  0  0  0  0
  -25.8777  -16.4964   21.6260 H   0  0  0  0  0  0
  -26.2303  -17.6531   22.5657 H   0  0  0  0  0  0
  -27.3298  -17.3176   21.2733 H   0  0  0  0  0  0
  -27.1846  -23.7002   25.3351 H   0  0  0  0  0  0
  -26.3313  -24.8545   24.4799 H   0  0  0  0  0  0
  -28.0183  -24.6021   24.0667 H   0  0  0  0  0  0
  -25.0581  -20.8856   22.8658 H   0  0  0  0  0  0
  -26.1437  -19.5959   22.9946 H   0  0  0  0  0  0
  -24.4970  -19.3633   22.6826 H   0  0  0  0  0  0
  -23.9860  -21.4652   20.7045 H   0  0  0  0  0  0
  -23.3197  -19.9878   21.0179 H   0  0  0  0  0  0
  -23.9684  -20.3033   19.3409 H   0  0  0  0  0  0
  -28.1418  -18.6268   23.4725 H   0  0  0  0  0  0
  -29.7557  -19.0326   23.8641 H   0  0  0  0  0  0
  -28.9369  -20.8987   21.8566 H   0  0  0  0  0  0
  -29.6760  -21.0375   23.3553 H   0  0  0  0  0  0
  -28.9871  -18.3154   21.0056 H   0  0  0  0  0  0
  -30.4651  -18.8773   21.4627 H   0  0  0  0  0  0
  -28.2469  -21.8984   24.4606 H   0  0  0  0  0  0
  -27.0466  -20.7967   24.2443 H   0  0  0  0  0  0
  -29.8641  -16.6140   23.2232 H   0  0  0  0  0  0
  -31.2759  -16.8977   22.2776 H   0  0  0  0  0  0
  -27.5905  -24.7352   18.4620 H   0  0  0  0  0  0
  -29.1730  -24.8265   18.8926 H   0  0  0  0  0  0
  -26.1210  -23.6549   19.1199 H   0  0  0  0  0  0
  -29.0380  -22.6693   19.3528 H   0  0  0  0  0  0
  -26.1153  -18.2821   19.5368 H   0  0  0  0  0  0
  -26.0053  -22.5032   24.1212 H   0  0  0  0  0  0
  -28.8917  -15.2270   21.6543 H   0  0  0  0  0  0
  -25.0313  -22.1578   22.3700 H   0  0  0  0  0  0
  1 25  1  0  0  0
  1 30  2  0  0  0
  1 94  1  0  0  0
  2  3  1  0  0  0
  2 25  1  0  0  0
  2 97  1  0  0  0
  2 98  1  0  0  0
  3  4  1  0  0  0
  3 99  1  0  0  0
  3100  1  0  0  0
  4  5  1  0  0  0
  4101  1  0  0  0
  4102  1  0  0  0
  5  6  1  0  0  0
  5 26  1  0  0  0
  5103  1  0  0  0
  6 25  1  0  0  0
  6104  1  0  0  0
  6105  1  0  0  0
  7  8  2  0  0  0
  7 26  1  0  0  0
  7 29  1  0  0  0
  8  9  1  0  0  0
  8 22  1  0  0  0
  9 10  1  0  0  0
  9 27  2  0  0  0
 10 11  2  0  0  0
 10 15  1  0  0  0
 11 12  1  0  0  0
 11106  1  0  0  0
 12 13  2  0  0  0
 12107  1  0  0  0
 13 14  1  0  0  0
 13 31  1  0  0  0
 14 15  2  0  0  0
 14108  1  0  0  0
 15109  1  0  0  0
 16 17  2  0  0  0
 16 21  1  0  0  0
 16 31  1  0  0  0
 17 18  1  0  0  0
 17110  1  0  0  0
 18 19  2  0  0  0
 18111  1  0  0  0
 19 20  1  0  0  0
 19 24  1  0  0  0
 20 21  2  0  0  0
 20112  1  0  0  0
 21 23  1  0  0  0
 22 28  1  0  0  0
 22 32  2  0  0  0
 26 27  1  0  0  0
 28113  1  0  0  0
 28114  1  0  0  0
 29115  1  0  0  0
 29116  1  0  0  0
 33 34  1  0  0  0
 33 66  1  0  0  0
 33 70  2  0  0  0
 34 36  1  0  0  0
 34 59  1  0  0  0
 34117  1  0  0  0
 35 44  2  0  0  0
 35 45  1  0  0  0
 35 68  1  0  0  0
 36 56  1  0  0  0
 36118  1  0  0  0
 37 39  1  0  0  0
 37 47  1  0  0  0
 37 66  1  0  0  0
 37119  1  0  0  0
 38 43  2  0  0  0
 38 46  1  0  0  0
 38 47  1  0  0  0
 39 64  1  0  0  0
 39 67  2  0  0  0
 40 52  1  0  0  0
 40 53  2  0  0  0
 40 58  1  0  0  0
 41120  1  0  0  0
 41121  1  0  0  0
 41122  1  0  0  0
 41 48  1  0  0  0
 42 43  1  0  0  0
 42 66  1  0  0  0
 42123  1  0  0  0
 42124  1  0  0  0
 43 44  1  0  0  0
 44125  1  0  0  0
 45 46  2  0  0  0
 45126  1  0  0  0
 46127  1  0  0  0
 47128  1  0  0  0
 47129  1  0  0  0
 48 56  1  0  0  0
 48 65  1  0  0  0
 48130  1  0  0  0
 49 50  1  0  0  0
 49 53  1  0  0  0
 49 64  1  0  0  0
 49131  1  0  0  0
 50 51  1  0  0  0
 50132  1  0  0  0
 50133  1  0  0  0
 51 52  1  0  0  0
 51134  1  0  0  0
 51135  1  0  0  0
 52136  1  0  0  0
 52137  1  0  0  0
 53 54  1  0  0  0
 54 55  2  0  0  0
 54138  1  0  0  0
 55 57  1  0  0  0
 55139  1  0  0  0
 56 69  2  0  0  0
 57 58  2  0  0  0
 57140  1  0  0  0
 58141  1  0  0  0
 59 60  1  0  0  0
 59 61  1  0  0  0
 59 62  1  0  0  0
 60142  1  0  0  0
 60143  1  0  0  0
 60144  1  0  0  0
 61145  1  0  0  0
 61146  1  0  0  0
 61147  1  0  0  0
 62148  1  0  0  0
 62149  1  0  0  0
 62150  1  0  0  0
 63 65  1  0  0  0
 63151  1  0  0  0
 63152  1  0  0  0
 63153  1  0  0  0
 64154  1  0  0  0
 65155  1  0  0  0
 68 88  1  0  0  0
 71 72  2  0  0  0
 71 93  1  0  0  0
 71156  1  0  0  0
 72 89  1  0  0  0
 72 90  1  0  0  0
 73 74  1  0  0  0
 73 75  1  0  0  0
 73157  1  0  0  0
 73158  1  0  0  0
 74159  1  0  0  0
 74160  1  0  0  0
 74 76  1  0  0  0
 75161  1  0  0  0
 75162  1  0  0  0
 75 95  1  0  0  0
 76 89  1  0  0  0
 76 95  1  0  0  0
 76163  1  0  0  0
 77164  1  0  0  0
 77165  1  0  0  0
 77166  1  0  0  0
 77 90  1  0  0  0
 78167  1  0  0  0
 78168  1  0  0  0
 78169  1  0  0  0
 78 91  1  0  0  0
 79 91  1  0  0  0
 79170  1  0  0  0
 79171  1  0  0  0
 79172  1  0  0  0
 80173  1  0  0  0
 80174  1  0  0  0
 80175  1  0  0  0
 80 92  1  0  0  0
 81176  1  0  0  0
 81177  1  0  0  0
 81178  1  0  0  0
 81 93  1  0  0  0
 82 93  1  0  0  0
 82179  1  0  0  0
 82180  1  0  0  0
 82181  1  0  0  0
 83 84  1  0  0  0
 83 85  1  0  0  0
 83182  1  0  0  0
 83183  1  0  0  0
 84 86  1  0  0  0
 84184  1  0  0  0
 84185  1  0  0  0
 85 87  1  0  0  0
 85186  1  0  0  0
 85187  1  0  0  0
 86 92  1  0  0  0
 86188  1  0  0  0
 86189  1  0  0  0
 87 94  1  0  0  0
 87190  1  0  0  0
 87191  1  0  0  0
 88 90  1  0  0  0
 88192  1  0  0  0
 88193  1  0  0  0
 89 96  1  0  0  0
 89194  1  0  0  0
 90195  1  0  0  0
 91 93  1  0  0  0
 91196  1  0  0  0
 92 95  1  0  0  0
 92197  1  0  0  0
 94198  1  0  0  0
 95199  1  0  0  0
M  CHG  1  95   1
M  ISO  4   1 100  68 101  88 101  94 100
M  END
> <chiral flag>
0

> <version>
0

> <s_m_source_file>
/data/baiqing/PycharmProjects/Reinvent-master-3.2/result/LINK_invent/BTK/process_docking_weight1_custom_sum_contain_oxygen_bond_distance_aromatic_linkinvent_7_9_3/rearranged_h_0023.sdf

> <i_m_source_file_index>
29

> <r_mmod_Potential_Energy-OPLS-2005>
1206.60888671875

> <r_mmod_Stretch_Energy-OPLS-2005>
289.933349609375

> <r_mmod_Bend_Energy-OPLS-2005>
703.309936523438

> <r_mmod_Torsional_Energy-OPLS-2005>
412.818115234375

> <r_mmod_Improper_Torsional_Energy-OPLS-2005>
6.72060441970825

> <r_mmod_Van_der_Waal_Energy-OPLS-2005>
301.510101318359

> <r_mmod_Electrostatic_Energy-OPLS-2005>
-304.089508056641

> <r_mmod_Solvation_Energy-OPLS-2005>
-374.526428222656

> <b_mmod_Minimization_Converged-OPLS-2005>
0

> <r_mmod_RMS_Derivative-OPLS-2005>
40.5041160583496

$$$$
29
                    3D
 Structure written by MMmdl.
179187  0  0  1  0            999 V2000
  -30.7965  -14.3595   20.6822 C   0  0  0  0  0  0
  -30.4083  -12.2902   19.3968 C   0  0  0  0  0  0
  -29.4788  -12.5278   18.1934 C   0  0  0  0  0  0
  -28.0061  -12.3776   18.6126 C   0  0  0  0  0  0
  -27.6645  -13.2072   19.8772 C   0  0  2  0  0  0
  -28.7050  -12.9730   20.9959 C   0  0  0  0  0  0
  -25.2595  -13.8158   20.5680 C   0  0  0  0  0  0
  -24.1841  -13.0442   20.9163 C   0  0  0  0  0  0
  -24.6393  -11.6907   20.8723 C   0  0  0  0  0  0
  -23.9055  -10.4292   21.0392 C   0  0  0  0  0  0
  -24.3605   -9.4213   21.9177 C   0  0  0  0  0  0
  -23.6288   -8.2244   22.0749 C   0  0  0  0  0  0
  -22.4270   -8.0274   21.3539 C   0  0  0  0  0  0
  -21.9902   -9.0245   20.4643 C   0  0  0  0  0  0
  -22.7222  -10.2133   20.3050 C   0  0  0  0  0  0
  -21.6856   -6.0730   22.5279 C   0  0  0  0  0  0
  -21.4016   -6.5634   23.8209 C   0  0  0  0  0  0
  -21.3662   -5.6792   24.9174 C   0  0  0  0  0  0
  -21.6045   -4.3054   24.7231 C   0  0  0  0  0  0
  -21.8820   -3.8143   23.4351 C   0  0  0  0  0  0
  -21.9193   -4.6958   22.3403 C   0  0  0  0  0  0
  -22.7871  -13.5250   21.1846 C   0  0  0  0  0  0
  -22.1660   -4.2140   21.0983 F   0  0  0  0  0  0
  -21.5632   -3.4540   25.7745 F   0  0  0  0  0  0
  -30.0501  -13.2466   20.4553 N   0  0  0  0  0  0
  -26.3039  -12.9343   20.3379 N   0  0  0  0  0  0
  -25.9322  -11.6499   20.5758 N   0  0  0  0  0  0
  -22.0513  -12.8222   22.0389 N   0  0  0  0  0  0
  -25.4320  -15.1874   20.4084 N   0  0  0  0  0  0
  -31.8025  -14.6398   20.0249 O   0  0  0  0  0  0
  -21.6637   -6.8870   21.4237 O   0  0  0  0  0  0
  -22.3546  -14.5551   20.6699 O   0  0  0  0  0  0
  -24.6126  -31.8698   23.2158 C   0  0  0  0  0  0
  -25.9027  -32.4840   23.8454 C   0  0  1  0  0  0
  -27.2297  -27.4484   20.1001 C   0  0  0  0  0  0
  -25.5925  -33.8649   24.2363 N   0  0  0  0  0  0
  -23.4013  -30.4946   21.5534 C   0  0  2  0  0  0
  -24.8495  -28.9685   20.1091 C   0  0  0  0  0  0
  -22.7412  -29.4662   22.5001 C   0  0  0  0  0  0
  -18.0269  -28.1358   22.8476 C   0  0  0  0  0  0
  -24.1458  -36.7292   23.2640 C   0  0  0  0  0  0
  -25.9307  -30.8368   21.3743 C   0  0  0  0  0  0
  -26.0070  -29.4767   20.7142 C   0  0  0  0  0  0
  -27.2017  -28.7221   20.7087 C   0  0  0  0  0  0
  -26.0733  -26.9751   19.4475 C   0  0  0  0  0  0
  -24.8769  -27.7165   19.4706 C   0  0  0  0  0  0
  -23.6094  -29.8321   20.1653 C   0  0  0  0  0  0
  -25.4090  -36.3116   24.0336 C   0  0  1  0  0  0
  -20.5862  -28.3640   23.1306 C   0  0  2  0  0  0
  -20.6761  -26.9379   22.5401 C   0  0  0  0  0  0
  -19.5733  -26.6350   21.5203 C   0  0  0  0  0  0
  -18.1907  -26.7898   22.1602 C   0  0  0  0  0  0
  -19.1524  -28.8817   23.2880 C   0  0  0  0  0  0
  -18.9461  -30.1425   23.8882 C   0  0  0  0  0  0
  -17.6472  -30.6577   24.0546 C   0  0  0  0  0  0
  -25.9025  -34.9482   23.5128 C   0  0  0  0  0  0
  -16.5355  -29.9065   23.6347 C   0  0  0  0  0  0
  -16.7264  -28.6482   23.0364 C   0  0  0  0  0  0
  -26.4467  -31.6642   25.0794 C   0  0  0  0  0  0
  -25.3739  -31.3761   26.1556 C   0  0  0  0  0  0
  -27.0356  -30.3087   24.6212 C   0  0  0  0  0  0
  -27.6026  -32.4409   25.7557 C   0  0  0  0  0  0
  -27.5548  -37.1781   24.8470 C   0  0  0  0  0  0
  -21.4142  -29.3013   22.3731 N   0  0  0  0  0  0
  -26.4268  -37.3797   23.9423 N   0  0  0  0  0  0
  -24.6652  -31.0818   22.1062 N   0  0  0  0  0  0
  -23.4187  -28.8240   23.3062 O   0  0  0  0  0  0
  -28.3952  -26.7020   20.1103 O   0  0  0  0  0  0
  -26.5551  -34.8922   22.4665 O   0  0  0  0  0  0
  -23.5322  -32.1467   23.7547 O   0  0  0  0  0  0
  -25.1277  -23.4039   20.9133 C   0  0  0  0  0  0
  -27.7939  -23.0149   20.0674 C   0  0  0  0  0  0
  -27.4176  -24.2609   20.6547 C   0  0  0  0  0  0
  -26.7876  -22.0593   19.7446 C   0  0  0  0  0  0
  -26.0913  -24.3953   21.1512 C   0  0  0  0  0  0
  -25.4589  -22.2547   20.1837 C   0  0  0  0  0  0
  -26.9799  -19.5601   16.9922 C   0  0  0  0  0  0
  -27.7297  -21.9597   16.8575 C   0  0  0  0  0  0
  -29.0630  -21.8645   22.6689 C   0  0  0  0  0  0
  -29.2796  -22.6693   19.8572 C   0  0  0  0  0  0
  -28.4530  -25.4077   20.7791 C   0  0  0  0  0  0
  -29.8384  -18.2309   21.4496 C   0  0  0  0  0  0
  -30.3607  -17.4308   22.6621 C   0  0  0  0  0  0
  -29.0007  -19.4627   21.8696 C   0  0  0  0  0  0
  -31.2158  -16.2021   22.3030 C   0  0  0  0  0  0
  -26.8354  -20.9567   17.6028 C   0  0  0  0  0  0
  -29.6653  -20.8522   21.6666 C   0  0  1  0  0  0
  -27.1022  -20.8830   19.0407 N   0  0  0  0  0  0
  -30.4276  -15.1058   21.7313 N   0  0  0  0  0  0
  -29.5882  -21.2625   20.2303 N   0  3  0  0  0  0
  -25.7191  -25.4770   21.8749 F   0  0  0  0  0  0
  -24.2418  -21.0598   19.8929 Cl  0  0  0  0  0  0
  -31.4527  -12.3742   19.0914 H   0  0  0  0  0  0
  -30.2932  -11.2715   19.7709 H   0  0  0  0  0  0
  -29.7125  -11.8276   17.3902 H   0  0  0  0  0  0
  -29.6468  -13.5274   17.7880 H   0  0  0  0  0  0
  -27.8188  -11.3196   18.7992 H   0  0  0  0  0  0
  -27.3499  -12.6611   17.7892 H   0  0  0  0  0  0
  -27.7152  -14.2584   19.5925 H   0  0  0  0  0  0
  -28.6635  -11.9387   21.3400 H   0  0  0  0  0  0
  -28.4543  -13.5796   21.8661 H   0  0  0  0  0  0
  -25.2757   -9.5694   22.4743 H   0  0  0  0  0  0
  -24.0005   -7.4638   22.7468 H   0  0  0  0  0  0
  -21.0835   -8.8761   19.8947 H   0  0  0  0  0  0
  -22.3680  -10.9665   19.6151 H   0  0  0  0  0  0
  -21.2005   -7.6142   23.9710 H   0  0  0  0  0  0
  -21.1485   -6.0524   25.9078 H   0  0  0  0  0  0
  -22.0596   -2.7605   23.2858 H   0  0  0  0  0  0
  -22.4134  -11.9878   22.4761 H   0  0  0  0  0  0
  -21.1129  -13.1231   22.2604 H   0  0  0  0  0  0
  -24.6700  -15.8470   20.5172 H   0  0  0  0  0  0
  -26.2956  -15.6241   20.1116 H   0  0  0  0  0  0
  -26.7111  -32.5557   23.1242 H   0  0  0  0  0  0
  -25.0256  -33.9871   25.0625 H   0  0  0  0  0  0
  -22.6863  -31.3090   21.4171 H   0  0  0  0  0  0
  -23.3730  -35.9616   23.3356 H   0  0  0  0  0  0
  -24.3533  -36.8871   22.2040 H   0  0  0  0  0  0
  -23.7177  -37.6486   23.6648 H   0  0  0  0  0  0
  -26.0532  -31.6075   20.6131 H   0  0  0  0  0  0
  -26.8137  -30.8822   21.9999 H   0  0  0  0  0  0
  -28.0968  -29.1045   21.1817 H   0  0  0  0  0  0
  -26.0908  -26.0276   18.9296 H   0  0  0  0  0  0
  -23.9946  -27.3251   18.9836 H   0  0  0  0  0  0
  -23.7123  -30.6110   19.4084 H   0  0  0  0  0  0
  -22.7357  -29.2491   19.8697 H   0  0  0  0  0  0
  -25.1242  -36.1991   25.0823 H   0  0  0  0  0  0
  -20.9952  -28.3178   24.1420 H   0  0  0  0  0  0
  -20.5636  -26.2237   23.3571 H   0  0  0  0  0  0
  -21.6630  -26.7397   22.1195 H   0  0  0  0  0  0
  -19.6883  -25.6248   21.1244 H   0  0  0  0  0  0
  -19.6673  -27.3154   20.6733 H   0  0  0  0  0  0
  -17.4173  -26.6676   21.4005 H   0  0  0  0  0  0
  -18.0291  -26.0033   22.8986 H   0  0  0  0  0  0
  -19.7953  -30.7230   24.2242 H   0  0  0  0  0  0
  -17.5039  -31.6264   24.5112 H   0  0  0  0  0  0
  -15.5356  -30.2954   23.7688 H   0  0  0  0  0  0
  -15.8665  -28.0794   22.7094 H   0  0  0  0  0  0
  -24.5911  -30.7096   25.7922 H   0  0  0  0  0  0
  -24.8940  -32.2925   26.5004 H   0  0  0  0  0  0
  -25.8087  -30.8947   27.0317 H   0  0  0  0  0  0
  -26.2923  -29.6781   24.1328 H   0  0  0  0  0  0
  -27.4167  -29.7398   25.4700 H   0  0  0  0  0  0
  -27.8716  -30.4411   23.9346 H   0  0  0  0  0  0
  -27.2627  -33.3720   26.2114 H   0  0  0  0  0  0
  -28.3831  -32.6977   25.0388 H   0  0  0  0  0  0
  -28.0696  -31.8566   26.5492 H   0  0  0  0  0  0
  -28.2583  -38.0059   24.7525 H   0  0  0  0  0  0
  -28.1002  -36.2580   24.6296 H   0  0  0  0  0  0
  -27.2260  -37.1446   25.8870 H   0  0  0  0  0  0
  -20.9315  -29.8758   21.6960 H   0  0  0  0  0  0
  -26.0149  -38.2861   24.1463 H   0  0  0  0  0  0
  -24.1231  -23.5319   21.2887 H   0  0  0  0  0  0
  -26.7568  -19.5735   15.9240 H   0  0  0  0  0  0
  -26.2955  -18.8508   17.4589 H   0  0  0  0  0  0
  -27.9950  -19.1789   17.1102 H   0  0  0  0  0  0
  -27.4719  -21.9896   15.7978 H   0  0  0  0  0  0
  -28.7828  -21.6877   16.9189 H   0  0  0  0  0  0
  -27.6142  -22.9761   17.2321 H   0  0  0  0  0  0
  -29.1924  -21.5107   23.6916 H   0  0  0  0  0  0
  -27.9915  -21.9980   22.5245 H   0  0  0  0  0  0
  -29.5475  -22.8398   22.6214 H   0  0  0  0  0  0
  -29.9470  -23.3347   20.4028 H   0  0  0  0  0  0
  -29.5192  -22.8137   18.8045 H   0  0  0  0  0  0
  -27.9493  -25.8837   21.6186 H   0  0  0  0  0  0
  -28.3431  -25.3123   19.6977 H   0  0  0  0  0  0
  -29.2190  -17.5731   20.8367 H   0  0  0  0  0  0
  -30.6711  -18.5297   20.8118 H   0  0  0  0  0  0
  -29.5282  -17.1213   23.2948 H   0  0  0  0  0  0
  -30.9666  -18.0946   23.2795 H   0  0  0  0  0  0
  -28.7291  -19.3448   22.9195 H   0  0  0  0  0  0
  -28.0437  -19.4437   21.3487 H   0  0  0  0  0  0
  -31.6943  -15.8188   23.2061 H   0  0  0  0  0  0
  -32.0302  -16.5103   21.6443 H   0  0  0  0  0  0
  -25.7990  -21.2712   17.4641 H   0  0  0  0  0  0
  -30.7246  -20.7715   21.9173 H   0  0  0  0  0  0
  -26.4945  -20.1465   19.3962 H   0  0  0  0  0  0
  -29.6092  -14.8010   22.2379 H   0  0  0  0  0  0
  -30.4369  -20.9814   19.7658 H   0  0  0  0  0  0
  -28.8233  -20.7557   19.7896 H   0  0  0  0  0  0
  1 25  1  0  0  0
  1 30  2  0  0  0
  1 89  1  0  0  0
  2  3  1  0  0  0
  2 25  1  0  0  0
  2 93  1  0  0  0
  2 94  1  0  0  0
  3  4  1  0  0  0
  3 95  1  0  0  0
  3 96  1  0  0  0
  4  5  1  0  0  0
  4 97  1  0  0  0
  4 98  1  0  0  0
  5  6  1  0  0  0
  5 26  1  0  0  0
  5 99  1  0  0  0
  6 25  1  0  0  0
  6100  1  0  0  0
  6101  1  0  0  0
  7  8  2  0  0  0
  7 26  1  0  0  0
  7 29  1  0  0  0
  8  9  1  0  0  0
  8 22  1  0  0  0
  9 10  1  0  0  0
  9 27  2  0  0  0
 10 11  2  0  0  0
 10 15  1  0  0  0
 11 12  1  0  0  0
 11102  1  0  0  0
 12 13  2  0  0  0
 12103  1  0  0  0
 13 14  1  0  0  0
 13 31  1  0  0  0
 14 15  2  0  0  0
 14104  1  0  0  0
 15105  1  0  0  0
 16 17  2  0  0  0
 16 21  1  0  0  0
 16 31  1  0  0  0
 17 18  1  0  0  0
 17106  1  0  0  0
 18 19  2  0  0  0
 18107  1  0  0  0
 19 20  1  0  0  0
 19 24  1  0  0  0
 20 21  2  0  0  0
 20108  1  0  0  0
 21 23  1  0  0  0
 22 28  1  0  0  0
 22 32  2  0  0  0
 26 27  1  0  0  0
 28109  1  0  0  0
 28110  1  0  0  0
 29111  1  0  0  0
 29112  1  0  0  0
 33 34  1  0  0  0
 33 66  1  0  0  0
 33 70  2  0  0  0
 34 36  1  0  0  0
 34 59  1  0  0  0
 34113  1  0  0  0
 35 44  2  0  0  0
 35 45  1  0  0  0
 35 68  1  0  0  0
 36 56  1  0  0  0
 36114  1  0  0  0
 37 39  1  0  0  0
 37 47  1  0  0  0
 37 66  1  0  0  0
 37115  1  0  0  0
 38 43  2  0  0  0
 38 46  1  0  0  0
 38 47  1  0  0  0
 39 64  1  0  0  0
 39 67  2  0  0  0
 40 52  1  0  0  0
 40 53  2  0  0  0
 40 58  1  0  0  0
 41116  1  0  0  0
 41117  1  0  0  0
 41118  1  0  0  0
 41 48  1  0  0  0
 42 43  1  0  0  0
 42 66  1  0  0  0
 42119  1  0  0  0
 42120  1  0  0  0
 43 44  1  0  0  0
 44121  1  0  0  0
 45 46  2  0  0  0
 45122  1  0  0  0
 46123  1  0  0  0
 47124  1  0  0  0
 47125  1  0  0  0
 48 56  1  0  0  0
 48 65  1  0  0  0
 48126  1  0  0  0
 49 50  1  0  0  0
 49 53  1  0  0  0
 49 64  1  0  0  0
 49127  1  0  0  0
 50 51  1  0  0  0
 50128  1  0  0  0
 50129  1  0  0  0
 51 52  1  0  0  0
 51130  1  0  0  0
 51131  1  0  0  0
 52132  1  0  0  0
 52133  1  0  0  0
 53 54  1  0  0  0
 54 55  2  0  0  0
 54134  1  0  0  0
 55 57  1  0  0  0
 55135  1  0  0  0
 56 69  2  0  0  0
 57 58  2  0  0  0
 57136  1  0  0  0
 58137  1  0  0  0
 59 60  1  0  0  0
 59 61  1  0  0  0
 59 62  1  0  0  0
 60138  1  0  0  0
 60139  1  0  0  0
 60140  1  0  0  0
 61141  1  0  0  0
 61142  1  0  0  0
 61143  1  0  0  0
 62144  1  0  0  0
 62145  1  0  0  0
 62146  1  0  0  0
 63 65  1  0  0  0
 63147  1  0  0  0
 63148  1  0  0  0
 63149  1  0  0  0
 64150  1  0  0  0
 65151  1  0  0  0
 68 81  1  0  0  0
 71 75  2  0  0  0
 71 76  1  0  0  0
 71152  1  0  0  0
 72 73  2  0  0  0
 72 74  1  0  0  0
 72 80  1  0  0  0
 73 75  1  0  0  0
 73 81  1  0  0  0
 74 76  2  0  0  0
 74 88  1  0  0  0
 75 91  1  0  0  0
 76 92  1  0  0  0
 77153  1  0  0  0
 77154  1  0  0  0
 77155  1  0  0  0
 77 86  1  0  0  0
 78 86  1  0  0  0
 78156  1  0  0  0
 78157  1  0  0  0
 78158  1  0  0  0
 79159  1  0  0  0
 79160  1  0  0  0
 79161  1  0  0  0
 79 87  1  0  0  0
 80 90  1  0  0  0
 80162  1  0  0  0
 80163  1  0  0  0
 81164  1  0  0  0
 81165  1  0  0  0
 82 83  1  0  0  0
 82 84  1  0  0  0
 82166  1  0  0  0
 82167  1  0  0  0
 83 85  1  0  0  0
 83168  1  0  0  0
 83169  1  0  0  0
 84 87  1  0  0  0
 84170  1  0  0  0
 84171  1  0  0  0
 85 89  1  0  0  0
 85172  1  0  0  0
 85173  1  0  0  0
 86 88  1  0  0  0
 86174  1  0  0  0
 87 90  1  0  0  0
 87175  1  0  0  0
 88176  1  0  0  0
 89177  1  0  0  0
 90178  1  0  0  0
 90179  1  0  0  0
M  CHG  1  90   1
M  ISO  4   1 100  68 101  81 101  89 100
M  END
> <chiral flag>
0

> <version>
0

> <s_m_source_file>
/data/baiqing/PycharmProjects/Reinvent-master-3.2/result/LINK_invent/BTK/process_docking_weight1_custom_sum_contain_oxygen_bond_distance_aromatic_linkinvent_7_9_3/rearranged_h_0023.sdf

> <i_m_source_file_index>
30

> <r_mmod_Potential_Energy-OPLS-2005>
19.906364440918

> <r_mmod_Stretch_Energy-OPLS-2005>
44.5158309936523

> <r_mmod_Bend_Energy-OPLS-2005>
335.495330810547

> <r_mmod_Torsional_Energy-OPLS-2005>
281.586059570312

> <r_mmod_Improper_Torsional_Energy-OPLS-2005>
9.16871356964111

> <r_mmod_Van_der_Waal_Energy-OPLS-2005>
177.802352905273

> <r_mmod_Electrostatic_Energy-OPLS-2005>
-400.874725341797

> <r_mmod_Solvation_Energy-OPLS-2005>
-436.956390380859

> <b_mmod_Minimization_Converged-OPLS-2005>
0

> <r_mmod_RMS_Derivative-OPLS-2005>
2.32257437705994

$$$$
30
                    3D
 Structure written by MMmdl.
188196  0  0  1  0            999 V2000
  -30.7178  -14.3948   20.6341 C   0  0  0  0  0  0
  -30.4195  -12.2779   19.3792 C   0  0  0  0  0  0
  -29.4908  -12.5311   18.1764 C   0  0  0  0  0  0
  -28.0106  -12.3839   18.5868 C   0  0  0  0  0  0
  -27.6752  -13.1776   19.8771 C   0  0  2  0  0  0
  -28.7155  -12.9017   20.9856 C   0  0  0  0  0  0
  -25.2691  -13.7847   20.5397 C   0  0  0  0  0  0
  -24.1903  -13.0311   20.9069 C   0  0  0  0  0  0
  -24.6388  -11.6784   20.8703 C   0  0  0  0  0  0
  -23.9013  -10.4246   21.0430 C   0  0  0  0  0  0
  -24.3562   -9.4166   21.9217 C   0  0  0  0  0  0
  -23.6243   -8.2197   22.0775 C   0  0  0  0  0  0
  -22.4235   -8.0233   21.3555 C   0  0  0  0  0  0
  -21.9862   -9.0207   20.4663 C   0  0  0  0  0  0
  -22.7179  -10.2098   20.3085 C   0  0  0  0  0  0
  -21.6830   -6.0700   22.5274 C   0  0  0  0  0  0
  -21.4008   -6.5610   23.8201 C   0  0  0  0  0  0
  -21.3657   -5.6781   24.9174 C   0  0  0  0  0  0
  -21.6046   -4.3036   24.7240 C   0  0  0  0  0  0
  -21.8818   -3.8119   23.4357 C   0  0  0  0  0  0
  -21.9193   -4.6931   22.3410 C   0  0  0  0  0  0
  -22.7950  -13.5217   21.1752 C   0  0  0  0  0  0
  -22.1655   -4.2100   21.0988 F   0  0  0  0  0  0
  -21.5634   -3.4537   25.7756 F   0  0  0  0  0  0
  -30.0543  -13.2210   20.4465 N   0  0  0  0  0  0
  -26.3121  -12.9032   20.3309 N   0  0  0  0  0  0
  -25.9335  -11.6247   20.5778 N   0  0  0  0  0  0
  -22.0593  -12.8310   22.0355 N   0  0  0  0  0  0
  -25.4619  -15.1393   20.3420 N   0  0  0  0  0  0
  -31.7594  -14.6988   20.0415 O   0  0  0  0  0  0
  -21.6610   -6.8838   21.4230 O   0  0  0  0  0  0
  -22.3687  -14.5541   20.6577 O   0  0  0  0  0  0
  -24.6040  -31.8684   23.2179 C   0  0  0  0  0  0
  -25.8997  -32.4857   23.8432 C   0  0  1  0  0  0
  -27.2383  -27.4956   20.0479 C   0  0  0  0  0  0
  -25.5849  -33.8643   24.2398 N   0  0  0  0  0  0
  -23.3891  -30.4971   21.5608 C   0  0  2  0  0  0
  -24.8279  -28.9697   20.1242 C   0  0  0  0  0  0
  -22.7335  -29.4694   22.5057 C   0  0  0  0  0  0
  -18.0149  -28.1393   22.8353 C   0  0  0  0  0  0
  -24.1474  -36.7348   23.2636 C   0  0  0  0  0  0
  -25.9094  -30.8597   21.3508 C   0  0  0  0  0  0
  -25.9929  -29.4982   20.7007 C   0  0  0  0  0  0
  -27.1969  -28.7706   20.6515 C   0  0  0  0  0  0
  -26.0347  -26.9476   19.5459 C   0  0  0  0  0  0
  -24.8418  -27.6937   19.5519 C   0  0  0  0  0  0
  -23.5930  -29.8284   20.1754 C   0  0  0  0  0  0
  -25.4104  -36.3144   24.0350 C   0  0  1  0  0  0
  -20.5707  -28.3785   23.1164 C   0  0  2  0  0  0
  -20.6757  -26.9447   22.5417 C   0  0  0  0  0  0
  -19.5755  -26.6281   21.5188 C   0  0  0  0  0  0
  -18.1909  -26.7924   22.1519 C   0  0  0  0  0  0
  -19.1334  -28.8920   23.2795 C   0  0  0  0  0  0
  -18.9204  -30.1462   23.8970 C   0  0  0  0  0  0
  -17.6198  -30.6525   24.0786 C   0  0  0  0  0  0
  -25.9028  -34.9493   23.5186 C   0  0  0  0  0  0
  -16.5156  -29.9016   23.6382 C   0  0  0  0  0  0
  -16.7098  -28.6505   23.0190 C   0  0  0  0  0  0
  -26.4473  -31.6645   25.0756 C   0  0  0  0  0  0
  -25.3826  -31.3657   26.1569 C   0  0  0  0  0  0
  -27.0240  -30.3092   24.6058 C   0  0  0  0  0  0
  -27.6059  -32.4374   25.7544 C   0  0  0  0  0  0
  -27.5589  -37.1828   24.8452 C   0  0  0  0  0  0
  -21.4066  -29.3146   22.3710 N   0  0  0  0  0  0
  -26.4291  -37.3833   23.9413 N   0  0  0  0  0  0
  -24.6549  -31.0848   22.1057 N   0  0  0  0  0  0
  -23.4170  -28.8180   23.3084 O   0  0  0  0  0  0
  -28.4674  -26.8708   19.9404 O   0  0  0  0  0  0
  -26.5522  -34.8922   22.4704 O   0  0  0  0  0  0
  -23.5277  -32.1351   23.7689 O   0  0  0  0  0  0
  -23.9677  -20.3528   21.5238 C   0  0  0  0  0  0
  -24.1504  -21.7406   21.5585 C   0  0  0  0  0  0
  -25.4748  -22.2527   21.5687 C   0  0  0  0  0  0
  -26.5702  -21.3829   21.3015 C   0  0  0  0  0  0
  -26.3465  -19.9930   21.1284 C   0  0  0  0  0  0
  -25.0473  -19.4822   21.3512 C   0  0  0  0  0  0
  -25.7162  -23.7215   21.8614 C   0  0  0  0  0  0
  -27.9864  -21.9319   21.2126 C   0  0  0  0  0  0
  -21.6136  -22.0059   18.1855 C   0  0  0  0  0  0
  -22.8943  -22.6009   21.4883 C   0  0  0  0  0  0
  -22.7300  -23.3229   20.1322 C   0  0  0  0  0  0
  -27.5535  -23.8351   17.8218 C   0  0  0  0  0  0
  -26.1137  -23.8380   17.2529 C   0  0  0  0  0  0
  -28.1929  -25.2413   17.9996 C   0  0  0  0  0  0
  -28.8329  -17.2332   20.9411 C   0  0  0  0  0  0
  -28.3925  -18.6085   21.4787 C   0  0  0  0  0  0
  -30.1621  -16.6912   21.5065 C   0  0  0  0  0  0
  -25.2015  -22.7746   17.9001 C   0  0  0  0  0  0
  -28.5415  -25.5197   19.4954 C   0  0  0  0  0  0
  -22.9330  -22.4378   18.8555 C   0  0  2  0  0  0
  -27.3654  -19.1677   20.6093 N   0  0  0  0  0  0
  -30.0894  -15.2337   21.4628 N   0  0  0  0  0  0
  -23.7707  -23.1613   17.8720 N   0  3  0  0  0  0
  -24.7011  -17.8017   21.3679 Cl  0  0  0  0  0  0
  -31.4661  -12.3730   19.0859 H   0  0  0  0  0  0
  -30.3019  -11.2530   19.7285 H   0  0  0  0  0  0
  -29.7223  -11.8324   17.3711 H   0  0  0  0  0  0
  -29.6673  -13.5299   17.7758 H   0  0  0  0  0  0
  -27.8128  -11.3226   18.7373 H   0  0  0  0  0  0
  -27.3623  -12.7083   17.7692 H   0  0  0  0  0  0
  -27.7409  -14.2357   19.6204 H   0  0  0  0  0  0
  -28.6830  -11.8504   21.2691 H   0  0  0  0  0  0
  -28.4605  -13.4444   21.9004 H   0  0  0  0  0  0
  -25.2721   -9.5628   22.4782 H   0  0  0  0  0  0
  -23.9927   -7.4607   22.7520 H   0  0  0  0  0  0
  -21.0786   -8.8745   19.8996 H   0  0  0  0  0  0
  -22.3652  -10.9634   19.6185 H   0  0  0  0  0  0
  -21.1994   -7.6119   23.9683 H   0  0  0  0  0  0
  -21.1481   -6.0522   25.9075 H   0  0  0  0  0  0
  -22.0603   -2.7568   23.2887 H   0  0  0  0  0  0
  -22.4125  -11.9953   22.4809 H   0  0  0  0  0  0
  -21.1228  -13.1420   22.2533 H   0  0  0  0  0  0
  -24.7411  -15.8303   20.5242 H   0  0  0  0  0  0
  -26.3427  -15.5666   20.0818 H   0  0  0  0  0  0
  -26.7111  -32.5598   23.1243 H   0  0  0  0  0  0
  -25.0213  -33.9822   25.0708 H   0  0  0  0  0  0
  -22.6717  -31.3084   21.4290 H   0  0  0  0  0  0
  -23.3737  -35.9667   23.3289 H   0  0  0  0  0  0
  -24.3612  -36.8960   22.2044 H   0  0  0  0  0  0
  -23.7181  -37.6566   23.6644 H   0  0  0  0  0  0
  -26.0048  -31.6256   20.5828 H   0  0  0  0  0  0
  -26.8106  -30.9297   21.9488 H   0  0  0  0  0  0
  -28.1124  -29.2027   21.0358 H   0  0  0  0  0  0
  -25.9890  -25.9525   19.1421 H   0  0  0  0  0  0
  -23.9388  -27.2684   19.1333 H   0  0  0  0  0  0
  -23.6872  -30.5975   19.4063 H   0  0  0  0  0  0
  -22.7266  -29.2262   19.8952 H   0  0  0  0  0  0
  -25.1256  -36.2089   25.0837 H   0  0  0  0  0  0
  -20.9753  -28.3567   24.1281 H   0  0  0  0  0  0
  -20.5556  -26.2449   23.3635 H   0  0  0  0  0  0
  -21.6720  -26.7416   22.1509 H   0  0  0  0  0  0
  -19.6607  -25.6104   21.1271 H   0  0  0  0  0  0
  -19.6756  -27.3035   20.6697 H   0  0  0  0  0  0
  -17.4114  -26.6399   21.4078 H   0  0  0  0  0  0
  -18.0402  -26.0068   22.8928 H   0  0  0  0  0  0
  -19.7580  -30.7305   24.2464 H   0  0  0  0  0  0
  -17.4674  -31.6042   24.5678 H   0  0  0  0  0  0
  -15.5196  -30.2884   23.7841 H   0  0  0  0  0  0
  -15.8456  -28.0955   22.6729 H   0  0  0  0  0  0
  -24.6019  -30.6959   25.7961 H   0  0  0  0  0  0
  -24.8978  -32.2744   26.5145 H   0  0  0  0  0  0
  -25.8279  -30.8791   27.0257 H   0  0  0  0  0  0
  -26.2707  -29.6942   24.1104 H   0  0  0  0  0  0
  -27.4016  -29.7270   25.4478 H   0  0  0  0  0  0
  -27.8565  -30.4426   23.9143 H   0  0  0  0  0  0
  -27.2678  -33.3667   26.2163 H   0  0  0  0  0  0
  -28.3872  -32.6957   25.0384 H   0  0  0  0  0  0
  -28.0745  -31.8464   26.5441 H   0  0  0  0  0  0
  -28.2583  -38.0144   24.7531 H   0  0  0  0  0  0
  -28.1102  -36.2674   24.6257 H   0  0  0  0  0  0
  -27.2296  -37.1468   25.8848 H   0  0  0  0  0  0
  -20.9259  -29.8907   21.6919 H   0  0  0  0  0  0
  -26.0202  -38.2915   24.1478 H   0  0  0  0  0  0
  -22.9778  -19.9373   21.5959 H   0  0  0  0  0  0
  -26.6545  -23.8553   22.4036 H   0  0  0  0  0  0
  -25.7238  -24.3074   20.9438 H   0  0  0  0  0  0
  -24.9533  -24.1258   22.5182 H   0  0  0  0  0  0
  -28.0098  -22.9686   20.9001 H   0  0  0  0  0  0
  -28.6192  -21.4083   20.4958 H   0  0  0  0  0  0
  -28.4408  -21.8750   22.1999 H   0  0  0  0  0  0
  -21.0163  -21.3698   18.8391 H   0  0  0  0  0  0
  -21.8158  -21.4161   17.2906 H   0  0  0  0  0  0
  -20.9967  -22.8487   17.8749 H   0  0  0  0  0  0
  -22.8684  -23.3036   22.3138 H   0  0  0  0  0  0
  -22.0154  -21.9768   21.6642 H   0  0  0  0  0  0
  -23.4266  -24.1682   20.1274 H   0  0  0  0  0  0
  -21.7389  -23.7871   20.1020 H   0  0  0  0  0  0
  -28.1921  -23.1819   17.2265 H   0  0  0  0  0  0
  -27.5247  -23.3292   18.7831 H   0  0  0  0  0  0
  -26.1606  -23.6871   16.1727 H   0  0  0  0  0  0
  -25.6604  -24.8177   17.3912 H   0  0  0  0  0  0
  -27.5416  -26.0025   17.5689 H   0  0  0  0  0  0
  -29.0824  -25.3322   17.3793 H   0  0  0  0  0  0
  -28.9408  -17.2675   19.8546 H   0  0  0  0  0  0
  -28.0256  -16.5203   21.1246 H   0  0  0  0  0  0
  -29.2565  -19.2739   21.4672 H   0  0  0  0  0  0
  -28.0570  -18.5493   22.5154 H   0  0  0  0  0  0
  -30.3138  -17.0055   22.5369 H   0  0  0  0  0  0
  -31.0077  -17.0769   20.9346 H   0  0  0  0  0  0
  -25.4812  -22.6080   18.9407 H   0  0  0  0  0  0
  -25.3357  -21.8168   17.3888 H   0  0  0  0  0  0
  -29.5499  -25.1616   19.7106 H   0  0  0  0  0  0
  -27.8953  -24.9609   20.1629 H   0  0  0  0  0  0
  -23.4405  -21.5059   19.1070 H   0  0  0  0  0  0
  -27.8472  -19.6710   19.8790 H   0  0  0  0  0  0
  -29.2902  -14.8286   21.9307 H   0  0  0  0  0  0
  -23.4172  -22.9907   16.9460 H   0  0  0  0  0  0
  -23.6658  -24.1468   18.0707 H   0  0  0  0  0  0
  1 25  1  0  0  0
  1 30  2  0  0  0
  1 92  1  0  0  0
  2  3  1  0  0  0
  2 25  1  0  0  0
  2 95  1  0  0  0
  2 96  1  0  0  0
  3  4  1  0  0  0
  3 97  1  0  0  0
  3 98  1  0  0  0
  4  5  1  0  0  0
  4 99  1  0  0  0
  4100  1  0  0  0
  5  6  1  0  0  0
  5 26  1  0  0  0
  5101  1  0  0  0
  6 25  1  0  0  0
  6102  1  0  0  0
  6103  1  0  0  0
  7  8  2  0  0  0
  7 26  1  0  0  0
  7 29  1  0  0  0
  8  9  1  0  0  0
  8 22  1  0  0  0
  9 10  1  0  0  0
  9 27  2  0  0  0
 10 11  2  0  0  0
 10 15  1  0  0  0
 11 12  1  0  0  0
 11104  1  0  0  0
 12 13  2  0  0  0
 12105  1  0  0  0
 13 14  1  0  0  0
 13 31  1  0  0  0
 14 15  2  0  0  0
 14106  1  0  0  0
 15107  1  0  0  0
 16 17  2  0  0  0
 16 21  1  0  0  0
 16 31  1  0  0  0
 17 18  1  0  0  0
 17108  1  0  0  0
 18 19  2  0  0  0
 18109  1  0  0  0
 19 20  1  0  0  0
 19 24  1  0  0  0
 20 21  2  0  0  0
 20110  1  0  0  0
 21 23  1  0  0  0
 22 28  1  0  0  0
 22 32  2  0  0  0
 26 27  1  0  0  0
 28111  1  0  0  0
 28112  1  0  0  0
 29113  1  0  0  0
 29114  1  0  0  0
 33 34  1  0  0  0
 33 66  1  0  0  0
 33 70  2  0  0  0
 34 36  1  0  0  0
 34 59  1  0  0  0
 34115  1  0  0  0
 35 44  2  0  0  0
 35 45  1  0  0  0
 35 68  1  0  0  0
 36 56  1  0  0  0
 36116  1  0  0  0
 37 39  1  0  0  0
 37 47  1  0  0  0
 37 66  1  0  0  0
 37117  1  0  0  0
 38 43  2  0  0  0
 38 46  1  0  0  0
 38 47  1  0  0  0
 39 64  1  0  0  0
 39 67  2  0  0  0
 40 52  1  0  0  0
 40 53  2  0  0  0
 40 58  1  0  0  0
 41118  1  0  0  0
 41119  1  0  0  0
 41120  1  0  0  0
 41 48  1  0  0  0
 42 43  1  0  0  0
 42 66  1  0  0  0
 42121  1  0  0  0
 42122  1  0  0  0
 43 44  1  0  0  0
 44123  1  0  0  0
 45 46  2  0  0  0
 45124  1  0  0  0
 46125  1  0  0  0
 47126  1  0  0  0
 47127  1  0  0  0
 48 56  1  0  0  0
 48 65  1  0  0  0
 48128  1  0  0  0
 49 50  1  0  0  0
 49 53  1  0  0  0
 49 64  1  0  0  0
 49129  1  0  0  0
 50 51  1  0  0  0
 50130  1  0  0  0
 50131  1  0  0  0
 51 52  1  0  0  0
 51132  1  0  0  0
 51133  1  0  0  0
 52134  1  0  0  0
 52135  1  0  0  0
 53 54  1  0  0  0
 54 55  2  0  0  0
 54136  1  0  0  0
 55 57  1  0  0  0
 55137  1  0  0  0
 56 69  2  0  0  0
 57 58  2  0  0  0
 57138  1  0  0  0
 58139  1  0  0  0
 59 60  1  0  0  0
 59 61  1  0  0  0
 59 62  1  0  0  0
 60140  1  0  0  0
 60141  1  0  0  0
 60142  1  0  0  0
 61143  1  0  0  0
 61144  1  0  0  0
 61145  1  0  0  0
 62146  1  0  0  0
 62147  1  0  0  0
 62148  1  0  0  0
 63 65  1  0  0  0
 63149  1  0  0  0
 63150  1  0  0  0
 63151  1  0  0  0
 64152  1  0  0  0
 65153  1  0  0  0
 68 89  1  0  0  0
 71 72  2  0  0  0
 71 76  1  0  0  0
 71154  1  0  0  0
 72 73  1  0  0  0
 72 80  1  0  0  0
 73 74  2  0  0  0
 73 77  1  0  0  0
 74 75  1  0  0  0
 74 78  1  0  0  0
 75 76  2  0  0  0
 75 91  1  0  0  0
 76 94  1  0  0  0
 77155  1  0  0  0
 77156  1  0  0  0
 77157  1  0  0  0
 78158  1  0  0  0
 78159  1  0  0  0
 78160  1  0  0  0
 79161  1  0  0  0
 79162  1  0  0  0
 79163  1  0  0  0
 79 90  1  0  0  0
 80 81  1  0  0  0
 80164  1  0  0  0
 80165  1  0  0  0
 81 90  1  0  0  0
 81166  1  0  0  0
 81167  1  0  0  0
 82 83  1  0  0  0
 82 84  1  0  0  0
 82168  1  0  0  0
 82169  1  0  0  0
 83 88  1  0  0  0
 83170  1  0  0  0
 83171  1  0  0  0
 84 89  1  0  0  0
 84172  1  0  0  0
 84173  1  0  0  0
 85 86  1  0  0  0
 85 87  1  0  0  0
 85174  1  0  0  0
 85175  1  0  0  0
 86 91  1  0  0  0
 86176  1  0  0  0
 86177  1  0  0  0
 87 92  1  0  0  0
 87178  1  0  0  0
 87179  1  0  0  0
 88 93  1  0  0  0
 88180  1  0  0  0
 88181  1  0  0  0
 89182  1  0  0  0
 89183  1  0  0  0
 90 93  1  0  0  0
 90184  1  0  0  0
 91185  1  0  0  0
 92186  1  0  0  0
 93187  1  0  0  0
 93188  1  0  0  0
M  CHG  1  93   1
M  ISO  4   1 100  68 101  89 101  92 100
M  END
> <chiral flag>
0

> <version>
0

> <s_m_source_file>
/data/baiqing/PycharmProjects/Reinvent-master-3.2/result/LINK_invent/BTK/process_docking_weight1_custom_sum_contain_oxygen_bond_distance_aromatic_linkinvent_7_9_3/rearranged_h_0023.sdf

> <i_m_source_file_index>
31

> <r_mmod_Potential_Energy-OPLS-2005>
-67.8411636352539

> <r_mmod_Stretch_Energy-OPLS-2005>
41.1338539123535

> <r_mmod_Bend_Energy-OPLS-2005>
131.270874023438

> <r_mmod_Torsional_Energy-OPLS-2005>
295.043853759766

> <r_mmod_Improper_Torsional_Energy-OPLS-2005>
9.80331611633301

> <r_mmod_Van_der_Waal_Energy-OPLS-2005>
156.637985229492

> <r_mmod_Electrostatic_Energy-OPLS-2005>
-251.921249389648

> <r_mmod_Solvation_Energy-OPLS-2005>
-462.849700927734

> <b_mmod_Minimization_Converged-OPLS-2005>
0

> <r_mmod_RMS_Derivative-OPLS-2005>
11.3263807296753

$$$$
31
                    3D
 Structure written by MMmdl.
194203  0  0  1  0            999 V2000
  -30.6512  -14.4861   20.5141 C   0  0  0  0  0  0
  -30.4363  -12.2946   19.4185 C   0  0  0  0  0  0
  -29.4973  -12.4739   18.2045 C   0  0  0  0  0  0
  -28.0123  -12.3659   18.6152 C   0  0  0  0  0  0
  -27.6597  -13.1942   19.8783 C   0  0  2  0  0  0
  -28.7072  -12.9652   20.9932 C   0  0  0  0  0  0
  -25.2594  -13.8142   20.5709 C   0  0  0  0  0  0
  -24.1825  -13.0428   20.9209 C   0  0  0  0  0  0
  -24.6363  -11.6886   20.8750 C   0  0  0  0  0  0
  -23.9019  -10.4281   21.0417 C   0  0  0  0  0  0
  -24.3587   -9.4201   21.9194 C   0  0  0  0  0  0
  -23.6285   -8.2219   22.0742 C   0  0  0  0  0  0
  -22.4276   -8.0254   21.3527 C   0  0  0  0  0  0
  -21.9889   -9.0225   20.4647 C   0  0  0  0  0  0
  -22.7192  -10.2111   20.3067 C   0  0  0  0  0  0
  -21.6835   -6.0734   22.5268 C   0  0  0  0  0  0
  -21.4014   -6.5650   23.8201 C   0  0  0  0  0  0
  -21.3634   -5.6792   24.9160 C   0  0  0  0  0  0
  -21.6040   -4.3059   24.7213 C   0  0  0  0  0  0
  -21.8834   -3.8154   23.4339 C   0  0  0  0  0  0
  -21.9180   -4.6965   22.3393 C   0  0  0  0  0  0
  -22.7852  -13.5239   21.1870 C   0  0  0  0  0  0
  -22.1638   -4.2157   21.0967 F   0  0  0  0  0  0
  -21.5632   -3.4543   25.7728 F   0  0  0  0  0  0
  -30.0377  -13.2752   20.4380 N   0  0  0  0  0  0
  -26.3004  -12.9260   20.3386 N   0  0  0  0  0  0
  -25.9283  -11.6446   20.5791 N   0  0  0  0  0  0
  -22.0487  -12.8217   22.0414 N   0  0  0  0  0  0
  -25.4342  -15.1857   20.4116 N   0  0  0  0  0  0
  -31.8123  -14.6836   20.1529 O   0  0  0  0  0  0
  -21.6631   -6.8855   21.4222 O   0  0  0  0  0  0
  -22.3540  -14.5552   20.6717 O   0  0  0  0  0  0
  -24.6169  -31.8664   23.2099 C   0  0  0  0  0  0
  -25.9081  -32.4804   23.8379 C   0  0  1  0  0  0
  -27.2468  -27.4358   20.1083 C   0  0  0  0  0  0
  -25.5948  -33.8601   24.2333 N   0  0  0  0  0  0
  -23.4020  -30.4902   21.5466 C   0  0  2  0  0  0
  -24.8510  -28.9472   20.1177 C   0  0  0  0  0  0
  -22.7394  -29.4682   22.4969 C   0  0  0  0  0  0
  -18.0272  -28.1393   22.8488 C   0  0  0  0  0  0
  -24.1481  -36.7296   23.2636 C   0  0  0  0  0  0
  -25.9290  -30.8332   21.3606 C   0  0  0  0  0  0
  -26.0069  -29.4658   20.7133 C   0  0  0  0  0  0
  -27.2026  -28.7161   20.7030 C   0  0  0  0  0  0
  -26.0735  -26.9280   19.5055 C   0  0  0  0  0  0
  -24.8788  -27.6768   19.5126 C   0  0  0  0  0  0
  -23.6138  -29.8171   20.1624 C   0  0  0  0  0  0
  -25.4099  -36.3098   24.0347 C   0  0  1  0  0  0
  -20.5858  -28.3693   23.1304 C   0  0  2  0  0  0
  -20.6773  -26.9435   22.5400 C   0  0  0  0  0  0
  -19.5762  -26.6406   21.5193 C   0  0  0  0  0  0
  -18.1930  -26.7948   22.1592 C   0  0  0  0  0  0
  -19.1516  -28.8856   23.2899 C   0  0  0  0  0  0
  -18.9452  -30.1460   23.8923 C   0  0  0  0  0  0
  -17.6459  -30.6609   24.0572 C   0  0  0  0  0  0
  -25.9041  -34.9466   23.5134 C   0  0  0  0  0  0
  -16.5349  -29.9112   23.6338 C   0  0  0  0  0  0
  -16.7261  -28.6521   23.0373 C   0  0  0  0  0  0
  -26.4524  -31.6581   25.0697 C   0  0  0  0  0  0
  -25.3800  -31.3681   26.1447 C   0  0  0  0  0  0
  -27.0367  -30.3024   24.6073 C   0  0  0  0  0  0
  -27.6088  -32.4293   25.7468 C   0  0  0  0  0  0
  -27.5575  -37.1799   24.8474 C   0  0  0  0  0  0
  -21.4120  -29.3058   22.3698 N   0  0  0  0  0  0
  -26.4281  -37.3784   23.9431 N   0  0  0  0  0  0
  -24.6669  -31.0784   22.0980 N   0  0  0  0  0  0
  -23.4158  -28.8248   23.3037 O   0  0  0  0  0  0
  -28.4542  -26.7649   20.1338 O   0  0  0  0  0  0
  -26.5556  -34.8936   22.4669 O   0  0  0  0  0  0
  -23.5365  -32.1406   23.7512 O   0  0  0  0  0  0
  -30.4471  -17.9027   21.3087 C   0  0  0  0  0  0
  -32.6249  -22.7507   21.9039 C   0  0  0  0  0  0
  -30.2438  -18.5195   24.8545 C   0  0  0  0  0  0
  -28.7908  -17.5394   23.1602 C   0  0  0  0  0  0
  -32.1212  -21.3129   21.9749 C   0  0  0  0  0  0
  -29.1701  -17.4440   24.6395 C   0  0  1  0  0  0
  -31.4493  -23.4775   21.2874 C   0  0  2  0  0  0
  -30.5573  -19.1319   23.4759 C   0  0  2  0  0  0
  -30.2465  -22.8040   21.9678 C   0  0  1  0  0  0
  -29.6801  -16.0411   25.0080 C   0  0  0  0  0  0
  -28.6258  -20.8348   23.5890 C   0  0  0  0  0  0
  -31.2081  -16.8660   18.1656 C   0  0  0  0  0  0
  -28.7106  -16.5352   18.0311 C   0  0  0  0  0  0
  -26.7332  -24.3303   21.4691 C   0  0  0  0  0  0
  -28.7451  -25.3037   22.5522 C   0  0  0  0  0  0
  -28.8999  -23.0798   21.2135 C   0  0  0  0  0  0
  -28.5443  -25.3366   20.0029 C   0  0  0  0  0  0
  -29.7396  -16.8941   20.3748 C   0  0  2  0  0  0
  -30.1476  -20.6539   23.3662 C   0  0  2  0  0  0
  -29.8552  -17.1735   18.8365 C   0  0  0  0  0  0
  -28.2584  -24.5199   21.3093 C   0  0  0  0  0  0
  -29.9064  -18.2297   22.5087 N   0  0  0  0  0  0
  -29.7940  -15.4792   20.7964 N   0  0  0  0  0  0
  -30.6349  -21.3549   22.1216 N   0  3  2  0  0  0
  -31.4899  -18.4326   20.9254 O   0  0  0  0  0  0
  -31.4421  -23.2316   19.9735 F   0  0  0  0  0  0
  -31.4761  -12.4186   19.1094 H   0  0  0  0  0  0
  -30.3625  -11.2805   19.8167 H   0  0  0  0  0  0
  -29.7210  -11.7187   17.4498 H   0  0  0  0  0  0
  -29.6887  -13.4341   17.7273 H   0  0  0  0  0  0
  -27.7961  -11.3127   18.7969 H   0  0  0  0  0  0
  -27.3720  -12.6651   17.7852 H   0  0  0  0  0  0
  -27.6914  -14.2421   19.5899 H   0  0  0  0  0  0
  -28.6841  -11.9274   21.3290 H   0  0  0  0  0  0
  -28.4774  -13.5629   21.8771 H   0  0  0  0  0  0
  -25.2722   -9.5694   22.4776 H   0  0  0  0  0  0
  -24.0010   -7.4615   22.7463 H   0  0  0  0  0  0
  -21.0808   -8.8725   19.8964 H   0  0  0  0  0  0
  -22.3637  -10.9645   19.6180 H   0  0  0  0  0  0
  -21.2042   -7.6162   23.9715 H   0  0  0  0  0  0
  -21.1416   -6.0517   25.9054 H   0  0  0  0  0  0
  -22.0653   -2.7628   23.2828 H   0  0  0  0  0  0
  -22.4097  -11.9873   22.4806 H   0  0  0  0  0  0
  -21.1109  -13.1246   22.2637 H   0  0  0  0  0  0
  -24.6621  -15.8358   20.5150 H   0  0  0  0  0  0
  -26.2605  -15.6134   20.0137 H   0  0  0  0  0  0
  -26.7167  -32.5539   23.1152 H   0  0  0  0  0  0
  -25.0215  -33.9740   25.0559 H   0  0  0  0  0  0
  -22.6914  -31.3073   21.4035 H   0  0  0  0  0  0
  -23.3746  -35.9627   23.3308 H   0  0  0  0  0  0
  -24.3580  -36.8887   22.2051 H   0  0  0  0  0  0
  -23.7233  -37.6509   23.6631 H   0  0  0  0  0  0
  -26.0383  -31.5974   20.5899 H   0  0  0  0  0  0
  -26.8196  -30.8908   21.9748 H   0  0  0  0  0  0
  -28.0974  -29.1105   21.1643 H   0  0  0  0  0  0
  -26.0629  -25.9590   19.0304 H   0  0  0  0  0  0
  -23.9898  -27.2663   19.0535 H   0  0  0  0  0  0
  -23.7316  -30.5906   19.4024 H   0  0  0  0  0  0
  -22.7371  -29.2400   19.8620 H   0  0  0  0  0  0
  -25.1270  -36.1950   25.0836 H   0  0  0  0  0  0
  -20.9946  -28.3286   24.1427 H   0  0  0  0  0  0
  -20.5684  -26.2299   23.3577 H   0  0  0  0  0  0
  -21.6650  -26.7498   22.1194 H   0  0  0  0  0  0
  -19.6929  -25.6311   21.1247 H   0  0  0  0  0  0
  -19.6734  -27.3192   20.6711 H   0  0  0  0  0  0
  -17.4201  -26.6706   21.3998 H   0  0  0  0  0  0
  -18.0347  -26.0066   22.8965 H   0  0  0  0  0  0
  -19.7938  -30.7259   24.2299 H   0  0  0  0  0  0
  -17.5038  -31.6299   24.5166 H   0  0  0  0  0  0
  -15.5363  -30.3042   23.7669 H   0  0  0  0  0  0
  -15.8642  -28.0861   22.7105 H   0  0  0  0  0  0
  -24.5986  -30.7001   25.7811 H   0  0  0  0  0  0
  -24.8978  -32.2829   26.4900 H   0  0  0  0  0  0
  -25.8175  -30.8869   27.0199 H   0  0  0  0  0  0
  -26.2906  -29.6724   24.1206 H   0  0  0  0  0  0
  -27.4241  -29.7321   25.4532 H   0  0  0  0  0  0
  -27.8699  -30.4355   23.9160 H   0  0  0  0  0  0
  -27.2718  -33.3591   26.2067 H   0  0  0  0  0  0
  -28.3904  -32.6840   25.0296 H   0  0  0  0  0  0
  -28.0750  -31.8387   26.5365 H   0  0  0  0  0  0
  -28.2593  -38.0093   24.7504 H   0  0  0  0  0  0
  -28.1056  -36.2615   24.6302 H   0  0  0  0  0  0
  -27.2288  -37.1473   25.8876 H   0  0  0  0  0  0
  -20.9270  -29.8730   21.6877 H   0  0  0  0  0  0
  -26.0164  -38.2855   24.1447 H   0  0  0  0  0  0
  -33.5481  -22.8507   21.3323 H   0  0  0  0  0  0
  -32.8075  -23.1266   22.9115 H   0  0  0  0  0  0
  -31.1496  -18.0810   25.2751 H   0  0  0  0  0  0
  -29.9156  -19.2648   25.5803 H   0  0  0  0  0  0
  -27.8836  -18.1296   23.0277 H   0  0  0  0  0  0
  -28.5656  -16.5508   22.7646 H   0  0  0  0  0  0
  -32.6442  -20.7929   22.7764 H   0  0  0  0  0  0
  -32.3608  -20.8006   21.0434 H   0  0  0  0  0  0
  -28.2934  -17.6649   25.2508 H   0  0  0  0  0  0
  -31.4979  -24.5565   21.4265 H   0  0  0  0  0  0
  -31.6371  -19.0304   23.3673 H   0  0  0  0  0  0
  -30.1938  -23.1972   22.9832 H   0  0  0  0  0  0
  -30.5458  -15.7607   24.4061 H   0  0  0  0  0  0
  -28.9113  -15.2833   24.8517 H   0  0  0  0  0  0
  -29.9771  -15.9952   26.0559 H   0  0  0  0  0  0
  -28.2668  -20.3090   24.4723 H   0  0  0  0  0  0
  -28.0500  -20.4588   22.7452 H   0  0  0  0  0  0
  -28.3580  -21.8770   23.7537 H   0  0  0  0  0  0
  -31.2886  -17.3815   17.2083 H   0  0  0  0  0  0
  -31.3273  -15.8027   17.9601 H   0  0  0  0  0  0
  -32.0556  -17.1893   18.7697 H   0  0  0  0  0  0
  -28.7696  -16.8133   16.9786 H   0  0  0  0  0  0
  -27.7299  -16.8472   18.3933 H   0  0  0  0  0  0
  -28.7556  -15.4507   18.0738 H   0  0  0  0  0  0
  -26.4954  -23.6759   22.3095 H   0  0  0  0  0  0
  -26.2901  -23.8837   20.5785 H   0  0  0  0  0  0
  -26.2208  -25.2729   21.6604 H   0  0  0  0  0  0
  -28.5445  -24.7601   23.4764 H   0  0  0  0  0  0
  -28.2351  -26.2635   22.6404 H   0  0  0  0  0  0
  -29.8083  -25.5339   22.5169 H   0  0  0  0  0  0
  -28.1660  -22.3593   21.5581 H   0  0  0  0  0  0
  -29.0105  -22.8091   20.1625 H   0  0  0  0  0  0
  -27.9680  -24.9648   19.1556 H   0  0  0  0  0  0
  -29.5805  -25.1583   19.7149 H   0  0  0  0  0  0
  -28.6895  -17.1305   20.5510 H   0  0  0  0  0  0
  -30.6420  -21.1621   24.1974 H   0  0  0  0  0  0
  -29.7213  -18.2519   18.7259 H   0  0  0  0  0  0
  -28.9203  -15.1341   21.1640 H   0  0  0  0  0  0
  -30.2755  -20.8600   21.3195 H   0  0  0  0  0  0
  1 25  1  0  0  0
  1 30  2  0  0  0
  1 93  1  0  0  0
  2  3  1  0  0  0
  2 25  1  0  0  0
  2 97  1  0  0  0
  2 98  1  0  0  0
  3  4  1  0  0  0
  3 99  1  0  0  0
  3100  1  0  0  0
  4  5  1  0  0  0
  4101  1  0  0  0
  4102  1  0  0  0
  5  6  1  0  0  0
  5 26  1  0  0  0
  5103  1  0  0  0
  6 25  1  0  0  0
  6104  1  0  0  0
  6105  1  0  0  0
  7  8  2  0  0  0
  7 26  1  0  0  0
  7 29  1  0  0  0
  8  9  1  0  0  0
  8 22  1  0  0  0
  9 10  1  0  0  0
  9 27  2  0  0  0
 10 11  2  0  0  0
 10 15  1  0  0  0
 11 12  1  0  0  0
 11106  1  0  0  0
 12 13  2  0  0  0
 12107  1  0  0  0
 13 14  1  0  0  0
 13 31  1  0  0  0
 14 15  2  0  0  0
 14108  1  0  0  0
 15109  1  0  0  0
 16 17  2  0  0  0
 16 21  1  0  0  0
 16 31  1  0  0  0
 17 18  1  0  0  0
 17110  1  0  0  0
 18 19  2  0  0  0
 18111  1  0  0  0
 19 20  1  0  0  0
 19 24  1  0  0  0
 20 21  2  0  0  0
 20112  1  0  0  0
 21 23  1  0  0  0
 22 28  1  0  0  0
 22 32  2  0  0  0
 26 27  1  0  0  0
 28113  1  0  0  0
 28114  1  0  0  0
 29115  1  0  0  0
 29116  1  0  0  0
 33 34  1  0  0  0
 33 66  1  0  0  0
 33 70  2  0  0  0
 34 36  1  0  0  0
 34 59  1  0  0  0
 34117  1  0  0  0
 35 44  2  0  0  0
 35 45  1  0  0  0
 35 68  1  0  0  0
 36 56  1  0  0  0
 36118  1  0  0  0
 37 39  1  0  0  0
 37 47  1  0  0  0
 37 66  1  0  0  0
 37119  1  0  0  0
 38 43  2  0  0  0
 38 46  1  0  0  0
 38 47  1  0  0  0
 39 64  1  0  0  0
 39 67  2  0  0  0
 40 52  1  0  0  0
 40 53  2  0  0  0
 40 58  1  0  0  0
 41120  1  0  0  0
 41121  1  0  0  0
 41122  1  0  0  0
 41 48  1  0  0  0
 42 43  1  0  0  0
 42 66  1  0  0  0
 42123  1  0  0  0
 42124  1  0  0  0
 43 44  1  0  0  0
 44125  1  0  0  0
 45 46  2  0  0  0
 45126  1  0  0  0
 46127  1  0  0  0
 47128  1  0  0  0
 47129  1  0  0  0
 48 56  1  0  0  0
 48 65  1  0  0  0
 48130  1  0  0  0
 49 50  1  0  0  0
 49 53  1  0  0  0
 49 64  1  0  0  0
 49131  1  0  0  0
 50 51  1  0  0  0
 50132  1  0  0  0
 50133  1  0  0  0
 51 52  1  0  0  0
 51134  1  0  0  0
 51135  1  0  0  0
 52136  1  0  0  0
 52137  1  0  0  0
 53 54  1  0  0  0
 54 55  2  0  0  0
 54138  1  0  0  0
 55 57  1  0  0  0
 55139  1  0  0  0
 56 69  2  0  0  0
 57 58  2  0  0  0
 57140  1  0  0  0
 58141  1  0  0  0
 59 60  1  0  0  0
 59 61  1  0  0  0
 59 62  1  0  0  0
 60142  1  0  0  0
 60143  1  0  0  0
 60144  1  0  0  0
 61145  1  0  0  0
 61146  1  0  0  0
 61147  1  0  0  0
 62148  1  0  0  0
 62149  1  0  0  0
 62150  1  0  0  0
 63 65  1  0  0  0
 63151  1  0  0  0
 63152  1  0  0  0
 63153  1  0  0  0
 64154  1  0  0  0
 65155  1  0  0  0
 68 87  1  0  0  0
 71 88  1  0  0  0
 71 92  1  0  0  0
 71 95  2  0  0  0
 72 75  1  0  0  0
 72 77  1  0  0  0
 72156  1  0  0  0
 72157  1  0  0  0
 73 76  1  0  0  0
 73158  1  0  0  0
 73159  1  0  0  0
 73 78  1  0  0  0
 74 76  1  0  0  0
 74 92  1  0  0  0
 74160  1  0  0  0
 74161  1  0  0  0
 75162  1  0  0  0
 75163  1  0  0  0
 75 94  1  0  0  0
 76 80  1  0  0  0
 76164  1  0  0  0
 77 79  1  0  0  0
 77 96  1  0  0  0
 77165  1  0  0  0
 78 89  1  0  0  0
 78 92  1  0  0  0
 78166  1  0  0  0
 79 86  1  0  0  0
 79 94  1  0  0  0
 79167  1  0  0  0
 80168  1  0  0  0
 80169  1  0  0  0
 80170  1  0  0  0
 81171  1  0  0  0
 81172  1  0  0  0
 81173  1  0  0  0
 81 89  1  0  0  0
 82174  1  0  0  0
 82175  1  0  0  0
 82176  1  0  0  0
 82 90  1  0  0  0
 83 90  1  0  0  0
 83177  1  0  0  0
 83178  1  0  0  0
 83179  1  0  0  0
 84180  1  0  0  0
 84181  1  0  0  0
 84182  1  0  0  0
 84 91  1  0  0  0
 85 91  1  0  0  0
 85183  1  0  0  0
 85184  1  0  0  0
 85185  1  0  0  0
 86 91  1  0  0  0
 86186  1  0  0  0
 86187  1  0  0  0
 87 91  1  0  0  0
 87188  1  0  0  0
 87189  1  0  0  0
 88 90  1  0  0  0
 88 93  1  0  0  0
 88190  1  0  0  0
 89 94  1  0  0  0
 89191  1  0  0  0
 90192  1  0  0  0
 93193  1  0  0  0
 94194  1  0  0  0
M  CHG  1  94   1
M  ISO  4   1 100  68 101  87 101  93 100
M  END
> <chiral flag>
0

> <version>
0

> <s_m_source_file>
/data/baiqing/PycharmProjects/Reinvent-master-3.2/result/LINK_invent/BTK/process_docking_weight1_custom_sum_contain_oxygen_bond_distance_aromatic_linkinvent_7_9_3/rearranged_h_0023.sdf

> <i_m_source_file_index>
32

> <r_mmod_Potential_Energy-OPLS-2005>
115.892868041992

> <r_mmod_Stretch_Energy-OPLS-2005>
53.049388885498

> <r_mmod_Bend_Energy-OPLS-2005>
208.332336425781

> <r_mmod_Torsional_Energy-OPLS-2005>
465.164916992188

> <r_mmod_Improper_Torsional_Energy-OPLS-2005>
7.14147710800171

> <r_mmod_Van_der_Waal_Energy-OPLS-2005>
133.802947998047

> <r_mmod_Electrostatic_Energy-OPLS-2005>
-355.670928955078

> <r_mmod_Solvation_Energy-OPLS-2005>
-412.166748046875

> <b_mmod_Minimization_Converged-OPLS-2005>
0

> <r_mmod_RMS_Derivative-OPLS-2005>
2.54827070236206

$$$$
32
                    3D
 Structure written by MMmdl.
147155  0  0  1  0            999 V2000
  -30.4080  -15.3273   20.3530 C   0  0  0  0  0  0
  -30.4363  -12.8461   19.5455 C   0  0  0  0  0  0
  -29.5417  -12.5909   18.3040 C   0  0  0  0  0  0
  -28.0912  -12.3043   18.7271 C   0  0  0  0  0  0
  -27.6101  -13.2822   19.8270 C   0  0  2  0  0  0
  -28.6376  -13.4780   20.9644 C   0  0  0  0  0  0
  -25.2370  -13.8261   20.5749 C   0  0  0  0  0  0
  -24.1733  -13.0440   20.9263 C   0  0  0  0  0  0
  -24.6399  -11.6940   20.8768 C   0  0  0  0  0  0
  -23.9096  -10.4295   21.0408 C   0  0  0  0  0  0
  -24.3639   -9.4209   21.9186 C   0  0  0  0  0  0
  -23.6305   -8.2248   22.0754 C   0  0  0  0  0  0
  -22.4286   -8.0285   21.3545 C   0  0  0  0  0  0
  -21.9933   -9.0260   20.4647 C   0  0  0  0  0  0
  -22.7269  -10.2135   20.3056 C   0  0  0  0  0  0
  -21.6855   -6.0739   22.5277 C   0  0  0  0  0  0
  -21.4017   -6.5643   23.8211 C   0  0  0  0  0  0
  -21.3660   -5.6795   24.9173 C   0  0  0  0  0  0
  -21.6041   -4.3057   24.7224 C   0  0  0  0  0  0
  -21.8819   -3.8149   23.4346 C   0  0  0  0  0  0
  -21.9194   -4.6966   22.3402 C   0  0  0  0  0  0
  -22.7749  -13.5186   21.1905 C   0  0  0  0  0  0
  -22.1662   -4.2153   21.0979 F   0  0  0  0  0  0
  -21.5629   -3.4539   25.7736 F   0  0  0  0  0  0
  -29.8670  -14.0013   20.3440 N   0  0  0  0  0  0
  -26.2804  -12.9548   20.3234 N   0  0  0  0  0  0
  -25.9338  -11.6646   20.5731 N   0  0  0  0  0  0
  -22.0411  -12.8162   22.0458 N   0  0  0  0  0  0
  -25.3996  -15.1997   20.4168 N   0  0  0  0  0  0
  -31.6182  -15.3280   20.0803 O   0  0  0  0  0  0
  -21.6646   -6.8884   21.4240 O   0  0  0  0  0  0
  -22.3428  -14.5487   20.6745 O   0  0  0  0  0  0
  -24.6665  -31.8185   23.1663 C   0  0  0  0  0  0
  -25.9328  -32.4561   23.8141 C   0  0  1  0  0  0
  -27.2193  -26.8837   20.1865 C   0  0  0  0  0  0
  -25.5982  -33.8379   24.2047 N   0  0  0  0  0  0
  -23.4836  -30.4284   21.5153 C   0  0  2  0  0  0
  -24.9395  -28.8087   20.1070 C   0  0  0  0  0  0
  -22.7687  -29.4411   22.4752 C   0  0  0  0  0  0
  -18.0327  -28.1418   22.8462 C   0  0  0  0  0  0
  -24.1489  -36.7189   23.2649 C   0  0  0  0  0  0
  -26.0548  -30.6095   21.4050 C   0  0  0  0  0  0
  -26.1218  -29.1951   20.7499 C   0  0  0  0  0  0
  -27.2512  -28.2519   20.7694 C   0  0  0  0  0  0
  -26.0143  -26.6680   19.4783 C   0  0  0  0  0  0
  -24.9144  -27.5672   19.4505 C   0  0  0  0  0  0
  -23.7265  -29.7407   20.1423 C   0  0  0  0  0  0
  -25.4131  -36.2950   24.0299 C   0  0  1  0  0  0
  -20.5953  -28.3762   23.1180 C   0  0  2  0  0  0
  -20.6797  -26.9436   22.5407 C   0  0  0  0  0  0
  -19.5773  -26.6382   21.5218 C   0  0  0  0  0  0
  -18.1954  -26.7950   22.1622 C   0  0  0  0  0  0
  -19.1590  -28.8910   23.2807 C   0  0  0  0  0  0
  -18.9504  -30.1497   23.8846 C   0  0  0  0  0  0
  -17.6498  -30.6604   24.0557 C   0  0  0  0  0  0
  -25.9107  -34.9336   23.4997 C   0  0  0  0  0  0
  -16.5385  -29.9094   23.6347 C   0  0  0  0  0  0
  -16.7311  -28.6516   23.0364 C   0  0  0  0  0  0
  -26.4568  -31.6524   25.0689 C   0  0  0  0  0  0
  -25.3680  -31.3793   26.1335 C   0  0  0  0  0  0
  -27.0471  -30.2881   24.6462 C   0  0  0  0  0  0
  -27.6052  -32.4343   25.7492 C   0  0  0  0  0  0
  -27.5561  -37.1749   24.8470 C   0  0  0  0  0  0
  -21.4350  -29.3038   22.3509 N   0  0  0  0  0  0
  -26.4270  -37.3694   23.9414 N   0  0  0  0  0  0
  -24.7566  -30.9806   22.0821 N   0  0  0  0  0  0
  -23.4210  -28.7991   23.3020 O   0  0  0  0  0  0
  -28.1974  -25.7467   20.3175 O   0  0  0  0  0  0
  -26.5723  -34.8880   22.4596 O   0  0  0  0  0  0
  -23.5725  -32.1184   23.6728 O   0  0  0  0  0  0
  -28.9129  -21.2351   22.6157 C   0  0  0  0  0  0
  -29.2333  -19.8241   20.5895 C   0  0  0  0  0  0
  -28.6003  -22.5862   20.5400 C   0  0  0  0  0  0
  -29.1920  -19.9887   21.9901 C   0  0  0  0  0  0
  -28.6330  -22.4630   21.9508 C   0  0  0  0  0  0
  -28.9157  -21.1934   19.9110 C   0  0  0  0  0  0
  -29.7416  -18.2323   19.9926 C   0  0  0  0  0  0
  -28.0524  -24.1390   19.8777 C   0  0  0  0  0  0
  -29.6353  -16.6063   20.4680 N   0  0  0  0  0  0
  -29.4526  -18.9189   22.7795 F   0  0  0  0  0  0
  -28.2822  -23.8383   22.9379 Cl  0  0  0  0  0  0
  -28.9038  -21.1584   18.1850 Cl  0  0  0  0  0  0
  -31.4554  -13.0504   19.2150 H   0  0  0  0  0  0
  -30.5091  -11.9476   20.1609 H   0  0  0  0  0  0
  -29.9329  -11.7605   17.7149 H   0  0  0  0  0  0
  -29.5656  -13.4674   17.6550 H   0  0  0  0  0  0
  -28.0539  -11.2822   19.1057 H   0  0  0  0  0  0
  -27.4248  -12.3354   17.8642 H   0  0  0  0  0  0
  -27.5201  -14.2443   19.3208 H   0  0  0  0  0  0
  -28.8147  -12.5495   21.5095 H   0  0  0  0  0  0
  -28.2633  -14.1991   21.6928 H   0  0  0  0  0  0
  -25.2780   -9.5684   22.4769 H   0  0  0  0  0  0
  -24.0007   -7.4641   22.7480 H   0  0  0  0  0  0
  -21.0862   -8.8786   19.8954 H   0  0  0  0  0  0
  -22.3726  -10.9676   19.6170 H   0  0  0  0  0  0
  -21.2009   -7.6151   23.9715 H   0  0  0  0  0  0
  -21.1481   -6.0524   25.9075 H   0  0  0  0  0  0
  -22.0598   -2.7611   23.2844 H   0  0  0  0  0  0
  -22.4043  -11.9826   22.4839 H   0  0  0  0  0  0
  -21.1025  -13.1171   22.2674 H   0  0  0  0  0  0
  -24.6248  -15.8458   20.5202 H   0  0  0  0  0  0
  -26.2323  -15.6381   20.0460 H   0  0  0  0  0  0
  -26.7392  -32.5083   23.0846 H   0  0  0  0  0  0
  -25.0081  -33.9450   25.0166 H   0  0  0  0  0  0
  -22.7993  -31.2614   21.3401 H   0  0  0  0  0  0
  -23.3766  -35.9504   23.3288 H   0  0  0  0  0  0
  -24.3561  -36.8862   22.2067 H   0  0  0  0  0  0
  -23.7231  -37.6364   23.6723 H   0  0  0  0  0  0
  -26.2406  -31.3474   20.6234 H   0  0  0  0  0  0
  -26.9129  -30.6673   22.0623 H   0  0  0  0  0  0
  -28.1377  -28.5409   21.3161 H   0  0  0  0  0  0
  -25.8770  -25.7247   18.9718 H   0  0  0  0  0  0
  -24.0184  -27.2668   18.9248 H   0  0  0  0  0  0
  -23.8848  -30.5085   19.3841 H   0  0  0  0  0  0
  -22.8353  -29.1977   19.8228 H   0  0  0  0  0  0
  -25.1328  -36.1739   25.0790 H   0  0  0  0  0  0
  -21.0044  -28.3377   24.1305 H   0  0  0  0  0  0
  -20.5673  -26.2380   23.3654 H   0  0  0  0  0  0
  -21.6659  -26.7405   22.1214 H   0  0  0  0  0  0
  -19.6933  -25.6283   21.1277 H   0  0  0  0  0  0
  -19.6717  -27.3166   20.6726 H   0  0  0  0  0  0
  -17.4223  -26.6699   21.4026 H   0  0  0  0  0  0
  -18.0340  -26.0109   22.9034 H   0  0  0  0  0  0
  -19.7982  -30.7324   24.2193 H   0  0  0  0  0  0
  -17.5055  -31.6279   24.5168 H   0  0  0  0  0  0
  -15.5384  -30.2982   23.7704 H   0  0  0  0  0  0
  -15.8710  -28.0820   22.7108 H   0  0  0  0  0  0
  -24.5904  -30.7092   25.7652 H   0  0  0  0  0  0
  -24.8821  -32.2998   26.4583 H   0  0  0  0  0  0
  -25.7905  -30.9094   27.0224 H   0  0  0  0  0  0
  -26.3152  -29.6542   24.1447 H   0  0  0  0  0  0
  -27.3959  -29.7266   25.5139 H   0  0  0  0  0  0
  -27.9109  -30.4049   23.9914 H   0  0  0  0  0  0
  -27.2628  -33.3718   26.1886 H   0  0  0  0  0  0
  -28.3957  -32.6779   25.0382 H   0  0  0  0  0  0
  -28.0607  -31.8585   26.5559 H   0  0  0  0  0  0
  -28.2558  -38.0061   24.7511 H   0  0  0  0  0  0
  -28.1074  -36.2585   24.6305 H   0  0  0  0  0  0
  -27.2276  -37.1397   25.8872 H   0  0  0  0  0  0
  -20.9613  -29.8731   21.6633 H   0  0  0  0  0  0
  -26.0115  -38.2750   24.1432 H   0  0  0  0  0  0
  -28.9098  -21.2458   23.6953 H   0  0  0  0  0  0
  -30.8102  -18.3697   19.8279 H   0  0  0  0  0  0
  -29.3293  -18.2132   18.9837 H   0  0  0  0  0  0
  -26.9772  -23.9809   19.8087 H   0  0  0  0  0  0
  -28.3884  -24.1197   18.8407 H   0  0  0  0  0  0
  -28.6957  -16.3967   20.7717 H   0  0  0  0  0  0
  1 25  1  0  0  0
  1 30  2  0  0  0
  1 79  1  0  0  0
  2  3  1  0  0  0
  2 25  1  0  0  0
  2 83  1  0  0  0
  2 84  1  0  0  0
  3  4  1  0  0  0
  3 85  1  0  0  0
  3 86  1  0  0  0
  4  5  1  0  0  0
  4 87  1  0  0  0
  4 88  1  0  0  0
  5  6  1  0  0  0
  5 26  1  0  0  0
  5 89  1  0  0  0
  6 25  1  0  0  0
  6 90  1  0  0  0
  6 91  1  0  0  0
  7  8  2  0  0  0
  7 26  1  0  0  0
  7 29  1  0  0  0
  8  9  1  0  0  0
  8 22  1  0  0  0
  9 10  1  0  0  0
  9 27  2  0  0  0
 10 11  2  0  0  0
 10 15  1  0  0  0
 11 12  1  0  0  0
 11 92  1  0  0  0
 12 13  2  0  0  0
 12 93  1  0  0  0
 13 14  1  0  0  0
 13 31  1  0  0  0
 14 15  2  0  0  0
 14 94  1  0  0  0
 15 95  1  0  0  0
 16 17  2  0  0  0
 16 21  1  0  0  0
 16 31  1  0  0  0
 17 18  1  0  0  0
 17 96  1  0  0  0
 18 19  2  0  0  0
 18 97  1  0  0  0
 19 20  1  0  0  0
 19 24  1  0  0  0
 20 21  2  0  0  0
 20 98  1  0  0  0
 21 23  1  0  0  0
 22 28  1  0  0  0
 22 32  2  0  0  0
 26 27  1  0  0  0
 28 99  1  0  0  0
 28100  1  0  0  0
 29101  1  0  0  0
 29102  1  0  0  0
 33 34  1  0  0  0
 33 66  1  0  0  0
 33 70  2  0  0  0
 34 36  1  0  0  0
 34 59  1  0  0  0
 34103  1  0  0  0
 35 44  2  0  0  0
 35 45  1  0  0  0
 35 68  1  0  0  0
 36 56  1  0  0  0
 36104  1  0  0  0
 37 39  1  0  0  0
 37 47  1  0  0  0
 37 66  1  0  0  0
 37105  1  0  0  0
 38 43  2  0  0  0
 38 46  1  0  0  0
 38 47  1  0  0  0
 39 64  1  0  0  0
 39 67  2  0  0  0
 40 52  1  0  0  0
 40 53  2  0  0  0
 40 58  1  0  0  0
 41106  1  0  0  0
 41107  1  0  0  0
 41108  1  0  0  0
 41 48  1  0  0  0
 42 43  1  0  0  0
 42 66  1  0  0  0
 42109  1  0  0  0
 42110  1  0  0  0
 43 44  1  0  0  0
 44111  1  0  0  0
 45 46  2  0  0  0
 45112  1  0  0  0
 46113  1  0  0  0
 47114  1  0  0  0
 47115  1  0  0  0
 48 56  1  0  0  0
 48 65  1  0  0  0
 48116  1  0  0  0
 49 50  1  0  0  0
 49 53  1  0  0  0
 49 64  1  0  0  0
 49117  1  0  0  0
 50 51  1  0  0  0
 50118  1  0  0  0
 50119  1  0  0  0
 51 52  1  0  0  0
 51120  1  0  0  0
 51121  1  0  0  0
 52122  1  0  0  0
 52123  1  0  0  0
 53 54  1  0  0  0
 54 55  2  0  0  0
 54124  1  0  0  0
 55 57  1  0  0  0
 55125  1  0  0  0
 56 69  2  0  0  0
 57 58  2  0  0  0
 57126  1  0  0  0
 58127  1  0  0  0
 59 60  1  0  0  0
 59 61  1  0  0  0
 59 62  1  0  0  0
 60128  1  0  0  0
 60129  1  0  0  0
 60130  1  0  0  0
 61131  1  0  0  0
 61132  1  0  0  0
 61133  1  0  0  0
 62134  1  0  0  0
 62135  1  0  0  0
 62136  1  0  0  0
 63 65  1  0  0  0
 63137  1  0  0  0
 63138  1  0  0  0
 63139  1  0  0  0
 64140  1  0  0  0
 65141  1  0  0  0
 68 78  1  0  0  0
 71 74  2  0  0  0
 71 75  1  0  0  0
 71142  1  0  0  0
 72 74  1  0  0  0
 72 76  2  0  0  0
 72 77  1  0  0  0
 73 75  2  0  0  0
 73 76  1  0  0  0
 73 78  1  0  0  0
 74 80  1  0  0  0
 75 81  1  0  0  0
 76 82  1  0  0  0
 77 79  1  0  0  0
 77143  1  0  0  0
 77144  1  0  0  0
 78145  1  0  0  0
 78146  1  0  0  0
 79147  1  0  0  0
M  ISO  4   1 100  68 101  78 101  79 100
M  END
> <chiral flag>
0

> <version>
0

> <s_m_source_file>
/data/baiqing/PycharmProjects/Reinvent-master-3.2/result/LINK_invent/BTK/process_docking_weight1_custom_sum_contain_oxygen_bond_distance_aromatic_linkinvent_7_9_3/rearranged_h_0023.sdf

> <i_m_source_file_index>
33

> <r_mmod_Potential_Energy-OPLS-2005>
1381.15246582031

> <r_mmod_Stretch_Energy-OPLS-2005>
650.860168457031

> <r_mmod_Bend_Energy-OPLS-2005>
441.346527099609

> <r_mmod_Torsional_Energy-OPLS-2005>
217.343856811523

> <r_mmod_Improper_Torsional_Energy-OPLS-2005>
5.9295711517334

> <r_mmod_Van_der_Waal_Energy-OPLS-2005>
120.460235595703

> <r_mmod_Electrostatic_Energy-OPLS-2005>
-368.5146484375

> <r_mmod_Solvation_Energy-OPLS-2005>
-216.983642578125

> <b_mmod_Minimization_Converged-OPLS-2005>
0

> <r_mmod_RMS_Derivative-OPLS-2005>
0.722080111503601

$$$$
33
                    3D
 Structure written by MMmdl.
180188  0  0  1  0            999 V2000
  -30.8492  -14.2461   20.7233 C   0  0  0  0  0  0
  -30.4040  -12.2540   19.3604 C   0  0  0  0  0  0
  -29.4684  -12.5328   18.1745 C   0  0  0  0  0  0
  -27.9989  -12.3886   18.6036 C   0  0  0  0  0  0
  -27.6724  -13.2030   19.8821 C   0  0  2  0  0  0
  -28.7155  -12.9382   20.9923 C   0  0  0  0  0  0
  -25.2636  -13.8164   20.5690 C   0  0  0  0  0  0
  -24.1874  -13.0457   20.9163 C   0  0  0  0  0  0
  -24.6416  -11.6913   20.8732 C   0  0  0  0  0  0
  -23.9068  -10.4298   21.0398 C   0  0  0  0  0  0
  -24.3616   -9.4211   21.9175 C   0  0  0  0  0  0
  -23.6291   -8.2250   22.0753 C   0  0  0  0  0  0
  -22.4277   -8.0282   21.3544 C   0  0  0  0  0  0
  -21.9906   -9.0257   20.4648 C   0  0  0  0  0  0
  -22.7238  -10.2137   20.3051 C   0  0  0  0  0  0
  -21.6852   -6.0734   22.5278 C   0  0  0  0  0  0
  -21.4015   -6.5638   23.8207 C   0  0  0  0  0  0
  -21.3662   -5.6794   24.9171 C   0  0  0  0  0  0
  -21.6041   -4.3053   24.7225 C   0  0  0  0  0  0
  -21.8822   -3.8147   23.4345 C   0  0  0  0  0  0
  -21.9194   -4.6965   22.3401 C   0  0  0  0  0  0
  -22.7888  -13.5244   21.1825 C   0  0  0  0  0  0
  -22.1661   -4.2148   21.0978 F   0  0  0  0  0  0
  -21.5629   -3.4537   25.7736 F   0  0  0  0  0  0
  -30.0698  -13.1723   20.4542 N   0  0  0  0  0  0
  -26.3099  -12.9340   20.3429 N   0  0  0  0  0  0
  -25.9345  -11.6495   20.5775 N   0  0  0  0  0  0
  -22.0525  -12.8242   22.0384 N   0  0  0  0  0  0
  -25.4360  -15.1881   20.4078 N   0  0  0  0  0  0
  -31.7470  -14.6470   19.9801 O   0  0  0  0  0  0
  -21.6643   -6.8887   21.4240 O   0  0  0  0  0  0
  -22.3573  -14.5558   20.6680 O   0  0  0  0  0  0
  -24.6076  -31.8716   23.2113 C   0  0  0  0  0  0
  -25.9012  -32.4818   23.8400 C   0  0  1  0  0  0
  -27.2264  -27.4843   20.0870 C   0  0  0  0  0  0
  -25.5871  -33.8615   24.2335 N   0  0  0  0  0  0
  -23.3952  -30.4948   21.5507 C   0  0  2  0  0  0
  -24.8412  -28.9727   20.1003 C   0  0  0  0  0  0
  -22.7379  -29.4681   22.5009 C   0  0  0  0  0  0
  -18.0266  -28.1364   22.8471 C   0  0  0  0  0  0
  -24.1479  -36.7334   23.2649 C   0  0  0  0  0  0
  -25.9163  -30.8499   21.3577 C   0  0  0  0  0  0
  -25.9946  -29.4904   20.7022 C   0  0  0  0  0  0
  -27.1936  -28.7539   20.6920 C   0  0  0  0  0  0
  -26.0751  -26.9795   19.4472 C   0  0  0  0  0  0
  -24.8762  -27.7177   19.4635 C   0  0  0  0  0  0
  -23.5984  -29.8301   20.1612 C   0  0  0  0  0  0
  -25.4099  -36.3115   24.0334 C   0  0  1  0  0  0
  -20.5852  -28.3662   23.1316 C   0  0  2  0  0  0
  -20.6765  -26.9402   22.5425 C   0  0  0  0  0  0
  -19.5761  -26.6379   21.5212 C   0  0  0  0  0  0
  -18.1926  -26.7899   22.1607 C   0  0  0  0  0  0
  -19.1519  -28.8832   23.2879 C   0  0  0  0  0  0
  -18.9456  -30.1430   23.8898 C   0  0  0  0  0  0
  -17.6463  -30.6572   24.0568 C   0  0  0  0  0  0
  -25.9018  -34.9465   23.5139 C   0  0  0  0  0  0
  -16.5352  -29.9089   23.6309 C   0  0  0  0  0  0
  -16.7255  -28.6504   23.0327 C   0  0  0  0  0  0
  -26.4452  -31.6562   25.0700 C   0  0  0  0  0  0
  -25.3757  -31.3634   26.1484 C   0  0  0  0  0  0
  -27.0276  -30.3008   24.6022 C   0  0  0  0  0  0
  -27.6040  -32.4273   25.7467 C   0  0  0  0  0  0
  -27.5572  -37.1818   24.8471 C   0  0  0  0  0  0
  -21.4121  -29.3038   22.3732 N   0  0  0  0  0  0
  -26.4290  -37.3790   23.9397 N   0  0  0  0  0  0
  -24.6578  -31.0876   22.0977 N   0  0  0  0  0  0
  -23.4172  -28.8236   23.3045 O   0  0  0  0  0  0
  -28.3650  -26.7351   20.1846 O   0  0  0  0  0  0
  -26.5586  -34.8902   22.4699 O   0  0  0  0  0  0
  -23.5285  -32.1470   23.7533 O   0  0  0  0  0  0
  -28.8767  -19.4231   21.8709 C   0  0  0  0  0  0
  -28.5849  -18.5069   22.9186 C   0  0  0  0  0  0
  -30.5384  -17.1593   22.2738 C   0  0  0  0  0  0
  -30.0025  -19.2022   21.0473 C   0  0  0  0  0  0
  -29.3979  -17.3601   23.0876 C   0  0  0  0  0  0
  -30.8469  -18.0972   21.2596 C   0  0  0  0  0  0
  -27.4258  -18.7281   23.8837 C   0  0  0  0  0  0
  -31.3827  -15.9094   22.4743 C   0  0  0  0  0  0
  -28.0609  -20.6917   21.6536 C   0  0  0  0  0  0
  -25.8531  -24.0891   24.5305 C   0  0  0  0  0  0
  -26.2182  -22.7359   23.9040 C   0  0  0  0  0  0
  -25.2466  -25.1349   23.5802 C   0  0  0  0  0  0
  -25.0552  -21.8289   23.4465 C   0  0  0  0  0  0
  -25.9746  -25.3674   22.2428 C   0  0  0  0  0  0
  -24.7282  -21.8026   21.9359 C   0  0  0  0  0  0
  -27.5064  -25.6092   22.2899 C   0  0  0  0  0  0
  -25.8962  -21.6810   20.9213 C   0  0  0  0  0  0
  -28.2129  -25.5072   20.9045 C   0  0  0  0  0  0
  -30.6882  -14.7414   21.9487 N   0  0  0  0  0  0
  -26.7245  -20.4582   21.0542 N   0  3  0  0  0  0
  -30.2904  -20.0760   20.0514 F   0  0  0  0  0  0
  -28.9869  -16.1809   24.2937 Cl  0  0  0  0  0  0
  -32.2452  -17.9311   20.2515 Cl  0  0  0  0  0  0
  -31.4465  -12.3418   19.0472 H   0  0  0  0  0  0
  -30.2862  -11.2249   19.7040 H   0  0  0  0  0  0
  -29.6861  -11.8464   17.3551 H   0  0  0  0  0  0
  -29.6459  -13.5387   17.7898 H   0  0  0  0  0  0
  -27.8016  -11.3296   18.7753 H   0  0  0  0  0  0
  -27.3401  -12.6913   17.7885 H   0  0  0  0  0  0
  -27.7354  -14.2586   19.6162 H   0  0  0  0  0  0
  -28.6490  -11.9052   21.3351 H   0  0  0  0  0  0
  -28.4825  -13.5548   21.8602 H   0  0  0  0  0  0
  -25.2762   -9.5684   22.4748 H   0  0  0  0  0  0
  -23.9999   -7.4642   22.7465 H   0  0  0  0  0  0
  -21.0840   -8.8780   19.8952 H   0  0  0  0  0  0
  -22.3696  -10.9677   19.6161 H   0  0  0  0  0  0
  -21.2009   -7.6146   23.9714 H   0  0  0  0  0  0
  -21.1478   -6.0519   25.9073 H   0  0  0  0  0  0
  -22.0600   -2.7609   23.2845 H   0  0  0  0  0  0
  -22.4130  -11.9899   22.4780 H   0  0  0  0  0  0
  -21.1138  -13.1266   22.2580 H   0  0  0  0  0  0
  -24.6697  -15.8438   20.5085 H   0  0  0  0  0  0
  -26.2950  -15.6215   20.0968 H   0  0  0  0  0  0
  -26.7088  -32.5550   23.1176 H   0  0  0  0  0  0
  -25.0043  -33.9806   25.0498 H   0  0  0  0  0  0
  -22.6823  -31.3101   21.4161 H   0  0  0  0  0  0
  -23.3708  -35.9707   23.3327 H   0  0  0  0  0  0
  -24.3599  -36.8923   22.2068 H   0  0  0  0  0  0
  -23.7265  -37.6558   23.6644 H   0  0  0  0  0  0
  -26.0266  -31.6109   20.5831 H   0  0  0  0  0  0
  -26.8062  -30.9038   21.9717 H   0  0  0  0  0  0
  -28.0801  -29.1390   21.1744 H   0  0  0  0  0  0
  -26.0944  -26.0073   18.9756 H   0  0  0  0  0  0
  -23.9909  -27.3216   18.9874 H   0  0  0  0  0  0
  -23.7017  -30.6082   19.4030 H   0  0  0  0  0  0
  -22.7214  -29.2478   19.8708 H   0  0  0  0  0  0
  -25.1269  -36.1975   25.0822 H   0  0  0  0  0  0
  -20.9931  -28.3203   24.1441 H   0  0  0  0  0  0
  -20.5656  -26.2265   23.3603 H   0  0  0  0  0  0
  -21.6642  -26.7431   22.1248 H   0  0  0  0  0  0
  -19.6922  -25.6297   21.1229 H   0  0  0  0  0  0
  -19.6690  -27.3203   20.6757 H   0  0  0  0  0  0
  -17.4185  -26.6596   21.4009 H   0  0  0  0  0  0
  -18.0308  -26.0054   22.9018 H   0  0  0  0  0  0
  -19.7948  -30.7229   24.2260 H   0  0  0  0  0  0
  -17.5044  -31.6258   24.5174 H   0  0  0  0  0  0
  -15.5360  -30.3009   23.7660 H   0  0  0  0  0  0
  -15.8643  -28.0846   22.7028 H   0  0  0  0  0  0
  -24.5961  -30.6921   25.7860 H   0  0  0  0  0  0
  -24.8928  -32.2767   26.4960 H   0  0  0  0  0  0
  -25.8187  -30.8832   27.0222 H   0  0  0  0  0  0
  -26.2790  -29.6739   24.1157 H   0  0  0  0  0  0
  -27.4168  -29.7243   25.4428 H   0  0  0  0  0  0
  -27.8552  -30.4352   23.9060 H   0  0  0  0  0  0
  -27.2662  -33.3566   26.2068 H   0  0  0  0  0  0
  -28.3836  -32.6830   25.0278 H   0  0  0  0  0  0
  -28.0701  -31.8371   26.5368 H   0  0  0  0  0  0
  -28.2604  -38.0105   24.7483 H   0  0  0  0  0  0
  -28.1034  -36.2618   24.6302 H   0  0  0  0  0  0
  -27.2295  -37.1496   25.8887 H   0  0  0  0  0  0
  -20.9277  -29.8805   21.6998 H   0  0  0  0  0  0
  -26.0158  -38.2863   24.1380 H   0  0  0  0  0  0
  -27.1873  -19.7757   24.0227 H   0  0  0  0  0  0
  -27.6672  -18.3677   24.8825 H   0  0  0  0  0  0
  -26.5349  -18.2021   23.5433 H   0  0  0  0  0  0
  -31.5659  -15.7610   23.5390 H   0  0  0  0  0  0
  -32.3784  -16.0103   22.0404 H   0  0  0  0  0  0
  -28.6083  -21.3925   21.0216 H   0  0  0  0  0  0
  -27.9917  -21.1863   22.6146 H   0  0  0  0  0  0
  -26.7603  -24.5144   24.9611 H   0  0  0  0  0  0
  -25.1836  -23.9355   25.3769 H   0  0  0  0  0  0
  -26.7747  -22.1865   24.6641 H   0  0  0  0  0  0
  -26.9271  -22.9088   23.1042 H   0  0  0  0  0  0
  -25.1897  -26.0833   24.1159 H   0  0  0  0  0  0
  -24.2140  -24.8505   23.3697 H   0  0  0  0  0  0
  -24.1519  -22.0830   24.0020 H   0  0  0  0  0  0
  -25.2746  -20.8071   23.7500 H   0  0  0  0  0  0
  -25.4860  -26.2289   21.7966 H   0  0  0  0  0  0
  -25.7556  -24.5372   21.5780 H   0  0  0  0  0  0
  -24.1596  -22.7031   21.6963 H   0  0  0  0  0  0
  -24.0316  -20.9828   21.7520 H   0  0  0  0  0  0
  -27.9620  -24.8606   22.9349 H   0  0  0  0  0  0
  -27.7268  -26.5591   22.7772 H   0  0  0  0  0  0
  -26.5281  -22.5672   20.9242 H   0  0  0  0  0  0
  -25.4558  -21.6639   19.9244 H   0  0  0  0  0  0
  -27.7436  -24.7521   20.2726 H   0  0  0  0  0  0
  -29.2275  -25.1451   21.0729 H   0  0  0  0  0  0
  -29.9991  -14.3020   22.5411 H   0  0  0  0  0  0
  -26.2160  -19.7478   21.5504 H   0  0  0  0  0  0
  -26.8805  -20.1124   20.1199 H   0  0  0  0  0  0
  1 25  1  0  0  0
  1 30  2  0  0  0
  1 89  1  0  0  0
  2  3  1  0  0  0
  2 25  1  0  0  0
  2 94  1  0  0  0
  2 95  1  0  0  0
  3  4  1  0  0  0
  3 96  1  0  0  0
  3 97  1  0  0  0
  4  5  1  0  0  0
  4 98  1  0  0  0
  4 99  1  0  0  0
  5  6  1  0  0  0
  5 26  1  0  0  0
  5100  1  0  0  0
  6 25  1  0  0  0
  6101  1  0  0  0
  6102  1  0  0  0
  7  8  2  0  0  0
  7 26  1  0  0  0
  7 29  1  0  0  0
  8  9  1  0  0  0
  8 22  1  0  0  0
  9 10  1  0  0  0
  9 27  2  0  0  0
 10 11  2  0  0  0
 10 15  1  0  0  0
 11 12  1  0  0  0
 11103  1  0  0  0
 12 13  2  0  0  0
 12104  1  0  0  0
 13 14  1  0  0  0
 13 31  1  0  0  0
 14 15  2  0  0  0
 14105  1  0  0  0
 15106  1  0  0  0
 16 17  2  0  0  0
 16 21  1  0  0  0
 16 31  1  0  0  0
 17 18  1  0  0  0
 17107  1  0  0  0
 18 19  2  0  0  0
 18108  1  0  0  0
 19 20  1  0  0  0
 19 24  1  0  0  0
 20 21  2  0  0  0
 20109  1  0  0  0
 21 23  1  0  0  0
 22 28  1  0  0  0
 22 32  2  0  0  0
 26 27  1  0  0  0
 28110  1  0  0  0
 28111  1  0  0  0
 29112  1  0  0  0
 29113  1  0  0  0
 33 34  1  0  0  0
 33 66  1  0  0  0
 33 70  2  0  0  0
 34 36  1  0  0  0
 34 59  1  0  0  0
 34114  1  0  0  0
 35 44  2  0  0  0
 35 45  1  0  0  0
 35 68  1  0  0  0
 36 56  1  0  0  0
 36115  1  0  0  0
 37 39  1  0  0  0
 37 47  1  0  0  0
 37 66  1  0  0  0
 37116  1  0  0  0
 38 43  2  0  0  0
 38 46  1  0  0  0
 38 47  1  0  0  0
 39 64  1  0  0  0
 39 67  2  0  0  0
 40 52  1  0  0  0
 40 53  2  0  0  0
 40 58  1  0  0  0
 41117  1  0  0  0
 41118  1  0  0  0
 41119  1  0  0  0
 41 48  1  0  0  0
 42 43  1  0  0  0
 42 66  1  0  0  0
 42120  1  0  0  0
 42121  1  0  0  0
 43 44  1  0  0  0
 44122  1  0  0  0
 45 46  2  0  0  0
 45123  1  0  0  0
 46124  1  0  0  0
 47125  1  0  0  0
 47126  1  0  0  0
 48 56  1  0  0  0
 48 65  1  0  0  0
 48127  1  0  0  0
 49 50  1  0  0  0
 49 53  1  0  0  0
 49 64  1  0  0  0
 49128  1  0  0  0
 50 51  1  0  0  0
 50129  1  0  0  0
 50130  1  0  0  0
 51 52  1  0  0  0
 51131  1  0  0  0
 51132  1  0  0  0
 52133  1  0  0  0
 52134  1  0  0  0
 53 54  1  0  0  0
 54 55  2  0  0  0
 54135  1  0  0  0
 55 57  1  0  0  0
 55136  1  0  0  0
 56 69  2  0  0  0
 57 58  2  0  0  0
 57137  1  0  0  0
 58138  1  0  0  0
 59 60  1  0  0  0
 59 61  1  0  0  0
 59 62  1  0  0  0
 60139  1  0  0  0
 60140  1  0  0  0
 60141  1  0  0  0
 61142  1  0  0  0
 61143  1  0  0  0
 61144  1  0  0  0
 62145  1  0  0  0
 62146  1  0  0  0
 62147  1  0  0  0
 63 65  1  0  0  0
 63148  1  0  0  0
 63149  1  0  0  0
 63150  1  0  0  0
 64151  1  0  0  0
 65152  1  0  0  0
 68 88  1  0  0  0
 71 72  2  0  0  0
 71 74  1  0  0  0
 71 79  1  0  0  0
 72 75  1  0  0  0
 72 77  1  0  0  0
 73 75  2  0  0  0
 73 76  1  0  0  0
 73 78  1  0  0  0
 74 76  2  0  0  0
 74 91  1  0  0  0
 75 92  1  0  0  0
 76 93  1  0  0  0
 77153  1  0  0  0
 77154  1  0  0  0
 77155  1  0  0  0
 78 89  1  0  0  0
 78156  1  0  0  0
 78157  1  0  0  0
 79 90  1  0  0  0
 79158  1  0  0  0
 79159  1  0  0  0
 80 81  1  0  0  0
 80 82  1  0  0  0
 80160  1  0  0  0
 80161  1  0  0  0
 81 83  1  0  0  0
 81162  1  0  0  0
 81163  1  0  0  0
 82 84  1  0  0  0
 82164  1  0  0  0
 82165  1  0  0  0
 83 85  1  0  0  0
 83166  1  0  0  0
 83167  1  0  0  0
 84 86  1  0  0  0
 84168  1  0  0  0
 84169  1  0  0  0
 85 87  1  0  0  0
 85170  1  0  0  0
 85171  1  0  0  0
 86 88  1  0  0  0
 86172  1  0  0  0
 86173  1  0  0  0
 87 90  1  0  0  0
 87174  1  0  0  0
 87175  1  0  0  0
 88176  1  0  0  0
 88177  1  0  0  0
 89178  1  0  0  0
 90179  1  0  0  0
 90180  1  0  0  0
M  CHG  1  90   1
M  ISO  4   1 100  68 101  88 101  89 100
M  END
> <chiral flag>
0

> <version>
0

> <s_m_source_file>
/data/baiqing/PycharmProjects/Reinvent-master-3.2/result/LINK_invent/BTK/process_docking_weight1_custom_sum_contain_oxygen_bond_distance_aromatic_linkinvent_7_9_3/rearranged_h_0023.sdf

> <i_m_source_file_index>
34

> <r_mmod_Potential_Energy-OPLS-2005>
-193.062683105469

> <r_mmod_Stretch_Energy-OPLS-2005>
35.6893501281738

> <r_mmod_Bend_Energy-OPLS-2005>
112.289390563965

> <r_mmod_Torsional_Energy-OPLS-2005>
257.80224609375

> <r_mmod_Improper_Torsional_Energy-OPLS-2005>
3.72662234306335

> <r_mmod_Van_der_Waal_Energy-OPLS-2005>
147.886993408203

> <r_mmod_Electrostatic_Energy-OPLS-2005>
-293.322387695312

> <r_mmod_Solvation_Energy-OPLS-2005>
-470.261138916016

> <b_mmod_Minimization_Converged-OPLS-2005>
0

> <r_mmod_RMS_Derivative-OPLS-2005>
3.03965520858765

$$$$
34
                    3D
 Structure written by MMmdl.
199208  0  0  1  0            999 V2000
  -30.7590  -14.4290   20.5767 C   0  0  0  0  0  0
  -30.4042  -12.2838   19.3945 C   0  0  0  0  0  0
  -29.4822  -12.5168   18.1770 C   0  0  0  0  0  0
  -28.0009  -12.4039   18.5940 C   0  0  0  0  0  0
  -27.6697  -13.2140   19.8780 C   0  0  2  0  0  0
  -28.7218  -12.9810   20.9851 C   0  0  0  0  0  0
  -25.2648  -13.8152   20.5735 C   0  0  0  0  0  0
  -24.1936  -13.0466   20.9156 C   0  0  0  0  0  0
  -24.6502  -11.6896   20.8761 C   0  0  0  0  0  0
  -23.9178  -10.4289   21.0424 C   0  0  0  0  0  0
  -24.3711   -9.4143   21.9174 C   0  0  0  0  0  0
  -23.6347   -8.2230   22.0756 C   0  0  0  0  0  0
  -22.4307   -8.0330   21.3564 C   0  0  0  0  0  0
  -21.9999   -9.0302   20.4643 C   0  0  0  0  0  0
  -22.7391  -10.2152   20.3031 C   0  0  0  0  0  0
  -21.6891   -6.0782   22.5275 C   0  0  0  0  0  0
  -21.4026   -6.5663   23.8215 C   0  0  0  0  0  0
  -21.3641   -5.6791   24.9163 C   0  0  0  0  0  0
  -21.6029   -4.3069   24.7195 C   0  0  0  0  0  0
  -21.8835   -3.8182   23.4320 C   0  0  0  0  0  0
  -21.9187   -4.6998   22.3380 C   0  0  0  0  0  0
  -22.7938  -13.5217   21.1778 C   0  0  0  0  0  0
  -22.1673   -4.2213   21.0967 F   0  0  0  0  0  0
  -21.5603   -3.4540   25.7698 F   0  0  0  0  0  0
  -30.0484  -13.2792   20.4209 N   0  0  0  0  0  0
  -26.3112  -12.9353   20.3427 N   0  0  0  0  0  0
  -25.9411  -11.6502   20.5782 N   0  0  0  0  0  0
  -22.0656  -12.8193   22.0320 N   0  0  0  0  0  0
  -25.4379  -15.1891   20.4242 N   0  0  0  0  0  0
  -31.8588  -14.6222   20.0537 O   0  0  0  0  0  0
  -21.6665   -6.8952   21.4263 O   0  0  0  0  0  0
  -22.3596  -14.5555   20.6637 O   0  0  0  0  0  0
  -24.6145  -31.8703   23.2146 C   0  0  0  0  0  0
  -25.9032  -32.4827   23.8408 C   0  0  1  0  0  0
  -27.2215  -27.4583   20.0370 C   0  0  0  0  0  0
  -25.5933  -33.8626   24.2290 N   0  0  0  0  0  0
  -23.3985  -30.4994   21.5520 C   0  0  2  0  0  0
  -24.8326  -28.9649   20.1156 C   0  0  0  0  0  0
  -22.7450  -29.4672   22.4997 C   0  0  0  0  0  0
  -18.0300  -28.1371   22.8508 C   0  0  0  0  0  0
  -24.1504  -36.7324   23.2645 C   0  0  0  0  0  0
  -25.9269  -30.8341   21.3589 C   0  0  0  0  0  0
  -25.9957  -29.4713   20.7063 C   0  0  0  0  0  0
  -27.1917  -28.7211   20.6744 C   0  0  0  0  0  0
  -26.0259  -26.9489   19.4808 C   0  0  0  0  0  0
  -24.8354  -27.6958   19.5156 C   0  0  0  0  0  0
  -23.6023  -29.8354   20.1655 C   0  0  0  0  0  0
  -25.4119  -36.3063   24.0302 C   0  0  1  0  0  0
  -20.5905  -28.3662   23.1312 C   0  0  2  0  0  0
  -20.6768  -26.9382   22.5387 C   0  0  0  0  0  0
  -19.5743  -26.6393   21.5184 C   0  0  0  0  0  0
  -18.1934  -26.7918   22.1629 C   0  0  0  0  0  0
  -19.1540  -28.8838   23.2921 C   0  0  0  0  0  0
  -18.9463  -30.1453   23.8937 C   0  0  0  0  0  0
  -17.6457  -30.6572   24.0563 C   0  0  0  0  0  0
  -25.9053  -34.9446   23.5054 C   0  0  0  0  0  0
  -16.5368  -29.9084   23.6297 C   0  0  0  0  0  0
  -16.7290  -28.6483   23.0342 C   0  0  0  0  0  0
  -26.4469  -31.6586   25.0750 C   0  0  0  0  0  0
  -25.3776  -31.3687   26.1526 C   0  0  0  0  0  0
  -27.0268  -30.3041   24.6041 C   0  0  0  0  0  0
  -27.6047  -32.4314   25.7510 C   0  0  0  0  0  0
  -27.5545  -37.1789   24.8465 C   0  0  0  0  0  0
  -21.4201  -29.3074   22.3751 N   0  0  0  0  0  0
  -26.4275  -37.3740   23.9405 N   0  0  0  0  0  0
  -24.6647  -31.0847   22.0970 N   0  0  0  0  0  0
  -23.4190  -28.8172   23.3015 O   0  0  0  0  0  0
  -28.4075  -26.7582   20.0008 O   0  0  0  0  0  0
  -26.5620  -34.8874   22.4612 O   0  0  0  0  0  0
  -23.5374  -32.1433   23.7585 O   0  0  0  0  0  0
  -32.7566  -25.2985   22.3573 C   0  0  0  0  0  0
  -33.1519  -24.8785   21.0640 C   0  0  0  0  0  0
  -33.0611  -23.4983   20.7421 C   0  0  0  0  0  0
  -32.4052  -24.3263   23.3188 C   0  0  0  0  0  0
  -33.0462  -22.5503   21.7955 C   0  0  0  0  0  0
  -32.7658  -22.9878   23.1056 C   0  0  0  0  0  0
  -32.7141  -23.1404   19.2873 C   0  0  0  0  0  0
  -32.5596  -25.5668   18.6964 C   0  0  0  0  0  0
  -33.5012  -25.8389   19.9093 C   0  0  0  0  0  0
  -33.2167  -21.0573   21.5729 C   0  0  0  0  0  0
  -34.9664  -25.5657   19.5047 C   0  0  0  0  0  0
  -33.4028  -27.3235   20.3097 C   0  0  0  0  0  0
  -30.0466  -22.7417   17.8758 C   0  0  0  0  0  0
  -31.4811  -24.6706   24.4698 C   0  0  0  0  0  0
  -28.7897  -19.8838   23.0974 C   0  0  0  0  0  0
  -29.6902  -19.1674   22.0626 C   0  0  0  0  0  0
  -28.4108  -21.3525   22.7758 C   0  0  0  0  0  0
  -29.4387  -17.6474   22.0099 C   0  0  0  0  0  0
  -29.5382  -22.4122   22.9056 C   0  0  0  0  0  0
  -29.5071  -24.7719   19.3054 C   0  0  0  0  0  0
  -30.5345  -16.8099   21.3161 C   0  0  0  0  0  0
  -29.2403  -23.5006   23.9857 C   0  0  0  0  0  0
  -28.7135  -25.9963   18.8267 C   0  0  0  0  0  0
  -30.4914  -24.1592   18.2757 C   0  0  1  0  0  0
  -30.1261  -15.4071   21.2459 N   0  0  0  0  0  0
  -31.8582  -24.2761   18.8627 N   0  3  1  0  0  0
  -30.0741  -24.7353   23.9794 N   0  3  0  0  0  0
  -32.6666  -22.0917   24.1179 F   0  0  0  0  0  0
  -31.4629  -12.3028   19.1205 H   0  0  0  0  0  0
  -30.2238  -11.2826   19.7799 H   0  0  0  0  0  0
  -29.6902  -11.7930   17.3834 H   0  0  0  0  0  0
  -29.6658  -13.5046   17.7506 H   0  0  0  0  0  0
  -27.7812  -11.3478   18.7558 H   0  0  0  0  0  0
  -27.3504  -12.7248   17.7787 H   0  0  0  0  0  0
  -27.7213  -14.2664   19.5984 H   0  0  0  0  0  0
  -28.7000  -11.9408   21.3109 H   0  0  0  0  0  0
  -28.5015  -13.5533   21.8830 H   0  0  0  0  0  0
  -25.2883   -9.5601   22.4713 H   0  0  0  0  0  0
  -24.0045   -7.4626   22.7484 H   0  0  0  0  0  0
  -21.0928   -8.8891   19.8954 H   0  0  0  0  0  0
  -22.3930  -10.9700   19.6114 H   0  0  0  0  0  0
  -21.2082   -7.6186   23.9758 H   0  0  0  0  0  0
  -21.1421   -6.0518   25.9081 H   0  0  0  0  0  0
  -22.0633   -2.7651   23.2793 H   0  0  0  0  0  0
  -22.4377  -11.9851   22.4623 H   0  0  0  0  0  0
  -21.1261  -13.1156   22.2578 H   0  0  0  0  0  0
  -24.6792  -15.8466   20.5720 H   0  0  0  0  0  0
  -26.3004  -15.6395   20.1400 H   0  0  0  0  0  0
  -26.7080  -32.5522   23.1179 H   0  0  0  0  0  0
  -25.0149  -33.9782   25.0475 H   0  0  0  0  0  0
  -22.6877  -31.3198   21.4177 H   0  0  0  0  0  0
  -23.3690  -35.9727   23.3351 H   0  0  0  0  0  0
  -24.3616  -36.8928   22.2059 H   0  0  0  0  0  0
  -23.7331  -37.6555   23.6677 H   0  0  0  0  0  0
  -26.0338  -31.6007   20.5926 H   0  0  0  0  0  0
  -26.8197  -30.8909   21.9717 H   0  0  0  0  0  0
  -28.0955  -29.1130   21.1201 H   0  0  0  0  0  0
  -25.9728  -25.9749   19.0223 H   0  0  0  0  0  0
  -23.9330  -27.2951   19.0756 H   0  0  0  0  0  0
  -23.7275  -30.6144   19.4154 H   0  0  0  0  0  0
  -22.7213  -29.2713   19.8518 H   0  0  0  0  0  0
  -25.1280  -36.1897   25.0782 H   0  0  0  0  0  0
  -20.9988  -28.3189   24.1456 H   0  0  0  0  0  0
  -20.5653  -26.2272   23.3583 H   0  0  0  0  0  0
  -21.6628  -26.7397   22.1188 H   0  0  0  0  0  0
  -19.6852  -25.6310   21.1219 H   0  0  0  0  0  0
  -19.6654  -27.3217   20.6732 H   0  0  0  0  0  0
  -17.4169  -26.6706   21.4060 H   0  0  0  0  0  0
  -18.0346  -26.0049   22.9040 H   0  0  0  0  0  0
  -19.7932  -30.7249   24.2332 H   0  0  0  0  0  0
  -17.5008  -31.6267   24.5162 H   0  0  0  0  0  0
  -15.5347  -30.2977   23.7617 H   0  0  0  0  0  0
  -15.8710  -28.0810   22.7028 H   0  0  0  0  0  0
  -24.5861  -30.7122   25.7865 H   0  0  0  0  0  0
  -24.9100  -32.2887   26.5095 H   0  0  0  0  0  0
  -25.8169  -30.8768   27.0224 H   0  0  0  0  0  0
  -27.4167  -29.7206   25.4394 H   0  0  0  0  0  0
  -26.2735  -29.6885   24.1113 H   0  0  0  0  0  0
  -27.8516  -30.4431   23.9033 H   0  0  0  0  0  0
  -27.2608  -33.3578   26.2147 H   0  0  0  0  0  0
  -28.3843  -32.6945   25.0326 H   0  0  0  0  0  0
  -28.0733  -31.8445   26.5431 H   0  0  0  0  0  0
  -28.2568  -38.0070   24.7410 H   0  0  0  0  0  0
  -28.1015  -36.2593   24.6358 H   0  0  0  0  0  0
  -27.2310  -37.1507   25.8886 H   0  0  0  0  0  0
  -20.9345  -29.8899   21.7079 H   0  0  0  0  0  0
  -26.0150  -38.2814   24.1390 H   0  0  0  0  0  0
  -32.6185  -26.3478   22.5889 H   0  0  0  0  0  0
  -33.5978  -23.0229   18.6665 H   0  0  0  0  0  0
  -32.1683  -22.2012   19.2439 H   0  0  0  0  0  0
  -33.0910  -25.5895   17.7437 H   0  0  0  0  0  0
  -31.8013  -26.3490   18.6262 H   0  0  0  0  0  0
  -33.0507  -20.7304   20.5533 H   0  0  0  0  0  0
  -32.5198  -20.5150   22.2083 H   0  0  0  0  0  0
  -34.2374  -20.7675   21.8217 H   0  0  0  0  0  0
  -35.1251  -24.5539   19.1451 H   0  0  0  0  0  0
  -35.6313  -25.6762   20.3598 H   0  0  0  0  0  0
  -35.3085  -26.2366   18.7198 H   0  0  0  0  0  0
  -32.3892  -27.6035   20.6082 H   0  0  0  0  0  0
  -33.6560  -27.9746   19.4711 H   0  0  0  0  0  0
  -34.0875  -27.5602   21.1245 H   0  0  0  0  0  0
  -29.0624  -22.7959   17.4075 H   0  0  0  0  0  0
  -29.9773  -22.0717   18.7348 H   0  0  0  0  0  0
  -30.7045  -22.2911   17.1339 H   0  0  0  0  0  0
  -31.7791  -25.6431   24.8665 H   0  0  0  0  0  0
  -31.5595  -23.9589   25.2951 H   0  0  0  0  0  0
  -27.8729  -19.3000   23.1982 H   0  0  0  0  0  0
  -29.2515  -19.8371   24.0872 H   0  0  0  0  0  0
  -30.7223  -19.3197   22.3443 H   0  0  0  0  0  0
  -29.5936  -19.6042   21.0648 H   0  0  0  0  0  0
  -27.5985  -21.6232   23.4466 H   0  0  0  0  0  0
  -27.9789  -21.4106   21.7773 H   0  0  0  0  0  0
  -29.3442  -17.2665   23.0248 H   0  0  0  0  0  0
  -28.4718  -17.4843   21.5400 H   0  0  0  0  0  0
  -29.7174  -22.8653   21.9263 H   0  0  0  0  0  0
  -30.4417  -21.8702   23.1525 H   0  0  0  0  0  0
  -28.8114  -24.0237   19.6800 H   0  0  0  0  0  0
  -30.0502  -25.0720   20.2035 H   0  0  0  0  0  0
  -30.7219  -17.1811   20.3080 H   0  0  0  0  0  0
  -31.4777  -16.8902   21.8600 H   0  0  0  0  0  0
  -29.2666  -23.0716   24.9880 H   0  0  0  0  0  0
  -28.2196  -23.8610   23.8196 H   0  0  0  0  0  0
  -27.8634  -25.6768   18.2274 H   0  0  0  0  0  0
  -29.3287  -26.6175   18.1713 H   0  0  0  0  0  0
  -30.4856  -24.7537   17.3598 H   0  0  0  0  0  0
  -29.2037  -15.1915   21.5916 H   0  0  0  0  0  0
  -31.5459  -24.4418   19.8053 H   0  0  0  0  0  0
  -30.0257  -25.1783   23.0808 H   0  0  0  0  0  0
  -29.6021  -25.3634   24.6063 H   0  0  0  0  0  0
  1 25  1  0  0  0
  1 30  2  0  0  0
  1 95  1  0  0  0
  2  3  1  0  0  0
  2 25  1  0  0  0
  2 99  1  0  0  0
  2100  1  0  0  0
  3  4  1  0  0  0
  3101  1  0  0  0
  3102  1  0  0  0
  4  5  1  0  0  0
  4103  1  0  0  0
  4104  1  0  0  0
  5  6  1  0  0  0
  5 26  1  0  0  0
  5105  1  0  0  0
  6 25  1  0  0  0
  6106  1  0  0  0
  6107  1  0  0  0
  7  8  2  0  0  0
  7 26  1  0  0  0
  7 29  1  0  0  0
  8  9  1  0  0  0
  8 22  1  0  0  0
  9 10  1  0  0  0
  9 27  2  0  0  0
 10 11  2  0  0  0
 10 15  1  0  0  0
 11 12  1  0  0  0
 11108  1  0  0  0
 12 13  2  0  0  0
 12109  1  0  0  0
 13 14  1  0  0  0
 13 31  1  0  0  0
 14 15  2  0  0  0
 14110  1  0  0  0
 15111  1  0  0  0
 16 17  2  0  0  0
 16 21  1  0  0  0
 16 31  1  0  0  0
 17 18  1  0  0  0
 17112  1  0  0  0
 18 19  2  0  0  0
 18113  1  0  0  0
 19 20  1  0  0  0
 19 24  1  0  0  0
 20 21  2  0  0  0
 20114  1  0  0  0
 21 23  1  0  0  0
 22 28  1  0  0  0
 22 32  2  0  0  0
 26 27  1  0  0  0
 28115  1  0  0  0
 28116  1  0  0  0
 29117  1  0  0  0
 29118  1  0  0  0
 33 34  1  0  0  0
 33 66  1  0  0  0
 33 70  2  0  0  0
 34 36  1  0  0  0
 34 59  1  0  0  0
 34119  1  0  0  0
 35 44  2  0  0  0
 35 45  1  0  0  0
 35 68  1  0  0  0
 36 56  1  0  0  0
 36120  1  0  0  0
 37 39  1  0  0  0
 37 47  1  0  0  0
 37 66  1  0  0  0
 37121  1  0  0  0
 38 43  2  0  0  0
 38 46  1  0  0  0
 38 47  1  0  0  0
 39 64  1  0  0  0
 39 67  2  0  0  0
 40 52  1  0  0  0
 40 53  2  0  0  0
 40 58  1  0  0  0
 41122  1  0  0  0
 41123  1  0  0  0
 41124  1  0  0  0
 41 48  1  0  0  0
 42 43  1  0  0  0
 42 66  1  0  0  0
 42125  1  0  0  0
 42126  1  0  0  0
 43 44  1  0  0  0
 44127  1  0  0  0
 45 46  2  0  0  0
 45128  1  0  0  0
 46129  1  0  0  0
 47130  1  0  0  0
 47131  1  0  0  0
 48 56  1  0  0  0
 48 65  1  0  0  0
 48132  1  0  0  0
 49 50  1  0  0  0
 49 53  1  0  0  0
 49 64  1  0  0  0
 49133  1  0  0  0
 50 51  1  0  0  0
 50134  1  0  0  0
 50135  1  0  0  0
 51 52  1  0  0  0
 51136  1  0  0  0
 51137  1  0  0  0
 52138  1  0  0  0
 52139  1  0  0  0
 53 54  1  0  0  0
 54 55  2  0  0  0
 54140  1  0  0  0
 55 57  1  0  0  0
 55141  1  0  0  0
 56 69  2  0  0  0
 57 58  2  0  0  0
 57142  1  0  0  0
 58143  1  0  0  0
 59 60  1  0  0  0
 59 61  1  0  0  0
 59 62  1  0  0  0
 60144  1  0  0  0
 60145  1  0  0  0
 60146  1  0  0  0
 61147  1  0  0  0
 61148  1  0  0  0
 61149  1  0  0  0
 62150  1  0  0  0
 62151  1  0  0  0
 62152  1  0  0  0
 63 65  1  0  0  0
 63153  1  0  0  0
 63154  1  0  0  0
 63155  1  0  0  0
 64156  1  0  0  0
 65157  1  0  0  0
 68 93  1  0  0  0
 71 72  2  0  0  0
 71 74  1  0  0  0
 71158  1  0  0  0
 72 73  1  0  0  0
 72 79  1  0  0  0
 73 75  2  0  0  0
 73 77  1  0  0  0
 74 76  2  0  0  0
 74 84  1  0  0  0
 75 76  1  0  0  0
 75 80  1  0  0  0
 76 98  1  0  0  0
 77159  1  0  0  0
 77160  1  0  0  0
 77 96  1  0  0  0
 78 79  1  0  0  0
 78 96  1  0  0  0
 78161  1  0  0  0
 78162  1  0  0  0
 79 81  1  0  0  0
 79 82  1  0  0  0
 80163  1  0  0  0
 80164  1  0  0  0
 80165  1  0  0  0
 81166  1  0  0  0
 81167  1  0  0  0
 81168  1  0  0  0
 82169  1  0  0  0
 82170  1  0  0  0
 82171  1  0  0  0
 83172  1  0  0  0
 83173  1  0  0  0
 83174  1  0  0  0
 83 94  1  0  0  0
 84 97  1  0  0  0
 84175  1  0  0  0
 84176  1  0  0  0
 85 86  1  0  0  0
 85 87  1  0  0  0
 85177  1  0  0  0
 85178  1  0  0  0
 86 88  1  0  0  0
 86179  1  0  0  0
 86180  1  0  0  0
 87 89  1  0  0  0
 87181  1  0  0  0
 87182  1  0  0  0
 88 91  1  0  0  0
 88183  1  0  0  0
 88184  1  0  0  0
 89 92  1  0  0  0
 89185  1  0  0  0
 89186  1  0  0  0
 90 93  1  0  0  0
 90 94  1  0  0  0
 90187  1  0  0  0
 90188  1  0  0  0
 91 95  1  0  0  0
 91189  1  0  0  0
 91190  1  0  0  0
 92 97  1  0  0  0
 92191  1  0  0  0
 92192  1  0  0  0
 93193  1  0  0  0
 93194  1  0  0  0
 94 96  1  0  0  0
 94195  1  0  0  0
 95196  1  0  0  0
 96197  1  0  0  0
 97198  1  0  0  0
 97199  1  0  0  0
M  CHG  2  96   1  97   1
M  ISO  4   1 100  68 101  93 101  95 100
M  END
> <chiral flag>
0

> <version>
0

> <s_m_source_file>
/data/baiqing/PycharmProjects/Reinvent-master-3.2/result/LINK_invent/BTK/process_docking_weight1_custom_sum_contain_oxygen_bond_distance_aromatic_linkinvent_7_9_3/rearranged_h_0023.sdf

> <i_m_source_file_index>
35

> <r_mmod_Potential_Energy-OPLS-2005>
-149.072250366211

> <r_mmod_Stretch_Energy-OPLS-2005>
44.4936065673828

> <r_mmod_Bend_Energy-OPLS-2005>
191.239700317383

> <r_mmod_Torsional_Energy-OPLS-2005>
368.774169921875

> <r_mmod_Improper_Torsional_Energy-OPLS-2005>
7.0077919960022

> <r_mmod_Van_der_Waal_Energy-OPLS-2005>
167.541488647461

> <r_mmod_Electrostatic_Energy-OPLS-2005>
-50.9316177368164

> <r_mmod_Solvation_Energy-OPLS-2005>
-888.43505859375

> <b_mmod_Minimization_Converged-OPLS-2005>
0

> <r_mmod_RMS_Derivative-OPLS-2005>
10.7344636917114

$$$$
35
                    3D
 Structure written by MMmdl.
175184  0  0  1  0            999 V2000
  -30.6897  -14.4668   20.3978 C   0  0  0  0  0  0
  -30.4162  -12.2550   19.4214 C   0  0  0  0  0  0
  -29.4814  -12.4335   18.2045 C   0  0  0  0  0  0
  -28.0048  -12.3185   18.6245 C   0  0  0  0  0  0
  -27.6558  -13.1909   19.8582 C   0  0  2  0  0  0
  -28.7107  -13.0243   20.9792 C   0  0  0  0  0  0
  -25.2584  -13.8129   20.5625 C   0  0  0  0  0  0
  -24.1832  -13.0447   20.9172 C   0  0  0  0  0  0
  -24.6359  -11.6894   20.8757 C   0  0  0  0  0  0
  -23.9020  -10.4296   21.0417 C   0  0  0  0  0  0
  -24.3582   -9.4220   21.9191 C   0  0  0  0  0  0
  -23.6266   -8.2255   22.0764 C   0  0  0  0  0  0
  -22.4245   -8.0284   21.3557 C   0  0  0  0  0  0
  -21.9881   -9.0257   20.4657 C   0  0  0  0  0  0
  -22.7198  -10.2136   20.3064 C   0  0  0  0  0  0
  -21.6848   -6.0724   22.5275 C   0  0  0  0  0  0
  -21.4019   -6.5630   23.8213 C   0  0  0  0  0  0
  -21.3668   -5.6782   24.9168 C   0  0  0  0  0  0
  -21.6053   -4.3047   24.7221 C   0  0  0  0  0  0
  -21.8824   -3.8132   23.4345 C   0  0  0  0  0  0
  -21.9187   -4.6954   22.3403 C   0  0  0  0  0  0
  -22.7861  -13.5264   21.1831 C   0  0  0  0  0  0
  -22.1645   -4.2136   21.0977 F   0  0  0  0  0  0
  -21.5636   -3.4536   25.7739 F   0  0  0  0  0  0
  -30.0427  -13.2749   20.4057 N   0  0  0  0  0  0
  -26.3003  -12.9261   20.3333 N   0  0  0  0  0  0
  -25.9285  -11.6450   20.5804 N   0  0  0  0  0  0
  -22.0472  -12.8287   22.0390 N   0  0  0  0  0  0
  -25.4310  -15.1843   20.3940 N   0  0  0  0  0  0
  -31.9016  -14.5941   20.2316 O   0  0  0  0  0  0
  -21.6635   -6.8861   21.4236 O   0  0  0  0  0  0
  -22.3580  -14.5585   20.6676 O   0  0  0  0  0  0
  -24.6134  -31.8723   23.2169 C   0  0  0  0  0  0
  -25.9055  -32.4842   23.8426 C   0  0  1  0  0  0
  -27.2198  -27.4590   20.0565 C   0  0  0  0  0  0
  -25.5937  -33.8632   24.2361 N   0  0  0  0  0  0
  -23.3952  -30.5018   21.5620 C   0  0  2  0  0  0
  -24.8303  -28.9747   20.1214 C   0  0  0  0  0  0
  -22.7387  -29.4682   22.5052 C   0  0  0  0  0  0
  -18.0270  -28.1366   22.8499 C   0  0  0  0  0  0
  -24.1486  -36.7311   23.2641 C   0  0  0  0  0  0
  -25.9256  -30.8408   21.3677 C   0  0  0  0  0  0
  -25.9958  -29.4785   20.7103 C   0  0  0  0  0  0
  -27.1917  -28.7266   20.6808 C   0  0  0  0  0  0
  -26.0206  -26.9610   19.4908 C   0  0  0  0  0  0
  -24.8339  -27.7105   19.5165 C   0  0  0  0  0  0
  -23.5971  -29.8462   20.1729 C   0  0  0  0  0  0
  -25.4111  -36.3119   24.0350 C   0  0  1  0  0  0
  -20.5855  -28.3634   23.1351 C   0  0  2  0  0  0
  -20.6774  -26.9382   22.5424 C   0  0  0  0  0  0
  -19.5752  -26.6381   21.5220 C   0  0  0  0  0  0
  -18.1924  -26.7924   22.1613 C   0  0  0  0  0  0
  -19.1519  -28.8823   23.2919 C   0  0  0  0  0  0
  -18.9437  -30.1441   23.8907 C   0  0  0  0  0  0
  -17.6437  -30.6577   24.0563 C   0  0  0  0  0  0
  -25.9040  -34.9479   23.5145 C   0  0  0  0  0  0
  -16.5330  -29.9067   23.6331 C   0  0  0  0  0  0
  -16.7258  -28.6485   23.0350 C   0  0  0  0  0  0
  -26.4504  -31.6592   25.0722 C   0  0  0  0  0  0
  -25.3800  -31.3645   26.1480 C   0  0  0  0  0  0
  -27.0340  -30.3052   24.6063 C   0  0  0  0  0  0
  -27.6102  -32.4282   25.7471 C   0  0  0  0  0  0
  -27.5587  -37.1813   24.8469 C   0  0  0  0  0  0
  -21.4125  -29.3009   22.3768 N   0  0  0  0  0  0
  -26.4299  -37.3793   23.9409 N   0  0  0  0  0  0
  -24.6637  -31.0848   22.1069 N   0  0  0  0  0  0
  -23.4175  -28.8216   23.3079 O   0  0  0  0  0  0
  -28.4163  -26.7694   20.0052 O   0  0  0  0  0  0
  -26.5559  -34.8921   22.4682 O   0  0  0  0  0  0
  -23.5337  -32.1463   23.7594 O   0  0  0  0  0  0
  -29.0416  -17.6787   19.6674 C   0  0  0  0  0  0
  -28.8371  -18.7762   18.8011 C   0  0  0  0  0  0
  -29.4693  -18.8016   17.5310 C   0  0  0  0  0  0
  -29.8592  -16.5842   19.3241 C   0  0  0  0  0  0
  -30.3197  -17.7154   17.1803 C   0  0  0  0  0  0
  -30.5046  -16.6091   18.0488 C   0  0  0  0  0  0
  -27.9330  -19.8978   19.3050 C   0  0  0  0  0  0
  -26.7136  -20.2015   18.4216 C   0  0  0  0  0  0
  -27.7815  -20.2735   16.1914 C   0  0  0  0  0  0
  -29.2552  -19.9620   16.5398 C   0  0  1  0  0  0
  -30.0855  -21.2032   16.9073 C   0  0  0  0  0  0
  -26.5660  -24.2251   16.8727 C   0  0  0  0  0  0
  -28.0824  -24.5008   16.9300 C   0  0  0  0  0  0
  -26.1557  -23.0519   15.9543 C   0  0  0  0  0  0
  -28.4573  -25.7544   17.7490 C   0  0  0  0  0  0
  -25.8410  -21.7227   16.6817 C   0  0  0  0  0  0
  -28.4660  -25.5347   19.2809 C   0  0  0  0  0  0
  -29.8584  -15.5135   20.2860 N   0  0  0  0  0  0
  -27.0409  -21.0284   17.2323 N   0  3  1  0  0  0
  -31.1572  -17.7028   15.6566 Cl  0  0  0  0  0  0
  -31.4735  -15.3047   17.4381 Cl  0  0  0  0  0  0
  -31.4592  -12.3374   19.1134 H   0  0  0  0  0  0
  -30.3039  -11.2567   19.8492 H   0  0  0  0  0  0
  -29.7127  -11.6882   17.4419 H   0  0  0  0  0  0
  -29.6383  -13.4016   17.7344 H   0  0  0  0  0  0
  -27.8121  -11.2685   18.8481 H   0  0  0  0  0  0
  -27.3506  -12.5725   17.7906 H   0  0  0  0  0  0
  -27.6743  -14.2241   19.5151 H   0  0  0  0  0  0
  -28.6763  -12.0159   21.3955 H   0  0  0  0  0  0
  -28.5071  -13.7025   21.8096 H   0  0  0  0  0  0
  -25.2717   -9.5706   22.4768 H   0  0  0  0  0  0
  -23.9999   -7.4638   22.7460 H   0  0  0  0  0  0
  -21.0822   -8.8757   19.8948 H   0  0  0  0  0  0
  -22.3652  -10.9678   19.6172 H   0  0  0  0  0  0
  -21.2007   -7.6130   23.9715 H   0  0  0  0  0  0
  -21.1490   -6.0503   25.9078 H   0  0  0  0  0  0
  -22.0591   -2.7600   23.2840 H   0  0  0  0  0  0
  -22.4048  -11.9939   22.4795 H   0  0  0  0  0  0
  -21.1101  -13.1348   22.2589 H   0  0  0  0  0  0
  -24.6552  -15.8319   20.4869 H   0  0  0  0  0  0
  -26.2646  -15.6187   20.0222 H   0  0  0  0  0  0
  -26.7116  -32.5549   23.1172 H   0  0  0  0  0  0
  -25.0163  -33.9804   25.0557 H   0  0  0  0  0  0
  -22.6829  -31.3199   21.4349 H   0  0  0  0  0  0
  -23.3755  -35.9639   23.3318 H   0  0  0  0  0  0
  -24.3596  -36.8911   22.2057 H   0  0  0  0  0  0
  -23.7225  -37.6525   23.6625 H   0  0  0  0  0  0
  -26.0415  -31.6123   20.6066 H   0  0  0  0  0  0
  -26.8131  -30.8859   21.9860 H   0  0  0  0  0  0
  -28.0945  -29.1214   21.1244 H   0  0  0  0  0  0
  -25.9672  -26.0055   18.9997 H   0  0  0  0  0  0
  -23.9342  -27.3154   19.0639 H   0  0  0  0  0  0
  -23.7086  -30.6287   19.4214 H   0  0  0  0  0  0
  -22.7172  -29.2759   19.8705 H   0  0  0  0  0  0
  -25.1282  -36.2017   25.0847 H   0  0  0  0  0  0
  -20.9937  -28.3190   24.1474 H   0  0  0  0  0  0
  -20.5716  -26.2221   23.3593 H   0  0  0  0  0  0
  -21.6642  -26.7473   22.1187 H   0  0  0  0  0  0
  -19.6916  -25.6304   21.1223 H   0  0  0  0  0  0
  -19.6712  -27.3219   20.6777 H   0  0  0  0  0  0
  -17.4212  -26.6709   21.3991 H   0  0  0  0  0  0
  -18.0294  -26.0053   22.8981 H   0  0  0  0  0  0
  -19.7913  -30.7271   24.2260 H   0  0  0  0  0  0
  -17.4985  -31.6257   24.5157 H   0  0  0  0  0  0
  -15.5326  -30.2959   23.7664 H   0  0  0  0  0  0
  -15.8661  -28.0811   22.7045 H   0  0  0  0  0  0
  -24.5982  -30.6990   25.7793 H   0  0  0  0  0  0
  -24.8966  -32.2767   26.4973 H   0  0  0  0  0  0
  -25.8184  -30.8768   27.0193 H   0  0  0  0  0  0
  -26.2841  -29.6772   24.1228 H   0  0  0  0  0  0
  -27.4273  -29.7329   25.4473 H   0  0  0  0  0  0
  -27.8604  -30.4400   23.9083 H   0  0  0  0  0  0
  -27.2768  -33.3578   26.2085 H   0  0  0  0  0  0
  -28.3891  -32.6845   25.0278 H   0  0  0  0  0  0
  -28.0787  -31.8371   26.5352 H   0  0  0  0  0  0
  -28.2612  -38.0097   24.7518 H   0  0  0  0  0  0
  -28.1075  -36.2638   24.6292 H   0  0  0  0  0  0
  -27.2304  -37.1470   25.8869 H   0  0  0  0  0  0
  -20.9280  -29.8716   21.6990 H   0  0  0  0  0  0
  -26.0211  -38.2885   24.1390 H   0  0  0  0  0  0
  -28.5447  -17.6692   20.6285 H   0  0  0  0  0  0
  -28.5195  -20.7973   19.4890 H   0  0  0  0  0  0
  -27.5533  -19.6227   20.2893 H   0  0  0  0  0  0
  -26.0144  -20.7528   19.0512 H   0  0  0  0  0  0
  -26.1960  -19.2852   18.1343 H   0  0  0  0  0  0
  -27.2442  -19.3587   15.9322 H   0  0  0  0  0  0
  -27.7911  -20.8673   15.2767 H   0  0  0  0  0  0
  -29.6410  -19.6616   15.5692 H   0  0  0  0  0  0
  -29.8671  -21.5789   17.9057 H   0  0  0  0  0  0
  -29.9147  -22.0129   16.1970 H   0  0  0  0  0  0
  -31.1509  -20.9743   16.8774 H   0  0  0  0  0  0
  -26.0815  -25.1284   16.4953 H   0  0  0  0  0  0
  -26.1611  -24.0714   17.8732 H   0  0  0  0  0  0
  -28.4389  -24.6460   15.9098 H   0  0  0  0  0  0
  -28.6175  -23.6360   17.3143 H   0  0  0  0  0  0
  -26.8671  -22.9199   15.1403 H   0  0  0  0  0  0
  -25.2288  -23.3492   15.4592 H   0  0  0  0  0  0
  -27.7908  -26.5695   17.4650 H   0  0  0  0  0  0
  -29.4519  -26.0899   17.4545 H   0  0  0  0  0  0
  -25.3132  -21.0474   16.0060 H   0  0  0  0  0  0
  -25.1219  -21.9451   17.4711 H   0  0  0  0  0  0
  -27.6718  -24.8631   19.6062 H   0  0  0  0  0  0
  -29.3875  -25.0216   19.5575 H   0  0  0  0  0  0
  -28.9648  -15.3525   20.7210 H   0  0  0  0  0  0
  -27.6482  -21.7628   17.5574 H   0  0  0  0  0  0
  1 25  1  0  0  0
  1 30  2  0  0  0
  1 88  1  0  0  0
  2  3  1  0  0  0
  2 25  1  0  0  0
  2 92  1  0  0  0
  2 93  1  0  0  0
  3  4  1  0  0  0
  3 94  1  0  0  0
  3 95  1  0  0  0
  4  5  1  0  0  0
  4 96  1  0  0  0
  4 97  1  0  0  0
  5  6  1  0  0  0
  5 26  1  0  0  0
  5 98  1  0  0  0
  6 25  1  0  0  0
  6 99  1  0  0  0
  6100  1  0  0  0
  7  8  2  0  0  0
  7 26  1  0  0  0
  7 29  1  0  0  0
  8  9  1  0  0  0
  8 22  1  0  0  0
  9 10  1  0  0  0
  9 27  2  0  0  0
 10 11  2  0  0  0
 10 15  1  0  0  0
 11 12  1  0  0  0
 11101  1  0  0  0
 12 13  2  0  0  0
 12102  1  0  0  0
 13 14  1  0  0  0
 13 31  1  0  0  0
 14 15  2  0  0  0
 14103  1  0  0  0
 15104  1  0  0  0
 16 17  2  0  0  0
 16 21  1  0  0  0
 16 31  1  0  0  0
 17 18  1  0  0  0
 17105  1  0  0  0
 18 19  2  0  0  0
 18106  1  0  0  0
 19 20  1  0  0  0
 19 24  1  0  0  0
 20 21  2  0  0  0
 20107  1  0  0  0
 21 23  1  0  0  0
 22 28  1  0  0  0
 22 32  2  0  0  0
 26 27  1  0  0  0
 28108  1  0  0  0
 28109  1  0  0  0
 29110  1  0  0  0
 29111  1  0  0  0
 33 34  1  0  0  0
 33 66  1  0  0  0
 33 70  2  0  0  0
 34 36  1  0  0  0
 34 59  1  0  0  0
 34112  1  0  0  0
 35 44  2  0  0  0
 35 45  1  0  0  0
 35 68  1  0  0  0
 36 56  1  0  0  0
 36113  1  0  0  0
 37 39  1  0  0  0
 37 47  1  0  0  0
 37 66  1  0  0  0
 37114  1  0  0  0
 38 43  2  0  0  0
 38 46  1  0  0  0
 38 47  1  0  0  0
 39 64  1  0  0  0
 39 67  2  0  0  0
 40 52  1  0  0  0
 40 53  2  0  0  0
 40 58  1  0  0  0
 41115  1  0  0  0
 41116  1  0  0  0
 41117  1  0  0  0
 41 48  1  0  0  0
 42 43  1  0  0  0
 42 66  1  0  0  0
 42118  1  0  0  0
 42119  1  0  0  0
 43 44  1  0  0  0
 44120  1  0  0  0
 45 46  2  0  0  0
 45121  1  0  0  0
 46122  1  0  0  0
 47123  1  0  0  0
 47124  1  0  0  0
 48 56  1  0  0  0
 48 65  1  0  0  0
 48125  1  0  0  0
 49 50  1  0  0  0
 49 53  1  0  0  0
 49 64  1  0  0  0
 49126  1  0  0  0
 50 51  1  0  0  0
 50127  1  0  0  0
 50128  1  0  0  0
 51 52  1  0  0  0
 51129  1  0  0  0
 51130  1  0  0  0
 52131  1  0  0  0
 52132  1  0  0  0
 53 54  1  0  0  0
 54 55  2  0  0  0
 54133  1  0  0  0
 55 57  1  0  0  0
 55134  1  0  0  0
 56 69  2  0  0  0
 57 58  2  0  0  0
 57135  1  0  0  0
 58136  1  0  0  0
 59 60  1  0  0  0
 59 61  1  0  0  0
 59 62  1  0  0  0
 60137  1  0  0  0
 60138  1  0  0  0
 60139  1  0  0  0
 61140  1  0  0  0
 61141  1  0  0  0
 61142  1  0  0  0
 62143  1  0  0  0
 62144  1  0  0  0
 62145  1  0  0  0
 63 65  1  0  0  0
 63146  1  0  0  0
 63147  1  0  0  0
 63148  1  0  0  0
 64149  1  0  0  0
 65150  1  0  0  0
 68 87  1  0  0  0
 71 72  2  0  0  0
 71 74  1  0  0  0
 71151  1  0  0  0
 72 73  1  0  0  0
 72 77  1  0  0  0
 73 75  2  0  0  0
 73 80  1  0  0  0
 74 76  2  0  0  0
 74 88  1  0  0  0
 75 76  1  0  0  0
 75 90  1  0  0  0
 76 91  1  0  0  0
 77 78  1  0  0  0
 77152  1  0  0  0
 77153  1  0  0  0
 78 89  1  0  0  0
 78154  1  0  0  0
 78155  1  0  0  0
 79 80  1  0  0  0
 79 89  1  0  0  0
 79156  1  0  0  0
 79157  1  0  0  0
 80 81  1  0  0  0
 80158  1  0  0  0
 81159  1  0  0  0
 81160  1  0  0  0
 81161  1  0  0  0
 82 83  1  0  0  0
 82 84  1  0  0  0
 82162  1  0  0  0
 82163  1  0  0  0
 83 85  1  0  0  0
 83164  1  0  0  0
 83165  1  0  0  0
 84 86  1  0  0  0
 84166  1  0  0  0
 84167  1  0  0  0
 85 87  1  0  0  0
 85168  1  0  0  0
 85169  1  0  0  0
 86170  1  0  0  0
 86171  1  0  0  0
 86 89  1  0  0  0
 87172  1  0  0  0
 87173  1  0  0  0
 88174  1  0  0  0
 89175  1  0  0  0
M  CHG  1  89   1
M  ISO  4   1 100  68 101  87 101  88 100
M  END
> <chiral flag>
0

> <version>
0

> <s_m_source_file>
/data/baiqing/PycharmProjects/Reinvent-master-3.2/result/LINK_invent/BTK/process_docking_weight1_custom_sum_contain_oxygen_bond_distance_aromatic_linkinvent_7_9_3/rearranged_h_0023.sdf

> <i_m_source_file_index>
36

> <r_mmod_Potential_Energy-OPLS-2005>
2.69551563262939

> <r_mmod_Stretch_Energy-OPLS-2005>
40.8346824645996

> <r_mmod_Bend_Energy-OPLS-2005>
129.789764404297

> <r_mmod_Torsional_Energy-OPLS-2005>
310.5673828125

> <r_mmod_Improper_Torsional_Energy-OPLS-2005>
9.17458152770996

> <r_mmod_Van_der_Waal_Energy-OPLS-2005>
168.017440795898

> <r_mmod_Electrostatic_Energy-OPLS-2005>
-206.301773071289

> <r_mmod_Solvation_Energy-OPLS-2005>
-474.437103271484

> <b_mmod_Minimization_Converged-OPLS-2005>
0

> <r_mmod_RMS_Derivative-OPLS-2005>
2.8141975402832

$$$$
36
                    3D
 Structure written by MMmdl.
188196  0  0  1  0            999 V2000
  -31.1019  -14.0075   20.7896 C   0  0  0  0  0  0
  -30.4205  -12.2369   19.3058 C   0  0  0  0  0  0
  -29.4566  -12.5738   18.1632 C   0  0  0  0  0  0
  -28.0117  -12.3922   18.6361 C   0  0  0  0  0  0
  -27.7059  -13.2178   19.9101 C   0  0  2  0  0  0
  -28.7811  -12.9827   21.0199 C   0  0  0  0  0  0
  -25.2762  -13.8156   20.5769 C   0  0  0  0  0  0
  -24.1994  -13.0437   20.9169 C   0  0  0  0  0  0
  -24.6570  -11.6898   20.8770 C   0  0  0  0  0  0
  -23.9195  -10.4271   21.0416 C   0  0  0  0  0  0
  -24.3653   -9.4145   21.9200 C   0  0  0  0  0  0
  -23.6267   -8.2250   22.0827 C   0  0  0  0  0  0
  -22.4266   -8.0313   21.3583 C   0  0  0  0  0  0
  -21.9918   -9.0318   20.4702 C   0  0  0  0  0  0
  -22.7351  -10.2128   20.3079 C   0  0  0  0  0  0
  -21.6869   -6.0749   22.5252 C   0  0  0  0  0  0
  -21.4058   -6.5640   23.8187 C   0  0  0  0  0  0
  -21.3635   -5.6801   24.9146 C   0  0  0  0  0  0
  -21.5995   -4.3058   24.7234 C   0  0  0  0  0  0
  -21.8808   -3.8136   23.4362 C   0  0  0  0  0  0
  -21.9223   -4.6957   22.3402 C   0  0  0  0  0  0
  -22.7966  -13.5197   21.1774 C   0  0  0  0  0  0
  -22.1687   -4.2095   21.1006 F   0  0  0  0  0  0
  -21.5581   -3.4532   25.7773 F   0  0  0  0  0  0
  -30.1589  -13.0853   20.4767 N   0  0  0  0  0  0
  -26.3353  -12.9407   20.3692 N   0  0  0  0  0  0
  -25.9558  -11.6503   20.5938 N   0  0  0  0  0  0
  -22.0610  -12.8241   22.0290 N   0  0  0  0  0  0
  -25.4448  -15.1910   20.4171 N   0  0  0  0  0  0
  -31.4337  -14.8824   19.9908 O   0  0  0  0  0  0
  -21.6651   -6.8898   21.4224 O   0  0  0  0  0  0
  -22.3671  -14.5515   20.6598 O   0  0  0  0  0  0
  -24.6106  -31.8705   23.2116 C   0  0  0  0  0  0
  -25.9003  -32.4851   23.8423 C   0  0  1  0  0  0
  -27.2442  -27.4573   20.0725 C   0  0  0  0  0  0
  -25.5867  -33.8632   24.2351 N   0  0  0  0  0  0
  -23.3996  -30.4901   21.5526 C   0  0  2  0  0  0
  -24.8469  -28.9567   20.1202 C   0  0  0  0  0  0
  -22.7393  -29.4653   22.5024 C   0  0  0  0  0  0
  -18.0261  -28.1393   22.8505 C   0  0  0  0  0  0
  -24.1475  -36.7328   23.2622 C   0  0  0  0  0  0
  -25.9244  -30.8397   21.3620 C   0  0  0  0  0  0
  -26.0049  -29.4701   20.7177 C   0  0  0  0  0  0
  -27.2016  -28.7209   20.7031 C   0  0  0  0  0  0
  -26.0620  -26.9450   19.4918 C   0  0  0  0  0  0
  -24.8679  -27.6899   19.5118 C   0  0  0  0  0  0
  -23.6081  -29.8186   20.1696 C   0  0  0  0  0  0
  -25.4093  -36.3126   24.0348 C   0  0  1  0  0  0
  -20.5841  -28.3667   23.1355 C   0  0  2  0  0  0
  -20.6760  -26.9406   22.5452 C   0  0  0  0  0  0
  -19.5742  -26.6401   21.5241 C   0  0  0  0  0  0
  -18.1905  -26.7953   22.1628 C   0  0  0  0  0  0
  -19.1502  -28.8846   23.2934 C   0  0  0  0  0  0
  -18.9426  -30.1449   23.8948 C   0  0  0  0  0  0
  -17.6433  -30.6599   24.0570 C   0  0  0  0  0  0
  -25.9026  -34.9489   23.5159 C   0  0  0  0  0  0
  -16.5316  -29.9100   23.6323 C   0  0  0  0  0  0
  -16.7242  -28.6508   23.0355 C   0  0  0  0  0  0
  -26.4444  -31.6610   25.0722 C   0  0  0  0  0  0
  -25.3732  -31.3662   26.1485 C   0  0  0  0  0  0
  -27.0239  -30.3053   24.6054 C   0  0  0  0  0  0
  -27.6075  -32.4288   25.7461 C   0  0  0  0  0  0
  -27.5631  -37.1748   24.8398 C   0  0  0  0  0  0
  -21.4117  -29.3038   22.3776 N   0  0  0  0  0  0
  -26.4254  -37.3859   23.9481 N   0  0  0  0  0  0
  -24.6641  -31.0805   22.1024 N   0  0  0  0  0  0
  -23.4176  -28.8222   23.3090 O   0  0  0  0  0  0
  -28.4474  -26.7817   20.0428 O   0  0  0  0  0  0
  -26.5605  -34.8924   22.4729 O   0  0  0  0  0  0
  -23.5317  -32.1461   23.7534 O   0  0  0  0  0  0
  -30.2780  -20.3970   15.7011 C   0  0  0  0  0  0
  -31.0645  -21.0519   16.6749 C   0  0  0  0  0  0
  -31.7614  -20.2580   17.6230 C   0  0  0  0  0  0
  -31.5321  -18.8553   17.5962 C   0  0  0  0  0  0
  -30.7524  -18.3026   16.5498 C   0  0  0  0  0  0
  -32.7015  -20.8924   18.6586 C   0  0  0  0  0  0
  -35.2368  -10.7487   23.1279 C   0  0  0  0  0  0
  -31.9761  -17.9763   18.7661 C   0  0  0  0  0  0
  -31.1556  -22.5826   16.6262 C   0  0  0  0  0  0
  -34.2049  -11.7619   23.6780 C   0  0  0  0  0  0
  -33.3467  -17.2951   18.6366 C   0  0  0  0  0  0
  -33.8913  -17.0116   20.0557 C   0  0  0  0  0  0
  -34.7135  -15.7252   20.2546 C   0  0  0  0  0  0
  -32.7466  -11.5426   23.1656 C   0  0  0  0  0  0
  -34.2402  -14.8590   21.4534 C   0  0  0  0  0  0
  -30.1482  -25.6033   18.8195 C   0  0  0  0  0  0
  -31.9178  -12.8421   22.8913 C   0  0  0  0  0  0
  -33.5000  -13.5631   21.0434 C   0  0  0  0  0  0
  -30.5300  -24.7644   17.5785 C   0  0  0  0  0  0
  -28.6361  -25.7606   19.0625 C   0  0  0  0  0  0
  -30.1467  -19.0621   15.6196 N   0  0  0  0  0  0
  -32.1064  -13.4577   21.5486 N   0  0  0  0  0  0
  -30.6165  -23.3003   17.8074 N   0  3  0  0  0  0
  -30.5079  -16.5935   16.4143 Cl  0  0  0  0  0  0
  -31.4421  -12.3521   18.9392 H   0  0  0  0  0  0
  -30.3262  -11.1895   19.5903 H   0  0  0  0  0  0
  -29.6537  -11.9365   17.2977 H   0  0  0  0  0  0
  -29.6251  -13.5967   17.8206 H   0  0  0  0  0  0
  -27.8491  -11.3351   18.8337 H   0  0  0  0  0  0
  -27.3201  -12.6741   17.8398 H   0  0  0  0  0  0
  -27.7554  -14.2744   19.6411 H   0  0  0  0  0  0
  -28.6631  -11.9869   21.4407 H   0  0  0  0  0  0
  -28.6448  -13.6783   21.8493 H   0  0  0  0  0  0
  -25.2794   -9.5512   22.4734 H   0  0  0  0  0  0
  -23.9910   -7.4605   22.7562 H   0  0  0  0  0  0
  -21.0827   -8.8868   19.9040 H   0  0  0  0  0  0
  -22.3865  -10.9659   19.6153 H   0  0  0  0  0  0
  -21.2100   -7.6152   23.9647 H   0  0  0  0  0  0
  -21.1454   -6.0577   25.9034 H   0  0  0  0  0  0
  -22.0625   -2.7583   23.2904 H   0  0  0  0  0  0
  -22.4293  -11.9931   22.4709 H   0  0  0  0  0  0
  -21.1189  -13.1201   22.2445 H   0  0  0  0  0  0
  -24.6688  -15.8366   20.5089 H   0  0  0  0  0  0
  -26.2958  -15.6390   20.1038 H   0  0  0  0  0  0
  -26.7076  -32.5562   23.1217 H   0  0  0  0  0  0
  -24.9995  -33.9837   25.0474 H   0  0  0  0  0  0
  -22.6887  -31.3071   21.4090 H   0  0  0  0  0  0
  -23.3804  -35.9583   23.3143 H   0  0  0  0  0  0
  -24.3638  -36.9094   22.2072 H   0  0  0  0  0  0
  -23.7098  -37.6437   23.6715 H   0  0  0  0  0  0
  -26.0198  -31.6046   20.5870 H   0  0  0  0  0  0
  -26.8195  -30.9096   21.9697 H   0  0  0  0  0  0
  -28.0972  -29.1175   21.1615 H   0  0  0  0  0  0
  -26.0410  -25.9746   19.0163 H   0  0  0  0  0  0
  -23.9743  -27.2874   19.0554 H   0  0  0  0  0  0
  -23.7078  -30.5867   19.4020 H   0  0  0  0  0  0
  -22.7383  -29.2262   19.8802 H   0  0  0  0  0  0
  -25.1248  -36.1991   25.0843 H   0  0  0  0  0  0
  -20.9921  -28.3215   24.1483 H   0  0  0  0  0  0
  -20.5667  -26.2271   23.3648 H   0  0  0  0  0  0
  -21.6618  -26.7487   22.1204 H   0  0  0  0  0  0
  -19.6891  -25.6318   21.1259 H   0  0  0  0  0  0
  -19.6695  -27.3232   20.6792 H   0  0  0  0  0  0
  -17.4200  -26.6748   21.3997 H   0  0  0  0  0  0
  -18.0265  -26.0072   22.8988 H   0  0  0  0  0  0
  -19.7895  -30.7252   24.2366 H   0  0  0  0  0  0
  -17.4968  -31.6289   24.5159 H   0  0  0  0  0  0
  -15.5313  -30.3019   23.7627 H   0  0  0  0  0  0
  -15.8635  -28.0825   22.7086 H   0  0  0  0  0  0
  -24.5954  -30.6970   25.7795 H   0  0  0  0  0  0
  -24.8860  -32.2770   26.4962 H   0  0  0  0  0  0
  -25.8108  -30.8811   27.0226 H   0  0  0  0  0  0
  -26.2737  -29.6846   24.1141 H   0  0  0  0  0  0
  -27.4042  -29.7262   25.4481 H   0  0  0  0  0  0
  -27.8567  -30.4370   23.9149 H   0  0  0  0  0  0
  -27.2752  -33.3600   26.2074 H   0  0  0  0  0  0
  -28.3861  -32.6838   25.0247 H   0  0  0  0  0  0
  -28.0769  -31.8365   26.5336 H   0  0  0  0  0  0
  -28.2416  -38.0270   24.7841 H   0  0  0  0  0  0
  -28.1358  -36.2861   24.5713 H   0  0  0  0  0  0
  -27.2428  -37.0746   25.8783 H   0  0  0  0  0  0
  -20.9301  -29.8723   21.6948 H   0  0  0  0  0  0
  -26.0134  -38.2875   24.1751 H   0  0  0  0  0  0
  -29.7310  -20.9573   14.9532 H   0  0  0  0  0  0
  -33.2734  -21.7198   18.2307 H   0  0  0  0  0  0
  -33.4513  -20.1968   19.0374 H   0  0  0  0  0  0
  -32.1452  -21.2702   19.5172 H   0  0  0  0  0  0
  -36.2399  -10.9635   23.4942 H   0  0  0  0  0  0
  -35.2989  -10.7887   22.0382 H   0  0  0  0  0  0
  -35.0090   -9.7133   23.4036 H   0  0  0  0  0  0
  -31.2185  -17.2164   18.9589 H   0  0  0  0  0  0
  -31.9463  -18.5936   19.6664 H   0  0  0  0  0  0
  -30.6036  -22.9345   15.7506 H   0  0  0  0  0  0
  -32.1892  -22.8801   16.4686 H   0  0  0  0  0  0
  -34.5563  -12.7665   23.4412 H   0  0  0  0  0  0
  -34.2182  -11.7386   24.7681 H   0  0  0  0  0  0
  -34.0604  -17.9249   18.0979 H   0  0  0  0  0  0
  -33.2365  -16.3883   18.0408 H   0  0  0  0  0  0
  -33.0594  -17.0139   20.7555 H   0  0  0  0  0  0
  -34.4964  -17.8706   20.3615 H   0  0  0  0  0  0
  -35.7479  -16.0174   20.4276 H   0  0  0  0  0  0
  -34.7273  -15.1398   19.3380 H   0  0  0  0  0  0
  -32.2222  -10.9464   23.9226 H   0  0  0  0  0  0
  -32.7320  -10.9184   22.2692 H   0  0  0  0  0  0
  -33.6532  -15.4392   22.1694 H   0  0  0  0  0  0
  -35.1304  -14.5614   22.0103 H   0  0  0  0  0  0
  -30.5421  -26.6081   18.6517 H   0  0  0  0  0  0
  -30.6541  -25.2388   19.7123 H   0  0  0  0  0  0
  -32.1242  -13.5885   23.6615 H   0  0  0  0  0  0
  -30.8618  -12.5959   23.0206 H   0  0  0  0  0  0
  -34.0963  -12.7024   21.3218 H   0  0  0  0  0  0
  -33.4989  -13.4474   19.9545 H   0  0  0  0  0  0
  -31.5042  -25.1015   17.2291 H   0  0  0  0  0  0
  -29.8331  -24.9785   16.7667 H   0  0  0  0  0  0
  -28.1973  -24.8208   19.4014 H   0  0  0  0  0  0
  -28.1546  -26.0362   18.1199 H   0  0  0  0  0  0
  -31.2272  -23.1315   18.5889 H   0  0  0  0  0  0
  -29.7030  -22.9451   18.0408 H   0  0  0  0  0  0
  1 25  1  0  0  0
  1 30  2  0  0  0
  1 92  1  0  0  0
  2  3  1  0  0  0
  2 25  1  0  0  0
  2 95  1  0  0  0
  2 96  1  0  0  0
  3  4  1  0  0  0
  3 97  1  0  0  0
  3 98  1  0  0  0
  4  5  1  0  0  0
  4 99  1  0  0  0
  4100  1  0  0  0
  5  6  1  0  0  0
  5 26  1  0  0  0
  5101  1  0  0  0
  6 25  1  0  0  0
  6102  1  0  0  0
  6103  1  0  0  0
  7  8  2  0  0  0
  7 26  1  0  0  0
  7 29  1  0  0  0
  8  9  1  0  0  0
  8 22  1  0  0  0
  9 10  1  0  0  0
  9 27  2  0  0  0
 10 11  2  0  0  0
 10 15  1  0  0  0
 11 12  1  0  0  0
 11104  1  0  0  0
 12 13  2  0  0  0
 12105  1  0  0  0
 13 14  1  0  0  0
 13 31  1  0  0  0
 14 15  2  0  0  0
 14106  1  0  0  0
 15107  1  0  0  0
 16 17  2  0  0  0
 16 21  1  0  0  0
 16 31  1  0  0  0
 17 18  1  0  0  0
 17108  1  0  0  0
 18 19  2  0  0  0
 18109  1  0  0  0
 19 20  1  0  0  0
 19 24  1  0  0  0
 20 21  2  0  0  0
 20110  1  0  0  0
 21 23  1  0  0  0
 22 28  1  0  0  0
 22 32  2  0  0  0
 26 27  1  0  0  0
 28111  1  0  0  0
 28112  1  0  0  0
 29113  1  0  0  0
 29114  1  0  0  0
 33 34  1  0  0  0
 33 66  1  0  0  0
 33 70  2  0  0  0
 34 36  1  0  0  0
 34 59  1  0  0  0
 34115  1  0  0  0
 35 44  2  0  0  0
 35 45  1  0  0  0
 35 68  1  0  0  0
 36 56  1  0  0  0
 36116  1  0  0  0
 37 39  1  0  0  0
 37 47  1  0  0  0
 37 66  1  0  0  0
 37117  1  0  0  0
 38 43  2  0  0  0
 38 46  1  0  0  0
 38 47  1  0  0  0
 39 64  1  0  0  0
 39 67  2  0  0  0
 40 52  1  0  0  0
 40 53  2  0  0  0
 40 58  1  0  0  0
 41118  1  0  0  0
 41119  1  0  0  0
 41120  1  0  0  0
 41 48  1  0  0  0
 42 43  1  0  0  0
 42 66  1  0  0  0
 42121  1  0  0  0
 42122  1  0  0  0
 43 44  1  0  0  0
 44123  1  0  0  0
 45 46  2  0  0  0
 45124  1  0  0  0
 46125  1  0  0  0
 47126  1  0  0  0
 47127  1  0  0  0
 48 56  1  0  0  0
 48 65  1  0  0  0
 48128  1  0  0  0
 49 50  1  0  0  0
 49 53  1  0  0  0
 49 64  1  0  0  0
 49129  1  0  0  0
 50 51  1  0  0  0
 50130  1  0  0  0
 50131  1  0  0  0
 51 52  1  0  0  0
 51132  1  0  0  0
 51133  1  0  0  0
 52134  1  0  0  0
 52135  1  0  0  0
 53 54  1  0  0  0
 54 55  2  0  0  0
 54136  1  0  0  0
 55 57  1  0  0  0
 55137  1  0  0  0
 56 69  2  0  0  0
 57 58  2  0  0  0
 57138  1  0  0  0
 58139  1  0  0  0
 59 60  1  0  0  0
 59 61  1  0  0  0
 59 62  1  0  0  0
 60140  1  0  0  0
 60141  1  0  0  0
 60142  1  0  0  0
 61143  1  0  0  0
 61144  1  0  0  0
 61145  1  0  0  0
 62146  1  0  0  0
 62147  1  0  0  0
 62148  1  0  0  0
 63 65  1  0  0  0
 63149  1  0  0  0
 63150  1  0  0  0
 63151  1  0  0  0
 64152  1  0  0  0
 65153  1  0  0  0
 68 90  1  0  0  0
 71 72  2  0  0  0
 71 91  1  0  0  0
 71154  1  0  0  0
 72 73  1  0  0  0
 72 79  1  0  0  0
 73 74  2  0  0  0
 73 76  1  0  0  0
 74 75  1  0  0  0
 74 78  1  0  0  0
 75 91  2  0  0  0
 75 94  1  0  0  0
 76155  1  0  0  0
 76156  1  0  0  0
 76157  1  0  0  0
 77 80  1  0  0  0
 77158  1  0  0  0
 77159  1  0  0  0
 77160  1  0  0  0
 78 81  1  0  0  0
 78161  1  0  0  0
 78162  1  0  0  0
 79 93  1  0  0  0
 79163  1  0  0  0
 79164  1  0  0  0
 80 84  1  0  0  0
 80165  1  0  0  0
 80166  1  0  0  0
 81 82  1  0  0  0
 81167  1  0  0  0
 81168  1  0  0  0
 82 83  1  0  0  0
 82169  1  0  0  0
 82170  1  0  0  0
 83 85  1  0  0  0
 83171  1  0  0  0
 83172  1  0  0  0
 84 87  1  0  0  0
 84173  1  0  0  0
 84174  1  0  0  0
 85 88  1  0  0  0
 85175  1  0  0  0
 85176  1  0  0  0
 86 89  1  0  0  0
 86 90  1  0  0  0
 86177  1  0  0  0
 86178  1  0  0  0
 87 92  1  0  0  0
 87179  1  0  0  0
 87180  1  0  0  0
 88 92  1  0  0  0
 88181  1  0  0  0
 88182  1  0  0  0
 89 93  1  0  0  0
 89183  1  0  0  0
 89184  1  0  0  0
 90185  1  0  0  0
 90186  1  0  0  0
 93187  1  0  0  0
 93188  1  0  0  0
M  CHG  1  93   1
M  ISO  4   1 100  68 101  90 101  92 100
M  END
> <chiral flag>
0

> <version>
0

> <s_m_source_file>
/data/baiqing/PycharmProjects/Reinvent-master-3.2/result/LINK_invent/BTK/process_docking_weight1_custom_sum_contain_oxygen_bond_distance_aromatic_linkinvent_7_9_3/rearranged_h_0023.sdf

> <i_m_source_file_index>
37

> <r_mmod_Potential_Energy-OPLS-2005>
52.8539848327637

> <r_mmod_Stretch_Energy-OPLS-2005>
50.4984092712402

> <r_mmod_Bend_Energy-OPLS-2005>
122.396202087402

> <r_mmod_Torsional_Energy-OPLS-2005>
386.794525146484

> <r_mmod_Improper_Torsional_Energy-OPLS-2005>
30.987247467041

> <r_mmod_Van_der_Waal_Energy-OPLS-2005>
157.555374145508

> <r_mmod_Electrostatic_Energy-OPLS-2005>
-296.069183349609

> <r_mmod_Solvation_Energy-OPLS-2005>
-454.515258789062

> <b_mmod_Minimization_Converged-OPLS-2005>
0

> <r_mmod_RMS_Derivative-OPLS-2005>
8.92638778686523

$$$$
37
                    3D
 Structure written by MMmdl.
168176  0  0  1  0            999 V2000
  -30.7825  -14.3470   20.6853 C   0  0  0  0  0  0
  -30.4094  -12.2810   19.3972 C   0  0  0  0  0  0
  -29.4811  -12.5219   18.1936 C   0  0  0  0  0  0
  -28.0065  -12.3773   18.6111 C   0  0  0  0  0  0
  -27.6647  -13.2031   19.8795 C   0  0  2  0  0  0
  -28.7012  -12.9542   20.9977 C   0  0  0  0  0  0
  -25.2596  -13.8149   20.5673 C   0  0  0  0  0  0
  -24.1840  -13.0442   20.9150 C   0  0  0  0  0  0
  -24.6378  -11.6903   20.8710 C   0  0  0  0  0  0
  -23.9046  -10.4293   21.0389 C   0  0  0  0  0  0
  -24.3604   -9.4210   21.9174 C   0  0  0  0  0  0
  -23.6284   -8.2248   22.0752 C   0  0  0  0  0  0
  -22.4268   -8.0276   21.3541 C   0  0  0  0  0  0
  -21.9893   -9.0245   20.4652 C   0  0  0  0  0  0
  -22.7213  -10.2129   20.3053 C   0  0  0  0  0  0
  -21.6852   -6.0730   22.5276 C   0  0  0  0  0  0
  -21.4017   -6.5634   23.8207 C   0  0  0  0  0  0
  -21.3661   -5.6791   24.9170 C   0  0  0  0  0  0
  -21.6042   -4.3051   24.7224 C   0  0  0  0  0  0
  -21.8823   -3.8140   23.4343 C   0  0  0  0  0  0
  -21.9194   -4.6959   22.3397 C   0  0  0  0  0  0
  -22.7865  -13.5243   21.1823 C   0  0  0  0  0  0
  -22.1662   -4.2142   21.0979 F   0  0  0  0  0  0
  -21.5628   -3.4539   25.7737 F   0  0  0  0  0  0
  -30.0468  -13.2291   20.4605 N   0  0  0  0  0  0
  -26.3032  -12.9320   20.3377 N   0  0  0  0  0  0
  -25.9304  -11.6476   20.5753 N   0  0  0  0  0  0
  -22.0512  -12.8243   22.0393 N   0  0  0  0  0  0
  -25.4334  -15.1873   20.4089 N   0  0  0  0  0  0
  -31.7872  -14.6385   20.0290 O   0  0  0  0  0  0
  -21.6635   -6.8871   21.4235 O   0  0  0  0  0  0
  -22.3546  -14.5548   20.6668 O   0  0  0  0  0  0
  -24.6095  -31.8678   23.2107 C   0  0  0  0  0  0
  -25.8995  -32.4829   23.8394 C   0  0  1  0  0  0
  -27.2383  -27.4666   20.0976 C   0  0  0  0  0  0
  -25.5852  -33.8628   24.2302 N   0  0  0  0  0  0
  -23.3986  -30.4895   21.5496 C   0  0  2  0  0  0
  -24.8461  -28.9577   20.1130 C   0  0  0  0  0  0
  -22.7387  -29.4638   22.4983 C   0  0  0  0  0  0
  -18.0273  -28.1393   22.8454 C   0  0  0  0  0  0
  -24.1485  -36.7340   23.2637 C   0  0  0  0  0  0
  -25.9245  -30.8426   21.3623 C   0  0  0  0  0  0
  -26.0025  -29.4824   20.7036 C   0  0  0  0  0  0
  -27.2031  -28.7450   20.6882 C   0  0  0  0  0  0
  -26.0697  -26.9405   19.5085 C   0  0  0  0  0  0
  -24.8726  -27.6850   19.5119 C   0  0  0  0  0  0
  -23.6045  -29.8185   20.1647 C   0  0  0  0  0  0
  -25.4108  -36.3117   24.0323 C   0  0  1  0  0  0
  -20.5858  -28.3654   23.1323 C   0  0  2  0  0  0
  -20.6743  -26.9380   22.5444 C   0  0  0  0  0  0
  -19.5748  -26.6380   21.5207 C   0  0  0  0  0  0
  -18.1915  -26.7942   22.1593 C   0  0  0  0  0  0
  -19.1520  -28.8843   23.2890 C   0  0  0  0  0  0
  -18.9452  -30.1457   23.8885 C   0  0  0  0  0  0
  -17.6460  -30.6576   24.0582 C   0  0  0  0  0  0
  -25.9027  -34.9480   23.5116 C   0  0  0  0  0  0
  -16.5346  -29.9076   23.6347 C   0  0  0  0  0  0
  -16.7260  -28.6519   23.0299 C   0  0  0  0  0  0
  -26.4444  -31.6611   25.0717 C   0  0  0  0  0  0
  -25.3732  -31.3731   26.1488 C   0  0  0  0  0  0
  -27.0248  -30.3021   24.6133 C   0  0  0  0  0  0
  -27.6020  -32.4340   25.7480 C   0  0  0  0  0  0
  -27.5590  -37.1802   24.8449 C   0  0  0  0  0  0
  -21.4119  -29.3014   22.3726 N   0  0  0  0  0  0
  -26.4300  -37.3794   23.9390 N   0  0  0  0  0  0
  -24.6622  -31.0792   22.1000 N   0  0  0  0  0  0
  -23.4169  -28.8170   23.3007 O   0  0  0  0  0  0
  -28.4079  -26.7482   20.1292 O   0  0  0  0  0  0
  -26.5629  -34.8937   22.4704 O   0  0  0  0  0  0
  -23.5300  -32.1433   23.7519 O   0  0  0  0  0  0
  -29.5543  -18.4995   25.5485 C   0  0  0  0  0  0
  -29.9085  -17.1496   25.7201 C   0  0  0  0  0  0
  -29.6657  -19.1168   24.2877 C   0  0  0  0  0  0
  -30.5393  -17.0187   23.3512 C   0  0  0  0  0  0
  -30.4140  -16.4112   24.6272 C   0  0  0  0  0  0
  -30.1362  -18.3718   23.1796 C   0  0  0  0  0  0
  -29.7498  -16.5067   27.0860 C   0  0  0  0  0  0
  -29.2908  -20.5879   24.1688 C   0  0  0  0  0  0
  -31.1753  -16.2405   22.1986 C   0  0  0  0  0  0
  -27.7872  -20.8040   23.9200 C   0  0  0  0  0  0
  -27.3644  -22.2755   24.0837 C   0  0  0  0  0  0
  -27.6959  -23.1860   22.8835 C   0  0  0  0  0  0
  -28.0801  -24.6131   23.3201 C   0  0  0  0  0  0
  -27.7862  -25.7250   22.2967 C   0  0  0  0  0  0
  -28.3644  -25.5261   20.8747 C   0  0  0  0  0  0
  -30.3980  -15.0985   21.7212 N   0  0  0  0  0  0
  -30.8937  -14.7632   24.8738 Cl  0  0  0  0  0  0
  -30.2134  -19.1332   21.6228 Cl  0  0  0  0  0  0
  -31.4539  -12.3699   19.0934 H   0  0  0  0  0  0
  -30.2978  -11.2594   19.7638 H   0  0  0  0  0  0
  -29.7118  -11.8178   17.3927 H   0  0  0  0  0  0
  -29.6531  -13.5197   17.7863 H   0  0  0  0  0  0
  -27.8147  -11.3189   18.7936 H   0  0  0  0  0  0
  -27.3520  -12.6652   17.7873 H   0  0  0  0  0  0
  -27.7222  -14.2567   19.6037 H   0  0  0  0  0  0
  -28.6557  -11.9154   21.3286 H   0  0  0  0  0  0
  -28.4514  -13.5483   21.8770 H   0  0  0  0  0  0
  -25.2756   -9.5687   22.4737 H   0  0  0  0  0  0
  -23.9996   -7.4640   22.7471 H   0  0  0  0  0  0
  -21.0822   -8.8758   19.8960 H   0  0  0  0  0  0
  -22.3663  -10.9663   19.6160 H   0  0  0  0  0  0
  -21.2013   -7.6146   23.9706 H   0  0  0  0  0  0
  -21.1480   -6.0524   25.9073 H   0  0  0  0  0  0
  -22.0601   -2.7606   23.2846 H   0  0  0  0  0  0
  -22.4134  -11.9905   22.4784 H   0  0  0  0  0  0
  -21.1138  -13.1271   22.2612 H   0  0  0  0  0  0
  -24.6731  -15.8479   20.5266 H   0  0  0  0  0  0
  -26.2975  -15.6250   20.1157 H   0  0  0  0  0  0
  -26.7056  -32.5529   23.1160 H   0  0  0  0  0  0
  -24.9905  -33.9808   25.0379 H   0  0  0  0  0  0
  -22.6872  -31.3055   21.4090 H   0  0  0  0  0  0
  -23.3736  -35.9686   23.3315 H   0  0  0  0  0  0
  -24.3577  -36.8955   22.2049 H   0  0  0  0  0  0
  -23.7272  -37.6557   23.6660 H   0  0  0  0  0  0
  -26.0445  -31.6162   20.6023 H   0  0  0  0  0  0
  -26.8098  -30.8880   21.9857 H   0  0  0  0  0  0
  -28.0959  -29.1396   21.1531 H   0  0  0  0  0  0
  -26.0846  -25.9615   19.0505 H   0  0  0  0  0  0
  -23.9824  -27.2739   19.0542 H   0  0  0  0  0  0
  -23.7041  -30.5929   19.4039 H   0  0  0  0  0  0
  -22.7310  -29.2305   19.8758 H   0  0  0  0  0  0
  -25.1297  -36.1996   25.0821 H   0  0  0  0  0  0
  -20.9961  -28.3229   24.1438 H   0  0  0  0  0  0
  -20.5583  -26.2270   23.3644 H   0  0  0  0  0  0
  -21.6624  -26.7365   22.1288 H   0  0  0  0  0  0
  -19.6912  -25.6289   21.1236 H   0  0  0  0  0  0
  -19.6732  -27.3189   20.6744 H   0  0  0  0  0  0
  -17.4199  -26.6697   21.3975 H   0  0  0  0  0  0
  -18.0279  -26.0105   22.9008 H   0  0  0  0  0  0
  -19.7941  -30.7278   24.2217 H   0  0  0  0  0  0
  -17.5017  -31.6244   24.5212 H   0  0  0  0  0  0
  -15.5347  -30.2967   23.7694 H   0  0  0  0  0  0
  -15.8670  -28.0875   22.6947 H   0  0  0  0  0  0
  -24.5980  -30.6965   25.7882 H   0  0  0  0  0  0
  -24.8842  -32.2873   26.4842 H   0  0  0  0  0  0
  -25.8144  -30.9034   27.0294 H   0  0  0  0  0  0
  -26.2785  -29.6813   24.1164 H   0  0  0  0  0  0
  -27.3925  -29.7245   25.4629 H   0  0  0  0  0  0
  -27.8668  -30.4270   23.9329 H   0  0  0  0  0  0
  -27.2599  -33.3585   26.2153 H   0  0  0  0  0  0
  -28.3775  -32.7011   25.0284 H   0  0  0  0  0  0
  -28.0770  -31.8436   26.5331 H   0  0  0  0  0  0
  -28.2630  -38.0078   24.7479 H   0  0  0  0  0  0
  -28.1068  -36.2617   24.6284 H   0  0  0  0  0  0
  -27.2318  -37.1472   25.8857 H   0  0  0  0  0  0
  -20.9266  -29.8776   21.6998 H   0  0  0  0  0  0
  -26.0205  -38.2876   24.1407 H   0  0  0  0  0  0
  -29.1940  -19.0714   26.3920 H   0  0  0  0  0  0
  -29.3187  -17.2007   27.8079 H   0  0  0  0  0  0
  -30.7145  -16.1737   27.4702 H   0  0  0  0  0  0
  -29.0872  -15.6440   27.0169 H   0  0  0  0  0  0
  -29.8840  -21.0819   23.3995 H   0  0  0  0  0  0
  -29.5797  -21.0764   25.1014 H   0  0  0  0  0  0
  -32.1435  -15.8740   22.5445 H   0  0  0  0  0  0
  -31.4138  -16.8884   21.3565 H   0  0  0  0  0  0
  -27.2317  -20.2145   24.6507 H   0  0  0  0  0  0
  -27.4931  -20.4194   22.9419 H   0  0  0  0  0  0
  -27.8132  -22.6673   24.9972 H   0  0  0  0  0  0
  -26.2870  -22.3159   24.2544 H   0  0  0  0  0  0
  -26.8324  -23.2095   22.2164 H   0  0  0  0  0  0
  -28.5127  -22.7678   22.2948 H   0  0  0  0  0  0
  -29.1357  -24.6325   23.5966 H   0  0  0  0  0  0
  -27.5343  -24.8734   24.2286 H   0  0  0  0  0  0
  -28.1825  -26.6558   22.7045 H   0  0  0  0  0  0
  -26.7067  -25.8671   22.2321 H   0  0  0  0  0  0
  -27.8097  -24.7647   20.3245 H   0  0  0  0  0  0
  -29.3914  -25.1679   20.9511 H   0  0  0  0  0  0
  -29.5916  -14.8057   22.2511 H   0  0  0  0  0  0
  1 25  1  0  0  0
  1 30  2  0  0  0
  1 86  1  0  0  0
  2  3  1  0  0  0
  2 25  1  0  0  0
  2 89  1  0  0  0
  2 90  1  0  0  0
  3  4  1  0  0  0
  3 91  1  0  0  0
  3 92  1  0  0  0
  4  5  1  0  0  0
  4 93  1  0  0  0
  4 94  1  0  0  0
  5  6  1  0  0  0
  5 26  1  0  0  0
  5 95  1  0  0  0
  6 25  1  0  0  0
  6 96  1  0  0  0
  6 97  1  0  0  0
  7  8  2  0  0  0
  7 26  1  0  0  0
  7 29  1  0  0  0
  8  9  1  0  0  0
  8 22  1  0  0  0
  9 10  1  0  0  0
  9 27  2  0  0  0
 10 11  2  0  0  0
 10 15  1  0  0  0
 11 12  1  0  0  0
 11 98  1  0  0  0
 12 13  2  0  0  0
 12 99  1  0  0  0
 13 14  1  0  0  0
 13 31  1  0  0  0
 14 15  2  0  0  0
 14100  1  0  0  0
 15101  1  0  0  0
 16 17  2  0  0  0
 16 21  1  0  0  0
 16 31  1  0  0  0
 17 18  1  0  0  0
 17102  1  0  0  0
 18 19  2  0  0  0
 18103  1  0  0  0
 19 20  1  0  0  0
 19 24  1  0  0  0
 20 21  2  0  0  0
 20104  1  0  0  0
 21 23  1  0  0  0
 22 28  1  0  0  0
 22 32  2  0  0  0
 26 27  1  0  0  0
 28105  1  0  0  0
 28106  1  0  0  0
 29107  1  0  0  0
 29108  1  0  0  0
 33 34  1  0  0  0
 33 66  1  0  0  0
 33 70  2  0  0  0
 34 36  1  0  0  0
 34 59  1  0  0  0
 34109  1  0  0  0
 35 44  2  0  0  0
 35 45  1  0  0  0
 35 68  1  0  0  0
 36 56  1  0  0  0
 36110  1  0  0  0
 37 39  1  0  0  0
 37 47  1  0  0  0
 37 66  1  0  0  0
 37111  1  0  0  0
 38 43  2  0  0  0
 38 46  1  0  0  0
 38 47  1  0  0  0
 39 64  1  0  0  0
 39 67  2  0  0  0
 40 52  1  0  0  0
 40 53  2  0  0  0
 40 58  1  0  0  0
 41112  1  0  0  0
 41113  1  0  0  0
 41114  1  0  0  0
 41 48  1  0  0  0
 42 43  1  0  0  0
 42 66  1  0  0  0
 42115  1  0  0  0
 42116  1  0  0  0
 43 44  1  0  0  0
 44117  1  0  0  0
 45 46  2  0  0  0
 45118  1  0  0  0
 46119  1  0  0  0
 47120  1  0  0  0
 47121  1  0  0  0
 48 56  1  0  0  0
 48 65  1  0  0  0
 48122  1  0  0  0
 49 50  1  0  0  0
 49 53  1  0  0  0
 49 64  1  0  0  0
 49123  1  0  0  0
 50 51  1  0  0  0
 50124  1  0  0  0
 50125  1  0  0  0
 51 52  1  0  0  0
 51126  1  0  0  0
 51127  1  0  0  0
 52128  1  0  0  0
 52129  1  0  0  0
 53 54  1  0  0  0
 54 55  2  0  0  0
 54130  1  0  0  0
 55 57  1  0  0  0
 55131  1  0  0  0
 56 69  2  0  0  0
 57 58  2  0  0  0
 57132  1  0  0  0
 58133  1  0  0  0
 59 60  1  0  0  0
 59 61  1  0  0  0
 59 62  1  0  0  0
 60134  1  0  0  0
 60135  1  0  0  0
 60136  1  0  0  0
 61137  1  0  0  0
 61138  1  0  0  0
 61139  1  0  0  0
 62140  1  0  0  0
 62141  1  0  0  0
 62142  1  0  0  0
 63 65  1  0  0  0
 63143  1  0  0  0
 63144  1  0  0  0
 63145  1  0  0  0
 64146  1  0  0  0
 65147  1  0  0  0
 68 85  1  0  0  0
 71 72  2  0  0  0
 71 73  1  0  0  0
 71148  1  0  0  0
 72 75  1  0  0  0
 72 77  1  0  0  0
 73 76  2  0  0  0
 73 78  1  0  0  0
 74 75  2  0  0  0
 74 76  1  0  0  0
 74 79  1  0  0  0
 75 87  1  0  0  0
 76 88  1  0  0  0
 77149  1  0  0  0
 77150  1  0  0  0
 77151  1  0  0  0
 78 80  1  0  0  0
 78152  1  0  0  0
 78153  1  0  0  0
 79 86  1  0  0  0
 79154  1  0  0  0
 79155  1  0  0  0
 80 81  1  0  0  0
 80156  1  0  0  0
 80157  1  0  0  0
 81 82  1  0  0  0
 81158  1  0  0  0
 81159  1  0  0  0
 82 83  1  0  0  0
 82160  1  0  0  0
 82161  1  0  0  0
 83 84  1  0  0  0
 83162  1  0  0  0
 83163  1  0  0  0
 84 85  1  0  0  0
 84164  1  0  0  0
 84165  1  0  0  0
 85166  1  0  0  0
 85167  1  0  0  0
 86168  1  0  0  0
M  ISO  4   1 100  68 101  85 101  86 100
M  END
> <chiral flag>
0

> <version>
0

> <s_m_source_file>
/data/baiqing/PycharmProjects/Reinvent-master-3.2/result/LINK_invent/BTK/process_docking_weight1_custom_sum_contain_oxygen_bond_distance_aromatic_linkinvent_7_9_3/rearranged_h_0023.sdf

> <i_m_source_file_index>
38

> <r_mmod_Potential_Energy-OPLS-2005>
-39.5215721130371

> <r_mmod_Stretch_Energy-OPLS-2005>
33.9437408447266

> <r_mmod_Bend_Energy-OPLS-2005>
90.1536712646484

> <r_mmod_Torsional_Energy-OPLS-2005>
235.113204956055

> <r_mmod_Improper_Torsional_Energy-OPLS-2005>
2.15368318557739

> <r_mmod_Van_der_Waal_Energy-OPLS-2005>
156.93913269043

> <r_mmod_Electrostatic_Energy-OPLS-2005>
-380.008331298828

> <r_mmod_Solvation_Energy-OPLS-2005>
-185.743072509766

> <b_mmod_Minimization_Converged-OPLS-2005>
0

> <r_mmod_RMS_Derivative-OPLS-2005>
2.05759716033936

$$$$
38
                    3D
 Structure written by MMmdl.
203212  0  0  1  0            999 V2000
  -30.7618  -14.3462   20.7081 C   0  0  0  0  0  0
  -30.4190  -12.2900   19.3863 C   0  0  0  0  0  0
  -29.4813  -12.5299   18.1886 C   0  0  0  0  0  0
  -28.0064  -12.3821   18.6068 C   0  0  0  0  0  0
  -27.6669  -13.1988   19.8802 C   0  0  2  0  0  0
  -28.7018  -12.9224   20.9917 C   0  0  0  0  0  0
  -25.2609  -13.8148   20.5673 C   0  0  0  0  0  0
  -24.1846  -13.0443   20.9161 C   0  0  0  0  0  0
  -24.6380  -11.6901   20.8720 C   0  0  0  0  0  0
  -23.9046  -10.4296   21.0398 C   0  0  0  0  0  0
  -24.3605   -9.4213   21.9177 C   0  0  0  0  0  0
  -23.6285   -8.2246   22.0751 C   0  0  0  0  0  0
  -22.4267   -8.0281   21.3541 C   0  0  0  0  0  0
  -21.9895   -9.0253   20.4645 C   0  0  0  0  0  0
  -22.7219  -10.2134   20.3051 C   0  0  0  0  0  0
  -21.6853   -6.0732   22.5279 C   0  0  0  0  0  0
  -21.4013   -6.5639   23.8211 C   0  0  0  0  0  0
  -21.3657   -5.6791   24.9174 C   0  0  0  0  0  0
  -21.6047   -4.3053   24.7225 C   0  0  0  0  0  0
  -21.8818   -3.8146   23.4345 C   0  0  0  0  0  0
  -21.9194   -4.6961   22.3405 C   0  0  0  0  0  0
  -22.7870  -13.5246   21.1835 C   0  0  0  0  0  0
  -22.1662   -4.2147   21.0979 F   0  0  0  0  0  0
  -21.5627   -3.4540   25.7738 F   0  0  0  0  0  0
  -30.0476  -13.2190   20.4622 N   0  0  0  0  0  0
  -26.3039  -12.9307   20.3369 N   0  0  0  0  0  0
  -25.9303  -11.6472   20.5747 N   0  0  0  0  0  0
  -22.0513  -12.8245   22.0396 N   0  0  0  0  0  0
  -25.4362  -15.1865   20.4085 N   0  0  0  0  0  0
  -31.7682  -14.6711   20.0694 O   0  0  0  0  0  0
  -21.6636   -6.8875   21.4238 O   0  0  0  0  0  0
  -22.3555  -14.5555   20.6690 O   0  0  0  0  0  0
  -24.6111  -31.8745   23.2154 C   0  0  0  0  0  0
  -25.9034  -32.4844   23.8420 C   0  0  1  0  0  0
  -27.2370  -27.4732   20.0716 C   0  0  0  0  0  0
  -25.5894  -33.8652   24.2348 N   0  0  0  0  0  0
  -23.3922  -30.4983   21.5600 C   0  0  2  0  0  0
  -24.8379  -28.9608   20.1388 C   0  0  0  0  0  0
  -22.7353  -29.4708   22.5090 C   0  0  0  0  0  0
  -18.0279  -28.1335   22.8507 C   0  0  0  0  0  0
  -24.1522  -36.7334   23.2611 C   0  0  0  0  0  0
  -25.9186  -30.8472   21.3616 C   0  0  0  0  0  0
  -25.9987  -29.4783   20.7252 C   0  0  0  0  0  0
  -27.2009  -28.7383   20.6969 C   0  0  0  0  0  0
  -26.0404  -26.9304   19.5557 C   0  0  0  0  0  0
  -24.8596  -27.6838   19.5623 C   0  0  0  0  0  0
  -23.5993  -29.8243   20.1783 C   0  0  0  0  0  0
  -25.4097  -36.3110   24.0366 C   0  0  1  0  0  0
  -20.5835  -28.3625   23.1367 C   0  0  2  0  0  0
  -20.6763  -26.9396   22.5369 C   0  0  0  0  0  0
  -19.5754  -26.6414   21.5145 C   0  0  0  0  0  0
  -18.1942  -26.7909   22.1583 C   0  0  0  0  0  0
  -19.1506  -28.8785   23.2948 C   0  0  0  0  0  0
  -18.9421  -30.1399   23.8938 C   0  0  0  0  0  0
  -17.6421  -30.6572   24.0534 C   0  0  0  0  0  0
  -25.9033  -34.9493   23.5137 C   0  0  0  0  0  0
  -16.5325  -29.9052   23.6300 C   0  0  0  0  0  0
  -16.7257  -28.6467   23.0335 C   0  0  0  0  0  0
  -26.4460  -31.6568   25.0700 C   0  0  0  0  0  0
  -25.3716  -31.3630   26.1453 C   0  0  0  0  0  0
  -27.0215  -30.3006   24.5963 C   0  0  0  0  0  0
  -27.6113  -32.4231   25.7417 C   0  0  0  0  0  0
  -27.5569  -37.1816   24.8485 C   0  0  0  0  0  0
  -21.4084  -29.3069   22.3830 N   0  0  0  0  0  0
  -26.4259  -37.3808   23.9462 N   0  0  0  0  0  0
  -24.6597  -31.0868   22.1049 N   0  0  0  0  0  0
  -23.4128  -28.8246   23.3124 O   0  0  0  0  0  0
  -28.4432  -26.8310   19.9278 O   0  0  0  0  0  0
  -26.5622  -34.8941   22.4706 O   0  0  0  0  0  0
  -23.5312  -32.1502   23.7565 O   0  0  0  0  0  0
  -27.1181  -28.9028   17.0693 C   0  0  0  0  0  0
  -25.1692  -27.2500   15.9163 C   0  0  0  0  0  0
  -27.3997  -27.5311   16.8907 C   0  0  0  0  0  0
  -24.8601  -28.6091   16.1566 C   0  0  0  0  0  0
  -26.4227  -26.7097   16.2782 C   0  0  0  0  0  0
  -25.8606  -29.4409   16.7205 C   0  0  0  0  0  0
  -21.5721  -27.4919   16.0789 C   0  0  0  0  0  0
  -19.4130  -24.4987   17.3927 C   0  0  0  0  0  0
  -20.6757  -23.6584   17.6244 C   0  0  0  0  0  0
  -21.9742  -25.7785   17.8342 C   0  0  0  0  0  0
  -20.8538  -26.5843   17.1158 C   0  0  2  0  0  0
  -19.7299  -25.7048   16.4946 C   0  0  2  0  0  0
  -18.4496  -26.5132   16.2063 C   0  0  0  0  0  0
  -28.7281  -26.9636   17.4027 C   0  0  0  0  0  0
  -23.4550  -29.1285   15.8222 C   0  0  0  0  0  0
  -26.7231  -19.1384   21.0270 C   0  0  0  0  0  0
  -26.2882  -20.4201   20.3027 C   0  0  0  0  0  0
  -28.2436  -18.9366   20.9122 C   0  0  0  0  0  0
  -24.7761  -20.7118   20.3257 C   0  0  0  0  0  0
  -28.7602  -17.6709   21.6095 C   0  0  0  0  0  0
  -24.4972  -21.9825   19.5101 C   0  0  0  0  0  0
  -30.2906  -17.5391   21.4901 C   0  0  0  0  0  0
  -23.0322  -22.4563   19.4213 C   0  0  0  0  0  0
  -30.8748  -16.3243   22.2311 C   0  0  0  0  0  0
  -22.9952  -23.7083   18.5241 C   0  0  0  0  0  0
  -28.6661  -26.1082   18.7037 C   0  0  0  0  0  0
  -22.4041  -28.4268   16.5664 N   0  0  0  0  0  0
  -30.3173  -15.0679   21.7434 N   0  0  0  0  0  0
  -21.6941  -24.4212   18.3825 N   0  3  2  0  0  0
  -21.4594  -27.2894   14.8685 O   0  0  0  0  0  0
  -26.7094  -25.0270   16.0145 Cl  0  0  0  0  0  0
  -25.5754  -31.1135   17.0480 Cl  0  0  0  0  0  0
  -31.4600  -12.4043   19.0795 H   0  0  0  0  0  0
  -30.3283  -11.2630   19.7427 H   0  0  0  0  0  0
  -29.7126  -11.8303   17.3843 H   0  0  0  0  0  0
  -29.6500  -13.5291   17.7840 H   0  0  0  0  0  0
  -27.8136  -11.3232   18.7839 H   0  0  0  0  0  0
  -27.3513  -12.6768   17.7863 H   0  0  0  0  0  0
  -27.7308  -14.2554   19.6176 H   0  0  0  0  0  0
  -28.6621  -11.8733   21.2890 H   0  0  0  0  0  0
  -28.4409  -13.4812   21.8904 H   0  0  0  0  0  0
  -25.2750   -9.5695   22.4749 H   0  0  0  0  0  0
  -24.0002   -7.4637   22.7467 H   0  0  0  0  0  0
  -21.0827   -8.8765   19.8955 H   0  0  0  0  0  0
  -22.3672  -10.9669   19.6161 H   0  0  0  0  0  0
  -21.2006   -7.6146   23.9713 H   0  0  0  0  0  0
  -21.1480   -6.0521   25.9074 H   0  0  0  0  0  0
  -22.0600   -2.7608   23.2847 H   0  0  0  0  0  0
  -22.4118  -11.9898   22.4774 H   0  0  0  0  0  0
  -21.1134  -13.1279   22.2609 H   0  0  0  0  0  0
  -24.6774  -15.8486   20.5249 H   0  0  0  0  0  0
  -26.3003  -15.6200   20.1098 H   0  0  0  0  0  0
  -26.7114  -32.5565   23.1196 H   0  0  0  0  0  0
  -25.0075  -33.9854   25.0505 H   0  0  0  0  0  0
  -22.6789  -31.3137   21.4214 H   0  0  0  0  0  0
  -23.3785  -35.9667   23.3237 H   0  0  0  0  0  0
  -24.3688  -36.8920   22.2027 H   0  0  0  0  0  0
  -23.7262  -37.6533   23.6623 H   0  0  0  0  0  0
  -26.0115  -31.6019   20.5803 H   0  0  0  0  0  0
  -26.8135  -30.9147   21.9675 H   0  0  0  0  0  0
  -28.1082  -29.1546   21.1106 H   0  0  0  0  0  0
  -26.0170  -25.9535   19.0977 H   0  0  0  0  0  0
  -23.9819  -27.2840   19.1006 H   0  0  0  0  0  0
  -23.7101  -30.5938   19.4138 H   0  0  0  0  0  0
  -22.7233  -29.2412   19.8886 H   0  0  0  0  0  0
  -25.1245  -36.1954   25.0852 H   0  0  0  0  0  0
  -20.9936  -28.3095   24.1471 H   0  0  0  0  0  0
  -20.5717  -26.2165   23.3484 H   0  0  0  0  0  0
  -21.6630  -26.7549   22.1108 H   0  0  0  0  0  0
  -19.6909  -25.6346   21.1135 H   0  0  0  0  0  0
  -19.6661  -27.3262   20.6709 H   0  0  0  0  0  0
  -17.4207  -26.6687   21.3989 H   0  0  0  0  0  0
  -18.0355  -26.0014   22.8953 H   0  0  0  0  0  0
  -19.7886  -30.7203   24.2333 H   0  0  0  0  0  0
  -17.4974  -31.6282   24.5063 H   0  0  0  0  0  0
  -15.5313  -30.2936   23.7585 H   0  0  0  0  0  0
  -15.8661  -28.0802   22.7006 H   0  0  0  0  0  0
  -24.5995  -30.6848   25.7810 H   0  0  0  0  0  0
  -24.8749  -32.2733   26.4832 H   0  0  0  0  0  0
  -25.8082  -30.8911   27.0270 H   0  0  0  0  0  0
  -26.2722  -29.6923   24.0888 H   0  0  0  0  0  0
  -27.3826  -29.7043   25.4355 H   0  0  0  0  0  0
  -27.8650  -30.4272   23.9164 H   0  0  0  0  0  0
  -27.2818  -33.3585   26.1976 H   0  0  0  0  0  0
  -28.3931  -32.6687   25.0205 H   0  0  0  0  0  0
  -28.0815  -31.8314   26.5280 H   0  0  0  0  0  0
  -28.2585  -38.0112   24.7547 H   0  0  0  0  0  0
  -28.1068  -36.2684   24.6202 H   0  0  0  0  0  0
  -27.2361  -37.1414   25.8915 H   0  0  0  0  0  0
  -20.9181  -29.8939   21.7226 H   0  0  0  0  0  0
  -26.0128  -38.2860   24.1520 H   0  0  0  0  0  0
  -27.8495  -29.5439   17.5377 H   0  0  0  0  0  0
  -24.4290  -26.6021   15.4718 H   0  0  0  0  0  0
  -18.9895  -24.8222   18.3453 H   0  0  0  0  0  0
  -18.6525  -23.8744   16.9199 H   0  0  0  0  0  0
  -21.0875  -23.3352   16.6671 H   0  0  0  0  0  0
  -20.4149  -22.7557   18.1784 H   0  0  0  0  0  0
  -22.2535  -26.3623   18.7044 H   0  0  0  0  0  0
  -22.8556  -25.7176   17.1910 H   0  0  0  0  0  0
  -20.3838  -27.2307   17.8598 H   0  0  0  0  0  0
  -20.0772  -25.3000   15.5418 H   0  0  0  0  0  0
  -18.0242  -26.9358   17.1178 H   0  0  0  0  0  0
  -17.6818  -25.8892   15.7487 H   0  0  0  0  0  0
  -18.6413  -27.3375   15.5194 H   0  0  0  0  0  0
  -29.4328  -27.7814   17.5552 H   0  0  0  0  0  0
  -29.1602  -26.3581   16.6060 H   0  0  0  0  0  0
  -23.3061  -29.0391   14.7443 H   0  0  0  0  0  0
  -23.3543  -30.1908   16.0368 H   0  0  0  0  0  0
  -26.2046  -18.2792   20.5994 H   0  0  0  0  0  0
  -26.4328  -19.1887   22.0777 H   0  0  0  0  0  0
  -26.6212  -20.3626   19.2646 H   0  0  0  0  0  0
  -26.8188  -21.2678   20.7399 H   0  0  0  0  0  0
  -28.7542  -19.8066   21.3280 H   0  0  0  0  0  0
  -28.5231  -18.8983   19.8586 H   0  0  0  0  0  0
  -24.4332  -20.8414   21.3532 H   0  0  0  0  0  0
  -24.2225  -19.8692   19.9083 H   0  0  0  0  0  0
  -28.2730  -16.7957   21.1776 H   0  0  0  0  0  0
  -28.4786  -17.6941   22.6628 H   0  0  0  0  0  0
  -24.8741  -21.8260   18.4975 H   0  0  0  0  0  0
  -25.0988  -22.7925   19.9267 H   0  0  0  0  0  0
  -30.7588  -18.4407   21.8885 H   0  0  0  0  0  0
  -30.5756  -17.4947   20.4373 H   0  0  0  0  0  0
  -22.6516  -22.6834   20.4179 H   0  0  0  0  0  0
  -22.4069  -21.6662   19.0047 H   0  0  0  0  0  0
  -30.6601  -16.4039   23.2975 H   0  0  0  0  0  0
  -31.9626  -16.3158   22.1413 H   0  0  0  0  0  0
  -23.3674  -23.4522   17.5304 H   0  0  0  0  0  0
  -23.7175  -24.4161   18.9370 H   0  0  0  0  0  0
  -29.6451  -25.6457   18.8230 H   0  0  0  0  0  0
  -27.9818  -25.2679   18.5994 H   0  0  0  0  0  0
  -22.3767  -28.6121   17.5594 H   0  0  0  0  0  0
  -29.5101  -14.7040   22.2278 H   0  0  0  0  0  0
  -21.3213  -24.5633   19.3099 H   0  0  0  0  0  0
  1 25  1  0  0  0
  1 30  2  0  0  0
  1 98  1  0  0  0
  2  3  1  0  0  0
  2 25  1  0  0  0
  2103  1  0  0  0
  2104  1  0  0  0
  3  4  1  0  0  0
  3105  1  0  0  0
  3106  1  0  0  0
  4  5  1  0  0  0
  4107  1  0  0  0
  4108  1  0  0  0
  5  6  1  0  0  0
  5 26  1  0  0  0
  5109  1  0  0  0
  6 25  1  0  0  0
  6110  1  0  0  0
  6111  1  0  0  0
  7  8  2  0  0  0
  7 26  1  0  0  0
  7 29  1  0  0  0
  8  9  1  0  0  0
  8 22  1  0  0  0
  9 10  1  0  0  0
  9 27  2  0  0  0
 10 11  2  0  0  0
 10 15  1  0  0  0
 11 12  1  0  0  0
 11112  1  0  0  0
 12 13  2  0  0  0
 12113  1  0  0  0
 13 14  1  0  0  0
 13 31  1  0  0  0
 14 15  2  0  0  0
 14114  1  0  0  0
 15115  1  0  0  0
 16 17  2  0  0  0
 16 21  1  0  0  0
 16 31  1  0  0  0
 17 18  1  0  0  0
 17116  1  0  0  0
 18 19  2  0  0  0
 18117  1  0  0  0
 19 20  1  0  0  0
 19 24  1  0  0  0
 20 21  2  0  0  0
 20118  1  0  0  0
 21 23  1  0  0  0
 22 28  1  0  0  0
 22 32  2  0  0  0
 26 27  1  0  0  0
 28119  1  0  0  0
 28120  1  0  0  0
 29121  1  0  0  0
 29122  1  0  0  0
 33 34  1  0  0  0
 33 66  1  0  0  0
 33 70  2  0  0  0
 34 36  1  0  0  0
 34 59  1  0  0  0
 34123  1  0  0  0
 35 44  2  0  0  0
 35 45  1  0  0  0
 35 68  1  0  0  0
 36 56  1  0  0  0
 36124  1  0  0  0
 37 39  1  0  0  0
 37 47  1  0  0  0
 37 66  1  0  0  0
 37125  1  0  0  0
 38 43  2  0  0  0
 38 46  1  0  0  0
 38 47  1  0  0  0
 39 64  1  0  0  0
 39 67  2  0  0  0
 40 52  1  0  0  0
 40 53  2  0  0  0
 40 58  1  0  0  0
 41126  1  0  0  0
 41127  1  0  0  0
 41128  1  0  0  0
 41 48  1  0  0  0
 42 43  1  0  0  0
 42 66  1  0  0  0
 42129  1  0  0  0
 42130  1  0  0  0
 43 44  1  0  0  0
 44131  1  0  0  0
 45 46  2  0  0  0
 45132  1  0  0  0
 46133  1  0  0  0
 47134  1  0  0  0
 47135  1  0  0  0
 48 56  1  0  0  0
 48 65  1  0  0  0
 48136  1  0  0  0
 49 50  1  0  0  0
 49 53  1  0  0  0
 49 64  1  0  0  0
 49137  1  0  0  0
 50 51  1  0  0  0
 50138  1  0  0  0
 50139  1  0  0  0
 51 52  1  0  0  0
 51140  1  0  0  0
 51141  1  0  0  0
 52142  1  0  0  0
 52143  1  0  0  0
 53 54  1  0  0  0
 54 55  2  0  0  0
 54144  1  0  0  0
 55 57  1  0  0  0
 55145  1  0  0  0
 56 69  2  0  0  0
 57 58  2  0  0  0
 57146  1  0  0  0
 58147  1  0  0  0
 59 60  1  0  0  0
 59 61  1  0  0  0
 59 62  1  0  0  0
 60148  1  0  0  0
 60149  1  0  0  0
 60150  1  0  0  0
 61151  1  0  0  0
 61152  1  0  0  0
 61153  1  0  0  0
 62154  1  0  0  0
 62155  1  0  0  0
 62156  1  0  0  0
 63 65  1  0  0  0
 63157  1  0  0  0
 63158  1  0  0  0
 63159  1  0  0  0
 64160  1  0  0  0
 65161  1  0  0  0
 68 96  1  0  0  0
 71 73  2  0  0  0
 71 76  1  0  0  0
 71162  1  0  0  0
 72 74  1  0  0  0
 72 75  2  0  0  0
 72163  1  0  0  0
 73 75  1  0  0  0
 73 84  1  0  0  0
 74 76  2  0  0  0
 74 85  1  0  0  0
 75101  1  0  0  0
 76102  1  0  0  0
 77 97  1  0  0  0
 77100  2  0  0  0
 77 81  1  0  0  0
 78 79  1  0  0  0
 78 82  1  0  0  0
 78164  1  0  0  0
 78165  1  0  0  0
 79 99  1  0  0  0
 79166  1  0  0  0
 79167  1  0  0  0
 80 81  1  0  0  0
 80 99  1  0  0  0
 80168  1  0  0  0
 80169  1  0  0  0
 81 82  1  0  0  0
 81170  1  0  0  0
 82 83  1  0  0  0
 82171  1  0  0  0
 83172  1  0  0  0
 83173  1  0  0  0
 83174  1  0  0  0
 84 96  1  0  0  0
 84175  1  0  0  0
 84176  1  0  0  0
 85 97  1  0  0  0
 85177  1  0  0  0
 85178  1  0  0  0
 86 87  1  0  0  0
 86 88  1  0  0  0
 86179  1  0  0  0
 86180  1  0  0  0
 87 89  1  0  0  0
 87181  1  0  0  0
 87182  1  0  0  0
 88 90  1  0  0  0
 88183  1  0  0  0
 88184  1  0  0  0
 89 91  1  0  0  0
 89185  1  0  0  0
 89186  1  0  0  0
 90 92  1  0  0  0
 90187  1  0  0  0
 90188  1  0  0  0
 91 93  1  0  0  0
 91189  1  0  0  0
 91190  1  0  0  0
 92 94  1  0  0  0
 92191  1  0  0  0
 92192  1  0  0  0
 93 95  1  0  0  0
 93193  1  0  0  0
 93194  1  0  0  0
 94 98  1  0  0  0
 94195  1  0  0  0
 94196  1  0  0  0
 95197  1  0  0  0
 95198  1  0  0  0
 95 99  1  0  0  0
 96199  1  0  0  0
 96200  1  0  0  0
 97201  1  0  0  0
 98202  1  0  0  0
 99203  1  0  0  0
M  CHG  1  99   1
M  ISO  4   1 100  68 101  96 101  98 100
M  END
> <chiral flag>
0

> <version>
0

> <s_m_source_file>
/data/baiqing/PycharmProjects/Reinvent-master-3.2/result/LINK_invent/BTK/process_docking_weight1_custom_sum_contain_oxygen_bond_distance_aromatic_linkinvent_7_9_3/rearranged_h_0023.sdf

> <i_m_source_file_index>
39

> <r_mmod_Potential_Energy-OPLS-2005>
-170.751480102539

> <r_mmod_Stretch_Energy-OPLS-2005>
40.6487770080566

> <r_mmod_Bend_Energy-OPLS-2005>
131.323654174805

> <r_mmod_Torsional_Energy-OPLS-2005>
249.383087158203

> <r_mmod_Improper_Torsional_Energy-OPLS-2005>
3.01605629920959

> <r_mmod_Van_der_Waal_Energy-OPLS-2005>
129.989212036133

> <r_mmod_Electrostatic_Energy-OPLS-2005>
-266.594543457031

> <r_mmod_Solvation_Energy-OPLS-2005>
-467.517486572266

> <b_mmod_Minimization_Converged-OPLS-2005>
0

> <r_mmod_RMS_Derivative-OPLS-2005>
2.7742292881012

$$$$
39
                    3D
 Structure written by MMmdl.
162170  0  0  1  0            999 V2000
  -30.7164  -14.4097   20.5952 C   0  0  0  0  0  0
  -30.4197  -12.2731   19.4213 C   0  0  0  0  0  0
  -29.4945  -12.5064   18.2084 C   0  0  0  0  0  0
  -28.0142  -12.3763   18.6163 C   0  0  0  0  0  0
  -27.6661  -13.2039   19.8826 C   0  0  2  0  0  0
  -28.7025  -12.9565   21.0038 C   0  0  0  0  0  0
  -25.2611  -13.8170   20.5655 C   0  0  0  0  0  0
  -24.1858  -13.0448   20.9163 C   0  0  0  0  0  0
  -24.6382  -11.6910   20.8703 C   0  0  0  0  0  0
  -23.9037  -10.4303   21.0381 C   0  0  0  0  0  0
  -24.3603   -9.4228   21.9171 C   0  0  0  0  0  0
  -23.6297   -8.2257   22.0744 C   0  0  0  0  0  0
  -22.4282   -8.0277   21.3533 C   0  0  0  0  0  0
  -21.9897   -9.0239   20.4643 C   0  0  0  0  0  0
  -22.7207  -10.2133   20.3041 C   0  0  0  0  0  0
  -21.6841   -6.0730   22.5266 C   0  0  0  0  0  0
  -21.4007   -6.5631   23.8202 C   0  0  0  0  0  0
  -21.3663   -5.6789   24.9164 C   0  0  0  0  0  0
  -21.6063   -4.3048   24.7213 C   0  0  0  0  0  0
  -21.8822   -3.8139   23.4331 C   0  0  0  0  0  0
  -21.9195   -4.6959   22.3392 C   0  0  0  0  0  0
  -22.7888  -13.5252   21.1843 C   0  0  0  0  0  0
  -22.1647   -4.2144   21.0966 F   0  0  0  0  0  0
  -21.5653   -3.4534   25.7723 F   0  0  0  0  0  0
  -30.0434  -13.2396   20.4625 N   0  0  0  0  0  0
  -26.3047  -12.9327   20.3384 N   0  0  0  0  0  0
  -25.9315  -11.6483   20.5752 N   0  0  0  0  0  0
  -22.0523  -12.8255   22.0404 N   0  0  0  0  0  0
  -25.4301  -15.1881   20.4002 N   0  0  0  0  0  0
  -31.8203  -14.6169   20.0813 O   0  0  0  0  0  0
  -21.6641   -6.8874   21.4228 O   0  0  0  0  0  0
  -22.3562  -14.5551   20.6683 O   0  0  0  0  0  0
  -24.6088  -31.8720   23.2141 C   0  0  0  0  0  0
  -25.9006  -32.4829   23.8432 C   0  0  1  0  0  0
  -27.2358  -27.4830   20.0910 C   0  0  0  0  0  0
  -25.5881  -33.8629   24.2362 N   0  0  0  0  0  0
  -23.3941  -30.4950   21.5547 C   0  0  2  0  0  0
  -24.8395  -28.9612   20.1200 C   0  0  0  0  0  0
  -22.7380  -29.4686   22.5044 C   0  0  0  0  0  0
  -18.0266  -28.1365   22.8518 C   0  0  0  0  0  0
  -24.1475  -36.7352   23.2640 C   0  0  0  0  0  0
  -25.9156  -30.8511   21.3572 C   0  0  0  0  0  0
  -25.9954  -29.4863   20.7109 C   0  0  0  0  0  0
  -27.1987  -28.7530   20.6934 C   0  0  0  0  0  0
  -26.0686  -26.9548   19.5018 C   0  0  0  0  0  0
  -24.8673  -27.6911   19.5137 C   0  0  0  0  0  0
  -23.5976  -29.8213   20.1707 C   0  0  0  0  0  0
  -25.4088  -36.3123   24.0344 C   0  0  1  0  0  0
  -20.5854  -28.3656   23.1352 C   0  0  2  0  0  0
  -20.6741  -26.9401   22.5425 C   0  0  0  0  0  0
  -19.5716  -26.6385   21.5223 C   0  0  0  0  0  0
  -18.1903  -26.7925   22.1634 C   0  0  0  0  0  0
  -19.1512  -28.8828   23.2929 C   0  0  0  0  0  0
  -18.9439  -30.1440   23.8925 C   0  0  0  0  0  0
  -17.6435  -30.6584   24.0560 C   0  0  0  0  0  0
  -25.9019  -34.9487   23.5155 C   0  0  0  0  0  0
  -16.5331  -29.9075   23.6310 C   0  0  0  0  0  0
  -16.7255  -28.6487   23.0353 C   0  0  0  0  0  0
  -26.4458  -31.6595   25.0745 C   0  0  0  0  0  0
  -25.3754  -31.3680   26.1517 C   0  0  0  0  0  0
  -27.0286  -30.3044   24.6096 C   0  0  0  0  0  0
  -27.6047  -32.4315   25.7496 C   0  0  0  0  0  0
  -27.5570  -37.1825   24.8457 C   0  0  0  0  0  0
  -21.4118  -29.3033   22.3768 N   0  0  0  0  0  0
  -26.4282  -37.3801   23.9406 N   0  0  0  0  0  0
  -24.6577  -31.0867   22.1012 N   0  0  0  0  0  0
  -23.4174  -28.8234   23.3072 O   0  0  0  0  0  0
  -28.4073  -26.7776   20.0528 O   0  0  0  0  0  0
  -26.5590  -34.8943   22.4722 O   0  0  0  0  0  0
  -23.5301  -32.1452   23.7571 O   0  0  0  0  0  0
  -30.5115  -21.3951   20.4588 C   0  0  0  0  0  0
  -28.7200  -20.6029   19.0333 C   0  0  0  0  0  0
  -29.6583  -21.5963   19.3592 C   0  0  0  0  0  0
  -29.5138  -19.1890   20.8839 C   0  0  0  0  0  0
  -30.4392  -20.2157   21.2242 C   0  0  0  0  0  0
  -28.6513  -19.4041   19.7675 C   0  0  0  0  0  0
  -28.1869  -17.4308   22.2584 C   0  0  0  0  0  0
  -29.7618  -22.8545   18.5124 C   0  0  0  0  0  0
  -28.8822  -24.0026   19.0327 C   0  0  0  0  0  0
  -29.3780  -24.6010   20.3620 C   0  0  0  0  0  0
  -30.2248  -16.7924   20.7433 C   0  0  0  0  0  0
  -28.4286  -25.6585   20.9274 C   0  0  0  0  0  0
  -29.5391  -17.8463   21.6359 C   0  0  1  0  0  0
  -30.0192  -15.4066   21.1521 N   0  0  0  0  0  0
  -31.5483  -20.0731   22.5461 Cl  0  0  0  0  0  0
  -27.5273  -18.2190   19.1929 Cl  0  0  0  0  0  0
  -31.4664  -12.3632   19.1233 H   0  0  0  0  0  0
  -30.3089  -11.2562   19.8013 H   0  0  0  0  0  0
  -29.7286  -11.7953   17.4148 H   0  0  0  0  0  0
  -29.6744  -13.4993   17.7933 H   0  0  0  0  0  0
  -27.8125  -11.3202   18.7989 H   0  0  0  0  0  0
  -27.3684  -12.6703   17.7878 H   0  0  0  0  0  0
  -27.7197  -14.2554   19.6007 H   0  0  0  0  0  0
  -28.6609  -11.9187   21.3342 H   0  0  0  0  0  0
  -28.4678  -13.5489   21.8889 H   0  0  0  0  0  0
  -25.2737   -9.5733   22.4745 H   0  0  0  0  0  0
  -24.0023   -7.4660   22.7460 H   0  0  0  0  0  0
  -21.0832   -8.8728   19.8954 H   0  0  0  0  0  0
  -22.3636  -10.9663   19.6155 H   0  0  0  0  0  0
  -21.1968   -7.6135   23.9696 H   0  0  0  0  0  0
  -21.1492   -6.0517   25.9073 H   0  0  0  0  0  0
  -22.0604   -2.7601   23.2821 H   0  0  0  0  0  0
  -22.4101  -11.9898   22.4788 H   0  0  0  0  0  0
  -21.1147  -13.1311   22.2585 H   0  0  0  0  0  0
  -24.6516  -15.8322   20.4821 H   0  0  0  0  0  0
  -26.2764  -15.6308   20.0644 H   0  0  0  0  0  0
  -26.7074  -32.5564   23.1198 H   0  0  0  0  0  0
  -24.9967  -33.9777   25.0466 H   0  0  0  0  0  0
  -22.6817  -31.3104   21.4166 H   0  0  0  0  0  0
  -23.3711  -35.9707   23.3300 H   0  0  0  0  0  0
  -24.3587  -36.8968   22.2057 H   0  0  0  0  0  0
  -23.7258  -37.6573   23.6660 H   0  0  0  0  0  0
  -26.0181  -31.6144   20.5863 H   0  0  0  0  0  0
  -26.8058  -30.9083   21.9705 H   0  0  0  0  0  0
  -28.0964  -29.1581   21.1399 H   0  0  0  0  0  0
  -26.0948  -25.9828   19.0310 H   0  0  0  0  0  0
  -23.9778  -27.2779   19.0565 H   0  0  0  0  0  0
  -23.6970  -30.5899   19.4038 H   0  0  0  0  0  0
  -22.7232  -29.2311   19.8873 H   0  0  0  0  0  0
  -25.1265  -36.1989   25.0836 H   0  0  0  0  0  0
  -20.9951  -28.3194   24.1468 H   0  0  0  0  0  0
  -20.5642  -26.2270   23.3606 H   0  0  0  0  0  0
  -21.6612  -26.7445   22.1215 H   0  0  0  0  0  0
  -19.6864  -25.6300   21.1232 H   0  0  0  0  0  0
  -19.6641  -27.3203   20.6770 H   0  0  0  0  0  0
  -17.4179  -26.6724   21.4014 H   0  0  0  0  0  0
  -18.0274  -26.0041   22.9003 H   0  0  0  0  0  0
  -19.7916  -30.7256   24.2302 H   0  0  0  0  0  0
  -17.4989  -31.6264   24.5150 H   0  0  0  0  0  0
  -15.5329  -30.2973   23.7622 H   0  0  0  0  0  0
  -15.8672  -28.0797   22.7069 H   0  0  0  0  0  0
  -24.5903  -30.7056   25.7857 H   0  0  0  0  0  0
  -24.8980  -32.2828   26.5046 H   0  0  0  0  0  0
  -25.8136  -30.8792   27.0228 H   0  0  0  0  0  0
  -26.2821  -29.6799   24.1173 H   0  0  0  0  0  0
  -27.4080  -29.7295   25.4558 H   0  0  0  0  0  0
  -27.8644  -30.4370   23.9220 H   0  0  0  0  0  0
  -27.2657  -33.3583   26.2143 H   0  0  0  0  0  0
  -28.3810  -32.6926   25.0291 H   0  0  0  0  0  0
  -28.0763  -31.8404   26.5352 H   0  0  0  0  0  0
  -28.2588  -38.0119   24.7502 H   0  0  0  0  0  0
  -28.1070  -36.2669   24.6269 H   0  0  0  0  0  0
  -27.2324  -37.1454   25.8868 H   0  0  0  0  0  0
  -20.9278  -29.8781   21.7014 H   0  0  0  0  0  0
  -26.0176  -38.2881   24.1403 H   0  0  0  0  0  0
  -31.2394  -22.1494   20.7208 H   0  0  0  0  0  0
  -28.0620  -20.7446   18.1872 H   0  0  0  0  0  0
  -27.7638  -18.2461   22.8463 H   0  0  0  0  0  0
  -28.3116  -16.5928   22.9441 H   0  0  0  0  0  0
  -27.4434  -17.1242   21.5291 H   0  0  0  0  0  0
  -29.4683  -22.6117   17.4895 H   0  0  0  0  0  0
  -30.8041  -23.1713   18.4487 H   0  0  0  0  0  0
  -27.8526  -23.6574   19.1328 H   0  0  0  0  0  0
  -28.8617  -24.7918   18.2800 H   0  0  0  0  0  0
  -30.3727  -25.0313   20.2339 H   0  0  0  0  0  0
  -29.4731  -23.8166   21.1110 H   0  0  0  0  0  0
  -31.2897  -17.0293   20.6883 H   0  0  0  0  0  0
  -29.8561  -16.8595   19.7191 H   0  0  0  0  0  0
  -27.4404  -25.2216   21.0813 H   0  0  0  0  0  0
  -28.7836  -25.9867   21.9047 H   0  0  0  0  0  0
  -30.1805  -17.9454   22.5079 H   0  0  0  0  0  0
  -29.1297  -15.1736   21.5683 H   0  0  0  0  0  0
  1 25  1  0  0  0
  1 30  2  0  0  0
  1 84  1  0  0  0
  2  3  1  0  0  0
  2 25  1  0  0  0
  2 87  1  0  0  0
  2 88  1  0  0  0
  3  4  1  0  0  0
  3 89  1  0  0  0
  3 90  1  0  0  0
  4  5  1  0  0  0
  4 91  1  0  0  0
  4 92  1  0  0  0
  5  6  1  0  0  0
  5 26  1  0  0  0
  5 93  1  0  0  0
  6 25  1  0  0  0
  6 94  1  0  0  0
  6 95  1  0  0  0
  7  8  2  0  0  0
  7 26  1  0  0  0
  7 29  1  0  0  0
  8  9  1  0  0  0
  8 22  1  0  0  0
  9 10  1  0  0  0
  9 27  2  0  0  0
 10 11  2  0  0  0
 10 15  1  0  0  0
 11 12  1  0  0  0
 11 96  1  0  0  0
 12 13  2  0  0  0
 12 97  1  0  0  0
 13 14  1  0  0  0
 13 31  1  0  0  0
 14 15  2  0  0  0
 14 98  1  0  0  0
 15 99  1  0  0  0
 16 17  2  0  0  0
 16 21  1  0  0  0
 16 31  1  0  0  0
 17 18  1  0  0  0
 17100  1  0  0  0
 18 19  2  0  0  0
 18101  1  0  0  0
 19 20  1  0  0  0
 19 24  1  0  0  0
 20 21  2  0  0  0
 20102  1  0  0  0
 21 23  1  0  0  0
 22 28  1  0  0  0
 22 32  2  0  0  0
 26 27  1  0  0  0
 28103  1  0  0  0
 28104  1  0  0  0
 29105  1  0  0  0
 29106  1  0  0  0
 33 34  1  0  0  0
 33 66  1  0  0  0
 33 70  2  0  0  0
 34 36  1  0  0  0
 34 59  1  0  0  0
 34107  1  0  0  0
 35 44  2  0  0  0
 35 45  1  0  0  0
 35 68  1  0  0  0
 36 56  1  0  0  0
 36108  1  0  0  0
 37 39  1  0  0  0
 37 47  1  0  0  0
 37 66  1  0  0  0
 37109  1  0  0  0
 38 43  2  0  0  0
 38 46  1  0  0  0
 38 47  1  0  0  0
 39 64  1  0  0  0
 39 67  2  0  0  0
 40 52  1  0  0  0
 40 53  2  0  0  0
 40 58  1  0  0  0
 41110  1  0  0  0
 41111  1  0  0  0
 41112  1  0  0  0
 41 48  1  0  0  0
 42 43  1  0  0  0
 42 66  1  0  0  0
 42113  1  0  0  0
 42114  1  0  0  0
 43 44  1  0  0  0
 44115  1  0  0  0
 45 46  2  0  0  0
 45116  1  0  0  0
 46117  1  0  0  0
 47118  1  0  0  0
 47119  1  0  0  0
 48 56  1  0  0  0
 48 65  1  0  0  0
 48120  1  0  0  0
 49 50  1  0  0  0
 49 53  1  0  0  0
 49 64  1  0  0  0
 49121  1  0  0  0
 50 51  1  0  0  0
 50122  1  0  0  0
 50123  1  0  0  0
 51 52  1  0  0  0
 51124  1  0  0  0
 51125  1  0  0  0
 52126  1  0  0  0
 52127  1  0  0  0
 53 54  1  0  0  0
 54 55  2  0  0  0
 54128  1  0  0  0
 55 57  1  0  0  0
 55129  1  0  0  0
 56 69  2  0  0  0
 57 58  2  0  0  0
 57130  1  0  0  0
 58131  1  0  0  0
 59 60  1  0  0  0
 59 61  1  0  0  0
 59 62  1  0  0  0
 60132  1  0  0  0
 60133  1  0  0  0
 60134  1  0  0  0
 61135  1  0  0  0
 61136  1  0  0  0
 61137  1  0  0  0
 62138  1  0  0  0
 62139  1  0  0  0
 62140  1  0  0  0
 63 65  1  0  0  0
 63141  1  0  0  0
 63142  1  0  0  0
 63143  1  0  0  0
 64144  1  0  0  0
 65145  1  0  0  0
 68 82  1  0  0  0
 71 73  2  0  0  0
 71 75  1  0  0  0
 71146  1  0  0  0
 72 73  1  0  0  0
 72 76  2  0  0  0
 72147  1  0  0  0
 73 78  1  0  0  0
 74 75  2  0  0  0
 74 76  1  0  0  0
 74 83  1  0  0  0
 75 85  1  0  0  0
 76 86  1  0  0  0
 77148  1  0  0  0
 77149  1  0  0  0
 77150  1  0  0  0
 77 83  1  0  0  0
 78 79  1  0  0  0
 78151  1  0  0  0
 78152  1  0  0  0
 79 80  1  0  0  0
 79153  1  0  0  0
 79154  1  0  0  0
 80 82  1  0  0  0
 80155  1  0  0  0
 80156  1  0  0  0
 81 83  1  0  0  0
 81 84  1  0  0  0
 81157  1  0  0  0
 81158  1  0  0  0
 82159  1  0  0  0
 82160  1  0  0  0
 83161  1  0  0  0
 84162  1  0  0  0
M  ISO  4   1 100  68 101  82 101  84 100
M  END
> <chiral flag>
0

> <version>
0

> <s_m_source_file>
/data/baiqing/PycharmProjects/Reinvent-master-3.2/result/LINK_invent/BTK/process_docking_weight1_custom_sum_contain_oxygen_bond_distance_aromatic_linkinvent_7_9_3/rearranged_h_0023.sdf

> <i_m_source_file_index>
40

> <r_mmod_Potential_Energy-OPLS-2005>
-59.7799377441406

> <r_mmod_Stretch_Energy-OPLS-2005>
33.1162757873535

> <r_mmod_Bend_Energy-OPLS-2005>
94.5057907104492

> <r_mmod_Torsional_Energy-OPLS-2005>
241.906036376953

> <r_mmod_Improper_Torsional_Energy-OPLS-2005>
6.3149790763855

> <r_mmod_Van_der_Waal_Energy-OPLS-2005>
152.860961914062

> <r_mmod_Electrostatic_Energy-OPLS-2005>
-403.463592529297

> <r_mmod_Solvation_Energy-OPLS-2005>
-192.798049926758

> <b_mmod_Minimization_Converged-OPLS-2005>
0

> <r_mmod_RMS_Derivative-OPLS-2005>
2.35039138793945

$$$$
40
                    3D
 Structure written by MMmdl.
159167  0  0  1  0            999 V2000
  -30.6099  -14.6292   20.5195 C   0  0  0  0  0  0
  -30.4432  -12.3897   19.4536 C   0  0  0  0  0  0
  -29.5114  -12.5200   18.2270 C   0  0  0  0  0  0
  -28.0326  -12.3573   18.6345 C   0  0  0  0  0  0
  -27.6584  -13.2148   19.8728 C   0  0  2  0  0  0
  -28.7005  -13.0413   21.0008 C   0  0  0  0  0  0
  -25.2575  -13.8165   20.5687 C   0  0  0  0  0  0
  -24.1837  -13.0433   20.9177 C   0  0  0  0  0  0
  -24.6403  -11.6903   20.8736 C   0  0  0  0  0  0
  -23.9068  -10.4293   21.0408 C   0  0  0  0  0  0
  -24.3620   -9.4208   21.9185 C   0  0  0  0  0  0
  -23.6297   -8.2244   22.0758 C   0  0  0  0  0  0
  -22.4277   -8.0281   21.3548 C   0  0  0  0  0  0
  -21.9912   -9.0254   20.4650 C   0  0  0  0  0  0
  -22.7240  -10.2132   20.3058 C   0  0  0  0  0  0
  -21.6852   -6.0739   22.5282 C   0  0  0  0  0  0
  -21.4015   -6.5645   23.8215 C   0  0  0  0  0  0
  -21.3659   -5.6796   24.9177 C   0  0  0  0  0  0
  -21.6041   -4.3057   24.7228 C   0  0  0  0  0  0
  -21.8818   -3.8149   23.4348 C   0  0  0  0  0  0
  -21.9192   -4.6966   22.3402 C   0  0  0  0  0  0
  -22.7859  -13.5223   21.1844 C   0  0  0  0  0  0
  -22.1658   -4.2152   21.0978 F   0  0  0  0  0  0
  -21.5629   -3.4538   25.7739 F   0  0  0  0  0  0
  -30.0197  -13.3942   20.4491 N   0  0  0  0  0  0
  -26.3012  -12.9345   20.3351 N   0  0  0  0  0  0
  -25.9333  -11.6498   20.5762 N   0  0  0  0  0  0
  -22.0503  -12.8222   22.0403 N   0  0  0  0  0  0
  -25.4290  -15.1893   20.4101 N   0  0  0  0  0  0
  -31.7505  -14.8273   20.0898 O   0  0  0  0  0  0
  -21.6634   -6.8882   21.4245 O   0  0  0  0  0  0
  -22.3541  -14.5528   20.6691 O   0  0  0  0  0  0
  -24.6256  -31.8602   23.2014 C   0  0  0  0  0  0
  -25.9104  -32.4780   23.8348 C   0  0  1  0  0  0
  -27.2286  -27.3186   20.1030 C   0  0  0  0  0  0
  -25.5925  -33.8580   24.2275 N   0  0  0  0  0  0
  -23.4190  -30.4836   21.5441 C   0  0  2  0  0  0
  -24.8649  -28.9376   20.1080 C   0  0  0  0  0  0
  -22.7464  -29.4635   22.4933 C   0  0  0  0  0  0
  -18.0288  -28.1382   22.8494 C   0  0  0  0  0  0
  -24.1492  -36.7303   23.2638 C   0  0  0  0  0  0
  -25.9597  -30.7890   21.3724 C   0  0  0  0  0  0
  -26.0318  -29.4157   20.7148 C   0  0  0  0  0  0
  -27.2109  -28.6145   20.7087 C   0  0  0  0  0  0
  -26.0353  -26.8907   19.4868 C   0  0  0  0  0  0
  -24.8680  -27.6787   19.4881 C   0  0  0  0  0  0
  -23.6325  -29.8174   20.1588 C   0  0  0  0  0  0
  -25.4116  -36.3087   24.0326 C   0  0  1  0  0  0
  -20.5889  -28.3693   23.1284 C   0  0  2  0  0  0
  -20.6782  -26.9416   22.5411 C   0  0  0  0  0  0
  -19.5756  -26.6385   21.5215 C   0  0  0  0  0  0
  -18.1934  -26.7926   22.1624 C   0  0  0  0  0  0
  -19.1541  -28.8854   23.2885 C   0  0  0  0  0  0
  -18.9461  -30.1455   23.8904 C   0  0  0  0  0  0
  -17.6461  -30.6588   24.0566 C   0  0  0  0  0  0
  -25.9053  -34.9455   23.5100 C   0  0  0  0  0  0
  -16.5353  -29.9088   23.6330 C   0  0  0  0  0  0
  -16.7274  -28.6503   23.0357 C   0  0  0  0  0  0
  -26.4487  -31.6591   25.0721 C   0  0  0  0  0  0
  -25.3720  -31.3731   26.1450 C   0  0  0  0  0  0
  -27.0336  -30.3018   24.6176 C   0  0  0  0  0  0
  -27.6046  -32.4326   25.7493 C   0  0  0  0  0  0
  -27.5584  -37.1804   24.8458 C   0  0  0  0  0  0
  -21.4180  -29.3048   22.3674 N   0  0  0  0  0  0
  -26.4295  -37.3782   23.9405 N   0  0  0  0  0  0
  -24.6872  -31.0612   22.0964 N   0  0  0  0  0  0
  -23.4187  -28.8180   23.3016 O   0  0  0  0  0  0
  -28.3645  -26.4993   20.1873 O   0  0  0  0  0  0
  -26.5624  -34.8922   22.4667 O   0  0  0  0  0  0
  -23.5421  -32.1407   23.7343 O   0  0  0  0  0  0
  -29.0295  -19.9123   20.4518 C   0  0  0  0  0  0
  -29.3742  -19.0865   19.3332 C   0  0  0  0  0  0
  -29.7602  -17.0790   20.7827 C   0  0  0  0  0  0
  -29.1560  -19.3060   21.7291 C   0  0  0  0  0  0
  -29.7153  -17.6964   19.4959 C   0  0  0  0  0  0
  -29.5032  -17.9319   21.8906 C   0  0  0  0  0  0
  -29.2889  -19.6474   17.9179 C   0  0  0  0  0  0
  -26.9763  -23.3958   18.6224 C   0  0  0  0  0  0
  -28.2348  -21.2756   20.3221 C   0  0  0  0  0  0
  -28.5913  -25.2399   19.4338 C   0  0  0  0  0  0
  -27.9273  -23.8118   19.7818 C   0  0  2  0  0  0
  -29.8216  -15.6299   21.0111 N   0  0  0  0  0  0
  -28.8805  -22.6343   20.0695 N   0  3  0  0  0  0
  -28.8446  -20.0362   22.8287 F   0  0  0  0  0  0
  -29.9337  -16.7239   18.0770 Cl  0  0  0  0  0  0
  -29.5165  -17.2670   23.4902 Cl  0  0  0  0  0  0
  -31.4847  -12.5223   19.1542 H   0  0  0  0  0  0
  -30.3814  -11.3870   19.8805 H   0  0  0  0  0  0
  -29.7752  -11.7785   17.4722 H   0  0  0  0  0  0
  -29.6554  -13.4963   17.7608 H   0  0  0  0  0  0
  -27.8639  -11.3016   18.8515 H   0  0  0  0  0  0
  -27.3819  -12.6032   17.7951 H   0  0  0  0  0  0
  -27.6852  -14.2561   19.5516 H   0  0  0  0  0  0
  -28.7079  -12.0090   21.3540 H   0  0  0  0  0  0
  -28.4401  -13.6442   21.8719 H   0  0  0  0  0  0
  -25.2769   -9.5676   22.4752 H   0  0  0  0  0  0
  -24.0003   -7.4633   22.7479 H   0  0  0  0  0  0
  -21.0846   -8.8776   19.8955 H   0  0  0  0  0  0
  -22.3708  -10.9671   19.6165 H   0  0  0  0  0  0
  -21.2010   -7.6154   23.9720 H   0  0  0  0  0  0
  -21.1482   -6.0528   25.9080 H   0  0  0  0  0  0
  -22.0600   -2.7610   23.2848 H   0  0  0  0  0  0
  -22.4111  -11.9875   22.4782 H   0  0  0  0  0  0
  -21.1125  -13.1259   22.2614 H   0  0  0  0  0  0
  -24.6594  -15.8422   20.5097 H   0  0  0  0  0  0
  -26.2749  -15.6251   20.0673 H   0  0  0  0  0  0
  -26.7169  -32.5447   23.1093 H   0  0  0  0  0  0
  -25.0066  -33.9727   25.0415 H   0  0  0  0  0  0
  -22.7140  -31.3054   21.4007 H   0  0  0  0  0  0
  -23.3755  -35.9633   23.3288 H   0  0  0  0  0  0
  -24.3587  -36.8940   22.2054 H   0  0  0  0  0  0
  -23.7241  -37.6499   23.6671 H   0  0  0  0  0  0
  -26.0901  -31.5513   20.6032 H   0  0  0  0  0  0
  -26.8406  -30.8393   22.0006 H   0  0  0  0  0  0
  -28.1061  -28.9769   21.1944 H   0  0  0  0  0  0
  -25.9638  -25.9262   19.0297 H   0  0  0  0  0  0
  -23.9697  -27.3014   19.0190 H   0  0  0  0  0  0
  -23.7502  -30.5944   19.4025 H   0  0  0  0  0  0
  -22.7521  -29.2470   19.8577 H   0  0  0  0  0  0
  -25.1293  -36.1938   25.0818 H   0  0  0  0  0  0
  -20.9984  -28.3272   24.1404 H   0  0  0  0  0  0
  -20.5697  -26.2302   23.3613 H   0  0  0  0  0  0
  -21.6650  -26.7454   22.1200 H   0  0  0  0  0  0
  -19.6923  -25.6295   21.1249 H   0  0  0  0  0  0
  -19.6692  -27.3194   20.6744 H   0  0  0  0  0  0
  -17.4205  -26.6682   21.4022 H   0  0  0  0  0  0
  -18.0327  -26.0062   22.9013 H   0  0  0  0  0  0
  -19.7936  -30.7268   24.2278 H   0  0  0  0  0  0
  -17.5017  -31.6270   24.5162 H   0  0  0  0  0  0
  -15.5355  -30.2991   23.7652 H   0  0  0  0  0  0
  -15.8673  -28.0821   22.7075 H   0  0  0  0  0  0
  -24.5877  -30.7102   25.7775 H   0  0  0  0  0  0
  -24.8934  -32.2901   26.4897 H   0  0  0  0  0  0
  -25.8043  -30.8885   27.0213 H   0  0  0  0  0  0
  -26.2915  -29.6766   24.1198 H   0  0  0  0  0  0
  -27.4035  -29.7278   25.4682 H   0  0  0  0  0  0
  -27.8780  -30.4314   23.9403 H   0  0  0  0  0  0
  -27.2651  -33.3613   26.2093 H   0  0  0  0  0  0
  -28.3846  -32.6909   25.0317 H   0  0  0  0  0  0
  -28.0728  -31.8439   26.5392 H   0  0  0  0  0  0
  -28.2586  -38.0117   24.7525 H   0  0  0  0  0  0
  -28.1095  -36.2648   24.6257 H   0  0  0  0  0  0
  -27.2307  -37.1421   25.8862 H   0  0  0  0  0  0
  -20.9352  -29.8771   21.6890 H   0  0  0  0  0  0
  -26.0175  -38.2855   24.1412 H   0  0  0  0  0  0
  -29.2021  -20.7312   17.8878 H   0  0  0  0  0  0
  -28.4302  -19.2250   17.3958 H   0  0  0  0  0  0
  -30.1864  -19.3937   17.3527 H   0  0  0  0  0  0
  -26.4818  -24.2225   18.1245 H   0  0  0  0  0  0
  -26.1806  -22.7351   18.9673 H   0  0  0  0  0  0
  -27.5199  -22.8798   17.8292 H   0  0  0  0  0  0
  -27.6148  -21.3882   21.2122 H   0  0  0  0  0  0
  -27.5161  -21.0712   19.5318 H   0  0  0  0  0  0
  -28.4279  -25.4686   18.3802 H   0  0  0  0  0  0
  -29.6706  -25.0992   19.4899 H   0  0  0  0  0  0
  -27.3227  -23.9618   20.6772 H   0  0  0  0  0  0
  -29.0460  -15.2784   21.5510 H   0  0  0  0  0  0
  -29.5251  -22.5356   19.3017 H   0  0  0  0  0  0
  -29.4366  -22.8592   20.8809 H   0  0  0  0  0  0
  1 25  1  0  0  0
  1 30  2  0  0  0
  1 82  1  0  0  0
  2  3  1  0  0  0
  2 25  1  0  0  0
  2 87  1  0  0  0
  2 88  1  0  0  0
  3  4  1  0  0  0
  3 89  1  0  0  0
  3 90  1  0  0  0
  4  5  1  0  0  0
  4 91  1  0  0  0
  4 92  1  0  0  0
  5  6  1  0  0  0
  5 26  1  0  0  0
  5 93  1  0  0  0
  6 25  1  0  0  0
  6 94  1  0  0  0
  6 95  1  0  0  0
  7  8  2  0  0  0
  7 26  1  0  0  0
  7 29  1  0  0  0
  8  9  1  0  0  0
  8 22  1  0  0  0
  9 10  1  0  0  0
  9 27  2  0  0  0
 10 11  2  0  0  0
 10 15  1  0  0  0
 11 12  1  0  0  0
 11 96  1  0  0  0
 12 13  2  0  0  0
 12 97  1  0  0  0
 13 14  1  0  0  0
 13 31  1  0  0  0
 14 15  2  0  0  0
 14 98  1  0  0  0
 15 99  1  0  0  0
 16 17  2  0  0  0
 16 21  1  0  0  0
 16 31  1  0  0  0
 17 18  1  0  0  0
 17100  1  0  0  0
 18 19  2  0  0  0
 18101  1  0  0  0
 19 20  1  0  0  0
 19 24  1  0  0  0
 20 21  2  0  0  0
 20102  1  0  0  0
 21 23  1  0  0  0
 22 28  1  0  0  0
 22 32  2  0  0  0
 26 27  1  0  0  0
 28103  1  0  0  0
 28104  1  0  0  0
 29105  1  0  0  0
 29106  1  0  0  0
 33 34  1  0  0  0
 33 66  1  0  0  0
 33 70  2  0  0  0
 34 36  1  0  0  0
 34 59  1  0  0  0
 34107  1  0  0  0
 35 44  2  0  0  0
 35 45  1  0  0  0
 35 68  1  0  0  0
 36 56  1  0  0  0
 36108  1  0  0  0
 37 39  1  0  0  0
 37 47  1  0  0  0
 37 66  1  0  0  0
 37109  1  0  0  0
 38 43  2  0  0  0
 38 46  1  0  0  0
 38 47  1  0  0  0
 39 64  1  0  0  0
 39 67  2  0  0  0
 40 52  1  0  0  0
 40 53  2  0  0  0
 40 58  1  0  0  0
 41110  1  0  0  0
 41111  1  0  0  0
 41112  1  0  0  0
 41 48  1  0  0  0
 42 43  1  0  0  0
 42 66  1  0  0  0
 42113  1  0  0  0
 42114  1  0  0  0
 43 44  1  0  0  0
 44115  1  0  0  0
 45 46  2  0  0  0
 45116  1  0  0  0
 46117  1  0  0  0
 47118  1  0  0  0
 47119  1  0  0  0
 48 56  1  0  0  0
 48 65  1  0  0  0
 48120  1  0  0  0
 49 50  1  0  0  0
 49 53  1  0  0  0
 49 64  1  0  0  0
 49121  1  0  0  0
 50 51  1  0  0  0
 50122  1  0  0  0
 50123  1  0  0  0
 51 52  1  0  0  0
 51124  1  0  0  0
 51125  1  0  0  0
 52126  1  0  0  0
 52127  1  0  0  0
 53 54  1  0  0  0
 54 55  2  0  0  0
 54128  1  0  0  0
 55 57  1  0  0  0
 55129  1  0  0  0
 56 69  2  0  0  0
 57 58  2  0  0  0
 57130  1  0  0  0
 58131  1  0  0  0
 59 60  1  0  0  0
 59 61  1  0  0  0
 59 62  1  0  0  0
 60132  1  0  0  0
 60133  1  0  0  0
 60134  1  0  0  0
 61135  1  0  0  0
 61136  1  0  0  0
 61137  1  0  0  0
 62138  1  0  0  0
 62139  1  0  0  0
 62140  1  0  0  0
 63 65  1  0  0  0
 63141  1  0  0  0
 63142  1  0  0  0
 63143  1  0  0  0
 64144  1  0  0  0
 65145  1  0  0  0
 68 80  1  0  0  0
 71 72  2  0  0  0
 71 74  1  0  0  0
 71 79  1  0  0  0
 72 75  1  0  0  0
 72 77  1  0  0  0
 73 75  2  0  0  0
 73 76  1  0  0  0
 73 82  1  0  0  0
 74 76  2  0  0  0
 74 84  1  0  0  0
 75 85  1  0  0  0
 76 86  1  0  0  0
 77146  1  0  0  0
 77147  1  0  0  0
 77148  1  0  0  0
 78149  1  0  0  0
 78150  1  0  0  0
 78151  1  0  0  0
 78 81  1  0  0  0
 79 83  1  0  0  0
 79152  1  0  0  0
 79153  1  0  0  0
 80 81  1  0  0  0
 80154  1  0  0  0
 80155  1  0  0  0
 81 83  1  0  0  0
 81156  1  0  0  0
 82157  1  0  0  0
 83158  1  0  0  0
 83159  1  0  0  0
M  CHG  1  83   1
M  ISO  4   1 100  68 101  80 101  82 100
M  END
> <chiral flag>
0

> <version>
0

> <s_m_source_file>
/data/baiqing/PycharmProjects/Reinvent-master-3.2/result/LINK_invent/BTK/process_docking_weight1_custom_sum_contain_oxygen_bond_distance_aromatic_linkinvent_7_9_3/rearranged_h_0023.sdf

> <i_m_source_file_index>
41

> <r_mmod_Potential_Energy-OPLS-2005>
-43.7170906066895

> <r_mmod_Stretch_Energy-OPLS-2005>
91.7435073852539

> <r_mmod_Bend_Energy-OPLS-2005>
177.536743164062

> <r_mmod_Torsional_Energy-OPLS-2005>
246.415802001953

> <r_mmod_Improper_Torsional_Energy-OPLS-2005>
7.28004693984985

> <r_mmod_Van_der_Waal_Energy-OPLS-2005>
146.776962280273

> <r_mmod_Electrostatic_Energy-OPLS-2005>
-283.695587158203

> <r_mmod_Solvation_Energy-OPLS-2005>
-475.647583007812

> <b_mmod_Minimization_Converged-OPLS-2005>
0

> <r_mmod_RMS_Derivative-OPLS-2005>
0.89691036939621

$$$$
41
                    3D
 Structure written by MMmdl.
183192  0  0  1  0            999 V2000
  -30.7467  -14.3779   20.6560 C   0  0  0  0  0  0
  -30.4187  -12.2849   19.3947 C   0  0  0  0  0  0
  -29.4876  -12.5340   18.1925 C   0  0  0  0  0  0
  -28.0110  -12.3893   18.6096 C   0  0  0  0  0  0
  -27.6685  -13.2012   19.8888 C   0  0  2  0  0  0
  -28.7088  -12.9291   20.9986 C   0  0  0  0  0  0
  -25.2609  -13.8145   20.5685 C   0  0  0  0  0  0
  -24.1831  -13.0456   20.9150 C   0  0  0  0  0  0
  -24.6377  -11.6911   20.8710 C   0  0  0  0  0  0
  -23.9017  -10.4313   21.0369 C   0  0  0  0  0  0
  -24.3577   -9.4237   21.9160 C   0  0  0  0  0  0
  -23.6272   -8.2257   22.0738 C   0  0  0  0  0  0
  -22.4252   -8.0272   21.3535 C   0  0  0  0  0  0
  -21.9875   -9.0234   20.4636 C   0  0  0  0  0  0
  -22.7176  -10.2135   20.3036 C   0  0  0  0  0  0
  -21.6863   -6.0734   22.5263 C   0  0  0  0  0  0
  -21.4017   -6.5632   23.8197 C   0  0  0  0  0  0
  -21.3664   -5.6783   24.9165 C   0  0  0  0  0  0
  -21.6054   -4.3047   24.7226 C   0  0  0  0  0  0
  -21.8817   -3.8136   23.4339 C   0  0  0  0  0  0
  -21.9199   -4.6956   22.3390 C   0  0  0  0  0  0
  -22.7862  -13.5272   21.1827 C   0  0  0  0  0  0
  -22.1666   -4.2141   21.0979 F   0  0  0  0  0  0
  -21.5637   -3.4530   25.7740 F   0  0  0  0  0  0
  -30.0497  -13.2289   20.4608 N   0  0  0  0  0  0
  -26.3046  -12.9316   20.3424 N   0  0  0  0  0  0
  -25.9306  -11.6480   20.5751 N   0  0  0  0  0  0
  -22.0457  -12.8241   22.0335 N   0  0  0  0  0  0
  -25.4399  -15.1848   20.4117 N   0  0  0  0  0  0
  -31.7936  -14.6514   20.0617 O   0  0  0  0  0  0
  -21.6640   -6.8863   21.4224 O   0  0  0  0  0  0
  -22.3560  -14.5595   20.6694 O   0  0  0  0  0  0
  -24.6155  -31.8733   23.2152 C   0  0  0  0  0  0
  -25.9061  -32.4838   23.8453 C   0  0  1  0  0  0
  -27.2220  -27.4587   20.0576 C   0  0  0  0  0  0
  -25.5932  -33.8644   24.2386 N   0  0  0  0  0  0
  -23.3992  -30.5027   21.5591 C   0  0  2  0  0  0
  -24.8381  -28.9946   20.1080 C   0  0  0  0  0  0
  -22.7412  -29.4689   22.5011 C   0  0  0  0  0  0
  -18.0282  -28.1361   22.8432 C   0  0  0  0  0  0
  -24.1500  -36.7342   23.2625 C   0  0  0  0  0  0
  -25.9299  -30.8372   21.3767 C   0  0  0  0  0  0
  -25.9981  -29.4770   20.7258 C   0  0  0  0  0  0
  -27.1812  -28.7015   20.7334 C   0  0  0  0  0  0
  -26.0738  -27.0781   19.3405 C   0  0  0  0  0  0
  -24.8664  -27.7794   19.4199 C   0  0  0  0  0  0
  -23.6022  -29.8537   20.1668 C   0  0  0  0  0  0
  -25.4104  -36.3136   24.0345 C   0  0  1  0  0  0
  -20.5865  -28.3630   23.1285 C   0  0  2  0  0  0
  -20.6791  -26.9400   22.5288 C   0  0  0  0  0  0
  -19.5784  -26.6506   21.5043 C   0  0  0  0  0  0
  -18.1949  -26.7964   22.1449 C   0  0  0  0  0  0
  -19.1526  -28.8801   23.2887 C   0  0  0  0  0  0
  -18.9454  -30.1384   23.8954 C   0  0  0  0  0  0
  -17.6470  -30.6541   24.0590 C   0  0  0  0  0  0
  -25.9037  -34.9479   23.5151 C   0  0  0  0  0  0
  -16.5361  -29.9061   23.6316 C   0  0  0  0  0  0
  -16.7266  -28.6487   23.0318 C   0  0  0  0  0  0
  -26.4472  -31.6576   25.0753 C   0  0  0  0  0  0
  -25.3725  -31.3641   26.1485 C   0  0  0  0  0  0
  -27.0315  -30.3028   24.6077 C   0  0  0  0  0  0
  -27.6066  -32.4259   25.7506 C   0  0  0  0  0  0
  -27.5572  -37.1819   24.8455 C   0  0  0  0  0  0
  -21.4134  -29.3046   22.3743 N   0  0  0  0  0  0
  -26.4280  -37.3805   23.9412 N   0  0  0  0  0  0
  -24.6660  -31.0853   22.1080 N   0  0  0  0  0  0
  -23.4203  -28.8269   23.3066 O   0  0  0  0  0  0
  -28.3593  -26.6754   20.1563 O   0  0  0  0  0  0
  -26.5550  -34.8915   22.4688 O   0  0  0  0  0  0
  -23.5358  -32.1526   23.7529 O   0  0  0  0  0  0
  -24.6833  -19.7679   21.2302 C   0  0  0  0  0  0
  -24.6159  -21.0643   20.7866 C   0  0  0  0  0  0
  -23.3198  -19.3785   21.3989 C   0  0  0  0  0  0
  -25.8467  -23.1767   21.4943 C   0  0  0  0  0  0
  -27.0855  -21.6277   20.0325 C   0  0  0  0  0  0
  -26.4505  -24.4324   20.8440 C   0  0  0  0  0  0
  -28.1098  -22.8084   19.9193 C   0  0  0  0  0  0
  -25.6586  -22.0944   20.4305 C   0  0  1  0  0  0
  -27.4480  -24.1955   19.6499 C   0  0  1  0  0  0
  -22.7703  -18.0671   21.8812 C   0  0  0  0  0  0
  -26.7657  -24.0523   18.2460 C   0  0  0  0  0  0
  -22.6134  -22.5872   20.2252 C   0  0  0  0  0  0
  -28.5215  -25.3617   19.5572 C   0  0  0  0  0  0
  -28.2590  -17.3920   22.2793 C   0  0  0  0  0  0
  -27.3699  -18.2322   23.2110 C   0  0  0  0  0  0
  -29.7311  -17.3633   22.7195 C   0  0  0  0  0  0
  -25.9223  -18.3170   22.7190 C   0  0  0  0  0  0
  -30.6391  -16.6128   21.7294 C   0  0  0  0  0  0
  -22.4766  -20.3400   21.0636 N   0  0  0  0  0  0
  -23.2616  -21.3710   20.6931 N   0  0  0  0  0  0
  -25.8600  -19.0225   21.4511 N   0  0  0  0  0  0
  -30.1939  -15.2379   21.5221 N   0  0  0  0  0  0
  -31.4628  -12.3801   19.0927 H   0  0  0  0  0  0
  -30.3077  -11.2592   19.7502 H   0  0  0  0  0  0
  -29.7200  -11.8406   17.3841 H   0  0  0  0  0  0
  -29.6627  -13.5354   17.7973 H   0  0  0  0  0  0
  -27.8162  -11.3303   18.7776 H   0  0  0  0  0  0
  -27.3575  -12.6879   17.7896 H   0  0  0  0  0  0
  -27.7312  -14.2585   19.6303 H   0  0  0  0  0  0
  -28.6688  -11.8792   21.2934 H   0  0  0  0  0  0
  -28.4607  -13.4835   21.9046 H   0  0  0  0  0  0
  -25.2730   -9.5741   22.4722 H   0  0  0  0  0  0
  -23.9994   -7.4673   22.7458 H   0  0  0  0  0  0
  -21.0807   -8.8748   19.8943 H   0  0  0  0  0  0
  -22.3614  -10.9670   19.6144 H   0  0  0  0  0  0
  -21.1997   -7.6140   23.9702 H   0  0  0  0  0  0
  -21.1496   -6.0517   25.9071 H   0  0  0  0  0  0
  -22.0594   -2.7600   23.2842 H   0  0  0  0  0  0
  -22.4020  -11.9856   22.4687 H   0  0  0  0  0  0
  -21.1044  -13.1251   22.2462 H   0  0  0  0  0  0
  -24.6869  -15.8513   20.5299 H   0  0  0  0  0  0
  -26.3141  -15.6253   20.1598 H   0  0  0  0  0  0
  -26.7156  -32.5552   23.1248 H   0  0  0  0  0  0
  -25.0153  -33.9839   25.0581 H   0  0  0  0  0  0
  -22.6901  -31.3204   21.4256 H   0  0  0  0  0  0
  -23.3738  -35.9696   23.3294 H   0  0  0  0  0  0
  -24.3610  -36.8934   22.2034 H   0  0  0  0  0  0
  -23.7257  -37.6561   23.6628 H   0  0  0  0  0  0
  -26.0520  -31.6022   20.6085 H   0  0  0  0  0  0
  -26.8183  -30.8827   21.9921 H   0  0  0  0  0  0
  -28.0581  -29.0535   21.2577 H   0  0  0  0  0  0
  -26.0704  -26.2296   18.7068 H   0  0  0  0  0  0
  -23.9901  -27.4106   18.9041 H   0  0  0  0  0  0
  -23.7136  -30.6386   19.4167 H   0  0  0  0  0  0
  -22.7287  -29.2742   19.8630 H   0  0  0  0  0  0
  -25.1272  -36.2033   25.0833 H   0  0  0  0  0  0
  -20.9935  -28.3105   24.1408 H   0  0  0  0  0  0
  -20.5701  -26.2174   23.3399 H   0  0  0  0  0  0
  -21.6668  -26.7504   22.1056 H   0  0  0  0  0  0
  -19.6987  -25.6498   21.0891 H   0  0  0  0  0  0
  -19.6746  -27.3464   20.6698 H   0  0  0  0  0  0
  -17.4253  -26.6776   21.3807 H   0  0  0  0  0  0
  -18.0321  -26.0013   22.8739 H   0  0  0  0  0  0
  -19.7949  -30.7134   24.2384 H   0  0  0  0  0  0
  -17.5050  -31.6212   24.5227 H   0  0  0  0  0  0
  -15.5369  -30.2995   23.7649 H   0  0  0  0  0  0
  -15.8650  -28.0854   22.7004 H   0  0  0  0  0  0
  -24.5931  -30.6949   25.7809 H   0  0  0  0  0  0
  -24.8875  -32.2786   26.4925 H   0  0  0  0  0  0
  -25.8071  -30.8823   27.0251 H   0  0  0  0  0  0
  -26.2888  -29.6781   24.1081 H   0  0  0  0  0  0
  -27.4109  -29.7220   25.4499 H   0  0  0  0  0  0
  -27.8724  -30.4390   23.9250 H   0  0  0  0  0  0
  -27.2722  -33.3564   26.2086 H   0  0  0  0  0  0
  -28.3866  -32.6754   25.0307 H   0  0  0  0  0  0
  -28.0740  -31.8355   26.5397 H   0  0  0  0  0  0
  -28.2581  -38.0119   24.7521 H   0  0  0  0  0  0
  -28.1067  -36.2646   24.6285 H   0  0  0  0  0  0
  -27.2287  -37.1495   25.8851 H   0  0  0  0  0  0
  -20.9289  -29.8771   21.6975 H   0  0  0  0  0  0
  -26.0181  -38.2881   24.1424 H   0  0  0  0  0  0
  -24.9032  -23.4444   21.9694 H   0  0  0  0  0  0
  -26.4900  -22.8069   22.2962 H   0  0  0  0  0  0
  -27.4774  -20.9501   20.7873 H   0  0  0  0  0  0
  -27.0361  -21.0615   19.1026 H   0  0  0  0  0  0
  -26.9338  -25.0197   21.6255 H   0  0  0  0  0  0
  -25.5894  -25.0108   20.5294 H   0  0  0  0  0  0
  -28.8537  -22.5686   19.1557 H   0  0  0  0  0  0
  -28.6717  -22.8670   20.8528 H   0  0  0  0  0  0
  -25.2306  -22.5674   19.5532 H   0  0  0  0  0  0
  -23.4292  -17.2474   21.6016 H   0  0  0  0  0  0
  -21.7914  -17.8552   21.4541 H   0  0  0  0  0  0
  -22.6719  -18.0604   22.9668 H   0  0  0  0  0  0
  -26.9183  -23.0748   17.7894 H   0  0  0  0  0  0
  -27.1434  -24.7586   17.5086 H   0  0  0  0  0  0
  -25.6870  -24.2008   18.2818 H   0  0  0  0  0  0
  -23.1597  -23.4692   20.5527 H   0  0  0  0  0  0
  -21.5944  -22.6600   20.6098 H   0  0  0  0  0  0
  -22.5767  -22.5847   19.1354 H   0  0  0  0  0  0
  -29.4203  -24.9959   20.0571 H   0  0  0  0  0  0
  -28.8596  -25.5186   18.5312 H   0  0  0  0  0  0
  -28.2122  -17.7892   21.2645 H   0  0  0  0  0  0
  -27.8584  -16.3784   22.2283 H   0  0  0  0  0  0
  -27.7821  -19.2387   23.3210 H   0  0  0  0  0  0
  -27.3762  -17.7935   24.2103 H   0  0  0  0  0  0
  -29.8162  -16.9227   23.7148 H   0  0  0  0  0  0
  -30.0919  -18.3904   22.8128 H   0  0  0  0  0  0
  -25.3165  -18.8364   23.4626 H   0  0  0  0  0  0
  -25.5099  -17.3135   22.6054 H   0  0  0  0  0  0
  -31.6708  -16.6250   22.0876 H   0  0  0  0  0  0
  -30.6371  -17.1355   20.7709 H   0  0  0  0  0  0
  -26.7350  -19.4615   21.1834 H   0  0  0  0  0  0
  -29.3520  -14.9418   21.9916 H   0  0  0  0  0  0
  1 25  1  0  0  0
  1 30  2  0  0  0
  1 92  1  0  0  0
  2  3  1  0  0  0
  2 25  1  0  0  0
  2 93  1  0  0  0
  2 94  1  0  0  0
  3  4  1  0  0  0
  3 95  1  0  0  0
  3 96  1  0  0  0
  4  5  1  0  0  0
  4 97  1  0  0  0
  4 98  1  0  0  0
  5  6  1  0  0  0
  5 26  1  0  0  0
  5 99  1  0  0  0
  6 25  1  0  0  0
  6100  1  0  0  0
  6101  1  0  0  0
  7  8  2  0  0  0
  7 26  1  0  0  0
  7 29  1  0  0  0
  8  9  1  0  0  0
  8 22  1  0  0  0
  9 10  1  0  0  0
  9 27  2  0  0  0
 10 11  2  0  0  0
 10 15  1  0  0  0
 11 12  1  0  0  0
 11102  1  0  0  0
 12 13  2  0  0  0
 12103  1  0  0  0
 13 14  1  0  0  0
 13 31  1  0  0  0
 14 15  2  0  0  0
 14104  1  0  0  0
 15105  1  0  0  0
 16 17  2  0  0  0
 16 21  1  0  0  0
 16 31  1  0  0  0
 17 18  1  0  0  0
 17106  1  0  0  0
 18 19  2  0  0  0
 18107  1  0  0  0
 19 20  1  0  0  0
 19 24  1  0  0  0
 20 21  2  0  0  0
 20108  1  0  0  0
 21 23  1  0  0  0
 22 28  1  0  0  0
 22 32  2  0  0  0
 26 27  1  0  0  0
 28109  1  0  0  0
 28110  1  0  0  0
 29111  1  0  0  0
 29112  1  0  0  0
 33 34  1  0  0  0
 33 66  1  0  0  0
 33 70  2  0  0  0
 34 36  1  0  0  0
 34 59  1  0  0  0
 34113  1  0  0  0
 35 44  2  0  0  0
 35 45  1  0  0  0
 35 68  1  0  0  0
 36 56  1  0  0  0
 36114  1  0  0  0
 37 39  1  0  0  0
 37 47  1  0  0  0
 37 66  1  0  0  0
 37115  1  0  0  0
 38 43  2  0  0  0
 38 46  1  0  0  0
 38 47  1  0  0  0
 39 64  1  0  0  0
 39 67  2  0  0  0
 40 52  1  0  0  0
 40 53  2  0  0  0
 40 58  1  0  0  0
 41116  1  0  0  0
 41117  1  0  0  0
 41118  1  0  0  0
 41 48  1  0  0  0
 42 43  1  0  0  0
 42 66  1  0  0  0
 42119  1  0  0  0
 42120  1  0  0  0
 43 44  1  0  0  0
 44121  1  0  0  0
 45 46  2  0  0  0
 45122  1  0  0  0
 46123  1  0  0  0
 47124  1  0  0  0
 47125  1  0  0  0
 48 56  1  0  0  0
 48 65  1  0  0  0
 48126  1  0  0  0
 49 50  1  0  0  0
 49 53  1  0  0  0
 49 64  1  0  0  0
 49127  1  0  0  0
 50 51  1  0  0  0
 50128  1  0  0  0
 50129  1  0  0  0
 51 52  1  0  0  0
 51130  1  0  0  0
 51131  1  0  0  0
 52132  1  0  0  0
 52133  1  0  0  0
 53 54  1  0  0  0
 54 55  2  0  0  0
 54134  1  0  0  0
 55 57  1  0  0  0
 55135  1  0  0  0
 56 69  2  0  0  0
 57 58  2  0  0  0
 57136  1  0  0  0
 58137  1  0  0  0
 59 60  1  0  0  0
 59 61  1  0  0  0
 59 62  1  0  0  0
 60138  1  0  0  0
 60139  1  0  0  0
 60140  1  0  0  0
 61141  1  0  0  0
 61142  1  0  0  0
 61143  1  0  0  0
 62144  1  0  0  0
 62145  1  0  0  0
 62146  1  0  0  0
 63 65  1  0  0  0
 63147  1  0  0  0
 63148  1  0  0  0
 63149  1  0  0  0
 64150  1  0  0  0
 65151  1  0  0  0
 68 83  1  0  0  0
 71 72  2  0  0  0
 71 73  1  0  0  0
 71 91  1  0  0  0
 72 90  1  0  0  0
 72 78  1  0  0  0
 73 80  1  0  0  0
 73 89  2  0  0  0
 74 76  1  0  0  0
 74 78  1  0  0  0
 74152  1  0  0  0
 74153  1  0  0  0
 75 77  1  0  0  0
 75 78  1  0  0  0
 75154  1  0  0  0
 75155  1  0  0  0
 76 79  1  0  0  0
 76156  1  0  0  0
 76157  1  0  0  0
 77 79  1  0  0  0
 77158  1  0  0  0
 77159  1  0  0  0
 78160  1  0  0  0
 79 81  1  0  0  0
 79 83  1  0  0  0
 80161  1  0  0  0
 80162  1  0  0  0
 80163  1  0  0  0
 81164  1  0  0  0
 81165  1  0  0  0
 81166  1  0  0  0
 82 90  1  0  0  0
 82167  1  0  0  0
 82168  1  0  0  0
 82169  1  0  0  0
 83170  1  0  0  0
 83171  1  0  0  0
 84 85  1  0  0  0
 84 86  1  0  0  0
 84172  1  0  0  0
 84173  1  0  0  0
 85 87  1  0  0  0
 85174  1  0  0  0
 85175  1  0  0  0
 86 88  1  0  0  0
 86176  1  0  0  0
 86177  1  0  0  0
 87 91  1  0  0  0
 87178  1  0  0  0
 87179  1  0  0  0
 88 92  1  0  0  0
 88180  1  0  0  0
 88181  1  0  0  0
 89 90  1  0  0  0
 91182  1  0  0  0
 92183  1  0  0  0
M  ISO  4   1 100  68 101  83 101  92 100
M  END
> <chiral flag>
0

> <version>
0

> <s_m_source_file>
/data/baiqing/PycharmProjects/Reinvent-master-3.2/result/LINK_invent/BTK/process_docking_weight1_custom_sum_contain_oxygen_bond_distance_aromatic_linkinvent_7_9_3/rearranged_h_0023.sdf

> <i_m_source_file_index>
42

> <r_mmod_Potential_Energy-OPLS-2005>
77.7965087890625

> <r_mmod_Stretch_Energy-OPLS-2005>
45.0477523803711

> <r_mmod_Bend_Energy-OPLS-2005>
154.979736328125

> <r_mmod_Torsional_Energy-OPLS-2005>
288.869354248047

> <r_mmod_Improper_Torsional_Energy-OPLS-2005>
5.82715034484863

> <r_mmod_Van_der_Waal_Energy-OPLS-2005>
161.813446044922

> <r_mmod_Electrostatic_Energy-OPLS-2005>
-386.44873046875

> <r_mmod_Solvation_Energy-OPLS-2005>
-208.404632568359

> <b_mmod_Minimization_Converged-OPLS-2005>
0

> <r_mmod_RMS_Derivative-OPLS-2005>
3.99971890449524

$$$$
42
                    3D
 Structure written by MMmdl.
153161  0  0  1  0            999 V2000
  -30.5564  -14.9223   20.4185 C   0  0  0  0  0  0
  -30.4321  -12.5687   19.4957 C   0  0  0  0  0  0
  -29.5160  -12.5206   18.2514 C   0  0  0  0  0  0
  -28.0486  -12.3116   18.6711 C   0  0  0  0  0  0
  -27.6274  -13.2457   19.8365 C   0  0  2  0  0  0
  -28.6696  -13.2715   20.9737 C   0  0  0  0  0  0
  -25.2452  -13.8198   20.5702 C   0  0  0  0  0  0
  -24.1771  -13.0429   20.9245 C   0  0  0  0  0  0
  -24.6386  -11.6918   20.8769 C   0  0  0  0  0  0
  -23.9074  -10.4287   21.0418 C   0  0  0  0  0  0
  -24.3621   -9.4204   21.9193 C   0  0  0  0  0  0
  -23.6293   -8.2238   22.0757 C   0  0  0  0  0  0
  -22.4281   -8.0278   21.3543 C   0  0  0  0  0  0
  -21.9915   -9.0255   20.4649 C   0  0  0  0  0  0
  -22.7244  -10.2134   20.3064 C   0  0  0  0  0  0
  -21.6854   -6.0734   22.5280 C   0  0  0  0  0  0
  -21.4011   -6.5640   23.8215 C   0  0  0  0  0  0
  -21.3659   -5.6796   24.9176 C   0  0  0  0  0  0
  -21.6044   -4.3055   24.7226 C   0  0  0  0  0  0
  -21.8818   -3.8148   23.4350 C   0  0  0  0  0  0
  -21.9190   -4.6964   22.3405 C   0  0  0  0  0  0
  -22.7799  -13.5216   21.1894 C   0  0  0  0  0  0
  -22.1662   -4.2149   21.0980 F   0  0  0  0  0  0
  -21.5630   -3.4540   25.7740 F   0  0  0  0  0  0
  -29.9455  -13.6727   20.3709 N   0  0  0  0  0  0
  -26.2870  -12.9428   20.3239 N   0  0  0  0  0  0
  -25.9317  -11.6562   20.5746 N   0  0  0  0  0  0
  -22.0443  -12.8199   22.0444 N   0  0  0  0  0  0
  -25.4113  -15.1910   20.4083 N   0  0  0  0  0  0
  -31.7645  -14.9686   20.1660 O   0  0  0  0  0  0
  -21.6639   -6.8879   21.4243 O   0  0  0  0  0  0
  -22.3488  -14.5518   20.6737 O   0  0  0  0  0  0
  -24.6434  -31.8436   23.1877 C   0  0  0  0  0  0
  -25.9207  -32.4692   23.8278 C   0  0  1  0  0  0
  -27.2097  -27.1318   20.1558 C   0  0  0  0  0  0
  -25.5958  -33.8502   24.2199 N   0  0  0  0  0  0
  -23.4458  -30.4649   21.5328 C   0  0  2  0  0  0
  -24.8923  -28.8839   20.1122 C   0  0  0  0  0  0
  -22.7555  -29.4576   22.4855 C   0  0  0  0  0  0
  -18.0311  -28.1394   22.8473 C   0  0  0  0  0  0
  -24.1488  -36.7254   23.2649 C   0  0  0  0  0  0
  -26.0020  -30.7136   21.3863 C   0  0  0  0  0  0
  -26.0699  -29.3232   20.7310 C   0  0  0  0  0  0
  -27.2310  -28.4640   20.7337 C   0  0  0  0  0  0
  -26.0099  -26.7922   19.4948 C   0  0  0  0  0  0
  -24.8752  -27.6311   19.4793 C   0  0  0  0  0  0
  -23.6711  -29.7899   20.1528 C   0  0  0  0  0  0
  -25.4117  -36.3036   24.0327 C   0  0  1  0  0  0
  -20.5919  -28.3736   23.1218 C   0  0  2  0  0  0
  -20.6791  -26.9434   22.5394 C   0  0  0  0  0  0
  -19.5765  -26.6381   21.5205 C   0  0  0  0  0  0
  -18.1949  -26.7932   22.1617 C   0  0  0  0  0  0
  -19.1565  -28.8876   23.2843 C   0  0  0  0  0  0
  -18.9485  -30.1471   23.8874 C   0  0  0  0  0  0
  -17.6484  -30.6590   24.0563 C   0  0  0  0  0  0
  -25.9072  -34.9411   23.5073 C   0  0  0  0  0  0
  -16.5372  -29.9086   23.6331 C   0  0  0  0  0  0
  -16.7294  -28.6504   23.0354 C   0  0  0  0  0  0
  -26.4518  -31.6561   25.0720 C   0  0  0  0  0  0
  -25.3711  -31.3745   26.1423 C   0  0  0  0  0  0
  -27.0392  -30.2967   24.6296 C   0  0  0  0  0  0
  -27.6049  -32.4331   25.7498 C   0  0  0  0  0  0
  -27.5575  -37.1784   24.8471 C   0  0  0  0  0  0
  -21.4249  -29.3074   22.3595 N   0  0  0  0  0  0
  -26.4284  -37.3745   23.9414 N   0  0  0  0  0  0
  -24.7172  -31.0294   22.0906 N   0  0  0  0  0  0
  -23.4203  -28.8130   23.3007 O   0  0  0  0  0  0
  -28.2707  -26.1589   20.1839 O   0  0  0  0  0  0
  -26.5652  -34.8910   22.4653 O   0  0  0  0  0  0
  -23.5554  -32.1327   23.7089 O   0  0  0  0  0  0
  -28.1016  -19.3711   20.4945 C   0  0  0  0  0  0
  -27.7415  -20.8129   20.3226 C   0  0  0  0  0  0
  -29.4483  -19.0314   20.4041 C   0  0  0  0  0  0
  -28.8044  -21.7182   20.1955 C   0  0  0  0  0  0
  -27.0770  -18.2988   20.7368 C   0  0  0  0  0  0
  -28.8922  -23.3382   19.8755 C   0  0  0  0  0  0
  -30.2957  -17.6189   20.4477 C   0  0  0  0  0  0
  -28.0228  -24.6473   20.4844 C   0  0  0  0  0  0
  -26.2971  -21.2830   20.2715 C   0  0  0  0  0  0
  -29.8054  -16.1237   20.5343 N   0  0  0  0  0  0
  -25.4734  -20.3630   19.7706 F   0  0  0  0  0  0
  -25.8554  -21.6018   21.4879 F   0  0  0  0  0  0
  -26.1502  -22.3520   19.4926 F   0  0  0  0  0  0
  -30.2639  -20.6436   20.2333 S   0  0  0  0  0  0
  -31.4696  -12.7118   19.1892 H   0  0  0  0  0  0
  -30.4083  -11.6166   20.0282 H   0  0  0  0  0  0
  -29.8300  -11.7207   17.5793 H   0  0  0  0  0  0
  -29.6088  -13.4500   17.6875 H   0  0  0  0  0  0
  -27.9431  -11.2710   18.9795 H   0  0  0  0  0  0
  -27.3839  -12.4441   17.8164 H   0  0  0  0  0  0
  -27.5921  -14.2476   19.4084 H   0  0  0  0  0  0
  -28.7514  -12.2970   21.4561 H   0  0  0  0  0  0
  -28.3750  -13.9793   21.7506 H   0  0  0  0  0  0
  -25.2763   -9.5679   22.4774 H   0  0  0  0  0  0
  -24.0004   -7.4627   22.7472 H   0  0  0  0  0  0
  -21.0848   -8.8774   19.8952 H   0  0  0  0  0  0
  -22.3702  -10.9677   19.6178 H   0  0  0  0  0  0
  -21.2002   -7.6148   23.9717 H   0  0  0  0  0  0
  -21.1484   -6.0524   25.9079 H   0  0  0  0  0  0
  -22.0596   -2.7609   23.2848 H   0  0  0  0  0  0
  -22.4064  -11.9864   22.4831 H   0  0  0  0  0  0
  -21.1063  -13.1222   22.2649 H   0  0  0  0  0  0
  -24.6323  -15.8340   20.4982 H   0  0  0  0  0  0
  -26.2343  -15.6165   20.0059 H   0  0  0  0  0  0
  -26.7281  -32.5282   23.1010 H   0  0  0  0  0  0
  -25.0090  -33.9616   25.0339 H   0  0  0  0  0  0
  -22.7509  -31.2927   21.3779 H   0  0  0  0  0  0
  -23.3750  -35.9585   23.3291 H   0  0  0  0  0  0
  -24.3583  -36.8893   22.2067 H   0  0  0  0  0  0
  -23.7231  -37.6448   23.6683 H   0  0  0  0  0  0
  -26.1604  -31.4602   20.6072 H   0  0  0  0  0  0
  -26.8733  -30.7660   22.0282 H   0  0  0  0  0  0
  -28.1299  -28.7945   21.2353 H   0  0  0  0  0  0
  -25.9253  -25.8388   18.9927 H   0  0  0  0  0  0
  -23.9775  -27.2882   18.9835 H   0  0  0  0  0  0
  -23.8130  -30.5637   19.3980 H   0  0  0  0  0  0
  -22.7815  -29.2390   19.8410 H   0  0  0  0  0  0
  -25.1298  -36.1875   25.0820 H   0  0  0  0  0  0
  -21.0031  -28.3326   24.1330 H   0  0  0  0  0  0
  -20.5671  -26.2355   23.3621 H   0  0  0  0  0  0
  -21.6658  -26.7423   22.1204 H   0  0  0  0  0  0
  -19.6930  -25.6287   21.1249 H   0  0  0  0  0  0
  -19.6694  -27.3172   20.6717 H   0  0  0  0  0  0
  -17.4214  -26.6672   21.4025 H   0  0  0  0  0  0
  -18.0352  -26.0081   22.9021 H   0  0  0  0  0  0
  -19.7966  -30.7289   24.2230 H   0  0  0  0  0  0
  -17.5041  -31.6266   24.5170 H   0  0  0  0  0  0
  -15.5372  -30.2986   23.7667 H   0  0  0  0  0  0
  -15.8694  -28.0817   22.7080 H   0  0  0  0  0  0
  -24.5897  -30.7083   25.7753 H   0  0  0  0  0  0
  -24.8892  -32.2923   26.4812 H   0  0  0  0  0  0
  -25.8013  -30.8952   27.0232 H   0  0  0  0  0  0
  -26.3022  -29.6681   24.1293 H   0  0  0  0  0  0
  -27.4008  -29.7276   25.4874 H   0  0  0  0  0  0
  -27.8922  -30.4214   23.9620 H   0  0  0  0  0  0
  -27.2644  -33.3652   26.2022 H   0  0  0  0  0  0
  -28.3878  -32.6860   25.0335 H   0  0  0  0  0  0
  -28.0696  -31.8494   26.5453 H   0  0  0  0  0  0
  -28.2585  -38.0089   24.7512 H   0  0  0  0  0  0
  -28.1078  -36.2617   24.6294 H   0  0  0  0  0  0
  -27.2302  -37.1428   25.8879 H   0  0  0  0  0  0
  -20.9458  -29.8789   21.6773 H   0  0  0  0  0  0
  -26.0151  -38.2819   24.1404 H   0  0  0  0  0  0
  -26.2631  -18.6522   21.3712 H   0  0  0  0  0  0
  -27.5002  -17.4374   21.2506 H   0  0  0  0  0  0
  -26.6426  -17.9468   19.8006 H   0  0  0  0  0  0
  -28.7818  -23.4221   18.7942 H   0  0  0  0  0  0
  -29.9362  -23.6032   20.0437 H   0  0  0  0  0  0
  -30.9988  -17.7142   21.2759 H   0  0  0  0  0  0
  -30.9393  -17.6370   19.5668 H   0  0  0  0  0  0
  -28.1167  -24.5795   21.5683 H   0  0  0  0  0  0
  -26.9714  -24.4458   20.3031 H   0  0  0  0  0  0
  -28.8163  -15.9942   20.6741 H   0  0  0  0  0  0
  1 25  1  0  0  0
  1 30  2  0  0  0
  1 80  1  0  0  0
  2  3  1  0  0  0
  2 25  1  0  0  0
  2 85  1  0  0  0
  2 86  1  0  0  0
  3  4  1  0  0  0
  3 87  1  0  0  0
  3 88  1  0  0  0
  4  5  1  0  0  0
  4 89  1  0  0  0
  4 90  1  0  0  0
  5  6  1  0  0  0
  5 26  1  0  0  0
  5 91  1  0  0  0
  6 25  1  0  0  0
  6 92  1  0  0  0
  6 93  1  0  0  0
  7  8  2  0  0  0
  7 26  1  0  0  0
  7 29  1  0  0  0
  8  9  1  0  0  0
  8 22  1  0  0  0
  9 10  1  0  0  0
  9 27  2  0  0  0
 10 11  2  0  0  0
 10 15  1  0  0  0
 11 12  1  0  0  0
 11 94  1  0  0  0
 12 13  2  0  0  0
 12 95  1  0  0  0
 13 14  1  0  0  0
 13 31  1  0  0  0
 14 15  2  0  0  0
 14 96  1  0  0  0
 15 97  1  0  0  0
 16 17  2  0  0  0
 16 21  1  0  0  0
 16 31  1  0  0  0
 17 18  1  0  0  0
 17 98  1  0  0  0
 18 19  2  0  0  0
 18 99  1  0  0  0
 19 20  1  0  0  0
 19 24  1  0  0  0
 20 21  2  0  0  0
 20100  1  0  0  0
 21 23  1  0  0  0
 22 28  1  0  0  0
 22 32  2  0  0  0
 26 27  1  0  0  0
 28101  1  0  0  0
 28102  1  0  0  0
 29103  1  0  0  0
 29104  1  0  0  0
 33 34  1  0  0  0
 33 66  1  0  0  0
 33 70  2  0  0  0
 34 36  1  0  0  0
 34 59  1  0  0  0
 34105  1  0  0  0
 35 44  2  0  0  0
 35 45  1  0  0  0
 35 68  1  0  0  0
 36 56  1  0  0  0
 36106  1  0  0  0
 37 39  1  0  0  0
 37 47  1  0  0  0
 37 66  1  0  0  0
 37107  1  0  0  0
 38 43  2  0  0  0
 38 46  1  0  0  0
 38 47  1  0  0  0
 39 64  1  0  0  0
 39 67  2  0  0  0
 40 52  1  0  0  0
 40 53  2  0  0  0
 40 58  1  0  0  0
 41108  1  0  0  0
 41109  1  0  0  0
 41110  1  0  0  0
 41 48  1  0  0  0
 42 43  1  0  0  0
 42 66  1  0  0  0
 42111  1  0  0  0
 42112  1  0  0  0
 43 44  1  0  0  0
 44113  1  0  0  0
 45 46  2  0  0  0
 45114  1  0  0  0
 46115  1  0  0  0
 47116  1  0  0  0
 47117  1  0  0  0
 48 56  1  0  0  0
 48 65  1  0  0  0
 48118  1  0  0  0
 49 50  1  0  0  0
 49 53  1  0  0  0
 49 64  1  0  0  0
 49119  1  0  0  0
 50 51  1  0  0  0
 50120  1  0  0  0
 50121  1  0  0  0
 51 52  1  0  0  0
 51122  1  0  0  0
 51123  1  0  0  0
 52124  1  0  0  0
 52125  1  0  0  0
 53 54  1  0  0  0
 54 55  2  0  0  0
 54126  1  0  0  0
 55 57  1  0  0  0
 55127  1  0  0  0
 56 69  2  0  0  0
 57 58  2  0  0  0
 57128  1  0  0  0
 58129  1  0  0  0
 59 60  1  0  0  0
 59 61  1  0  0  0
 59 62  1  0  0  0
 60130  1  0  0  0
 60131  1  0  0  0
 60132  1  0  0  0
 61133  1  0  0  0
 61134  1  0  0  0
 61135  1  0  0  0
 62136  1  0  0  0
 62137  1  0  0  0
 62138  1  0  0  0
 63 65  1  0  0  0
 63139  1  0  0  0
 63140  1  0  0  0
 63141  1  0  0  0
 64142  1  0  0  0
 65143  1  0  0  0
 68 78  1  0  0  0
 71 72  1  0  0  0
 71 73  2  0  0  0
 71 75  1  0  0  0
 72 74  2  0  0  0
 72 79  1  0  0  0
 73 77  1  0  0  0
 73 84  1  0  0  0
 74 76  1  0  0  0
 74 84  1  0  0  0
 75144  1  0  0  0
 75145  1  0  0  0
 75146  1  0  0  0
 76 78  1  0  0  0
 76147  1  0  0  0
 76148  1  0  0  0
 77 80  1  0  0  0
 77149  1  0  0  0
 77150  1  0  0  0
 78151  1  0  0  0
 78152  1  0  0  0
 79 81  1  0  0  0
 79 82  1  0  0  0
 79 83  1  0  0  0
 80153  1  0  0  0
M  ISO  4   1 100  68 101  78 101  80 100
M  END
> <chiral flag>
0

> <version>
0

> <s_m_source_file>
/data/baiqing/PycharmProjects/Reinvent-master-3.2/result/LINK_invent/BTK/process_docking_weight1_custom_sum_contain_oxygen_bond_distance_aromatic_linkinvent_7_9_3/rearranged_h_0023.sdf

> <i_m_source_file_index>
43

> <r_mmod_Potential_Energy-OPLS-2005>
497.083709716797

> <r_mmod_Stretch_Energy-OPLS-2005>
243.028991699219

> <r_mmod_Bend_Energy-OPLS-2005>
272.819671630859

> <r_mmod_Torsional_Energy-OPLS-2005>
209.853149414062

> <r_mmod_Improper_Torsional_Energy-OPLS-2005>
5.18598318099976

> <r_mmod_Van_der_Waal_Energy-OPLS-2005>
112.121147155762

> <r_mmod_Electrostatic_Energy-OPLS-2005>
-326.532684326172

> <r_mmod_Solvation_Energy-OPLS-2005>
-201.811981201172

> <b_mmod_Minimization_Converged-OPLS-2005>
0

> <r_mmod_RMS_Derivative-OPLS-2005>
1.61204421520233

$$$$
43
                    3D
 Structure written by MMmdl.
177185  0  0  1  0            999 V2000
  -30.4781  -15.1239   20.3875 C   0  0  0  0  0  0
  -30.4429  -12.7079   19.5140 C   0  0  0  0  0  0
  -29.5301  -12.5537   18.2729 C   0  0  0  0  0  0
  -28.0709  -12.3058   18.6970 C   0  0  0  0  0  0
  -27.6205  -13.2631   19.8301 C   0  0  2  0  0  0
  -28.6594  -13.3707   20.9666 C   0  0  0  0  0  0
  -25.2432  -13.8241   20.5735 C   0  0  0  0  0  0
  -24.1771  -13.0448   20.9256 C   0  0  0  0  0  0
  -24.6403  -11.6940   20.8768 C   0  0  0  0  0  0
  -23.9092  -10.4302   21.0411 C   0  0  0  0  0  0
  -24.3639   -9.4213   21.9186 C   0  0  0  0  0  0
  -23.6307   -8.2248   22.0754 C   0  0  0  0  0  0
  -22.4287   -8.0290   21.3546 C   0  0  0  0  0  0
  -21.9930   -9.0266   20.4647 C   0  0  0  0  0  0
  -22.7265  -10.2141   20.3059 C   0  0  0  0  0  0
  -21.6855   -6.0744   22.5280 C   0  0  0  0  0  0
  -21.4014   -6.5647   23.8214 C   0  0  0  0  0  0
  -21.3658   -5.6797   24.9175 C   0  0  0  0  0  0
  -21.6041   -4.3059   24.7221 C   0  0  0  0  0  0
  -21.8820   -3.8154   23.4344 C   0  0  0  0  0  0
  -21.9194   -4.6971   22.3402 C   0  0  0  0  0  0
  -22.7791  -13.5208   21.1903 C   0  0  0  0  0  0
  -22.1663   -4.2161   21.0978 F   0  0  0  0  0  0
  -21.5628   -3.4540   25.7732 F   0  0  0  0  0  0
  -29.9120  -13.8335   20.3520 N   0  0  0  0  0  0
  -26.2854  -12.9493   20.3232 N   0  0  0  0  0  0
  -25.9334  -11.6610   20.5731 N   0  0  0  0  0  0
  -22.0440  -12.8187   22.0450 N   0  0  0  0  0  0
  -25.4077  -15.1969   20.4153 N   0  0  0  0  0  0
  -31.6923  -15.1639   20.1529 O   0  0  0  0  0  0
  -21.6647   -6.8889   21.4242 O   0  0  0  0  0  0
  -22.3470  -14.5508   20.6738 O   0  0  0  0  0  0
  -24.6556  -31.8318   23.1765 C   0  0  0  0  0  0
  -25.9271  -32.4634   23.8197 C   0  0  1  0  0  0
  -27.2167  -27.0089   20.1737 C   0  0  0  0  0  0
  -25.5970  -33.8443   24.2110 N   0  0  0  0  0  0
  -23.4659  -30.4470   21.5238 C   0  0  2  0  0  0
  -24.9165  -28.8477   20.1139 C   0  0  0  0  0  0
  -22.7624  -29.4495   22.4802 C   0  0  0  0  0  0
  -18.0313  -28.1411   22.8484 C   0  0  0  0  0  0
  -24.1475  -36.7209   23.2651 C   0  0  0  0  0  0
  -26.0301  -30.6665   21.3926 C   0  0  0  0  0  0
  -26.0989  -29.2637   20.7379 C   0  0  0  0  0  0
  -27.2480  -28.3651   20.7416 C   0  0  0  0  0  0
  -26.0039  -26.7242   19.5083 C   0  0  0  0  0  0
  -24.8891  -27.5964   19.4805 C   0  0  0  0  0  0
  -23.7000  -29.7668   20.1482 C   0  0  0  0  0  0
  -25.4119  -36.2991   24.0312 C   0  0  1  0  0  0
  -20.5936  -28.3750   23.1205 C   0  0  2  0  0  0
  -20.6791  -26.9436   22.5407 C   0  0  0  0  0  0
  -19.5760  -26.6383   21.5222 C   0  0  0  0  0  0
  -18.1943  -26.7950   22.1630 C   0  0  0  0  0  0
  -19.1576  -28.8897   23.2837 C   0  0  0  0  0  0
  -18.9497  -30.1489   23.8872 C   0  0  0  0  0  0
  -17.6496  -30.6612   24.0558 C   0  0  0  0  0  0
  -25.9087  -34.9379   23.5029 C   0  0  0  0  0  0
  -16.5377  -29.9107   23.6345 C   0  0  0  0  0  0
  -16.7296  -28.6517   23.0377 C   0  0  0  0  0  0
  -26.4549  -31.6559   25.0695 C   0  0  0  0  0  0
  -25.3696  -31.3799   26.1365 C   0  0  0  0  0  0
  -27.0434  -30.2940   24.6369 C   0  0  0  0  0  0
  -27.6043  -32.4363   25.7496 C   0  0  0  0  0  0
  -27.5557  -37.1758   24.8473 C   0  0  0  0  0  0
  -21.4301  -29.3054   22.3554 N   0  0  0  0  0  0
  -26.4260  -37.3728   23.9427 N   0  0  0  0  0  0
  -24.7380  -31.0066   22.0853 N   0  0  0  0  0  0
  -23.4214  -28.8053   23.3002 O   0  0  0  0  0  0
  -28.2512  -25.9614   20.2208 O   0  0  0  0  0  0
  -26.5685  -34.8904   22.4615 O   0  0  0  0  0  0
  -23.5646  -32.1241   23.6917 O   0  0  0  0  0  0
  -29.1774  -18.8271   19.2508 C   0  0  0  0  0  0
  -29.2666  -20.4797   19.1537 C   0  0  0  0  0  0
  -29.5624  -20.5885   21.4662 C   0  0  0  0  0  0
  -29.8701  -17.9726   20.4362 C   0  0  1  0  0  0
  -29.3797  -18.9350   21.6732 C   0  0  2  0  0  0
  -30.0345  -17.1117   23.4924 C   0  0  0  0  0  0
  -31.7282  -18.8428   22.8883 C   0  0  0  0  0  0
  -26.9926  -20.4538   23.5861 C   0  0  0  0  0  0
  -25.7886  -18.2667   23.3271 C   0  0  0  0  0  0
  -30.3504  -23.4427   21.0341 C   0  0  0  0  0  0
  -27.8511  -18.6398   21.9174 C   0  0  0  0  0  0
  -27.9998  -24.3614   20.2722 C   0  0  0  0  0  0
  -30.2109  -18.5541   22.9636 C   0  0  0  0  0  0
  -27.1635  -18.9558   23.2796 C   0  0  0  0  0  0
  -29.1315  -23.0197   20.1899 C   0  0  2  0  0  0
  -29.6805  -16.3393   20.4906 N   0  0  0  0  0  0
  -28.8724  -21.3841   20.3361 N   0  3  1  0  0  0
  -31.4685  -12.8944   19.1925 H   0  0  0  0  0  0
  -30.4781  -11.7810   20.0882 H   0  0  0  0  0  0
  -29.8820  -11.7370   17.6414 H   0  0  0  0  0  0
  -29.5847  -13.4578   17.6649 H   0  0  0  0  0  0
  -28.0001  -11.2733   19.0404 H   0  0  0  0  0  0
  -27.4034  -12.3877   17.8385 H   0  0  0  0  0  0
  -27.5570  -14.2466   19.3628 H   0  0  0  0  0  0
  -28.7910  -12.4167   21.4795 H   0  0  0  0  0  0
  -28.3272  -14.0864   21.7205 H   0  0  0  0  0  0
  -25.2779   -9.5687   22.4766 H   0  0  0  0  0  0
  -24.0017   -7.4635   22.7469 H   0  0  0  0  0  0
  -21.0864   -8.8788   19.8949 H   0  0  0  0  0  0
  -22.3725  -10.9683   19.6173 H   0  0  0  0  0  0
  -21.2004   -7.6154   23.9719 H   0  0  0  0  0  0
  -21.1477   -6.0525   25.9077 H   0  0  0  0  0  0
  -22.0598   -2.7617   23.2835 H   0  0  0  0  0  0
  -22.4070  -11.9846   22.4827 H   0  0  0  0  0  0
  -21.1052  -13.1193   22.2656 H   0  0  0  0  0  0
  -24.6328  -15.8414   20.5263 H   0  0  0  0  0  0
  -26.2367  -15.6363   20.0405 H   0  0  0  0  0  0
  -26.7331  -32.5194   23.0910 H   0  0  0  0  0  0
  -25.0075  -33.9532   25.0232 H   0  0  0  0  0  0
  -22.7764  -31.2771   21.3577 H   0  0  0  0  0  0
  -23.3759  -35.9518   23.3295 H   0  0  0  0  0  0
  -24.3557  -36.8870   22.2070 H   0  0  0  0  0  0
  -23.7205  -37.6384   23.6708 H   0  0  0  0  0  0
  -26.1993  -31.4122   20.6145 H   0  0  0  0  0  0
  -26.8951  -30.7217   22.0419 H   0  0  0  0  0  0
  -28.1493  -28.6850   21.2458 H   0  0  0  0  0  0
  -25.8834  -25.7736   19.0117 H   0  0  0  0  0  0
  -23.9896  -27.2737   18.9747 H   0  0  0  0  0  0
  -23.8506  -30.5359   19.3894 H   0  0  0  0  0  0
  -22.8116  -29.2170   19.8324 H   0  0  0  0  0  0
  -25.1314  -36.1785   25.0802 H   0  0  0  0  0  0
  -21.0032  -28.3349   24.1324 H   0  0  0  0  0  0
  -20.5669  -26.2371   23.3644 H   0  0  0  0  0  0
  -21.6654  -26.7420   22.1208 H   0  0  0  0  0  0
  -19.6922  -25.6286   21.1272 H   0  0  0  0  0  0
  -19.6699  -27.3172   20.6734 H   0  0  0  0  0  0
  -17.4212  -26.6702   21.4029 H   0  0  0  0  0  0
  -18.0332  -26.0098   22.9028 H   0  0  0  0  0  0
  -19.7978  -30.7304   24.2231 H   0  0  0  0  0  0
  -17.5058  -31.6289   24.5163 H   0  0  0  0  0  0
  -15.5382  -30.3011   23.7691 H   0  0  0  0  0  0
  -15.8689  -28.0826   22.7126 H   0  0  0  0  0  0
  -24.5887  -30.7136   25.7687 H   0  0  0  0  0  0
  -24.8870  -32.2996   26.4675 H   0  0  0  0  0  0
  -25.7947  -30.9049   27.0213 H   0  0  0  0  0  0
  -26.3083  -29.6637   24.1351 H   0  0  0  0  0  0
  -27.3975  -29.7284   25.4998 H   0  0  0  0  0  0
  -27.9020  -30.4156   23.9764 H   0  0  0  0  0  0
  -27.2611  -33.3709   26.1947 H   0  0  0  0  0  0
  -28.3920  -32.6856   25.0374 H   0  0  0  0  0  0
  -28.0630  -31.8568   26.5516 H   0  0  0  0  0  0
  -28.2563  -38.0062   24.7525 H   0  0  0  0  0  0
  -28.1051  -36.2592   24.6280 H   0  0  0  0  0  0
  -27.2278  -37.1388   25.8874 H   0  0  0  0  0  0
  -20.9530  -29.8764   21.6714 H   0  0  0  0  0  0
  -26.0106  -38.2776   24.1468 H   0  0  0  0  0  0
  -29.5859  -18.4432   18.3158 H   0  0  0  0  0  0
  -28.1251  -18.5500   19.1936 H   0  0  0  0  0  0
  -28.6796  -20.8021   18.2929 H   0  0  0  0  0  0
  -30.2974  -20.7289   18.8974 H   0  0  0  0  0  0
  -30.6240  -20.7533   21.3002 H   0  0  0  0  0  0
  -29.3572  -21.1073   22.3966 H   0  0  0  0  0  0
  -30.9423  -18.1144   20.3058 H   0  0  0  0  0  0
  -29.0091  -16.7499   23.4462 H   0  0  0  0  0  0
  -30.3421  -17.0518   24.5369 H   0  0  0  0  0  0
  -30.6599  -16.4040   22.9519 H   0  0  0  0  0  0
  -31.9588  -19.8959   22.7391 H   0  0  0  0  0  0
  -32.2232  -18.2719   22.1035 H   0  0  0  0  0  0
  -32.2146  -18.5660   23.8245 H   0  0  0  0  0  0
  -26.2783  -20.6075   24.3959 H   0  0  0  0  0  0
  -26.6264  -21.0103   22.7231 H   0  0  0  0  0  0
  -27.9198  -20.9061   23.9312 H   0  0  0  0  0  0
  -25.2988  -18.4225   24.2891 H   0  0  0  0  0  0
  -25.8788  -17.1883   23.1870 H   0  0  0  0  0  0
  -25.1228  -18.6463   22.5510 H   0  0  0  0  0  0
  -30.6171  -24.4808   20.8324 H   0  0  0  0  0  0
  -31.2353  -22.8497   20.8041 H   0  0  0  0  0  0
  -30.1482  -23.3685   22.1029 H   0  0  0  0  0  0
  -27.6969  -17.5753   21.7415 H   0  0  0  0  0  0
  -27.2554  -19.1196   21.1424 H   0  0  0  0  0  0
  -27.4465  -24.2182   21.2003 H   0  0  0  0  0  0
  -27.2707  -24.1534   19.4914 H   0  0  0  0  0  0
  -29.8482  -19.2029   23.7615 H   0  0  0  0  0  0
  -27.7329  -18.5195   24.0986 H   0  0  0  0  0  0
  -29.4793  -23.0975   19.1590 H   0  0  0  0  0  0
  -28.7144  -16.0926   20.6385 H   0  0  0  0  0  0
  -27.8767  -21.2684   20.4610 H   0  0  0  0  0  0
  1 25  1  0  0  0
  1 30  2  0  0  0
  1 86  1  0  0  0
  2  3  1  0  0  0
  2 25  1  0  0  0
  2 88  1  0  0  0
  2 89  1  0  0  0
  3  4  1  0  0  0
  3 90  1  0  0  0
  3 91  1  0  0  0
  4  5  1  0  0  0
  4 92  1  0  0  0
  4 93  1  0  0  0
  5  6  1  0  0  0
  5 26  1  0  0  0
  5 94  1  0  0  0
  6 25  1  0  0  0
  6 95  1  0  0  0
  6 96  1  0  0  0
  7  8  2  0  0  0
  7 26  1  0  0  0
  7 29  1  0  0  0
  8  9  1  0  0  0
  8 22  1  0  0  0
  9 10  1  0  0  0
  9 27  2  0  0  0
 10 11  2  0  0  0
 10 15  1  0  0  0
 11 12  1  0  0  0
 11 97  1  0  0  0
 12 13  2  0  0  0
 12 98  1  0  0  0
 13 14  1  0  0  0
 13 31  1  0  0  0
 14 15  2  0  0  0
 14 99  1  0  0  0
 15100  1  0  0  0
 16 17  2  0  0  0
 16 21  1  0  0  0
 16 31  1  0  0  0
 17 18  1  0  0  0
 17101  1  0  0  0
 18 19  2  0  0  0
 18102  1  0  0  0
 19 20  1  0  0  0
 19 24  1  0  0  0
 20 21  2  0  0  0
 20103  1  0  0  0
 21 23  1  0  0  0
 22 28  1  0  0  0
 22 32  2  0  0  0
 26 27  1  0  0  0
 28104  1  0  0  0
 28105  1  0  0  0
 29106  1  0  0  0
 29107  1  0  0  0
 33 34  1  0  0  0
 33 66  1  0  0  0
 33 70  2  0  0  0
 34 36  1  0  0  0
 34 59  1  0  0  0
 34108  1  0  0  0
 35 44  2  0  0  0
 35 45  1  0  0  0
 35 68  1  0  0  0
 36 56  1  0  0  0
 36109  1  0  0  0
 37 39  1  0  0  0
 37 47  1  0  0  0
 37 66  1  0  0  0
 37110  1  0  0  0
 38 43  2  0  0  0
 38 46  1  0  0  0
 38 47  1  0  0  0
 39 64  1  0  0  0
 39 67  2  0  0  0
 40 52  1  0  0  0
 40 53  2  0  0  0
 40 58  1  0  0  0
 41111  1  0  0  0
 41112  1  0  0  0
 41113  1  0  0  0
 41 48  1  0  0  0
 42 43  1  0  0  0
 42 66  1  0  0  0
 42114  1  0  0  0
 42115  1  0  0  0
 43 44  1  0  0  0
 44116  1  0  0  0
 45 46  2  0  0  0
 45117  1  0  0  0
 46118  1  0  0  0
 47119  1  0  0  0
 47120  1  0  0  0
 48 56  1  0  0  0
 48 65  1  0  0  0
 48121  1  0  0  0
 49 50  1  0  0  0
 49 53  1  0  0  0
 49 64  1  0  0  0
 49122  1  0  0  0
 50 51  1  0  0  0
 50123  1  0  0  0
 50124  1  0  0  0
 51 52  1  0  0  0
 51125  1  0  0  0
 51126  1  0  0  0
 52127  1  0  0  0
 52128  1  0  0  0
 53 54  1  0  0  0
 54 55  2  0  0  0
 54129  1  0  0  0
 55 57  1  0  0  0
 55130  1  0  0  0
 56 69  2  0  0  0
 57 58  2  0  0  0
 57131  1  0  0  0
 58132  1  0  0  0
 59 60  1  0  0  0
 59 61  1  0  0  0
 59 62  1  0  0  0
 60133  1  0  0  0
 60134  1  0  0  0
 60135  1  0  0  0
 61136  1  0  0  0
 61137  1  0  0  0
 61138  1  0  0  0
 62139  1  0  0  0
 62140  1  0  0  0
 62141  1  0  0  0
 63 65  1  0  0  0
 63142  1  0  0  0
 63143  1  0  0  0
 63144  1  0  0  0
 64145  1  0  0  0
 65146  1  0  0  0
 68 82  1  0  0  0
 71 72  1  0  0  0
 71 74  1  0  0  0
 71147  1  0  0  0
 71148  1  0  0  0
 72149  1  0  0  0
 72150  1  0  0  0
 72 87  1  0  0  0
 73 75  1  0  0  0
 73 87  1  0  0  0
 73151  1  0  0  0
 73152  1  0  0  0
 74 75  1  0  0  0
 74 86  1  0  0  0
 74153  1  0  0  0
 75 81  1  0  0  0
 75 83  1  0  0  0
 76154  1  0  0  0
 76155  1  0  0  0
 76156  1  0  0  0
 76 83  1  0  0  0
 77 83  1  0  0  0
 77157  1  0  0  0
 77158  1  0  0  0
 77159  1  0  0  0
 78160  1  0  0  0
 78161  1  0  0  0
 78162  1  0  0  0
 78 84  1  0  0  0
 79 84  1  0  0  0
 79163  1  0  0  0
 79164  1  0  0  0
 79165  1  0  0  0
 80166  1  0  0  0
 80167  1  0  0  0
 80168  1  0  0  0
 80 85  1  0  0  0
 81 84  1  0  0  0
 81169  1  0  0  0
 81170  1  0  0  0
 82 85  1  0  0  0
 82171  1  0  0  0
 82172  1  0  0  0
 83173  1  0  0  0
 84174  1  0  0  0
 85 87  1  0  0  0
 85175  1  0  0  0
 86176  1  0  0  0
 87177  1  0  0  0
M  CHG  1  87   1
M  ISO  4   1 100  68 101  82 101  86 100
M  END
> <chiral flag>
0

> <version>
0

> <s_m_source_file>
/data/baiqing/PycharmProjects/Reinvent-master-3.2/result/LINK_invent/BTK/process_docking_weight1_custom_sum_contain_oxygen_bond_distance_aromatic_linkinvent_7_9_3/rearranged_h_0023.sdf

> <i_m_source_file_index>
44

> <r_mmod_Potential_Energy-OPLS-2005>
965.545349121094

> <r_mmod_Stretch_Energy-OPLS-2005>
435.942077636719

> <r_mmod_Bend_Energy-OPLS-2005>
402.15380859375

> <r_mmod_Torsional_Energy-OPLS-2005>
306.250823974609

> <r_mmod_Improper_Torsional_Energy-OPLS-2005>
3.94161176681519

> <r_mmod_Van_der_Waal_Energy-OPLS-2005>
119.798973083496

> <r_mmod_Electrostatic_Energy-OPLS-2005>
-215.275375366211

> <r_mmod_Solvation_Energy-OPLS-2005>
-416.194458007812

> <b_mmod_Minimization_Converged-OPLS-2005>
0

> <r_mmod_RMS_Derivative-OPLS-2005>
0.986997365951538

$$$$
44
                    3D
 Structure written by MMmdl.
180188  0  0  1  0            999 V2000
  -30.7452  -14.4003   20.5826 C   0  0  0  0  0  0
  -30.4067  -12.2670   19.4149 C   0  0  0  0  0  0
  -29.4852  -12.4957   18.2002 C   0  0  0  0  0  0
  -28.0086  -12.3619   18.6166 C   0  0  0  0  0  0
  -27.6620  -13.2037   19.8745 C   0  0  2  0  0  0
  -28.7026  -12.9773   20.9954 C   0  0  0  0  0  0
  -25.2603  -13.8174   20.5680 C   0  0  0  0  0  0
  -24.1847  -13.0443   20.9179 C   0  0  0  0  0  0
  -24.6386  -11.6910   20.8731 C   0  0  0  0  0  0
  -23.9044  -10.4295   21.0402 C   0  0  0  0  0  0
  -24.3605   -9.4214   21.9185 C   0  0  0  0  0  0
  -23.6283   -8.2239   22.0753 C   0  0  0  0  0  0
  -22.4256   -8.0282   21.3549 C   0  0  0  0  0  0
  -21.9893   -9.0252   20.4648 C   0  0  0  0  0  0
  -22.7212  -10.2137   20.3056 C   0  0  0  0  0  0
  -21.6856   -6.0741   22.5280 C   0  0  0  0  0  0
  -21.4014   -6.5641   23.8212 C   0  0  0  0  0  0
  -21.3662   -5.6791   24.9177 C   0  0  0  0  0  0
  -21.6037   -4.3056   24.7225 C   0  0  0  0  0  0
  -21.8826   -3.8148   23.4343 C   0  0  0  0  0  0
  -21.9189   -4.6967   22.3402 C   0  0  0  0  0  0
  -22.7868  -13.5259   21.1827 C   0  0  0  0  0  0
  -22.1663   -4.2151   21.0983 F   0  0  0  0  0  0
  -21.5622   -3.4541   25.7739 F   0  0  0  0  0  0
  -30.0393  -13.2493   20.4445 N   0  0  0  0  0  0
  -26.3025  -12.9325   20.3356 N   0  0  0  0  0  0
  -25.9312  -11.6488   20.5758 N   0  0  0  0  0  0
  -22.0507  -12.8262   22.0392 N   0  0  0  0  0  0
  -25.4345  -15.1876   20.4095 N   0  0  0  0  0  0
  -31.8540  -14.5739   20.0734 O   0  0  0  0  0  0
  -21.6636   -6.8873   21.4234 O   0  0  0  0  0  0
  -22.3564  -14.5569   20.6684 O   0  0  0  0  0  0
  -24.6076  -31.8728   23.2103 C   0  0  0  0  0  0
  -25.8984  -32.4878   23.8371 C   0  0  1  0  0  0
  -27.2343  -27.4837   20.0885 C   0  0  0  0  0  0
  -25.5853  -33.8674   24.2322 N   0  0  0  0  0  0
  -23.3949  -30.4909   21.5538 C   0  0  2  0  0  0
  -24.8451  -28.9699   20.1042 C   0  0  0  0  0  0
  -22.7393  -29.4637   22.5027 C   0  0  0  0  0  0
  -18.0254  -28.1393   22.8488 C   0  0  0  0  0  0
  -24.1496  -36.7324   23.2629 C   0  0  0  0  0  0
  -25.9175  -30.8568   21.3511 C   0  0  0  0  0  0
  -26.0005  -29.4965   20.6933 C   0  0  0  0  0  0
  -27.2028  -28.7601   20.6820 C   0  0  0  0  0  0
  -26.0707  -26.9631   19.4840 C   0  0  0  0  0  0
  -24.8725  -27.7030   19.4905 C   0  0  0  0  0  0
  -23.5996  -29.8225   20.1666 C   0  0  0  0  0  0
  -25.4133  -36.3150   24.0320 C   0  0  1  0  0  0
  -20.5838  -28.3655   23.1355 C   0  0  2  0  0  0
  -20.6753  -26.9395   22.5444 C   0  0  0  0  0  0
  -19.5738  -26.6388   21.5233 C   0  0  0  0  0  0
  -18.1903  -26.7936   22.1628 C   0  0  0  0  0  0
  -19.1499  -28.8843   23.2906 C   0  0  0  0  0  0
  -18.9438  -30.1461   23.8905 C   0  0  0  0  0  0
  -17.6443  -30.6596   24.0567 C   0  0  0  0  0  0
  -25.9030  -34.9505   23.5124 C   0  0  0  0  0  0
  -16.5318  -29.9098   23.6350 C   0  0  0  0  0  0
  -16.7237  -28.6534   23.0342 C   0  0  0  0  0  0
  -26.4434  -31.6648   25.0693 C   0  0  0  0  0  0
  -25.3710  -31.3761   26.1457 C   0  0  0  0  0  0
  -27.0288  -30.3127   24.6014 C   0  0  0  0  0  0
  -27.6017  -32.4349   25.7458 C   0  0  0  0  0  0
  -27.5602  -37.1796   24.8444 C   0  0  0  0  0  0
  -21.4122  -29.3010   22.3770 N   0  0  0  0  0  0
  -26.4339  -37.3813   23.9377 N   0  0  0  0  0  0
  -24.6586  -31.0838   22.0996 N   0  0  0  0  0  0
  -23.4186  -28.8176   23.3041 O   0  0  0  0  0  0
  -28.3462  -26.6970   20.2167 O   0  0  0  0  0  0
  -26.5603  -34.8920   22.4697 O   0  0  0  0  0  0
  -23.5273  -32.1453   23.7519 O   0  0  0  0  0  0
  -29.6936  -20.1962   18.1680 C   0  0  0  0  0  0
  -29.2534  -19.1732   19.0273 C   0  0  0  0  0  0
  -30.7491  -20.0610   20.7765 C   0  0  0  0  0  0
  -29.8154  -19.0732   20.3327 C   0  0  0  0  0  0
  -31.1504  -21.1159   19.9024 C   0  0  0  0  0  0
  -30.6423  -21.1352   18.5814 C   0  0  0  0  0  0
  -31.3457  -19.9996   22.1838 C   0  0  0  0  0  0
  -28.9951  -24.0407   22.8764 C   0  0  0  0  0  0
  -29.4768  -17.8513   21.2008 C   0  0  0  0  0  0
  -32.1370  -22.1996   20.3786 C   0  0  0  0  0  0
  -32.0171  -23.5843   19.6993 C   0  0  0  0  0  0
  -32.5171  -24.7588   20.5689 C   0  0  0  0  0  0
  -31.8206  -26.0995   20.2321 C   0  0  0  0  0  0
  -31.2809  -26.8878   21.4486 C   0  0  0  0  0  0
  -30.4076  -26.0920   22.4482 C   0  0  0  0  0  0
  -30.5937  -16.7926   21.1044 C   0  0  0  0  0  0
  -28.1215  -25.7583   21.2726 C   0  0  0  0  0  0
  -29.3858  -25.1022   21.8376 C   0  0  2  0  0  0
  -28.1910  -18.1999   18.5065 C   0  0  0  0  0  0
  -30.1114  -15.4115   21.1920 N   0  0  0  0  0  0
  -31.0504  -22.0544   17.6752 F   0  0  0  0  0  0
  -27.8287  -18.4799   17.2537 F   0  0  0  0  0  0
  -28.6414  -16.9452   18.5191 F   0  0  0  0  0  0
  -27.0912  -18.2765   19.2566 F   0  0  0  0  0  0
  -31.4536  -12.3341   19.1149 H   0  0  0  0  0  0
  -30.2774  -11.2571   19.8072 H   0  0  0  0  0  0
  -29.7160  -11.7775   17.4118 H   0  0  0  0  0  0
  -29.6621  -13.4854   17.7749 H   0  0  0  0  0  0
  -27.8190  -11.3066   18.8163 H   0  0  0  0  0  0
  -27.3562  -12.6350   17.7863 H   0  0  0  0  0  0
  -27.7113  -14.2515   19.5777 H   0  0  0  0  0  0
  -28.6623  -11.9462   21.3478 H   0  0  0  0  0  0
  -28.4721  -13.5901   21.8673 H   0  0  0  0  0  0
  -25.2758   -9.5700   22.4754 H   0  0  0  0  0  0
  -24.0005   -7.4640   22.7477 H   0  0  0  0  0  0
  -21.0820   -8.8761   19.8963 H   0  0  0  0  0  0
  -22.3661  -10.9677   19.6164 H   0  0  0  0  0  0
  -21.2014   -7.6151   23.9714 H   0  0  0  0  0  0
  -21.1475   -6.0529   25.9079 H   0  0  0  0  0  0
  -22.0599   -2.7608   23.2844 H   0  0  0  0  0  0
  -22.4120  -11.9934   22.4801 H   0  0  0  0  0  0
  -21.1122  -13.1304   22.2584 H   0  0  0  0  0  0
  -24.6653  -15.8419   20.5042 H   0  0  0  0  0  0
  -26.2820  -15.6235   20.0681 H   0  0  0  0  0  0
  -26.7052  -32.5575   23.1143 H   0  0  0  0  0  0
  -25.0007  -33.9858   25.0459 H   0  0  0  0  0  0
  -22.6789  -31.3038   21.4165 H   0  0  0  0  0  0
  -23.3787  -35.9626   23.3306 H   0  0  0  0  0  0
  -24.3578  -36.8900   22.2032 H   0  0  0  0  0  0
  -23.7222  -37.6517   23.6621 H   0  0  0  0  0  0
  -26.0089  -31.6247   20.5824 H   0  0  0  0  0  0
  -26.8113  -30.9189   21.9599 H   0  0  0  0  0  0
  -28.0937  -29.1474   21.1562 H   0  0  0  0  0  0
  -26.0836  -25.9791   19.0367 H   0  0  0  0  0  0
  -23.9800  -27.2924   19.0397 H   0  0  0  0  0  0
  -23.6922  -30.5973   19.4053 H   0  0  0  0  0  0
  -22.7309  -29.2270   19.8782 H   0  0  0  0  0  0
  -25.1317  -36.2013   25.0823 H   0  0  0  0  0  0
  -20.9885  -28.3226   24.1491 H   0  0  0  0  0  0
  -20.5696  -26.2258   23.3629 H   0  0  0  0  0  0
  -21.6626  -26.7488   22.1198 H   0  0  0  0  0  0
  -19.6899  -25.6305   21.1246 H   0  0  0  0  0  0
  -19.6677  -27.3229   20.6789 H   0  0  0  0  0  0
  -17.4167  -26.6690   21.4015 H   0  0  0  0  0  0
  -18.0276  -26.0087   22.9036 H   0  0  0  0  0  0
  -19.7917  -30.7274   24.2262 H   0  0  0  0  0  0
  -17.5000  -31.6265   24.5186 H   0  0  0  0  0  0
  -15.5324  -30.2993   23.7712 H   0  0  0  0  0  0
  -15.8634  -28.0868   22.7045 H   0  0  0  0  0  0
  -24.5833  -30.7208   25.7758 H   0  0  0  0  0  0
  -24.8962  -32.2940   26.4940 H   0  0  0  0  0  0
  -25.8038  -30.8881   27.0203 H   0  0  0  0  0  0
  -26.2818  -29.6889   24.1116 H   0  0  0  0  0  0
  -27.4190  -29.7376   25.4419 H   0  0  0  0  0  0
  -27.8540  -30.4537   23.9018 H   0  0  0  0  0  0
  -27.2584  -33.3484   26.2330 H   0  0  0  0  0  0
  -28.3689  -32.7169   25.0221 H   0  0  0  0  0  0
  -28.0888  -31.8346   26.5151 H   0  0  0  0  0  0
  -28.2656  -38.0081   24.7536 H   0  0  0  0  0  0
  -28.1088  -36.2621   24.6270 H   0  0  0  0  0  0
  -27.2295  -37.1426   25.8843 H   0  0  0  0  0  0
  -20.9310  -29.8687   21.6933 H   0  0  0  0  0  0
  -26.0250  -38.2904   24.1380 H   0  0  0  0  0  0
  -29.3114  -20.2692   17.1618 H   0  0  0  0  0  0
  -31.2291  -19.0461   22.6897 H   0  0  0  0  0  0
  -30.8850  -20.7599   22.8161 H   0  0  0  0  0  0
  -32.4189  -20.1866   22.1547 H   0  0  0  0  0  0
  -28.5260  -24.4949   23.7505 H   0  0  0  0  0  0
  -29.8714  -23.4856   23.2136 H   0  0  0  0  0  0
  -28.2966  -23.3150   22.4567 H   0  0  0  0  0  0
  -28.5314  -17.4093   20.8984 H   0  0  0  0  0  0
  -29.2950  -18.1445   22.2345 H   0  0  0  0  0  0
  -33.1548  -21.8268   20.2756 H   0  0  0  0  0  0
  -31.9792  -22.3536   21.4448 H   0  0  0  0  0  0
  -30.9686  -23.7454   19.4598 H   0  0  0  0  0  0
  -32.5304  -23.5945   18.7379 H   0  0  0  0  0  0
  -33.6006  -24.8600   20.4747 H   0  0  0  0  0  0
  -32.3501  -24.5146   21.6154 H   0  0  0  0  0  0
  -30.9897  -25.9394   19.5438 H   0  0  0  0  0  0
  -32.5111  -26.7364   19.6776 H   0  0  0  0  0  0
  -30.7037  -27.7354   21.0757 H   0  0  0  0  0  0
  -32.1203  -27.3219   21.9940 H   0  0  0  0  0  0
  -29.8926  -26.7859   23.1150 H   0  0  0  0  0  0
  -31.0795  -25.5374   23.1039 H   0  0  0  0  0  0
  -31.3743  -16.9607   21.8459 H   0  0  0  0  0  0
  -31.0766  -16.9227   20.1332 H   0  0  0  0  0  0
  -27.5841  -26.2241   22.1039 H   0  0  0  0  0  0
  -27.4705  -24.9693   20.8892 H   0  0  0  0  0  0
  -29.8467  -24.5514   21.0311 H   0  0  0  0  0  0
  -29.2032  -15.2323   21.5910 H   0  0  0  0  0  0
  1 25  1  0  0  0
  1 30  2  0  0  0
  1 90  1  0  0  0
  2  3  1  0  0  0
  2 25  1  0  0  0
  2 95  1  0  0  0
  2 96  1  0  0  0
  3  4  1  0  0  0
  3 97  1  0  0  0
  3 98  1  0  0  0
  4  5  1  0  0  0
  4 99  1  0  0  0
  4100  1  0  0  0
  5  6  1  0  0  0
  5 26  1  0  0  0
  5101  1  0  0  0
  6 25  1  0  0  0
  6102  1  0  0  0
  6103  1  0  0  0
  7  8  2  0  0  0
  7 26  1  0  0  0
  7 29  1  0  0  0
  8  9  1  0  0  0
  8 22  1  0  0  0
  9 10  1  0  0  0
  9 27  2  0  0  0
 10 11  2  0  0  0
 10 15  1  0  0  0
 11 12  1  0  0  0
 11104  1  0  0  0
 12 13  2  0  0  0
 12105  1  0  0  0
 13 14  1  0  0  0
 13 31  1  0  0  0
 14 15  2  0  0  0
 14106  1  0  0  0
 15107  1  0  0  0
 16 17  2  0  0  0
 16 21  1  0  0  0
 16 31  1  0  0  0
 17 18  1  0  0  0
 17108  1  0  0  0
 18 19  2  0  0  0
 18109  1  0  0  0
 19 20  1  0  0  0
 19 24  1  0  0  0
 20 21  2  0  0  0
 20110  1  0  0  0
 21 23  1  0  0  0
 22 28  1  0  0  0
 22 32  2  0  0  0
 26 27  1  0  0  0
 28111  1  0  0  0
 28112  1  0  0  0
 29113  1  0  0  0
 29114  1  0  0  0
 33 34  1  0  0  0
 33 66  1  0  0  0
 33 70  2  0  0  0
 34 36  1  0  0  0
 34 59  1  0  0  0
 34115  1  0  0  0
 35 44  2  0  0  0
 35 45  1  0  0  0
 35 68  1  0  0  0
 36 56  1  0  0  0
 36116  1  0  0  0
 37 39  1  0  0  0
 37 47  1  0  0  0
 37 66  1  0  0  0
 37117  1  0  0  0
 38 43  2  0  0  0
 38 46  1  0  0  0
 38 47  1  0  0  0
 39 64  1  0  0  0
 39 67  2  0  0  0
 40 52  1  0  0  0
 40 53  2  0  0  0
 40 58  1  0  0  0
 41118  1  0  0  0
 41119  1  0  0  0
 41120  1  0  0  0
 41 48  1  0  0  0
 42 43  1  0  0  0
 42 66  1  0  0  0
 42121  1  0  0  0
 42122  1  0  0  0
 43 44  1  0  0  0
 44123  1  0  0  0
 45 46  2  0  0  0
 45124  1  0  0  0
 46125  1  0  0  0
 47126  1  0  0  0
 47127  1  0  0  0
 48 56  1  0  0  0
 48 65  1  0  0  0
 48128  1  0  0  0
 49 50  1  0  0  0
 49 53  1  0  0  0
 49 64  1  0  0  0
 49129  1  0  0  0
 50 51  1  0  0  0
 50130  1  0  0  0
 50131  1  0  0  0
 51 52  1  0  0  0
 51132  1  0  0  0
 51133  1  0  0  0
 52134  1  0  0  0
 52135  1  0  0  0
 53 54  1  0  0  0
 54 55  2  0  0  0
 54136  1  0  0  0
 55 57  1  0  0  0
 55137  1  0  0  0
 56 69  2  0  0  0
 57 58  2  0  0  0
 57138  1  0  0  0
 58139  1  0  0  0
 59 60  1  0  0  0
 59 61  1  0  0  0
 59 62  1  0  0  0
 60140  1  0  0  0
 60141  1  0  0  0
 60142  1  0  0  0
 61143  1  0  0  0
 61144  1  0  0  0
 61145  1  0  0  0
 62146  1  0  0  0
 62147  1  0  0  0
 62148  1  0  0  0
 63 65  1  0  0  0
 63149  1  0  0  0
 63150  1  0  0  0
 63151  1  0  0  0
 64152  1  0  0  0
 65153  1  0  0  0
 68 87  1  0  0  0
 71 72  2  0  0  0
 71 76  1  0  0  0
 71154  1  0  0  0
 72 74  1  0  0  0
 72 89  1  0  0  0
 73 74  2  0  0  0
 73 75  1  0  0  0
 73 77  1  0  0  0
 74 79  1  0  0  0
 75 76  2  0  0  0
 75 80  1  0  0  0
 76 91  1  0  0  0
 77155  1  0  0  0
 77156  1  0  0  0
 77157  1  0  0  0
 78158  1  0  0  0
 78159  1  0  0  0
 78160  1  0  0  0
 78 88  1  0  0  0
 79 86  1  0  0  0
 79161  1  0  0  0
 79162  1  0  0  0
 80 81  1  0  0  0
 80163  1  0  0  0
 80164  1  0  0  0
 81 82  1  0  0  0
 81165  1  0  0  0
 81166  1  0  0  0
 82 83  1  0  0  0
 82167  1  0  0  0
 82168  1  0  0  0
 83 84  1  0  0  0
 83169  1  0  0  0
 83170  1  0  0  0
 84 85  1  0  0  0
 84171  1  0  0  0
 84172  1  0  0  0
 85 88  1  0  0  0
 85173  1  0  0  0
 85174  1  0  0  0
 86 90  1  0  0  0
 86175  1  0  0  0
 86176  1  0  0  0
 87 88  1  0  0  0
 87177  1  0  0  0
 87178  1  0  0  0
 88179  1  0  0  0
 89 92  1  0  0  0
 89 93  1  0  0  0
 89 94  1  0  0  0
 90180  1  0  0  0
M  ISO  4   1 100  68 101  87 101  90 100
M  END
> <chiral flag>
0

> <version>
0

> <s_m_source_file>
/data/baiqing/PycharmProjects/Reinvent-master-3.2/result/LINK_invent/BTK/process_docking_weight1_custom_sum_contain_oxygen_bond_distance_aromatic_linkinvent_7_9_3/rearranged_h_0023.sdf

> <i_m_source_file_index>
45

> <r_mmod_Potential_Energy-OPLS-2005>
45.3365058898926

> <r_mmod_Stretch_Energy-OPLS-2005>
40.18017578125

> <r_mmod_Bend_Energy-OPLS-2005>
102.787033081055

> <r_mmod_Torsional_Energy-OPLS-2005>
270.168609619141

> <r_mmod_Improper_Torsional_Energy-OPLS-2005>
4.11533308029175

> <r_mmod_Van_der_Waal_Energy-OPLS-2005>
176.404449462891

> <r_mmod_Electrostatic_Energy-OPLS-2005>
-374.927459716797

> <r_mmod_Solvation_Energy-OPLS-2005>
-187.028610229492

> <b_mmod_Minimization_Converged-OPLS-2005>
0

> <r_mmod_RMS_Derivative-OPLS-2005>
2.85387516021729

$$$$
45
                    3D
 Structure written by MMmdl.
178186  0  0  1  0            999 V2000
  -30.6881  -14.4791   20.5507 C   0  0  0  0  0  0
  -30.4278  -12.2979   19.4379 C   0  0  0  0  0  0
  -29.4969  -12.5004   18.2233 C   0  0  0  0  0  0
  -28.0159  -12.3699   18.6286 C   0  0  0  0  0  0
  -27.6652  -13.2022   19.8900 C   0  0  2  0  0  0
  -28.7083  -12.9809   21.0121 C   0  0  0  0  0  0
  -25.2611  -13.8143   20.5728 C   0  0  0  0  0  0
  -24.1830  -13.0455   20.9189 C   0  0  0  0  0  0
  -24.6378  -11.6901   20.8735 C   0  0  0  0  0  0
  -23.9027  -10.4311   21.0415 C   0  0  0  0  0  0
  -24.3588   -9.4231   21.9194 C   0  0  0  0  0  0
  -23.6290   -8.2241   22.0756 C   0  0  0  0  0  0
  -22.4277   -8.0267   21.3542 C   0  0  0  0  0  0
  -21.9898   -9.0239   20.4634 C   0  0  0  0  0  0
  -22.7204  -10.2137   20.3062 C   0  0  0  0  0  0
  -21.6861   -6.0736   22.5288 C   0  0  0  0  0  0
  -21.4010   -6.5638   23.8217 C   0  0  0  0  0  0
  -21.3663   -5.6794   24.9175 C   0  0  0  0  0  0
  -21.6051   -4.3063   24.7237 C   0  0  0  0  0  0
  -21.8819   -3.8145   23.4357 C   0  0  0  0  0  0
  -21.9199   -4.6957   22.3409 C   0  0  0  0  0  0
  -22.7867  -13.5238   21.1874 C   0  0  0  0  0  0
  -22.1672   -4.2148   21.0993 F   0  0  0  0  0  0
  -21.5638   -3.4542   25.7747 F   0  0  0  0  0  0
  -30.0445  -13.2822   20.4621 N   0  0  0  0  0  0
  -26.3040  -12.9299   20.3465 N   0  0  0  0  0  0
  -25.9300  -11.6462   20.5795 N   0  0  0  0  0  0
  -22.0504  -12.8202   22.0403 N   0  0  0  0  0  0
  -25.4369  -15.1864   20.4153 N   0  0  0  0  0  0
  -31.8169  -14.6767   20.0929 O   0  0  0  0  0  0
  -21.6652   -6.8865   21.4244 O   0  0  0  0  0  0
  -22.3572  -14.5606   20.6788 O   0  0  0  0  0  0
  -24.6234  -31.8715   23.2069 C   0  0  0  0  0  0
  -25.9090  -32.4828   23.8424 C   0  0  1  0  0  0
  -27.2266  -27.3852   20.0732 C   0  0  0  0  0  0
  -25.5928  -33.8623   24.2398 N   0  0  0  0  0  0
  -23.4147  -30.4994   21.5476 C   0  0  2  0  0  0
  -24.8551  -28.9652   20.1129 C   0  0  0  0  0  0
  -22.7457  -29.4741   22.4931 C   0  0  0  0  0  0
  -18.0319  -28.1391   22.8469 C   0  0  0  0  0  0
  -24.1479  -36.7311   23.2641 C   0  0  0  0  0  0
  -25.9506  -30.8094   21.3763 C   0  0  0  0  0  0
  -26.0202  -29.4399   20.7254 C   0  0  0  0  0  0
  -27.2039  -28.6522   20.7192 C   0  0  0  0  0  0
  -26.0365  -26.9709   19.4185 C   0  0  0  0  0  0
  -24.8592  -27.7271   19.4635 C   0  0  0  0  0  0
  -23.6218  -29.8353   20.1638 C   0  0  0  0  0  0
  -25.4098  -36.3131   24.0364 C   0  0  1  0  0  0
  -20.5901  -28.3706   23.1225 C   0  0  2  0  0  0
  -20.6769  -26.9422   22.5340 C   0  0  0  0  0  0
  -19.5745  -26.6391   21.5142 C   0  0  0  0  0  0
  -18.1949  -26.7940   22.1596 C   0  0  0  0  0  0
  -19.1558  -28.8861   23.2852 C   0  0  0  0  0  0
  -18.9490  -30.1460   23.8873 C   0  0  0  0  0  0
  -17.6495  -30.6576   24.0582 C   0  0  0  0  0  0
  -25.9026  -34.9478   23.5184 C   0  0  0  0  0  0
  -16.5392  -29.9085   23.6316 C   0  0  0  0  0  0
  -16.7310  -28.6506   23.0344 C   0  0  0  0  0  0
  -26.4515  -31.6578   25.0748 C   0  0  0  0  0  0
  -25.3773  -31.3599   26.1482 C   0  0  0  0  0  0
  -27.0386  -30.3044   24.6094 C   0  0  0  0  0  0
  -27.6124  -32.4283   25.7501 C   0  0  0  0  0  0
  -27.5592  -37.1798   24.8488 C   0  0  0  0  0  0
  -21.4168  -29.3114   22.3641 N   0  0  0  0  0  0
  -26.4307  -37.3787   23.9424 N   0  0  0  0  0  0
  -24.6815  -31.0768   22.1004 N   0  0  0  0  0  0
  -23.4184  -28.8267   23.2994 O   0  0  0  0  0  0
  -28.3661  -26.5770   20.1040 O   0  0  0  0  0  0
  -26.5553  -34.8929   22.4720 O   0  0  0  0  0  0
  -23.5413  -32.1540   23.7377 O   0  0  0  0  0  0
  -29.5984  -19.3278   21.0409 C   0  0  0  0  0  0
  -29.9520  -20.4974   20.2776 C   0  0  0  0  0  0
  -28.3548  -19.5573   21.5576 C   0  0  0  0  0  0
  -28.8800  -21.3817   20.3057 C   0  0  0  0  0  0
  -27.5188  -18.6433   22.4119 C   0  0  0  0  0  0
  -32.4674  -20.9051   20.4477 C   0  0  0  0  0  0
  -28.7158  -22.4773   17.9837 C   0  0  0  0  0  0
  -30.5952  -24.3378   19.5168 C   0  0  0  0  0  0
  -25.5059  -21.1187   20.5136 C   0  0  0  0  0  0
  -26.6501  -22.7837   22.1420 C   0  0  0  0  0  0
  -31.2656  -20.6548   19.5263 C   0  0  0  0  0  0
  -30.3760  -18.0229   21.2815 C   0  0  0  0  0  0
  -29.9100  -16.8558   20.3662 C   0  0  0  0  0  0
  -28.2045  -25.2235   19.5939 C   0  0  0  0  0  0
  -28.5875  -22.6707   19.5093 C   0  0  2  0  0  0
  -29.1660  -24.0583   20.0127 C   0  0  1  0  0  0
  -26.5992  -21.3555   21.5769 C   0  0  0  0  0  0
  -27.9158  -20.8195   21.1666 N   0  0  0  0  0  0
  -29.9128  -15.5008   20.9552 N   0  0  0  0  0  0
  -31.4702  -12.4015   19.1304 H   0  0  0  0  0  0
  -30.3348  -11.2841   19.8300 H   0  0  0  0  0  0
  -29.7270  -11.7701   17.4471 H   0  0  0  0  0  0
  -29.6715  -13.4843   17.7847 H   0  0  0  0  0  0
  -27.8052  -11.3133   18.8055 H   0  0  0  0  0  0
  -27.3734  -12.6673   17.8001 H   0  0  0  0  0  0
  -27.7117  -14.2510   19.5983 H   0  0  0  0  0  0
  -28.6754  -11.9470   21.3589 H   0  0  0  0  0  0
  -28.4695  -13.5877   21.8877 H   0  0  0  0  0  0
  -25.2719   -9.5733   22.4768 H   0  0  0  0  0  0
  -24.0025   -7.4642   22.7471 H   0  0  0  0  0  0
  -21.0836   -8.8714   19.8930 H   0  0  0  0  0  0
  -22.3632  -10.9663   19.6163 H   0  0  0  0  0  0
  -21.1970   -7.6141   23.9709 H   0  0  0  0  0  0
  -21.1498   -6.0531   25.9084 H   0  0  0  0  0  0
  -22.0587   -2.7606   23.2859 H   0  0  0  0  0  0
  -22.4128  -11.9796   22.4673 H   0  0  0  0  0  0
  -21.1132  -13.1211   22.2691 H   0  0  0  0  0  0
  -24.6727  -15.8426   20.5212 H   0  0  0  0  0  0
  -26.2921  -15.6209   20.0922 H   0  0  0  0  0  0
  -26.7162  -32.5549   23.1193 H   0  0  0  0  0  0
  -25.0151  -33.9791   25.0601 H   0  0  0  0  0  0
  -22.7142  -31.3229   21.4031 H   0  0  0  0  0  0
  -23.3743  -35.9639   23.3320 H   0  0  0  0  0  0
  -24.3594  -36.8895   22.2056 H   0  0  0  0  0  0
  -23.7208  -37.6506   23.6647 H   0  0  0  0  0  0
  -26.0774  -31.5620   20.5965 H   0  0  0  0  0  0
  -26.8375  -30.8683   21.9950 H   0  0  0  0  0  0
  -28.0917  -29.0025   21.2280 H   0  0  0  0  0  0
  -25.9643  -26.0567   18.8499 H   0  0  0  0  0  0
  -23.9699  -27.3630   18.9707 H   0  0  0  0  0  0
  -23.7284  -30.6094   19.4033 H   0  0  0  0  0  0
  -22.7471  -29.2496   19.8718 H   0  0  0  0  0  0
  -25.1245  -36.2038   25.0848 H   0  0  0  0  0  0
  -21.0042  -28.3282   24.1328 H   0  0  0  0  0  0
  -20.5583  -26.2358   23.3561 H   0  0  0  0  0  0
  -21.6663  -26.7395   22.1200 H   0  0  0  0  0  0
  -19.6901  -25.6288   21.1204 H   0  0  0  0  0  0
  -19.6676  -27.3168   20.6641 H   0  0  0  0  0  0
  -17.4195  -26.6676   21.4026 H   0  0  0  0  0  0
  -18.0403  -26.0084   22.9001 H   0  0  0  0  0  0
  -19.7968  -30.7274   24.2234 H   0  0  0  0  0  0
  -17.5054  -31.6237   24.5211 H   0  0  0  0  0  0
  -15.5392  -30.2995   23.7603 H   0  0  0  0  0  0
  -15.8727  -28.0796   22.7078 H   0  0  0  0  0  0
  -24.6036  -30.6868   25.7765 H   0  0  0  0  0  0
  -24.8856  -32.2699   26.4923 H   0  0  0  0  0  0
  -25.8133  -30.8785   27.0250 H   0  0  0  0  0  0
  -26.2953  -29.6752   24.1192 H   0  0  0  0  0  0
  -27.4273  -29.7298   25.4504 H   0  0  0  0  0  0
  -27.8727  -30.4414   23.9215 H   0  0  0  0  0  0
  -27.2825  -33.3646   26.2014 H   0  0  0  0  0  0
  -28.3949  -32.6710   25.0298 H   0  0  0  0  0  0
  -28.0785  -31.8432   26.5443 H   0  0  0  0  0  0
  -28.2585  -38.0109   24.7542 H   0  0  0  0  0  0
  -28.1122  -36.2641   24.6325 H   0  0  0  0  0  0
  -27.2338  -37.1446   25.8895 H   0  0  0  0  0  0
  -20.9340  -29.8908   21.6903 H   0  0  0  0  0  0
  -26.0222  -38.2892   24.1340 H   0  0  0  0  0  0
  -27.9196  -17.6312   22.4560 H   0  0  0  0  0  0
  -26.5034  -18.5583   22.0269 H   0  0  0  0  0  0
  -27.4621  -19.0155   23.4340 H   0  0  0  0  0  0
  -33.3826  -21.0470   19.8703 H   0  0  0  0  0  0
  -32.6438  -20.0667   21.1188 H   0  0  0  0  0  0
  -32.3155  -21.7992   21.0537 H   0  0  0  0  0  0
  -28.1915  -21.5758   17.6689 H   0  0  0  0  0  0
  -29.7437  -22.3943   17.6412 H   0  0  0  0  0  0
  -28.2636  -23.3064   17.4381 H   0  0  0  0  0  0
  -30.9795  -25.2656   19.9407 H   0  0  0  0  0  0
  -30.6284  -24.4408   18.4321 H   0  0  0  0  0  0
  -31.2764  -23.5371   19.7991 H   0  0  0  0  0  0
  -24.5215  -21.3869   20.8996 H   0  0  0  0  0  0
  -25.4652  -20.0654   20.2316 H   0  0  0  0  0  0
  -25.6601  -21.6892   19.5987 H   0  0  0  0  0  0
  -25.8615  -22.9310   22.8799 H   0  0  0  0  0  0
  -26.4910  -23.5379   21.3811 H   0  0  0  0  0  0
  -27.5989  -22.9844   22.6414 H   0  0  0  0  0  0
  -31.2129  -21.4653   18.8071 H   0  0  0  0  0  0
  -31.4417  -19.7531   18.9393 H   0  0  0  0  0  0
  -30.2425  -17.7547   22.3298 H   0  0  0  0  0  0
  -31.4475  -18.1814   21.1666 H   0  0  0  0  0  0
  -30.4551  -16.8804   19.4205 H   0  0  0  0  0  0
  -28.8675  -17.0271   20.0990 H   0  0  0  0  0  0
  -27.2335  -24.8672   19.9169 H   0  0  0  0  0  0
  -28.1790  -25.2870   18.5060 H   0  0  0  0  0  0
  -27.5147  -22.7914   19.5852 H   0  0  0  0  0  0
  -29.1763  -24.0295   21.1026 H   0  0  0  0  0  0
  -26.2767  -20.7844   22.4465 H   0  0  0  0  0  0
  -29.0346  -15.2065   21.3578 H   0  0  0  0  0  0
  1 25  1  0  0  0
  1 30  2  0  0  0
  1 89  1  0  0  0
  2  3  1  0  0  0
  2 25  1  0  0  0
  2 90  1  0  0  0
  2 91  1  0  0  0
  3  4  1  0  0  0
  3 92  1  0  0  0
  3 93  1  0  0  0
  4  5  1  0  0  0
  4 94  1  0  0  0
  4 95  1  0  0  0
  5  6  1  0  0  0
  5 26  1  0  0  0
  5 96  1  0  0  0
  6 25  1  0  0  0
  6 97  1  0  0  0
  6 98  1  0  0  0
  7  8  2  0  0  0
  7 26  1  0  0  0
  7 29  1  0  0  0
  8  9  1  0  0  0
  8 22  1  0  0  0
  9 10  1  0  0  0
  9 27  2  0  0  0
 10 11  2  0  0  0
 10 15  1  0  0  0
 11 12  1  0  0  0
 11 99  1  0  0  0
 12 13  2  0  0  0
 12100  1  0  0  0
 13 14  1  0  0  0
 13 31  1  0  0  0
 14 15  2  0  0  0
 14101  1  0  0  0
 15102  1  0  0  0
 16 17  2  0  0  0
 16 21  1  0  0  0
 16 31  1  0  0  0
 17 18  1  0  0  0
 17103  1  0  0  0
 18 19  2  0  0  0
 18104  1  0  0  0
 19 20  1  0  0  0
 19 24  1  0  0  0
 20 21  2  0  0  0
 20105  1  0  0  0
 21 23  1  0  0  0
 22 28  1  0  0  0
 22 32  2  0  0  0
 26 27  1  0  0  0
 28106  1  0  0  0
 28107  1  0  0  0
 29108  1  0  0  0
 29109  1  0  0  0
 33 34  1  0  0  0
 33 66  1  0  0  0
 33 70  2  0  0  0
 34 36  1  0  0  0
 34 59  1  0  0  0
 34110  1  0  0  0
 35 44  2  0  0  0
 35 45  1  0  0  0
 35 68  1  0  0  0
 36 56  1  0  0  0
 36111  1  0  0  0
 37 39  1  0  0  0
 37 47  1  0  0  0
 37 66  1  0  0  0
 37112  1  0  0  0
 38 43  2  0  0  0
 38 46  1  0  0  0
 38 47  1  0  0  0
 39 64  1  0  0  0
 39 67  2  0  0  0
 40 52  1  0  0  0
 40 53  2  0  0  0
 40 58  1  0  0  0
 41113  1  0  0  0
 41114  1  0  0  0
 41115  1  0  0  0
 41 48  1  0  0  0
 42 43  1  0  0  0
 42 66  1  0  0  0
 42116  1  0  0  0
 42117  1  0  0  0
 43 44  1  0  0  0
 44118  1  0  0  0
 45 46  2  0  0  0
 45119  1  0  0  0
 46120  1  0  0  0
 47121  1  0  0  0
 47122  1  0  0  0
 48 56  1  0  0  0
 48 65  1  0  0  0
 48123  1  0  0  0
 49 50  1  0  0  0
 49 53  1  0  0  0
 49 64  1  0  0  0
 49124  1  0  0  0
 50 51  1  0  0  0
 50125  1  0  0  0
 50126  1  0  0  0
 51 52  1  0  0  0
 51127  1  0  0  0
 51128  1  0  0  0
 52129  1  0  0  0
 52130  1  0  0  0
 53 54  1  0  0  0
 54 55  2  0  0  0
 54131  1  0  0  0
 55 57  1  0  0  0
 55132  1  0  0  0
 56 69  2  0  0  0
 57 58  2  0  0  0
 57133  1  0  0  0
 58134  1  0  0  0
 59 60  1  0  0  0
 59 61  1  0  0  0
 59 62  1  0  0  0
 60135  1  0  0  0
 60136  1  0  0  0
 60137  1  0  0  0
 61138  1  0  0  0
 61139  1  0  0  0
 61140  1  0  0  0
 62141  1  0  0  0
 62142  1  0  0  0
 62143  1  0  0  0
 63 65  1  0  0  0
 63144  1  0  0  0
 63145  1  0  0  0
 63146  1  0  0  0
 64147  1  0  0  0
 65148  1  0  0  0
 68 84  1  0  0  0
 71 72  1  0  0  0
 71 73  2  0  0  0
 71 82  1  0  0  0
 72 74  2  0  0  0
 72 81  1  0  0  0
 73 75  1  0  0  0
 73 88  1  0  0  0
 74 85  1  0  0  0
 74 88  1  0  0  0
 75149  1  0  0  0
 75150  1  0  0  0
 75151  1  0  0  0
 76 81  1  0  0  0
 76152  1  0  0  0
 76153  1  0  0  0
 76154  1  0  0  0
 77155  1  0  0  0
 77156  1  0  0  0
 77157  1  0  0  0
 77 85  1  0  0  0
 78158  1  0  0  0
 78159  1  0  0  0
 78160  1  0  0  0
 78 86  1  0  0  0
 79161  1  0  0  0
 79162  1  0  0  0
 79163  1  0  0  0
 79 87  1  0  0  0
 80 87  1  0  0  0
 80164  1  0  0  0
 80165  1  0  0  0
 80166  1  0  0  0
 81167  1  0  0  0
 81168  1  0  0  0
 82 83  1  0  0  0
 82169  1  0  0  0
 82170  1  0  0  0
 83 89  1  0  0  0
 83171  1  0  0  0
 83172  1  0  0  0
 84 86  1  0  0  0
 84173  1  0  0  0
 84174  1  0  0  0
 85 86  1  0  0  0
 85175  1  0  0  0
 86176  1  0  0  0
 87 88  1  0  0  0
 87177  1  0  0  0
 89178  1  0  0  0
M  ISO  4   1 100  68 101  84 101  89 100
M  END
> <chiral flag>
0

> <version>
0

> <s_m_source_file>
/data/baiqing/PycharmProjects/Reinvent-master-3.2/result/LINK_invent/BTK/process_docking_weight1_custom_sum_contain_oxygen_bond_distance_aromatic_linkinvent_7_9_3/rearranged_h_0023.sdf

> <i_m_source_file_index>
46

> <r_mmod_Potential_Energy-OPLS-2005>
-22.7571125030518

> <r_mmod_Stretch_Energy-OPLS-2005>
55.4603424072266

> <r_mmod_Bend_Energy-OPLS-2005>
142.16877746582

> <r_mmod_Torsional_Energy-OPLS-2005>
268.914520263672

> <r_mmod_Improper_Torsional_Energy-OPLS-2005>
8.14019107818604

> <r_mmod_Van_der_Waal_Energy-OPLS-2005>
141.100250244141

> <r_mmod_Electrostatic_Energy-OPLS-2005>
-456.549377441406

> <r_mmod_Solvation_Energy-OPLS-2005>
-202.213745117188

> <b_mmod_Minimization_Converged-OPLS-2005>
0

> <r_mmod_RMS_Derivative-OPLS-2005>
4.0895528793335

$$$$
46
                    3D
 Structure written by MMmdl.
180188  0  0  1  0            999 V2000
  -30.7389  -14.3773   20.6336 C   0  0  0  0  0  0
  -30.4103  -12.2764   19.3981 C   0  0  0  0  0  0
  -29.4803  -12.5136   18.1921 C   0  0  0  0  0  0
  -28.0038  -12.3719   18.6110 C   0  0  0  0  0  0
  -27.6626  -13.1985   19.8796 C   0  0  2  0  0  0
  -28.7021  -12.9456   20.9945 C   0  0  0  0  0  0
  -25.2622  -13.8151   20.5721 C   0  0  0  0  0  0
  -24.1844  -13.0423   20.9175 C   0  0  0  0  0  0
  -24.6371  -11.6888   20.8726 C   0  0  0  0  0  0
  -23.9029  -10.4290   21.0412 C   0  0  0  0  0  0
  -24.3602   -9.4224   21.9197 C   0  0  0  0  0  0
  -23.6288   -8.2243   22.0754 C   0  0  0  0  0  0
  -22.4280   -8.0264   21.3531 C   0  0  0  0  0  0
  -21.9904   -9.0242   20.4647 C   0  0  0  0  0  0
  -22.7208  -10.2127   20.3061 C   0  0  0  0  0  0
  -21.6850   -6.0728   22.5276 C   0  0  0  0  0  0
  -21.4024   -6.5641   23.8203 C   0  0  0  0  0  0
  -21.3662   -5.6801   24.9171 C   0  0  0  0  0  0
  -21.6033   -4.3055   24.7233 C   0  0  0  0  0  0
  -21.8827   -3.8141   23.4357 C   0  0  0  0  0  0
  -21.9200   -4.6956   22.3409 C   0  0  0  0  0  0
  -22.7870  -13.5236   21.1846 C   0  0  0  0  0  0
  -22.1663   -4.2136   21.0985 F   0  0  0  0  0  0
  -21.5633   -3.4544   25.7750 F   0  0  0  0  0  0
  -30.0344  -13.2369   20.4428 N   0  0  0  0  0  0
  -26.3036  -12.9286   20.3401 N   0  0  0  0  0  0
  -25.9295  -11.6453   20.5786 N   0  0  0  0  0  0
  -22.0521  -12.8205   22.0401 N   0  0  0  0  0  0
  -25.4383  -15.1857   20.4193 N   0  0  0  0  0  0
  -31.8815  -14.5359   20.2062 O   0  0  0  0  0  0
  -21.6636   -6.8865   21.4232 O   0  0  0  0  0  0
  -22.3562  -14.5553   20.6709 O   0  0  0  0  0  0
  -24.6125  -31.8652   23.2129 C   0  0  0  0  0  0
  -25.9017  -32.4794   23.8417 C   0  0  1  0  0  0
  -27.2495  -27.4653   20.0971 C   0  0  0  0  0  0
  -25.5890  -33.8594   24.2332 N   0  0  0  0  0  0
  -23.3997  -30.4843   21.5519 C   0  0  2  0  0  0
  -24.8494  -28.9432   20.1269 C   0  0  0  0  0  0
  -22.7404  -29.4610   22.5014 C   0  0  0  0  0  0
  -18.0289  -28.1342   22.8460 C   0  0  0  0  0  0
  -24.1504  -36.7317   23.2648 C   0  0  0  0  0  0
  -25.9216  -30.8411   21.3583 C   0  0  0  0  0  0
  -26.0055  -29.4721   20.7180 C   0  0  0  0  0  0
  -27.2078  -28.7364   20.7057 C   0  0  0  0  0  0
  -26.0804  -26.9322   19.5184 C   0  0  0  0  0  0
  -24.8770  -27.6674   19.5326 C   0  0  0  0  0  0
  -23.6094  -29.8050   20.1697 C   0  0  0  0  0  0
  -25.4110  -36.3088   24.0351 C   0  0  1  0  0  0
  -20.5860  -28.3628   23.1304 C   0  0  2  0  0  0
  -20.6780  -26.9352   22.5441 C   0  0  0  0  0  0
  -19.5795  -26.6348   21.5204 C   0  0  0  0  0  0
  -18.1934  -26.7880   22.1570 C   0  0  0  0  0  0
  -19.1523  -28.8803   23.2867 C   0  0  0  0  0  0
  -18.9465  -30.1416   23.8883 C   0  0  0  0  0  0
  -17.6461  -30.6540   24.0567 C   0  0  0  0  0  0
  -25.9022  -34.9441   23.5125 C   0  0  0  0  0  0
  -16.5354  -29.9056   23.6322 C   0  0  0  0  0  0
  -16.7264  -28.6475   23.0318 C   0  0  0  0  0  0
  -26.4475  -31.6563   25.0703 C   0  0  0  0  0  0
  -25.3772  -31.3617   26.1476 C   0  0  0  0  0  0
  -27.0311  -30.3020   24.5992 C   0  0  0  0  0  0
  -27.6057  -32.4273   25.7443 C   0  0  0  0  0  0
  -27.5584  -37.1823   24.8449 C   0  0  0  0  0  0
  -21.4134  -29.3011   22.3740 N   0  0  0  0  0  0
  -26.4294  -37.3782   23.9402 N   0  0  0  0  0  0
  -24.6624  -31.0753   22.1018 N   0  0  0  0  0  0
  -23.4151  -28.8124   23.3051 O   0  0  0  0  0  0
  -28.4443  -26.8026   19.9939 O   0  0  0  0  0  0
  -26.5560  -34.8880   22.4669 O   0  0  0  0  0  0
  -23.5310  -32.1419   23.7503 O   0  0  0  0  0  0
  -29.3884  -18.8915   21.2862 C   0  0  0  0  0  0
  -30.1283  -17.8570   20.6744 C   0  0  0  0  0  0
  -30.4839  -18.0002   19.3050 C   0  0  0  0  0  0
  -29.4658  -20.2344   19.2382 C   0  0  0  0  0  0
  -30.1497  -19.1779   18.6041 C   0  0  0  0  0  0
  -29.0654  -20.0730   20.5896 C   0  0  0  0  0  0
  -31.2770  -16.9459   18.5597 C   0  0  0  0  0  0
  -27.6670  -22.6671   16.7911 C   0  0  0  0  0  0
  -30.6000  -16.6918   21.5547 C   0  0  0  0  0  0
  -28.3223  -21.3507   17.2352 C   0  0  0  0  0  0
  -32.0353  -25.7360   19.0580 C   0  0  0  0  0  0
  -32.0864  -25.7112   20.6013 C   0  0  0  0  0  0
  -32.0044  -24.3494   18.3953 C   0  0  0  0  0  0
  -31.0536  -26.6335   21.2901 C   0  0  0  0  0  0
  -30.7161  -23.5961   18.7342 C   0  0  0  0  0  0
  -29.7684  -25.9628   21.8442 C   0  0  0  0  0  0
  -30.5803  -22.2175   18.0899 C   0  0  0  0  0  0
  -28.6312  -25.6764   20.8413 C   0  0  0  0  0  0
  -29.2342  -21.5369   18.4658 C   0  0  2  0  0  0
  -30.0628  -15.3736   21.2210 N   0  0  0  0  0  0
  -30.5360  -19.3157   17.3120 F   0  0  0  0  0  0
  -28.2124  -21.3066   21.4538 Cl  0  0  0  0  0  0
  -31.4548  -12.3679   19.0935 H   0  0  0  0  0  0
  -30.2935  -11.2580   19.7732 H   0  0  0  0  0  0
  -29.7122  -11.8092   17.3909 H   0  0  0  0  0  0
  -29.6522  -13.5106   17.7833 H   0  0  0  0  0  0
  -27.8156  -11.3133   18.7972 H   0  0  0  0  0  0
  -27.3484  -12.6591   17.7884 H   0  0  0  0  0  0
  -27.7211  -14.2520   19.6035 H   0  0  0  0  0  0
  -28.6684  -11.9030   21.3170 H   0  0  0  0  0  0
  -28.4733  -13.5272   21.8887 H   0  0  0  0  0  0
  -25.2748   -9.5705   22.4773 H   0  0  0  0  0  0
  -23.9995   -7.4651   22.7477 H   0  0  0  0  0  0
  -21.0828   -8.8755   19.8966 H   0  0  0  0  0  0
  -22.3663  -10.9666   19.6171 H   0  0  0  0  0  0
  -21.2013   -7.6149   23.9694 H   0  0  0  0  0  0
  -21.1473   -6.0538   25.9067 H   0  0  0  0  0  0
  -22.0606   -2.7604   23.2863 H   0  0  0  0  0  0
  -22.4130  -11.9832   22.4727 H   0  0  0  0  0  0
  -21.1150  -13.1247   22.2655 H   0  0  0  0  0  0
  -24.6795  -15.8464   20.5423 H   0  0  0  0  0  0
  -26.2995  -15.6272   20.1234 H   0  0  0  0  0  0
  -26.7083  -32.5527   23.1196 H   0  0  0  0  0  0
  -25.0131  -33.9753   25.0532 H   0  0  0  0  0  0
  -22.6914  -31.3029   21.4082 H   0  0  0  0  0  0
  -23.3712  -35.9694   23.3307 H   0  0  0  0  0  0
  -24.3629  -36.8926   22.2072 H   0  0  0  0  0  0
  -23.7288  -37.6546   23.6634 H   0  0  0  0  0  0
  -26.0198  -31.6038   20.5851 H   0  0  0  0  0  0
  -26.8173  -30.9062   21.9636 H   0  0  0  0  0  0
  -28.1085  -29.1429   21.1444 H   0  0  0  0  0  0
  -26.1106  -25.9631   19.0404 H   0  0  0  0  0  0
  -23.9870  -27.2513   19.0780 H   0  0  0  0  0  0
  -22.7370  -29.2166   19.8761 H   0  0  0  0  0  0
  -23.7168  -30.5746   19.4044 H   0  0  0  0  0  0
  -25.1289  -36.1996   25.0850 H   0  0  0  0  0  0
  -20.9971  -28.3230   24.1420 H   0  0  0  0  0  0
  -20.5618  -26.2266   23.3649 H   0  0  0  0  0  0
  -21.6668  -26.7364   22.1280 H   0  0  0  0  0  0
  -19.6976  -25.6271   21.1203 H   0  0  0  0  0  0
  -19.6745  -27.3201   20.6765 H   0  0  0  0  0  0
  -17.4233  -26.6644   21.3931 H   0  0  0  0  0  0
  -18.0305  -25.9990   22.8930 H   0  0  0  0  0  0
  -19.7943  -30.7239   24.2223 H   0  0  0  0  0  0
  -17.5011  -31.6200   24.5202 H   0  0  0  0  0  0
  -15.5352  -30.2951   23.7610 H   0  0  0  0  0  0
  -15.8671  -28.0796   22.7012 H   0  0  0  0  0  0
  -24.5847  -30.7097   25.7799 H   0  0  0  0  0  0
  -24.9061  -32.2759   26.5085 H   0  0  0  0  0  0
  -25.8143  -30.8656   27.0148 H   0  0  0  0  0  0
  -26.2852  -29.6753   24.1090 H   0  0  0  0  0  0
  -27.4209  -29.7252   25.4391 H   0  0  0  0  0  0
  -27.8629  -30.4387   23.9063 H   0  0  0  0  0  0
  -27.2662  -33.3484   26.2171 H   0  0  0  0  0  0
  -28.3777  -32.6970   25.0222 H   0  0  0  0  0  0
  -28.0830  -31.8322   26.5238 H   0  0  0  0  0  0
  -28.2606  -38.0115   24.7470 H   0  0  0  0  0  0
  -28.1072  -36.2648   24.6285 H   0  0  0  0  0  0
  -27.2299  -37.1516   25.8851 H   0  0  0  0  0  0
  -20.9316  -29.8796   21.7017 H   0  0  0  0  0  0
  -26.0170  -38.2862   24.1370 H   0  0  0  0  0  0
  -29.0961  -18.8091   22.3249 H   0  0  0  0  0  0
  -30.6661  -16.0594   18.3892 H   0  0  0  0  0  0
  -32.1667  -16.6879   19.1264 H   0  0  0  0  0  0
  -31.6271  -17.2829   17.5849 H   0  0  0  0  0  0
  -28.4029  -23.4641   16.6816 H   0  0  0  0  0  0
  -26.9228  -22.9998   17.5178 H   0  0  0  0  0  0
  -27.1638  -22.5463   15.8322 H   0  0  0  0  0  0
  -30.3102  -16.8859   22.5897 H   0  0  0  0  0  0
  -31.6924  -16.6893   21.5675 H   0  0  0  0  0  0
  -28.8802  -20.9083   16.4100 H   0  0  0  0  0  0
  -27.5294  -20.6398   17.4683 H   0  0  0  0  0  0
  -32.9166  -26.2630   18.6895 H   0  0  0  0  0  0
  -31.1798  -26.3190   18.7138 H   0  0  0  0  0  0
  -33.0842  -26.0581   20.8782 H   0  0  0  0  0  0
  -32.0430  -24.6999   21.0035 H   0  0  0  0  0  0
  -32.8814  -23.7710   18.6955 H   0  0  0  0  0  0
  -32.0628  -24.4783   17.3128 H   0  0  0  0  0  0
  -30.8059  -27.4812   20.6513 H   0  0  0  0  0  0
  -31.5548  -27.0785   22.1500 H   0  0  0  0  0  0
  -29.8772  -24.2152   18.4222 H   0  0  0  0  0  0
  -30.6420  -23.4606   19.8130 H   0  0  0  0  0  0
  -29.3629  -26.6304   22.6058 H   0  0  0  0  0  0
  -30.0168  -25.0460   22.3799 H   0  0  0  0  0  0
  -31.4302  -21.6063   18.3991 H   0  0  0  0  0  0
  -30.6731  -22.3147   17.0063 H   0  0  0  0  0  0
  -27.7217  -25.4183   21.3877 H   0  0  0  0  0  0
  -28.8590  -24.8066   20.2349 H   0  0  0  0  0  0
  -28.6928  -22.2164   19.1203 H   0  0  0  0  0  0
  -29.1243  -15.1667   21.5279 H   0  0  0  0  0  0
  1 25  1  0  0  0
  1 30  2  0  0  0
  1 90  1  0  0  0
  2  3  1  0  0  0
  2 25  1  0  0  0
  2 93  1  0  0  0
  2 94  1  0  0  0
  3  4  1  0  0  0
  3 95  1  0  0  0
  3 96  1  0  0  0
  4  5  1  0  0  0
  4 97  1  0  0  0
  4 98  1  0  0  0
  5  6  1  0  0  0
  5 26  1  0  0  0
  5 99  1  0  0  0
  6 25  1  0  0  0
  6100  1  0  0  0
  6101  1  0  0  0
  7  8  2  0  0  0
  7 26  1  0  0  0
  7 29  1  0  0  0
  8  9  1  0  0  0
  8 22  1  0  0  0
  9 10  1  0  0  0
  9 27  2  0  0  0
 10 11  2  0  0  0
 10 15  1  0  0  0
 11 12  1  0  0  0
 11102  1  0  0  0
 12 13  2  0  0  0
 12103  1  0  0  0
 13 14  1  0  0  0
 13 31  1  0  0  0
 14 15  2  0  0  0
 14104  1  0  0  0
 15105  1  0  0  0
 16 17  2  0  0  0
 16 21  1  0  0  0
 16 31  1  0  0  0
 17 18  1  0  0  0
 17106  1  0  0  0
 18 19  2  0  0  0
 18107  1  0  0  0
 19 20  1  0  0  0
 19 24  1  0  0  0
 20 21  2  0  0  0
 20108  1  0  0  0
 21 23  1  0  0  0
 22 28  1  0  0  0
 22 32  2  0  0  0
 26 27  1  0  0  0
 28109  1  0  0  0
 28110  1  0  0  0
 29111  1  0  0  0
 29112  1  0  0  0
 33 34  1  0  0  0
 33 66  1  0  0  0
 33 70  2  0  0  0
 34 36  1  0  0  0
 34 59  1  0  0  0
 34113  1  0  0  0
 35 44  2  0  0  0
 35 45  1  0  0  0
 35 68  1  0  0  0
 36 56  1  0  0  0
 36114  1  0  0  0
 37 39  1  0  0  0
 37 47  1  0  0  0
 37 66  1  0  0  0
 37115  1  0  0  0
 38 43  2  0  0  0
 38 46  1  0  0  0
 38 47  1  0  0  0
 39 64  1  0  0  0
 39 67  2  0  0  0
 40 52  1  0  0  0
 40 53  2  0  0  0
 40 58  1  0  0  0
 41116  1  0  0  0
 41117  1  0  0  0
 41118  1  0  0  0
 41 48  1  0  0  0
 42 43  1  0  0  0
 42 66  1  0  0  0
 42119  1  0  0  0
 42120  1  0  0  0
 43 44  1  0  0  0
 44121  1  0  0  0
 45 46  2  0  0  0
 45122  1  0  0  0
 46123  1  0  0  0
 47124  1  0  0  0
 47125  1  0  0  0
 48 56  1  0  0  0
 48 65  1  0  0  0
 48126  1  0  0  0
 49 50  1  0  0  0
 49 53  1  0  0  0
 49 64  1  0  0  0
 49127  1  0  0  0
 50 51  1  0  0  0
 50128  1  0  0  0
 50129  1  0  0  0
 51 52  1  0  0  0
 51130  1  0  0  0
 51131  1  0  0  0
 52132  1  0  0  0
 52133  1  0  0  0
 53 54  1  0  0  0
 54 55  2  0  0  0
 54134  1  0  0  0
 55 57  1  0  0  0
 55135  1  0  0  0
 56 69  2  0  0  0
 57 58  2  0  0  0
 57136  1  0  0  0
 58137  1  0  0  0
 59 60  1  0  0  0
 59 61  1  0  0  0
 59 62  1  0  0  0
 60138  1  0  0  0
 60139  1  0  0  0
 60140  1  0  0  0
 61141  1  0  0  0
 61142  1  0  0  0
 61143  1  0  0  0
 62144  1  0  0  0
 62145  1  0  0  0
 62146  1  0  0  0
 63 65  1  0  0  0
 63147  1  0  0  0
 63148  1  0  0  0
 63149  1  0  0  0
 64150  1  0  0  0
 65151  1  0  0  0
 68 88  1  0  0  0
 71 72  2  0  0  0
 71 76  1  0  0  0
 71152  1  0  0  0
 72 73  1  0  0  0
 72 79  1  0  0  0
 73 75  2  0  0  0
 73 77  1  0  0  0
 74 75  1  0  0  0
 74 76  2  0  0  0
 74 89  1  0  0  0
 75 91  1  0  0  0
 76 92  1  0  0  0
 77153  1  0  0  0
 77154  1  0  0  0
 77155  1  0  0  0
 78 80  1  0  0  0
 78156  1  0  0  0
 78157  1  0  0  0
 78158  1  0  0  0
 79 90  1  0  0  0
 79159  1  0  0  0
 79160  1  0  0  0
 80161  1  0  0  0
 80162  1  0  0  0
 80 89  1  0  0  0
 81 82  1  0  0  0
 81 83  1  0  0  0
 81163  1  0  0  0
 81164  1  0  0  0
 82 84  1  0  0  0
 82165  1  0  0  0
 82166  1  0  0  0
 83 85  1  0  0  0
 83167  1  0  0  0
 83168  1  0  0  0
 84 86  1  0  0  0
 84169  1  0  0  0
 84170  1  0  0  0
 85 87  1  0  0  0
 85171  1  0  0  0
 85172  1  0  0  0
 86 88  1  0  0  0
 86173  1  0  0  0
 86174  1  0  0  0
 87 89  1  0  0  0
 87175  1  0  0  0
 87176  1  0  0  0
 88177  1  0  0  0
 88178  1  0  0  0
 89179  1  0  0  0
 90180  1  0  0  0
M  ISO  4   1 100  68 101  88 101  90 100
M  END
> <chiral flag>
0

> <version>
0

> <s_m_source_file>
/data/baiqing/PycharmProjects/Reinvent-master-3.2/result/LINK_invent/BTK/process_docking_weight1_custom_sum_contain_oxygen_bond_distance_aromatic_linkinvent_7_9_3/rearranged_h_0023.sdf

> <i_m_source_file_index>
47

> <r_mmod_Potential_Energy-OPLS-2005>
-3.66841197013855

> <r_mmod_Stretch_Energy-OPLS-2005>
34.487606048584

> <r_mmod_Bend_Energy-OPLS-2005>
106.647422790527

> <r_mmod_Torsional_Energy-OPLS-2005>
274.345184326172

> <r_mmod_Improper_Torsional_Energy-OPLS-2005>
3.19888114929199

> <r_mmod_Van_der_Waal_Energy-OPLS-2005>
154.444488525391

> <r_mmod_Electrostatic_Energy-OPLS-2005>
-404.4775390625

> <r_mmod_Solvation_Energy-OPLS-2005>
-184.347778320312

> <b_mmod_Minimization_Converged-OPLS-2005>
0

> <r_mmod_RMS_Derivative-OPLS-2005>
4.3893461227417

$$$$
47
                    3D
 Structure written by MMmdl.
182191  0  0  1  0            999 V2000
  -30.7451  -14.3920   20.6481 C   0  0  0  0  0  0
  -30.4206  -12.2887   19.3959 C   0  0  0  0  0  0
  -29.4890  -12.5309   18.1925 C   0  0  0  0  0  0
  -28.0089  -12.3942   18.6096 C   0  0  0  0  0  0
  -27.6668  -13.2108   19.8859 C   0  0  2  0  0  0
  -28.7101  -12.9383   20.9963 C   0  0  0  0  0  0
  -25.2563  -13.8168   20.5700 C   0  0  0  0  0  0
  -24.1834  -13.0437   20.9184 C   0  0  0  0  0  0
  -24.6387  -11.6899   20.8722 C   0  0  0  0  0  0
  -23.9054  -10.4277   21.0371 C   0  0  0  0  0  0
  -24.3613   -9.4202   21.9149 C   0  0  0  0  0  0
  -23.6299   -8.2233   22.0745 C   0  0  0  0  0  0
  -22.4272   -8.0272   21.3547 C   0  0  0  0  0  0
  -21.9897   -9.0246   20.4639 C   0  0  0  0  0  0
  -22.7228  -10.2121   20.3025 C   0  0  0  0  0  0
  -21.6874   -6.0704   22.5271 C   0  0  0  0  0  0
  -21.4028   -6.5620   23.8195 C   0  0  0  0  0  0
  -21.3655   -5.6788   24.9160 C   0  0  0  0  0  0
  -21.6055   -4.3047   24.7244 C   0  0  0  0  0  0
  -21.8821   -3.8130   23.4366 C   0  0  0  0  0  0
  -21.9214   -4.6932   22.3412 C   0  0  0  0  0  0
  -22.7827  -13.5178   21.1866 C   0  0  0  0  0  0
  -22.1682   -4.2095   21.0995 F   0  0  0  0  0  0
  -21.5632   -3.4535   25.7752 F   0  0  0  0  0  0
  -30.0523  -13.2375   20.4590 N   0  0  0  0  0  0
  -26.3053  -12.9368   20.3449 N   0  0  0  0  0  0
  -25.9336  -11.6511   20.5819 N   0  0  0  0  0  0
  -22.0515  -12.8160   22.0449 N   0  0  0  0  0  0
  -25.4229  -15.1893   20.4040 N   0  0  0  0  0  0
  -31.8077  -14.6482   20.0753 O   0  0  0  0  0  0
  -21.6662   -6.8858   21.4232 O   0  0  0  0  0  0
  -22.3465  -14.5465   20.6707 O   0  0  0  0  0  0
  -24.6155  -31.8706   23.2151 C   0  0  0  0  0  0
  -25.9071  -32.4829   23.8420 C   0  0  1  0  0  0
  -27.2281  -27.4531   20.0601 C   0  0  0  0  0  0
  -25.5940  -33.8619   24.2357 N   0  0  0  0  0  0
  -23.3998  -30.5035   21.5552 C   0  0  2  0  0  0
  -24.8380  -28.9755   20.1224 C   0  0  0  0  0  0
  -22.7398  -29.4725   22.4983 C   0  0  0  0  0  0
  -18.0268  -28.1389   22.8474 C   0  0  0  0  0  0
  -24.1487  -36.7326   23.2633 C   0  0  0  0  0  0
  -25.9329  -30.8383   21.3697 C   0  0  0  0  0  0
  -26.0053  -29.4755   20.7137 C   0  0  0  0  0  0
  -27.2004  -28.7205   20.6868 C   0  0  0  0  0  0
  -26.0230  -26.9620   19.4899 C   0  0  0  0  0  0
  -24.8401  -27.7123   19.5184 C   0  0  0  0  0  0
  -23.6057  -29.8458   20.1673 C   0  0  0  0  0  0
  -25.4102  -36.3113   24.0333 C   0  0  1  0  0  0
  -20.5862  -28.3704   23.1277 C   0  0  2  0  0  0
  -20.6770  -26.9434   22.5397 C   0  0  0  0  0  0
  -19.5756  -26.6397   21.5190 C   0  0  0  0  0  0
  -18.1931  -26.7936   22.1606 C   0  0  0  0  0  0
  -19.1519  -28.8855   23.2883 C   0  0  0  0  0  0
  -18.9455  -30.1449   23.8915 C   0  0  0  0  0  0
  -17.6466  -30.6596   24.0569 C   0  0  0  0  0  0
  -25.9030  -34.9470   23.5130 C   0  0  0  0  0  0
  -16.5351  -29.9099   23.6326 C   0  0  0  0  0  0
  -16.7259  -28.6517   23.0342 C   0  0  0  0  0  0
  -26.4489  -31.6596   25.0748 C   0  0  0  0  0  0
  -25.3777  -31.3708   26.1523 C   0  0  0  0  0  0
  -27.0325  -30.3029   24.6152 C   0  0  0  0  0  0
  -27.6063  -32.4321   25.7526 C   0  0  0  0  0  0
  -27.5578  -37.1816   24.8458 C   0  0  0  0  0  0
  -21.4135  -29.3080   22.3694 N   0  0  0  0  0  0
  -26.4283  -37.3799   23.9406 N   0  0  0  0  0  0
  -24.6676  -31.0831   22.1044 N   0  0  0  0  0  0
  -23.4173  -28.8231   23.3000 O   0  0  0  0  0  0
  -28.4163  -26.7434   20.0078 O   0  0  0  0  0  0
  -26.5574  -34.8917   22.4678 O   0  0  0  0  0  0
  -23.5354  -32.1449   23.7562 O   0  0  0  0  0  0
  -30.0274  -23.8713   20.1555 C   0  0  0  0  0  0
  -30.3547  -24.7331   17.9099 C   0  0  0  0  0  0
  -31.6191  -22.7627   18.6476 C   0  0  0  0  0  0
  -29.6515  -24.7505   19.1269 C   0  0  0  0  0  0
  -31.0103  -22.8907   19.9311 C   0  0  0  0  0  0
  -31.3277  -23.7486   17.6634 C   0  0  0  0  0  0
  -29.0347  -21.5095   16.9008 C   0  0  0  0  0  0
  -29.4505  -20.4728   17.6532 C   0  0  0  0  0  0
  -34.1096  -19.9765   19.2880 C   0  0  0  0  0  0
  -33.8352  -21.4729   19.0535 C   0  0  0  0  0  0
  -33.0475  -19.2042   18.4933 C   0  0  0  0  0  0
  -32.5029  -21.5549   18.2842 C   0  0  1  0  0  0
  -31.8433  -20.1569   18.4338 C   0  0  1  0  0  0
  -31.2020  -19.6738   16.0361 C   0  0  0  0  0  0
  -28.3679  -25.5413   19.2380 C   0  0  0  0  0  0
  -28.6521  -19.8427   18.7898 C   0  0  0  0  0  0
  -28.4566  -18.3134   18.6863 C   0  0  0  0  0  0
  -29.5018  -17.4300   19.3999 C   0  0  0  0  0  0
  -29.5833  -17.6440   20.9244 C   0  0  0  0  0  0
  -30.5499  -16.6786   21.6360 C   0  0  0  0  0  0
  -30.1481  -15.2835   21.4507 N   0  0  0  0  0  0
  -30.7698  -19.7862   17.4540 N   0  3  2  0  0  0
  -31.3740  -21.8411   21.2579 Cl  0  0  0  0  0  0
  -32.0569  -23.7426   16.0936 Cl  0  0  0  0  0  0
  -31.4651  -12.3824   19.0952 H   0  0  0  0  0  0
  -30.3143  -11.2648   19.7583 H   0  0  0  0  0  0
  -29.7152  -11.8259   17.3904 H   0  0  0  0  0  0
  -29.6702  -13.5308   17.7902 H   0  0  0  0  0  0
  -27.8154  -11.3362   18.7920 H   0  0  0  0  0  0
  -27.3573  -12.6847   17.7832 H   0  0  0  0  0  0
  -27.7206  -14.2689   19.6234 H   0  0  0  0  0  0
  -28.6707  -11.8925   21.3051 H   0  0  0  0  0  0
  -28.4616  -13.4992   21.8988 H   0  0  0  0  0  0
  -25.2755   -9.5695   22.4715 H   0  0  0  0  0  0
  -24.0026   -7.4617   22.7443 H   0  0  0  0  0  0
  -21.0842   -8.8766   19.8923 H   0  0  0  0  0  0
  -22.3695  -10.9669   19.6122 H   0  0  0  0  0  0
  -21.2006   -7.6120   23.9708 H   0  0  0  0  0  0
  -21.1478   -6.0493   25.9061 H   0  0  0  0  0  0
  -22.0600   -2.7592   23.2889 H   0  0  0  0  0  0
  -22.4192  -11.9836   22.4821 H   0  0  0  0  0  0
  -21.1108  -13.1098   22.2672 H   0  0  0  0  0  0
  -24.6437  -15.8350   20.4793 H   0  0  0  0  0  0
  -26.2763  -15.6326   20.0866 H   0  0  0  0  0  0
  -26.7161  -32.5541   23.1195 H   0  0  0  0  0  0
  -25.0131  -33.9779   25.0537 H   0  0  0  0  0  0
  -22.6903  -31.3225   21.4200 H   0  0  0  0  0  0
  -23.3734  -35.9673   23.3289 H   0  0  0  0  0  0
  -24.3597  -36.8952   22.2054 H   0  0  0  0  0  0
  -23.7252  -37.6533   23.6648 H   0  0  0  0  0  0
  -26.0521  -31.6067   20.6043 H   0  0  0  0  0  0
  -26.8193  -30.8813   21.9911 H   0  0  0  0  0  0
  -28.1048  -29.1119   21.1320 H   0  0  0  0  0  0
  -25.9519  -26.0026   19.0005 H   0  0  0  0  0  0
  -23.9397  -27.3152   19.0687 H   0  0  0  0  0  0
  -23.7259  -30.6249   19.4130 H   0  0  0  0  0  0
  -22.7270  -29.2743   19.8647 H   0  0  0  0  0  0
  -25.1274  -36.1974   25.0824 H   0  0  0  0  0  0
  -20.9952  -28.3279   24.1398 H   0  0  0  0  0  0
  -20.5662  -26.2318   23.3589 H   0  0  0  0  0  0
  -21.6640  -26.7476   22.1197 H   0  0  0  0  0  0
  -19.6919  -25.6305   21.1224 H   0  0  0  0  0  0
  -19.6679  -27.3198   20.6706 H   0  0  0  0  0  0
  -17.4185  -26.6658   21.4022 H   0  0  0  0  0  0
  -18.0354  -26.0080   22.9010 H   0  0  0  0  0  0
  -19.7934  -30.7245   24.2303 H   0  0  0  0  0  0
  -17.5028  -31.6273   24.5180 H   0  0  0  0  0  0
  -15.5361  -30.3019   23.7642 H   0  0  0  0  0  0
  -15.8657  -28.0848   22.7052 H   0  0  0  0  0  0
  -24.5938  -30.7054   25.7883 H   0  0  0  0  0  0
  -24.8994  -32.2872   26.4990 H   0  0  0  0  0  0
  -25.8166  -30.8878   27.0269 H   0  0  0  0  0  0
  -26.2876  -29.6792   24.1201 H   0  0  0  0  0  0
  -27.4067  -29.7265   25.4627 H   0  0  0  0  0  0
  -27.8723  -30.4318   23.9321 H   0  0  0  0  0  0
  -27.2663  -33.3601   26.2129 H   0  0  0  0  0  0
  -28.3871  -32.6916   25.0367 H   0  0  0  0  0  0
  -28.0735  -31.8440   26.5440 H   0  0  0  0  0  0
  -28.2582  -38.0125   24.7514 H   0  0  0  0  0  0
  -28.1086  -36.2657   24.6262 H   0  0  0  0  0  0
  -27.2304  -37.1448   25.8864 H   0  0  0  0  0  0
  -20.9274  -29.8838   21.6957 H   0  0  0  0  0  0
  -26.0170  -38.2871   24.1418 H   0  0  0  0  0  0
  -29.5029  -23.8894   21.1007 H   0  0  0  0  0  0
  -30.0846  -25.4177   17.1185 H   0  0  0  0  0  0
  -28.0746  -21.9738   17.0750 H   0  0  0  0  0  0
  -29.6265  -21.9256   16.1008 H   0  0  0  0  0  0
  -34.0077  -19.7479   20.3507 H   0  0  0  0  0  0
  -35.1223  -19.6939   18.9903 H   0  0  0  0  0  0
  -34.6373  -21.9494   18.4864 H   0  0  0  0  0  0
  -33.7921  -21.9910   20.0105 H   0  0  0  0  0  0
  -32.8086  -18.2480   18.9627 H   0  0  0  0  0  0
  -33.4502  -19.0002   17.5013 H   0  0  0  0  0  0
  -32.8052  -21.6249   17.2432 H   0  0  0  0  0  0
  -31.3814  -20.0680   19.4133 H   0  0  0  0  0  0
  -30.3563  -19.3944   15.4071 H   0  0  0  0  0  0
  -31.9597  -18.9054   15.8954 H   0  0  0  0  0  0
  -31.5939  -20.6140   15.6530 H   0  0  0  0  0  0
  -27.6426  -24.8573   19.6811 H   0  0  0  0  0  0
  -28.0328  -25.7652   18.2220 H   0  0  0  0  0  0
  -27.6619  -20.2993   18.7602 H   0  0  0  0  0  0
  -29.0521  -20.1480   19.7556 H   0  0  0  0  0  0
  -28.3809  -18.0211   17.6377 H   0  0  0  0  0  0
  -27.4831  -18.0706   19.1095 H   0  0  0  0  0  0
  -30.4906  -17.5473   18.9656 H   0  0  0  0  0  0
  -29.2205  -16.3933   19.2118 H   0  0  0  0  0  0
  -28.5898  -17.5531   21.3675 H   0  0  0  0  0  0
  -29.9081  -18.6591   21.1434 H   0  0  0  0  0  0
  -30.5504  -16.9026   22.7020 H   0  0  0  0  0  0
  -31.5727  -16.8482   21.2896 H   0  0  0  0  0  0
  -29.2957  -14.9844   21.9004 H   0  0  0  0  0  0
  -30.5790  -18.8246   17.6974 H   0  0  0  0  0  0
  1 25  1  0  0  0
  1 30  2  0  0  0
  1 91  1  0  0  0
  2  3  1  0  0  0
  2 25  1  0  0  0
  2 95  1  0  0  0
  2 96  1  0  0  0
  3  4  1  0  0  0
  3 97  1  0  0  0
  3 98  1  0  0  0
  4  5  1  0  0  0
  4 99  1  0  0  0
  4100  1  0  0  0
  5  6  1  0  0  0
  5 26  1  0  0  0
  5101  1  0  0  0
  6 25  1  0  0  0
  6102  1  0  0  0
  6103  1  0  0  0
  7  8  2  0  0  0
  7 26  1  0  0  0
  7 29  1  0  0  0
  8  9  1  0  0  0
  8 22  1  0  0  0
  9 10  1  0  0  0
  9 27  2  0  0  0
 10 11  2  0  0  0
 10 15  1  0  0  0
 11 12  1  0  0  0
 11104  1  0  0  0
 12 13  2  0  0  0
 12105  1  0  0  0
 13 14  1  0  0  0
 13 31  1  0  0  0
 14 15  2  0  0  0
 14106  1  0  0  0
 15107  1  0  0  0
 16 17  2  0  0  0
 16 21  1  0  0  0
 16 31  1  0  0  0
 17 18  1  0  0  0
 17108  1  0  0  0
 18 19  2  0  0  0
 18109  1  0  0  0
 19 20  1  0  0  0
 19 24  1  0  0  0
 20 21  2  0  0  0
 20110  1  0  0  0
 21 23  1  0  0  0
 22 28  1  0  0  0
 22 32  2  0  0  0
 26 27  1  0  0  0
 28111  1  0  0  0
 28112  1  0  0  0
 29113  1  0  0  0
 29114  1  0  0  0
 33 34  1  0  0  0
 33 66  1  0  0  0
 33 70  2  0  0  0
 34 36  1  0  0  0
 34 59  1  0  0  0
 34115  1  0  0  0
 35 44  2  0  0  0
 35 45  1  0  0  0
 35 68  1  0  0  0
 36 56  1  0  0  0
 36116  1  0  0  0
 37 39  1  0  0  0
 37 47  1  0  0  0
 37 66  1  0  0  0
 37117  1  0  0  0
 38 43  2  0  0  0
 38 46  1  0  0  0
 38 47  1  0  0  0
 39 64  1  0  0  0
 39 67  2  0  0  0
 40 52  1  0  0  0
 40 53  2  0  0  0
 40 58  1  0  0  0
 41118  1  0  0  0
 41119  1  0  0  0
 41120  1  0  0  0
 41 48  1  0  0  0
 42 43  1  0  0  0
 42 66  1  0  0  0
 42121  1  0  0  0
 42122  1  0  0  0
 43 44  1  0  0  0
 44123  1  0  0  0
 45 46  2  0  0  0
 45124  1  0  0  0
 46125  1  0  0  0
 47126  1  0  0  0
 47127  1  0  0  0
 48 56  1  0  0  0
 48 65  1  0  0  0
 48128  1  0  0  0
 49 50  1  0  0  0
 49 53  1  0  0  0
 49 64  1  0  0  0
 49129  1  0  0  0
 50 51  1  0  0  0
 50130  1  0  0  0
 50131  1  0  0  0
 51 52  1  0  0  0
 51132  1  0  0  0
 51133  1  0  0  0
 52134  1  0  0  0
 52135  1  0  0  0
 53 54  1  0  0  0
 54 55  2  0  0  0
 54136  1  0  0  0
 55 57  1  0  0  0
 55137  1  0  0  0
 56 69  2  0  0  0
 57 58  2  0  0  0
 57138  1  0  0  0
 58139  1  0  0  0
 59 60  1  0  0  0
 59 61  1  0  0  0
 59 62  1  0  0  0
 60140  1  0  0  0
 60141  1  0  0  0
 60142  1  0  0  0
 61143  1  0  0  0
 61144  1  0  0  0
 61145  1  0  0  0
 62146  1  0  0  0
 62147  1  0  0  0
 62148  1  0  0  0
 63 65  1  0  0  0
 63149  1  0  0  0
 63150  1  0  0  0
 63151  1  0  0  0
 64152  1  0  0  0
 65153  1  0  0  0
 68 85  1  0  0  0
 71 74  2  0  0  0
 71 75  1  0  0  0
 71154  1  0  0  0
 72 74  1  0  0  0
 72 76  2  0  0  0
 72155  1  0  0  0
 73 75  2  0  0  0
 73 76  1  0  0  0
 73 82  1  0  0  0
 74 85  1  0  0  0
 75 93  1  0  0  0
 76 94  1  0  0  0
 77 78  2  0  0  0
 77156  1  0  0  0
 77157  1  0  0  0
 78 86  1  0  0  0
 78 92  1  0  0  0
 79 80  1  0  0  0
 79 81  1  0  0  0
 79158  1  0  0  0
 79159  1  0  0  0
 80 82  1  0  0  0
 80160  1  0  0  0
 80161  1  0  0  0
 81162  1  0  0  0
 81163  1  0  0  0
 81 83  1  0  0  0
 82 83  1  0  0  0
 82164  1  0  0  0
 83 92  1  0  0  0
 83165  1  0  0  0
 84166  1  0  0  0
 84167  1  0  0  0
 84168  1  0  0  0
 84 92  1  0  0  0
 85169  1  0  0  0
 85170  1  0  0  0
 86 87  1  0  0  0
 86171  1  0  0  0
 86172  1  0  0  0
 87 88  1  0  0  0
 87173  1  0  0  0
 87174  1  0  0  0
 88 89  1  0  0  0
 88175  1  0  0  0
 88176  1  0  0  0
 89 90  1  0  0  0
 89177  1  0  0  0
 89178  1  0  0  0
 90 91  1  0  0  0
 90179  1  0  0  0
 90180  1  0  0  0
 91181  1  0  0  0
 92182  1  0  0  0
M  CHG  1  92   1
M  ISO  4   1 100  68 101  85 101  91 100
M  END
> <chiral flag>
0

> <version>
0

> <s_m_source_file>
/data/baiqing/PycharmProjects/Reinvent-master-3.2/result/LINK_invent/BTK/process_docking_weight1_custom_sum_contain_oxygen_bond_distance_aromatic_linkinvent_7_9_3/rearranged_h_0023.sdf

> <i_m_source_file_index>
48

> <r_mmod_Potential_Energy-OPLS-2005>
-69.1326293945312

> <r_mmod_Stretch_Energy-OPLS-2005>
40.3938331604004

> <r_mmod_Bend_Energy-OPLS-2005>
146.384918212891

> <r_mmod_Torsional_Energy-OPLS-2005>
292.133911132812

> <r_mmod_Improper_Torsional_Energy-OPLS-2005>
4.00938987731934

> <r_mmod_Van_der_Waal_Energy-OPLS-2005>
151.431045532227

> <r_mmod_Electrostatic_Energy-OPLS-2005>
-301.483551025391

> <r_mmod_Solvation_Energy-OPLS-2005>
-410.469879150391

> <b_mmod_Minimization_Converged-OPLS-2005>
0

> <r_mmod_RMS_Derivative-OPLS-2005>
3.79000377655029

$$$$
48
                    3D
 Structure written by MMmdl.
164172  0  0  1  0            999 V2000
  -30.8203  -14.3308   20.7474 C   0  0  0  0  0  0
  -30.4239  -12.3097   19.3874 C   0  0  0  0  0  0
  -29.4960  -12.5641   18.1909 C   0  0  0  0  0  0
  -28.0258  -12.3774   18.6091 C   0  0  0  0  0  0
  -27.6695  -13.2068   19.8729 C   0  0  2  0  0  0
  -28.7074  -12.9740   20.9943 C   0  0  0  0  0  0
  -25.2648  -13.8115   20.5732 C   0  0  0  0  0  0
  -24.1895  -13.0393   20.9081 C   0  0  0  0  0  0
  -24.6423  -11.6859   20.8622 C   0  0  0  0  0  0
  -23.9084  -10.4277   21.0327 C   0  0  0  0  0  0
  -24.3611   -9.4226   21.9151 C   0  0  0  0  0  0
  -23.6296   -8.2256   22.0750 C   0  0  0  0  0  0
  -22.4296   -8.0267   21.3526 C   0  0  0  0  0  0
  -21.9920   -9.0239   20.4650 C   0  0  0  0  0  0
  -22.7230  -10.2110   20.3033 C   0  0  0  0  0  0
  -21.6875   -6.0729   22.5277 C   0  0  0  0  0  0
  -21.4029   -6.5636   23.8204 C   0  0  0  0  0  0
  -21.3656   -5.6799   24.9177 C   0  0  0  0  0  0
  -21.6035   -4.3058   24.7238 C   0  0  0  0  0  0
  -21.8839   -3.8146   23.4363 C   0  0  0  0  0  0
  -21.9192   -4.6955   22.3408 C   0  0  0  0  0  0
  -22.7915  -13.5182   21.1784 C   0  0  0  0  0  0
  -22.1664   -4.2145   21.0994 F   0  0  0  0  0  0
  -21.5602   -3.4548   25.7748 F   0  0  0  0  0  0
  -30.0613  -13.2400   20.4663 N   0  0  0  0  0  0
  -26.3083  -12.9310   20.3312 N   0  0  0  0  0  0
  -25.9354  -11.6459   20.5633 N   0  0  0  0  0  0
  -22.0544  -12.8197   22.0332 N   0  0  0  0  0  0
  -25.4287  -15.1890   20.4368 N   0  0  0  0  0  0
  -31.7787  -14.6918   20.0606 O   0  0  0  0  0  0
  -21.6645   -6.8876   21.4239 O   0  0  0  0  0  0
  -22.3600  -14.5510   20.6646 O   0  0  0  0  0  0
  -24.6135  -31.8694   23.2042 C   0  0  0  0  0  0
  -25.9010  -32.4839   23.8346 C   0  0  1  0  0  0
  -27.2121  -27.4320   20.0697 C   0  0  0  0  0  0
  -25.5843  -33.8623   24.2286 N   0  0  0  0  0  0
  -23.3997  -30.4932   21.5474 C   0  0  2  0  0  0
  -24.8340  -28.9576   20.1070 C   0  0  0  0  0  0
  -22.7406  -29.4737   22.5011 C   0  0  0  0  0  0
  -18.0326  -28.1436   22.8417 C   0  0  0  0  0  0
  -24.1488  -36.7355   23.2637 C   0  0  0  0  0  0
  -25.9216  -30.8330   21.3504 C   0  0  0  0  0  0
  -25.9929  -29.4586   20.7122 C   0  0  0  0  0  0
  -27.1828  -28.6985   20.6987 C   0  0  0  0  0  0
  -26.0347  -26.9504   19.4519 C   0  0  0  0  0  0
  -24.8507  -27.7036   19.4748 C   0  0  0  0  0  0
  -23.5981  -29.8223   20.1603 C   0  0  0  0  0  0
  -25.4118  -36.3114   24.0323 C   0  0  1  0  0  0
  -20.5888  -28.3805   23.1407 C   0  0  2  0  0  0
  -20.6763  -26.9528   22.5547 C   0  0  0  0  0  0
  -19.5961  -26.6900   21.5042 C   0  0  0  0  0  0
  -18.2155  -26.7964   22.1571 C   0  0  0  0  0  0
  -19.1519  -28.8923   23.2926 C   0  0  0  0  0  0
  -18.9323  -30.1519   23.8949 C   0  0  0  0  0  0
  -17.6291  -30.6592   24.0494 C   0  0  0  0  0  0
  -25.9033  -34.9486   23.5126 C   0  0  0  0  0  0
  -16.5255  -29.9066   23.6143 C   0  0  0  0  0  0
  -16.7274  -28.6510   23.0126 C   0  0  0  0  0  0
  -26.4419  -31.6609   25.0652 C   0  0  0  0  0  0
  -25.3713  -31.3681   26.1414 C   0  0  0  0  0  0
  -27.0191  -30.3071   24.5932 C   0  0  0  0  0  0
  -27.5995  -32.4296   25.7427 C   0  0  0  0  0  0
  -27.5591  -37.1814   24.8457 C   0  0  0  0  0  0
  -21.4112  -29.3084   22.3678 N   0  0  0  0  0  0
  -26.4321  -37.3796   23.9376 N   0  0  0  0  0  0
  -24.6657  -31.0797   22.0950 N   0  0  0  0  0  0
  -23.4173  -28.8405   23.3158 O   0  0  0  0  0  0
  -28.3905  -26.7187   20.0401 O   0  0  0  0  0  0
  -26.5624  -34.8965   22.4707 O   0  0  0  0  0  0
  -23.5336  -32.1444   23.7411 O   0  0  0  0  0  0
  -30.9595  -17.4232   22.2678 C   0  0  0  0  0  0
  -31.9949  -18.4050   22.2932 C   0  0  0  0  0  0
  -29.6180  -17.8790   22.0692 C   0  0  0  0  0  0
  -29.3838  -19.2726   21.9562 C   0  0  0  0  0  0
  -31.6406  -19.7665   22.1902 C   0  0  0  0  0  0
  -33.4686  -18.0370   22.4752 C   0  0  0  0  0  0
  -31.2939  -15.9554   22.6049 C   0  0  0  0  0  0
  -27.9807  -19.8764   21.7900 C   0  0  0  0  0  0
  -28.3884  -23.7038   22.2464 C   0  0  0  0  0  0
  -29.0239  -24.8824   21.4684 C   0  0  0  0  0  0
  -28.2989  -22.3706   21.4712 C   0  0  0  0  0  0
  -28.3077  -25.2917   20.1733 C   0  0  0  0  0  0
  -30.3761  -20.1775   22.0436 N   0  0  0  0  0  0
  -30.5456  -14.9004   21.9268 N   0  0  0  0  0  0
  -27.8781  -21.2503   22.3473 N   0  3  0  0  0  0
  -28.2633  -16.7950   22.0348 Cl  0  0  0  0  0  0
  -32.8096  -21.0316   22.2878 Cl  0  0  0  0  0  0
  -31.4716  -12.3986   19.0946 H   0  0  0  0  0  0
  -30.3112  -11.2820   19.7371 H   0  0  0  0  0  0
  -29.7481  -11.8982   17.3637 H   0  0  0  0  0  0
  -29.6493  -13.5821   17.8251 H   0  0  0  0  0  0
  -27.8737  -11.3144   18.8077 H   0  0  0  0  0  0
  -27.3642  -12.6303   17.7802 H   0  0  0  0  0  0
  -27.7182  -14.2569   19.5820 H   0  0  0  0  0  0
  -28.6648  -11.9421   21.3433 H   0  0  0  0  0  0
  -28.4446  -13.5885   21.8554 H   0  0  0  0  0  0
  -25.2749   -9.5716   22.4735 H   0  0  0  0  0  0
  -23.9992   -7.4686   22.7514 H   0  0  0  0  0  0
  -21.0829   -8.8774   19.8997 H   0  0  0  0  0  0
  -22.3678  -10.9644   19.6148 H   0  0  0  0  0  0
  -21.2056   -7.6158   23.9715 H   0  0  0  0  0  0
  -21.1431   -6.0531   25.9072 H   0  0  0  0  0  0
  -22.0619   -2.7619   23.2876 H   0  0  0  0  0  0
  -22.4109  -11.9824   22.4739 H   0  0  0  0  0  0
  -21.1151  -13.1253   22.2489 H   0  0  0  0  0  0
  -24.6603  -15.8151   20.6494 H   0  0  0  0  0  0
  -26.3165  -15.6655   20.3358 H   0  0  0  0  0  0
  -26.7073  -32.5562   23.1108 H   0  0  0  0  0  0
  -24.9804  -33.9797   25.0293 H   0  0  0  0  0  0
  -22.6921  -31.3115   21.4066 H   0  0  0  0  0  0
  -23.3722  -35.9710   23.3308 H   0  0  0  0  0  0
  -24.3577  -36.8960   22.2039 H   0  0  0  0  0  0
  -23.7272  -37.6580   23.6673 H   0  0  0  0  0  0
  -26.0050  -31.5894   20.5669 H   0  0  0  0  0  0
  -26.8204  -30.9086   21.9481 H   0  0  0  0  0  0
  -28.0763  -29.0718   21.1783 H   0  0  0  0  0  0
  -26.0221  -26.0105   18.9159 H   0  0  0  0  0  0
  -23.9660  -27.3373   18.9767 H   0  0  0  0  0  0
  -23.6837  -30.5858   19.3850 H   0  0  0  0  0  0
  -22.7190  -29.2340   19.8897 H   0  0  0  0  0  0
  -25.1289  -36.1974   25.0816 H   0  0  0  0  0  0
  -20.9930  -28.3493   24.1561 H   0  0  0  0  0  0
  -20.5314  -26.2452   23.3711 H   0  0  0  0  0  0
  -21.6689  -26.7337   22.1602 H   0  0  0  0  0  0
  -19.7369  -25.7124   21.0406 H   0  0  0  0  0  0
  -19.6890  -27.4312   20.7055 H   0  0  0  0  0  0
  -17.4359  -26.6411   21.4097 H   0  0  0  0  0  0
  -18.1023  -26.0075   22.9033 H   0  0  0  0  0  0
  -19.7735  -30.7462   24.2308 H   0  0  0  0  0  0
  -17.4770  -31.6319   24.4973 H   0  0  0  0  0  0
  -15.5224  -30.2956   23.7282 H   0  0  0  0  0  0
  -15.8743  -28.0901   22.6529 H   0  0  0  0  0  0
  -24.5921  -30.6963   25.7795 H   0  0  0  0  0  0
  -24.8855  -32.2800   26.4892 H   0  0  0  0  0  0
  -25.8110  -30.8873   27.0155 H   0  0  0  0  0  0
  -26.2660  -29.6894   24.1017 H   0  0  0  0  0  0
  -27.4009  -29.7232   25.4307 H   0  0  0  0  0  0
  -27.8482  -30.4389   23.8972 H   0  0  0  0  0  0
  -27.2616  -33.3589   26.2026 H   0  0  0  0  0  0
  -28.3822  -32.6856   25.0276 H   0  0  0  0  0  0
  -28.0649  -31.8396   26.5329 H   0  0  0  0  0  0
  -28.2610  -38.0101   24.7475 H   0  0  0  0  0  0
  -28.1070  -36.2624   24.6321 H   0  0  0  0  0  0
  -27.2283  -37.1503   25.8852 H   0  0  0  0  0  0
  -20.9315  -29.8514   21.6614 H   0  0  0  0  0  0
  -26.0202  -38.2880   24.1355 H   0  0  0  0  0  0
  -33.7555  -17.1828   21.8654 H   0  0  0  0  0  0
  -33.6856  -17.8031   23.5200 H   0  0  0  0  0  0
  -34.1496  -18.8311   22.1637 H   0  0  0  0  0  0
  -31.0889  -15.8596   23.6712 H   0  0  0  0  0  0
  -32.3508  -15.7153   22.5194 H   0  0  0  0  0  0
  -27.2621  -19.2769   22.3461 H   0  0  0  0  0  0
  -27.6749  -19.8300   20.7438 H   0  0  0  0  0  0
  -28.9893  -23.5588   23.1483 H   0  0  0  0  0  0
  -27.3896  -23.9769   22.5867 H   0  0  0  0  0  0
  -30.0697  -24.6694   21.2495 H   0  0  0  0  0  0
  -29.0353  -25.7508   22.1285 H   0  0  0  0  0  0
  -29.2726  -22.1680   21.0296 H   0  0  0  0  0  0
  -27.5958  -22.4577   20.6433 H   0  0  0  0  0  0
  -27.2902  -24.9021   20.1983 H   0  0  0  0  0  0
  -28.7918  -24.8205   19.3153 H   0  0  0  0  0  0
  -29.7767  -14.5092   22.4443 H   0  0  0  0  0  0
  -26.9249  -21.4051   22.6377 H   0  0  0  0  0  0
  -28.4742  -21.2483   23.1564 H   0  0  0  0  0  0
  1 25  1  0  0  0
  1 30  2  0  0  0
  1 84  1  0  0  0
  2  3  1  0  0  0
  2 25  1  0  0  0
  2 88  1  0  0  0
  2 89  1  0  0  0
  3  4  1  0  0  0
  3 90  1  0  0  0
  3 91  1  0  0  0
  4  5  1  0  0  0
  4 92  1  0  0  0
  4 93  1  0  0  0
  5  6  1  0  0  0
  5 26  1  0  0  0
  5 94  1  0  0  0
  6 25  1  0  0  0
  6 95  1  0  0  0
  6 96  1  0  0  0
  7  8  2  0  0  0
  7 26  1  0  0  0
  7 29  1  0  0  0
  8  9  1  0  0  0
  8 22  1  0  0  0
  9 10  1  0  0  0
  9 27  2  0  0  0
 10 11  2  0  0  0
 10 15  1  0  0  0
 11 12  1  0  0  0
 11 97  1  0  0  0
 12 13  2  0  0  0
 12 98  1  0  0  0
 13 14  1  0  0  0
 13 31  1  0  0  0
 14 15  2  0  0  0
 14 99  1  0  0  0
 15100  1  0  0  0
 16 17  2  0  0  0
 16 21  1  0  0  0
 16 31  1  0  0  0
 17 18  1  0  0  0
 17101  1  0  0  0
 18 19  2  0  0  0
 18102  1  0  0  0
 19 20  1  0  0  0
 19 24  1  0  0  0
 20 21  2  0  0  0
 20103  1  0  0  0
 21 23  1  0  0  0
 22 28  1  0  0  0
 22 32  2  0  0  0
 26 27  1  0  0  0
 28104  1  0  0  0
 28105  1  0  0  0
 29106  1  0  0  0
 29107  1  0  0  0
 33 34  1  0  0  0
 33 66  1  0  0  0
 33 70  2  0  0  0
 34 36  1  0  0  0
 34 59  1  0  0  0
 34108  1  0  0  0
 35 44  2  0  0  0
 35 45  1  0  0  0
 35 68  1  0  0  0
 36 56  1  0  0  0
 36109  1  0  0  0
 37 39  1  0  0  0
 37 47  1  0  0  0
 37 66  1  0  0  0
 37110  1  0  0  0
 38 43  2  0  0  0
 38 46  1  0  0  0
 38 47  1  0  0  0
 39 64  1  0  0  0
 39 67  2  0  0  0
 40 52  1  0  0  0
 40 53  2  0  0  0
 40 58  1  0  0  0
 41111  1  0  0  0
 41112  1  0  0  0
 41113  1  0  0  0
 41 48  1  0  0  0
 42 43  1  0  0  0
 42 66  1  0  0  0
 42114  1  0  0  0
 42115  1  0  0  0
 43 44  1  0  0  0
 44116  1  0  0  0
 45 46  2  0  0  0
 45117  1  0  0  0
 46118  1  0  0  0
 47119  1  0  0  0
 47120  1  0  0  0
 48 56  1  0  0  0
 48 65  1  0  0  0
 48121  1  0  0  0
 49 50  1  0  0  0
 49 53  1  0  0  0
 49 64  1  0  0  0
 49122  1  0  0  0
 50 51  1  0  0  0
 50123  1  0  0  0
 50124  1  0  0  0
 51 52  1  0  0  0
 51125  1  0  0  0
 51126  1  0  0  0
 52127  1  0  0  0
 52128  1  0  0  0
 53 54  1  0  0  0
 54 55  2  0  0  0
 54129  1  0  0  0
 55 57  1  0  0  0
 55130  1  0  0  0
 56 69  2  0  0  0
 57 58  2  0  0  0
 57131  1  0  0  0
 58132  1  0  0  0
 59 60  1  0  0  0
 59 61  1  0  0  0
 59 62  1  0  0  0
 60133  1  0  0  0
 60134  1  0  0  0
 60135  1  0  0  0
 61136  1  0  0  0
 61137  1  0  0  0
 61138  1  0  0  0
 62139  1  0  0  0
 62140  1  0  0  0
 62141  1  0  0  0
 63 65  1  0  0  0
 63142  1  0  0  0
 63143  1  0  0  0
 63144  1  0  0  0
 64145  1  0  0  0
 65146  1  0  0  0
 68 82  1  0  0  0
 71 72  2  0  0  0
 71 73  1  0  0  0
 71 77  1  0  0  0
 72 75  1  0  0  0
 72 76  1  0  0  0
 73 74  2  0  0  0
 73 86  1  0  0  0
 74 78  1  0  0  0
 74 83  1  0  0  0
 75 83  2  0  0  0
 75 87  1  0  0  0
 76147  1  0  0  0
 76148  1  0  0  0
 76149  1  0  0  0
 77 84  1  0  0  0
 77150  1  0  0  0
 77151  1  0  0  0
 78 85  1  0  0  0
 78152  1  0  0  0
 78153  1  0  0  0
 79 80  1  0  0  0
 79 81  1  0  0  0
 79154  1  0  0  0
 79155  1  0  0  0
 80 82  1  0  0  0
 80156  1  0  0  0
 80157  1  0  0  0
 81 85  1  0  0  0
 81158  1  0  0  0
 81159  1  0  0  0
 82160  1  0  0  0
 82161  1  0  0  0
 84162  1  0  0  0
 85163  1  0  0  0
 85164  1  0  0  0
M  CHG  1  85   1
M  ISO  4   1 100  68 101  82 101  84 100
M  END
> <chiral flag>
0

> <version>
0

> <s_m_source_file>
/data/baiqing/PycharmProjects/Reinvent-master-3.2/result/LINK_invent/BTK/process_docking_weight1_custom_sum_contain_oxygen_bond_distance_aromatic_linkinvent_7_9_3/rearranged_h_0023.sdf

> <i_m_source_file_index>
49

> <r_mmod_Potential_Energy-OPLS-2005>
-518.604675292969

> <r_mmod_Stretch_Energy-OPLS-2005>
38.5118751525879

> <r_mmod_Bend_Energy-OPLS-2005>
106.504951477051

> <r_mmod_Torsional_Energy-OPLS-2005>
214.554550170898

> <r_mmod_Improper_Torsional_Energy-OPLS-2005>
4.23973989486694

> <r_mmod_Van_der_Waal_Energy-OPLS-2005>
173.263442993164

> <r_mmod_Electrostatic_Energy-OPLS-2005>
-604.5732421875

> <r_mmod_Solvation_Energy-OPLS-2005>
-462.312042236328

> <b_mmod_Minimization_Converged-OPLS-2005>
0

> <r_mmod_RMS_Derivative-OPLS-2005>
7.32311677932739

$$$$
49
                    3D
 Structure written by MMmdl.
180188  0  0  1  0            999 V2000
  -30.7754  -14.2995   20.6939 C   0  0  0  0  0  0
  -30.3958  -12.2742   19.3461 C   0  0  0  0  0  0
  -29.4520  -12.5550   18.1671 C   0  0  0  0  0  0
  -27.9829  -12.4038   18.5958 C   0  0  0  0  0  0
  -27.6624  -13.2048   19.8850 C   0  0  2  0  0  0
  -28.7028  -12.9083   20.9857 C   0  0  0  0  0  0
  -25.2588  -13.8168   20.5708 C   0  0  0  0  0  0
  -24.1838  -13.0425   20.9163 C   0  0  0  0  0  0
  -24.6384  -11.6879   20.8714 C   0  0  0  0  0  0
  -23.9052  -10.4260   21.0383 C   0  0  0  0  0  0
  -24.3592   -9.4178   21.9168 C   0  0  0  0  0  0
  -23.6270   -8.2224   22.0765 C   0  0  0  0  0  0
  -22.4270   -8.0242   21.3545 C   0  0  0  0  0  0
  -21.9879   -9.0213   20.4657 C   0  0  0  0  0  0
  -22.7198  -10.2100   20.3058 C   0  0  0  0  0  0
  -21.6860   -6.0703   22.5255 C   0  0  0  0  0  0
  -21.4028   -6.5625   23.8182 C   0  0  0  0  0  0
  -21.3670   -5.6785   24.9142 C   0  0  0  0  0  0
  -21.6058   -4.3052   24.7209 C   0  0  0  0  0  0
  -21.8827   -3.8130   23.4338 C   0  0  0  0  0  0
  -21.9201   -4.6936   22.3373 C   0  0  0  0  0  0
  -22.7856  -13.5214   21.1784 C   0  0  0  0  0  0
  -22.1663   -4.2118   21.0951 F   0  0  0  0  0  0
  -21.5619   -3.4531   25.7737 F   0  0  0  0  0  0
  -30.0494  -13.1859   20.4471 N   0  0  0  0  0  0
  -26.3041  -12.9327   20.3477 N   0  0  0  0  0  0
  -25.9323  -11.6478   20.5798 N   0  0  0  0  0  0
  -22.0500  -12.8198   22.0364 N   0  0  0  0  0  0
  -25.4312  -15.1859   20.4109 N   0  0  0  0  0  0
  -31.7080  -14.6695   19.9719 O   0  0  0  0  0  0
  -21.6645   -6.8844   21.4218 O   0  0  0  0  0  0
  -22.3499  -14.5476   20.6602 O   0  0  0  0  0  0
  -24.6186  -31.8665   23.2027 C   0  0  0  0  0  0
  -25.9036  -32.4818   23.8368 C   0  0  1  0  0  0
  -27.2391  -27.4034   20.1250 C   0  0  0  0  0  0
  -25.5858  -33.8624   24.2331 N   0  0  0  0  0  0
  -23.4091  -30.4856   21.5432 C   0  0  2  0  0  0
  -24.8565  -28.9456   20.1133 C   0  0  0  0  0  0
  -22.7445  -29.4643   22.4961 C   0  0  0  0  0  0
  -18.0267  -28.1395   22.8451 C   0  0  0  0  0  0
  -24.1467  -36.7305   23.2646 C   0  0  0  0  0  0
  -25.9352  -30.8318   21.3511 C   0  0  0  0  0  0
  -26.0130  -29.4589   20.7106 C   0  0  0  0  0  0
  -27.2051  -28.6942   20.7082 C   0  0  0  0  0  0
  -26.0656  -26.9119   19.5125 C   0  0  0  0  0  0
  -24.8826  -27.6770   19.5102 C   0  0  0  0  0  0
  -23.6167  -29.8116   20.1600 C   0  0  0  0  0  0
  -25.4076  -36.3119   24.0364 C   0  0  1  0  0  0
  -20.5863  -28.3664   23.1334 C   0  0  2  0  0  0
  -20.6748  -26.9392   22.5451 C   0  0  0  0  0  0
  -19.5731  -26.6390   21.5238 C   0  0  0  0  0  0
  -18.1901  -26.7921   22.1617 C   0  0  0  0  0  0
  -19.1521  -28.8834   23.2893 C   0  0  0  0  0  0
  -18.9447  -30.1422   23.8913 C   0  0  0  0  0  0
  -17.6457  -30.6597   24.0542 C   0  0  0  0  0  0
  -25.9029  -34.9492   23.5156 C   0  0  0  0  0  0
  -16.5347  -29.9092   23.6331 C   0  0  0  0  0  0
  -16.7257  -28.6520   23.0335 C   0  0  0  0  0  0
  -26.4441  -31.6582   25.0687 C   0  0  0  0  0  0
  -25.3695  -31.3610   26.1410 C   0  0  0  0  0  0
  -27.0280  -30.3055   24.6021 C   0  0  0  0  0  0
  -27.6070  -32.4235   25.7413 C   0  0  0  0  0  0
  -27.5577  -37.1794   24.8464 C   0  0  0  0  0  0
  -21.4147  -29.3028   22.3713 N   0  0  0  0  0  0
  -26.4273  -37.3807   23.9450 N   0  0  0  0  0  0
  -24.6725  -31.0786   22.0897 N   0  0  0  0  0  0
  -23.4196  -28.8203   23.3019 O   0  0  0  0  0  0
  -28.4250  -26.6906   20.1884 O   0  0  0  0  0  0
  -26.5628  -34.8948   22.4742 O   0  0  0  0  0  0
  -23.5374  -32.1441   23.7381 O   0  0  0  0  0  0
  -28.4073  -19.8533   22.9730 C   0  0  0  0  0  0
  -30.4985  -17.3859   22.1259 C   0  0  0  0  0  0
  -30.8166  -19.5910   25.0889 C   0  0  0  0  0  0
  -30.6901  -20.5508   23.9167 C   0  0  0  0  0  0
  -30.9951  -18.2390   24.4113 C   0  0  0  0  0  0
  -29.9582  -19.7542   22.8168 C   0  0  1  0  0  0
  -32.6974  -15.9488   22.3790 C   0  0  0  0  0  0
  -26.1562  -22.9328   24.0832 C   0  0  0  0  0  0
  -25.2078  -20.7105   23.4505 C   0  0  0  0  0  0
  -26.8296  -20.9085   25.3438 C   0  0  0  0  0  0
  -28.4181  -22.8802   20.9681 C   0  0  0  0  0  0
  -27.8555  -24.3376   20.9829 C   0  0  0  0  0  0
  -27.4665  -21.7669   21.5007 C   0  0  0  0  0  0
  -28.4823  -25.2764   19.9088 C   0  0  0  0  0  0
  -27.7276  -21.2635   22.9580 C   0  0  1  0  0  0
  -31.1525  -16.0242   22.5032 C   0  0  2  0  0  0
  -26.4924  -21.4315   23.9279 C   0  0  0  0  0  0
  -30.4572  -18.3760   23.0514 N   0  0  0  0  0  0
  -30.4928  -14.8858   21.8620 N   0  0  0  0  0  0
  -27.7123  -18.8400   23.1018 O   0  0  0  0  0  0
  -30.0579  -17.5466   20.9835 O   0  0  0  0  0  0
  -31.4342  -12.3769   19.0287 H   0  0  0  0  0  0
  -30.2909  -11.2377   19.6660 H   0  0  0  0  0  0
  -29.6669  -11.8833   17.3358 H   0  0  0  0  0  0
  -29.6207  -13.5646   17.7913 H   0  0  0  0  0  0
  -27.7847  -11.3401   18.7509 H   0  0  0  0  0  0
  -27.3224  -12.7216   17.7855 H   0  0  0  0  0  0
  -27.7308  -14.2663   19.6404 H   0  0  0  0  0  0
  -28.6491  -11.8575   21.2783 H   0  0  0  0  0  0
  -28.4570  -13.4777   21.8801 H   0  0  0  0  0  0
  -25.2747   -9.5652   22.4728 H   0  0  0  0  0  0
  -23.9977   -7.4634   22.7496 H   0  0  0  0  0  0
  -21.0829   -8.8688   19.8974 H   0  0  0  0  0  0
  -22.3640  -10.9601   19.6152 H   0  0  0  0  0  0
  -21.2032   -7.6134   23.9672 H   0  0  0  0  0  0
  -21.1502   -6.0516   25.9048 H   0  0  0  0  0  0
  -22.0622   -2.7587   23.2826 H   0  0  0  0  0  0
  -22.4168  -11.9904   22.4767 H   0  0  0  0  0  0
  -21.1130  -13.1239   22.2573 H   0  0  0  0  0  0
  -24.6685  -15.8435   20.5362 H   0  0  0  0  0  0
  -26.2987  -15.6236   20.1227 H   0  0  0  0  0  0
  -26.7107  -32.5521   23.1140 H   0  0  0  0  0  0
  -24.9869  -33.9758   25.0372 H   0  0  0  0  0  0
  -22.7023  -31.3018   21.3915 H   0  0  0  0  0  0
  -23.3769  -35.9601   23.3300 H   0  0  0  0  0  0
  -24.3554  -36.8948   22.2068 H   0  0  0  0  0  0
  -23.7212  -37.6505   23.6655 H   0  0  0  0  0  0
  -26.0374  -31.5822   20.5662 H   0  0  0  0  0  0
  -26.8298  -30.9042   21.9558 H   0  0  0  0  0  0
  -28.0995  -29.0784   21.1767 H   0  0  0  0  0  0
  -26.0379  -25.9394   19.0431 H   0  0  0  0  0  0
  -23.9912  -27.2791   19.0499 H   0  0  0  0  0  0
  -23.7090  -30.5776   19.3884 H   0  0  0  0  0  0
  -22.7442  -29.2217   19.8746 H   0  0  0  0  0  0
  -25.1249  -36.1996   25.0863 H   0  0  0  0  0  0
  -20.9939  -28.3223   24.1461 H   0  0  0  0  0  0
  -20.5689  -26.2234   23.3617 H   0  0  0  0  0  0
  -21.6606  -26.7444   22.1216 H   0  0  0  0  0  0
  -19.6925  -25.6324   21.1216 H   0  0  0  0  0  0
  -19.6718  -27.3205   20.6780 H   0  0  0  0  0  0
  -17.4191  -26.6666   21.4019 H   0  0  0  0  0  0
  -18.0290  -26.0100   22.9040 H   0  0  0  0  0  0
  -19.7940  -30.7197   24.2356 H   0  0  0  0  0  0
  -17.5032  -31.6281   24.5101 H   0  0  0  0  0  0
  -15.5358  -30.3002   23.7669 H   0  0  0  0  0  0
  -15.8636  -28.0844   22.7086 H   0  0  0  0  0  0
  -24.5930  -30.6911   25.7708 H   0  0  0  0  0  0
  -24.8739  -32.2677   26.4883 H   0  0  0  0  0  0
  -25.8020  -30.8773   27.0177 H   0  0  0  0  0  0
  -26.2830  -29.6781   24.1127 H   0  0  0  0  0  0
  -27.4169  -29.7306   25.4437 H   0  0  0  0  0  0
  -27.8577  -30.4413   23.9086 H   0  0  0  0  0  0
  -27.2846  -33.3589   26.1979 H   0  0  0  0  0  0
  -28.3874  -32.6710   25.0208 H   0  0  0  0  0  0
  -28.0735  -31.8328   26.5305 H   0  0  0  0  0  0
  -28.2586  -38.0096   24.7563 H   0  0  0  0  0  0
  -28.1102  -36.2662   24.6227 H   0  0  0  0  0  0
  -27.2301  -37.1362   25.8860 H   0  0  0  0  0  0
  -20.9338  -29.8732   21.6886 H   0  0  0  0  0  0
  -26.0193  -38.2908   24.1439 H   0  0  0  0  0  0
  -29.9068  -19.5981   25.6926 H   0  0  0  0  0  0
  -31.6525  -19.8242   25.7509 H   0  0  0  0  0  0
  -31.6936  -20.7846   23.5578 H   0  0  0  0  0  0
  -30.2358  -21.4967   24.2060 H   0  0  0  0  0  0
  -30.4701  -17.4636   24.9721 H   0  0  0  0  0  0
  -32.0557  -17.9898   24.3789 H   0  0  0  0  0  0
  -30.2414  -20.1115   21.8245 H   0  0  0  0  0  0
  -33.2126  -16.6183   23.0622 H   0  0  0  0  0  0
  -33.0398  -16.2099   21.3772 H   0  0  0  0  0  0
  -33.0556  -14.9386   22.5912 H   0  0  0  0  0  0
  -25.2834  -23.0801   24.7228 H   0  0  0  0  0  0
  -25.9227  -23.4123   23.1328 H   0  0  0  0  0  0
  -26.9798  -23.4853   24.5361 H   0  0  0  0  0  0
  -24.4080  -20.8213   24.1843 H   0  0  0  0  0  0
  -25.3520  -19.6399   23.3093 H   0  0  0  0  0  0
  -24.8220  -21.1167   22.5160 H   0  0  0  0  0  0
  -26.1310  -21.2831   26.0939 H   0  0  0  0  0  0
  -27.8304  -21.2027   25.6575 H   0  0  0  0  0  0
  -26.7791  -19.8213   25.3940 H   0  0  0  0  0  0
  -29.3719  -22.8420   21.4991 H   0  0  0  0  0  0
  -28.6602  -22.6213   19.9357 H   0  0  0  0  0  0
  -27.9945  -24.7669   21.9748 H   0  0  0  0  0  0
  -26.7805  -24.3250   20.8151 H   0  0  0  0  0  0
  -27.5515  -20.9149   20.8236 H   0  0  0  0  0  0
  -26.4331  -22.0800   21.3663 H   0  0  0  0  0  0
  -28.0744  -25.0626   18.9222 H   0  0  0  0  0  0
  -29.5461  -25.0441   19.8290 H   0  0  0  0  0  0
  -28.4639  -21.9462   23.3681 H   0  0  0  0  0  0
  -30.9229  -15.8334   23.5500 H   0  0  0  0  0  0
  -29.7605  -14.4457   22.3981 H   0  0  0  0  0  0
  1 25  1  0  0  0
  1 30  2  0  0  0
  1 89  1  0  0  0
  2  3  1  0  0  0
  2 25  1  0  0  0
  2 92  1  0  0  0
  2 93  1  0  0  0
  3  4  1  0  0  0
  3 94  1  0  0  0
  3 95  1  0  0  0
  4  5  1  0  0  0
  4 96  1  0  0  0
  4 97  1  0  0  0
  5  6  1  0  0  0
  5 26  1  0  0  0
  5 98  1  0  0  0
  6 25  1  0  0  0
  6 99  1  0  0  0
  6100  1  0  0  0
  7  8  2  0  0  0
  7 26  1  0  0  0
  7 29  1  0  0  0
  8  9  1  0  0  0
  8 22  1  0  0  0
  9 10  1  0  0  0
  9 27  2  0  0  0
 10 11  2  0  0  0
 10 15  1  0  0  0
 11 12  1  0  0  0
 11101  1  0  0  0
 12 13  2  0  0  0
 12102  1  0  0  0
 13 14  1  0  0  0
 13 31  1  0  0  0
 14 15  2  0  0  0
 14103  1  0  0  0
 15104  1  0  0  0
 16 17  2  0  0  0
 16 21  1  0  0  0
 16 31  1  0  0  0
 17 18  1  0  0  0
 17105  1  0  0  0
 18 19  2  0  0  0
 18106  1  0  0  0
 19 20  1  0  0  0
 19 24  1  0  0  0
 20 21  2  0  0  0
 20107  1  0  0  0
 21 23  1  0  0  0
 22 28  1  0  0  0
 22 32  2  0  0  0
 26 27  1  0  0  0
 28108  1  0  0  0
 28109  1  0  0  0
 29110  1  0  0  0
 29111  1  0  0  0
 33 34  1  0  0  0
 33 66  1  0  0  0
 33 70  2  0  0  0
 34 36  1  0  0  0
 34 59  1  0  0  0
 34112  1  0  0  0
 35 44  2  0  0  0
 35 45  1  0  0  0
 35 68  1  0  0  0
 36 56  1  0  0  0
 36113  1  0  0  0
 37 39  1  0  0  0
 37 47  1  0  0  0
 37 66  1  0  0  0
 37114  1  0  0  0
 38 43  2  0  0  0
 38 46  1  0  0  0
 38 47  1  0  0  0
 39 64  1  0  0  0
 39 67  2  0  0  0
 40 52  1  0  0  0
 40 53  2  0  0  0
 40 58  1  0  0  0
 41115  1  0  0  0
 41116  1  0  0  0
 41117  1  0  0  0
 41 48  1  0  0  0
 42 43  1  0  0  0
 42 66  1  0  0  0
 42118  1  0  0  0
 42119  1  0  0  0
 43 44  1  0  0  0
 44120  1  0  0  0
 45 46  2  0  0  0
 45121  1  0  0  0
 46122  1  0  0  0
 47123  1  0  0  0
 47124  1  0  0  0
 48 56  1  0  0  0
 48 65  1  0  0  0
 48125  1  0  0  0
 49 50  1  0  0  0
 49 53  1  0  0  0
 49 64  1  0  0  0
 49126  1  0  0  0
 50 51  1  0  0  0
 50127  1  0  0  0
 50128  1  0  0  0
 51 52  1  0  0  0
 51129  1  0  0  0
 51130  1  0  0  0
 52131  1  0  0  0
 52132  1  0  0  0
 53 54  1  0  0  0
 54 55  2  0  0  0
 54133  1  0  0  0
 55 57  1  0  0  0
 55134  1  0  0  0
 56 69  2  0  0  0
 57 58  2  0  0  0
 57135  1  0  0  0
 58136  1  0  0  0
 59 60  1  0  0  0
 59 61  1  0  0  0
 59 62  1  0  0  0
 60137  1  0  0  0
 60138  1  0  0  0
 60139  1  0  0  0
 61140  1  0  0  0
 61141  1  0  0  0
 61142  1  0  0  0
 62143  1  0  0  0
 62144  1  0  0  0
 62145  1  0  0  0
 63 65  1  0  0  0
 63146  1  0  0  0
 63147  1  0  0  0
 63148  1  0  0  0
 64149  1  0  0  0
 65150  1  0  0  0
 68 84  1  0  0  0
 71 85  1  0  0  0
 71 90  2  0  0  0
 71 76  1  0  0  0
 72 86  1  0  0  0
 72 88  1  0  0  0
 72 91  2  0  0  0
 73 74  1  0  0  0
 73 75  1  0  0  0
 73151  1  0  0  0
 73152  1  0  0  0
 74 76  1  0  0  0
 74153  1  0  0  0
 74154  1  0  0  0
 75 88  1  0  0  0
 75155  1  0  0  0
 75156  1  0  0  0
 76 88  1  0  0  0
 76157  1  0  0  0
 77158  1  0  0  0
 77159  1  0  0  0
 77160  1  0  0  0
 77 86  1  0  0  0
 78161  1  0  0  0
 78162  1  0  0  0
 78163  1  0  0  0
 78 87  1  0  0  0
 79 87  1  0  0  0
 79164  1  0  0  0
 79165  1  0  0  0
 79166  1  0  0  0
 80 87  1  0  0  0
 80167  1  0  0  0
 80168  1  0  0  0
 80169  1  0  0  0
 81 82  1  0  0  0
 81 83  1  0  0  0
 81170  1  0  0  0
 81171  1  0  0  0
 82 84  1  0  0  0
 82172  1  0  0  0
 82173  1  0  0  0
 83174  1  0  0  0
 83175  1  0  0  0
 83 85  1  0  0  0
 84176  1  0  0  0
 84177  1  0  0  0
 85 87  1  0  0  0
 85178  1  0  0  0
 86 89  1  0  0  0
 86179  1  0  0  0
 89180  1  0  0  0
M  ISO  4   1 100  68 101  84 101  89 100
M  END
> <chiral flag>
0

> <version>
0

> <s_m_source_file>
/data/baiqing/PycharmProjects/Reinvent-master-3.2/result/LINK_invent/BTK/process_docking_weight1_custom_sum_contain_oxygen_bond_distance_aromatic_linkinvent_7_9_3/rearranged_h_0023.sdf

> <i_m_source_file_index>
50

> <r_mmod_Potential_Energy-OPLS-2005>
-5.99088144302368

> <r_mmod_Stretch_Energy-OPLS-2005>
50.1349067687988

> <r_mmod_Bend_Energy-OPLS-2005>
153.958511352539

> <r_mmod_Torsional_Energy-OPLS-2005>
223.614807128906

> <r_mmod_Improper_Torsional_Energy-OPLS-2005>
3.11568117141724

> <r_mmod_Van_der_Waal_Energy-OPLS-2005>
144.959503173828

> <r_mmod_Electrostatic_Energy-OPLS-2005>
-370.357086181641

> <r_mmod_Solvation_Energy-OPLS-2005>
-225.328948974609

> <b_mmod_Minimization_Converged-OPLS-2005>
0

> <r_mmod_RMS_Derivative-OPLS-2005>
6.23905611038208

$$$$
50
                    3D
 Structure written by MMmdl.
159167  0  0  1  0            999 V2000
  -30.6215  -14.6076   20.4892 C   0  0  0  0  0  0
  -30.4379  -12.3771   19.4238 C   0  0  0  0  0  0
  -29.5018  -12.5206   18.2031 C   0  0  0  0  0  0
  -28.0241  -12.3584   18.6201 C   0  0  0  0  0  0
  -27.6518  -13.2125   19.8601 C   0  0  2  0  0  0
  -28.7039  -13.0436   20.9822 C   0  0  0  0  0  0
  -25.2514  -13.8106   20.5710 C   0  0  0  0  0  0
  -24.1797  -13.0369   20.9216 C   0  0  0  0  0  0
  -24.6382  -11.6853   20.8743 C   0  0  0  0  0  0
  -23.9049  -10.4245   21.0400 C   0  0  0  0  0  0
  -24.3596   -9.4178   21.9190 C   0  0  0  0  0  0
  -23.6276   -8.2215   22.0762 C   0  0  0  0  0  0
  -22.4262   -8.0249   21.3537 C   0  0  0  0  0  0
  -21.9889   -9.0230   20.4648 C   0  0  0  0  0  0
  -22.7224  -10.2103   20.3045 C   0  0  0  0  0  0
  -21.6840   -6.0716   22.5283 C   0  0  0  0  0  0
  -21.4003   -6.5618   23.8211 C   0  0  0  0  0  0
  -21.3660   -5.6777   24.9177 C   0  0  0  0  0  0
  -21.6050   -4.3040   24.7226 C   0  0  0  0  0  0
  -21.8822   -3.8125   23.4347 C   0  0  0  0  0  0
  -21.9187   -4.6946   22.3404 C   0  0  0  0  0  0
  -22.7814  -13.5169   21.1873 C   0  0  0  0  0  0
  -22.1658   -4.2127   21.0987 F   0  0  0  0  0  0
  -21.5640   -3.4526   25.7742 F   0  0  0  0  0  0
  -30.0196  -13.3830   20.4154 N   0  0  0  0  0  0
  -26.2967  -12.9317   20.3298 N   0  0  0  0  0  0
  -25.9311  -11.6461   20.5731 N   0  0  0  0  0  0
  -22.0418  -12.8185   22.0415 N   0  0  0  0  0  0
  -25.4083  -15.1822   20.4190 N   0  0  0  0  0  0
  -31.7982  -14.7826   20.1592 O   0  0  0  0  0  0
  -21.6618   -6.8862   21.4243 O   0  0  0  0  0  0
  -22.3508  -14.5481   20.6717 O   0  0  0  0  0  0
  -24.6235  -31.8641   23.2053 C   0  0  0  0  0  0
  -25.9101  -32.4786   23.8361 C   0  0  1  0  0  0
  -27.2133  -27.3421   20.1083 C   0  0  0  0  0  0
  -25.5945  -33.8586   24.2308 N   0  0  0  0  0  0
  -23.4108  -30.4906   21.5513 C   0  0  2  0  0  0
  -24.8518  -28.9502   20.1115 C   0  0  0  0  0  0
  -22.7433  -29.4661   22.4982 C   0  0  0  0  0  0
  -18.0270  -28.1377   22.8475 C   0  0  0  0  0  0
  -24.1489  -36.7284   23.2640 C   0  0  0  0  0  0
  -25.9508  -30.8014   21.3705 C   0  0  0  0  0  0
  -26.0224  -29.4322   20.7105 C   0  0  0  0  0  0
  -27.2065  -28.6407   20.6992 C   0  0  0  0  0  0
  -26.0162  -26.9078   19.4887 C   0  0  0  0  0  0
  -24.8495  -27.6921   19.4936 C   0  0  0  0  0  0
  -23.6176  -29.8267   20.1659 C   0  0  0  0  0  0
  -25.4113  -36.3089   24.0339 C   0  0  1  0  0  0
  -20.5864  -28.3683   23.1292 C   0  0  2  0  0  0
  -20.6768  -26.9421   22.5400 C   0  0  0  0  0  0
  -19.5757  -26.6386   21.5199 C   0  0  0  0  0  0
  -18.1926  -26.7928   22.1597 C   0  0  0  0  0  0
  -19.1518  -28.8849   23.2870 C   0  0  0  0  0  0
  -18.9457  -30.1450   23.8878 C   0  0  0  0  0  0
  -17.6463  -30.6599   24.0543 C   0  0  0  0  0  0
  -25.9055  -34.9455   23.5120 C   0  0  0  0  0  0
  -16.5349  -29.9089   23.6337 C   0  0  0  0  0  0
  -16.7257  -28.6500   23.0368 C   0  0  0  0  0  0
  -26.4501  -31.6565   25.0705 C   0  0  0  0  0  0
  -25.3732  -31.3678   26.1423 C   0  0  0  0  0  0
  -27.0347  -30.2997   24.6125 C   0  0  0  0  0  0
  -27.6070  -32.4279   25.7487 C   0  0  0  0  0  0
  -27.5584  -37.1803   24.8467 C   0  0  0  0  0  0
  -21.4159  -29.3044   22.3705 N   0  0  0  0  0  0
  -26.4296  -37.3780   23.9410 N   0  0  0  0  0  0
  -24.6807  -31.0675   22.0992 N   0  0  0  0  0  0
  -23.4179  -28.8204   23.3047 O   0  0  0  0  0  0
  -28.3368  -26.5072   20.1564 O   0  0  0  0  0  0
  -26.5607  -34.8926   22.4677 O   0  0  0  0  0  0
  -23.5410  -32.1438   23.7413 O   0  0  0  0  0  0
  -29.0055  -19.2591   19.8424 C   0  0  0  0  0  0
  -30.9842  -17.8074   21.1947 C   0  0  0  0  0  0
  -30.0582  -19.9947   20.4371 C   0  0  0  0  0  0
  -29.9302  -17.0799   20.5916 C   0  0  0  0  0  0
  -28.9358  -17.8428   19.9236 C   0  0  0  0  0  0
  -31.0501  -19.2292   21.1238 C   0  0  0  0  0  0
  -30.9210  -21.7095   18.8409 C   0  0  0  0  0  0
  -28.0068  -22.0900   21.4407 C   0  0  0  0  0  0
  -29.2664  -24.0575   20.3768 C   0  0  0  0  0  0
  -28.1041  -25.0606   20.0151 C   0  0  0  0  0  0
  -30.2097  -21.5395   20.1943 C   0  0  1  0  0  0
  -28.9404  -22.4975   20.2833 C   0  0  1  0  0  0
  -29.7675  -15.6424   20.7238 N   0  0  0  0  0  0
  -27.6172  -17.0506   19.1453 Cl  0  0  0  0  0  0
  -32.4017  -19.9967   21.8816 Cl  0  0  0  0  0  0
  -31.4784  -12.5050   19.1203 H   0  0  0  0  0  0
  -30.3657  -11.3724   19.8440 H   0  0  0  0  0  0
  -29.7598  -11.7881   17.4378 H   0  0  0  0  0  0
  -29.6455  -13.5001   17.7429 H   0  0  0  0  0  0
  -27.8566  -11.3033   18.8377 H   0  0  0  0  0  0
  -27.3674  -12.6043   17.7844 H   0  0  0  0  0  0
  -27.6680  -14.2497   19.5290 H   0  0  0  0  0  0
  -28.7110  -12.0143   21.3464 H   0  0  0  0  0  0
  -28.4624  -13.6638   21.8471 H   0  0  0  0  0  0
  -25.2751   -9.5650   22.4751 H   0  0  0  0  0  0
  -23.9976   -7.4604   22.7479 H   0  0  0  0  0  0
  -21.0810   -8.8759   19.8966 H   0  0  0  0  0  0
  -22.3703  -10.9634   19.6127 H   0  0  0  0  0  0
  -21.1987   -7.6123   23.9711 H   0  0  0  0  0  0
  -21.1488   -6.0502   25.9084 H   0  0  0  0  0  0
  -22.0601   -2.7584   23.2849 H   0  0  0  0  0  0
  -22.3989  -11.9839   22.4821 H   0  0  0  0  0  0
  -21.1045  -13.1262   22.2593 H   0  0  0  0  0  0
  -24.6216  -15.8145   20.5204 H   0  0  0  0  0  0
  -26.2252  -15.6373   20.0279 H   0  0  0  0  0  0
  -26.7154  -32.5466   23.1098 H   0  0  0  0  0  0
  -25.0088  -33.9727   25.0451 H   0  0  0  0  0  0
  -22.7011  -31.3101   21.4163 H   0  0  0  0  0  0
  -23.3756  -35.9615   23.3321 H   0  0  0  0  0  0
  -24.3576  -36.8874   22.2048 H   0  0  0  0  0  0
  -23.7235  -37.6498   23.6628 H   0  0  0  0  0  0
  -26.0784  -31.5671   20.6042 H   0  0  0  0  0  0
  -26.8334  -30.8463   21.9968 H   0  0  0  0  0  0
  -28.1045  -29.0074   21.1765 H   0  0  0  0  0  0
  -25.9444  -25.9467   19.0024 H   0  0  0  0  0  0
  -23.9506  -27.3137   19.0256 H   0  0  0  0  0  0
  -23.7239  -30.6040   19.4085 H   0  0  0  0  0  0
  -22.7366  -29.2529   19.8725 H   0  0  0  0  0  0
  -25.1289  -36.1951   25.0835 H   0  0  0  0  0  0
  -20.9939  -28.3256   24.1417 H   0  0  0  0  0  0
  -20.5680  -26.2304   23.3589 H   0  0  0  0  0  0
  -21.6642  -26.7480   22.1195 H   0  0  0  0  0  0
  -19.6934  -25.6293   21.1239 H   0  0  0  0  0  0
  -19.6707  -27.3175   20.6708 H   0  0  0  0  0  0
  -17.4214  -26.6671   21.3980 H   0  0  0  0  0  0
  -18.0330  -26.0054   22.8978 H   0  0  0  0  0  0
  -19.7942  -30.7253   24.2238 H   0  0  0  0  0  0
  -17.5038  -31.6283   24.5134 H   0  0  0  0  0  0
  -15.5349  -30.2995   23.7688 H   0  0  0  0  0  0
  -15.8648  -28.0812   22.7118 H   0  0  0  0  0  0
  -24.5909  -30.7040   25.7723 H   0  0  0  0  0  0
  -24.8915  -32.2833   26.4861 H   0  0  0  0  0  0
  -25.8045  -30.8822   27.0183 H   0  0  0  0  0  0
  -26.2913  -29.6735   24.1173 H   0  0  0  0  0  0
  -27.4098  -29.7249   25.4604 H   0  0  0  0  0  0
  -27.8759  -30.4300   23.9311 H   0  0  0  0  0  0
  -27.2696  -33.3582   26.2068 H   0  0  0  0  0  0
  -28.3889  -32.6821   25.0319 H   0  0  0  0  0  0
  -28.0722  -31.8383   26.5398 H   0  0  0  0  0  0
  -28.2600  -38.0101   24.7522 H   0  0  0  0  0  0
  -28.1078  -36.2633   24.6281 H   0  0  0  0  0  0
  -27.2301  -37.1441   25.8869 H   0  0  0  0  0  0
  -20.9341  -29.8742   21.6893 H   0  0  0  0  0  0
  -26.0186  -38.2871   24.1364 H   0  0  0  0  0  0
  -28.2398  -19.7842   19.2913 H   0  0  0  0  0  0
  -31.7545  -17.2748   21.7323 H   0  0  0  0  0  0
  -31.8491  -21.1371   18.8165 H   0  0  0  0  0  0
  -31.1827  -22.7436   18.6270 H   0  0  0  0  0  0
  -30.2975  -21.3504   18.0210 H   0  0  0  0  0  0
  -27.0991  -22.6922   21.4542 H   0  0  0  0  0  0
  -28.4985  -22.2119   22.4060 H   0  0  0  0  0  0
  -27.6815  -21.0537   21.3670 H   0  0  0  0  0  0
  -29.6172  -24.2752   21.3853 H   0  0  0  0  0  0
  -30.1059  -24.2993   19.7276 H   0  0  0  0  0  0
  -27.2407  -24.7954   20.6265 H   0  0  0  0  0  0
  -27.8286  -24.8596   18.9788 H   0  0  0  0  0  0
  -30.8866  -21.9129   20.9610 H   0  0  0  0  0  0
  -28.3714  -22.3424   19.3645 H   0  0  0  0  0  0
  -28.8068  -15.3445   20.7934 H   0  0  0  0  0  0
  1 25  1  0  0  0
  1 30  2  0  0  0
  1 83  1  0  0  0
  2  3  1  0  0  0
  2 25  1  0  0  0
  2 86  1  0  0  0
  2 87  1  0  0  0
  3  4  1  0  0  0
  3 88  1  0  0  0
  3 89  1  0  0  0
  4  5  1  0  0  0
  4 90  1  0  0  0
  4 91  1  0  0  0
  5  6  1  0  0  0
  5 26  1  0  0  0
  5 92  1  0  0  0
  6 25  1  0  0  0
  6 93  1  0  0  0
  6 94  1  0  0  0
  7  8  2  0  0  0
  7 26  1  0  0  0
  7 29  1  0  0  0
  8  9  1  0  0  0
  8 22  1  0  0  0
  9 10  1  0  0  0
  9 27  2  0  0  0
 10 11  2  0  0  0
 10 15  1  0  0  0
 11 12  1  0  0  0
 11 95  1  0  0  0
 12 13  2  0  0  0
 12 96  1  0  0  0
 13 14  1  0  0  0
 13 31  1  0  0  0
 14 15  2  0  0  0
 14 97  1  0  0  0
 15 98  1  0  0  0
 16 17  2  0  0  0
 16 21  1  0  0  0
 16 31  1  0  0  0
 17 18  1  0  0  0
 17 99  1  0  0  0
 18 19  2  0  0  0
 18100  1  0  0  0
 19 20  1  0  0  0
 19 24  1  0  0  0
 20 21  2  0  0  0
 20101  1  0  0  0
 21 23  1  0  0  0
 22 28  1  0  0  0
 22 32  2  0  0  0
 26 27  1  0  0  0
 28102  1  0  0  0
 28103  1  0  0  0
 29104  1  0  0  0
 29105  1  0  0  0
 33 34  1  0  0  0
 33 66  1  0  0  0
 33 70  2  0  0  0
 34 36  1  0  0  0
 34 59  1  0  0  0
 34106  1  0  0  0
 35 44  2  0  0  0
 35 45  1  0  0  0
 35 68  1  0  0  0
 36 56  1  0  0  0
 36107  1  0  0  0
 37 39  1  0  0  0
 37 47  1  0  0  0
 37 66  1  0  0  0
 37108  1  0  0  0
 38 43  2  0  0  0
 38 46  1  0  0  0
 38 47  1  0  0  0
 39 64  1  0  0  0
 39 67  2  0  0  0
 40 52  1  0  0  0
 40 53  2  0  0  0
 40 58  1  0  0  0
 41109  1  0  0  0
 41110  1  0  0  0
 41111  1  0  0  0
 41 48  1  0  0  0
 42 43  1  0  0  0
 42 66  1  0  0  0
 42112  1  0  0  0
 42113  1  0  0  0
 43 44  1  0  0  0
 44114  1  0  0  0
 45 46  2  0  0  0
 45115  1  0  0  0
 46116  1  0  0  0
 47117  1  0  0  0
 47118  1  0  0  0
 48 56  1  0  0  0
 48 65  1  0  0  0
 48119  1  0  0  0
 49 50  1  0  0  0
 49 53  1  0  0  0
 49 64  1  0  0  0
 49120  1  0  0  0
 50 51  1  0  0  0
 50121  1  0  0  0
 50122  1  0  0  0
 51 52  1  0  0  0
 51123  1  0  0  0
 51124  1  0  0  0
 52125  1  0  0  0
 52126  1  0  0  0
 53 54  1  0  0  0
 54 55  2  0  0  0
 54127  1  0  0  0
 55 57  1  0  0  0
 55128  1  0  0  0
 56 69  2  0  0  0
 57 58  2  0  0  0
 57129  1  0  0  0
 58130  1  0  0  0
 59 60  1  0  0  0
 59 61  1  0  0  0
 59 62  1  0  0  0
 60131  1  0  0  0
 60132  1  0  0  0
 60133  1  0  0  0
 61134  1  0  0  0
 61135  1  0  0  0
 61136  1  0  0  0
 62137  1  0  0  0
 62138  1  0  0  0
 62139  1  0  0  0
 63 65  1  0  0  0
 63140  1  0  0  0
 63141  1  0  0  0
 63142  1  0  0  0
 64143  1  0  0  0
 65144  1  0  0  0
 68 80  1  0  0  0
 71 73  2  0  0  0
 71 75  1  0  0  0
 71145  1  0  0  0
 72 74  1  0  0  0
 72 76  2  0  0  0
 72146  1  0  0  0
 73 76  1  0  0  0
 73 81  1  0  0  0
 74 75  2  0  0  0
 74 83  1  0  0  0
 75 84  1  0  0  0
 76 85  1  0  0  0
 77147  1  0  0  0
 77148  1  0  0  0
 77149  1  0  0  0
 77 81  1  0  0  0
 78150  1  0  0  0
 78151  1  0  0  0
 78152  1  0  0  0
 78 82  1  0  0  0
 79 80  1  0  0  0
 79 82  1  0  0  0
 79153  1  0  0  0
 79154  1  0  0  0
 80155  1  0  0  0
 80156  1  0  0  0
 81 82  1  0  0  0
 81157  1  0  0  0
 82158  1  0  0  0
 83159  1  0  0  0
M  ISO  4   1 100  68 101  80 101  83 100
M  END
> <chiral flag>
0

> <version>
0

> <s_m_source_file>
/data/baiqing/PycharmProjects/Reinvent-master-3.2/result/LINK_invent/BTK/process_docking_weight1_custom_sum_contain_oxygen_bond_distance_aromatic_linkinvent_7_9_3/rearranged_h_0023.sdf

> <i_m_source_file_index>
51

> <r_mmod_Potential_Energy-OPLS-2005>
28.4502811431885

> <r_mmod_Stretch_Energy-OPLS-2005>
68.3990631103516

> <r_mmod_Bend_Energy-OPLS-2005>
125.858367919922

> <r_mmod_Torsional_Energy-OPLS-2005>
233.629440307617

> <r_mmod_Improper_Torsional_Energy-OPLS-2005>
7.22747993469238

> <r_mmod_Van_der_Waal_Energy-OPLS-2005>
146.843505859375

> <r_mmod_Electrostatic_Energy-OPLS-2005>
-401.908264160156

> <r_mmod_Solvation_Energy-OPLS-2005>
-192.252471923828

> <b_mmod_Minimization_Converged-OPLS-2005>
0

> <r_mmod_RMS_Derivative-OPLS-2005>
2.37698984146118

$$$$
51
                    3D
 Structure written by MMmdl.
198206  0  0  1  0            999 V2000
  -30.7287  -14.3692   20.5800 C   0  0  0  0  0  0
  -30.4122  -12.2459   19.4000 C   0  0  0  0  0  0
  -29.4862  -12.4975   18.1939 C   0  0  0  0  0  0
  -28.0056  -12.3776   18.6060 C   0  0  0  0  0  0
  -27.6676  -13.1965   19.8812 C   0  0  2  0  0  0
  -28.7066  -12.9293   20.9948 C   0  0  0  0  0  0
  -25.2617  -13.8146   20.5662 C   0  0  0  0  0  0
  -24.1851  -13.0435   20.9158 C   0  0  0  0  0  0
  -24.6386  -11.6899   20.8722 C   0  0  0  0  0  0
  -23.9051  -10.4292   21.0398 C   0  0  0  0  0  0
  -24.3614   -9.4210   21.9172 C   0  0  0  0  0  0
  -23.6294   -8.2245   22.0748 C   0  0  0  0  0  0
  -22.4272   -8.0281   21.3546 C   0  0  0  0  0  0
  -21.9903   -9.0250   20.4646 C   0  0  0  0  0  0
  -22.7225  -10.2131   20.3051 C   0  0  0  0  0  0
  -21.6848   -6.0738   22.5278 C   0  0  0  0  0  0
  -21.4014   -6.5642   23.8213 C   0  0  0  0  0  0
  -21.3662   -5.6794   24.9175 C   0  0  0  0  0  0
  -21.6040   -4.3055   24.7222 C   0  0  0  0  0  0
  -21.8823   -3.8149   23.4344 C   0  0  0  0  0  0
  -21.9195   -4.6968   22.3402 C   0  0  0  0  0  0
  -22.7878  -13.5244   21.1833 C   0  0  0  0  0  0
  -22.1662   -4.2156   21.0978 F   0  0  0  0  0  0
  -21.5631   -3.4537   25.7735 F   0  0  0  0  0  0
  -30.0470  -13.2074   20.4477 N   0  0  0  0  0  0
  -26.3051  -12.9296   20.3379 N   0  0  0  0  0  0
  -25.9310  -11.6462   20.5758 N   0  0  0  0  0  0
  -22.0521  -12.8237   22.0397 N   0  0  0  0  0  0
  -25.4340  -15.1862   20.4074 N   0  0  0  0  0  0
  -31.8343  -14.5766   20.0692 O   0  0  0  0  0  0
  -21.6638   -6.8878   21.4238 O   0  0  0  0  0  0
  -22.3563  -14.5550   20.6683 O   0  0  0  0  0  0
  -24.7019  -31.9927   23.1988 C   0  0  0  0  0  0
  -25.9873  -32.5279   23.8630 C   0  0  1  0  0  0
  -26.7806  -27.3465   20.3019 C   0  0  0  0  0  0
  -25.6746  -33.8981   24.2726 N   0  0  0  0  0  0
  -23.5010  -30.7093   21.5161 C   0  0  2  0  0  0
  -24.8352  -29.1581   19.9777 C   0  0  0  0  0  0
  -22.9767  -29.7610   22.5697 C   0  0  0  0  0  0
  -18.1588  -28.1755   22.6965 C   0  0  0  0  0  0
  -24.1527  -36.7394   23.2581 C   0  0  0  0  0  0
  -26.0122  -30.9010   21.3598 C   0  0  0  0  0  0
  -25.9905  -29.5498   20.6724 C   0  0  0  0  0  0
  -27.0664  -28.6494   20.7512 C   0  0  0  0  0  0
  -25.9741  -27.1679   19.1915 C   0  0  0  0  0  0
  -24.8503  -28.0087   19.1587 C   0  0  0  0  0  0
  -23.6279  -30.0444   20.1140 C   0  0  0  0  0  0
  -25.4142  -36.3291   24.0340 C   0  0  1  0  0  0
  -21.1808  -28.4677   23.2547 C   0  0  2  0  0  0
  -21.0861  -25.4350   21.9401 C   0  0  0  0  0  0
  -19.2799  -25.3257   21.4942 C   0  0  0  0  0  0
  -18.0272  -26.6165   21.8679 C   0  0  0  0  0  0
  -19.4001  -28.9808   23.2657 C   0  0  0  0  0  0
  -19.0674  -30.1895   23.9198 C   0  0  0  0  0  0
  -17.7412  -30.6481   24.0767 C   0  0  0  0  0  0
  -25.9226  -34.9726   23.5173 C   0  0  0  0  0  0
  -16.6472  -29.9069   23.6084 C   0  0  0  0  0  0
  -16.8622  -28.6937   22.9417 C   0  0  0  0  0  0
  -26.4702  -31.6649   25.0892 C   0  0  0  0  0  0
  -25.3700  -31.3782   26.1374 C   0  0  0  0  0  0
  -27.0351  -30.3031   24.6196 C   0  0  0  0  0  0
  -27.6256  -32.4088   25.7952 C   0  0  0  0  0  0
  -27.5617  -37.1933   24.8459 C   0  0  0  0  0  0
  -21.6879  -29.6212   22.5820 N   0  0  0  0  0  0
  -26.4297  -37.3996   23.9458 N   0  0  0  0  0  0
  -24.7616  -31.2526   22.0539 N   0  0  0  0  0  0
  -23.7117  -29.1522   23.3569 O   0  0  0  0  0  0
  -26.1904  -26.6339   21.3194 O   0  0  0  0  0  0
  -26.5444  -34.9120   22.4537 O   0  0  0  0  0  0
  -23.6177  -32.2787   23.7382 O   0  0  0  0  0  0
  -23.0912  -26.9006   22.0670 C   0  0  0  0  0  0
  -20.4052  -27.4618   21.4841 C   0  0  0  0  0  0
  -22.6999  -26.4323   23.5288 C   0  0  0  0  0  0
  -20.0254  -26.6163   23.4323 C   0  0  0  0  0  0
  -19.7573  -27.3936   18.9357 C   0  0  0  0  0  0
  -30.5673  -26.3082   22.5388 C   0  0  0  0  0  0
  -30.5812  -25.5800   25.5783 C   0  0  0  0  0  0
  -19.7024  -28.1680   20.2698 C   0  0  0  0  0  0
  -24.5776  -26.2657   21.4078 C   0  0  0  0  0  0
  -30.2508  -20.0377   22.9721 C   0  0  0  0  0  0
  -30.6549  -21.4402   22.5156 C   0  0  0  0  0  0
  -30.4101  -19.0702   21.8028 C   0  0  0  0  0  0
  -30.4714  -22.5173   23.5843 C   0  0  0  0  0  0
  -26.1761  -26.5497   26.0004 C   0  0  0  0  0  0
  -30.1087  -17.6147   22.1532 C   0  0  0  0  0  0
  -24.8825  -25.8962   26.5246 C   0  0  0  0  0  0
  -27.1936  -25.5233   25.4805 C   0  0  0  0  0  0
  -30.9948  -23.8789   23.0878 C   0  0  0  0  0  0
  -23.6399  -26.3467   25.7524 C   0  0  0  0  0  0
  -30.3016  -16.7634   20.9009 C   0  0  0  0  0  0
  -28.3522  -26.1805   24.7128 C   0  0  0  0  0  0
  -29.9851  -25.0408   23.1960 C   0  0  1  0  0  0
  -21.9743  -27.4598   21.1350 N   0  0  0  0  0  0
  -21.3322  -26.2609   24.1695 N   0  0  0  0  0  0
  -23.7261  -25.9577   24.3501 N   0  0  0  0  0  0
  -30.0344  -15.3557   21.1508 N   0  0  0  0  0  0
  -29.5149  -25.2621   24.5960 N   0  3  1  0  0  0
  -18.7282  -26.1324   24.5417 Cl  0  0  0  0  0  0
  -31.4583  -12.3280   19.0995 H   0  0  0  0  0  0
  -30.2893  -11.2276   19.7714 H   0  0  0  0  0  0
  -29.7103  -11.7888   17.3956 H   0  0  0  0  0  0
  -29.6765  -13.4896   17.7814 H   0  0  0  0  0  0
  -27.7925  -11.3215   18.7755 H   0  0  0  0  0  0
  -27.3622  -12.6852   17.7810 H   0  0  0  0  0  0
  -27.7293  -14.2509   19.6103 H   0  0  0  0  0  0
  -28.6576  -11.8870   21.3136 H   0  0  0  0  0  0
  -28.4806  -13.5123   21.8889 H   0  0  0  0  0  0
  -25.2765   -9.5686   22.4735 H   0  0  0  0  0  0
  -24.0011   -7.4634   22.7461 H   0  0  0  0  0  0
  -21.0838   -8.8767   19.8947 H   0  0  0  0  0  0
  -22.3685  -10.9670   19.6161 H   0  0  0  0  0  0
  -21.2002   -7.6148   23.9721 H   0  0  0  0  0  0
  -21.1480   -6.0519   25.9080 H   0  0  0  0  0  0
  -22.0597   -2.7610   23.2839 H   0  0  0  0  0  0
  -22.4142  -11.9901   22.4790 H   0  0  0  0  0  0
  -21.1140  -13.1261   22.2606 H   0  0  0  0  0  0
  -24.6671  -15.8415   20.5151 H   0  0  0  0  0  0
  -26.2912  -15.6273   20.0966 H   0  0  0  0  0  0
  -26.8131  -32.5882   23.1563 H   0  0  0  0  0  0
  -25.1203  -34.0122   25.1085 H   0  0  0  0  0  0
  -22.7905  -31.5349   21.4145 H   0  0  0  0  0  0
  -23.3844  -35.9669   23.3185 H   0  0  0  0  0  0
  -24.3660  -36.9052   22.2011 H   0  0  0  0  0  0
  -23.7189  -37.6559   23.6586 H   0  0  0  0  0  0
  -26.2161  -31.6676   20.6109 H   0  0  0  0  0  0
  -26.8777  -30.8807   22.0129 H   0  0  0  0  0  0
  -27.8663  -28.8382   21.4559 H   0  0  0  0  0  0
  -25.8966  -26.2021   18.7043 H   0  0  0  0  0  0
  -23.9986  -27.7576   18.5427 H   0  0  0  0  0  0
  -23.7355  -30.8332   19.3695 H   0  0  0  0  0  0
  -22.7167  -29.5177   19.8342 H   0  0  0  0  0  0
  -25.1265  -36.2143   25.0820 H   0  0  0  0  0  0
  -21.4948  -28.5826   24.3050 H   0  0  0  0  0  0
  -21.3010  -24.5525   22.5592 H   0  0  0  0  0  0
  -21.6395  -25.1717   21.0239 H   0  0  0  0  0  0
  -18.9229  -24.4301   22.0037 H   0  0  0  0  0  0
  -19.1958  -25.0182   20.4571 H   0  0  0  0  0  0
  -17.5191  -26.8188   20.9238 H   0  0  0  0  0  0
  -17.2279  -26.0833   22.3868 H   0  0  0  0  0  0
  -19.8672  -30.7792   24.3443 H   0  0  0  0  0  0
  -17.5622  -31.5780   24.5965 H   0  0  0  0  0  0
  -15.6395  -30.2670   23.7618 H   0  0  0  0  0  0
  -15.9970  -28.1432   22.6009 H   0  0  0  0  0  0
  -24.5824  -30.7360   25.7419 H   0  0  0  0  0  0
  -24.9015  -32.2969   26.4904 H   0  0  0  0  0  0
  -25.7789  -30.8696   27.0110 H   0  0  0  0  0  0
  -26.2901  -29.7062   24.0927 H   0  0  0  0  0  0
  -27.3701  -29.7044   25.4676 H   0  0  0  0  0  0
  -27.8980  -30.4250   23.9645 H   0  0  0  0  0  0
  -27.2937  -33.3336   26.2677 H   0  0  0  0  0  0
  -28.4220  -32.6679   25.0971 H   0  0  0  0  0  0
  -28.0713  -31.8000   26.5820 H   0  0  0  0  0  0
  -28.2552  -38.0315   24.7641 H   0  0  0  0  0  0
  -28.1210  -36.2863   24.6092 H   0  0  0  0  0  0
  -27.2382  -37.1356   25.8873 H   0  0  0  0  0  0
  -21.0925  -30.1347   21.9489 H   0  0  0  0  0  0
  -26.0157  -38.3037   24.1586 H   0  0  0  0  0  0
  -19.4028  -28.0263   18.1218 H   0  0  0  0  0  0
  -19.1225  -26.5092   18.9325 H   0  0  0  0  0  0
  -20.7742  -27.0873   18.6829 H   0  0  0  0  0  0
  -30.8223  -26.1102   21.4970 H   0  0  0  0  0  0
  -31.4818  -26.6373   23.0306 H   0  0  0  0  0  0
  -29.8633  -27.1390   22.5385 H   0  0  0  0  0  0
  -30.1548  -25.7115   26.5727 H   0  0  0  0  0  0
  -31.1056  -26.4995   25.3199 H   0  0  0  0  0  0
  -31.3133  -24.7771   25.6580 H   0  0  0  0  0  0
  -20.2713  -29.0828   20.1096 H   0  0  0  0  0  0
  -18.6999  -28.5592   20.4042 H   0  0  0  0  0  0
  -24.2682  -25.8424   20.4537 H   0  0  0  0  0  0
  -24.6644  -25.3441   21.9821 H   0  0  0  0  0  0
  -29.2174  -20.0307   23.3224 H   0  0  0  0  0  0
  -30.8744  -19.7189   23.8092 H   0  0  0  0  0  0
  -30.0667  -21.7153   21.6381 H   0  0  0  0  0  0
  -31.6975  -21.4222   22.1929 H   0  0  0  0  0  0
  -31.4306  -19.1374   21.4207 H   0  0  0  0  0  0
  -29.7586  -19.3840   20.9850 H   0  0  0  0  0  0
  -31.0051  -22.2318   24.4926 H   0  0  0  0  0  0
  -29.4159  -22.5697   23.8539 H   0  0  0  0  0  0
  -26.6351  -27.1318   26.8010 H   0  0  0  0  0  0
  -25.9461  -27.2733   25.2160 H   0  0  0  0  0  0
  -29.0893  -17.5161   22.5302 H   0  0  0  0  0  0
  -30.7795  -17.2756   22.9444 H   0  0  0  0  0  0
  -24.7507  -26.1509   27.5771 H   0  0  0  0  0  0
  -24.9529  -24.8066   26.4991 H   0  0  0  0  0  0
  -26.6990  -24.8043   24.8246 H   0  0  0  0  0  0
  -27.5709  -24.9522   26.3295 H   0  0  0  0  0  0
  -31.2785  -23.7909   22.0380 H   0  0  0  0  0  0
  -31.9302  -24.1216   23.5923 H   0  0  0  0  0  0
  -23.5278  -27.4309   25.8271 H   0  0  0  0  0  0
  -22.7549  -25.9079   26.2154 H   0  0  0  0  0  0
  -31.3119  -16.9212   20.5165 H   0  0  0  0  0  0
  -29.6225  -17.0954   20.1132 H   0  0  0  0  0  0
  -28.6580  -27.1055   25.2040 H   0  0  0  0  0  0
  -27.9814  -26.4802   23.7312 H   0  0  0  0  0  0
  -29.1104  -24.7477   22.6113 H   0  0  0  0  0  0
  -24.6531  -26.0708   23.9573 H   0  0  0  0  0  0
  -29.1400  -15.1097   21.5482 H   0  0  0  0  0  0
  -29.1555  -24.3638   24.8838 H   0  0  0  0  0  0
  1 25  1  0  0  0
  1 30  2  0  0  0
  1 96  1  0  0  0
  2  3  1  0  0  0
  2 25  1  0  0  0
  2 99  1  0  0  0
  2100  1  0  0  0
  3  4  1  0  0  0
  3101  1  0  0  0
  3102  1  0  0  0
  4  5  1  0  0  0
  4103  1  0  0  0
  4104  1  0  0  0
  5  6  1  0  0  0
  5 26  1  0  0  0
  5105  1  0  0  0
  6 25  1  0  0  0
  6106  1  0  0  0
  6107  1  0  0  0
  7  8  2  0  0  0
  7 26  1  0  0  0
  7 29  1  0  0  0
  8  9  1  0  0  0
  8 22  1  0  0  0
  9 10  1  0  0  0
  9 27  2  0  0  0
 10 11  2  0  0  0
 10 15  1  0  0  0
 11 12  1  0  0  0
 11108  1  0  0  0
 12 13  2  0  0  0
 12109  1  0  0  0
 13 14  1  0  0  0
 13 31  1  0  0  0
 14 15  2  0  0  0
 14110  1  0  0  0
 15111  1  0  0  0
 16 17  2  0  0  0
 16 21  1  0  0  0
 16 31  1  0  0  0
 17 18  1  0  0  0
 17112  1  0  0  0
 18 19  2  0  0  0
 18113  1  0  0  0
 19 20  1  0  0  0
 19 24  1  0  0  0
 20 21  2  0  0  0
 20114  1  0  0  0
 21 23  1  0  0  0
 22 28  1  0  0  0
 22 32  2  0  0  0
 26 27  1  0  0  0
 28115  1  0  0  0
 28116  1  0  0  0
 29117  1  0  0  0
 29118  1  0  0  0
 33 34  1  0  0  0
 33 66  1  0  0  0
 33 70  2  0  0  0
 34 36  1  0  0  0
 34 59  1  0  0  0
 34119  1  0  0  0
 35 44  2  0  0  0
 35 45  1  0  0  0
 35 68  1  0  0  0
 36 56  1  0  0  0
 36120  1  0  0  0
 37 39  1  0  0  0
 37 47  1  0  0  0
 37 66  1  0  0  0
 37121  1  0  0  0
 38 43  2  0  0  0
 38 46  1  0  0  0
 38 47  1  0  0  0
 39 64  1  0  0  0
 39 67  2  0  0  0
 40 52  1  0  0  0
 40 53  2  0  0  0
 40 58  1  0  0  0
 41122  1  0  0  0
 41123  1  0  0  0
 41124  1  0  0  0
 41 48  1  0  0  0
 42 43  1  0  0  0
 42 66  1  0  0  0
 42125  1  0  0  0
 42126  1  0  0  0
 43 44  1  0  0  0
 44127  1  0  0  0
 45 46  2  0  0  0
 45128  1  0  0  0
 46129  1  0  0  0
 47130  1  0  0  0
 47131  1  0  0  0
 48 56  1  0  0  0
 48 65  1  0  0  0
 48132  1  0  0  0
 49 50  1  0  0  0
 49 53  1  0  0  0
 49 64  1  0  0  0
 49133  1  0  0  0
 50 51  1  0  0  0
 50134  1  0  0  0
 50135  1  0  0  0
 51 52  1  0  0  0
 51136  1  0  0  0
 51137  1  0  0  0
 52138  1  0  0  0
 52139  1  0  0  0
 53 54  1  0  0  0
 54 55  2  0  0  0
 54140  1  0  0  0
 55 57  1  0  0  0
 55141  1  0  0  0
 56 69  2  0  0  0
 57 58  2  0  0  0
 57142  1  0  0  0
 58143  1  0  0  0
 59 60  1  0  0  0
 59 61  1  0  0  0
 59 62  1  0  0  0
 60144  1  0  0  0
 60145  1  0  0  0
 60146  1  0  0  0
 61147  1  0  0  0
 61148  1  0  0  0
 61149  1  0  0  0
 62150  1  0  0  0
 62151  1  0  0  0
 62152  1  0  0  0
 63 65  1  0  0  0
 63153  1  0  0  0
 63154  1  0  0  0
 63155  1  0  0  0
 64156  1  0  0  0
 65157  1  0  0  0
 68 79  1  0  0  0
 71 73  1  0  0  0
 71 79  1  0  0  0
 71 93  2  0  0  0
 72 74  2  0  0  0
 72 78  1  0  0  0
 72 93  1  0  0  0
 73 94  2  0  0  0
 73 95  1  0  0  0
 74 94  1  0  0  0
 74 98  1  0  0  0
 75 78  1  0  0  0
 75158  1  0  0  0
 75159  1  0  0  0
 75160  1  0  0  0
 76161  1  0  0  0
 76162  1  0  0  0
 76163  1  0  0  0
 76 92  1  0  0  0
 77164  1  0  0  0
 77165  1  0  0  0
 77166  1  0  0  0
 77 97  1  0  0  0
 78167  1  0  0  0
 78168  1  0  0  0
 79169  1  0  0  0
 79170  1  0  0  0
 80 81  1  0  0  0
 80 82  1  0  0  0
 80171  1  0  0  0
 80172  1  0  0  0
 81 83  1  0  0  0
 81173  1  0  0  0
 81174  1  0  0  0
 82 85  1  0  0  0
 82175  1  0  0  0
 82176  1  0  0  0
 83 88  1  0  0  0
 83177  1  0  0  0
 83178  1  0  0  0
 84 86  1  0  0  0
 84 87  1  0  0  0
 84179  1  0  0  0
 84180  1  0  0  0
 85 90  1  0  0  0
 85181  1  0  0  0
 85182  1  0  0  0
 86 89  1  0  0  0
 86183  1  0  0  0
 86184  1  0  0  0
 87 91  1  0  0  0
 87185  1  0  0  0
 87186  1  0  0  0
 88 92  1  0  0  0
 88187  1  0  0  0
 88188  1  0  0  0
 89 95  1  0  0  0
 89189  1  0  0  0
 89190  1  0  0  0
 90 96  1  0  0  0
 90191  1  0  0  0
 90192  1  0  0  0
 91 97  1  0  0  0
 91193  1  0  0  0
 91194  1  0  0  0
 92 97  1  0  0  0
 92195  1  0  0  0
 95196  1  0  0  0
 96197  1  0  0  0
 97198  1  0  0  0
M  CHG  1  97   1
M  ISO  4   1 100  68 101  79 101  96 100
M  END
> <chiral flag>
0

> <version>
0

> <s_m_source_file>
/data/baiqing/PycharmProjects/Reinvent-master-3.2/result/LINK_invent/BTK/process_docking_weight1_custom_sum_contain_oxygen_bond_distance_aromatic_linkinvent_7_9_3/rearranged_h_0023.sdf

> <i_m_source_file_index>
52

> <r_mmod_Potential_Energy-OPLS-2005>
10502.4072265625

> <r_mmod_Stretch_Energy-OPLS-2005>
5865.19189453125

> <r_mmod_Bend_Energy-OPLS-2005>
598.670654296875

> <r_mmod_Torsional_Energy-OPLS-2005>
483.813842773438

> <r_mmod_Improper_Torsional_Energy-OPLS-2005>
39.0530700683594

> <r_mmod_Van_der_Waal_Energy-OPLS-2005>
2788.2119140625

> <r_mmod_Electrostatic_Energy-OPLS-2005>
-221.970657348633

> <r_mmod_Solvation_Energy-OPLS-2005>
-411.266967773438

> <b_mmod_Minimization_Converged-OPLS-2005>
0

> <r_mmod_RMS_Derivative-OPLS-2005>
5.75423717498779

$$$$
52
                    3D
 Structure written by MMmdl.
164172  0  0  1  0            999 V2000
  -30.5740  -14.9412   20.3579 C   0  0  0  0  0  0
  -30.4371  -12.5688   19.4834 C   0  0  0  0  0  0
  -29.5142  -12.4669   18.2467 C   0  0  0  0  0  0
  -28.0461  -12.2706   18.6752 C   0  0  0  0  0  0
  -27.6182  -13.2172   19.8307 C   0  0  2  0  0  0
  -28.6756  -13.3000   20.9515 C   0  0  0  0  0  0
  -25.2499  -13.8122   20.5785 C   0  0  0  0  0  0
  -24.1775  -13.0378   20.9267 C   0  0  0  0  0  0
  -24.6354  -11.6860   20.8786 C   0  0  0  0  0  0
  -23.9026  -10.4256   21.0410 C   0  0  0  0  0  0
  -24.3598   -9.4181   21.9178 C   0  0  0  0  0  0
  -23.6300   -8.2204   22.0721 C   0  0  0  0  0  0
  -22.4289   -8.0249   21.3502 C   0  0  0  0  0  0
  -21.9906   -9.0215   20.4608 C   0  0  0  0  0  0
  -22.7211  -10.2109   20.3037 C   0  0  0  0  0  0
  -21.6848   -6.0742   22.5276 C   0  0  0  0  0  0
  -21.4007   -6.5643   23.8212 C   0  0  0  0  0  0
  -21.3657   -5.6790   24.9174 C   0  0  0  0  0  0
  -21.6044   -4.3050   24.7223 C   0  0  0  0  0  0
  -21.8828   -3.8150   23.4343 C   0  0  0  0  0  0
  -21.9192   -4.6972   22.3405 C   0  0  0  0  0  0
  -22.7812  -13.5178   21.1905 C   0  0  0  0  0  0
  -22.1662   -4.2161   21.0985 F   0  0  0  0  0  0
  -21.5626   -3.4524   25.7731 F   0  0  0  0  0  0
  -29.9444  -13.6949   20.3230 N   0  0  0  0  0  0
  -26.2855  -12.9256   20.3316 N   0  0  0  0  0  0
  -25.9271  -11.6424   20.5790 N   0  0  0  0  0  0
  -22.0453  -12.8166   22.0464 N   0  0  0  0  0  0
  -25.4220  -15.1847   20.4243 N   0  0  0  0  0  0
  -31.8060  -14.9451   20.2706 O   0  0  0  0  0  0
  -21.6632   -6.8867   21.4227 O   0  0  0  0  0  0
  -22.3501  -14.5468   20.6735 O   0  0  0  0  0  0
  -24.6389  -31.8469   23.1901 C   0  0  0  0  0  0
  -25.9182  -32.4709   23.8272 C   0  0  1  0  0  0
  -27.2272  -27.1812   20.1661 C   0  0  0  0  0  0
  -25.5947  -33.8517   24.2197 N   0  0  0  0  0  0
  -23.4400  -30.4655   21.5355 C   0  0  2  0  0  0
  -24.8938  -28.8996   20.1100 C   0  0  0  0  0  0
  -22.7521  -29.4571   22.4882 C   0  0  0  0  0  0
  -18.0284  -28.1411   22.8467 C   0  0  0  0  0  0
  -24.1504  -36.7275   23.2641 C   0  0  0  0  0  0
  -25.9896  -30.7402   21.3788 C   0  0  0  0  0  0
  -26.0678  -29.3541   20.7247 C   0  0  0  0  0  0
  -27.2389  -28.5144   20.7324 C   0  0  0  0  0  0
  -26.0353  -26.8251   19.4978 C   0  0  0  0  0  0
  -24.8896  -27.6488   19.4753 C   0  0  0  0  0  0
  -23.6656  -29.7937   20.1543 C   0  0  0  0  0  0
  -25.4132  -36.3043   24.0316 C   0  0  1  0  0  0
  -20.5888  -28.3742   23.1231 C   0  0  2  0  0  0
  -20.6790  -26.9457   22.5395 C   0  0  0  0  0  0
  -19.5773  -26.6398   21.5202 C   0  0  0  0  0  0
  -18.1949  -26.7948   22.1614 C   0  0  0  0  0  0
  -19.1540  -28.8890   23.2845 C   0  0  0  0  0  0
  -18.9474  -30.1483   23.8874 C   0  0  0  0  0  0
  -17.6482  -30.6608   24.0567 C   0  0  0  0  0  0
  -25.9080  -34.9417   23.5059 C   0  0  0  0  0  0
  -16.5364  -29.9113   23.6339 C   0  0  0  0  0  0
  -16.7277  -28.6531   23.0348 C   0  0  0  0  0  0
  -26.4524  -31.6543   25.0683 C   0  0  0  0  0  0
  -25.3719  -31.3713   26.1374 C   0  0  0  0  0  0
  -27.0384  -30.2939   24.6234 C   0  0  0  0  0  0
  -27.6061  -32.4297   25.7463 C   0  0  0  0  0  0
  -27.5577  -37.1797   24.8461 C   0  0  0  0  0  0
  -21.4216  -29.3067   22.3611 N   0  0  0  0  0  0
  -26.4286  -37.3759   23.9401 N   0  0  0  0  0  0
  -24.7087  -31.0367   22.0926 N   0  0  0  0  0  0
  -23.4152  -28.8135   23.3057 O   0  0  0  0  0  0
  -28.2906  -26.2194   20.2156 O   0  0  0  0  0  0
  -26.5668  -34.8918   22.4639 O   0  0  0  0  0  0
  -23.5514  -32.1326   23.7164 O   0  0  0  0  0  0
  -29.6108  -20.5622   20.3923 C   0  0  0  0  0  0
  -29.6377  -17.2872   18.0406 C   0  0  0  0  0  0
  -30.7968  -17.8652   18.8261 C   0  0  0  0  0  0
  -29.0250  -16.2365   18.9798 C   0  0  0  0  0  0
  -30.3259  -17.6713   20.2708 C   0  0  1  0  0  0
  -26.5021  -21.5667   19.3402 C   0  0  0  0  0  0
  -26.2733  -22.0345   21.8480 C   0  0  0  0  0  0
  -29.3014  -18.9551   20.6587 C   0  0  0  0  0  0
  -28.8853  -23.3835   20.1872 C   0  0  0  0  0  0
  -28.0163  -24.7490   20.6073 C   0  0  0  0  0  0
  -28.6301  -21.8314   20.7906 C   0  0  1  0  0  0
  -27.1324  -21.4039   20.7350 C   0  0  0  0  0  0
  -29.8379  -16.1679   20.2107 N   0  0  0  0  0  0
  -30.7049  -20.8623   19.9118 O   0  0  0  0  0  0
  -31.4724  -12.7107   19.1654 H   0  0  0  0  0  0
  -30.4167  -11.6385   20.0550 H   0  0  0  0  0  0
  -29.8296  -11.6348   17.6153 H   0  0  0  0  0  0
  -29.6088  -13.3571   17.6265 H   0  0  0  0  0  0
  -27.9479  -11.2343   19.0025 H   0  0  0  0  0  0
  -27.3800  -12.3742   17.8174 H   0  0  0  0  0  0
  -27.5312  -14.1966   19.3846 H   0  0  0  0  0  0
  -28.7735  -12.3427   21.4641 H   0  0  0  0  0  0
  -28.3846  -14.0344   21.7046 H   0  0  0  0  0  0
  -25.2730   -9.5680   22.4775 H   0  0  0  0  0  0
  -24.0016   -7.4585   22.7427 H   0  0  0  0  0  0
  -21.0834   -8.8724   19.8916 H   0  0  0  0  0  0
  -22.3642  -10.9659   19.6165 H   0  0  0  0  0  0
  -21.1990   -7.6150   23.9720 H   0  0  0  0  0  0
  -21.1470   -6.0515   25.9076 H   0  0  0  0  0  0
  -22.0615   -2.7616   23.2834 H   0  0  0  0  0  0
  -22.4055  -11.9842   22.4901 H   0  0  0  0  0  0
  -21.1040  -13.1155   22.2574 H   0  0  0  0  0  0
  -24.6637  -15.8475   20.5479 H   0  0  0  0  0  0
  -26.2904  -15.6247   20.1505 H   0  0  0  0  0  0
  -26.7263  -32.5353   23.1027 H   0  0  0  0  0  0
  -25.0051  -33.9651   25.0309 H   0  0  0  0  0  0
  -22.7416  -31.2910   21.3826 H   0  0  0  0  0  0
  -23.3766  -35.9612   23.3285 H   0  0  0  0  0  0
  -24.3586  -36.8918   22.2058 H   0  0  0  0  0  0
  -23.7282  -37.6475   23.6690 H   0  0  0  0  0  0
  -26.1326  -31.5006   20.6088 H   0  0  0  0  0  0
  -26.8612  -30.7883   22.0186 H   0  0  0  0  0  0
  -28.1337  -28.8698   21.2260 H   0  0  0  0  0  0
  -25.9704  -25.8738   18.9913 H   0  0  0  0  0  0
  -24.0008  -27.2995   18.9690 H   0  0  0  0  0  0
  -23.8029  -30.5687   19.4004 H   0  0  0  0  0  0
  -22.7817  -29.2352   19.8410 H   0  0  0  0  0  0
  -25.1333  -36.1857   25.0814 H   0  0  0  0  0  0
  -20.9974  -28.3367   24.1354 H   0  0  0  0  0  0
  -20.5698  -26.2384   23.3625 H   0  0  0  0  0  0
  -21.6673  -26.7509   22.1202 H   0  0  0  0  0  0
  -19.6962  -25.6302   21.1260 H   0  0  0  0  0  0
  -19.6711  -27.3190   20.6714 H   0  0  0  0  0  0
  -17.4226  -26.6665   21.4012 H   0  0  0  0  0  0
  -18.0380  -26.0094   22.9019 H   0  0  0  0  0  0
  -19.7957  -30.7292   24.2238 H   0  0  0  0  0  0
  -17.5049  -31.6279   24.5196 H   0  0  0  0  0  0
  -15.5374  -30.3024   23.7679 H   0  0  0  0  0  0
  -15.8665  -28.0853   22.7069 H   0  0  0  0  0  0
  -24.5910  -30.7058   25.7675 H   0  0  0  0  0  0
  -24.8908  -32.2894   26.4751 H   0  0  0  0  0  0
  -25.7997  -30.8899   27.0175 H   0  0  0  0  0  0
  -26.2977  -29.6651   24.1281 H   0  0  0  0  0  0
  -27.4040  -29.7241   25.4789 H   0  0  0  0  0  0
  -27.8872  -30.4161   23.9501 H   0  0  0  0  0  0
  -27.2649  -33.3609   26.1994 H   0  0  0  0  0  0
  -28.3887  -32.6827   25.0299 H   0  0  0  0  0  0
  -28.0714  -31.8448   26.5407 H   0  0  0  0  0  0
  -28.2592  -38.0095   24.7508 H   0  0  0  0  0  0
  -28.1063  -36.2626   24.6277 H   0  0  0  0  0  0
  -27.2279  -37.1432   25.8856 H   0  0  0  0  0  0
  -20.9428  -29.8752   21.6758 H   0  0  0  0  0  0
  -26.0144  -38.2824   24.1398 H   0  0  0  0  0  0
  -29.9737  -16.8601   17.0942 H   0  0  0  0  0  0
  -28.9064  -18.0614   17.8017 H   0  0  0  0  0  0
  -31.0327  -18.8832   18.5201 H   0  0  0  0  0  0
  -31.6939  -17.2716   18.6471 H   0  0  0  0  0  0
  -28.9902  -15.3053   18.4218 H   0  0  0  0  0  0
  -28.0023  -16.5082   19.2428 H   0  0  0  0  0  0
  -31.1901  -17.7239   20.9369 H   0  0  0  0  0  0
  -25.4899  -21.1607   19.3153 H   0  0  0  0  0  0
  -27.0845  -21.0400   18.5827 H   0  0  0  0  0  0
  -26.4341  -22.6101   19.0326 H   0  0  0  0  0  0
  -25.2879  -21.5692   21.8827 H   0  0  0  0  0  0
  -26.1146  -23.1024   21.7238 H   0  0  0  0  0  0
  -26.7250  -21.8789   22.8281 H   0  0  0  0  0  0
  -28.3624  -18.7647   20.1402 H   0  0  0  0  0  0
  -29.0545  -18.8757   21.7177 H   0  0  0  0  0  0
  -29.9288  -23.6168   20.3930 H   0  0  0  0  0  0
  -28.8420  -23.3065   19.1002 H   0  0  0  0  0  0
  -28.0114  -24.7534   21.6986 H   0  0  0  0  0  0
  -26.9856  -24.5384   20.3389 H   0  0  0  0  0  0
  -28.8595  -21.9376   21.8524 H   0  0  0  0  0  0
  -27.0768  -20.3390   20.9617 H   0  0  0  0  0  0
  1 25  1  0  0  0
  1 30  2  0  0  0
  1 83  1  0  0  0
  2  3  1  0  0  0
  2 25  1  0  0  0
  2 85  1  0  0  0
  2 86  1  0  0  0
  3  4  1  0  0  0
  3 87  1  0  0  0
  3 88  1  0  0  0
  4  5  1  0  0  0
  4 89  1  0  0  0
  4 90  1  0  0  0
  5  6  1  0  0  0
  5 26  1  0  0  0
  5 91  1  0  0  0
  6 25  1  0  0  0
  6 92  1  0  0  0
  6 93  1  0  0  0
  7  8  2  0  0  0
  7 26  1  0  0  0
  7 29  1  0  0  0
  8  9  1  0  0  0
  8 22  1  0  0  0
  9 10  1  0  0  0
  9 27  2  0  0  0
 10 11  2  0  0  0
 10 15  1  0  0  0
 11 12  1  0  0  0
 11 94  1  0  0  0
 12 13  2  0  0  0
 12 95  1  0  0  0
 13 14  1  0  0  0
 13 31  1  0  0  0
 14 15  2  0  0  0
 14 96  1  0  0  0
 15 97  1  0  0  0
 16 17  2  0  0  0
 16 21  1  0  0  0
 16 31  1  0  0  0
 17 18  1  0  0  0
 17 98  1  0  0  0
 18 19  2  0  0  0
 18 99  1  0  0  0
 19 20  1  0  0  0
 19 24  1  0  0  0
 20 21  2  0  0  0
 20100  1  0  0  0
 21 23  1  0  0  0
 22 28  1  0  0  0
 22 32  2  0  0  0
 26 27  1  0  0  0
 28101  1  0  0  0
 28102  1  0  0  0
 29103  1  0  0  0
 29104  1  0  0  0
 33 34  1  0  0  0
 33 66  1  0  0  0
 33 70  2  0  0  0
 34 36  1  0  0  0
 34 59  1  0  0  0
 34105  1  0  0  0
 35 44  2  0  0  0
 35 45  1  0  0  0
 35 68  1  0  0  0
 36 56  1  0  0  0
 36106  1  0  0  0
 37 39  1  0  0  0
 37 47  1  0  0  0
 37 66  1  0  0  0
 37107  1  0  0  0
 38 43  2  0  0  0
 38 46  1  0  0  0
 38 47  1  0  0  0
 39 64  1  0  0  0
 39 67  2  0  0  0
 40 52  1  0  0  0
 40 53  2  0  0  0
 40 58  1  0  0  0
 41108  1  0  0  0
 41109  1  0  0  0
 41110  1  0  0  0
 41 48  1  0  0  0
 42 43  1  0  0  0
 42 66  1  0  0  0
 42111  1  0  0  0
 42112  1  0  0  0
 43 44  1  0  0  0
 44113  1  0  0  0
 45 46  2  0  0  0
 45114  1  0  0  0
 46115  1  0  0  0
 47116  1  0  0  0
 47117  1  0  0  0
 48 56  1  0  0  0
 48 65  1  0  0  0
 48118  1  0  0  0
 49 50  1  0  0  0
 49 53  1  0  0  0
 49 64  1  0  0  0
 49119  1  0  0  0
 50 51  1  0  0  0
 50120  1  0  0  0
 50121  1  0  0  0
 51 52  1  0  0  0
 51122  1  0  0  0
 51123  1  0  0  0
 52124  1  0  0  0
 52125  1  0  0  0
 53 54  1  0  0  0
 54 55  2  0  0  0
 54126  1  0  0  0
 55 57  1  0  0  0
 55127  1  0  0  0
 56 69  2  0  0  0
 57 58  2  0  0  0
 57128  1  0  0  0
 58129  1  0  0  0
 59 60  1  0  0  0
 59 61  1  0  0  0
 59 62  1  0  0  0
 60130  1  0  0  0
 60131  1  0  0  0
 60132  1  0  0  0
 61133  1  0  0  0
 61134  1  0  0  0
 61135  1  0  0  0
 62136  1  0  0  0
 62137  1  0  0  0
 62138  1  0  0  0
 63 65  1  0  0  0
 63139  1  0  0  0
 63140  1  0  0  0
 63141  1  0  0  0
 64142  1  0  0  0
 65143  1  0  0  0
 68 80  1  0  0  0
 71 78  1  0  0  0
 71 81  1  0  0  0
 71 84  2  0  0  0
 72 73  1  0  0  0
 72 74  1  0  0  0
 72144  1  0  0  0
 72145  1  0  0  0
 73 75  1  0  0  0
 73146  1  0  0  0
 73147  1  0  0  0
 74 83  1  0  0  0
 74148  1  0  0  0
 74149  1  0  0  0
 75 78  1  0  0  0
 75 83  1  0  0  0
 75150  1  0  0  0
 76151  1  0  0  0
 76152  1  0  0  0
 76153  1  0  0  0
 76 82  1  0  0  0
 77 82  1  0  0  0
 77154  1  0  0  0
 77155  1  0  0  0
 77156  1  0  0  0
 78157  1  0  0  0
 78158  1  0  0  0
 79 80  1  0  0  0
 79159  1  0  0  0
 79160  1  0  0  0
 79 81  1  0  0  0
 80161  1  0  0  0
 80162  1  0  0  0
 81 82  1  0  0  0
 81163  1  0  0  0
 82164  1  0  0  0
M  ISO  4   1 100  68 101  80 101  83 100
M  END
> <chiral flag>
0

> <version>
0

> <s_m_source_file>
/data/baiqing/PycharmProjects/Reinvent-master-3.2/result/LINK_invent/BTK/process_docking_weight1_custom_sum_contain_oxygen_bond_distance_aromatic_linkinvent_7_9_3/rearranged_h_0023.sdf

> <i_m_source_file_index>
53

> <r_mmod_Potential_Energy-OPLS-2005>
780.382690429688

> <r_mmod_Stretch_Energy-OPLS-2005>
256.502532958984

> <r_mmod_Bend_Energy-OPLS-2005>
290.730865478516

> <r_mmod_Torsional_Energy-OPLS-2005>
362.771270751953

> <r_mmod_Improper_Torsional_Energy-OPLS-2005>
11.7387895584106

> <r_mmod_Van_der_Waal_Energy-OPLS-2005>
120.17259979248

> <r_mmod_Electrostatic_Energy-OPLS-2005>
-233.147399902344

> <r_mmod_Solvation_Energy-OPLS-2005>
-207.306869506836

> <b_mmod_Minimization_Converged-OPLS-2005>
0

> <r_mmod_RMS_Derivative-OPLS-2005>
3.06413626670837

$$$$
53
                    3D
 Structure written by MMmdl.
220229  0  0  1  0            999 V2000
  -30.6657  -14.4761   20.5734 C   0  0  0  0  0  0
  -30.4360  -12.3204   19.3862 C   0  0  0  0  0  0
  -29.4789  -12.5096   18.1892 C   0  0  0  0  0  0
  -28.0019  -12.3643   18.6191 C   0  0  0  0  0  0
  -27.6653  -13.1670   19.9052 C   0  0  2  0  0  0
  -28.7318  -12.8776   20.9860 C   0  0  0  0  0  0
  -25.2539  -13.7965   20.5649 C   0  0  0  0  0  0
  -24.1763  -13.0319   20.9171 C   0  0  0  0  0  0
  -24.6313  -11.6793   20.8775 C   0  0  0  0  0  0
  -23.8979  -10.4213   21.0425 C   0  0  0  0  0  0
  -24.3524   -9.4141   21.9216 C   0  0  0  0  0  0
  -23.6205   -8.2189   22.0785 C   0  0  0  0  0  0
  -22.4204   -8.0226   21.3559 C   0  0  0  0  0  0
  -21.9840   -9.0191   20.4662 C   0  0  0  0  0  0
  -22.7160  -10.2067   20.3070 C   0  0  0  0  0  0
  -21.6835   -6.0690   22.5282 C   0  0  0  0  0  0
  -21.4002   -6.5617   23.8204 C   0  0  0  0  0  0
  -21.3660   -5.6773   24.9164 C   0  0  0  0  0  0
  -21.6034   -4.3035   24.7223 C   0  0  0  0  0  0
  -21.8813   -3.8117   23.4351 C   0  0  0  0  0  0
  -21.9188   -4.6923   22.3397 C   0  0  0  0  0  0
  -22.7807  -13.5201   21.1805 C   0  0  0  0  0  0
  -22.1642   -4.2101   21.0969 F   0  0  0  0  0  0
  -21.5656   -3.4525   25.7756 F   0  0  0  0  0  0
  -30.0265  -13.2783   20.4267 N   0  0  0  0  0  0
  -26.3033  -12.9112   20.3594 N   0  0  0  0  0  0
  -25.9255  -11.6310   20.5892 N   0  0  0  0  0  0
  -22.0418  -12.8246   22.0366 N   0  0  0  0  0  0
  -25.4141  -15.1634   20.3827 N   0  0  0  0  0  0
  -31.8277  -14.6155   20.1819 O   0  0  0  0  0  0
  -21.6603   -6.8814   21.4238 O   0  0  0  0  0  0
  -22.3521  -14.5518   20.6649 O   0  0  0  0  0  0
  -24.6081  -31.8703   23.2124 C   0  0  0  0  0  0
  -25.9000  -32.4840   23.8413 C   0  0  1  0  0  0
  -27.2737  -27.4900   20.0970 C   0  0  0  0  0  0
  -25.5881  -33.8633   24.2357 N   0  0  0  0  0  0
  -23.3964  -30.4890   21.5502 C   0  0  2  0  0  0
  -24.8527  -28.9596   20.1166 C   0  0  0  0  0  0
  -22.7383  -29.4657   22.5013 C   0  0  0  0  0  0
  -18.0264  -28.1369   22.8488 C   0  0  0  0  0  0
  -24.1479  -36.7313   23.2637 C   0  0  0  0  0  0
  -25.9152  -30.8561   21.3549 C   0  0  0  0  0  0
  -26.0032  -29.4906   20.7104 C   0  0  0  0  0  0
  -27.2100  -28.7642   20.7076 C   0  0  0  0  0  0
  -26.1006  -26.9570   19.5210 C   0  0  0  0  0  0
  -24.8930  -27.6862   19.5212 C   0  0  0  0  0  0
  -23.6057  -29.8141   20.1658 C   0  0  0  0  0  0
  -25.4101  -36.3123   24.0346 C   0  0  1  0  0  0
  -20.5849  -28.3646   23.1330 C   0  0  2  0  0  0
  -20.6754  -26.9387   22.5424 C   0  0  0  0  0  0
  -19.5743  -26.6381   21.5214 C   0  0  0  0  0  0
  -18.1911  -26.7927   22.1606 C   0  0  0  0  0  0
  -19.1510  -28.8825   23.2912 C   0  0  0  0  0  0
  -18.9447  -30.1433   23.8915 C   0  0  0  0  0  0
  -17.6452  -30.6577   24.0570 C   0  0  0  0  0  0
  -25.9021  -34.9483   23.5149 C   0  0  0  0  0  0
  -16.5338  -29.9083   23.6333 C   0  0  0  0  0  0
  -16.7251  -28.6499   23.0344 C   0  0  0  0  0  0
  -26.4461  -31.6597   25.0705 C   0  0  0  0  0  0
  -25.3756  -31.3658   26.1469 C   0  0  0  0  0  0
  -27.0291  -30.3060   24.6011 C   0  0  0  0  0  0
  -27.6045  -32.4299   25.7473 C   0  0  0  0  0  0
  -27.5580  -37.1809   24.8466 C   0  0  0  0  0  0
  -21.4114  -29.3017   22.3746 N   0  0  0  0  0  0
  -26.4288  -37.3806   23.9417 N   0  0  0  0  0  0
  -24.6580  -31.0846   22.1001 N   0  0  0  0  0  0
  -23.4171  -28.8208   23.3050 O   0  0  0  0  0  0
  -28.4099  -26.7095   20.0689 O   0  0  0  0  0  0
  -26.5572  -34.8926   22.4700 O   0  0  0  0  0  0
  -23.5290  -32.1431   23.7550 O   0  0  0  0  0  0
  -34.1937  -21.4294   22.3877 C   0  0  0  0  0  0
  -32.3221  -22.3813   24.2412 C   0  0  0  0  0  0
  -33.4004  -22.5506   22.0580 C   0  0  0  0  0  0
  -33.0965  -21.2471   24.5608 C   0  0  0  0  0  0
  -33.9858  -20.7182   23.5903 C   0  0  0  0  0  0
  -32.4177  -22.9991   22.9745 C   0  0  0  0  0  0
  -28.5268  -16.9492   24.8800 C   0  0  0  0  0  0
  -27.9249  -15.7256   24.1736 C   0  0  0  0  0  0
  -29.9623  -17.2513   24.4119 C   0  0  0  0  0  0
  -28.0922  -15.8368   22.6501 C   0  0  0  0  0  0
  -30.0903  -17.2970   22.8630 C   0  0  2  0  0  0
  -29.6017  -15.9181   22.2804 C   0  0  2  0  0  0
  -33.5760  -23.1998   20.6949 C   0  0  0  0  0  0
  -32.9032  -20.5980   25.9225 C   0  0  0  0  0  0
  -30.3742  -19.9828   20.9931 C   0  0  0  0  0  0
  -30.7239  -16.7999   18.7213 C   0  0  0  0  0  0
  -28.2863  -16.6928   19.2120 C   0  0  0  0  0  0
  -36.2261  -17.6999   21.5796 C   0  0  0  0  0  0
  -35.6230  -16.4716   23.6992 C   0  0  0  0  0  0
  -34.4039  -16.0314   21.5447 C   0  0  0  0  0  0
  -32.6380  -25.9095   23.7078 C   0  0  0  0  0  0
  -34.6381  -19.3425   23.7348 C   0  0  0  0  0  0
  -31.3997  -24.0770   22.6052 C   0  0  0  0  0  0
  -31.1793  -19.4934   22.2055 C   0  0  0  0  0  0
  -30.7910  -26.3934   20.4311 C   0  0  0  0  0  0
  -32.6540  -17.7218   23.2976 C   0  0  0  0  0  0
  -30.9566  -26.4176   21.9678 C   0  0  0  0  0  0
  -29.6846  -27.3435   19.9346 C   0  0  0  0  0  0
  -31.4236  -17.9643   22.3688 C   0  0  1  0  0  0
  -34.0356  -18.2539   22.7750 C   0  0  2  0  0  0
  -29.6775  -16.6758   19.8528 C   0  0  0  0  0  0
  -35.0605  -17.1243   22.4200 C   0  0  0  0  0  0
  -29.8761  -15.5664   20.8472 N   0  0  0  0  0  0
  -31.9649  -25.4430   22.4705 N   0  3  1  0  0  0
  -31.4671  -12.4616   19.0628 H   0  0  0  0  0  0
  -30.3814  -11.2978   19.7609 H   0  0  0  0  0  0
  -29.7111  -11.7854   17.4068 H   0  0  0  0  0  0
  -29.6358  -13.4934   17.7438 H   0  0  0  0  0  0
  -27.8078  -11.3045   18.7906 H   0  0  0  0  0  0
  -27.3400  -12.6605   17.8036 H   0  0  0  0  0  0
  -27.7152  -14.2167   19.6601 H   0  0  0  0  0  0
  -28.7373  -11.8077   21.2009 H   0  0  0  0  0  0
  -28.5529  -13.3176   21.9570 H   0  0  0  0  0  0
  -25.2672   -9.5620   22.4778 H   0  0  0  0  0  0
  -23.9920   -7.4588   22.7511 H   0  0  0  0  0  0
  -21.0790   -8.8677   19.8960 H   0  0  0  0  0  0
  -22.3637  -10.9584   19.6148 H   0  0  0  0  0  0
  -21.1963   -7.6129   23.9683 H   0  0  0  0  0  0
  -21.1511   -6.0514   25.9065 H   0  0  0  0  0  0
  -22.0592   -2.7581   23.2868 H   0  0  0  0  0  0
  -22.4023  -11.9904   22.4754 H   0  0  0  0  0  0
  -21.1055  -13.1359   22.2581 H   0  0  0  0  0  0
  -24.6346  -15.8108   20.4326 H   0  0  0  0  0  0
  -26.2662  -15.5893   20.0453 H   0  0  0  0  0  0
  -26.7078  -32.5588   23.1195 H   0  0  0  0  0  0
  -25.0080  -33.9823   25.0535 H   0  0  0  0  0  0
  -22.6829  -31.3035   21.4081 H   0  0  0  0  0  0
  -23.3748  -35.9637   23.3304 H   0  0  0  0  0  0
  -24.3586  -36.8920   22.2052 H   0  0  0  0  0  0
  -23.7217  -37.6512   23.6646 H   0  0  0  0  0  0
  -26.0079  -31.6198   20.5812 H   0  0  0  0  0  0
  -26.8075  -30.9251   21.9642 H   0  0  0  0  0  0
  -28.0682  -29.1951   21.1991 H   0  0  0  0  0  0
  -26.1271  -25.9771   19.0652 H   0  0  0  0  0  0
  -24.0084  -27.2638   19.0650 H   0  0  0  0  0  0
  -23.7020  -30.5862   19.4014 H   0  0  0  0  0  0
  -22.7357  -29.2213   19.8761 H   0  0  0  0  0  0
  -25.1276  -36.1990   25.0839 H   0  0  0  0  0  0
  -20.9932  -28.3200   24.1456 H   0  0  0  0  0  0
  -20.5647  -26.2250   23.3606 H   0  0  0  0  0  0
  -21.6624  -26.7432   22.1213 H   0  0  0  0  0  0
  -19.6896  -25.6297   21.1231 H   0  0  0  0  0  0
  -19.6695  -27.3208   20.6761 H   0  0  0  0  0  0
  -17.4192  -26.6698   21.3993 H   0  0  0  0  0  0
  -18.0287  -26.0050   22.8978 H   0  0  0  0  0  0
  -19.7928  -30.7250   24.2285 H   0  0  0  0  0  0
  -17.5008  -31.6265   24.5160 H   0  0  0  0  0  0
  -15.5341  -30.2992   23.7655 H   0  0  0  0  0  0
  -15.8651  -28.0835   22.7046 H   0  0  0  0  0  0
  -24.5960  -30.6967   25.7810 H   0  0  0  0  0  0
  -24.8914  -32.2791   26.4932 H   0  0  0  0  0  0
  -25.8144  -30.8833   27.0211 H   0  0  0  0  0  0
  -26.2807  -29.6811   24.1116 H   0  0  0  0  0  0
  -27.4163  -29.7286   25.4417 H   0  0  0  0  0  0
  -27.8594  -30.4418   23.9075 H   0  0  0  0  0  0
  -27.2669  -33.3580   26.2090 H   0  0  0  0  0  0
  -28.3844  -32.6875   25.0297 H   0  0  0  0  0  0
  -28.0719  -31.8391   26.5359 H   0  0  0  0  0  0
  -28.2595  -38.0109   24.7530 H   0  0  0  0  0  0
  -28.1082  -36.2646   24.6269 H   0  0  0  0  0  0
  -27.2303  -37.1419   25.8869 H   0  0  0  0  0  0
  -20.9267  -29.8734   21.6970 H   0  0  0  0  0  0
  -26.0177  -38.2880   24.1440 H   0  0  0  0  0  0
  -34.8950  -21.0414   21.6607 H   0  0  0  0  0  0
  -31.5978  -22.7437   24.9590 H   0  0  0  0  0  0
  -28.5172  -16.7959   25.9608 H   0  0  0  0  0  0
  -27.8923  -17.8159   24.6889 H   0  0  0  0  0  0
  -26.8683  -15.6450   24.4316 H   0  0  0  0  0  0
  -28.3964  -14.8125   24.5404 H   0  0  0  0  0  0
  -30.6323  -16.4929   24.8187 H   0  0  0  0  0  0
  -30.2677  -18.2016   24.8495 H   0  0  0  0  0  0
  -27.5661  -16.7271   22.3039 H   0  0  0  0  0  0
  -27.5527  -15.0320   22.1682 H   0  0  0  0  0  0
  -29.3186  -17.9994   22.5534 H   0  0  0  0  0  0
  -30.1132  -15.1536   22.8729 H   0  0  0  0  0  0
  -34.3596  -22.7089   20.1163 H   0  0  0  0  0  0
  -33.8604  -24.2467   20.7953 H   0  0  0  0  0  0
  -32.6561  -23.1394   20.1126 H   0  0  0  0  0  0
  -32.4091  -21.2813   26.6143 H   0  0  0  0  0  0
  -33.8592  -20.3312   26.3711 H   0  0  0  0  0  0
  -32.2869  -19.7033   25.8509 H   0  0  0  0  0  0
  -30.3913  -21.0738   20.9546 H   0  0  0  0  0  0
  -29.3269  -19.6850   21.0295 H   0  0  0  0  0  0
  -30.8105  -19.6250   20.0598 H   0  0  0  0  0  0
  -30.7450  -15.9164   18.0810 H   0  0  0  0  0  0
  -31.7277  -16.9583   19.1155 H   0  0  0  0  0  0
  -30.5060  -17.6541   18.0804 H   0  0  0  0  0  0
  -28.1342  -17.6265   18.6688 H   0  0  0  0  0  0
  -27.5058  -16.6571   19.9656 H   0  0  0  0  0  0
  -28.1519  -15.8934   18.4846 H   0  0  0  0  0  0
  -36.8819  -16.9092   21.2141 H   0  0  0  0  0  0
  -36.8605  -18.3845   22.1384 H   0  0  0  0  0  0
  -35.8563  -18.2368   20.7047 H   0  0  0  0  0  0
  -36.2958  -15.6475   23.4631 H   0  0  0  0  0  0
  -34.8278  -16.0745   24.3302 H   0  0  0  0  0  0
  -36.1890  -17.1812   24.3035 H   0  0  0  0  0  0
  -35.1440  -15.3279   21.1602 H   0  0  0  0  0  0
  -33.8890  -16.4633   20.6857 H   0  0  0  0  0  0
  -33.6801  -15.4279   22.0894 H   0  0  0  0  0  0
  -33.4424  -25.2354   24.0038 H   0  0  0  0  0  0
  -31.9358  -25.9822   24.5389 H   0  0  0  0  0  0
  -33.0924  -26.8891   23.5592 H   0  0  0  0  0  0
  -34.6017  -18.9834   24.7617 H   0  0  0  0  0  0
  -35.6964  -19.5021   23.5448 H   0  0  0  0  0  0
  -30.6058  -24.0939   23.3537 H   0  0  0  0  0  0
  -30.9148  -23.7737   21.6768 H   0  0  0  0  0  0
  -30.7515  -19.9081   23.1179 H   0  0  0  0  0  0
  -32.1247  -19.9880   22.0820 H   0  0  0  0  0  0
  -30.5917  -25.3881   20.0602 H   0  0  0  0  0  0
  -31.7353  -26.6999   19.9786 H   0  0  0  0  0  0
  -32.7089  -16.6613   23.5392 H   0  0  0  0  0  0
  -32.4601  -18.1866   24.2603 H   0  0  0  0  0  0
  -29.9971  -26.2489   22.4592 H   0  0  0  0  0  0
  -31.2555  -27.4277   22.2498 H   0  0  0  0  0  0
  -29.8350  -27.5600   18.8765 H   0  0  0  0  0  0
  -29.7795  -28.2911   20.4587 H   0  0  0  0  0  0
  -31.6995  -17.5573   21.3990 H   0  0  0  0  0  0
  -33.8586  -18.7414   21.8166 H   0  0  0  0  0  0
  -29.7097  -17.6090   20.3877 H   0  0  0  0  0  0
  -32.6927  -25.3856   21.7750 H   0  0  0  0  0  0
  1 25  1  0  0  0
  1 30  2  0  0  0
  1103  1  0  0  0
  2  3  1  0  0  0
  2 25  1  0  0  0
  2105  1  0  0  0
  2106  1  0  0  0
  3  4  1  0  0  0
  3107  1  0  0  0
  3108  1  0  0  0
  4  5  1  0  0  0
  4109  1  0  0  0
  4110  1  0  0  0
  5  6  1  0  0  0
  5 26  1  0  0  0
  5111  1  0  0  0
  6 25  1  0  0  0
  6112  1  0  0  0
  6113  1  0  0  0
  7  8  2  0  0  0
  7 26  1  0  0  0
  7 29  1  0  0  0
  8  9  1  0  0  0
  8 22  1  0  0  0
  9 10  1  0  0  0
  9 27  2  0  0  0
 10 11  2  0  0  0
 10 15  1  0  0  0
 11 12  1  0  0  0
 11114  1  0  0  0
 12 13  2  0  0  0
 12115  1  0  0  0
 13 14  1  0  0  0
 13 31  1  0  0  0
 14 15  2  0  0  0
 14116  1  0  0  0
 15117  1  0  0  0
 16 17  2  0  0  0
 16 21  1  0  0  0
 16 31  1  0  0  0
 17 18  1  0  0  0
 17118  1  0  0  0
 18 19  2  0  0  0
 18119  1  0  0  0
 19 20  1  0  0  0
 19 24  1  0  0  0
 20 21  2  0  0  0
 20120  1  0  0  0
 21 23  1  0  0  0
 22 28  1  0  0  0
 22 32  2  0  0  0
 26 27  1  0  0  0
 28121  1  0  0  0
 28122  1  0  0  0
 29123  1  0  0  0
 29124  1  0  0  0
 33 34  1  0  0  0
 33 66  1  0  0  0
 33 70  2  0  0  0
 34 36  1  0  0  0
 34 59  1  0  0  0
 34125  1  0  0  0
 35 44  2  0  0  0
 35 45  1  0  0  0
 35 68  1  0  0  0
 36 56  1  0  0  0
 36126  1  0  0  0
 37 39  1  0  0  0
 37 47  1  0  0  0
 37 66  1  0  0  0
 37127  1  0  0  0
 38 43  2  0  0  0
 38 46  1  0  0  0
 38 47  1  0  0  0
 39 64  1  0  0  0
 39 67  2  0  0  0
 40 52  1  0  0  0
 40 53  2  0  0  0
 40 58  1  0  0  0
 41128  1  0  0  0
 41129  1  0  0  0
 41130  1  0  0  0
 41 48  1  0  0  0
 42 43  1  0  0  0
 42 66  1  0  0  0
 42131  1  0  0  0
 42132  1  0  0  0
 43 44  1  0  0  0
 44133  1  0  0  0
 45 46  2  0  0  0
 45134  1  0  0  0
 46135  1  0  0  0
 47136  1  0  0  0
 47137  1  0  0  0
 48 56  1  0  0  0
 48 65  1  0  0  0
 48138  1  0  0  0
 49 50  1  0  0  0
 49 53  1  0  0  0
 49 64  1  0  0  0
 49139  1  0  0  0
 50 51  1  0  0  0
 50140  1  0  0  0
 50141  1  0  0  0
 51 52  1  0  0  0
 51142  1  0  0  0
 51143  1  0  0  0
 52144  1  0  0  0
 52145  1  0  0  0
 53 54  1  0  0  0
 54 55  2  0  0  0
 54146  1  0  0  0
 55 57  1  0  0  0
 55147  1  0  0  0
 56 69  2  0  0  0
 57 58  2  0  0  0
 57148  1  0  0  0
 58149  1  0  0  0
 59 60  1  0  0  0
 59 61  1  0  0  0
 59 62  1  0  0  0
 60150  1  0  0  0
 60151  1  0  0  0
 60152  1  0  0  0
 61153  1  0  0  0
 61154  1  0  0  0
 61155  1  0  0  0
 62156  1  0  0  0
 62157  1  0  0  0
 62158  1  0  0  0
 63 65  1  0  0  0
 63159  1  0  0  0
 63160  1  0  0  0
 63161  1  0  0  0
 64162  1  0  0  0
 65163  1  0  0  0
 68 98  1  0  0  0
 71 73  2  0  0  0
 71 75  1  0  0  0
 71164  1  0  0  0
 72 74  1  0  0  0
 72 76  2  0  0  0
 72165  1  0  0  0
 73 76  1  0  0  0
 73 83  1  0  0  0
 74 75  2  0  0  0
 74 84  1  0  0  0
 75 92  1  0  0  0
 76 93  1  0  0  0
 77 78  1  0  0  0
 77 79  1  0  0  0
 77166  1  0  0  0
 77167  1  0  0  0
 78 80  1  0  0  0
 78168  1  0  0  0
 78169  1  0  0  0
 79170  1  0  0  0
 79171  1  0  0  0
 79 81  1  0  0  0
 80 82  1  0  0  0
 80172  1  0  0  0
 80173  1  0  0  0
 81 82  1  0  0  0
 81 99  1  0  0  0
 81174  1  0  0  0
 82103  1  0  0  0
 82175  1  0  0  0
 83176  1  0  0  0
 83177  1  0  0  0
 83178  1  0  0  0
 84179  1  0  0  0
 84180  1  0  0  0
 84181  1  0  0  0
 85 94  1  0  0  0
 85182  1  0  0  0
 85183  1  0  0  0
 85184  1  0  0  0
 86185  1  0  0  0
 86186  1  0  0  0
 86187  1  0  0  0
 86101  1  0  0  0
 87101  1  0  0  0
 87188  1  0  0  0
 87189  1  0  0  0
 87190  1  0  0  0
 88191  1  0  0  0
 88192  1  0  0  0
 88193  1  0  0  0
 88102  1  0  0  0
 89102  1  0  0  0
 89194  1  0  0  0
 89195  1  0  0  0
 89196  1  0  0  0
 90102  1  0  0  0
 90197  1  0  0  0
 90198  1  0  0  0
 90199  1  0  0  0
 91200  1  0  0  0
 91201  1  0  0  0
 91202  1  0  0  0
 91104  1  0  0  0
 92203  1  0  0  0
 92204  1  0  0  0
 92100  1  0  0  0
 93104  1  0  0  0
 93205  1  0  0  0
 93206  1  0  0  0
 94207  1  0  0  0
 94208  1  0  0  0
 94 99  1  0  0  0
 95 97  1  0  0  0
 95 98  1  0  0  0
 95209  1  0  0  0
 95210  1  0  0  0
 96 99  1  0  0  0
 96100  1  0  0  0
 96211  1  0  0  0
 96212  1  0  0  0
 97104  1  0  0  0
 97213  1  0  0  0
 97214  1  0  0  0
 98215  1  0  0  0
 98216  1  0  0  0
 99217  1  0  0  0
100102  1  0  0  0
100218  1  0  0  0
101103  1  0  0  0
101219  1  0  0  0
104220  1  0  0  0
M  CHG  1 104   1
M  ISO  4   1 100  68 101  98 101 103 100
M  END
> <chiral flag>
0

> <version>
0

> <s_m_source_file>
/data/baiqing/PycharmProjects/Reinvent-master-3.2/result/LINK_invent/BTK/process_docking_weight1_custom_sum_contain_oxygen_bond_distance_aromatic_linkinvent_7_9_3/rearranged_h_0023.sdf

> <i_m_source_file_index>
54

> <r_mmod_Potential_Energy-OPLS-2005>
253.632080078125

> <r_mmod_Stretch_Energy-OPLS-2005>
61.6659202575684

> <r_mmod_Bend_Energy-OPLS-2005>
174.54866027832

> <r_mmod_Torsional_Energy-OPLS-2005>
409.883972167969

> <r_mmod_Improper_Torsional_Energy-OPLS-2005>
10.677526473999

> <r_mmod_Van_der_Waal_Energy-OPLS-2005>
173.293380737305

> <r_mmod_Electrostatic_Energy-OPLS-2005>
-214.046585083008

> <r_mmod_Solvation_Energy-OPLS-2005>
-376.028106689453

> <b_mmod_Minimization_Converged-OPLS-2005>
0

> <r_mmod_RMS_Derivative-OPLS-2005>
2.83049416542053

$$$$
54
                    3D
 Structure written by MMmdl.
156164  0  0  1  0            999 V2000
  -30.7048  -14.5064   20.5406 C   0  0  0  0  0  0
  -30.4200  -12.3186   19.4284 C   0  0  0  0  0  0
  -29.4975  -12.4965   18.2058 C   0  0  0  0  0  0
  -28.0175  -12.3651   18.6193 C   0  0  0  0  0  0
  -27.6618  -13.2149   19.8710 C   0  0  2  0  0  0
  -28.7084  -13.0292   20.9927 C   0  0  0  0  0  0
  -25.2615  -13.8180   20.5696 C   0  0  0  0  0  0
  -24.1858  -13.0459   20.9160 C   0  0  0  0  0  0
  -24.6426  -11.6924   20.8717 C   0  0  0  0  0  0
  -23.9054  -10.4310   21.0368 C   0  0  0  0  0  0
  -24.3610   -9.4233   21.9168 C   0  0  0  0  0  0
  -23.6293   -8.2258   22.0744 C   0  0  0  0  0  0
  -22.4266   -8.0290   21.3539 C   0  0  0  0  0  0
  -21.9895   -9.0243   20.4638 C   0  0  0  0  0  0
  -22.7210  -10.2135   20.3028 C   0  0  0  0  0  0
  -21.6863   -6.0726   22.5281 C   0  0  0  0  0  0
  -21.4023   -6.5631   23.8208 C   0  0  0  0  0  0
  -21.3655   -5.6783   24.9169 C   0  0  0  0  0  0
  -21.6026   -4.3037   24.7221 C   0  0  0  0  0  0
  -21.8822   -3.8127   23.4345 C   0  0  0  0  0  0
  -21.9205   -4.6951   22.3409 C   0  0  0  0  0  0
  -22.7868  -13.5250   21.1802 C   0  0  0  0  0  0
  -22.1656   -4.2133   21.0983 F   0  0  0  0  0  0
  -21.5634   -3.4532   25.7739 F   0  0  0  0  0  0
  -30.0332  -13.3269   20.4307 N   0  0  0  0  0  0
  -26.3054  -12.9363   20.3377 N   0  0  0  0  0  0
  -25.9367  -11.6512   20.5742 N   0  0  0  0  0  0
  -22.0503  -12.8275   22.0380 N   0  0  0  0  0  0
  -25.4373  -15.1889   20.4131 N   0  0  0  0  0  0
  -31.8489  -14.6581   20.1014 O   0  0  0  0  0  0
  -21.6626   -6.8885   21.4246 O   0  0  0  0  0  0
  -22.3524  -14.5531   20.6636 O   0  0  0  0  0  0
  -24.6180  -31.8618   23.2065 C   0  0  0  0  0  0
  -25.9056  -32.4790   23.8369 C   0  0  1  0  0  0
  -27.2366  -27.4032   20.1006 C   0  0  0  0  0  0
  -25.5889  -33.8601   24.2283 N   0  0  0  0  0  0
  -23.4044  -30.4859   21.5490 C   0  0  2  0  0  0
  -24.8488  -28.9408   20.1131 C   0  0  0  0  0  0
  -22.7417  -29.4632   22.4994 C   0  0  0  0  0  0
  -18.0258  -28.1392   22.8470 C   0  0  0  0  0  0
  -24.1473  -36.7315   23.2648 C   0  0  0  0  0  0
  -25.9337  -30.8209   21.3576 C   0  0  0  0  0  0
  -26.0080  -29.4490   20.7109 C   0  0  0  0  0  0
  -27.1997  -28.6869   20.7044 C   0  0  0  0  0  0
  -26.0573  -26.9157   19.4953 C   0  0  0  0  0  0
  -24.8683  -27.6719   19.5059 C   0  0  0  0  0  0
  -23.6124  -29.8088   20.1655 C   0  0  0  0  0  0
  -25.4105  -36.3116   24.0337 C   0  0  1  0  0  0
  -20.5850  -28.3676   23.1317 C   0  0  2  0  0  0
  -20.6751  -26.9420   22.5416 C   0  0  0  0  0  0
  -19.5744  -26.6400   21.5203 C   0  0  0  0  0  0
  -18.1909  -26.7925   22.1607 C   0  0  0  0  0  0
  -19.1511  -28.8862   23.2874 C   0  0  0  0  0  0
  -18.9443  -30.1462   23.8889 C   0  0  0  0  0  0
  -17.6448  -30.6579   24.0581 C   0  0  0  0  0  0
  -25.9032  -34.9483   23.5107 C   0  0  0  0  0  0
  -16.5338  -29.9088   23.6332 C   0  0  0  0  0  0
  -16.7249  -28.6519   23.0324 C   0  0  0  0  0  0
  -26.4506  -31.6579   25.0692 C   0  0  0  0  0  0
  -25.3825  -31.3650   26.1461 C   0  0  0  0  0  0
  -27.0363  -30.3048   24.6053 C   0  0  0  0  0  0
  -27.6053  -32.4344   25.7449 C   0  0  0  0  0  0
  -27.5573  -37.1790   24.8465 C   0  0  0  0  0  0
  -21.4151  -29.3015   22.3719 N   0  0  0  0  0  0
  -26.4278  -37.3810   23.9426 N   0  0  0  0  0  0
  -24.6717  -31.0703   22.0965 N   0  0  0  0  0  0
  -23.4179  -28.8214   23.3073 O   0  0  0  0  0  0
  -28.4204  -26.6827   20.1479 O   0  0  0  0  0  0
  -26.5592  -34.8959   22.4668 O   0  0  0  0  0  0
  -23.5360  -32.1343   23.7457 O   0  0  0  0  0  0
  -27.7764  -20.2316   22.0800 C   0  0  0  0  0  0
  -27.8586  -19.0803   22.8791 C   0  0  0  0  0  0
  -28.5639  -20.3621   20.9196 C   0  0  0  0  0  0
  -29.5280  -18.1036   21.3653 C   0  0  0  0  0  0
  -28.7231  -18.0268   22.5329 C   0  0  0  0  0  0
  -29.4515  -19.2976   20.5704 C   0  0  0  0  0  0
  -28.3298  -21.6144   20.0435 C   0  0  0  0  0  0
  -30.5214  -16.9566   21.0348 C   0  0  0  0  0  0
  -28.6599  -22.9977   20.6906 C   0  0  0  0  0  0
  -27.8047  -24.2008   20.1647 C   0  0  0  0  0  0
  -28.5578  -25.3970   19.5032 C   0  0  0  0  0  0
  -30.0085  -15.5652   21.0051 N   0  0  0  0  0  0
  -28.7802  -16.6663   23.5996 Cl  0  0  0  0  0  0
  -30.4452  -19.4687   19.1596 Cl  0  0  0  0  0  0
  -31.4649  -12.4131   19.1269 H   0  0  0  0  0  0
  -30.3128  -11.3145   19.8426 H   0  0  0  0  0  0
  -29.7419  -11.7525   17.4466 H   0  0  0  0  0  0
  -29.6725  -13.4718   17.7489 H   0  0  0  0  0  0
  -27.8281  -11.3093   18.8182 H   0  0  0  0  0  0
  -27.3649  -12.6356   17.7888 H   0  0  0  0  0  0
  -27.6939  -14.2602   19.5608 H   0  0  0  0  0  0
  -28.6937  -12.0034   21.3600 H   0  0  0  0  0  0
  -28.4784  -13.6606   21.8525 H   0  0  0  0  0  0
  -25.2741   -9.5719   22.4782 H   0  0  0  0  0  0
  -23.9996   -7.4626   22.7462 H   0  0  0  0  0  0
  -21.0829   -8.8723   19.8951 H   0  0  0  0  0  0
  -22.3615  -10.9670   19.6151 H   0  0  0  0  0  0
  -21.1990   -7.6133   23.9709 H   0  0  0  0  0  0
  -21.1485   -6.0504   25.9081 H   0  0  0  0  0  0
  -22.0610   -2.7596   23.2816 H   0  0  0  0  0  0
  -22.4089  -11.9944   22.4800 H   0  0  0  0  0  0
  -21.1112  -13.1332   22.2510 H   0  0  0  0  0  0
  -24.6680  -15.8406   20.5144 H   0  0  0  0  0  0
  -26.2891  -15.6328   20.0934 H   0  0  0  0  0  0
  -26.7104  -32.5519   23.1113 H   0  0  0  0  0  0
  -25.0096  -33.9757   25.0463 H   0  0  0  0  0  0
  -22.6939  -31.3045   21.4068 H   0  0  0  0  0  0
  -23.3755  -35.9615   23.3307 H   0  0  0  0  0  0
  -24.3546  -36.8948   22.2056 H   0  0  0  0  0  0
  -23.7216  -37.6518   23.6669 H   0  0  0  0  0  0
  -26.0272  -31.5820   20.5826 H   0  0  0  0  0  0
  -26.8290  -30.8877   21.9652 H   0  0  0  0  0  0
  -28.0954  -29.0744   21.1744 H   0  0  0  0  0  0
  -26.0313  -25.9452   19.0242 H   0  0  0  0  0  0
  -23.9774  -27.2689   19.0456 H   0  0  0  0  0  0
  -23.7170  -30.5813   19.4020 H   0  0  0  0  0  0
  -22.7377  -29.2244   19.8732 H   0  0  0  0  0  0
  -25.1283  -36.1965   25.0824 H   0  0  0  0  0  0
  -20.9896  -28.3245   24.1461 H   0  0  0  0  0  0
  -20.5645  -26.2290   23.3592 H   0  0  0  0  0  0
  -21.6630  -26.7451   22.1241 H   0  0  0  0  0  0
  -19.6927  -25.6321   21.1201 H   0  0  0  0  0  0
  -19.6708  -27.3251   20.6760 H   0  0  0  0  0  0
  -17.4197  -26.6673   21.3992 H   0  0  0  0  0  0
  -18.0340  -26.0053   22.8991 H   0  0  0  0  0  0
  -19.7940  -30.7269   24.2234 H   0  0  0  0  0  0
  -17.5023  -31.6258   24.5196 H   0  0  0  0  0  0
  -15.5347  -30.3005   23.7664 H   0  0  0  0  0  0
  -15.8639  -28.0862   22.7007 H   0  0  0  0  0  0
  -24.6005  -30.6978   25.7825 H   0  0  0  0  0  0
  -24.9029  -32.2783   26.4977 H   0  0  0  0  0  0
  -25.8244  -30.8801   27.0175 H   0  0  0  0  0  0
  -26.2870  -29.6737   24.1256 H   0  0  0  0  0  0
  -27.4317  -29.7351   25.4470 H   0  0  0  0  0  0
  -27.8615  -30.4396   23.9064 H   0  0  0  0  0  0
  -27.2643  -33.3653   26.2001 H   0  0  0  0  0  0
  -28.3876  -32.6891   25.0284 H   0  0  0  0  0  0
  -28.0712  -31.8504   26.5397 H   0  0  0  0  0  0
  -28.2584  -38.0093   24.7533 H   0  0  0  0  0  0
  -28.1074  -36.2621   24.6257 H   0  0  0  0  0  0
  -27.2284  -37.1417   25.8868 H   0  0  0  0  0  0
  -20.9304  -29.8729   21.6940 H   0  0  0  0  0  0
  -26.0173  -38.2877   24.1481 H   0  0  0  0  0  0
  -27.0886  -21.0184   22.3579 H   0  0  0  0  0  0
  -27.2463  -18.9978   23.7668 H   0  0  0  0  0  0
  -27.2649  -21.5856   19.8033 H   0  0  0  0  0  0
  -28.8274  -21.5440   19.0766 H   0  0  0  0  0  0
  -31.3146  -16.9935   21.7830 H   0  0  0  0  0  0
  -31.0262  -17.1432   20.0895 H   0  0  0  0  0  0
  -29.7273  -23.2026   20.6065 H   0  0  0  0  0  0
  -28.4813  -22.9298   21.7628 H   0  0  0  0  0  0
  -27.1962  -24.5834   20.9859 H   0  0  0  0  0  0
  -27.0723  -23.8327   19.4426 H   0  0  0  0  0  0
  -28.2817  -25.4814   18.4500 H   0  0  0  0  0  0
  -29.6272  -25.1810   19.4867 H   0  0  0  0  0  0
  -29.0727  -15.3965   21.3423 H   0  0  0  0  0  0
  1 25  1  0  0  0
  1 30  2  0  0  0
  1 82  1  0  0  0
  2  3  1  0  0  0
  2 25  1  0  0  0
  2 85  1  0  0  0
  2 86  1  0  0  0
  3  4  1  0  0  0
  3 87  1  0  0  0
  3 88  1  0  0  0
  4  5  1  0  0  0
  4 89  1  0  0  0
  4 90  1  0  0  0
  5  6  1  0  0  0
  5 26  1  0  0  0
  5 91  1  0  0  0
  6 25  1  0  0  0
  6 92  1  0  0  0
  6 93  1  0  0  0
  7  8  2  0  0  0
  7 26  1  0  0  0
  7 29  1  0  0  0
  8  9  1  0  0  0
  8 22  1  0  0  0
  9 10  1  0  0  0
  9 27  2  0  0  0
 10 11  2  0  0  0
 10 15  1  0  0  0
 11 12  1  0  0  0
 11 94  1  0  0  0
 12 13  2  0  0  0
 12 95  1  0  0  0
 13 14  1  0  0  0
 13 31  1  0  0  0
 14 15  2  0  0  0
 14 96  1  0  0  0
 15 97  1  0  0  0
 16 17  2  0  0  0
 16 21  1  0  0  0
 16 31  1  0  0  0
 17 18  1  0  0  0
 17 98  1  0  0  0
 18 19  2  0  0  0
 18 99  1  0  0  0
 19 20  1  0  0  0
 19 24  1  0  0  0
 20 21  2  0  0  0
 20100  1  0  0  0
 21 23  1  0  0  0
 22 28  1  0  0  0
 22 32  2  0  0  0
 26 27  1  0  0  0
 28101  1  0  0  0
 28102  1  0  0  0
 29103  1  0  0  0
 29104  1  0  0  0
 33 34  1  0  0  0
 33 66  1  0  0  0
 33 70  2  0  0  0
 34 36  1  0  0  0
 34 59  1  0  0  0
 34105  1  0  0  0
 35 44  2  0  0  0
 35 45  1  0  0  0
 35 68  1  0  0  0
 36 56  1  0  0  0
 36106  1  0  0  0
 37 39  1  0  0  0
 37 47  1  0  0  0
 37 66  1  0  0  0
 37107  1  0  0  0
 38 43  2  0  0  0
 38 46  1  0  0  0
 38 47  1  0  0  0
 39 64  1  0  0  0
 39 67  2  0  0  0
 40 52  1  0  0  0
 40 53  2  0  0  0
 40 58  1  0  0  0
 41108  1  0  0  0
 41109  1  0  0  0
 41110  1  0  0  0
 41 48  1  0  0  0
 42 43  1  0  0  0
 42 66  1  0  0  0
 42111  1  0  0  0
 42112  1  0  0  0
 43 44  1  0  0  0
 44113  1  0  0  0
 45 46  2  0  0  0
 45114  1  0  0  0
 46115  1  0  0  0
 47116  1  0  0  0
 47117  1  0  0  0
 48 56  1  0  0  0
 48 65  1  0  0  0
 48118  1  0  0  0
 49 50  1  0  0  0
 49 53  1  0  0  0
 49 64  1  0  0  0
 49119  1  0  0  0
 50 51  1  0  0  0
 50120  1  0  0  0
 50121  1  0  0  0
 51 52  1  0  0  0
 51122  1  0  0  0
 51123  1  0  0  0
 52124  1  0  0  0
 52125  1  0  0  0
 53 54  1  0  0  0
 54 55  2  0  0  0
 54126  1  0  0  0
 55 57  1  0  0  0
 55127  1  0  0  0
 56 69  2  0  0  0
 57 58  2  0  0  0
 57128  1  0  0  0
 58129  1  0  0  0
 59 60  1  0  0  0
 59 61  1  0  0  0
 59 62  1  0  0  0
 60130  1  0  0  0
 60131  1  0  0  0
 60132  1  0  0  0
 61133  1  0  0  0
 61134  1  0  0  0
 61135  1  0  0  0
 62136  1  0  0  0
 62137  1  0  0  0
 62138  1  0  0  0
 63 65  1  0  0  0
 63139  1  0  0  0
 63140  1  0  0  0
 63141  1  0  0  0
 64142  1  0  0  0
 65143  1  0  0  0
 68 81  1  0  0  0
 71 72  2  0  0  0
 71 73  1  0  0  0
 71144  1  0  0  0
 72 75  1  0  0  0
 72145  1  0  0  0
 73 76  2  0  0  0
 73 77  1  0  0  0
 74 75  2  0  0  0
 74 76  1  0  0  0
 74 78  1  0  0  0
 75 83  1  0  0  0
 76 84  1  0  0  0
 77 79  1  0  0  0
 77146  1  0  0  0
 77147  1  0  0  0
 78 82  1  0  0  0
 78148  1  0  0  0
 78149  1  0  0  0
 79 80  1  0  0  0
 79150  1  0  0  0
 79151  1  0  0  0
 80 81  1  0  0  0
 80152  1  0  0  0
 80153  1  0  0  0
 81154  1  0  0  0
 81155  1  0  0  0
 82156  1  0  0  0
M  ISO  4   1 100  68 101  81 101  82 100
M  END
> <chiral flag>
0

> <version>
0

> <s_m_source_file>
/data/baiqing/PycharmProjects/Reinvent-master-3.2/result/LINK_invent/BTK/process_docking_weight1_custom_sum_contain_oxygen_bond_distance_aromatic_linkinvent_7_9_3/rearranged_h_0023.sdf

> <i_m_source_file_index>
55

> <r_mmod_Potential_Energy-OPLS-2005>
-18.2645702362061

> <r_mmod_Stretch_Energy-OPLS-2005>
48.7561912536621

> <r_mmod_Bend_Energy-OPLS-2005>
115.509391784668

> <r_mmod_Torsional_Energy-OPLS-2005>
216.541427612305

> <r_mmod_Improper_Torsional_Energy-OPLS-2005>
3.90896058082581

> <r_mmod_Van_der_Waal_Energy-OPLS-2005>
153.531219482422

> <r_mmod_Electrostatic_Energy-OPLS-2005>
-378.734466552734

> <r_mmod_Solvation_Energy-OPLS-2005>
-196.231460571289

> <b_mmod_Minimization_Converged-OPLS-2005>
0

> <r_mmod_RMS_Derivative-OPLS-2005>
4.36396169662476

$$$$
55
                    3D
 Structure written by MMmdl.
184193  0  0  1  0            999 V2000
  -30.8348  -14.4406   20.2334 C   0  0  0  0  0  0
  -30.3787  -12.2179   19.3993 C   0  0  0  0  0  0
  -29.4316  -12.3425   18.1866 C   0  0  0  0  0  0
  -27.9761  -12.2303   18.6635 C   0  0  0  0  0  0
  -27.6337  -13.1716   19.8430 C   0  0  2  0  0  0
  -28.7408  -13.1525   20.9342 C   0  0  0  0  0  0
  -25.2602  -13.8071   20.5930 C   0  0  0  0  0  0
  -24.1831  -13.0419   20.9380 C   0  0  0  0  0  0
  -24.6325  -11.6842   20.8979 C   0  0  0  0  0  0
  -23.9023  -10.4226   21.0553 C   0  0  0  0  0  0
  -24.3587   -9.4106   21.9295 C   0  0  0  0  0  0
  -23.6253   -8.2146   22.0803 C   0  0  0  0  0  0
  -22.4271   -8.0245   21.3527 C   0  0  0  0  0  0
  -21.9889   -9.0249   20.4669 C   0  0  0  0  0  0
  -22.7238  -10.2109   20.3136 C   0  0  0  0  0  0
  -21.6825   -6.0711   22.5260 C   0  0  0  0  0  0
  -21.3984   -6.5621   23.8183 C   0  0  0  0  0  0
  -21.3649   -5.6798   24.9155 C   0  0  0  0  0  0
  -21.6046   -4.3066   24.7235 C   0  0  0  0  0  0
  -21.8834   -3.8143   23.4369 C   0  0  0  0  0  0
  -21.9186   -4.6942   22.3411 C   0  0  0  0  0  0
  -22.7826  -13.5198   21.1930 C   0  0  0  0  0  0
  -22.1701   -4.2100   21.1003 F   0  0  0  0  0  0
  -21.5599   -3.4588   25.7770 F   0  0  0  0  0  0
  -30.0539  -13.3288   20.2856 N   0  0  0  0  0  0
  -26.2981  -12.9153   20.3636 N   0  0  0  0  0  0
  -25.9253  -11.6370   20.6141 N   0  0  0  0  0  0
  -22.0432  -12.8217   22.0462 N   0  0  0  0  0  0
  -25.4393  -15.1811   20.4208 N   0  0  0  0  0  0
  -31.9781  -14.4472   20.6540 O   0  0  0  0  0  0
  -21.6606   -6.8869   21.4234 O   0  0  0  0  0  0
  -22.3524  -14.5462   20.6656 O   0  0  0  0  0  0
  -24.6082  -31.8727   23.2113 C   0  0  0  0  0  0
  -25.9004  -32.4849   23.8408 C   0  0  1  0  0  0
  -27.2835  -27.4911   20.0877 C   0  0  0  0  0  0
  -25.5887  -33.8652   24.2360 N   0  0  0  0  0  0
  -23.3978  -30.4868   21.5520 C   0  0  2  0  0  0
  -24.8530  -28.9516   20.1217 C   0  0  0  0  0  0
  -22.7386  -29.4655   22.5046 C   0  0  0  0  0  0
  -18.0260  -28.1369   22.8461 C   0  0  0  0  0  0
  -24.1470  -36.7319   23.2634 C   0  0  0  0  0  0
  -25.9177  -30.8500   21.3589 C   0  0  0  0  0  0
  -26.0007  -29.4834   20.7165 C   0  0  0  0  0  0
  -27.2076  -28.7606   20.7102 C   0  0  0  0  0  0
  -26.1156  -26.9649   19.4938 C   0  0  0  0  0  0
  -24.9008  -27.6835   19.5124 C   0  0  0  0  0  0
  -23.6067  -29.8083   20.1692 C   0  0  0  0  0  0
  -25.4088  -36.3141   24.0350 C   0  0  1  0  0  0
  -20.5842  -28.3649   23.1337 C   0  0  2  0  0  0
  -20.6759  -26.9391   22.5425 C   0  0  0  0  0  0
  -19.5753  -26.6379   21.5205 C   0  0  0  0  0  0
  -18.1921  -26.7913   22.1597 C   0  0  0  0  0  0
  -19.1502  -28.8826   23.2889 C   0  0  0  0  0  0
  -18.9438  -30.1434   23.8898 C   0  0  0  0  0  0
  -17.6445  -30.6575   24.0554 C   0  0  0  0  0  0
  -25.9024  -34.9501   23.5160 C   0  0  0  0  0  0
  -16.5339  -29.9076   23.6321 C   0  0  0  0  0  0
  -16.7253  -28.6498   23.0334 C   0  0  0  0  0  0
  -26.4438  -31.6604   25.0721 C   0  0  0  0  0  0
  -25.3726  -31.3685   26.1483 C   0  0  0  0  0  0
  -27.0213  -30.3040   24.6052 C   0  0  0  0  0  0
  -27.6046  -32.4284   25.7478 C   0  0  0  0  0  0
  -27.5576  -37.1805   24.8460 C   0  0  0  0  0  0
  -21.4124  -29.3010   22.3748 N   0  0  0  0  0  0
  -26.4280  -37.3822   23.9420 N   0  0  0  0  0  0
  -24.6588  -31.0853   22.0993 N   0  0  0  0  0  0
  -23.4165  -28.8231   23.3108 O   0  0  0  0  0  0
  -28.4455  -26.7466   20.0094 O   0  0  0  0  0  0
  -26.5587  -34.8951   22.4718 O   0  0  0  0  0  0
  -23.5283  -32.1490   23.7502 O   0  0  0  0  0  0
  -30.2724  -18.1431   20.0097 C   0  0  0  0  0  0
  -29.3820  -17.4920   19.1392 C   0  0  0  0  0  0
  -28.7992  -19.6468   18.1259 C   0  0  0  0  0  0
  -29.8468  -20.2605   18.8650 C   0  0  0  0  0  0
  -30.5463  -19.5085   19.8425 C   0  0  0  0  0  0
  -28.5885  -18.2501   18.2449 C   0  0  0  0  0  0
  -32.8920  -14.9373   15.3232 C   0  0  0  0  0  0
  -33.5541  -14.4386   16.6059 C   0  0  0  0  0  0
  -32.0630  -16.1988   15.6023 C   0  0  0  0  0  0
  -32.5221  -14.2828   17.7382 C   0  0  0  0  0  0
  -31.0185  -15.9827   16.7237 C   0  0  0  0  0  0
  -31.6504  -15.5489   18.0874 C   0  0  0  0  0  0
  -27.9345  -20.4625   17.1701 C   0  0  0  0  0  0
  -32.5979  -16.6796   18.5739 C   0  0  0  0  0  0
  -30.2774  -21.6928   18.5748 C   0  0  0  0  0  0
  -29.3119  -15.9739   19.1616 C   0  0  0  0  0  0
  -29.8054  -22.6831   19.6401 C   0  0  0  0  0  0
  -30.3337  -24.1036   19.4040 C   0  0  0  0  0  0
  -30.5187  -24.8368   20.7375 C   0  0  0  0  0  0
  -30.8229  -26.3265   20.5532 C   0  0  0  0  0  0
  -29.5900  -27.2287   20.7186 C   0  0  0  0  0  0
  -30.5931  -15.2359   19.1491 N   0  0  0  0  0  0
  -31.8135  -20.1919   20.8011 Cl  0  0  0  0  0  0
  -27.4039  -17.4553   17.2544 Cl  0  0  0  0  0  0
  -31.4282  -12.2044   19.1132 H   0  0  0  0  0  0
  -30.2306  -11.2685   19.9158 H   0  0  0  0  0  0
  -29.6369  -11.5417   17.4762 H   0  0  0  0  0  0
  -29.5656  -13.2725   17.6367 H   0  0  0  0  0  0
  -27.8337  -11.1974   18.9773 H   0  0  0  0  0  0
  -27.2789  -12.3748   17.8378 H   0  0  0  0  0  0
  -27.5629  -14.1518   19.3979 H   0  0  0  0  0  0
  -28.7322  -12.2064   21.4756 H   0  0  0  0  0  0
  -28.5756  -13.9328   21.6754 H   0  0  0  0  0  0
  -25.2744   -9.5501   22.4885 H   0  0  0  0  0  0
  -23.9901   -7.4498   22.7546 H   0  0  0  0  0  0
  -21.0788   -8.8831   19.8970 H   0  0  0  0  0  0
  -22.3795  -10.9680   19.6243 H   0  0  0  0  0  0
  -21.1994   -7.6143   23.9669 H   0  0  0  0  0  0
  -21.1478   -6.0543   25.9031 H   0  0  0  0  0  0
  -22.0631   -2.7605   23.2910 H   0  0  0  0  0  0
  -22.3983  -11.9875   22.4924 H   0  0  0  0  0  0
  -21.1053  -13.1268   22.2632 H   0  0  0  0  0  0
  -24.6844  -15.8486   20.5284 H   0  0  0  0  0  0
  -26.2960  -15.6156   20.1066 H   0  0  0  0  0  0
  -26.7097  -32.5584   23.1195 H   0  0  0  0  0  0
  -25.0047  -33.9817   25.0516 H   0  0  0  0  0  0
  -22.6849  -31.3005   21.4088 H   0  0  0  0  0  0
  -23.3740  -35.9642   23.3322 H   0  0  0  0  0  0
  -24.3580  -36.8900   22.2045 H   0  0  0  0  0  0
  -23.7207  -37.6532   23.6621 H   0  0  0  0  0  0
  -26.0261  -31.6105   20.5843 H   0  0  0  0  0  0
  -26.8068  -30.9122   21.9745 H   0  0  0  0  0  0
  -28.0711  -29.2091   21.1765 H   0  0  0  0  0  0
  -26.1528  -26.0001   19.0077 H   0  0  0  0  0  0
  -24.0191  -27.2629   19.0508 H   0  0  0  0  0  0
  -23.7091  -30.5838   19.4085 H   0  0  0  0  0  0
  -22.7327  -29.2218   19.8770 H   0  0  0  0  0  0
  -25.1241  -36.2022   25.0841 H   0  0  0  0  0  0
  -20.9905  -28.3218   24.1473 H   0  0  0  0  0  0
  -20.5667  -26.2252   23.3602 H   0  0  0  0  0  0
  -21.6638  -26.7446   22.1230 H   0  0  0  0  0  0
  -19.6940  -25.6302   21.1210 H   0  0  0  0  0  0
  -19.6717  -27.3200   20.6747 H   0  0  0  0  0  0
  -17.4200  -26.6638   21.3996 H   0  0  0  0  0  0
  -18.0335  -26.0070   22.9006 H   0  0  0  0  0  0
  -19.7927  -30.7225   24.2289 H   0  0  0  0  0  0
  -17.5017  -31.6259   24.5140 H   0  0  0  0  0  0
  -15.5345  -30.2976   23.7669 H   0  0  0  0  0  0
  -15.8652  -28.0823   22.7057 H   0  0  0  0  0  0
  -24.5931  -30.6991   25.7825 H   0  0  0  0  0  0
  -24.8872  -32.2817   26.4936 H   0  0  0  0  0  0
  -25.8112  -30.8873   27.0234 H   0  0  0  0  0  0
  -26.2732  -29.6887   24.1046 H   0  0  0  0  0  0
  -27.3903  -29.7185   25.4477 H   0  0  0  0  0  0
  -27.8608  -30.4329   23.9222 H   0  0  0  0  0  0
  -27.2713  -33.3577   26.2097 H   0  0  0  0  0  0
  -28.3844  -32.6848   25.0301 H   0  0  0  0  0  0
  -28.0734  -31.8382   26.5359 H   0  0  0  0  0  0
  -28.2592  -38.0103   24.7532 H   0  0  0  0  0  0
  -28.1067  -36.2646   24.6227 H   0  0  0  0  0  0
  -27.2318  -37.1397   25.8870 H   0  0  0  0  0  0
  -20.9314  -29.8673   21.6899 H   0  0  0  0  0  0
  -26.0174  -38.2893   24.1466 H   0  0  0  0  0  0
  -30.8525  -17.5713   20.7208 H   0  0  0  0  0  0
  -32.2551  -14.1472   14.9224 H   0  0  0  0  0  0
  -33.6545  -15.1335   14.5656 H   0  0  0  0  0  0
  -34.3701  -15.0988   16.8981 H   0  0  0  0  0  0
  -34.0263  -13.4727   16.4093 H   0  0  0  0  0  0
  -31.5728  -16.5281   14.6857 H   0  0  0  0  0  0
  -32.7304  -17.0141   15.8841 H   0  0  0  0  0  0
  -33.0810  -13.8978   18.5897 H   0  0  0  0  0  0
  -31.8569  -13.4877   17.4120 H   0  0  0  0  0  0
  -30.2867  -15.2459   16.3886 H   0  0  0  0  0  0
  -30.4667  -16.9126   16.8221 H   0  0  0  0  0  0
  -27.7454  -21.4623   17.5603 H   0  0  0  0  0  0
  -26.9501  -20.0143   17.0305 H   0  0  0  0  0  0
  -28.4211  -20.5499   16.1969 H   0  0  0  0  0  0
  -33.5390  -16.7124   18.0313 H   0  0  0  0  0  0
  -32.8562  -16.6032   19.6292 H   0  0  0  0  0  0
  -32.1581  -17.6551   18.3902 H   0  0  0  0  0  0
  -29.9440  -22.0133   17.5887 H   0  0  0  0  0  0
  -31.3666  -21.7125   18.5159 H   0  0  0  0  0  0
  -28.7344  -15.5811   18.3297 H   0  0  0  0  0  0
  -28.7588  -15.7683   20.0783 H   0  0  0  0  0  0
  -30.1465  -22.3322   20.6122 H   0  0  0  0  0  0
  -28.7183  -22.6879   19.7016 H   0  0  0  0  0  0
  -29.6545  -24.6499   18.7458 H   0  0  0  0  0  0
  -31.2935  -24.0751   18.8827 H   0  0  0  0  0  0
  -31.3431  -24.3681   21.2787 H   0  0  0  0  0  0
  -29.6292  -24.7107   21.3570 H   0  0  0  0  0  0
  -31.3162  -26.5085   19.5962 H   0  0  0  0  0  0
  -31.5507  -26.6179   21.3126 H   0  0  0  0  0  0
  -29.8607  -28.2275   20.3731 H   0  0  0  0  0  0
  -29.3477  -27.2921   21.7795 H   0  0  0  0  0  0
  1 25  1  0  0  0
  1 30  2  0  0  0
  1 92  1  0  0  0
  2  3  1  0  0  0
  2 25  1  0  0  0
  2 95  1  0  0  0
  2 96  1  0  0  0
  3  4  1  0  0  0
  3 97  1  0  0  0
  3 98  1  0  0  0
  4  5  1  0  0  0
  4 99  1  0  0  0
  4100  1  0  0  0
  5  6  1  0  0  0
  5 26  1  0  0  0
  5101  1  0  0  0
  6 25  1  0  0  0
  6102  1  0  0  0
  6103  1  0  0  0
  7  8  2  0  0  0
  7 26  1  0  0  0
  7 29  1  0  0  0
  8  9  1  0  0  0
  8 22  1  0  0  0
  9 10  1  0  0  0
  9 27  2  0  0  0
 10 11  2  0  0  0
 10 15  1  0  0  0
 11 12  1  0  0  0
 11104  1  0  0  0
 12 13  2  0  0  0
 12105  1  0  0  0
 13 14  1  0  0  0
 13 31  1  0  0  0
 14 15  2  0  0  0
 14106  1  0  0  0
 15107  1  0  0  0
 16 17  2  0  0  0
 16 21  1  0  0  0
 16 31  1  0  0  0
 17 18  1  0  0  0
 17108  1  0  0  0
 18 19  2  0  0  0
 18109  1  0  0  0
 19 20  1  0  0  0
 19 24  1  0  0  0
 20 21  2  0  0  0
 20110  1  0  0  0
 21 23  1  0  0  0
 22 28  1  0  0  0
 22 32  2  0  0  0
 26 27  1  0  0  0
 28111  1  0  0  0
 28112  1  0  0  0
 29113  1  0  0  0
 29114  1  0  0  0
 33 34  1  0  0  0
 33 66  1  0  0  0
 33 70  2  0  0  0
 34 36  1  0  0  0
 34 59  1  0  0  0
 34115  1  0  0  0
 35 44  2  0  0  0
 35 45  1  0  0  0
 35 68  1  0  0  0
 36 56  1  0  0  0
 36116  1  0  0  0
 37 39  1  0  0  0
 37 47  1  0  0  0
 37 66  1  0  0  0
 37117  1  0  0  0
 38 43  2  0  0  0
 38 46  1  0  0  0
 38 47  1  0  0  0
 39 64  1  0  0  0
 39 67  2  0  0  0
 40 52  1  0  0  0
 40 53  2  0  0  0
 40 58  1  0  0  0
 41118  1  0  0  0
 41119  1  0  0  0
 41120  1  0  0  0
 41 48  1  0  0  0
 42 43  1  0  0  0
 42 66  1  0  0  0
 42121  1  0  0  0
 42122  1  0  0  0
 43 44  1  0  0  0
 44123  1  0  0  0
 45 46  2  0  0  0
 45124  1  0  0  0
 46125  1  0  0  0
 47126  1  0  0  0
 47127  1  0  0  0
 48 56  1  0  0  0
 48 65  1  0  0  0
 48128  1  0  0  0
 49 50  1  0  0  0
 49 53  1  0  0  0
 49 64  1  0  0  0
 49129  1  0  0  0
 50 51  1  0  0  0
 50130  1  0  0  0
 50131  1  0  0  0
 51 52  1  0  0  0
 51132  1  0  0  0
 51133  1  0  0  0
 52134  1  0  0  0
 52135  1  0  0  0
 53 54  1  0  0  0
 54 55  2  0  0  0
 54136  1  0  0  0
 55 57  1  0  0  0
 55137  1  0  0  0
 56 69  2  0  0  0
 57 58  2  0  0  0
 57138  1  0  0  0
 58139  1  0  0  0
 59 60  1  0  0  0
 59 61  1  0  0  0
 59 62  1  0  0  0
 60140  1  0  0  0
 60141  1  0  0  0
 60142  1  0  0  0
 61143  1  0  0  0
 61144  1  0  0  0
 61145  1  0  0  0
 62146  1  0  0  0
 62147  1  0  0  0
 62148  1  0  0  0
 63 65  1  0  0  0
 63149  1  0  0  0
 63150  1  0  0  0
 63151  1  0  0  0
 64152  1  0  0  0
 65153  1  0  0  0
 68 91  1  0  0  0
 71 72  2  0  0  0
 71 75  1  0  0  0
 71154  1  0  0  0
 72 76  1  0  0  0
 72 86  1  0  0  0
 73 74  1  0  0  0
 73 76  2  0  0  0
 73 83  1  0  0  0
 74 75  2  0  0  0
 74 85  1  0  0  0
 75 93  1  0  0  0
 76 94  1  0  0  0
 77 78  1  0  0  0
 77 79  1  0  0  0
 77155  1  0  0  0
 77156  1  0  0  0
 78 80  1  0  0  0
 78157  1  0  0  0
 78158  1  0  0  0
 79 81  1  0  0  0
 79159  1  0  0  0
 79160  1  0  0  0
 80 82  1  0  0  0
 80161  1  0  0  0
 80162  1  0  0  0
 81 82  1  0  0  0
 81163  1  0  0  0
 81164  1  0  0  0
 82 84  1  0  0  0
 82 92  1  0  0  0
 83165  1  0  0  0
 83166  1  0  0  0
 83167  1  0  0  0
 84168  1  0  0  0
 84169  1  0  0  0
 84170  1  0  0  0
 85 87  1  0  0  0
 85171  1  0  0  0
 85172  1  0  0  0
 86 92  1  0  0  0
 86173  1  0  0  0
 86174  1  0  0  0
 87 88  1  0  0  0
 87175  1  0  0  0
 87176  1  0  0  0
 88 89  1  0  0  0
 88177  1  0  0  0
 88178  1  0  0  0
 89 90  1  0  0  0
 89179  1  0  0  0
 89180  1  0  0  0
 90 91  1  0  0  0
 90181  1  0  0  0
 90182  1  0  0  0
 91183  1  0  0  0
 91184  1  0  0  0
M  ISO  4   1 100  68 101  91 101  92 100
M  END
> <chiral flag>
0

> <version>
0

> <s_m_source_file>
/data/baiqing/PycharmProjects/Reinvent-master-3.2/result/LINK_invent/BTK/process_docking_weight1_custom_sum_contain_oxygen_bond_distance_aromatic_linkinvent_7_9_3/rearranged_h_0023.sdf

> <i_m_source_file_index>
56

> <r_mmod_Potential_Energy-OPLS-2005>
413.582977294922

> <r_mmod_Stretch_Energy-OPLS-2005>
51.4519195556641

> <r_mmod_Bend_Energy-OPLS-2005>
125.465408325195

> <r_mmod_Torsional_Energy-OPLS-2005>
377.394561767578

> <r_mmod_Improper_Torsional_Energy-OPLS-2005>
25.4451599121094

> <r_mmod_Van_der_Waal_Energy-OPLS-2005>
187.522659301758

> <r_mmod_Electrostatic_Energy-OPLS-2005>
-266.804107666016

> <r_mmod_Solvation_Energy-OPLS-2005>
-174.971282958984

> <b_mmod_Minimization_Converged-OPLS-2005>
0

> <r_mmod_RMS_Derivative-OPLS-2005>
5.35136795043945

$$$$
56
                    3D
 Structure written by MMmdl.
177185  0  0  1  0            999 V2000
  -30.6813  -14.5081   20.4052 C   0  0  0  0  0  0
  -30.3984  -12.2479   19.4805 C   0  0  0  0  0  0
  -29.5086  -12.4098   18.2318 C   0  0  0  0  0  0
  -28.0134  -12.3110   18.6109 C   0  0  0  0  0  0
  -27.6461  -13.1632   19.8624 C   0  0  2  0  0  0
  -28.6979  -13.0529   20.9898 C   0  0  0  0  0  0
  -25.2616  -13.8157   20.5605 C   0  0  0  0  0  0
  -24.1820  -13.0501   20.8909 C   0  0  0  0  0  0
  -24.6223  -11.6871   20.8544 C   0  0  0  0  0  0
  -23.9001  -10.4263   21.0239 C   0  0  0  0  0  0
  -24.3711   -9.4160   21.8907 C   0  0  0  0  0  0
  -23.6367   -8.2211   22.0565 C   0  0  0  0  0  0
  -22.4267   -8.0276   21.3552 C   0  0  0  0  0  0
  -21.9751   -9.0275   20.4790 C   0  0  0  0  0  0
  -22.7040  -10.2172   20.3137 C   0  0  0  0  0  0
  -21.6854   -6.0650   22.5248 C   0  0  0  0  0  0
  -21.4125   -6.5615   23.8226 C   0  0  0  0  0  0
  -21.3617   -5.6769   24.9166 C   0  0  0  0  0  0
  -21.6089   -4.3054   24.7238 C   0  0  0  0  0  0
  -21.8798   -3.8091   23.4383 C   0  0  0  0  0  0
  -21.9213   -4.6897   22.3405 C   0  0  0  0  0  0
  -22.7885  -13.5400   21.1739 C   0  0  0  0  0  0
  -22.1698   -4.2086   21.0966 F   0  0  0  0  0  0
  -21.5546   -3.4499   25.7738 F   0  0  0  0  0  0
  -30.0099  -13.3228   20.3975 N   0  0  0  0  0  0
  -26.2967  -12.9121   20.3381 N   0  0  0  0  0  0
  -25.9149  -11.6321   20.5685 N   0  0  0  0  0  0
  -22.0608  -12.8314   22.0323 N   0  0  0  0  0  0
  -25.4584  -15.1829   20.4347 N   0  0  0  0  0  0
  -31.8755  -14.6149   20.1411 O   0  0  0  0  0  0
  -21.6697   -6.8813   21.4237 O   0  0  0  0  0  0
  -22.3501  -14.5687   20.6598 O   0  0  0  0  0  0
  -24.6177  -31.8639   23.2123 C   0  0  0  0  0  0
  -25.9071  -32.4782   23.8400 C   0  0  1  0  0  0
  -27.1335  -27.3921   20.0408 C   0  0  0  0  0  0
  -25.5895  -33.8590   24.2288 N   0  0  0  0  0  0
  -23.4085  -30.4917   21.5581 C   0  0  2  0  0  0
  -24.8235  -28.9883   20.0735 C   0  0  0  0  0  0
  -22.7434  -29.4629   22.5030 C   0  0  0  0  0  0
  -18.0262  -28.1364   22.8502 C   0  0  0  0  0  0
  -24.1476  -36.7275   23.2646 C   0  0  0  0  0  0
  -25.9407  -30.7949   21.3849 C   0  0  0  0  0  0
  -25.9908  -29.4490   20.6960 C   0  0  0  0  0  0
  -27.1610  -28.6521   20.6879 C   0  0  0  0  0  0
  -25.9716  -26.9811   19.3725 C   0  0  0  0  0  0
  -24.8048  -27.7514   19.4067 C   0  0  0  0  0  0
  -23.5952  -29.8606   20.1582 C   0  0  0  0  0  0
  -25.4112  -36.3099   24.0324 C   0  0  1  0  0  0
  -20.5852  -28.3658   23.1336 C   0  0  2  0  0  0
  -20.6744  -26.9401   22.5442 C   0  0  0  0  0  0
  -19.5742  -26.6368   21.5210 C   0  0  0  0  0  0
  -18.1906  -26.7913   22.1606 C   0  0  0  0  0  0
  -19.1520  -28.8814   23.2906 C   0  0  0  0  0  0
  -18.9466  -30.1417   23.8909 C   0  0  0  0  0  0
  -17.6468  -30.6583   24.0560 C   0  0  0  0  0  0
  -25.9042  -34.9461   23.5127 C   0  0  0  0  0  0
  -16.5349  -29.9087   23.6325 C   0  0  0  0  0  0
  -16.7245  -28.6499   23.0351 C   0  0  0  0  0  0
  -26.4477  -31.6624   25.0797 C   0  0  0  0  0  0
  -25.3719  -31.3728   26.1537 C   0  0  0  0  0  0
  -27.0309  -30.3047   24.6278 C   0  0  0  0  0  0
  -27.6007  -32.4410   25.7490 C   0  0  0  0  0  0
  -27.5581  -37.1781   24.8475 C   0  0  0  0  0  0
  -21.4154  -29.2998   22.3709 N   0  0  0  0  0  0
  -26.4298  -37.3786   23.9405 N   0  0  0  0  0  0
  -24.6765  -31.0660   22.1075 N   0  0  0  0  0  0
  -23.4131  -28.8198   23.3159 O   0  0  0  0  0  0
  -28.0662  -26.4136   20.2716 O   0  0  0  0  0  0
  -26.5665  -34.8919   22.4718 O   0  0  0  0  0  0
  -23.5337  -32.1447   23.7477 O   0  0  0  0  0  0
  -25.5807  -21.8725   19.0684 C   0  0  0  0  0  0
  -26.3408  -22.8186   18.3627 C   0  0  0  0  0  0
  -25.8022  -22.1321   20.3758 C   0  0  0  0  0  0
  -25.5185  -21.0767   21.3922 C   0  0  0  0  0  0
  -25.4083  -23.1297   23.5790 C   0  0  0  0  0  0
  -28.4200  -23.3476   21.7882 C   0  0  0  0  0  0
  -26.6540  -22.7993   16.8956 C   0  0  0  0  0  0
  -26.2517  -24.2336   22.9218 C   0  0  0  0  0  0
  -28.6070  -18.3357   17.9531 C   0  0  0  0  0  0
  -29.4431  -17.7740   19.1373 C   0  0  0  0  0  0
  -28.4878  -19.8837   17.9180 C   0  0  0  0  0  0
  -29.3823  -16.2323   19.1869 C   0  0  0  0  0  0
  -27.6997  -20.4623   16.7044 C   0  0  0  0  0  0
  -27.6047  -25.6703   21.4493 C   0  0  0  0  0  0
  -27.1148  -24.1296   21.5966 C   0  0  1  0  0  0
  -26.8558  -23.7202   19.1995 N   0  0  0  0  0  0
  -26.4520  -23.3999   20.4685 N   0  0  0  0  0  0
  -29.9237  -15.6245   20.4215 N   0  0  0  0  0  0
  -27.8264  -21.9492   16.5814 N   0  3  0  0  0  0
  -24.8226  -20.4428   18.4355 Cl  0  0  0  0  0  0
  -31.4640  -12.2642   19.2376 H   0  0  0  0  0  0
  -30.2198  -11.2760   19.9500 H   0  0  0  0  0  0
  -29.7576  -11.6411   17.4974 H   0  0  0  0  0  0
  -29.7016  -13.3660   17.7547 H   0  0  0  0  0  0
  -27.7959  -11.2660   18.8177 H   0  0  0  0  0  0
  -27.3893  -12.6014   17.7627 H   0  0  0  0  0  0
  -27.6515  -14.1800   19.5025 H   0  0  0  0  0  0
  -28.6743  -12.0535   21.4341 H   0  0  0  0  0  0
  -28.4780  -13.7526   21.7990 H   0  0  0  0  0  0
  -25.2901   -9.5560   22.4385 H   0  0  0  0  0  0
  -24.0212   -7.4497   22.7094 H   0  0  0  0  0  0
  -21.0503   -8.9000   19.9323 H   0  0  0  0  0  0
  -22.3327  -10.9823   19.6491 H   0  0  0  0  0  0
  -21.2297   -7.6142   23.9721 H   0  0  0  0  0  0
  -21.1409   -6.0499   25.9075 H   0  0  0  0  0  0
  -22.0645   -2.7556   23.2919 H   0  0  0  0  0  0
  -22.4330  -11.9848   22.4402 H   0  0  0  0  0  0
  -21.1258  -13.1254   22.2781 H   0  0  0  0  0  0
  -24.7109  -15.8548   20.5822 H   0  0  0  0  0  0
  -26.3687  -15.6057   20.3102 H   0  0  0  0  0  0
  -26.7111  -32.5433   23.1060 H   0  0  0  0  0  0
  -24.9896  -33.9729   25.0352 H   0  0  0  0  0  0
  -22.7030  -31.3116   21.4456 H   0  0  0  0  0  0
  -23.3746  -35.9604   23.3364 H   0  0  0  0  0  0
  -24.3545  -36.8848   22.2051 H   0  0  0  0  0  0
  -23.7213  -37.6476   23.6642 H   0  0  0  0  0  0
  -26.1082  -31.5748   20.6413 H   0  0  0  0  0  0
  -26.8049  -30.7884   22.0368 H   0  0  0  0  0  0
  -28.0386  -28.9716   21.2346 H   0  0  0  0  0  0
  -25.9300  -26.0279   18.8704 H   0  0  0  0  0  0
  -23.9250  -27.4076   18.8777 H   0  0  0  0  0  0
  -23.6764  -30.6468   19.4081 H   0  0  0  0  0  0
  -22.7225  -29.2659   19.8948 H   0  0  0  0  0  0
  -25.1291  -36.1925   25.0813 H   0  0  0  0  0  0
  -20.9918  -28.3203   24.1471 H   0  0  0  0  0  0
  -20.5582  -26.2270   23.3629 H   0  0  0  0  0  0
  -21.6621  -26.7369   22.1294 H   0  0  0  0  0  0
  -19.6898  -25.6278   21.1238 H   0  0  0  0  0  0
  -19.6703  -27.3175   20.6756 H   0  0  0  0  0  0
  -17.4188  -26.6672   21.4005 H   0  0  0  0  0  0
  -18.0300  -26.0033   22.8995 H   0  0  0  0  0  0
  -19.7943  -30.7220   24.2294 H   0  0  0  0  0  0
  -17.5038  -31.6280   24.5148 H   0  0  0  0  0  0
  -15.5359  -30.3003   23.7642 H   0  0  0  0  0  0
  -15.8648  -28.0815   22.7073 H   0  0  0  0  0  0
  -24.5920  -30.7017   25.7917 H   0  0  0  0  0  0
  -24.8860  -32.2869   26.4959 H   0  0  0  0  0  0
  -25.8091  -30.8943   27.0316 H   0  0  0  0  0  0
  -26.2856  -29.6747   24.1397 H   0  0  0  0  0  0
  -27.4116  -29.7354   25.4773 H   0  0  0  0  0  0
  -27.8712  -30.4347   23.9444 H   0  0  0  0  0  0
  -27.2585  -33.3693   26.2053 H   0  0  0  0  0  0
  -28.3743  -32.7014   25.0270 H   0  0  0  0  0  0
  -28.0757  -31.8593   26.5380 H   0  0  0  0  0  0
  -28.2638  -38.0049   24.7514 H   0  0  0  0  0  0
  -28.1038  -36.2580   24.6310 H   0  0  0  0  0  0
  -27.2314  -37.1457   25.8890 H   0  0  0  0  0  0
  -20.9287  -29.8683   21.6936 H   0  0  0  0  0  0
  -26.0185  -38.2860   24.1408 H   0  0  0  0  0  0
  -25.7234  -20.1055   20.9412 H   0  0  0  0  0  0
  -24.4657  -21.0467   21.6932 H   0  0  0  0  0  0
  -26.1783  -21.1094   22.2424 H   0  0  0  0  0  0
  -25.9941  -22.2666   23.9131 H   0  0  0  0  0  0
  -24.5442  -22.8570   22.9772 H   0  0  0  0  0  0
  -24.9609  -23.5412   24.4891 H   0  0  0  0  0  0
  -28.1754  -22.3194   22.0652 H   0  0  0  0  0  0
  -29.0584  -23.7731   22.5641 H   0  0  0  0  0  0
  -28.9825  -23.3404   20.8471 H   0  0  0  0  0  0
  -26.8627  -23.8222   16.5785 H   0  0  0  0  0  0
  -25.7922  -22.4698   16.3156 H   0  0  0  0  0  0
  -26.9247  -24.6340   23.6923 H   0  0  0  0  0  0
  -25.4976  -25.0079   22.7712 H   0  0  0  0  0  0
  -27.6060  -17.9012   17.9898 H   0  0  0  0  0  0
  -29.0274  -17.9731   17.0245 H   0  0  0  0  0  0
  -30.4812  -18.1140   19.1069 H   0  0  0  0  0  0
  -29.0263  -18.1613   20.0709 H   0  0  0  0  0  0
  -29.4961  -20.3018   17.9351 H   0  0  0  0  0  0
  -28.0094  -20.2082   18.8342 H   0  0  0  0  0  0
  -29.8611  -15.8272   18.2881 H   0  0  0  0  0  0
  -28.3268  -15.9943   19.1110 H   0  0  0  0  0  0
  -26.6529  -20.1532   16.6937 H   0  0  0  0  0  0
  -28.1245  -20.0368   15.7971 H   0  0  0  0  0  0
  -28.4279  -25.7904   22.1500 H   0  0  0  0  0  0
  -26.8599  -26.2865   21.9700 H   0  0  0  0  0  0
  -30.4053  -16.3488   20.9373 H   0  0  0  0  0  0
  -28.5911  -22.2842   17.1331 H   0  0  0  0  0  0
  -28.0166  -22.1326   15.6129 H   0  0  0  0  0  0
  1 25  1  0  0  0
  1 30  2  0  0  0
  1 88  1  0  0  0
  2  3  1  0  0  0
  2 25  1  0  0  0
  2 91  1  0  0  0
  2 92  1  0  0  0
  3  4  1  0  0  0
  3 93  1  0  0  0
  3 94  1  0  0  0
  4  5  1  0  0  0
  4 95  1  0  0  0
  4 96  1  0  0  0
  5  6  1  0  0  0
  5 26  1  0  0  0
  5 97  1  0  0  0
  6 25  1  0  0  0
  6 98  1  0  0  0
  6 99  1  0  0  0
  7  8  2  0  0  0
  7 26  1  0  0  0
  7 29  1  0  0  0
  8  9  1  0  0  0
  8 22  1  0  0  0
  9 10  1  0  0  0
  9 27  2  0  0  0
 10 11  2  0  0  0
 10 15  1  0  0  0
 11 12  1  0  0  0
 11100  1  0  0  0
 12 13  2  0  0  0
 12101  1  0  0  0
 13 14  1  0  0  0
 13 31  1  0  0  0
 14 15  2  0  0  0
 14102  1  0  0  0
 15103  1  0  0  0
 16 17  2  0  0  0
 16 21  1  0  0  0
 16 31  1  0  0  0
 17 18  1  0  0  0
 17104  1  0  0  0
 18 19  2  0  0  0
 18105  1  0  0  0
 19 20  1  0  0  0
 19 24  1  0  0  0
 20 21  2  0  0  0
 20106  1  0  0  0
 21 23  1  0  0  0
 22 28  1  0  0  0
 22 32  2  0  0  0
 26 27  1  0  0  0
 28107  1  0  0  0
 28108  1  0  0  0
 29109  1  0  0  0
 29110  1  0  0  0
 33 34  1  0  0  0
 33 66  1  0  0  0
 33 70  2  0  0  0
 34 36  1  0  0  0
 34 59  1  0  0  0
 34111  1  0  0  0
 35 44  2  0  0  0
 35 45  1  0  0  0
 35 68  1  0  0  0
 36 56  1  0  0  0
 36112  1  0  0  0
 37 39  1  0  0  0
 37 47  1  0  0  0
 37 66  1  0  0  0
 37113  1  0  0  0
 38 43  2  0  0  0
 38 46  1  0  0  0
 38 47  1  0  0  0
 39 64  1  0  0  0
 39 67  2  0  0  0
 40 52  1  0  0  0
 40 53  2  0  0  0
 40 58  1  0  0  0
 41114  1  0  0  0
 41115  1  0  0  0
 41116  1  0  0  0
 41 48  1  0  0  0
 42 43  1  0  0  0
 42 66  1  0  0  0
 42117  1  0  0  0
 42118  1  0  0  0
 43 44  1  0  0  0
 44119  1  0  0  0
 45 46  2  0  0  0
 45120  1  0  0  0
 46121  1  0  0  0
 47122  1  0  0  0
 47123  1  0  0  0
 48 56  1  0  0  0
 48 65  1  0  0  0
 48124  1  0  0  0
 49 50  1  0  0  0
 49 53  1  0  0  0
 49 64  1  0  0  0
 49125  1  0  0  0
 50 51  1  0  0  0
 50126  1  0  0  0
 50127  1  0  0  0
 51 52  1  0  0  0
 51128  1  0  0  0
 51129  1  0  0  0
 52130  1  0  0  0
 52131  1  0  0  0
 53 54  1  0  0  0
 54 55  2  0  0  0
 54132  1  0  0  0
 55 57  1  0  0  0
 55133  1  0  0  0
 56 69  2  0  0  0
 57 58  2  0  0  0
 57134  1  0  0  0
 58135  1  0  0  0
 59 60  1  0  0  0
 59 61  1  0  0  0
 59 62  1  0  0  0
 60136  1  0  0  0
 60137  1  0  0  0
 60138  1  0  0  0
 61139  1  0  0  0
 61140  1  0  0  0
 61141  1  0  0  0
 62142  1  0  0  0
 62143  1  0  0  0
 62144  1  0  0  0
 63 65  1  0  0  0
 63145  1  0  0  0
 63146  1  0  0  0
 63147  1  0  0  0
 64148  1  0  0  0
 65149  1  0  0  0
 68 84  1  0  0  0
 71 72  1  0  0  0
 71 73  2  0  0  0
 71 90  1  0  0  0
 72 77  1  0  0  0
 72 86  2  0  0  0
 73 74  1  0  0  0
 73 87  1  0  0  0
 74150  1  0  0  0
 74151  1  0  0  0
 74152  1  0  0  0
 75 78  1  0  0  0
 75153  1  0  0  0
 75154  1  0  0  0
 75155  1  0  0  0
 76156  1  0  0  0
 76157  1  0  0  0
 76158  1  0  0  0
 76 85  1  0  0  0
 77 89  1  0  0  0
 77159  1  0  0  0
 77160  1  0  0  0
 78 85  1  0  0  0
 78161  1  0  0  0
 78162  1  0  0  0
 79 80  1  0  0  0
 79 81  1  0  0  0
 79163  1  0  0  0
 79164  1  0  0  0
 80 82  1  0  0  0
 80165  1  0  0  0
 80166  1  0  0  0
 81 83  1  0  0  0
 81167  1  0  0  0
 81168  1  0  0  0
 82 88  1  0  0  0
 82169  1  0  0  0
 82170  1  0  0  0
 83 89  1  0  0  0
 83171  1  0  0  0
 83172  1  0  0  0
 84 85  1  0  0  0
 84173  1  0  0  0
 84174  1  0  0  0
 85 87  1  0  0  0
 86 87  1  0  0  0
 88175  1  0  0  0
 89176  1  0  0  0
 89177  1  0  0  0
M  CHG  1  89   1
M  ISO  4   1 100  68 101  84 101  88 100
M  END
> <chiral flag>
0

> <version>
0

> <s_m_source_file>
/data/baiqing/PycharmProjects/Reinvent-master-3.2/result/LINK_invent/BTK/process_docking_weight1_custom_sum_contain_oxygen_bond_distance_aromatic_linkinvent_7_9_3/rearranged_h_0023.sdf

> <i_m_source_file_index>
57

> <r_mmod_Potential_Energy-OPLS-2005>
85.1895904541016

> <r_mmod_Stretch_Energy-OPLS-2005>
63.4388618469238

> <r_mmod_Bend_Energy-OPLS-2005>
248.576904296875

> <r_mmod_Torsional_Energy-OPLS-2005>
355.083587646484

> <r_mmod_Improper_Torsional_Energy-OPLS-2005>
20.8789577484131

> <r_mmod_Van_der_Waal_Energy-OPLS-2005>
147.349243164062

> <r_mmod_Electrostatic_Energy-OPLS-2005>
-354.245056152344

> <r_mmod_Solvation_Energy-OPLS-2005>
-461.869903564453

> <b_mmod_Minimization_Converged-OPLS-2005>
0

> <r_mmod_RMS_Derivative-OPLS-2005>
16.1211357116699

$$$$
57
                    3D
 Structure written by MMmdl.
153161  0  0  1  0            999 V2000
  -30.4736  -15.0455   20.4019 C   0  0  0  0  0  0
  -30.4426  -12.6486   19.5167 C   0  0  0  0  0  0
  -29.5291  -12.5622   18.2697 C   0  0  0  0  0  0
  -28.0646  -12.3183   18.6806 C   0  0  0  0  0  0
  -27.6251  -13.2485   19.8401 C   0  0  2  0  0  0
  -28.6626  -13.3006   20.9824 C   0  0  0  0  0  0
  -25.2444  -13.8181   20.5800 C   0  0  0  0  0  0
  -24.1769  -13.0400   20.9282 C   0  0  0  0  0  0
  -24.6389  -11.6894   20.8744 C   0  0  0  0  0  0
  -23.9080  -10.4268   21.0386 C   0  0  0  0  0  0
  -24.3639   -9.4186   21.9168 C   0  0  0  0  0  0
  -23.6306   -8.2224   22.0740 C   0  0  0  0  0  0
  -22.4283   -8.0271   21.3534 C   0  0  0  0  0  0
  -21.9917   -9.0245   20.4635 C   0  0  0  0  0  0
  -22.7251  -10.2121   20.3039 C   0  0  0  0  0  0
  -21.6848   -6.0741   22.5288 C   0  0  0  0  0  0
  -21.4007   -6.5637   23.8227 C   0  0  0  0  0  0
  -21.3657   -5.6788   24.9183 C   0  0  0  0  0  0
  -21.6045   -4.3055   24.7225 C   0  0  0  0  0  0
  -21.8822   -3.8146   23.4341 C   0  0  0  0  0  0
  -21.9194   -4.6969   22.3403 C   0  0  0  0  0  0
  -22.7786  -13.5176   21.1925 C   0  0  0  0  0  0
  -22.1657   -4.2157   21.0974 F   0  0  0  0  0  0
  -21.5638   -3.4533   25.7731 F   0  0  0  0  0  0
  -29.9332  -13.7492   20.3940 N   0  0  0  0  0  0
  -26.2856  -12.9421   20.3232 N   0  0  0  0  0  0
  -25.9312  -11.6546   20.5690 N   0  0  0  0  0  0
  -22.0425  -12.8166   22.0473 N   0  0  0  0  0  0
  -25.4067  -15.1912   20.4350 N   0  0  0  0  0  0
  -31.6632  -15.1331   20.0700 O   0  0  0  0  0  0
  -21.6630   -6.8878   21.4246 O   0  0  0  0  0  0
  -22.3467  -14.5466   20.6750 O   0  0  0  0  0  0
  -24.6486  -31.8369   23.1790 C   0  0  0  0  0  0
  -25.9236  -32.4651   23.8200 C   0  0  1  0  0  0
  -27.2248  -27.0610   20.1628 C   0  0  0  0  0  0
  -25.5961  -33.8458   24.2122 N   0  0  0  0  0  0
  -23.4558  -30.4495   21.5271 C   0  0  2  0  0  0
  -24.9091  -28.8601   20.1033 C   0  0  0  0  0  0
  -22.7587  -29.4500   22.4841 C   0  0  0  0  0  0
  -18.0308  -28.1395   22.8481 C   0  0  0  0  0  0
  -24.1493  -36.7229   23.2642 C   0  0  0  0  0  0
  -26.0148  -30.6840   21.3904 C   0  0  0  0  0  0
  -26.0841  -29.2879   20.7323 C   0  0  0  0  0  0
  -27.2348  -28.4035   20.7458 C   0  0  0  0  0  0
  -26.0271  -26.7509   19.4836 C   0  0  0  0  0  0
  -24.8988  -27.6097   19.4601 C   0  0  0  0  0  0
  -23.6853  -29.7691   20.1490 C   0  0  0  0  0  0
  -25.4136  -36.3008   24.0304 C   0  0  1  0  0  0
  -20.5919  -28.3730   23.1239 C   0  0  2  0  0  0
  -20.6789  -26.9429   22.5422 C   0  0  0  0  0  0
  -19.5763  -26.6377   21.5231 C   0  0  0  0  0  0
  -18.1941  -26.7932   22.1630 C   0  0  0  0  0  0
  -19.1559  -28.8886   23.2851 C   0  0  0  0  0  0
  -18.9473  -30.1476   23.8880 C   0  0  0  0  0  0
  -17.6466  -30.6596   24.0555 C   0  0  0  0  0  0
  -25.9094  -34.9389   23.5028 C   0  0  0  0  0  0
  -16.5360  -29.9088   23.6337 C   0  0  0  0  0  0
  -16.7286  -28.6500   23.0366 C   0  0  0  0  0  0
  -26.4530  -31.6544   25.0674 C   0  0  0  0  0  0
  -25.3668  -31.3779   26.1336 C   0  0  0  0  0  0
  -27.0409  -30.2925   24.6319 C   0  0  0  0  0  0
  -27.6052  -32.4322   25.7466 C   0  0  0  0  0  0
  -27.5577  -37.1771   24.8463 C   0  0  0  0  0  0
  -21.4277  -29.3030   22.3592 N   0  0  0  0  0  0
  -26.4291  -37.3736   23.9406 N   0  0  0  0  0  0
  -24.7263  -31.0143   22.0863 N   0  0  0  0  0  0
  -23.4205  -28.8085   23.3043 O   0  0  0  0  0  0
  -28.2777  -26.0597   20.3030 O   0  0  0  0  0  0
  -26.5696  -34.8908   22.4624 O   0  0  0  0  0  0
  -23.5596  -32.1288   23.6969 O   0  0  0  0  0  0
  -28.3563  -18.0011   19.4048 C   0  0  0  0  0  0
  -28.1577  -19.3753   19.3527 C   0  0  0  0  0  0
  -29.4397  -17.6694   20.2726 C   0  0  0  0  0  0
  -27.1508  -20.1350   18.5543 C   0  0  0  0  0  0
  -30.6369  -21.8321   21.0833 C   0  0  0  0  0  0
  -28.3491  -22.9829   20.4656 C   0  0  0  0  0  0
  -28.3879  -24.5673   19.7571 C   0  0  0  0  0  0
  -29.4036  -21.6344   20.1899 C   0  0  2  0  0  0
  -29.8669  -18.9421   20.7205 N   0  0  0  0  0  0
  -29.0849  -20.0408   20.1606 N   0  0  0  0  0  0
  -29.6561  -16.1874   20.7116 N   0  0  0  0  0  0
  -27.4128  -16.8464   18.5346 Cl  0  0  0  0  0  0
  -31.4743  -12.8227   19.2079 H   0  0  0  0  0  0
  -30.4538  -11.7000   20.0572 H   0  0  0  0  0  0
  -29.8728  -11.7731   17.5995 H   0  0  0  0  0  0
  -29.5979  -13.4948   17.7077 H   0  0  0  0  0  0
  -27.9768  -11.2772   18.9926 H   0  0  0  0  0  0
  -27.4031  -12.4352   17.8206 H   0  0  0  0  0  0
  -27.5804  -14.2444   19.4064 H   0  0  0  0  0  0
  -28.7672  -12.3250   21.4591 H   0  0  0  0  0  0
  -28.3361  -13.9892   21.7624 H   0  0  0  0  0  0
  -25.2781   -9.5673   22.4752 H   0  0  0  0  0  0
  -24.0023   -7.4605   22.7454 H   0  0  0  0  0  0
  -21.0850   -8.8766   19.8945 H   0  0  0  0  0  0
  -22.3700  -10.9670   19.6161 H   0  0  0  0  0  0
  -21.1988   -7.6144   23.9740 H   0  0  0  0  0  0
  -21.1478   -6.0504   25.9096 H   0  0  0  0  0  0
  -22.0603   -2.7612   23.2833 H   0  0  0  0  0  0
  -22.4022  -11.9831   22.4879 H   0  0  0  0  0  0
  -21.1032  -13.1190   22.2651 H   0  0  0  0  0  0
  -24.6273  -15.8289   20.5511 H   0  0  0  0  0  0
  -26.2015  -15.6246   19.9811 H   0  0  0  0  0  0
  -26.7291  -32.5232   23.0913 H   0  0  0  0  0  0
  -25.0046  -33.9556   25.0224 H   0  0  0  0  0  0
  -22.7612  -31.2769   21.3660 H   0  0  0  0  0  0
  -23.3776  -35.9538   23.3288 H   0  0  0  0  0  0
  -24.3568  -36.8887   22.2058 H   0  0  0  0  0  0
  -23.7226  -37.6406   23.6702 H   0  0  0  0  0  0
  -26.1802  -31.4352   20.6172 H   0  0  0  0  0  0
  -26.8809  -30.7355   22.0383 H   0  0  0  0  0  0
  -28.1242  -28.7244   21.2702 H   0  0  0  0  0  0
  -25.9257  -25.7896   19.0030 H   0  0  0  0  0  0
  -24.0028  -27.2777   18.9547 H   0  0  0  0  0  0
  -23.8196  -30.5398   19.3895 H   0  0  0  0  0  0
  -22.7987  -29.2106   19.8434 H   0  0  0  0  0  0
  -25.1333  -36.1817   25.0796 H   0  0  0  0  0  0
  -21.0011  -28.3332   24.1364 H   0  0  0  0  0  0
  -20.5704  -26.2341   23.3650 H   0  0  0  0  0  0
  -21.6652  -26.7443   22.1205 H   0  0  0  0  0  0
  -19.6929  -25.6285   21.1278 H   0  0  0  0  0  0
  -19.6704  -27.3180   20.6759 H   0  0  0  0  0  0
  -17.4223  -26.6696   21.4023 H   0  0  0  0  0  0
  -18.0319  -26.0080   22.9025 H   0  0  0  0  0  0
  -19.7955  -30.7293   24.2247 H   0  0  0  0  0  0
  -17.5026  -31.6279   24.5153 H   0  0  0  0  0  0
  -15.5360  -30.2981   23.7678 H   0  0  0  0  0  0
  -15.8688  -28.0813   22.7102 H   0  0  0  0  0  0
  -24.5843  -30.7151   25.7622 H   0  0  0  0  0  0
  -24.8860  -32.2985   26.4658 H   0  0  0  0  0  0
  -25.7886  -30.8984   27.0174 H   0  0  0  0  0  0
  -26.3042  -29.6616   24.1331 H   0  0  0  0  0  0
  -27.3998  -29.7267   25.4926 H   0  0  0  0  0  0
  -27.8962  -30.4139   23.9667 H   0  0  0  0  0  0
  -27.2636  -33.3640   26.1988 H   0  0  0  0  0  0
  -28.3889  -32.6852   25.0311 H   0  0  0  0  0  0
  -28.0691  -31.8475   26.5421 H   0  0  0  0  0  0
  -28.2588  -38.0073   24.7529 H   0  0  0  0  0  0
  -28.1080  -36.2611   24.6277 H   0  0  0  0  0  0
  -27.2293  -37.1395   25.8861 H   0  0  0  0  0  0
  -20.9508  -29.8683   21.6706 H   0  0  0  0  0  0
  -26.0150  -38.2798   24.1421 H   0  0  0  0  0  0
  -26.5417  -19.4657   17.9477 H   0  0  0  0  0  0
  -27.6359  -20.8394   17.8798 H   0  0  0  0  0  0
  -26.4772  -20.6871   19.2099 H   0  0  0  0  0  0
  -31.0016  -22.8582   21.0391 H   0  0  0  0  0  0
  -31.4552  -21.1805   20.7750 H   0  0  0  0  0  0
  -30.4046  -21.5991   22.1229 H   0  0  0  0  0  0
  -27.3414  -22.6165   20.2721 H   0  0  0  0  0  0
  -28.3446  -23.1398   21.5442 H   0  0  0  0  0  0
  -27.7369  -24.5156   18.8854 H   0  0  0  0  0  0
  -29.3801  -24.5934   19.3063 H   0  0  0  0  0  0
  -29.7532  -21.8196   19.1732 H   0  0  0  0  0  0
  -28.7844  -15.8195   21.0592 H   0  0  0  0  0  0
  1 25  1  0  0  0
  1 30  2  0  0  0
  1 81  1  0  0  0
  2  3  1  0  0  0
  2 25  1  0  0  0
  2 83  1  0  0  0
  2 84  1  0  0  0
  3  4  1  0  0  0
  3 85  1  0  0  0
  3 86  1  0  0  0
  4  5  1  0  0  0
  4 87  1  0  0  0
  4 88  1  0  0  0
  5  6  1  0  0  0
  5 26  1  0  0  0
  5 89  1  0  0  0
  6 25  1  0  0  0
  6 90  1  0  0  0
  6 91  1  0  0  0
  7  8  2  0  0  0
  7 26  1  0  0  0
  7 29  1  0  0  0
  8  9  1  0  0  0
  8 22  1  0  0  0
  9 10  1  0  0  0
  9 27  2  0  0  0
 10 11  2  0  0  0
 10 15  1  0  0  0
 11 12  1  0  0  0
 11 92  1  0  0  0
 12 13  2  0  0  0
 12 93  1  0  0  0
 13 14  1  0  0  0
 13 31  1  0  0  0
 14 15  2  0  0  0
 14 94  1  0  0  0
 15 95  1  0  0  0
 16 17  2  0  0  0
 16 21  1  0  0  0
 16 31  1  0  0  0
 17 18  1  0  0  0
 17 96  1  0  0  0
 18 19  2  0  0  0
 18 97  1  0  0  0
 19 20  1  0  0  0
 19 24  1  0  0  0
 20 21  2  0  0  0
 20 98  1  0  0  0
 21 23  1  0  0  0
 22 28  1  0  0  0
 22 32  2  0  0  0
 26 27  1  0  0  0
 28 99  1  0  0  0
 28100  1  0  0  0
 29101  1  0  0  0
 29102  1  0  0  0
 33 34  1  0  0  0
 33 66  1  0  0  0
 33 70  2  0  0  0
 34 36  1  0  0  0
 34 59  1  0  0  0
 34103  1  0  0  0
 35 44  2  0  0  0
 35 45  1  0  0  0
 35 68  1  0  0  0
 36 56  1  0  0  0
 36104  1  0  0  0
 37 39  1  0  0  0
 37 47  1  0  0  0
 37 66  1  0  0  0
 37105  1  0  0  0
 38 43  2  0  0  0
 38 46  1  0  0  0
 38 47  1  0  0  0
 39 64  1  0  0  0
 39 67  2  0  0  0
 40 52  1  0  0  0
 40 53  2  0  0  0
 40 58  1  0  0  0
 41106  1  0  0  0
 41107  1  0  0  0
 41108  1  0  0  0
 41 48  1  0  0  0
 42 43  1  0  0  0
 42 66  1  0  0  0
 42109  1  0  0  0
 42110  1  0  0  0
 43 44  1  0  0  0
 44111  1  0  0  0
 45 46  2  0  0  0
 45112  1  0  0  0
 46113  1  0  0  0
 47114  1  0  0  0
 47115  1  0  0  0
 48 56  1  0  0  0
 48 65  1  0  0  0
 48116  1  0  0  0
 49 50  1  0  0  0
 49 53  1  0  0  0
 49 64  1  0  0  0
 49117  1  0  0  0
 50 51  1  0  0  0
 50118  1  0  0  0
 50119  1  0  0  0
 51 52  1  0  0  0
 51120  1  0  0  0
 51121  1  0  0  0
 52122  1  0  0  0
 52123  1  0  0  0
 53 54  1  0  0  0
 54 55  2  0  0  0
 54124  1  0  0  0
 55 57  1  0  0  0
 55125  1  0  0  0
 56 69  2  0  0  0
 57 58  2  0  0  0
 57126  1  0  0  0
 58127  1  0  0  0
 59 60  1  0  0  0
 59 61  1  0  0  0
 59 62  1  0  0  0
 60128  1  0  0  0
 60129  1  0  0  0
 60130  1  0  0  0
 61131  1  0  0  0
 61132  1  0  0  0
 61133  1  0  0  0
 62134  1  0  0  0
 62135  1  0  0  0
 62136  1  0  0  0
 63 65  1  0  0  0
 63137  1  0  0  0
 63138  1  0  0  0
 63139  1  0  0  0
 64140  1  0  0  0
 65141  1  0  0  0
 68 77  1  0  0  0
 71 72  2  0  0  0
 71 73  1  0  0  0
 71 82  1  0  0  0
 72 74  1  0  0  0
 72 80  1  0  0  0
 73 79  2  0  0  0
 73 81  1  0  0  0
 74142  1  0  0  0
 74143  1  0  0  0
 74144  1  0  0  0
 75145  1  0  0  0
 75146  1  0  0  0
 75147  1  0  0  0
 75 78  1  0  0  0
 76 77  1  0  0  0
 76 78  1  0  0  0
 76148  1  0  0  0
 76149  1  0  0  0
 77150  1  0  0  0
 77151  1  0  0  0
 78 80  1  0  0  0
 78152  1  0  0  0
 79 80  1  0  0  0
 81153  1  0  0  0
M  ISO  4   1 100  68 101  77 101  81 100
M  END
> <chiral flag>
0

> <version>
0

> <s_m_source_file>
/data/baiqing/PycharmProjects/Reinvent-master-3.2/result/LINK_invent/BTK/process_docking_weight1_custom_sum_contain_oxygen_bond_distance_aromatic_linkinvent_7_9_3/rearranged_h_0023.sdf

> <i_m_source_file_index>
58

> <r_mmod_Potential_Energy-OPLS-2005>
752.342468261719

> <r_mmod_Stretch_Energy-OPLS-2005>
357.490936279297

> <r_mmod_Bend_Energy-OPLS-2005>
380.237915039062

> <r_mmod_Torsional_Energy-OPLS-2005>
278.440093994141

> <r_mmod_Improper_Torsional_Energy-OPLS-2005>
9.24120616912842

> <r_mmod_Van_der_Waal_Energy-OPLS-2005>
100.971298217773

> <r_mmod_Electrostatic_Energy-OPLS-2005>
-422.355407714844

> <r_mmod_Solvation_Energy-OPLS-2005>
-218.506973266602

> <b_mmod_Minimization_Converged-OPLS-2005>
0

> <r_mmod_RMS_Derivative-OPLS-2005>
1.85505545139313

$$$$
58
                    3D
 Structure written by MMmdl.
162170  0  0  1  0            999 V2000
  -30.9837  -14.1044   20.9540 C   0  0  0  0  0  0
  -31.1981  -12.7145   18.8224 C   0  0  0  0  0  0
  -30.1265  -12.9851   17.7193 C   0  0  0  0  0  0
  -28.6761  -12.9107   18.1396 C   0  0  0  0  0  0
  -28.4179  -13.5117   19.6450 C   0  0  2  0  0  0
  -29.5937  -12.4383   20.1471 C   0  0  0  0  0  0
  -24.6901  -14.2158   20.8452 C   0  0  0  0  0  0
  -23.7336  -13.2557   20.9442 C   0  0  0  0  0  0
  -24.3130  -11.9917   21.0767 C   0  0  0  0  0  0
  -23.8102  -10.5843   21.1485 C   0  0  0  0  0  0
  -24.3280   -9.5491   21.9746 C   0  0  0  0  0  0
  -23.6536   -8.2998   22.0779 C   0  0  0  0  0  0
  -22.4547   -8.0660   21.3612 C   0  0  0  0  0  0
  -22.0180   -9.0483   20.4587 C   0  0  0  0  0  0
  -22.7039  -10.2663   20.3353 C   0  0  0  0  0  0
  -21.7089   -6.0942   22.5329 C   0  0  0  0  0  0
  -21.4157   -6.5788   23.8276 C   0  0  0  0  0  0
  -21.3646   -5.6855   24.9182 C   0  0  0  0  0  0
  -21.6020   -4.3131   24.7178 C   0  0  0  0  0  0
  -21.8800   -3.8283   23.4286 C   0  0  0  0  0  0
  -21.9255   -4.7134   22.3399 C   0  0  0  0  0  0
  -22.3321  -13.5744   21.1174 C   0  0  0  0  0  0
  -22.1742   -4.2341   21.0972 F   0  0  0  0  0  0
  -21.5539   -3.4582   25.7662 F   0  0  0  0  0  0
  -30.7447  -13.0808   20.1404 N   0  0  0  0  0  0
  -25.9009  -13.6068   20.9857 N   0  0  0  0  0  0
  -25.3060  -12.4889   21.7242 N   0  0  0  0  0  0
  -21.7057  -12.8275   22.0108 N   0  0  0  0  0  0
  -24.5720  -15.5521   20.6342 N   0  0  0  0  0  0
  -31.7825  -14.9553   20.5582 O   0  0  0  0  0  0
  -21.7024   -6.9123   21.4296 O   0  0  0  0  0  0
  -21.8791  -14.5838   20.5950 O   0  0  0  0  0  0
  -24.6760  -31.8108   23.1641 C   0  0  0  0  0  0
  -25.9425  -32.4484   23.8119 C   0  0  1  0  0  0
  -27.0281  -26.7536   20.1658 C   0  0  0  0  0  0
  -25.6021  -33.8314   24.1995 N   0  0  0  0  0  0
  -23.4859  -30.4383   21.5184 C   0  0  2  0  0  0
  -24.8993  -28.8180   20.0945 C   0  0  0  0  0  0
  -22.7688  -29.4413   22.4699 C   0  0  0  0  0  0
  -18.0347  -28.1410   22.8456 C   0  0  0  0  0  0
  -24.1489  -36.7221   23.2636 C   0  0  0  0  0  0
  -26.0658  -30.5530   21.4201 C   0  0  0  0  0  0
  -26.0911  -29.1352   20.7548 C   0  0  0  0  0  0
  -27.1643  -28.1155   20.7743 C   0  0  0  0  0  0
  -25.8475  -26.6548   19.4136 C   0  0  0  0  0  0
  -24.8110  -27.6076   19.4018 C   0  0  0  0  0  0
  -23.7170  -29.7775   20.1376 C   0  0  0  0  0  0
  -25.4125  -36.2924   24.0274 C   0  0  1  0  0  0
  -20.5969  -28.3775   23.1141 C   0  0  2  0  0  0
  -20.6818  -26.9444   22.5387 C   0  0  0  0  0  0
  -19.5798  -26.6375   21.5199 C   0  0  0  0  0  0
  -18.1982  -26.7951   22.1609 C   0  0  0  0  0  0
  -19.1605  -28.8908   23.2799 C   0  0  0  0  0  0
  -18.9526  -30.1488   23.8855 C   0  0  0  0  0  0
  -17.6520  -30.6600   24.0549 C   0  0  0  0  0  0
  -25.9121  -34.9302   23.4965 C   0  0  0  0  0  0
  -16.5407  -29.9088   23.6344 C   0  0  0  0  0  0
  -16.7331  -28.6501   23.0372 C   0  0  0  0  0  0
  -26.4610  -31.6499   25.0723 C   0  0  0  0  0  0
  -25.3706  -31.3794   26.1360 C   0  0  0  0  0  0
  -27.0508  -30.2825   24.6580 C   0  0  0  0  0  0
  -27.6063  -32.4356   25.7528 C   0  0  0  0  0  0
  -27.5568  -37.1768   24.8458 C   0  0  0  0  0  0
  -21.4346  -29.3056   22.3465 N   0  0  0  0  0  0
  -26.4248  -37.3691   23.9425 N   0  0  0  0  0  0
  -24.7678  -30.9662   22.0852 N   0  0  0  0  0  0
  -23.4191  -28.7935   23.2944 O   0  0  0  0  0  0
  -27.8245  -25.4678   20.2397 O   0  0  0  0  0  0
  -26.5749  -34.8862   22.4569 O   0  0  0  0  0  0
  -23.5813  -32.1154   23.6698 O   0  0  0  0  0  0
  -26.3922  -14.2100   18.8093 C   0  0  0  0  0  0
  -27.0683  -15.4889   19.9281 C   0  0  0  0  0  0
  -27.9711  -13.2297   21.8827 C   0  0  0  0  0  0
  -26.4674  -12.3815   19.1812 C   0  0  0  0  0  0
  -27.7692  -14.9332   21.4135 C   0  0  0  0  0  0
  -27.3373  -11.8373   20.7389 C   0  0  0  0  0  0
  -26.2857  -23.9416   21.4053 C   0  0  0  0  0  0
  -26.9297  -17.2855   19.6294 C   0  0  0  0  0  0
  -29.2283  -13.2109   22.8034 C   0  0  0  0  0  0
  -27.6168  -18.9267   20.2019 C   0  0  0  0  0  0
  -27.8540  -22.0910   20.2786 C   0  0  0  0  0  0
  -27.2264  -23.8557   20.1878 C   0  0  2  0  0  0
  -30.4197  -14.0033   22.2188 N   0  0  0  0  0  0
  -27.2164  -20.5547   19.8269 N   0  3  0  0  0  0
  -25.7336  -11.2471   18.1095 Cl  0  0  0  0  0  0
  -28.2953  -16.1816   22.4903 Cl  0  0  0  0  0  0
  -27.5748  -10.1686   21.1280 Cl  0  0  0  0  0  0
  -32.1120  -13.2491   18.5599 H   0  0  0  0  0  0
  -31.5179  -11.6744   18.8003 H   0  0  0  0  0  0
  -30.2930  -12.3480   16.8510 H   0  0  0  0  0  0
  -30.3126  -14.0023   17.3655 H   0  0  0  0  0  0
  -28.4090  -11.8600   17.9658 H   0  0  0  0  0  0
  -28.1648  -13.4715   17.3594 H   0  0  0  0  0  0
  -28.9568  -14.4511   19.4658 H   0  0  0  0  0  0
  -29.5654  -11.4630   19.6312 H   0  0  0  0  0  0
  -29.6813  -11.8406   21.0464 H   0  0  0  0  0  0
  -25.2193   -9.7051   22.5707 H   0  0  0  0  0  0
  -24.0714   -7.5249   22.7088 H   0  0  0  0  0  0
  -21.1519   -8.8528   19.8412 H   0  0  0  0  0  0
  -22.3491  -10.9971   19.6245 H   0  0  0  0  0  0
  -21.2300   -7.6325   23.9867 H   0  0  0  0  0  0
  -21.1423   -6.0577   25.9074 H   0  0  0  0  0  0
  -22.0574   -2.7788   23.2646 H   0  0  0  0  0  0
  -22.2096  -12.0815   22.4580 H   0  0  0  0  0  0
  -20.7584  -13.0039   22.3044 H   0  0  0  0  0  0
  -23.6834  -15.9522   20.3490 H   0  0  0  0  0  0
  -25.3971  -16.1082   20.4407 H   0  0  0  0  0  0
  -26.7465  -32.4914   23.0788 H   0  0  0  0  0  0
  -25.0084  -33.9354   25.0081 H   0  0  0  0  0  0
  -22.8032  -31.2748   21.3548 H   0  0  0  0  0  0
  -23.3743  -35.9571   23.3233 H   0  0  0  0  0  0
  -24.3586  -36.8954   22.2078 H   0  0  0  0  0  0
  -23.7271  -37.6380   23.6755 H   0  0  0  0  0  0
  -26.2871  -31.2790   20.6361 H   0  0  0  0  0  0
  -26.9181  -30.5854   22.0845 H   0  0  0  0  0  0
  -28.0555  -28.3268   21.3472 H   0  0  0  0  0  0
  -25.6511  -25.7462   18.8671 H   0  0  0  0  0  0
  -23.9032  -27.3733   18.8583 H   0  0  0  0  0  0
  -23.9024  -30.5464   19.3877 H   0  0  0  0  0  0
  -22.8141  -29.2626   19.8086 H   0  0  0  0  0  0
  -25.1313  -36.1681   25.0760 H   0  0  0  0  0  0
  -21.0096  -28.3435   24.1251 H   0  0  0  0  0  0
  -20.5678  -26.2405   23.3637 H   0  0  0  0  0  0
  -21.6684  -26.7397   22.1209 H   0  0  0  0  0  0
  -19.6948  -25.6269   21.1266 H   0  0  0  0  0  0
  -19.6747  -27.3144   20.6697 H   0  0  0  0  0  0
  -17.4246  -26.6691   21.4010 H   0  0  0  0  0  0
  -18.0394  -26.0102   22.9018 H   0  0  0  0  0  0
  -19.8000  -30.7307   24.2214 H   0  0  0  0  0  0
  -17.5079  -31.6279   24.5159 H   0  0  0  0  0  0
  -15.5405  -30.2975   23.7697 H   0  0  0  0  0  0
  -15.8733  -28.0786   22.7136 H   0  0  0  0  0  0
  -24.5921  -30.7082   25.7693 H   0  0  0  0  0  0
  -24.8848  -32.3000   26.4578 H   0  0  0  0  0  0
  -25.7923  -30.9115   27.0259 H   0  0  0  0  0  0
  -26.3172  -29.6457   24.1592 H   0  0  0  0  0  0
  -27.3963  -29.7233   25.5281 H   0  0  0  0  0  0
  -27.9171  -30.3932   24.0056 H   0  0  0  0  0  0
  -27.2587  -33.3726   26.1869 H   0  0  0  0  0  0
  -28.3983  -32.6783   25.0443 H   0  0  0  0  0  0
  -28.0592  -31.8646   26.5620 H   0  0  0  0  0  0
  -28.2512  -38.0124   24.7520 H   0  0  0  0  0  0
  -28.1112  -36.2647   24.6216 H   0  0  0  0  0  0
  -27.2320  -37.1362   25.8864 H   0  0  0  0  0  0
  -20.9592  -29.8799   21.6624 H   0  0  0  0  0  0
  -26.0070  -38.2729   24.1435 H   0  0  0  0  0  0
  -25.8829  -14.5165   17.9086 H   0  0  0  0  0  0
  -25.7049  -23.0350   21.5614 H   0  0  0  0  0  0
  -25.5731  -24.7567   21.3072 H   0  0  0  0  0  0
  -26.8542  -24.1186   22.3196 H   0  0  0  0  0  0
  -25.8742  -17.4845   19.7752 H   0  0  0  0  0  0
  -27.0346  -17.3389   18.5501 H   0  0  0  0  0  0
  -28.9479  -13.6759   23.7457 H   0  0  0  0  0  0
  -29.5133  -12.1942   23.0828 H   0  0  0  0  0  0
  -28.6881  -18.8655   20.0064 H   0  0  0  0  0  0
  -27.5510  -18.8978   21.2876 H   0  0  0  0  0  0
  -28.1130  -21.9592   21.3292 H   0  0  0  0  0  0
  -28.8342  -22.1037   19.7999 H   0  0  0  0  0  0
  -26.5969  -23.8300   19.3009 H   0  0  0  0  0  0
  -30.7478  -14.7258   22.8442 H   0  0  0  0  0  0
  -26.2303  -20.6083   20.0065 H   0  0  0  0  0  0
  -27.2685  -20.5808   18.8223 H   0  0  0  0  0  0
  1 25  1  0  0  0
  1 30  2  0  0  0
  1 83  1  0  0  0
  2  3  1  0  0  0
  2 25  1  0  0  0
  2 88  1  0  0  0
  2 89  1  0  0  0
  3  4  1  0  0  0
  3 90  1  0  0  0
  3 91  1  0  0  0
  4  5  1  0  0  0
  4 92  1  0  0  0
  4 93  1  0  0  0
  5  6  1  0  0  0
  5 26  1  0  0  0
  5 94  1  0  0  0
  6 25  1  0  0  0
  6 95  1  0  0  0
  6 96  1  0  0  0
  7  8  2  0  0  0
  7 26  1  0  0  0
  7 29  1  0  0  0
  8  9  1  0  0  0
  8 22  1  0  0  0
  9 10  1  0  0  0
  9 27  2  0  0  0
 10 11  2  0  0  0
 10 15  1  0  0  0
 11 12  1  0  0  0
 11 97  1  0  0  0
 12 13  2  0  0  0
 12 98  1  0  0  0
 13 14  1  0  0  0
 13 31  1  0  0  0
 14 15  2  0  0  0
 14 99  1  0  0  0
 15100  1  0  0  0
 16 17  2  0  0  0
 16 21  1  0  0  0
 16 31  1  0  0  0
 17 18  1  0  0  0
 17101  1  0  0  0
 18 19  2  0  0  0
 18102  1  0  0  0
 19 20  1  0  0  0
 19 24  1  0  0  0
 20 21  2  0  0  0
 20103  1  0  0  0
 21 23  1  0  0  0
 22 28  1  0  0  0
 22 32  2  0  0  0
 26 27  1  0  0  0
 28104  1  0  0  0
 28105  1  0  0  0
 29106  1  0  0  0
 29107  1  0  0  0
 33 34  1  0  0  0
 33 66  1  0  0  0
 33 70  2  0  0  0
 34 36  1  0  0  0
 34 59  1  0  0  0
 34108  1  0  0  0
 35 44  2  0  0  0
 35 45  1  0  0  0
 35 68  1  0  0  0
 36 56  1  0  0  0
 36109  1  0  0  0
 37 39  1  0  0  0
 37 47  1  0  0  0
 37 66  1  0  0  0
 37110  1  0  0  0
 38 43  2  0  0  0
 38 46  1  0  0  0
 38 47  1  0  0  0
 39 64  1  0  0  0
 39 67  2  0  0  0
 40 52  1  0  0  0
 40 53  2  0  0  0
 40 58  1  0  0  0
 41111  1  0  0  0
 41112  1  0  0  0
 41113  1  0  0  0
 41 48  1  0  0  0
 42 43  1  0  0  0
 42 66  1  0  0  0
 42114  1  0  0  0
 42115  1  0  0  0
 43 44  1  0  0  0
 44116  1  0  0  0
 45 46  2  0  0  0
 45117  1  0  0  0
 46118  1  0  0  0
 47119  1  0  0  0
 47120  1  0  0  0
 48 56  1  0  0  0
 48 65  1  0  0  0
 48121  1  0  0  0
 49 50  1  0  0  0
 49 53  1  0  0  0
 49 64  1  0  0  0
 49122  1  0  0  0
 50 51  1  0  0  0
 50123  1  0  0  0
 50124  1  0  0  0
 51 52  1  0  0  0
 51125  1  0  0  0
 51126  1  0  0  0
 52127  1  0  0  0
 52128  1  0  0  0
 53 54  1  0  0  0
 54 55  2  0  0  0
 54129  1  0  0  0
 55 57  1  0  0  0
 55130  1  0  0  0
 56 69  2  0  0  0
 57 58  2  0  0  0
 57131  1  0  0  0
 58132  1  0  0  0
 59 60  1  0  0  0
 59 61  1  0  0  0
 59 62  1  0  0  0
 60133  1  0  0  0
 60134  1  0  0  0
 60135  1  0  0  0
 61136  1  0  0  0
 61137  1  0  0  0
 61138  1  0  0  0
 62139  1  0  0  0
 62140  1  0  0  0
 62141  1  0  0  0
 63 65  1  0  0  0
 63142  1  0  0  0
 63143  1  0  0  0
 63144  1  0  0  0
 64145  1  0  0  0
 65146  1  0  0  0
 68 82  1  0  0  0
 71 72  2  0  0  0
 71 74  1  0  0  0
 71147  1  0  0  0
 72 75  1  0  0  0
 72 78  1  0  0  0
 73 75  2  0  0  0
 73 76  1  0  0  0
 73 79  1  0  0  0
 74 76  2  0  0  0
 74 85  1  0  0  0
 75 86  1  0  0  0
 76 87  1  0  0  0
 77148  1  0  0  0
 77149  1  0  0  0
 77150  1  0  0  0
 77 82  1  0  0  0
 78 80  1  0  0  0
 78151  1  0  0  0
 78152  1  0  0  0
 79 83  1  0  0  0
 79153  1  0  0  0
 79154  1  0  0  0
 80 84  1  0  0  0
 80155  1  0  0  0
 80156  1  0  0  0
 81 82  1  0  0  0
 81 84  1  0  0  0
 81157  1  0  0  0
 81158  1  0  0  0
 82159  1  0  0  0
 83160  1  0  0  0
 84161  1  0  0  0
 84162  1  0  0  0
M  CHG  1  84   1
M  ISO  4   1 100  68 101  82 101  83 100
M  END
> <chiral flag>
0

> <version>
0

> <s_m_source_file>
/data/baiqing/PycharmProjects/Reinvent-master-3.2/result/LINK_invent/BTK/process_docking_weight1_custom_sum_contain_oxygen_bond_distance_aromatic_linkinvent_7_9_3/rearranged_h_0023.sdf

> <i_m_source_file_index>
59

> <r_mmod_Potential_Energy-OPLS-2005>
10765.8798828125

> <r_mmod_Stretch_Energy-OPLS-2005>
5835.357421875

> <r_mmod_Bend_Energy-OPLS-2005>
833.443481445312

> <r_mmod_Torsional_Energy-OPLS-2005>
436.158538818359

> <r_mmod_Improper_Torsional_Energy-OPLS-2005>
29.2543048858643

> <r_mmod_Van_der_Waal_Energy-OPLS-2005>
2743.869140625

> <r_mmod_Electrostatic_Energy-OPLS-2005>
-288.519348144531

> <r_mmod_Solvation_Energy-OPLS-2005>
-456.997680664062

> <b_mmod_Minimization_Converged-OPLS-2005>
0

> <r_mmod_RMS_Derivative-OPLS-2005>
12.787633895874

$$$$
59
                    3D
 Structure written by MMmdl.
159168  0  0  1  0            999 V2000
  -30.6230  -14.7331   20.5392 C   0  0  0  0  0  0
  -30.4450  -12.4755   19.4496 C   0  0  0  0  0  0
  -29.5011  -12.5397   18.2262 C   0  0  0  0  0  0
  -28.0266  -12.3683   18.6429 C   0  0  0  0  0  0
  -27.6529  -13.2285   19.8799 C   0  0  2  0  0  0
  -28.7129  -13.0617   20.9923 C   0  0  0  0  0  0
  -25.2405  -13.8139   20.5438 C   0  0  0  0  0  0
  -24.1767  -13.0401   20.9146 C   0  0  0  0  0  0
  -24.6419  -11.6902   20.8799 C   0  0  0  0  0  0
  -23.9098  -10.4279   21.0444 C   0  0  0  0  0  0
  -24.3641   -9.4186   21.9209 C   0  0  0  0  0  0
  -23.6312   -8.2225   22.0764 C   0  0  0  0  0  0
  -22.4291   -8.0280   21.3551 C   0  0  0  0  0  0
  -21.9940   -9.0257   20.4644 C   0  0  0  0  0  0
  -22.7282  -10.2131   20.3072 C   0  0  0  0  0  0
  -21.6852   -6.0750   22.5286 C   0  0  0  0  0  0
  -21.4012   -6.5644   23.8221 C   0  0  0  0  0  0
  -21.3652   -5.6796   24.9181 C   0  0  0  0  0  0
  -21.6039   -4.3062   24.7222 C   0  0  0  0  0  0
  -21.8819   -3.8161   23.4339 C   0  0  0  0  0  0
  -21.9193   -4.6983   22.3401 C   0  0  0  0  0  0
  -22.7786  -13.5181   21.1817 C   0  0  0  0  0  0
  -22.1664   -4.2174   21.0974 F   0  0  0  0  0  0
  -21.5627   -3.4539   25.7729 F   0  0  0  0  0  0
  -29.9965  -13.5008   20.4277 N   0  0  0  0  0  0
  -26.2978  -12.9404   20.3426 N   0  0  0  0  0  0
  -25.9377  -11.6551   20.5928 N   0  0  0  0  0  0
  -22.0481  -12.8177   22.0413 N   0  0  0  0  0  0
  -25.3799  -15.1808   20.3305 N   0  0  0  0  0  0
  -31.7751  -14.8379   20.1017 O   0  0  0  0  0  0
  -21.6638   -6.8893   21.4254 O   0  0  0  0  0  0
  -22.3450  -14.5483   20.6678 O   0  0  0  0  0  0
  -24.6277  -31.8567   23.1966 C   0  0  0  0  0  0
  -25.9105  -32.4757   23.8323 C   0  0  1  0  0  0
  -27.2290  -27.2833   20.1346 C   0  0  0  0  0  0
  -25.5903  -33.8557   24.2227 N   0  0  0  0  0  0
  -23.4240  -30.4763   21.5398 C   0  0  2  0  0  0
  -24.8747  -28.9164   20.1165 C   0  0  0  0  0  0
  -22.7493  -29.4605   22.4925 C   0  0  0  0  0  0
  -18.0283  -28.1372   22.8488 C   0  0  0  0  0  0
  -24.1498  -36.7286   23.2650 C   0  0  0  0  0  0
  -25.9673  -30.7755   21.3735 C   0  0  0  0  0  0
  -26.0445  -29.3976   20.7191 C   0  0  0  0  0  0
  -27.2289  -28.5955   20.7103 C   0  0  0  0  0  0
  -26.0379  -26.8519   19.5186 C   0  0  0  0  0  0
  -24.8748  -27.6502   19.5054 C   0  0  0  0  0  0
  -23.6430  -29.8022   20.1592 C   0  0  0  0  0  0
  -25.4124  -36.3061   24.0319 C   0  0  1  0  0  0
  -20.5886  -28.3683   23.1280 C   0  0  2  0  0  0
  -20.6775  -26.9404   22.5414 C   0  0  0  0  0  0
  -19.5753  -26.6374   21.5212 C   0  0  0  0  0  0
  -18.1927  -26.7917   22.1617 C   0  0  0  0  0  0
  -19.1540  -28.8846   23.2879 C   0  0  0  0  0  0
  -18.9471  -30.1449   23.8904 C   0  0  0  0  0  0
  -17.6474  -30.6585   24.0556 C   0  0  0  0  0  0
  -25.9068  -34.9436   23.5080 C   0  0  0  0  0  0
  -16.5364  -29.9078   23.6330 C   0  0  0  0  0  0
  -16.7275  -28.6489   23.0366 C   0  0  0  0  0  0
  -26.4481  -31.6597   25.0720 C   0  0  0  0  0  0
  -25.3700  -31.3717   26.1443 C   0  0  0  0  0  0
  -27.0332  -30.3022   24.6183 C   0  0  0  0  0  0
  -27.6033  -32.4365   25.7463 C   0  0  0  0  0  0
  -27.5570  -37.1800   24.8467 C   0  0  0  0  0  0
  -21.4199  -29.3042   22.3690 N   0  0  0  0  0  0
  -26.4291  -37.3765   23.9403 N   0  0  0  0  0  0
  -24.6915  -31.0549   22.0926 N   0  0  0  0  0  0
  -23.4212  -28.8157   23.3023 O   0  0  0  0  0  0
  -28.3441  -26.4248   20.1039 O   0  0  0  0  0  0
  -26.5655  -34.8918   22.4655 O   0  0  0  0  0  0
  -23.5432  -32.1378   23.7278 O   0  0  0  0  0  0
  -29.6011  -19.8852   20.0332 C   0  0  0  0  0  0
  -29.3584  -19.8707   22.7464 C   0  0  0  0  0  0
  -29.7472  -18.6061   20.7061 C   0  0  0  0  0  0
  -29.6626  -18.6525   22.1027 C   0  0  0  0  0  0
  -29.3359  -21.1116   20.7619 C   0  0  0  0  0  0
  -29.9289  -17.3802   22.8914 C   0  0  0  0  0  0
  -30.0379  -17.1959   20.0365 C   0  0  0  0  0  0
  -29.3479  -16.1192   22.2065 C   0  0  1  0  0  0
  -27.8106  -16.2299   22.2129 C   0  0  0  0  0  0
  -29.4282  -22.6021   20.1978 C   0  0  0  0  0  0
  -28.1913  -23.6437   20.2396 C   0  0  0  0  0  0
  -28.3082  -25.1380   20.8616 C   0  0  0  0  0  0
  -29.2007  -21.0536   22.1045 N   0  0  0  0  0  0
  -29.8873  -15.8913   20.8365 N   0  0  0  0  0  0
  -31.4757  -12.6257   19.1231 H   0  0  0  0  0  0
  -30.4284  -11.4798   19.8951 H   0  0  0  0  0  0
  -29.7737  -11.7759   17.4965 H   0  0  0  0  0  0
  -29.6221  -13.4998   17.7225 H   0  0  0  0  0  0
  -27.8659  -11.3128   18.8657 H   0  0  0  0  0  0
  -27.3672  -12.6043   17.8074 H   0  0  0  0  0  0
  -27.6723  -14.2703   19.5614 H   0  0  0  0  0  0
  -28.7698  -12.0140   21.2913 H   0  0  0  0  0  0
  -28.4671  -13.5796   21.9105 H   0  0  0  0  0  0
  -25.2791   -9.5658   22.4775 H   0  0  0  0  0  0
  -24.0027   -7.4614   22.7475 H   0  0  0  0  0  0
  -21.0881   -8.8781   19.8933 H   0  0  0  0  0  0
  -22.3763  -10.9674   19.6171 H   0  0  0  0  0  0
  -21.2001   -7.6153   23.9739 H   0  0  0  0  0  0
  -21.1470   -6.0517   25.9085 H   0  0  0  0  0  0
  -22.0601   -2.7628   23.2828 H   0  0  0  0  0  0
  -22.4141  -11.9844   22.4773 H   0  0  0  0  0  0
  -21.1105  -13.1184   22.2673 H   0  0  0  0  0  0
  -24.5919  -15.8165   20.3821 H   0  0  0  0  0  0
  -26.2199  -15.6175   19.9745 H   0  0  0  0  0  0
  -26.7168  -32.5424   23.1069 H   0  0  0  0  0  0
  -25.0022  -33.9694   25.0351 H   0  0  0  0  0  0
  -22.7177  -31.2961   21.3901 H   0  0  0  0  0  0
  -23.3751  -35.9629   23.3331 H   0  0  0  0  0  0
  -24.3581  -36.8894   22.2063 H   0  0  0  0  0  0
  -23.7279  -37.6496   23.6685 H   0  0  0  0  0  0
  -26.1044  -31.5370   20.6049 H   0  0  0  0  0  0
  -26.8439  -30.8229   22.0080 H   0  0  0  0  0  0
  -28.1334  -28.9658   21.1724 H   0  0  0  0  0  0
  -26.0063  -25.8789   19.0494 H   0  0  0  0  0  0
  -23.9780  -27.2770   19.0321 H   0  0  0  0  0  0
  -23.7681  -30.5756   19.4009 H   0  0  0  0  0  0
  -22.7616  -29.2350   19.8538 H   0  0  0  0  0  0
  -25.1311  -36.1888   25.0809 H   0  0  0  0  0  0
  -20.9962  -28.3251   24.1408 H   0  0  0  0  0  0
  -20.5663  -26.2293   23.3615 H   0  0  0  0  0  0
  -21.6644  -26.7418   22.1219 H   0  0  0  0  0  0
  -19.6921  -25.6279   21.1249 H   0  0  0  0  0  0
  -19.6689  -27.3184   20.6740 H   0  0  0  0  0  0
  -17.4198  -26.6678   21.4018 H   0  0  0  0  0  0
  -18.0324  -26.0036   22.8992 H   0  0  0  0  0  0
  -19.7955  -30.7253   24.2278 H   0  0  0  0  0  0
  -17.5033  -31.6268   24.5148 H   0  0  0  0  0  0
  -15.5368  -30.2985   23.7653 H   0  0  0  0  0  0
  -15.8671  -28.0800   22.7100 H   0  0  0  0  0  0
  -24.5900  -30.7035   25.7777 H   0  0  0  0  0  0
  -24.8869  -32.2869   26.4880 H   0  0  0  0  0  0
  -25.8034  -30.8906   27.0220 H   0  0  0  0  0  0
  -26.2897  -29.6766   24.1233 H   0  0  0  0  0  0
  -27.4054  -29.7288   25.4682 H   0  0  0  0  0  0
  -27.8749  -30.4310   23.9371 H   0  0  0  0  0  0
  -27.2640  -33.3696   26.1973 H   0  0  0  0  0  0
  -28.3847  -32.6889   25.0280 H   0  0  0  0  0  0
  -28.0690  -31.8547   26.5426 H   0  0  0  0  0  0
  -28.2598  -38.0087   24.7493 H   0  0  0  0  0  0
  -28.1052  -36.2615   24.6316 H   0  0  0  0  0  0
  -27.2286  -37.1464   25.8872 H   0  0  0  0  0  0
  -20.9395  -29.8771   21.6894 H   0  0  0  0  0  0
  -26.0156  -38.2832   24.1412 H   0  0  0  0  0  0
  -29.7395  -19.9329   18.9605 H   0  0  0  0  0  0
  -29.2685  -19.9082   23.8217 H   0  0  0  0  0  0
  -29.5151  -17.4846   23.8967 H   0  0  0  0  0  0
  -31.0071  -17.2762   23.0228 H   0  0  0  0  0  0
  -31.0457  -17.2465   19.6215 H   0  0  0  0  0  0
  -29.3761  -17.1075   19.1746 H   0  0  0  0  0  0
  -29.6255  -15.2759   22.8423 H   0  0  0  0  0  0
  -27.4553  -16.9745   21.5010 H   0  0  0  0  0  0
  -27.4401  -16.5241   23.1957 H   0  0  0  0  0  0
  -27.3196  -15.2949   21.9802 H   0  0  0  0  0  0
  -29.7884  -22.5447   19.1710 H   0  0  0  0  0  0
  -30.2535  -23.0637   20.7417 H   0  0  0  0  0  0
  -27.4425  -23.1429   20.8533 H   0  0  0  0  0  0
  -27.7230  -23.6962   19.2574 H   0  0  0  0  0  0
  -29.1876  -25.1526   21.5051 H   0  0  0  0  0  0
  -27.4815  -25.2354   21.5672 H   0  0  0  0  0  0
  1 25  1  0  0  0
  1 30  2  0  0  0
  1 84  1  0  0  0
  2  3  1  0  0  0
  2 25  1  0  0  0
  2 85  1  0  0  0
  2 86  1  0  0  0
  3  4  1  0  0  0
  3 87  1  0  0  0
  3 88  1  0  0  0
  4  5  1  0  0  0
  4 89  1  0  0  0
  4 90  1  0  0  0
  5  6  1  0  0  0
  5 26  1  0  0  0
  5 91  1  0  0  0
  6 25  1  0  0  0
  6 92  1  0  0  0
  6 93  1  0  0  0
  7  8  2  0  0  0
  7 26  1  0  0  0
  7 29  1  0  0  0
  8  9  1  0  0  0
  8 22  1  0  0  0
  9 10  1  0  0  0
  9 27  2  0  0  0
 10 11  2  0  0  0
 10 15  1  0  0  0
 11 12  1  0  0  0
 11 94  1  0  0  0
 12 13  2  0  0  0
 12 95  1  0  0  0
 13 14  1  0  0  0
 13 31  1  0  0  0
 14 15  2  0  0  0
 14 96  1  0  0  0
 15 97  1  0  0  0
 16 17  2  0  0  0
 16 21  1  0  0  0
 16 31  1  0  0  0
 17 18  1  0  0  0
 17 98  1  0  0  0
 18 19  2  0  0  0
 18 99  1  0  0  0
 19 20  1  0  0  0
 19 24  1  0  0  0
 20 21  2  0  0  0
 20100  1  0  0  0
 21 23  1  0  0  0
 22 28  1  0  0  0
 22 32  2  0  0  0
 26 27  1  0  0  0
 28101  1  0  0  0
 28102  1  0  0  0
 29103  1  0  0  0
 29104  1  0  0  0
 33 34  1  0  0  0
 33 66  1  0  0  0
 33 70  2  0  0  0
 34 36  1  0  0  0
 34 59  1  0  0  0
 34105  1  0  0  0
 35 44  2  0  0  0
 35 45  1  0  0  0
 35 68  1  0  0  0
 36 56  1  0  0  0
 36106  1  0  0  0
 37 39  1  0  0  0
 37 47  1  0  0  0
 37 66  1  0  0  0
 37107  1  0  0  0
 38 43  2  0  0  0
 38 46  1  0  0  0
 38 47  1  0  0  0
 39 64  1  0  0  0
 39 67  2  0  0  0
 40 52  1  0  0  0
 40 53  2  0  0  0
 40 58  1  0  0  0
 41108  1  0  0  0
 41109  1  0  0  0
 41110  1  0  0  0
 41 48  1  0  0  0
 42 43  1  0  0  0
 42 66  1  0  0  0
 42111  1  0  0  0
 42112  1  0  0  0
 43 44  1  0  0  0
 44113  1  0  0  0
 45 46  2  0  0  0
 45114  1  0  0  0
 46115  1  0  0  0
 47116  1  0  0  0
 47117  1  0  0  0
 48 56  1  0  0  0
 48 65  1  0  0  0
 48118  1  0  0  0
 49 50  1  0  0  0
 49 53  1  0  0  0
 49 64  1  0  0  0
 49119  1  0  0  0
 50 51  1  0  0  0
 50120  1  0  0  0
 50121  1  0  0  0
 51 52  1  0  0  0
 51122  1  0  0  0
 51123  1  0  0  0
 52124  1  0  0  0
 52125  1  0  0  0
 53 54  1  0  0  0
 54 55  2  0  0  0
 54126  1  0  0  0
 55 57  1  0  0  0
 55127  1  0  0  0
 56 69  2  0  0  0
 57 58  2  0  0  0
 57128  1  0  0  0
 58129  1  0  0  0
 59 60  1  0  0  0
 59 61  1  0  0  0
 59 62  1  0  0  0
 60130  1  0  0  0
 60131  1  0  0  0
 60132  1  0  0  0
 61133  1  0  0  0
 61134  1  0  0  0
 61135  1  0  0  0
 62136  1  0  0  0
 62137  1  0  0  0
 62138  1  0  0  0
 63 65  1  0  0  0
 63139  1  0  0  0
 63140  1  0  0  0
 63141  1  0  0  0
 64142  1  0  0  0
 65143  1  0  0  0
 68 82  1  0  0  0
 71 73  2  0  0  0
 71 75  1  0  0  0
 71144  1  0  0  0
 72 74  2  0  0  0
 72 83  1  0  0  0
 72145  1  0  0  0
 73 74  1  0  0  0
 73 77  1  0  0  0
 74 76  1  0  0  0
 75 80  1  0  0  0
 75 83  2  0  0  0
 76 78  1  0  0  0
 76146  1  0  0  0
 76147  1  0  0  0
 77 84  1  0  0  0
 77148  1  0  0  0
 77149  1  0  0  0
 78 79  1  0  0  0
 78 84  1  0  0  0
 78150  1  0  0  0
 79151  1  0  0  0
 79152  1  0  0  0
 79153  1  0  0  0
 80 81  1  0  0  0
 80154  1  0  0  0
 80155  1  0  0  0
 81 82  1  0  0  0
 81156  1  0  0  0
 81157  1  0  0  0
 82158  1  0  0  0
 82159  1  0  0  0
M  ISO  4   1 100  68 101  82 101  84 100
M  END
> <chiral flag>
0

> <version>
0

> <s_m_source_file>
/data/baiqing/PycharmProjects/Reinvent-master-3.2/result/LINK_invent/BTK/process_docking_weight1_custom_sum_contain_oxygen_bond_distance_aromatic_linkinvent_7_9_3/rearranged_h_0023.sdf

> <i_m_source_file_index>
60

> <r_mmod_Potential_Energy-OPLS-2005>
144.962448120117

> <r_mmod_Stretch_Energy-OPLS-2005>
124.854843139648

> <r_mmod_Bend_Energy-OPLS-2005>
185.974029541016

> <r_mmod_Torsional_Energy-OPLS-2005>
329.478607177734

> <r_mmod_Improper_Torsional_Energy-OPLS-2005>
10.4525451660156

> <r_mmod_Van_der_Waal_Energy-OPLS-2005>
145.913345336914

> <r_mmod_Electrostatic_Energy-OPLS-2005>
-513.239013671875

> <r_mmod_Solvation_Energy-OPLS-2005>
-206.476791381836

> <b_mmod_Minimization_Converged-OPLS-2005>
0

> <r_mmod_RMS_Derivative-OPLS-2005>
1.91863322257996

$$$$
60
                    3D
 Structure written by MMmdl.
186194  0  0  1  0            999 V2000
  -30.7043  -14.4414   20.4892 C   0  0  0  0  0  0
  -30.4198  -12.2604   19.4295 C   0  0  0  0  0  0
  -29.5009  -12.4782   18.2091 C   0  0  0  0  0  0
  -28.0194  -12.3550   18.6190 C   0  0  0  0  0  0
  -27.6626  -13.2025   19.8700 C   0  0  2  0  0  0
  -28.7058  -12.9939   20.9947 C   0  0  0  0  0  0
  -25.2597  -13.8151   20.5664 C   0  0  0  0  0  0
  -24.1843  -13.0417   20.9162 C   0  0  0  0  0  0
  -24.6398  -11.6887   20.8731 C   0  0  0  0  0  0
  -23.9060  -10.4283   21.0416 C   0  0  0  0  0  0
  -24.3615   -9.4203   21.9195 C   0  0  0  0  0  0
  -23.6289   -8.2234   22.0766 C   0  0  0  0  0  0
  -22.4276   -8.0276   21.3538 C   0  0  0  0  0  0
  -21.9901   -9.0264   20.4653 C   0  0  0  0  0  0
  -22.7235  -10.2134   20.3065 C   0  0  0  0  0  0
  -21.6853   -6.0742   22.5284 C   0  0  0  0  0  0
  -21.4011   -6.5637   23.8220 C   0  0  0  0  0  0
  -21.3662   -5.6786   24.9178 C   0  0  0  0  0  0
  -21.6035   -4.3051   24.7222 C   0  0  0  0  0  0
  -21.8823   -3.8147   23.4346 C   0  0  0  0  0  0
  -21.9182   -4.6965   22.3403 C   0  0  0  0  0  0
  -22.7867  -13.5234   21.1833 C   0  0  0  0  0  0
  -22.1652   -4.2151   21.0975 F   0  0  0  0  0  0
  -21.5632   -3.4527   25.7737 F   0  0  0  0  0  0
  -30.0424  -13.2587   20.4380 N   0  0  0  0  0  0
  -26.3035  -12.9312   20.3343 N   0  0  0  0  0  0
  -25.9322  -11.6475   20.5753 N   0  0  0  0  0  0
  -22.0476  -12.8253   22.0392 N   0  0  0  0  0  0
  -25.4274  -15.1875   20.4087 N   0  0  0  0  0  0
  -31.8768  -14.5808   20.1353 O   0  0  0  0  0  0
  -21.6624   -6.8882   21.4248 O   0  0  0  0  0  0
  -22.3558  -14.5535   20.6678 O   0  0  0  0  0  0
  -24.6135  -31.8718   23.2111 C   0  0  0  0  0  0
  -25.9036  -32.4843   23.8393 C   0  0  1  0  0  0
  -27.2289  -27.4510   20.0933 C   0  0  0  0  0  0
  -25.5905  -33.8643   24.2334 N   0  0  0  0  0  0
  -23.3973  -30.4978   21.5541 C   0  0  2  0  0  0
  -24.8376  -28.9641   20.1237 C   0  0  0  0  0  0
  -22.7393  -29.4689   22.5013 C   0  0  0  0  0  0
  -18.0267  -28.1382   22.8477 C   0  0  0  0  0  0
  -24.1493  -36.7326   23.2634 C   0  0  0  0  0  0
  -25.9240  -30.8461   21.3564 C   0  0  0  0  0  0
  -26.0010  -29.4801   20.7084 C   0  0  0  0  0  0
  -27.2007  -28.7356   20.6799 C   0  0  0  0  0  0
  -26.0358  -26.9377   19.5314 C   0  0  0  0  0  0
  -24.8494  -27.6907   19.5342 C   0  0  0  0  0  0
  -23.6009  -29.8299   20.1691 C   0  0  0  0  0  0
  -25.4113  -36.3126   24.0331 C   0  0  1  0  0  0
  -20.5857  -28.3661   23.1319 C   0  0  2  0  0  0
  -20.6766  -26.9404   22.5409 C   0  0  0  0  0  0
  -19.5751  -26.6390   21.5201 C   0  0  0  0  0  0
  -18.1925  -26.7928   22.1610 C   0  0  0  0  0  0
  -19.1513  -28.8839   23.2898 C   0  0  0  0  0  0
  -18.9448  -30.1449   23.8909 C   0  0  0  0  0  0
  -17.6450  -30.6588   24.0564 C   0  0  0  0  0  0
  -25.9035  -34.9492   23.5123 C   0  0  0  0  0  0
  -16.5341  -29.9085   23.6325 C   0  0  0  0  0  0
  -16.7261  -28.6505   23.0334 C   0  0  0  0  0  0
  -26.4476  -31.6612   25.0706 C   0  0  0  0  0  0
  -25.3745  -31.3694   26.1451 C   0  0  0  0  0  0
  -27.0288  -30.3062   24.6044 C   0  0  0  0  0  0
  -27.6064  -32.4313   25.7474 C   0  0  0  0  0  0
  -27.5588  -37.1818   24.8463 C   0  0  0  0  0  0
  -21.4129  -29.3042   22.3737 N   0  0  0  0  0  0
  -26.4301  -37.3805   23.9407 N   0  0  0  0  0  0
  -24.6639  -31.0850   22.0992 N   0  0  0  0  0  0
  -23.4181  -28.8225   23.3041 O   0  0  0  0  0  0
  -28.4294  -26.7709   20.0385 O   0  0  0  0  0  0
  -26.5589  -34.8942   22.4679 O   0  0  0  0  0  0
  -23.5340  -32.1443   23.7534 O   0  0  0  0  0  0
  -30.8189  -23.0891   17.3236 C   0  0  0  0  0  0
  -30.2565  -23.6975   19.6122 C   0  0  0  0  0  0
  -31.0253  -22.9303   18.7089 C   0  0  0  0  0  0
  -29.8644  -24.0100   16.8344 C   0  0  0  0  0  0
  -29.2844  -24.6109   19.1470 C   0  0  0  0  0  0
  -29.0925  -24.7647   17.7504 C   0  0  0  0  0  0
  -28.9897  -22.6519   12.6397 C   0  0  0  0  0  0
  -32.4787  -24.4802   12.3992 C   0  0  0  0  0  0
  -32.0675  -22.0092   12.2488 C   0  0  0  0  0  0
  -31.0373  -23.5760   10.5896 C   0  0  0  0  0  0
  -32.1134  -21.9629   19.1697 C   0  0  0  0  0  0
  -29.6089  -24.2074   15.3383 C   0  0  0  0  0  0
  -28.4192  -25.3446   20.1721 C   0  0  0  0  0  0
  -32.0394  -21.4469   20.6233 C   0  0  0  0  0  0
  -30.8687  -20.4976   20.9548 C   0  0  0  0  0  0
  -30.8874  -19.1920   20.1414 C   0  0  0  0  0  0
  -30.2601  -17.9877   20.8680 C   0  0  0  0  0  0
  -30.1438  -16.7776   19.9277 C   0  0  0  0  0  0
  -30.1660  -23.5946   12.9877 C   0  0  2  0  0  0
  -31.4222  -23.4017   12.0756 C   0  0  0  0  0  0
  -29.9041  -15.5091   20.6243 N   0  0  0  0  0  0
  -30.5188  -23.4832   14.4245 N   0  3  0  0  0  0
  -27.9067  -25.8613   17.1269 Cl  0  0  0  0  0  0
  -31.4700  -12.3320   19.1377 H   0  0  0  0  0  0
  -30.2875  -11.2538   19.8293 H   0  0  0  0  0  0
  -29.7338  -11.7509   17.4296 H   0  0  0  0  0  0
  -29.6824  -13.4619   17.7725 H   0  0  0  0  0  0
  -27.8202  -11.3012   18.8182 H   0  0  0  0  0  0
  -27.3763  -12.6292   17.7815 H   0  0  0  0  0  0
  -27.6967  -14.2468   19.5617 H   0  0  0  0  0  0
  -28.6637  -11.9673   21.3628 H   0  0  0  0  0  0
  -28.4895  -13.6313   21.8539 H   0  0  0  0  0  0
  -25.2764   -9.5658   22.4766 H   0  0  0  0  0  0
  -23.9993   -7.4614   22.7490 H   0  0  0  0  0  0
  -21.0831   -8.8797   19.8963 H   0  0  0  0  0  0
  -22.3721  -10.9679   19.6171 H   0  0  0  0  0  0
  -21.2013   -7.6142   23.9726 H   0  0  0  0  0  0
  -21.1475   -6.0508   25.9079 H   0  0  0  0  0  0
  -22.0600   -2.7607   23.2838 H   0  0  0  0  0  0
  -22.4074  -11.9925   22.4812 H   0  0  0  0  0  0
  -21.1104  -13.1331   22.2580 H   0  0  0  0  0  0
  -24.6555  -15.8377   20.5183 H   0  0  0  0  0  0
  -26.2742  -15.6337   20.0784 H   0  0  0  0  0  0
  -26.7104  -32.5569   23.1163 H   0  0  0  0  0  0
  -25.0080  -33.9802   25.0496 H   0  0  0  0  0  0
  -22.6849  -31.3133   21.4178 H   0  0  0  0  0  0
  -23.3745  -35.9669   23.3318 H   0  0  0  0  0  0
  -24.3583  -36.8920   22.2044 H   0  0  0  0  0  0
  -23.7252  -37.6541   23.6636 H   0  0  0  0  0  0
  -26.0286  -31.6124   20.5873 H   0  0  0  0  0  0
  -26.8147  -30.9018   21.9694 H   0  0  0  0  0  0
  -28.1060  -29.1436   21.1088 H   0  0  0  0  0  0
  -26.0050  -25.9680   19.0577 H   0  0  0  0  0  0
  -23.9544  -27.2843   19.0832 H   0  0  0  0  0  0
  -23.7077  -30.6037   19.4080 H   0  0  0  0  0  0
  -22.7247  -29.2482   19.8756 H   0  0  0  0  0  0
  -25.1296  -36.1992   25.0822 H   0  0  0  0  0  0
  -20.9941  -28.3225   24.1441 H   0  0  0  0  0  0
  -20.5665  -26.2272   23.3587 H   0  0  0  0  0  0
  -21.6638  -26.7451   22.1211 H   0  0  0  0  0  0
  -19.6918  -25.6300   21.1232 H   0  0  0  0  0  0
  -19.6706  -27.3198   20.6727 H   0  0  0  0  0  0
  -17.4197  -26.6660   21.4017 H   0  0  0  0  0  0
  -18.0343  -26.0073   22.9013 H   0  0  0  0  0  0
  -19.7927  -30.7256   24.2286 H   0  0  0  0  0  0
  -17.5008  -31.6265   24.5161 H   0  0  0  0  0  0
  -15.5344  -30.2989   23.7651 H   0  0  0  0  0  0
  -15.8659  -28.0836   22.7031 H   0  0  0  0  0  0
  -24.5935  -30.7022   25.7781 H   0  0  0  0  0  0
  -24.8906  -32.2831   26.4916 H   0  0  0  0  0  0
  -25.8100  -30.8856   27.0201 H   0  0  0  0  0  0
  -26.2800  -29.6836   24.1125 H   0  0  0  0  0  0
  -27.4103  -29.7290   25.4481 H   0  0  0  0  0  0
  -27.8631  -30.4399   23.9147 H   0  0  0  0  0  0
  -27.2704  -33.3608   26.2096 H   0  0  0  0  0  0
  -28.3866  -32.6882   25.0287 H   0  0  0  0  0  0
  -28.0747  -31.8395   26.5357 H   0  0  0  0  0  0
  -28.2614  -38.0109   24.7513 H   0  0  0  0  0  0
  -28.1073  -36.2639   24.6294 H   0  0  0  0  0  0
  -27.2298  -37.1477   25.8864 H   0  0  0  0  0  0
  -20.9280  -29.8760   21.6966 H   0  0  0  0  0  0
  -26.0197  -38.2886   24.1401 H   0  0  0  0  0  0
  -31.4161  -22.4941   16.6481 H   0  0  0  0  0  0
  -30.3955  -23.5881   20.6772 H   0  0  0  0  0  0
  -28.6594  -22.7805   11.6099 H   0  0  0  0  0  0
  -28.1114  -22.8506   13.2525 H   0  0  0  0  0  0
  -29.2479  -21.6026   12.7793 H   0  0  0  0  0  0
  -33.3407  -24.3972   11.7357 H   0  0  0  0  0  0
  -32.8614  -24.4000   13.4168 H   0  0  0  0  0  0
  -32.0765  -25.4869   12.2741 H   0  0  0  0  0  0
  -32.9207  -21.8910   11.5795 H   0  0  0  0  0  0
  -31.3738  -21.2006   12.0178 H   0  0  0  0  0  0
  -32.4396  -21.8481   13.2607 H   0  0  0  0  0  0
  -31.9181  -23.5957    9.9471 H   0  0  0  0  0  0
  -30.4949  -24.5072   10.4211 H   0  0  0  0  0  0
  -30.4120  -22.7601   10.2271 H   0  0  0  0  0  0
  -33.0696  -22.4748   19.0349 H   0  0  0  0  0  0
  -32.1377  -21.1131   18.4862 H   0  0  0  0  0  0
  -29.6833  -25.2719   15.1115 H   0  0  0  0  0  0
  -28.5763  -23.9180   15.1434 H   0  0  0  0  0  0
  -28.8128  -25.1420   21.1684 H   0  0  0  0  0  0
  -27.4317  -24.8890   20.1789 H   0  0  0  0  0  0
  -32.0501  -22.2883   21.3168 H   0  0  0  0  0  0
  -32.9661  -20.9089   20.8292 H   0  0  0  0  0  0
  -29.9121  -21.0009   20.8209 H   0  0  0  0  0  0
  -30.9316  -20.2519   22.0156 H   0  0  0  0  0  0
  -30.3880  -19.3638   19.1857 H   0  0  0  0  0  0
  -31.9175  -18.9297   19.8967 H   0  0  0  0  0  0
  -29.2747  -18.2484   21.2563 H   0  0  0  0  0  0
  -30.8826  -17.7311   21.7275 H   0  0  0  0  0  0
  -29.3181  -16.9363   19.2315 H   0  0  0  0  0  0
  -31.0336  -16.7201   19.2971 H   0  0  0  0  0  0
  -29.8147  -24.6158   12.8228 H   0  0  0  0  0  0
  -28.9573  -15.3177   20.9134 H   0  0  0  0  0  0
  -30.5515  -22.5109   14.6799 H   0  0  0  0  0  0
  -31.4382  -23.8771   14.5447 H   0  0  0  0  0  0
  1 25  1  0  0  0
  1 30  2  0  0  0
  1 91  1  0  0  0
  2  3  1  0  0  0
  2 25  1  0  0  0
  2 94  1  0  0  0
  2 95  1  0  0  0
  3  4  1  0  0  0
  3 96  1  0  0  0
  3 97  1  0  0  0
  4  5  1  0  0  0
  4 98  1  0  0  0
  4 99  1  0  0  0
  5  6  1  0  0  0
  5 26  1  0  0  0
  5100  1  0  0  0
  6 25  1  0  0  0
  6101  1  0  0  0
  6102  1  0  0  0
  7  8  2  0  0  0
  7 26  1  0  0  0
  7 29  1  0  0  0
  8  9  1  0  0  0
  8 22  1  0  0  0
  9 10  1  0  0  0
  9 27  2  0  0  0
 10 11  2  0  0  0
 10 15  1  0  0  0
 11 12  1  0  0  0
 11103  1  0  0  0
 12 13  2  0  0  0
 12104  1  0  0  0
 13 14  1  0  0  0
 13 31  1  0  0  0
 14 15  2  0  0  0
 14105  1  0  0  0
 15106  1  0  0  0
 16 17  2  0  0  0
 16 21  1  0  0  0
 16 31  1  0  0  0
 17 18  1  0  0  0
 17107  1  0  0  0
 18 19  2  0  0  0
 18108  1  0  0  0
 19 20  1  0  0  0
 19 24  1  0  0  0
 20 21  2  0  0  0
 20109  1  0  0  0
 21 23  1  0  0  0
 22 28  1  0  0  0
 22 32  2  0  0  0
 26 27  1  0  0  0
 28110  1  0  0  0
 28111  1  0  0  0
 29112  1  0  0  0
 29113  1  0  0  0
 33 34  1  0  0  0
 33 66  1  0  0  0
 33 70  2  0  0  0
 34 36  1  0  0  0
 34 59  1  0  0  0
 34114  1  0  0  0
 35 44  2  0  0  0
 35 45  1  0  0  0
 35 68  1  0  0  0
 36 56  1  0  0  0
 36115  1  0  0  0
 37 39  1  0  0  0
 37 47  1  0  0  0
 37 66  1  0  0  0
 37116  1  0  0  0
 38 43  2  0  0  0
 38 46  1  0  0  0
 38 47  1  0  0  0
 39 64  1  0  0  0
 39 67  2  0  0  0
 40 52  1  0  0  0
 40 53  2  0  0  0
 40 58  1  0  0  0
 41117  1  0  0  0
 41118  1  0  0  0
 41119  1  0  0  0
 41 48  1  0  0  0
 42 43  1  0  0  0
 42 66  1  0  0  0
 42120  1  0  0  0
 42121  1  0  0  0
 43 44  1  0  0  0
 44122  1  0  0  0
 45 46  2  0  0  0
 45123  1  0  0  0
 46124  1  0  0  0
 47125  1  0  0  0
 47126  1  0  0  0
 48 56  1  0  0  0
 48 65  1  0  0  0
 48127  1  0  0  0
 49 50  1  0  0  0
 49 53  1  0  0  0
 49 64  1  0  0  0
 49128  1  0  0  0
 50 51  1  0  0  0
 50129  1  0  0  0
 50130  1  0  0  0
 51 52  1  0  0  0
 51131  1  0  0  0
 51132  1  0  0  0
 52133  1  0  0  0
 52134  1  0  0  0
 53 54  1  0  0  0
 54 55  2  0  0  0
 54135  1  0  0  0
 55 57  1  0  0  0
 55136  1  0  0  0
 56 69  2  0  0  0
 57 58  2  0  0  0
 57137  1  0  0  0
 58138  1  0  0  0
 59 60  1  0  0  0
 59 61  1  0  0  0
 59 62  1  0  0  0
 60139  1  0  0  0
 60140  1  0  0  0
 60141  1  0  0  0
 61142  1  0  0  0
 61143  1  0  0  0
 61144  1  0  0  0
 62145  1  0  0  0
 62146  1  0  0  0
 62147  1  0  0  0
 63 65  1  0  0  0
 63148  1  0  0  0
 63149  1  0  0  0
 63150  1  0  0  0
 64151  1  0  0  0
 65152  1  0  0  0
 68 83  1  0  0  0
 71 73  2  0  0  0
 71 74  1  0  0  0
 71153  1  0  0  0
 72 73  1  0  0  0
 72 75  2  0  0  0
 72154  1  0  0  0
 73 81  1  0  0  0
 74 76  2  0  0  0
 74 82  1  0  0  0
 75 76  1  0  0  0
 75 83  1  0  0  0
 76 93  1  0  0  0
 77155  1  0  0  0
 77156  1  0  0  0
 77157  1  0  0  0
 77 89  1  0  0  0
 78158  1  0  0  0
 78159  1  0  0  0
 78160  1  0  0  0
 78 90  1  0  0  0
 79 90  1  0  0  0
 79161  1  0  0  0
 79162  1  0  0  0
 79163  1  0  0  0
 80 90  1  0  0  0
 80164  1  0  0  0
 80165  1  0  0  0
 80166  1  0  0  0
 81 84  1  0  0  0
 81167  1  0  0  0
 81168  1  0  0  0
 82 92  1  0  0  0
 82169  1  0  0  0
 82170  1  0  0  0
 83171  1  0  0  0
 83172  1  0  0  0
 84 85  1  0  0  0
 84173  1  0  0  0
 84174  1  0  0  0
 85 86  1  0  0  0
 85175  1  0  0  0
 85176  1  0  0  0
 86 87  1  0  0  0
 86177  1  0  0  0
 86178  1  0  0  0
 87 88  1  0  0  0
 87179  1  0  0  0
 87180  1  0  0  0
 88 91  1  0  0  0
 88181  1  0  0  0
 88182  1  0  0  0
 89 90  1  0  0  0
 89 92  1  0  0  0
 89183  1  0  0  0
 91184  1  0  0  0
 92185  1  0  0  0
 92186  1  0  0  0
M  CHG  1  92   1
M  ISO  4   1 100  68 101  83 101  91 100
M  END
> <chiral flag>
0

> <version>
0

> <s_m_source_file>
/data/baiqing/PycharmProjects/Reinvent-master-3.2/result/LINK_invent/BTK/process_docking_weight1_custom_sum_contain_oxygen_bond_distance_aromatic_linkinvent_7_9_3/rearranged_h_0023.sdf

> <i_m_source_file_index>
61

> <r_mmod_Potential_Energy-OPLS-2005>
-156.250579833984

> <r_mmod_Stretch_Energy-OPLS-2005>
37.5487174987793

> <r_mmod_Bend_Energy-OPLS-2005>
112.456283569336

> <r_mmod_Torsional_Energy-OPLS-2005>
268.651092529297

> <r_mmod_Improper_Torsional_Energy-OPLS-2005>
10.336784362793

> <r_mmod_Van_der_Waal_Energy-OPLS-2005>
171.288955688477

> <r_mmod_Electrostatic_Energy-OPLS-2005>
-331.378234863281

> <r_mmod_Solvation_Energy-OPLS-2005>
-439.881286621094

> <b_mmod_Minimization_Converged-OPLS-2005>
0

> <r_mmod_RMS_Derivative-OPLS-2005>
2.31818819046021

$$$$
61
                    3D
 Structure written by MMmdl.
150158  0  0  1  0            999 V2000
  -30.4061  -15.3383   20.3625 C   0  0  0  0  0  0
  -30.4407  -12.8673   19.5082 C   0  0  0  0  0  0
  -29.5355  -12.5817   18.2823 C   0  0  0  0  0  0
  -28.0896  -12.2900   18.7205 C   0  0  0  0  0  0
  -27.6070  -13.2764   19.8118 C   0  0  2  0  0  0
  -28.6430  -13.4858   20.9358 C   0  0  0  0  0  0
  -25.2392  -13.8243   20.5754 C   0  0  0  0  0  0
  -24.1747  -13.0435   20.9268 C   0  0  0  0  0  0
  -24.6404  -11.6934   20.8770 C   0  0  0  0  0  0
  -23.9102  -10.4294   21.0410 C   0  0  0  0  0  0
  -24.3641   -9.4205   21.9188 C   0  0  0  0  0  0
  -23.6310   -8.2243   22.0753 C   0  0  0  0  0  0
  -22.4292   -8.0284   21.3544 C   0  0  0  0  0  0
  -21.9936   -9.0261   20.4644 C   0  0  0  0  0  0
  -22.7272  -10.2136   20.3057 C   0  0  0  0  0  0
  -21.6855   -6.0745   22.5284 C   0  0  0  0  0  0
  -21.4013   -6.5648   23.8220 C   0  0  0  0  0  0
  -21.3657   -5.6798   24.9179 C   0  0  0  0  0  0
  -21.6041   -4.3059   24.7226 C   0  0  0  0  0  0
  -21.8819   -3.8153   23.4350 C   0  0  0  0  0  0
  -21.9194   -4.6974   22.3407 C   0  0  0  0  0  0
  -22.7765  -13.5187   21.1910 C   0  0  0  0  0  0
  -22.1663   -4.2161   21.0986 F   0  0  0  0  0  0
  -21.5626   -3.4540   25.7737 F   0  0  0  0  0  0
  -29.8543  -14.0209   20.2898 N   0  0  0  0  0  0
  -26.2809  -12.9518   20.3195 N   0  0  0  0  0  0
  -25.9338  -11.6625   20.5710 N   0  0  0  0  0  0
  -22.0419  -12.8167   22.0459 N   0  0  0  0  0  0
  -25.4019  -15.1979   20.4186 N   0  0  0  0  0  0
  -31.6398  -15.3274   20.2358 O   0  0  0  0  0  0
  -21.6643   -6.8889   21.4246 O   0  0  0  0  0  0
  -22.3448  -14.5489   20.6748 O   0  0  0  0  0  0
  -24.6685  -31.8196   23.1654 C   0  0  0  0  0  0
  -25.9349  -32.4570   23.8132 C   0  0  1  0  0  0
  -27.2183  -26.8826   20.1991 C   0  0  0  0  0  0
  -25.6008  -33.8384   24.2047 N   0  0  0  0  0  0
  -23.4840  -30.4288   21.5171 C   0  0  2  0  0  0
  -24.9357  -28.8019   20.1213 C   0  0  0  0  0  0
  -22.7685  -29.4426   22.4776 C   0  0  0  0  0  0
  -18.0324  -28.1417   22.8463 C   0  0  0  0  0  0
  -24.1488  -36.7185   23.2645 C   0  0  0  0  0  0
  -26.0556  -30.6134   21.3991 C   0  0  0  0  0  0
  -26.1234  -29.1953   20.7516 C   0  0  0  0  0  0
  -27.2615  -28.2608   20.7570 C   0  0  0  0  0  0
  -25.9982  -26.6491   19.5266 C   0  0  0  0  0  0
  -24.9004  -27.5491   19.4874 C   0  0  0  0  0  0
  -23.7257  -29.7377   20.1470 C   0  0  0  0  0  0
  -25.4131  -36.2951   24.0296 C   0  0  1  0  0  0
  -20.5952  -28.3766   23.1178 C   0  0  2  0  0  0
  -20.6799  -26.9446   22.5399 C   0  0  0  0  0  0
  -19.5773  -26.6383   21.5211 C   0  0  0  0  0  0
  -18.1954  -26.7949   22.1617 C   0  0  0  0  0  0
  -19.1588  -28.8909   23.2805 C   0  0  0  0  0  0
  -18.9499  -30.1495   23.8845 C   0  0  0  0  0  0
  -17.6494  -30.6604   24.0554 C   0  0  0  0  0  0
  -25.9107  -34.9341   23.4990 C   0  0  0  0  0  0
  -16.5382  -29.9095   23.6350 C   0  0  0  0  0  0
  -16.7305  -28.6515   23.0366 C   0  0  0  0  0  0
  -26.4581  -31.6523   25.0672 C   0  0  0  0  0  0
  -25.3697  -31.3800   26.1321 C   0  0  0  0  0  0
  -27.0481  -30.2885   24.6431 C   0  0  0  0  0  0
  -27.6061  -32.4341   25.7485 C   0  0  0  0  0  0
  -27.5560  -37.1750   24.8470 C   0  0  0  0  0  0
  -21.4349  -29.3049   22.3524 N   0  0  0  0  0  0
  -26.4266  -37.3699   23.9419 N   0  0  0  0  0  0
  -24.7581  -30.9821   22.0811 N   0  0  0  0  0  0
  -23.4208  -28.8004   23.3043 O   0  0  0  0  0  0
  -28.2257  -25.7662   20.1827 O   0  0  0  0  0  0
  -26.5710  -34.8894   22.4581 O   0  0  0  0  0  0
  -23.5745  -32.1183   23.6729 O   0  0  0  0  0  0
  -28.7452  -21.1339   17.9753 C   0  0  0  0  0  0
  -29.0786  -19.9138   18.6354 C   0  0  0  0  0  0
  -29.2222  -19.8239   20.0432 C   0  0  0  0  0  0
  -28.5722  -22.5861   19.9970 C   0  0  0  0  0  0
  -28.5073  -22.3925   18.5971 C   0  0  0  0  0  0
  -28.9423  -21.2273   20.6709 C   0  0  0  0  0  0
  -29.3126  -18.6823   17.7763 C   0  0  0  0  0  0
  -29.7987  -18.2764   20.7013 C   0  0  0  0  0  0
  -28.0242  -24.1611   20.6049 C   0  0  0  0  0  0
  -29.6248  -16.6185   20.3821 N   0  0  0  0  0  0
  -28.0757  -23.7153   17.5714 Cl  0  0  0  0  0  0
  -29.0525  -21.2781   22.3924 Cl  0  0  0  0  0  0
  -31.4489  -13.0976   19.1614 H   0  0  0  0  0  0
  -30.5423  -11.9792   20.1345 H   0  0  0  0  0  0
  -29.9293  -11.7452   17.7030 H   0  0  0  0  0  0
  -29.5450  -13.4473   17.6182 H   0  0  0  0  0  0
  -28.0624  -11.2720   19.1116 H   0  0  0  0  0  0
  -27.4177  -12.3052   17.8615 H   0  0  0  0  0  0
  -27.5079  -14.2313   19.2938 H   0  0  0  0  0  0
  -28.8388  -12.5616   21.4817 H   0  0  0  0  0  0
  -28.2713  -14.2070   21.6651 H   0  0  0  0  0  0
  -25.2781   -9.5681   22.4769 H   0  0  0  0  0  0
  -24.0018   -7.4632   22.7472 H   0  0  0  0  0  0
  -21.0866   -8.8782   19.8948 H   0  0  0  0  0  0
  -22.3730  -10.9676   19.6167 H   0  0  0  0  0  0
  -21.2001   -7.6154   23.9728 H   0  0  0  0  0  0
  -21.1478   -6.0524   25.9083 H   0  0  0  0  0  0
  -22.0597   -2.7616   23.2844 H   0  0  0  0  0  0
  -22.4048  -11.9836   22.4846 H   0  0  0  0  0  0
  -21.1027  -13.1170   22.2654 H   0  0  0  0  0  0
  -24.6286  -15.8448   20.5299 H   0  0  0  0  0  0
  -26.2378  -15.6396   20.0606 H   0  0  0  0  0  0
  -26.7423  -32.5094   23.0847 H   0  0  0  0  0  0
  -25.0144  -33.9453   25.0194 H   0  0  0  0  0  0
  -22.8004  -31.2616   21.3409 H   0  0  0  0  0  0
  -23.3767  -35.9497   23.3277 H   0  0  0  0  0  0
  -24.3565  -36.8863   22.2066 H   0  0  0  0  0  0
  -23.7228  -37.6358   23.6722 H   0  0  0  0  0  0
  -26.2372  -31.3481   20.6131 H   0  0  0  0  0  0
  -26.9156  -30.6766   22.0538 H   0  0  0  0  0  0
  -28.1674  -28.5713   21.2580 H   0  0  0  0  0  0
  -25.8727  -25.6953   19.0337 H   0  0  0  0  0  0
  -24.0005  -27.2404   18.9730 H   0  0  0  0  0  0
  -23.8895  -30.5023   19.3869 H   0  0  0  0  0  0
  -22.8334  -29.1967   19.8266 H   0  0  0  0  0  0
  -25.1332  -36.1726   25.0786 H   0  0  0  0  0  0
  -21.0033  -28.3375   24.1304 H   0  0  0  0  0  0
  -20.5678  -26.2388   23.3644 H   0  0  0  0  0  0
  -21.6662  -26.7422   22.1207 H   0  0  0  0  0  0
  -19.6940  -25.6281   21.1275 H   0  0  0  0  0  0
  -19.6712  -27.3166   20.6719 H   0  0  0  0  0  0
  -17.4222  -26.6688   21.4021 H   0  0  0  0  0  0
  -18.0351  -26.0104   22.9026 H   0  0  0  0  0  0
  -19.7974  -30.7321   24.2194 H   0  0  0  0  0  0
  -17.5050  -31.6280   24.5163 H   0  0  0  0  0  0
  -15.5381  -30.2982   23.7709 H   0  0  0  0  0  0
  -15.8701  -28.0818   22.7119 H   0  0  0  0  0  0
  -24.5887  -30.7143   25.7631 H   0  0  0  0  0  0
  -24.8880  -32.3013   26.4603 H   0  0  0  0  0  0
  -25.7916  -30.9057   27.0190 H   0  0  0  0  0  0
  -26.3159  -29.6550   24.1411 H   0  0  0  0  0  0
  -27.3975  -29.7264   25.5102 H   0  0  0  0  0  0
  -27.9115  -30.4058   23.9881 H   0  0  0  0  0  0
  -27.2625  -33.3699   26.1909 H   0  0  0  0  0  0
  -28.3957  -32.6810   25.0373 H   0  0  0  0  0  0
  -28.0634  -31.8563   26.5529 H   0  0  0  0  0  0
  -28.2560  -38.0060   24.7512 H   0  0  0  0  0  0
  -28.1069  -36.2586   24.6293 H   0  0  0  0  0  0
  -27.2282  -37.1388   25.8874 H   0  0  0  0  0  0
  -20.9619  -29.8730   21.6633 H   0  0  0  0  0  0
  -26.0101  -38.2751   24.1432 H   0  0  0  0  0  0
  -28.6571  -21.1131   16.8981 H   0  0  0  0  0  0
  -29.1883  -18.8958   16.7141 H   0  0  0  0  0  0
  -28.6047  -17.8956   18.0377 H   0  0  0  0  0  0
  -30.3239  -18.2995   17.9159 H   0  0  0  0  0  0
  -29.5213  -18.3460   21.7533 H   0  0  0  0  0  0
  -30.8806  -18.4100   20.7169 H   0  0  0  0  0  0
  -28.3181  -24.1409   21.6541 H   0  0  0  0  0  0
  -26.9414  -24.0415   20.6413 H   0  0  0  0  0  0
  -28.6443  -16.3913   20.3191 H   0  0  0  0  0  0
  1 25  1  0  0  0
  1 30  2  0  0  0
  1 80  1  0  0  0
  2  3  1  0  0  0
  2 25  1  0  0  0
  2 83  1  0  0  0
  2 84  1  0  0  0
  3  4  1  0  0  0
  3 85  1  0  0  0
  3 86  1  0  0  0
  4  5  1  0  0  0
  4 87  1  0  0  0
  4 88  1  0  0  0
  5  6  1  0  0  0
  5 26  1  0  0  0
  5 89  1  0  0  0
  6 25  1  0  0  0
  6 90  1  0  0  0
  6 91  1  0  0  0
  7  8  2  0  0  0
  7 26  1  0  0  0
  7 29  1  0  0  0
  8  9  1  0  0  0
  8 22  1  0  0  0
  9 10  1  0  0  0
  9 27  2  0  0  0
 10 11  2  0  0  0
 10 15  1  0  0  0
 11 12  1  0  0  0
 11 92  1  0  0  0
 12 13  2  0  0  0
 12 93  1  0  0  0
 13 14  1  0  0  0
 13 31  1  0  0  0
 14 15  2  0  0  0
 14 94  1  0  0  0
 15 95  1  0  0  0
 16 17  2  0  0  0
 16 21  1  0  0  0
 16 31  1  0  0  0
 17 18  1  0  0  0
 17 96  1  0  0  0
 18 19  2  0  0  0
 18 97  1  0  0  0
 19 20  1  0  0  0
 19 24  1  0  0  0
 20 21  2  0  0  0
 20 98  1  0  0  0
 21 23  1  0  0  0
 22 28  1  0  0  0
 22 32  2  0  0  0
 26 27  1  0  0  0
 28 99  1  0  0  0
 28100  1  0  0  0
 29101  1  0  0  0
 29102  1  0  0  0
 33 34  1  0  0  0
 33 66  1  0  0  0
 33 70  2  0  0  0
 34 36  1  0  0  0
 34 59  1  0  0  0
 34103  1  0  0  0
 35 44  2  0  0  0
 35 45  1  0  0  0
 35 68  1  0  0  0
 36 56  1  0  0  0
 36104  1  0  0  0
 37 39  1  0  0  0
 37 47  1  0  0  0
 37 66  1  0  0  0
 37105  1  0  0  0
 38 43  2  0  0  0
 38 46  1  0  0  0
 38 47  1  0  0  0
 39 64  1  0  0  0
 39 67  2  0  0  0
 40 52  1  0  0  0
 40 53  2  0  0  0
 40 58  1  0  0  0
 41106  1  0  0  0
 41107  1  0  0  0
 41108  1  0  0  0
 41 48  1  0  0  0
 42 43  1  0  0  0
 42 66  1  0  0  0
 42109  1  0  0  0
 42110  1  0  0  0
 43 44  1  0  0  0
 44111  1  0  0  0
 45 46  2  0  0  0
 45112  1  0  0  0
 46113  1  0  0  0
 47114  1  0  0  0
 47115  1  0  0  0
 48 56  1  0  0  0
 48 65  1  0  0  0
 48116  1  0  0  0
 49 50  1  0  0  0
 49 53  1  0  0  0
 49 64  1  0  0  0
 49117  1  0  0  0
 50 51  1  0  0  0
 50118  1  0  0  0
 50119  1  0  0  0
 51 52  1  0  0  0
 51120  1  0  0  0
 51121  1  0  0  0
 52122  1  0  0  0
 52123  1  0  0  0
 53 54  1  0  0  0
 54 55  2  0  0  0
 54124  1  0  0  0
 55 57  1  0  0  0
 55125  1  0  0  0
 56 69  2  0  0  0
 57 58  2  0  0  0
 57126  1  0  0  0
 58127  1  0  0  0
 59 60  1  0  0  0
 59 61  1  0  0  0
 59 62  1  0  0  0
 60128  1  0  0  0
 60129  1  0  0  0
 60130  1  0  0  0
 61131  1  0  0  0
 61132  1  0  0  0
 61133  1  0  0  0
 62134  1  0  0  0
 62135  1  0  0  0
 62136  1  0  0  0
 63 65  1  0  0  0
 63137  1  0  0  0
 63138  1  0  0  0
 63139  1  0  0  0
 64140  1  0  0  0
 65141  1  0  0  0
 68 79  1  0  0  0
 71 72  2  0  0  0
 71 75  1  0  0  0
 71142  1  0  0  0
 72 73  1  0  0  0
 72 77  1  0  0  0
 73 76  2  0  0  0
 73 78  1  0  0  0
 74 75  2  0  0  0
 74 76  1  0  0  0
 74 79  1  0  0  0
 75 81  1  0  0  0
 76 82  1  0  0  0
 77143  1  0  0  0
 77144  1  0  0  0
 77145  1  0  0  0
 78 80  1  0  0  0
 78146  1  0  0  0
 78147  1  0  0  0
 79148  1  0  0  0
 79149  1  0  0  0
 80150  1  0  0  0
M  ISO  4   1 100  68 101  79 101  80 100
M  END
> <chiral flag>
0

> <version>
0

> <s_m_source_file>
/data/baiqing/PycharmProjects/Reinvent-master-3.2/result/LINK_invent/BTK/process_docking_weight1_custom_sum_contain_oxygen_bond_distance_aromatic_linkinvent_7_9_3/rearranged_h_0023.sdf

> <i_m_source_file_index>
62

> <r_mmod_Potential_Energy-OPLS-2005>
1428.08239746094

> <r_mmod_Stretch_Energy-OPLS-2005>
653.351928710938

> <r_mmod_Bend_Energy-OPLS-2005>
449.68505859375

> <r_mmod_Torsional_Energy-OPLS-2005>
237.436889648438

> <r_mmod_Improper_Torsional_Energy-OPLS-2005>
5.93914222717285

> <r_mmod_Van_der_Waal_Energy-OPLS-2005>
118.433692932129

> <r_mmod_Electrostatic_Energy-OPLS-2005>
-355.445770263672

> <r_mmod_Solvation_Energy-OPLS-2005>
-213.034393310547

> <b_mmod_Minimization_Converged-OPLS-2005>
0

> <r_mmod_RMS_Derivative-OPLS-2005>
0.838247001171112

$$$$
62
                    3D
 Structure written by MMmdl.
174182  0  0  1  0            999 V2000
  -30.6685  -14.4362   20.6209 C   0  0  0  0  0  0
  -30.4333  -12.3033   19.4026 C   0  0  0  0  0  0
  -29.4931  -12.5257   18.1996 C   0  0  0  0  0  0
  -28.0141  -12.3696   18.6118 C   0  0  0  0  0  0
  -27.6644  -13.1830   19.8858 C   0  0  2  0  0  0
  -28.7036  -12.9050   20.9935 C   0  0  0  0  0  0
  -25.2613  -13.8106   20.5673 C   0  0  0  0  0  0
  -24.1822  -13.0432   20.9153 C   0  0  0  0  0  0
  -24.6337  -11.6891   20.8737 C   0  0  0  0  0  0
  -23.9002  -10.4300   21.0422 C   0  0  0  0  0  0
  -24.3564   -9.4226   21.9203 C   0  0  0  0  0  0
  -23.6254   -8.2255   22.0769 C   0  0  0  0  0  0
  -22.4243   -8.0287   21.3555 C   0  0  0  0  0  0
  -21.9858   -9.0260   20.4665 C   0  0  0  0  0  0
  -22.7174  -10.2143   20.3075 C   0  0  0  0  0  0
  -21.6847   -6.0728   22.5278 C   0  0  0  0  0  0
  -21.4018   -6.5632   23.8212 C   0  0  0  0  0  0
  -21.3660   -5.6782   24.9168 C   0  0  0  0  0  0
  -21.6035   -4.3046   24.7225 C   0  0  0  0  0  0
  -21.8815   -3.8143   23.4347 C   0  0  0  0  0  0
  -21.9192   -4.6955   22.3403 C   0  0  0  0  0  0
  -22.7865  -13.5290   21.1809 C   0  0  0  0  0  0
  -22.1658   -4.2145   21.0979 F   0  0  0  0  0  0
  -21.5625   -3.4528   25.7741 F   0  0  0  0  0  0
  -30.0399  -13.2412   20.4615 N   0  0  0  0  0  0
  -26.3019  -12.9219   20.3395 N   0  0  0  0  0  0
  -25.9253  -11.6407   20.5758 N   0  0  0  0  0  0
  -22.0441  -12.8352   22.0367 N   0  0  0  0  0  0
  -25.4418  -15.1812   20.4105 N   0  0  0  0  0  0
  -31.7563  -14.7099   20.1037 O   0  0  0  0  0  0
  -21.6630   -6.8872   21.4245 O   0  0  0  0  0  0
  -22.3607  -14.5615   20.6649 O   0  0  0  0  0  0
  -24.6097  -31.8702   23.2128 C   0  0  0  0  0  0
  -25.9007  -32.4831   23.8407 C   0  0  1  0  0  0
  -27.2482  -27.4662   20.1054 C   0  0  0  0  0  0
  -25.5886  -33.8630   24.2347 N   0  0  0  0  0  0
  -23.3951  -30.4915   21.5522 C   0  0  2  0  0  0
  -24.8460  -28.9612   20.1140 C   0  0  0  0  0  0
  -22.7371  -29.4660   22.5021 C   0  0  0  0  0  0
  -18.0261  -28.1372   22.8496 C   0  0  0  0  0  0
  -24.1478  -36.7317   23.2638 C   0  0  0  0  0  0
  -25.9171  -30.8487   21.3581 C   0  0  0  0  0  0
  -25.9980  -29.4821   20.7145 C   0  0  0  0  0  0
  -27.1981  -28.7428   20.7156 C   0  0  0  0  0  0
  -26.0848  -26.9617   19.4885 C   0  0  0  0  0  0
  -24.8822  -27.6972   19.4980 C   0  0  0  0  0  0
  -23.6010  -29.8190   20.1672 C   0  0  0  0  0  0
  -25.4095  -36.3116   24.0343 C   0  0  1  0  0  0
  -20.5842  -28.3647   23.1339 C   0  0  2  0  0  0
  -20.6749  -26.9388   22.5430 C   0  0  0  0  0  0
  -19.5733  -26.6379   21.5215 C   0  0  0  0  0  0
  -18.1905  -26.7926   22.1612 C   0  0  0  0  0  0
  -19.1507  -28.8829   23.2912 C   0  0  0  0  0  0
  -18.9440  -30.1438   23.8915 C   0  0  0  0  0  0
  -17.6446  -30.6583   24.0562 C   0  0  0  0  0  0
  -25.9020  -34.9479   23.5139 C   0  0  0  0  0  0
  -16.5336  -29.9086   23.6330 C   0  0  0  0  0  0
  -16.7249  -28.6498   23.0360 C   0  0  0  0  0  0
  -26.4464  -31.6594   25.0711 C   0  0  0  0  0  0
  -25.3755  -31.3711   26.1486 C   0  0  0  0  0  0
  -27.0275  -30.3034   24.6052 C   0  0  0  0  0  0
  -27.6065  -32.4298   25.7448 C   0  0  0  0  0  0
  -27.5578  -37.1798   24.8461 C   0  0  0  0  0  0
  -21.4106  -29.3020   22.3753 N   0  0  0  0  0  0
  -26.4289  -37.3793   23.9409 N   0  0  0  0  0  0
  -24.6582  -31.0836   22.1003 N   0  0  0  0  0  0
  -23.4163  -28.8206   23.3053 O   0  0  0  0  0  0
  -28.3848  -26.6878   20.0696 O   0  0  0  0  0  0
  -26.5568  -34.8928   22.4695 O   0  0  0  0  0  0
  -23.5302  -32.1452   23.7551 O   0  0  0  0  0  0
  -30.1839  -18.7628   22.7636 C   0  0  0  0  0  0
  -29.7091  -18.9530   20.3606 C   0  0  0  0  0  0
  -29.8955  -19.5680   21.6285 C   0  0  0  0  0  0
  -30.2151  -17.3497   22.6471 C   0  0  0  0  0  0
  -29.7438  -17.5366   20.2417 C   0  0  0  0  0  0
  -30.0222  -16.7352   21.3837 C   0  0  0  0  0  0
  -30.4312  -19.4008   24.1335 C   0  0  0  0  0  0
  -29.4298  -19.8128   19.1242 C   0  0  0  0  0  0
  -30.4259  -16.4983   23.9020 C   0  0  0  0  0  0
  -29.4209  -16.8947   18.8908 C   0  0  0  0  0  0
  -30.7890  -23.5283   23.5330 C   0  0  0  0  0  0
  -29.7260  -21.0874   21.7870 C   0  0  0  0  0  0
  -31.0449  -21.8690   21.6067 C   0  0  0  0  0  0
  -30.3566  -25.7073   21.1556 C   0  0  0  0  0  0
  -29.9914  -24.2051   21.2011 C   0  0  0  0  0  0
  -29.1708  -26.6814   21.2599 C   0  0  0  0  0  0
  -31.0023  -23.3607   22.0156 C   0  0  1  0  0  0
  -29.9472  -15.3156   21.3357 N   0  0  0  0  0  0
  -31.4750  -12.4293   19.1024 H   0  0  0  0  0  0
  -30.3524  -11.2785   19.7667 H   0  0  0  0  0  0
  -29.7312  -11.8247   17.3987 H   0  0  0  0  0  0
  -29.6556  -13.5237   17.7891 H   0  0  0  0  0  0
  -27.8284  -11.3093   18.7904 H   0  0  0  0  0  0
  -27.3611  -12.6583   17.7878 H   0  0  0  0  0  0
  -27.7184  -14.2367   19.6229 H   0  0  0  0  0  0
  -28.6823  -11.8483   21.2650 H   0  0  0  0  0  0
  -28.4493  -13.4314   21.9151 H   0  0  0  0  0  0
  -25.2695   -9.5708   22.4792 H   0  0  0  0  0  0
  -23.9962   -7.4647   22.7483 H   0  0  0  0  0  0
  -21.0789   -8.8763   19.8981 H   0  0  0  0  0  0
  -22.3613  -10.9680   19.6197 H   0  0  0  0  0  0
  -21.2013   -7.6138   23.9707 H   0  0  0  0  0  0
  -21.1480   -6.0517   25.9065 H   0  0  0  0  0  0
  -22.0594   -2.7606   23.2844 H   0  0  0  0  0  0
  -22.3974  -12.0016   22.4823 H   0  0  0  0  0  0
  -21.1085  -13.1482   22.2529 H   0  0  0  0  0  0
  -24.6869  -15.8470   20.5307 H   0  0  0  0  0  0
  -26.3094  -15.6151   20.1220 H   0  0  0  0  0  0
  -26.7084  -32.5569   23.1184 H   0  0  0  0  0  0
  -25.0066  -33.9800   25.0511 H   0  0  0  0  0  0
  -22.6808  -31.3060   21.4137 H   0  0  0  0  0  0
  -23.3738  -35.9650   23.3308 H   0  0  0  0  0  0
  -24.3583  -36.8921   22.2052 H   0  0  0  0  0  0
  -23.7235  -37.6526   23.6645 H   0  0  0  0  0  0
  -26.0175  -31.6112   20.5843 H   0  0  0  0  0  0
  -26.8088  -30.9124   21.9692 H   0  0  0  0  0  0
  -28.0758  -29.1742   21.1731 H   0  0  0  0  0  0
  -26.1089  -25.9918   19.0123 H   0  0  0  0  0  0
  -23.9976  -27.2897   19.0276 H   0  0  0  0  0  0
  -23.6944  -30.5906   19.4023 H   0  0  0  0  0  0
  -22.7291  -29.2275   19.8817 H   0  0  0  0  0  0
  -25.1272  -36.1986   25.0837 H   0  0  0  0  0  0
  -20.9931  -28.3220   24.1460 H   0  0  0  0  0  0
  -20.5647  -26.2252   23.3609 H   0  0  0  0  0  0
  -21.6625  -26.7437   22.1229 H   0  0  0  0  0  0
  -19.6887  -25.6294   21.1234 H   0  0  0  0  0  0
  -19.6680  -27.3197   20.6753 H   0  0  0  0  0  0
  -17.4184  -26.6702   21.4002 H   0  0  0  0  0  0
  -18.0275  -26.0056   22.8988 H   0  0  0  0  0  0
  -19.7922  -30.7247   24.2291 H   0  0  0  0  0  0
  -17.5007  -31.6277   24.5144 H   0  0  0  0  0  0
  -15.5336  -30.2992   23.7649 H   0  0  0  0  0  0
  -15.8648  -28.0815   22.7081 H   0  0  0  0  0  0
  -24.5909  -30.7065   25.7854 H   0  0  0  0  0  0
  -24.8966  -32.2872   26.4950 H   0  0  0  0  0  0
  -25.8130  -30.8882   27.0232 H   0  0  0  0  0  0
  -26.2791  -29.6791   24.1157 H   0  0  0  0  0  0
  -27.4111  -29.7274   25.4484 H   0  0  0  0  0  0
  -27.8598  -30.4354   23.9136 H   0  0  0  0  0  0
  -27.2712  -33.3597   26.2055 H   0  0  0  0  0  0
  -28.3845  -32.6859   25.0242 H   0  0  0  0  0  0
  -28.0761  -31.8401   26.5331 H   0  0  0  0  0  0
  -28.2612  -38.0079   24.7505 H   0  0  0  0  0  0
  -28.1054  -36.2617   24.6279 H   0  0  0  0  0  0
  -27.2304  -37.1458   25.8867 H   0  0  0  0  0  0
  -20.9251  -29.8735   21.6978 H   0  0  0  0  0  0
  -26.0183  -38.2874   24.1411 H   0  0  0  0  0  0
  -30.8086  -20.4187   24.0731 H   0  0  0  0  0  0
  -31.1810  -18.8539   24.7038 H   0  0  0  0  0  0
  -29.5084  -19.4177   24.7131 H   0  0  0  0  0  0
  -29.9031  -20.7909   19.1737 H   0  0  0  0  0  0
  -28.3559  -19.9590   19.0028 H   0  0  0  0  0  0
  -29.8169  -19.3627   18.2115 H   0  0  0  0  0  0
  -29.8079  -16.8627   24.7229 H   0  0  0  0  0  0
  -31.4693  -16.5399   24.2134 H   0  0  0  0  0  0
  -30.1626  -15.4490   23.7827 H   0  0  0  0  0  0
  -28.6366  -17.4380   18.3656 H   0  0  0  0  0  0
  -29.0467  -15.8800   18.9766 H   0  0  0  0  0  0
  -30.3099  -16.8720   18.2613 H   0  0  0  0  0  0
  -31.4990  -22.9271   24.1014 H   0  0  0  0  0  0
  -29.7867  -23.2288   23.8394 H   0  0  0  0  0  0
  -30.9227  -24.5626   23.8495 H   0  0  0  0  0  0
  -29.2797  -21.2948   22.7576 H   0  0  0  0  0  0
  -28.9735  -21.4617   21.0943 H   0  0  0  0  0  0
  -31.3760  -21.7882   20.5715 H   0  0  0  0  0  0
  -31.8277  -21.3817   22.1895 H   0  0  0  0  0  0
  -30.9314  -25.9213   20.2534 H   0  0  0  0  0  0
  -31.0276  -25.9398   21.9821 H   0  0  0  0  0  0
  -29.9426  -23.8374   20.1755 H   0  0  0  0  0  0
  -28.9889  -24.0662   21.6090 H   0  0  0  0  0  0
  -29.5811  -27.6730   21.4475 H   0  0  0  0  0  0
  -28.5495  -26.4220   22.1198 H   0  0  0  0  0  0
  -31.9995  -23.7453   21.7916 H   0  0  0  0  0  0
  -29.1610  -14.9121   21.8199 H   0  0  0  0  0  0
  1 25  1  0  0  0
  1 30  2  0  0  0
  1 88  1  0  0  0
  2  3  1  0  0  0
  2 25  1  0  0  0
  2 89  1  0  0  0
  2 90  1  0  0  0
  3  4  1  0  0  0
  3 91  1  0  0  0
  3 92  1  0  0  0
  4  5  1  0  0  0
  4 93  1  0  0  0
  4 94  1  0  0  0
  5  6  1  0  0  0
  5 26  1  0  0  0
  5 95  1  0  0  0
  6 25  1  0  0  0
  6 96  1  0  0  0
  6 97  1  0  0  0
  7  8  2  0  0  0
  7 26  1  0  0  0
  7 29  1  0  0  0
  8  9  1  0  0  0
  8 22  1  0  0  0
  9 10  1  0  0  0
  9 27  2  0  0  0
 10 11  2  0  0  0
 10 15  1  0  0  0
 11 12  1  0  0  0
 11 98  1  0  0  0
 12 13  2  0  0  0
 12 99  1  0  0  0
 13 14  1  0  0  0
 13 31  1  0  0  0
 14 15  2  0  0  0
 14100  1  0  0  0
 15101  1  0  0  0
 16 17  2  0  0  0
 16 21  1  0  0  0
 16 31  1  0  0  0
 17 18  1  0  0  0
 17102  1  0  0  0
 18 19  2  0  0  0
 18103  1  0  0  0
 19 20  1  0  0  0
 19 24  1  0  0  0
 20 21  2  0  0  0
 20104  1  0  0  0
 21 23  1  0  0  0
 22 28  1  0  0  0
 22 32  2  0  0  0
 26 27  1  0  0  0
 28105  1  0  0  0
 28106  1  0  0  0
 29107  1  0  0  0
 29108  1  0  0  0
 33 34  1  0  0  0
 33 66  1  0  0  0
 33 70  2  0  0  0
 34 36  1  0  0  0
 34 59  1  0  0  0
 34109  1  0  0  0
 35 44  2  0  0  0
 35 45  1  0  0  0
 35 68  1  0  0  0
 36 56  1  0  0  0
 36110  1  0  0  0
 37 39  1  0  0  0
 37 47  1  0  0  0
 37 66  1  0  0  0
 37111  1  0  0  0
 38 43  2  0  0  0
 38 46  1  0  0  0
 38 47  1  0  0  0
 39 64  1  0  0  0
 39 67  2  0  0  0
 40 52  1  0  0  0
 40 53  2  0  0  0
 40 58  1  0  0  0
 41112  1  0  0  0
 41113  1  0  0  0
 41114  1  0  0  0
 41 48  1  0  0  0
 42 43  1  0  0  0
 42 66  1  0  0  0
 42115  1  0  0  0
 42116  1  0  0  0
 43 44  1  0  0  0
 44117  1  0  0  0
 45 46  2  0  0  0
 45118  1  0  0  0
 46119  1  0  0  0
 47120  1  0  0  0
 47121  1  0  0  0
 48 56  1  0  0  0
 48 65  1  0  0  0
 48122  1  0  0  0
 49 50  1  0  0  0
 49 53  1  0  0  0
 49 64  1  0  0  0
 49123  1  0  0  0
 50 51  1  0  0  0
 50124  1  0  0  0
 50125  1  0  0  0
 51 52  1  0  0  0
 51126  1  0  0  0
 51127  1  0  0  0
 52128  1  0  0  0
 52129  1  0  0  0
 53 54  1  0  0  0
 54 55  2  0  0  0
 54130  1  0  0  0
 55 57  1  0  0  0
 55131  1  0  0  0
 56 69  2  0  0  0
 57 58  2  0  0  0
 57132  1  0  0  0
 58133  1  0  0  0
 59 60  1  0  0  0
 59 61  1  0  0  0
 59 62  1  0  0  0
 60134  1  0  0  0
 60135  1  0  0  0
 60136  1  0  0  0
 61137  1  0  0  0
 61138  1  0  0  0
 61139  1  0  0  0
 62140  1  0  0  0
 62141  1  0  0  0
 62142  1  0  0  0
 63 65  1  0  0  0
 63143  1  0  0  0
 63144  1  0  0  0
 63145  1  0  0  0
 64146  1  0  0  0
 65147  1  0  0  0
 68 86  1  0  0  0
 71 73  2  0  0  0
 71 74  1  0  0  0
 71 77  1  0  0  0
 72 73  1  0  0  0
 72 75  2  0  0  0
 72 78  1  0  0  0
 73 82  1  0  0  0
 74 76  2  0  0  0
 74 79  1  0  0  0
 75 76  1  0  0  0
 75 80  1  0  0  0
 76 88  1  0  0  0
 77148  1  0  0  0
 77149  1  0  0  0
 77150  1  0  0  0
 78151  1  0  0  0
 78152  1  0  0  0
 78153  1  0  0  0
 79154  1  0  0  0
 79155  1  0  0  0
 79156  1  0  0  0
 80157  1  0  0  0
 80158  1  0  0  0
 80159  1  0  0  0
 81160  1  0  0  0
 81161  1  0  0  0
 81162  1  0  0  0
 81 87  1  0  0  0
 82 83  1  0  0  0
 82163  1  0  0  0
 82164  1  0  0  0
 83 87  1  0  0  0
 83165  1  0  0  0
 83166  1  0  0  0
 84 85  1  0  0  0
 84 86  1  0  0  0
 84167  1  0  0  0
 84168  1  0  0  0
 85 87  1  0  0  0
 85169  1  0  0  0
 85170  1  0  0  0
 86171  1  0  0  0
 86172  1  0  0  0
 87173  1  0  0  0
 88174  1  0  0  0
M  ISO  4   1 100  68 101  86 101  88 100
M  END
> <chiral flag>
0

> <version>
0

> <s_m_source_file>
/data/baiqing/PycharmProjects/Reinvent-master-3.2/result/LINK_invent/BTK/process_docking_weight1_custom_sum_contain_oxygen_bond_distance_aromatic_linkinvent_7_9_3/rearranged_h_0023.sdf

> <i_m_source_file_index>
63

> <r_mmod_Potential_Energy-OPLS-2005>
-44.541820526123

> <r_mmod_Stretch_Energy-OPLS-2005>
39.8817901611328

> <r_mmod_Bend_Energy-OPLS-2005>
102.106407165527

> <r_mmod_Torsional_Energy-OPLS-2005>
259.906402587891

> <r_mmod_Improper_Torsional_Energy-OPLS-2005>
3.42615580558777

> <r_mmod_Van_der_Waal_Energy-OPLS-2005>
176.507797241211

> <r_mmod_Electrostatic_Energy-OPLS-2005>
-437.289703369141

> <r_mmod_Solvation_Energy-OPLS-2005>
-198.330108642578

> <b_mmod_Minimization_Converged-OPLS-2005>
0

> <r_mmod_RMS_Derivative-OPLS-2005>
1.89566922187805

$$$$
63
                    3D
 Structure written by MMmdl.
169177  0  0  1  0            999 V2000
  -30.6588  -14.5520   20.5468 C   0  0  0  0  0  0
  -30.4236  -12.3569   19.4232 C   0  0  0  0  0  0
  -29.4877  -12.4882   18.2033 C   0  0  0  0  0  0
  -28.0133  -12.3332   18.6253 C   0  0  0  0  0  0
  -27.6484  -13.2036   19.8581 C   0  0  2  0  0  0
  -28.6908  -13.0361   20.9824 C   0  0  0  0  0  0
  -25.2556  -13.8160   20.5675 C   0  0  0  0  0  0
  -24.1807  -13.0453   20.9193 C   0  0  0  0  0  0
  -24.6341  -11.6913   20.8739 C   0  0  0  0  0  0
  -23.9015  -10.4303   21.0416 C   0  0  0  0  0  0
  -24.3585   -9.4225   21.9193 C   0  0  0  0  0  0
  -23.6281   -8.2248   22.0752 C   0  0  0  0  0  0
  -22.4265   -8.0275   21.3535 C   0  0  0  0  0  0
  -21.9894   -9.0242   20.4636 C   0  0  0  0  0  0
  -22.7200  -10.2135   20.3059 C   0  0  0  0  0  0
  -21.6854   -6.0733   22.5278 C   0  0  0  0  0  0
  -21.4004   -6.5634   23.8211 C   0  0  0  0  0  0
  -21.3660   -5.6786   24.9172 C   0  0  0  0  0  0
  -21.6046   -4.3050   24.7222 C   0  0  0  0  0  0
  -21.8820   -3.8144   23.4344 C   0  0  0  0  0  0
  -21.9188   -4.6961   22.3404 C   0  0  0  0  0  0
  -22.7835  -13.5270   21.1866 C   0  0  0  0  0  0
  -22.1661   -4.2152   21.0983 F   0  0  0  0  0  0
  -21.5636   -3.4538   25.7737 F   0  0  0  0  0  0
  -30.0043  -13.3653   20.4123 N   0  0  0  0  0  0
  -26.2947  -12.9310   20.3310 N   0  0  0  0  0  0
  -25.9256  -11.6476   20.5743 N   0  0  0  0  0  0
  -22.0463  -12.8251   22.0407 N   0  0  0  0  0  0
  -25.4345  -15.1881   20.4106 N   0  0  0  0  0  0
  -31.8294  -14.6807   20.1954 O   0  0  0  0  0  0
  -21.6632   -6.8870   21.4235 O   0  0  0  0  0  0
  -22.3537  -14.5591   20.6728 O   0  0  0  0  0  0
  -24.6175  -31.8614   23.2079 C   0  0  0  0  0  0
  -25.9055  -32.4804   23.8377 C   0  0  1  0  0  0
  -27.2395  -27.3848   20.1048 C   0  0  0  0  0  0
  -25.5889  -33.8601   24.2243 N   0  0  0  0  0  0
  -23.4065  -30.4786   21.5522 C   0  0  2  0  0  0
  -24.8566  -28.9358   20.1191 C   0  0  0  0  0  0
  -22.7411  -29.4573   22.5042 C   0  0  0  0  0  0
  -18.0254  -28.1357   22.8490 C   0  0  0  0  0  0
  -24.1472  -36.7274   23.2641 C   0  0  0  0  0  0
  -25.9408  -30.8102   21.3708 C   0  0  0  0  0  0
  -26.0182  -29.4410   20.7163 C   0  0  0  0  0  0
  -27.2073  -28.6705   20.7078 C   0  0  0  0  0  0
  -26.0547  -26.9029   19.5062 C   0  0  0  0  0  0
  -24.8732  -27.6686   19.5126 C   0  0  0  0  0  0
  -23.6138  -29.7989   20.1724 C   0  0  0  0  0  0
  -25.4116  -36.3061   24.0311 C   0  0  1  0  0  0
  -20.5841  -28.3593   23.1345 C   0  0  2  0  0  0
  -20.6719  -26.9329   22.5412 C   0  0  0  0  0  0
  -19.5691  -26.6345   21.5203 C   0  0  0  0  0  0
  -18.1873  -26.7915   22.1611 C   0  0  0  0  0  0
  -19.1506  -28.8807   23.2909 C   0  0  0  0  0  0
  -18.9433  -30.1440   23.8871 C   0  0  0  0  0  0
  -17.6433  -30.6569   24.0548 C   0  0  0  0  0  0
  -25.9048  -34.9446   23.5066 C   0  0  0  0  0  0
  -16.5314  -29.9046   23.6373 C   0  0  0  0  0  0
  -16.7252  -28.6475   23.0376 C   0  0  0  0  0  0
  -26.4450  -31.6694   25.0790 C   0  0  0  0  0  0
  -25.3675  -31.3842   26.1527 C   0  0  0  0  0  0
  -27.0336  -30.3143   24.6264 C   0  0  0  0  0  0
  -27.5994  -32.4502   25.7538 C   0  0  0  0  0  0
  -27.5582  -37.1762   24.8452 C   0  0  0  0  0  0
  -21.4142  -29.2976   22.3787 N   0  0  0  0  0  0
  -26.4269  -37.3772   23.9434 N   0  0  0  0  0  0
  -24.6730  -31.0671   22.1005 N   0  0  0  0  0  0
  -23.4162  -28.8095   23.3082 O   0  0  0  0  0  0
  -28.4150  -26.6468   20.1400 O   0  0  0  0  0  0
  -26.5587  -34.8895   22.4615 O   0  0  0  0  0  0
  -23.5358  -32.1370   23.7472 O   0  0  0  0  0  0
  -27.5803  -24.1486   21.4864 C   0  0  0  0  0  0
  -28.5454  -21.5951   20.6141 C   0  0  0  0  0  0
  -27.3516  -22.9943   22.2634 C   0  0  0  0  0  0
  -28.3031  -24.0745   20.2859 C   0  0  0  0  0  0
  -27.8353  -21.7272   21.8414 C   0  0  0  0  0  0
  -28.7722  -22.7937   19.8482 C   0  0  0  0  0  0
  -28.9562  -20.2162   20.0746 C   0  0  0  0  0  0
  -26.5445  -23.1367   23.5412 C   0  0  0  0  0  0
  -32.0703  -19.6734   19.1084 C   0  0  0  0  0  0
  -32.8887  -17.4872   19.8559 C   0  0  0  0  0  0
  -32.5164  -19.2855   21.5391 C   0  0  0  0  0  0
  -28.5554  -25.3660   19.4645 C   0  0  0  0  0  0
  -30.3127  -16.9504   21.4584 C   0  0  0  0  0  0
  -30.4535  -18.1662   20.4438 C   0  0  2  0  0  0
  -31.9510  -18.6387   20.2499 C   0  0  0  0  0  0
  -29.6620  -19.3645   20.8651 N   0  0  0  0  0  0
  -29.9037  -15.6090   20.9489 N   0  0  0  0  0  0
  -28.6778  -19.9127   18.9113 O   0  0  0  0  0  0
  -27.4818  -20.3483   22.8338 Cl  0  0  0  0  0  0
  -29.6596  -22.7275   18.3559 Cl  0  0  0  0  0  0
  -31.4619  -12.4816   19.1102 H   0  0  0  0  0  0
  -30.3613  -11.3557   19.8534 H   0  0  0  0  0  0
  -29.7394  -11.7338   17.4561 H   0  0  0  0  0  0
  -29.6329  -13.4562   17.7209 H   0  0  0  0  0  0
  -27.8469  -11.2798   18.8560 H   0  0  0  0  0  0
  -27.3525  -12.5651   17.7884 H   0  0  0  0  0  0
  -27.6762  -14.2409   19.5244 H   0  0  0  0  0  0
  -28.6922  -12.0095   21.3519 H   0  0  0  0  0  0
  -28.4452  -13.6604   21.8426 H   0  0  0  0  0  0
  -25.2730   -9.5712   22.4766 H   0  0  0  0  0  0
  -23.9997   -7.4638   22.7467 H   0  0  0  0  0  0
  -21.0835   -8.8745   19.8931 H   0  0  0  0  0  0
  -22.3659  -10.9666   19.6164 H   0  0  0  0  0  0
  -21.1983   -7.6136   23.9713 H   0  0  0  0  0  0
  -21.1488   -6.0515   25.9075 H   0  0  0  0  0  0
  -22.0599   -2.7606   23.2843 H   0  0  0  0  0  0
  -22.4053  -11.9895   22.4777 H   0  0  0  0  0  0
  -21.1085  -13.1285   22.2626 H   0  0  0  0  0  0
  -24.6768  -15.8522   20.5229 H   0  0  0  0  0  0
  -26.2926  -15.6199   20.0931 H   0  0  0  0  0  0
  -26.7134  -32.5487   23.1140 H   0  0  0  0  0  0
  -25.0103  -33.9751   25.0429 H   0  0  0  0  0  0
  -22.6974  -31.2960   21.4085 H   0  0  0  0  0  0
  -23.3735  -35.9594   23.3290 H   0  0  0  0  0  0
  -24.3550  -36.8933   22.2054 H   0  0  0  0  0  0
  -23.7197  -37.6456   23.6696 H   0  0  0  0  0  0
  -26.0655  -31.5701   20.5977 H   0  0  0  0  0  0
  -26.8205  -30.8594   22.0018 H   0  0  0  0  0  0
  -28.1031  -29.0556   21.1775 H   0  0  0  0  0  0
  -26.0117  -25.9268   19.0500 H   0  0  0  0  0  0
  -23.9792  -27.2620   19.0608 H   0  0  0  0  0  0
  -23.7001  -30.5619   19.3981 H   0  0  0  0  0  0
  -22.7434  -29.1986   19.8991 H   0  0  0  0  0  0
  -25.1286  -36.1881   25.0795 H   0  0  0  0  0  0
  -20.9913  -28.3112   24.1476 H   0  0  0  0  0  0
  -20.5589  -26.2171   23.3573 H   0  0  0  0  0  0
  -21.6588  -26.7365   22.1197 H   0  0  0  0  0  0
  -19.6818  -25.6257   21.1223 H   0  0  0  0  0  0
  -19.6658  -27.3158   20.6733 H   0  0  0  0  0  0
  -17.4149  -26.6702   21.4000 H   0  0  0  0  0  0
  -18.0247  -26.0054   22.8995 H   0  0  0  0  0  0
  -19.7904  -30.7276   24.2206 H   0  0  0  0  0  0
  -17.4982  -31.6264   24.5105 H   0  0  0  0  0  0
  -15.5308  -30.2891   23.7793 H   0  0  0  0  0  0
  -15.8653  -28.0797   22.7094 H   0  0  0  0  0  0
  -24.5806  -30.7239   25.7872 H   0  0  0  0  0  0
  -24.8885  -32.3002   26.5004 H   0  0  0  0  0  0
  -25.7957  -30.8992   27.0301 H   0  0  0  0  0  0
  -26.2940  -29.6893   24.1241 H   0  0  0  0  0  0
  -27.4003  -29.7436   25.4805 H   0  0  0  0  0  0
  -27.8788  -30.4486   23.9505 H   0  0  0  0  0  0
  -27.2598  -33.3830   26.2053 H   0  0  0  0  0  0
  -28.3803  -32.7071   25.0374 H   0  0  0  0  0  0
  -28.0646  -31.8702   26.5512 H   0  0  0  0  0  0
  -28.2541  -38.0113   24.7641 H   0  0  0  0  0  0
  -28.1133  -36.2665   24.6122 H   0  0  0  0  0  0
  -27.2320  -37.1250   25.8847 H   0  0  0  0  0  0
  -20.9302  -29.8787   21.7096 H   0  0  0  0  0  0
  -26.0135  -38.2818   24.1518 H   0  0  0  0  0  0
  -27.1931  -25.1044   21.8089 H   0  0  0  0  0  0
  -26.2857  -24.1782   23.7404 H   0  0  0  0  0  0
  -27.1025  -22.7686   24.4019 H   0  0  0  0  0  0
  -25.6134  -22.5741   23.4623 H   0  0  0  0  0  0
  -33.1135  -19.8676   18.8529 H   0  0  0  0  0  0
  -31.6416  -20.6378   19.3739 H   0  0  0  0  0  0
  -31.5771  -19.3237   18.2006 H   0  0  0  0  0  0
  -33.8934  -17.8494   19.6383 H   0  0  0  0  0  0
  -32.5319  -16.9647   18.9676 H   0  0  0  0  0  0
  -33.0102  -16.7675   20.6623 H   0  0  0  0  0  0
  -33.5524  -19.5970   21.3991 H   0  0  0  0  0  0
  -32.5094  -18.5989   22.3850 H   0  0  0  0  0  0
  -31.9630  -20.1749   21.8399 H   0  0  0  0  0  0
  -28.0108  -25.3304   18.5207 H   0  0  0  0  0  0
  -29.6050  -25.3376   19.1772 H   0  0  0  0  0  0
  -29.5727  -17.2089   22.2175 H   0  0  0  0  0  0
  -31.2269  -16.8132   22.0327 H   0  0  0  0  0  0
  -30.0635  -17.8281   19.4816 H   0  0  0  0  0  0
  -29.7986  -19.6683   21.8190 H   0  0  0  0  0  0
  -28.9283  -15.3900   21.0822 H   0  0  0  0  0  0
  1 25  1  0  0  0
  1 30  2  0  0  0
  1 87  1  0  0  0
  2  3  1  0  0  0
  2 25  1  0  0  0
  2 91  1  0  0  0
  2 92  1  0  0  0
  3  4  1  0  0  0
  3 93  1  0  0  0
  3 94  1  0  0  0
  4  5  1  0  0  0
  4 95  1  0  0  0
  4 96  1  0  0  0
  5  6  1  0  0  0
  5 26  1  0  0  0
  5 97  1  0  0  0
  6 25  1  0  0  0
  6 98  1  0  0  0
  6 99  1  0  0  0
  7  8  2  0  0  0
  7 26  1  0  0  0
  7 29  1  0  0  0
  8  9  1  0  0  0
  8 22  1  0  0  0
  9 10  1  0  0  0
  9 27  2  0  0  0
 10 11  2  0  0  0
 10 15  1  0  0  0
 11 12  1  0  0  0
 11100  1  0  0  0
 12 13  2  0  0  0
 12101  1  0  0  0
 13 14  1  0  0  0
 13 31  1  0  0  0
 14 15  2  0  0  0
 14102  1  0  0  0
 15103  1  0  0  0
 16 17  2  0  0  0
 16 21  1  0  0  0
 16 31  1  0  0  0
 17 18  1  0  0  0
 17104  1  0  0  0
 18 19  2  0  0  0
 18105  1  0  0  0
 19 20  1  0  0  0
 19 24  1  0  0  0
 20 21  2  0  0  0
 20106  1  0  0  0
 21 23  1  0  0  0
 22 28  1  0  0  0
 22 32  2  0  0  0
 26 27  1  0  0  0
 28107  1  0  0  0
 28108  1  0  0  0
 29109  1  0  0  0
 29110  1  0  0  0
 33 34  1  0  0  0
 33 66  1  0  0  0
 33 70  2  0  0  0
 34 36  1  0  0  0
 34 59  1  0  0  0
 34111  1  0  0  0
 35 44  2  0  0  0
 35 45  1  0  0  0
 35 68  1  0  0  0
 36 56  1  0  0  0
 36112  1  0  0  0
 37 39  1  0  0  0
 37 47  1  0  0  0
 37 66  1  0  0  0
 37113  1  0  0  0
 38 43  2  0  0  0
 38 46  1  0  0  0
 38 47  1  0  0  0
 39 64  1  0  0  0
 39 67  2  0  0  0
 40 52  1  0  0  0
 40 53  2  0  0  0
 40 58  1  0  0  0
 41114  1  0  0  0
 41115  1  0  0  0
 41116  1  0  0  0
 41 48  1  0  0  0
 42 43  1  0  0  0
 42 66  1  0  0  0
 42117  1  0  0  0
 42118  1  0  0  0
 43 44  1  0  0  0
 44119  1  0  0  0
 45 46  2  0  0  0
 45120  1  0  0  0
 46121  1  0  0  0
 47122  1  0  0  0
 47123  1  0  0  0
 48 56  1  0  0  0
 48 65  1  0  0  0
 48124  1  0  0  0
 49 50  1  0  0  0
 49 53  1  0  0  0
 49 64  1  0  0  0
 49125  1  0  0  0
 50 51  1  0  0  0
 50126  1  0  0  0
 50127  1  0  0  0
 51 52  1  0  0  0
 51128  1  0  0  0
 51129  1  0  0  0
 52130  1  0  0  0
 52131  1  0  0  0
 53 54  1  0  0  0
 54 55  2  0  0  0
 54132  1  0  0  0
 55 57  1  0  0  0
 55133  1  0  0  0
 56 69  2  0  0  0
 57 58  2  0  0  0
 57134  1  0  0  0
 58135  1  0  0  0
 59 60  1  0  0  0
 59 61  1  0  0  0
 59 62  1  0  0  0
 60136  1  0  0  0
 60137  1  0  0  0
 60138  1  0  0  0
 61139  1  0  0  0
 61140  1  0  0  0
 61141  1  0  0  0
 62142  1  0  0  0
 62143  1  0  0  0
 62144  1  0  0  0
 63 65  1  0  0  0
 63145  1  0  0  0
 63146  1  0  0  0
 63147  1  0  0  0
 64148  1  0  0  0
 65149  1  0  0  0
 68 82  1  0  0  0
 71 73  2  0  0  0
 71 74  1  0  0  0
 71150  1  0  0  0
 72 75  2  0  0  0
 72 76  1  0  0  0
 72 77  1  0  0  0
 73 75  1  0  0  0
 73 78  1  0  0  0
 74 76  2  0  0  0
 74 82  1  0  0  0
 75 89  1  0  0  0
 76 90  1  0  0  0
 77 86  1  0  0  0
 77 88  2  0  0  0
 78151  1  0  0  0
 78152  1  0  0  0
 78153  1  0  0  0
 79154  1  0  0  0
 79155  1  0  0  0
 79156  1  0  0  0
 79 85  1  0  0  0
 80 85  1  0  0  0
 80157  1  0  0  0
 80158  1  0  0  0
 80159  1  0  0  0
 81 85  1  0  0  0
 81160  1  0  0  0
 81161  1  0  0  0
 81162  1  0  0  0
 82163  1  0  0  0
 82164  1  0  0  0
 83 87  1  0  0  0
 83165  1  0  0  0
 83166  1  0  0  0
 83 84  1  0  0  0
 84 85  1  0  0  0
 84 86  1  0  0  0
 84167  1  0  0  0
 86168  1  0  0  0
 87169  1  0  0  0
M  ISO  4   1 100  68 101  82 101  87 100
M  END
> <chiral flag>
0

> <version>
0

> <s_m_source_file>
/data/baiqing/PycharmProjects/Reinvent-master-3.2/result/LINK_invent/BTK/process_docking_weight1_custom_sum_contain_oxygen_bond_distance_aromatic_linkinvent_7_9_3/rearranged_h_0023.sdf

> <i_m_source_file_index>
64

> <r_mmod_Potential_Energy-OPLS-2005>
-44.0702285766602

> <r_mmod_Stretch_Energy-OPLS-2005>
64.2732238769531

> <r_mmod_Bend_Energy-OPLS-2005>
136.400848388672

> <r_mmod_Torsional_Energy-OPLS-2005>
251.58219909668

> <r_mmod_Improper_Torsional_Energy-OPLS-2005>
4.18133544921875

> <r_mmod_Van_der_Waal_Energy-OPLS-2005>
159.628753662109

> <r_mmod_Electrostatic_Energy-OPLS-2005>
-478.656921386719

> <r_mmod_Solvation_Energy-OPLS-2005>
-208.165649414062

> <b_mmod_Minimization_Converged-OPLS-2005>
0

> <r_mmod_RMS_Derivative-OPLS-2005>
3.6431200504303

$$$$
64
                    3D
 Structure written by MMmdl.
176184  0  0  1  0            999 V2000
  -30.7494  -14.5885   20.3177 C   0  0  0  0  0  0
  -30.3740  -12.3301   19.4261 C   0  0  0  0  0  0
  -29.4453  -12.3082   18.2091 C   0  0  0  0  0  0
  -27.9603  -12.2790   18.6405 C   0  0  0  0  0  0
  -27.6114  -13.1861   19.8540 C   0  0  2  0  0  0
  -28.6938  -13.2128   20.9513 C   0  0  0  0  0  0
  -25.2460  -13.8056   20.5929 C   0  0  0  0  0  0
  -24.1679  -13.0342   20.9356 C   0  0  0  0  0  0
  -24.6240  -11.6844   20.8870 C   0  0  0  0  0  0
  -23.8913  -10.4210   21.0450 C   0  0  0  0  0  0
  -24.3511   -9.4149   21.9215 C   0  0  0  0  0  0
  -23.6223   -8.2158   22.0742 C   0  0  0  0  0  0
  -22.4209   -8.0186   21.3534 C   0  0  0  0  0  0
  -21.9830   -9.0144   20.4627 C   0  0  0  0  0  0
  -22.7104  -10.2052   20.3059 C   0  0  0  0  0  0
  -21.6817   -6.0680   22.5276 C   0  0  0  0  0  0
  -21.4017   -6.5615   23.8209 C   0  0  0  0  0  0
  -21.3648   -5.6774   24.9166 C   0  0  0  0  0  0
  -21.6066   -4.3045   24.7240 C   0  0  0  0  0  0
  -21.8802   -3.8116   23.4362 C   0  0  0  0  0  0
  -21.9188   -4.6914   22.3406 C   0  0  0  0  0  0
  -22.7735  -13.5130   21.2017 C   0  0  0  0  0  0
  -22.1655   -4.2099   21.0989 F   0  0  0  0  0  0
  -21.5619   -3.4527   25.7764 F   0  0  0  0  0  0
  -29.9616  -13.4778   20.2596 N   0  0  0  0  0  0
  -26.2796  -12.9164   20.3554 N   0  0  0  0  0  0
  -25.9219  -11.6411   20.6174 N   0  0  0  0  0  0
  -22.0345  -12.8097   22.0564 N   0  0  0  0  0  0
  -25.4333  -15.1730   20.4492 N   0  0  0  0  0  0
  -31.9669  -14.4659   20.3365 O   0  0  0  0  0  0
  -21.6555   -6.8806   21.4249 O   0  0  0  0  0  0
  -22.3504  -14.5461   20.6899 O   0  0  0  0  0  0
  -24.6166  -31.8760   23.2235 C   0  0  0  0  0  0
  -25.9105  -32.4913   23.8463 C   0  0  1  0  0  0
  -27.2221  -27.4924   20.0766 C   0  0  0  0  0  0
  -25.5878  -33.8709   24.2354 N   0  0  0  0  0  0
  -23.4027  -30.4983   21.5661 C   0  0  2  0  0  0
  -24.8366  -28.9896   20.1157 C   0  0  0  0  0  0
  -22.7421  -29.4599   22.5020 C   0  0  0  0  0  0
  -18.0307  -28.1388   22.8499 C   0  0  0  0  0  0
  -24.1475  -36.7339   23.2624 C   0  0  0  0  0  0
  -25.9230  -30.8583   21.3623 C   0  0  0  0  0  0
  -25.9993  -29.5041   20.7110 C   0  0  0  0  0  0
  -27.1894  -28.7506   20.6997 C   0  0  0  0  0  0
  -26.0490  -26.9706   19.4940 C   0  0  0  0  0  0
  -24.8571  -27.7133   19.5076 C   0  0  0  0  0  0
  -23.6076  -29.8729   20.1621 C   0  0  0  0  0  0
  -25.4089  -36.3150   24.0317 C   0  0  1  0  0  0
  -20.5934  -28.3692   23.1364 C   0  0  2  0  0  0
  -20.6820  -26.9418   22.5462 C   0  0  0  0  0  0
  -19.5787  -26.6404   21.5236 C   0  0  0  0  0  0
  -18.1963  -26.7953   22.1621 C   0  0  0  0  0  0
  -19.1553  -28.8853   23.2945 C   0  0  0  0  0  0
  -18.9436  -30.1462   23.8946 C   0  0  0  0  0  0
  -17.6426  -30.6600   24.0594 C   0  0  0  0  0  0
  -25.9002  -34.9483   23.5125 C   0  0  0  0  0  0
  -16.5326  -29.9076   23.6343 C   0  0  0  0  0  0
  -16.7283  -28.6505   23.0352 C   0  0  0  0  0  0
  -26.4468  -31.6685   25.0781 C   0  0  0  0  0  0
  -25.3758  -31.3844   26.1555 C   0  0  0  0  0  0
  -27.0286  -30.3124   24.6130 C   0  0  0  0  0  0
  -27.6022  -32.4419   25.7582 C   0  0  0  0  0  0
  -27.5561  -37.1824   24.8439 C   0  0  0  0  0  0
  -21.4171  -29.3027   22.3724 N   0  0  0  0  0  0
  -26.4299  -37.3804   23.9364 N   0  0  0  0  0  0
  -24.6712  -31.0848   22.1124 N   0  0  0  0  0  0
  -23.4115  -28.8100   23.3100 O   0  0  0  0  0  0
  -28.3347  -26.6996   20.1394 O   0  0  0  0  0  0
  -26.5602  -34.8920   22.4731 O   0  0  0  0  0  0
  -23.5399  -32.1492   23.7548 O   0  0  0  0  0  0
  -28.6598  -15.8901   17.9806 C   0  0  0  0  0  0
  -29.2040  -17.9327   19.2991 C   0  0  0  0  0  0
  -31.1910  -17.0128   20.1912 C   0  0  0  0  0  0
  -29.0426  -16.3918   19.3865 C   0  0  2  0  0  0
  -30.7043  -18.1199   19.2521 C   0  0  1  0  0  0
  -27.1771  -16.0836   17.6117 C   0  0  0  0  0  0
  -30.5500  -20.2382   17.2147 C   0  0  0  0  0  0
  -31.4616  -25.3395   20.5030 C   0  0  0  0  0  0
  -31.2878  -24.4202   19.2833 C   0  0  0  0  0  0
  -30.6199  -24.9216   21.7150 C   0  0  0  0  0  0
  -31.6976  -22.9444   19.5156 C   0  0  0  0  0  0
  -29.1313  -24.6912   21.4098 C   0  0  0  0  0  0
  -30.6549  -21.8934   19.0786 C   0  0  0  0  0  0
  -28.2802  -25.9549   21.3579 C   0  0  0  0  0  0
  -31.2306  -20.5522   18.5614 C   0  0  1  0  0  0
  -30.2762  -15.8562   20.0384 N   0  0  0  0  0  0
  -31.1812  -19.4863   19.6152 N   0  3  0  0  0  0
  -29.4649  -15.4572   17.1627 O   0  0  0  0  0  0
  -31.4172  -12.3921   19.1094 H   0  0  0  0  0  0
  -30.2748  -11.4001   19.9820 H   0  0  0  0  0  0
  -29.6370  -11.4070   17.6285 H   0  0  0  0  0  0
  -29.6651  -13.1312   17.5421 H   0  0  0  0  0  0
  -27.7431  -11.2357   18.8814 H   0  0  0  0  0  0
  -27.3059  -12.5174   17.7901 H   0  0  0  0  0  0
  -27.5480  -14.1739   19.4544 H   0  0  0  0  0  0
  -28.7376  -12.2608   21.4825 H   0  0  0  0  0  0
  -28.4813  -13.9857   21.7018 H   0  0  0  0  0  0
  -25.2647   -9.5598   22.4826 H   0  0  0  0  0  0
  -23.9915   -7.4529   22.7453 H   0  0  0  0  0  0
  -21.0761   -8.8609   19.8942 H   0  0  0  0  0  0
  -22.3534  -10.9576   19.6148 H   0  0  0  0  0  0
  -21.2015   -7.6121   23.9694 H   0  0  0  0  0  0
  -21.1502   -6.0513   25.9069 H   0  0  0  0  0  0
  -22.0611   -2.7584   23.2851 H   0  0  0  0  0  0
  -22.3859  -11.9676   22.4855 H   0  0  0  0  0  0
  -21.0992  -13.1186   22.2726 H   0  0  0  0  0  0
  -24.7017  -15.8480   20.6240 H   0  0  0  0  0  0
  -26.3352  -15.6090   20.3431 H   0  0  0  0  0  0
  -26.7219  -32.5608   23.1260 H   0  0  0  0  0  0
  -25.0035  -34.0037   25.0474 H   0  0  0  0  0  0
  -22.6898  -31.3130   21.4504 H   0  0  0  0  0  0
  -23.3732  -35.9687   23.3300 H   0  0  0  0  0  0
  -24.3540  -36.8940   22.2046 H   0  0  0  0  0  0
  -23.7316  -37.6549   23.6664 H   0  0  0  0  0  0
  -26.0009  -31.6196   20.5903 H   0  0  0  0  0  0
  -26.8349  -30.9378   21.9591 H   0  0  0  0  0  0
  -28.0818  -29.1119   21.1816 H   0  0  0  0  0  0
  -26.0704  -25.9686   19.0776 H   0  0  0  0  0  0
  -23.9573  -27.3014   19.0749 H   0  0  0  0  0  0
  -23.7827  -30.6882   19.4501 H   0  0  0  0  0  0
  -22.7232  -29.3352   19.8146 H   0  0  0  0  0  0
  -25.1295  -36.1980   25.0820 H   0  0  0  0  0  0
  -20.9993  -28.3264   24.1506 H   0  0  0  0  0  0
  -20.5709  -26.2284   23.3631 H   0  0  0  0  0  0
  -21.6716  -26.7522   22.1241 H   0  0  0  0  0  0
  -19.6945  -25.6312   21.1258 H   0  0  0  0  0  0
  -19.6744  -27.3273   20.6802 H   0  0  0  0  0  0
  -17.4237  -26.6789   21.3974 H   0  0  0  0  0  0
  -18.0300  -26.0111   22.9037 H   0  0  0  0  0  0
  -19.7934  -30.7331   24.2248 H   0  0  0  0  0  0
  -17.4994  -31.6273   24.5199 H   0  0  0  0  0  0
  -15.5331  -30.2962   23.7686 H   0  0  0  0  0  0
  -15.8702  -28.0849   22.6980 H   0  0  0  0  0  0
  -24.5893  -30.7223   25.7889 H   0  0  0  0  0  0
  -24.9059  -32.3083   26.4941 H   0  0  0  0  0  0
  -25.8134  -30.9040   27.0337 H   0  0  0  0  0  0
  -26.2819  -29.6879   24.1229 H   0  0  0  0  0  0
  -27.4100  -29.7312   25.4517 H   0  0  0  0  0  0
  -27.8597  -30.4358   23.9211 H   0  0  0  0  0  0
  -27.2559  -33.3672   26.2198 H   0  0  0  0  0  0
  -28.3826  -32.7118   25.0465 H   0  0  0  0  0  0
  -28.0736  -31.8597   26.5494 H   0  0  0  0  0  0
  -28.2559  -38.0120   24.7457 H   0  0  0  0  0  0
  -28.1082  -36.2660   24.6283 H   0  0  0  0  0  0
  -27.2279  -37.1454   25.8837 H   0  0  0  0  0  0
  -20.9221  -29.8724   21.7001 H   0  0  0  0  0  0
  -26.0138  -38.2864   24.1393 H   0  0  0  0  0  0
  -28.7889  -18.4049   20.1901 H   0  0  0  0  0  0
  -28.7298  -18.3921   18.4278 H   0  0  0  0  0  0
  -31.0854  -17.3581   21.2249 H   0  0  0  0  0  0
  -32.2403  -16.8100   20.0230 H   0  0  0  0  0  0
  -28.2283  -16.1958   20.0813 H   0  0  0  0  0  0
  -31.1032  -17.8479   18.2725 H   0  0  0  0  0  0
  -26.6566  -16.6683   18.3746 H   0  0  0  0  0  0
  -26.6780  -15.1161   17.5267 H   0  0  0  0  0  0
  -27.0736  -16.6348   16.6777 H   0  0  0  0  0  0
  -30.8868  -19.3368   16.7029 H   0  0  0  0  0  0
  -30.7672  -21.0610   16.5243 H   0  0  0  0  0  0
  -29.4681  -20.2310   17.3256 H   0  0  0  0  0  0
  -31.1939  -26.3578   20.2125 H   0  0  0  0  0  0
  -32.5176  -25.3812   20.7799 H   0  0  0  0  0  0
  -31.9022  -24.8296   18.4742 H   0  0  0  0  0  0
  -30.2709  -24.4961   18.9123 H   0  0  0  0  0  0
  -30.7412  -25.6779   22.5006 H   0  0  0  0  0  0
  -31.0124  -23.9913   22.1317 H   0  0  0  0  0  0
  -31.9472  -22.7531   20.5608 H   0  0  0  0  0  0
  -32.6404  -22.7993   18.9996 H   0  0  0  0  0  0
  -28.7371  -24.1039   22.2340 H   0  0  0  0  0  0
  -28.9514  -24.0736   20.5276 H   0  0  0  0  0  0
  -30.0907  -22.3451   18.2670 H   0  0  0  0  0  0
  -29.9367  -21.7056   19.8785 H   0  0  0  0  0  0
  -28.5278  -26.6140   22.1926 H   0  0  0  0  0  0
  -27.2522  -25.6239   21.5379 H   0  0  0  0  0  0
  -32.2806  -20.6729   18.3266 H   0  0  0  0  0  0
  -32.1232  -19.4220   19.9879 H   0  0  0  0  0  0
  -30.6001  -19.8060   20.3746 H   0  0  0  0  0  0
  1 25  1  0  0  0
  1 30  2  0  0  0
  1 86  1  0  0  0
  2  3  1  0  0  0
  2 25  1  0  0  0
  2 89  1  0  0  0
  2 90  1  0  0  0
  3  4  1  0  0  0
  3 91  1  0  0  0
  3 92  1  0  0  0
  4  5  1  0  0  0
  4 93  1  0  0  0
  4 94  1  0  0  0
  5  6  1  0  0  0
  5 26  1  0  0  0
  5 95  1  0  0  0
  6 25  1  0  0  0
  6 96  1  0  0  0
  6 97  1  0  0  0
  7  8  2  0  0  0
  7 26  1  0  0  0
  7 29  1  0  0  0
  8  9  1  0  0  0
  8 22  1  0  0  0
  9 10  1  0  0  0
  9 27  2  0  0  0
 10 11  2  0  0  0
 10 15  1  0  0  0
 11 12  1  0  0  0
 11 98  1  0  0  0
 12 13  2  0  0  0
 12 99  1  0  0  0
 13 14  1  0  0  0
 13 31  1  0  0  0
 14 15  2  0  0  0
 14100  1  0  0  0
 15101  1  0  0  0
 16 17  2  0  0  0
 16 21  1  0  0  0
 16 31  1  0  0  0
 17 18  1  0  0  0
 17102  1  0  0  0
 18 19  2  0  0  0
 18103  1  0  0  0
 19 20  1  0  0  0
 19 24  1  0  0  0
 20 21  2  0  0  0
 20104  1  0  0  0
 21 23  1  0  0  0
 22 28  1  0  0  0
 22 32  2  0  0  0
 26 27  1  0  0  0
 28105  1  0  0  0
 28106  1  0  0  0
 29107  1  0  0  0
 29108  1  0  0  0
 33 34  1  0  0  0
 33 66  1  0  0  0
 33 70  2  0  0  0
 34 36  1  0  0  0
 34 59  1  0  0  0
 34109  1  0  0  0
 35 44  2  0  0  0
 35 45  1  0  0  0
 35 68  1  0  0  0
 36 56  1  0  0  0
 36110  1  0  0  0
 37 39  1  0  0  0
 37 47  1  0  0  0
 37 66  1  0  0  0
 37111  1  0  0  0
 38 43  2  0  0  0
 38 46  1  0  0  0
 38 47  1  0  0  0
 39 64  1  0  0  0
 39 67  2  0  0  0
 40 52  1  0  0  0
 40 53  2  0  0  0
 40 58  1  0  0  0
 41112  1  0  0  0
 41113  1  0  0  0
 41114  1  0  0  0
 41 48  1  0  0  0
 42 43  1  0  0  0
 42 66  1  0  0  0
 42115  1  0  0  0
 42116  1  0  0  0
 43 44  1  0  0  0
 44117  1  0  0  0
 45 46  2  0  0  0
 45118  1  0  0  0
 46119  1  0  0  0
 47120  1  0  0  0
 47121  1  0  0  0
 48 56  1  0  0  0
 48 65  1  0  0  0
 48122  1  0  0  0
 49 50  1  0  0  0
 49 53  1  0  0  0
 49 64  1  0  0  0
 49123  1  0  0  0
 50 51  1  0  0  0
 50124  1  0  0  0
 50125  1  0  0  0
 51 52  1  0  0  0
 51126  1  0  0  0
 51127  1  0  0  0
 52128  1  0  0  0
 52129  1  0  0  0
 53 54  1  0  0  0
 54 55  2  0  0  0
 54130  1  0  0  0
 55 57  1  0  0  0
 55131  1  0  0  0
 56 69  2  0  0  0
 57 58  2  0  0  0
 57132  1  0  0  0
 58133  1  0  0  0
 59 60  1  0  0  0
 59 61  1  0  0  0
 59 62  1  0  0  0
 60134  1  0  0  0
 60135  1  0  0  0
 60136  1  0  0  0
 61137  1  0  0  0
 61138  1  0  0  0
 61139  1  0  0  0
 62140  1  0  0  0
 62141  1  0  0  0
 62142  1  0  0  0
 63 65  1  0  0  0
 63143  1  0  0  0
 63144  1  0  0  0
 63145  1  0  0  0
 64146  1  0  0  0
 65147  1  0  0  0
 68 84  1  0  0  0
 71 76  1  0  0  0
 71 88  2  0  0  0
 71 74  1  0  0  0
 72 74  1  0  0  0
 72 75  1  0  0  0
 72148  1  0  0  0
 72149  1  0  0  0
 73 75  1  0  0  0
 73 86  1  0  0  0
 73150  1  0  0  0
 73151  1  0  0  0
 74 86  1  0  0  0
 74152  1  0  0  0
 75 87  1  0  0  0
 75153  1  0  0  0
 76154  1  0  0  0
 76155  1  0  0  0
 76156  1  0  0  0
 77157  1  0  0  0
 77158  1  0  0  0
 77159  1  0  0  0
 77 85  1  0  0  0
 78 79  1  0  0  0
 78 80  1  0  0  0
 78160  1  0  0  0
 78161  1  0  0  0
 79 81  1  0  0  0
 79162  1  0  0  0
 79163  1  0  0  0
 80 82  1  0  0  0
 80164  1  0  0  0
 80165  1  0  0  0
 81 83  1  0  0  0
 81166  1  0  0  0
 81167  1  0  0  0
 82 84  1  0  0  0
 82168  1  0  0  0
 82169  1  0  0  0
 83 85  1  0  0  0
 83170  1  0  0  0
 83171  1  0  0  0
 84172  1  0  0  0
 84173  1  0  0  0
 85 87  1  0  0  0
 85174  1  0  0  0
 87175  1  0  0  0
 87176  1  0  0  0
M  CHG  1  87   1
M  ISO  4   1 100  68 101  84 101  86 100
M  END
> <chiral flag>
0

> <version>
0

> <s_m_source_file>
/data/baiqing/PycharmProjects/Reinvent-master-3.2/result/LINK_invent/BTK/process_docking_weight1_custom_sum_contain_oxygen_bond_distance_aromatic_linkinvent_7_9_3/rearranged_h_0023.sdf

> <i_m_source_file_index>
65

> <r_mmod_Potential_Energy-OPLS-2005>
49.514289855957

> <r_mmod_Stretch_Energy-OPLS-2005>
44.3412933349609

> <r_mmod_Bend_Energy-OPLS-2005>
189.971466064453

> <r_mmod_Torsional_Energy-OPLS-2005>
372.267913818359

> <r_mmod_Improper_Torsional_Energy-OPLS-2005>
9.11106395721436

> <r_mmod_Van_der_Waal_Energy-OPLS-2005>
145.375900268555

> <r_mmod_Electrostatic_Energy-OPLS-2005>
-318.411254882812

> <r_mmod_Solvation_Energy-OPLS-2005>
-463.621643066406

> <b_mmod_Minimization_Converged-OPLS-2005>
0

> <r_mmod_RMS_Derivative-OPLS-2005>
17.6238117218018

$$$$
65
                    3D
 Structure written by MMmdl.
168176  0  0  1  0            999 V2000
  -30.7820  -14.3401   20.7042 C   0  0  0  0  0  0
  -30.4153  -12.2856   19.3864 C   0  0  0  0  0  0
  -29.4798  -12.5271   18.1884 C   0  0  0  0  0  0
  -28.0051  -12.3827   18.6075 C   0  0  0  0  0  0
  -27.6671  -13.2011   19.8810 C   0  0  2  0  0  0
  -28.7046  -12.9326   20.9926 C   0  0  0  0  0  0
  -25.2610  -13.8160   20.5679 C   0  0  0  0  0  0
  -24.1846  -13.0442   20.9156 C   0  0  0  0  0  0
  -24.6391  -11.6903   20.8725 C   0  0  0  0  0  0
  -23.9055  -10.4299   21.0401 C   0  0  0  0  0  0
  -24.3610   -9.4216   21.9180 C   0  0  0  0  0  0
  -23.6289   -8.2248   22.0752 C   0  0  0  0  0  0
  -22.4274   -8.0283   21.3542 C   0  0  0  0  0  0
  -21.9906   -9.0256   20.4645 C   0  0  0  0  0  0
  -22.7228  -10.2138   20.3053 C   0  0  0  0  0  0
  -21.6851   -6.0735   22.5280 C   0  0  0  0  0  0
  -21.4010   -6.5638   23.8214 C   0  0  0  0  0  0
  -21.3659   -5.6790   24.9177 C   0  0  0  0  0  0
  -21.6046   -4.3054   24.7226 C   0  0  0  0  0  0
  -21.8817   -3.8147   23.4348 C   0  0  0  0  0  0
  -21.9192   -4.6964   22.3406 C   0  0  0  0  0  0
  -22.7871  -13.5248   21.1837 C   0  0  0  0  0  0
  -22.1661   -4.2148   21.0981 F   0  0  0  0  0  0
  -21.5634   -3.4539   25.7741 F   0  0  0  0  0  0
  -30.0504  -13.2222   20.4584 N   0  0  0  0  0  0
  -26.3049  -12.9319   20.3393 N   0  0  0  0  0  0
  -25.9315  -11.6478   20.5757 N   0  0  0  0  0  0
  -22.0510  -12.8236   22.0391 N   0  0  0  0  0  0
  -25.4345  -15.1872   20.4085 N   0  0  0  0  0  0
  -31.7825  -14.6456   20.0471 O   0  0  0  0  0  0
  -21.6636   -6.8879   21.4242 O   0  0  0  0  0  0
  -22.3551  -14.5556   20.6698 O   0  0  0  0  0  0
  -24.6093  -31.8706   23.2143 C   0  0  0  0  0  0
  -25.9003  -32.4842   23.8422 C   0  0  1  0  0  0
  -27.2431  -27.4792   20.0929 C   0  0  0  0  0  0
  -25.5890  -33.8638   24.2355 N   0  0  0  0  0  0
  -23.3971  -30.4921   21.5534 C   0  0  2  0  0  0
  -24.8478  -28.9621   20.1191 C   0  0  0  0  0  0
  -22.7400  -29.4643   22.5015 C   0  0  0  0  0  0
  -18.0265  -28.1353   22.8477 C   0  0  0  0  0  0
  -24.1493  -36.7318   23.2641 C   0  0  0  0  0  0
  -25.9204  -30.8473   21.3648 C   0  0  0  0  0  0
  -26.0006  -29.4807   20.7236 C   0  0  0  0  0  0
  -27.2012  -28.7415   20.7220 C   0  0  0  0  0  0
  -26.0828  -26.9694   19.4800 C   0  0  0  0  0  0
  -24.8795  -27.6992   19.4998 C   0  0  0  0  0  0
  -23.6070  -29.8243   20.1672 C   0  0  0  0  0  0
  -25.4105  -36.3122   24.0353 C   0  0  1  0  0  0
  -20.5852  -28.3622   23.1334 C   0  0  2  0  0  0
  -20.6750  -26.9366   22.5420 C   0  0  0  0  0  0
  -19.5743  -26.6371   21.5196 C   0  0  0  0  0  0
  -18.1912  -26.7898   22.1609 C   0  0  0  0  0  0
  -19.1513  -28.8806   23.2896 C   0  0  0  0  0  0
  -18.9448  -30.1417   23.8908 C   0  0  0  0  0  0
  -17.6451  -30.6563   24.0557 C   0  0  0  0  0  0
  -25.9026  -34.9486   23.5142 C   0  0  0  0  0  0
  -16.5336  -29.9070   23.6319 C   0  0  0  0  0  0
  -16.7253  -28.6488   23.0333 C   0  0  0  0  0  0
  -26.4455  -31.6606   25.0725 C   0  0  0  0  0  0
  -25.3743  -31.3703   26.1492 C   0  0  0  0  0  0
  -27.0266  -30.3058   24.6038 C   0  0  0  0  0  0
  -27.6046  -32.4311   25.7481 C   0  0  0  0  0  0
  -27.5586  -37.1810   24.8467 C   0  0  0  0  0  0
  -21.4131  -29.3006   22.3771 N   0  0  0  0  0  0
  -26.4295  -37.3798   23.9417 N   0  0  0  0  0  0
  -24.6598  -31.0848   22.1021 N   0  0  0  0  0  0
  -23.4193  -28.8175   23.3031 O   0  0  0  0  0  0
  -28.3896  -26.7333   20.0109 O   0  0  0  0  0  0
  -26.5587  -34.8932   22.4701 O   0  0  0  0  0  0
  -23.5297  -32.1434   23.7564 O   0  0  0  0  0  0
  -32.2262  -16.6179   22.2377 C   0  0  0  0  0  0
  -32.6808  -17.8451   22.7573 C   0  0  0  0  0  0
  -31.7612  -18.7598   23.3375 C   0  0  0  0  0  0
  -30.3775  -18.4149   23.3925 C   0  0  0  0  0  0
  -30.8559  -16.2868   22.2597 C   0  0  0  0  0  0
  -29.9361  -17.1786   22.8491 C   0  0  0  0  0  0
  -34.1705  -18.1421   22.6655 C   0  0  0  0  0  0
  -29.3519  -19.3725   24.0017 C   0  0  0  0  0  0
  -32.2549  -20.1223   23.8436 C   0  0  0  0  0  0
  -30.4708  -24.6037   22.2873 C   0  0  0  0  0  0
  -31.1608  -23.2674   21.9616 C   0  0  0  0  0  0
  -29.8843  -25.2280   21.0114 C   0  0  0  0  0  0
  -31.5414  -22.4291   23.1937 C   0  0  0  0  0  0
  -29.1001  -26.5278   21.2234 C   0  0  0  0  0  0
  -30.3566  -15.0571   21.7524 N   0  0  0  0  0  0
  -32.0936  -21.1237   22.7748 N   0  3  0  0  0  0
  -28.2579  -16.7372   22.8618 Cl  0  0  0  0  0  0
  -31.4574  -12.3866   19.0780 H   0  0  0  0  0  0
  -30.3155  -11.2606   19.7464 H   0  0  0  0  0  0
  -29.7095  -11.8263   17.3847 H   0  0  0  0  0  0
  -29.6505  -13.5255   17.7823 H   0  0  0  0  0  0
  -27.8103  -11.3239   18.7835 H   0  0  0  0  0  0
  -27.3504  -12.6786   17.7867 H   0  0  0  0  0  0
  -27.7290  -14.2569   19.6150 H   0  0  0  0  0  0
  -28.6627  -11.8863   21.2982 H   0  0  0  0  0  0
  -28.4468  -13.4993   21.8873 H   0  0  0  0  0  0
  -25.2757   -9.5690   22.4750 H   0  0  0  0  0  0
  -24.0003   -7.4637   22.7468 H   0  0  0  0  0  0
  -21.0838   -8.8768   19.8948 H   0  0  0  0  0  0
  -22.3688  -10.9671   19.6159 H   0  0  0  0  0  0
  -21.1994   -7.6143   23.9716 H   0  0  0  0  0  0
  -21.1485   -6.0521   25.9078 H   0  0  0  0  0  0
  -22.0597   -2.7608   23.2849 H   0  0  0  0  0  0
  -22.4119  -11.9893   22.4770 H   0  0  0  0  0  0
  -21.1127  -13.1259   22.2601 H   0  0  0  0  0  0
  -24.6785  -15.8500   20.5389 H   0  0  0  0  0  0
  -26.3070  -15.6275   20.1450 H   0  0  0  0  0  0
  -26.7081  -32.5595   23.1210 H   0  0  0  0  0  0
  -25.0063  -33.9809   25.0515 H   0  0  0  0  0  0
  -22.6830  -31.3061   21.4153 H   0  0  0  0  0  0
  -23.3750  -35.9657   23.3309 H   0  0  0  0  0  0
  -24.3599  -36.8912   22.2054 H   0  0  0  0  0  0
  -23.7245  -37.6532   23.6636 H   0  0  0  0  0  0
  -26.0247  -31.6102   20.5918 H   0  0  0  0  0  0
  -26.8106  -30.9065   21.9785 H   0  0  0  0  0  0
  -28.0922  -29.1502   21.1773 H   0  0  0  0  0  0
  -26.1139  -26.0060   18.9909 H   0  0  0  0  0  0
  -23.9961  -27.2911   19.0285 H   0  0  0  0  0  0
  -23.7147  -30.5989   19.4064 H   0  0  0  0  0  0
  -22.7332  -29.2409   19.8723 H   0  0  0  0  0  0
  -25.1274  -36.1998   25.0844 H   0  0  0  0  0  0
  -20.9930  -28.3161   24.1459 H   0  0  0  0  0  0
  -20.5621  -26.2228   23.3596 H   0  0  0  0  0  0
  -21.6626  -26.7400   22.1232 H   0  0  0  0  0  0
  -19.6908  -25.6288   21.1216 H   0  0  0  0  0  0
  -19.6693  -27.3195   20.6733 H   0  0  0  0  0  0
  -17.4184  -26.6645   21.4006 H   0  0  0  0  0  0
  -18.0311  -26.0024   22.8997 H   0  0  0  0  0  0
  -19.7929  -30.7217   24.2296 H   0  0  0  0  0  0
  -17.5011  -31.6257   24.5145 H   0  0  0  0  0  0
  -15.5339  -30.2977   23.7636 H   0  0  0  0  0  0
  -15.8652  -28.0823   22.7029 H   0  0  0  0  0  0
  -24.5888  -30.7069   25.7846 H   0  0  0  0  0  0
  -24.8961  -32.2860   26.4977 H   0  0  0  0  0  0
  -25.8101  -30.8848   27.0229 H   0  0  0  0  0  0
  -26.2776  -29.6845   24.1096 H   0  0  0  0  0  0
  -27.4079  -29.7256   25.4450 H   0  0  0  0  0  0
  -27.8606  -30.4407   23.9140 H   0  0  0  0  0  0
  -27.2666  -33.3600   26.2086 H   0  0  0  0  0  0
  -28.3835  -32.6874   25.0287 H   0  0  0  0  0  0
  -28.0727  -31.8405   26.5367 H   0  0  0  0  0  0
  -28.2599  -38.0111   24.7509 H   0  0  0  0  0  0
  -28.1077  -36.2637   24.6281 H   0  0  0  0  0  0
  -27.2310  -37.1460   25.8873 H   0  0  0  0  0  0
  -20.9282  -29.8769   21.7036 H   0  0  0  0  0  0
  -26.0188  -38.2880   24.1409 H   0  0  0  0  0  0
  -32.9445  -15.9298   21.8168 H   0  0  0  0  0  0
  -34.6992  -17.3588   22.1214 H   0  0  0  0  0  0
  -34.6152  -18.2007   23.6591 H   0  0  0  0  0  0
  -34.3557  -19.0782   22.1384 H   0  0  0  0  0  0
  -29.7083  -19.8325   24.9206 H   0  0  0  0  0  0
  -28.4244  -18.8787   24.2852 H   0  0  0  0  0  0
  -29.0970  -20.1585   23.2904 H   0  0  0  0  0  0
  -33.3033  -20.0913   24.1402 H   0  0  0  0  0  0
  -31.7389  -20.4191   24.7539 H   0  0  0  0  0  0
  -31.1752  -25.2908   22.7597 H   0  0  0  0  0  0
  -29.6661  -24.4384   23.0065 H   0  0  0  0  0  0
  -32.0475  -23.4566   21.3554 H   0  0  0  0  0  0
  -30.4881  -22.6759   21.3386 H   0  0  0  0  0  0
  -29.2099  -24.5004   20.5571 H   0  0  0  0  0  0
  -30.6768  -25.4001   20.2819 H   0  0  0  0  0  0
  -30.6498  -22.2667   23.8007 H   0  0  0  0  0  0
  -32.2615  -22.9567   23.8201 H   0  0  0  0  0  0
  -29.7698  -27.3636   21.4348 H   0  0  0  0  0  0
  -28.4118  -26.4235   22.0653 H   0  0  0  0  0  0
  -29.4775  -14.7558   22.1453 H   0  0  0  0  0  0
  -31.4719  -20.7178   22.0959 H   0  0  0  0  0  0
  -32.9841  -21.2612   22.3249 H   0  0  0  0  0  0
  1 25  1  0  0  0
  1 30  2  0  0  0
  1 85  1  0  0  0
  2  3  1  0  0  0
  2 25  1  0  0  0
  2 88  1  0  0  0
  2 89  1  0  0  0
  3  4  1  0  0  0
  3 90  1  0  0  0
  3 91  1  0  0  0
  4  5  1  0  0  0
  4 92  1  0  0  0
  4 93  1  0  0  0
  5  6  1  0  0  0
  5 26  1  0  0  0
  5 94  1  0  0  0
  6 25  1  0  0  0
  6 95  1  0  0  0
  6 96  1  0  0  0
  7  8  2  0  0  0
  7 26  1  0  0  0
  7 29  1  0  0  0
  8  9  1  0  0  0
  8 22  1  0  0  0
  9 10  1  0  0  0
  9 27  2  0  0  0
 10 11  2  0  0  0
 10 15  1  0  0  0
 11 12  1  0  0  0
 11 97  1  0  0  0
 12 13  2  0  0  0
 12 98  1  0  0  0
 13 14  1  0  0  0
 13 31  1  0  0  0
 14 15  2  0  0  0
 14 99  1  0  0  0
 15100  1  0  0  0
 16 17  2  0  0  0
 16 21  1  0  0  0
 16 31  1  0  0  0
 17 18  1  0  0  0
 17101  1  0  0  0
 18 19  2  0  0  0
 18102  1  0  0  0
 19 20  1  0  0  0
 19 24  1  0  0  0
 20 21  2  0  0  0
 20103  1  0  0  0
 21 23  1  0  0  0
 22 28  1  0  0  0
 22 32  2  0  0  0
 26 27  1  0  0  0
 28104  1  0  0  0
 28105  1  0  0  0
 29106  1  0  0  0
 29107  1  0  0  0
 33 34  1  0  0  0
 33 66  1  0  0  0
 33 70  2  0  0  0
 34 36  1  0  0  0
 34 59  1  0  0  0
 34108  1  0  0  0
 35 44  2  0  0  0
 35 45  1  0  0  0
 35 68  1  0  0  0
 36 56  1  0  0  0
 36109  1  0  0  0
 37 39  1  0  0  0
 37 47  1  0  0  0
 37 66  1  0  0  0
 37110  1  0  0  0
 38 43  2  0  0  0
 38 46  1  0  0  0
 38 47  1  0  0  0
 39 64  1  0  0  0
 39 67  2  0  0  0
 40 52  1  0  0  0
 40 53  2  0  0  0
 40 58  1  0  0  0
 41111  1  0  0  0
 41112  1  0  0  0
 41113  1  0  0  0
 41 48  1  0  0  0
 42 43  1  0  0  0
 42 66  1  0  0  0
 42114  1  0  0  0
 42115  1  0  0  0
 43 44  1  0  0  0
 44116  1  0  0  0
 45 46  2  0  0  0
 45117  1  0  0  0
 46118  1  0  0  0
 47119  1  0  0  0
 47120  1  0  0  0
 48 56  1  0  0  0
 48 65  1  0  0  0
 48121  1  0  0  0
 49 50  1  0  0  0
 49 53  1  0  0  0
 49 64  1  0  0  0
 49122  1  0  0  0
 50 51  1  0  0  0
 50123  1  0  0  0
 50124  1  0  0  0
 51 52  1  0  0  0
 51125  1  0  0  0
 51126  1  0  0  0
 52127  1  0  0  0
 52128  1  0  0  0
 53 54  1  0  0  0
 54 55  2  0  0  0
 54129  1  0  0  0
 55 57  1  0  0  0
 55130  1  0  0  0
 56 69  2  0  0  0
 57 58  2  0  0  0
 57131  1  0  0  0
 58132  1  0  0  0
 59 60  1  0  0  0
 59 61  1  0  0  0
 59 62  1  0  0  0
 60133  1  0  0  0
 60134  1  0  0  0
 60135  1  0  0  0
 61136  1  0  0  0
 61137  1  0  0  0
 61138  1  0  0  0
 62139  1  0  0  0
 62140  1  0  0  0
 62141  1  0  0  0
 63 65  1  0  0  0
 63142  1  0  0  0
 63143  1  0  0  0
 63144  1  0  0  0
 64145  1  0  0  0
 65146  1  0  0  0
 68 84  1  0  0  0
 71 72  2  0  0  0
 71 75  1  0  0  0
 71147  1  0  0  0
 72 73  1  0  0  0
 72 77  1  0  0  0
 73 74  2  0  0  0
 73 79  1  0  0  0
 74 76  1  0  0  0
 74 78  1  0  0  0
 75 76  2  0  0  0
 75 85  1  0  0  0
 76 87  1  0  0  0
 77148  1  0  0  0
 77149  1  0  0  0
 77150  1  0  0  0
 78151  1  0  0  0
 78152  1  0  0  0
 78153  1  0  0  0
 79 86  1  0  0  0
 79154  1  0  0  0
 79155  1  0  0  0
 80 81  1  0  0  0
 80 82  1  0  0  0
 80156  1  0  0  0
 80157  1  0  0  0
 81 83  1  0  0  0
 81158  1  0  0  0
 81159  1  0  0  0
 82 84  1  0  0  0
 82160  1  0  0  0
 82161  1  0  0  0
 83 86  1  0  0  0
 83162  1  0  0  0
 83163  1  0  0  0
 84164  1  0  0  0
 84165  1  0  0  0
 85166  1  0  0  0
 86167  1  0  0  0
 86168  1  0  0  0
M  CHG  1  86   1
M  ISO  4   1 100  68 101  84 101  85 100
M  END
> <chiral flag>
0

> <version>
0

> <s_m_source_file>
/data/baiqing/PycharmProjects/Reinvent-master-3.2/result/LINK_invent/BTK/process_docking_weight1_custom_sum_contain_oxygen_bond_distance_aromatic_linkinvent_7_9_3/rearranged_h_0023.sdf

> <i_m_source_file_index>
66

> <r_mmod_Potential_Energy-OPLS-2005>
-248.013031005859

> <r_mmod_Stretch_Energy-OPLS-2005>
34.4124412536621

> <r_mmod_Bend_Energy-OPLS-2005>
97.3515243530273

> <r_mmod_Torsional_Energy-OPLS-2005>
221.353866577148

> <r_mmod_Improper_Torsional_Energy-OPLS-2005>
2.12384653091431

> <r_mmod_Van_der_Waal_Energy-OPLS-2005>
162.538024902344

> <r_mmod_Electrostatic_Energy-OPLS-2005>
-313.743896484375

> <r_mmod_Solvation_Energy-OPLS-2005>
-458.075012207031

> <b_mmod_Minimization_Converged-OPLS-2005>
0

> <r_mmod_RMS_Derivative-OPLS-2005>
1.44337010383606

$$$$
66
                    3D
 Structure written by MMmdl.
164172  0  0  1  0            999 V2000
  -30.7011  -14.4496   20.5347 C   0  0  0  0  0  0
  -30.4167  -12.2738   19.4356 C   0  0  0  0  0  0
  -29.4923  -12.4845   18.2201 C   0  0  0  0  0  0
  -28.0182  -12.3278   18.6369 C   0  0  0  0  0  0
  -27.6601  -13.1929   19.8750 C   0  0  2  0  0  0
  -28.6986  -12.9893   21.0033 C   0  0  0  0  0  0
  -25.2609  -13.8143   20.5667 C   0  0  0  0  0  0
  -24.1868  -13.0451   20.9230 C   0  0  0  0  0  0
  -24.6383  -11.6894   20.8778 C   0  0  0  0  0  0
  -23.9043  -10.4299   21.0419 C   0  0  0  0  0  0
  -24.3581   -9.4213   21.9199 C   0  0  0  0  0  0
  -23.6268   -8.2247   22.0744 C   0  0  0  0  0  0
  -22.4265   -8.0274   21.3526 C   0  0  0  0  0  0
  -21.9916   -9.0252   20.4620 C   0  0  0  0  0  0
  -22.7223  -10.2137   20.3054 C   0  0  0  0  0  0
  -21.6860   -6.0745   22.5286 C   0  0  0  0  0  0
  -21.4005   -6.5635   23.8214 C   0  0  0  0  0  0
  -21.3659   -5.6782   24.9180 C   0  0  0  0  0  0
  -21.6060   -4.3046   24.7226 C   0  0  0  0  0  0
  -21.8809   -3.8150   23.4340 C   0  0  0  0  0  0
  -21.9183   -4.6976   22.3400 C   0  0  0  0  0  0
  -22.7876  -13.5250   21.1873 C   0  0  0  0  0  0
  -22.1655   -4.2176   21.0972 F   0  0  0  0  0  0
  -21.5642   -3.4506   25.7725 F   0  0  0  0  0  0
  -30.0345  -13.2679   20.4496 N   0  0  0  0  0  0
  -26.3008  -12.9271   20.3357 N   0  0  0  0  0  0
  -25.9292  -11.6452   20.5813 N   0  0  0  0  0  0
  -22.0478  -12.8256   22.0382 N   0  0  0  0  0  0
  -25.4386  -15.1848   20.3976 N   0  0  0  0  0  0
  -31.8610  -14.6033   20.1444 O   0  0  0  0  0  0
  -21.6627   -6.8889   21.4241 O   0  0  0  0  0  0
  -22.3600  -14.5583   20.6728 O   0  0  0  0  0  0
  -24.6120  -31.8724   23.2105 C   0  0  0  0  0  0
  -25.9065  -32.4798   23.8347 C   0  0  1  0  0  0
  -27.2222  -27.4668   20.1033 C   0  0  0  0  0  0
  -25.5983  -33.8586   24.2375 N   0  0  0  0  0  0
  -23.3905  -30.4956   21.5541 C   0  0  2  0  0  0
  -24.8313  -28.9665   20.1157 C   0  0  0  0  0  0
  -22.7353  -29.4700   22.5060 C   0  0  0  0  0  0
  -18.0249  -28.1470   22.8436 C   0  0  0  0  0  0
  -24.1499  -36.7273   23.2654 C   0  0  0  0  0  0
  -25.9037  -30.8607   21.3343 C   0  0  0  0  0  0
  -25.9875  -29.4865   20.7058 C   0  0  0  0  0  0
  -27.1821  -28.7401   20.7063 C   0  0  0  0  0  0
  -26.0491  -26.9599   19.4920 C   0  0  0  0  0  0
  -24.8540  -27.6965   19.5160 C   0  0  0  0  0  0
  -23.5910  -29.8246   20.1674 C   0  0  0  0  0  0
  -25.4105  -36.3091   24.0378 C   0  0  1  0  0  0
  -20.5827  -28.3690   23.1365 C   0  0  2  0  0  0
  -20.6740  -26.9399   22.5554 C   0  0  0  0  0  0
  -19.5791  -26.6414   21.5265 C   0  0  0  0  0  0
  -18.1891  -26.8048   22.1487 C   0  0  0  0  0  0
  -19.1509  -28.8879   23.2892 C   0  0  0  0  0  0
  -18.9450  -30.1469   23.8939 C   0  0  0  0  0  0
  -17.6484  -30.6624   24.0630 C   0  0  0  0  0  0
  -25.9049  -34.9445   23.5166 C   0  0  0  0  0  0
  -16.5347  -29.9169   23.6409 C   0  0  0  0  0  0
  -16.7254  -28.6604   23.0353 C   0  0  0  0  0  0
  -26.4628  -31.6454   25.0545 C   0  0  0  0  0  0
  -25.4015  -31.3283   26.1306 C   0  0  0  0  0  0
  -27.0522  -30.3015   24.5651 C   0  0  0  0  0  0
  -27.6241  -32.4115   25.7291 C   0  0  0  0  0  0
  -27.5567  -37.1760   24.8508 C   0  0  0  0  0  0
  -21.4110  -29.3033   22.3764 N   0  0  0  0  0  0
  -26.4287  -37.3781   23.9471 N   0  0  0  0  0  0
  -24.6550  -31.0896   22.0967 N   0  0  0  0  0  0
  -23.4152  -28.8269   23.3115 O   0  0  0  0  0  0
  -28.4051  -26.7691   20.1272 O   0  0  0  0  0  0
  -26.5542  -34.8891   22.4695 O   0  0  0  0  0  0
  -23.5326  -32.1433   23.7557 O   0  0  0  0  0  0
  -26.8580  -22.7047   22.4034 C   0  0  0  0  0  0
  -27.2452  -20.3223   22.6929 C   0  0  0  0  0  0
  -28.2385  -22.9540   22.5452 C   0  0  0  0  0  0
  -28.6352  -20.5395   22.8355 C   0  0  0  0  0  0
  -26.3679  -21.3919   22.4443 C   0  0  0  0  0  0
  -29.1394  -21.8686   22.7441 C   0  0  0  0  0  0
  -28.6818  -24.3715   22.4820 C   0  0  0  0  0  0
  -30.9341  -19.2400   20.3770 C   0  0  0  0  0  0
  -29.5244  -19.3163   23.0924 C   0  0  0  0  0  0
  -29.3483  -24.7983   21.1712 C   0  0  0  0  0  0
  -30.1870  -16.8418   20.1868 C   0  0  0  0  0  0
  -28.3361  -25.3448   20.1489 C   0  0  0  0  0  0
  -30.5090  -17.9891   21.1774 C   0  0  2  0  0  0
  -29.9274  -15.5186   20.7889 N   0  0  0  0  0  0
  -29.3444  -18.2774   22.0505 N   0  3  0  0  0  0
  -28.4457  -25.2021   23.3638 O   0  0  0  0  0  0
  -24.6926  -21.0862   22.1708 Cl  0  0  0  0  0  0
  -30.8433  -22.1664   22.8668 Cl  0  0  0  0  0  0
  -31.4624  -12.3574   19.1325 H   0  0  0  0  0  0
  -30.3023  -11.2625   19.8350 H   0  0  0  0  0  0
  -29.7373  -11.7736   17.4290 H   0  0  0  0  0  0
  -29.6566  -13.4782   17.8016 H   0  0  0  0  0  0
  -27.8553  -11.2734   18.8655 H   0  0  0  0  0  0
  -27.3586  -12.5586   17.8027 H   0  0  0  0  0  0
  -27.7040  -14.2348   19.5557 H   0  0  0  0  0  0
  -28.6623  -11.9608   21.3694 H   0  0  0  0  0  0
  -28.4703  -13.6176   21.8673 H   0  0  0  0  0  0
  -25.2717   -9.5703   22.4782 H   0  0  0  0  0  0
  -23.9984   -7.4648   22.7451 H   0  0  0  0  0  0
  -21.0879   -8.8739   19.8898 H   0  0  0  0  0  0
  -22.3687  -10.9666   19.6152 H   0  0  0  0  0  0
  -21.1968   -7.6136   23.9737 H   0  0  0  0  0  0
  -21.1512   -6.0501   25.9087 H   0  0  0  0  0  0
  -22.0594   -2.7620   23.2819 H   0  0  0  0  0  0
  -22.4041  -11.9857   22.4707 H   0  0  0  0  0  0
  -21.1085  -13.1282   22.2552 H   0  0  0  0  0  0
  -24.6701  -15.8416   20.4888 H   0  0  0  0  0  0
  -26.2545  -15.5909   19.9573 H   0  0  0  0  0  0
  -26.7077  -32.5583   23.1049 H   0  0  0  0  0  0
  -25.0249  -33.9720   25.0609 H   0  0  0  0  0  0
  -22.6776  -31.3100   21.4106 H   0  0  0  0  0  0
  -23.3769  -35.9604   23.3338 H   0  0  0  0  0  0
  -24.3585  -36.8888   22.2068 H   0  0  0  0  0  0
  -23.7205  -37.6471   23.6632 H   0  0  0  0  0  0
  -25.9551  -31.5989   20.5327 H   0  0  0  0  0  0
  -26.8180  -30.9640   21.9055 H   0  0  0  0  0  0
  -28.0700  -29.1277   21.1885 H   0  0  0  0  0  0
  -26.0451  -25.9953   19.0041 H   0  0  0  0  0  0
  -23.9573  -27.2839   19.0740 H   0  0  0  0  0  0
  -23.6805  -30.5955   19.4005 H   0  0  0  0  0  0
  -22.7205  -29.2332   19.8800 H   0  0  0  0  0  0
  -25.1257  -36.1962   25.0860 H   0  0  0  0  0  0
  -20.9840  -28.3299   24.1509 H   0  0  0  0  0  0
  -20.5598  -26.2323   23.3783 H   0  0  0  0  0  0
  -21.6650  -26.7470   22.1434 H   0  0  0  0  0  0
  -19.7021  -25.6346   21.1286 H   0  0  0  0  0  0
  -19.6890  -27.3269   20.6846 H   0  0  0  0  0  0
  -17.4295  -26.6940   21.3738 H   0  0  0  0  0  0
  -18.0065  -26.0164   22.8764 H   0  0  0  0  0  0
  -19.7953  -30.7225   24.2346 H   0  0  0  0  0  0
  -17.5088  -31.6306   24.5256 H   0  0  0  0  0  0
  -15.5367  -30.3093   23.7777 H   0  0  0  0  0  0
  -15.8623  -28.0943   22.7080 H   0  0  0  0  0  0
  -24.6420  -30.6383   25.7618 H   0  0  0  0  0  0
  -24.8912  -32.2249   26.4796 H   0  0  0  0  0  0
  -25.8550  -30.8487   26.9995 H   0  0  0  0  0  0
  -26.2933  -29.6476   24.1320 H   0  0  0  0  0  0
  -27.5217  -29.7444   25.3780 H   0  0  0  0  0  0
  -27.8276  -30.4528   23.8128 H   0  0  0  0  0  0
  -27.3019  -33.3488   26.1821 H   0  0  0  0  0  0
  -28.4103  -32.6528   25.0116 H   0  0  0  0  0  0
  -28.0866  -31.8209   26.5230 H   0  0  0  0  0  0
  -28.2620  -38.0023   24.7546 H   0  0  0  0  0  0
  -28.1011  -36.2551   24.6352 H   0  0  0  0  0  0
  -27.2250  -37.1446   25.8900 H   0  0  0  0  0  0
  -20.9304  -29.8621   21.6838 H   0  0  0  0  0  0
  -26.0182  -38.2863   24.1502 H   0  0  0  0  0  0
  -26.1673  -23.5199   22.2334 H   0  0  0  0  0  0
  -26.8317  -19.3280   22.7602 H   0  0  0  0  0  0
  -31.8102  -19.0242   19.7659 H   0  0  0  0  0  0
  -31.2029  -20.0802   21.0135 H   0  0  0  0  0  0
  -30.1399  -19.5753   19.7065 H   0  0  0  0  0  0
  -29.2179  -18.8812   24.0430 H   0  0  0  0  0  0
  -30.5772  -19.5623   23.2276 H   0  0  0  0  0  0
  -29.8489  -23.9286   20.7491 H   0  0  0  0  0  0
  -30.1235  -25.5361   21.3800 H   0  0  0  0  0  0
  -30.9913  -16.7782   19.4503 H   0  0  0  0  0  0
  -29.3113  -17.1132   19.5966 H   0  0  0  0  0  0
  -27.3417  -24.9795   20.4091 H   0  0  0  0  0  0
  -28.5526  -24.9649   19.1491 H   0  0  0  0  0  0
  -31.3495  -17.6902   21.8079 H   0  0  0  0  0  0
  -28.9839  -15.3055   21.0802 H   0  0  0  0  0  0
  -28.5615  -18.5522   21.4817 H   0  0  0  0  0  0
  -29.0933  -17.4250   22.5262 H   0  0  0  0  0  0
  1 25  1  0  0  0
  1 30  2  0  0  0
  1 84  1  0  0  0
  2  3  1  0  0  0
  2 25  1  0  0  0
  2 89  1  0  0  0
  2 90  1  0  0  0
  3  4  1  0  0  0
  3 91  1  0  0  0
  3 92  1  0  0  0
  4  5  1  0  0  0
  4 93  1  0  0  0
  4 94  1  0  0  0
  5  6  1  0  0  0
  5 26  1  0  0  0
  5 95  1  0  0  0
  6 25  1  0  0  0
  6 96  1  0  0  0
  6 97  1  0  0  0
  7  8  2  0  0  0
  7 26  1  0  0  0
  7 29  1  0  0  0
  8  9  1  0  0  0
  8 22  1  0  0  0
  9 10  1  0  0  0
  9 27  2  0  0  0
 10 11  2  0  0  0
 10 15  1  0  0  0
 11 12  1  0  0  0
 11 98  1  0  0  0
 12 13  2  0  0  0
 12 99  1  0  0  0
 13 14  1  0  0  0
 13 31  1  0  0  0
 14 15  2  0  0  0
 14100  1  0  0  0
 15101  1  0  0  0
 16 17  2  0  0  0
 16 21  1  0  0  0
 16 31  1  0  0  0
 17 18  1  0  0  0
 17102  1  0  0  0
 18 19  2  0  0  0
 18103  1  0  0  0
 19 20  1  0  0  0
 19 24  1  0  0  0
 20 21  2  0  0  0
 20104  1  0  0  0
 21 23  1  0  0  0
 22 28  1  0  0  0
 22 32  2  0  0  0
 26 27  1  0  0  0
 28105  1  0  0  0
 28106  1  0  0  0
 29107  1  0  0  0
 29108  1  0  0  0
 33 34  1  0  0  0
 33 66  1  0  0  0
 33 70  2  0  0  0
 34 36  1  0  0  0
 34 59  1  0  0  0
 34109  1  0  0  0
 35 44  2  0  0  0
 35 45  1  0  0  0
 35 68  1  0  0  0
 36 56  1  0  0  0
 36110  1  0  0  0
 37 39  1  0  0  0
 37 47  1  0  0  0
 37 66  1  0  0  0
 37111  1  0  0  0
 38 43  2  0  0  0
 38 46  1  0  0  0
 38 47  1  0  0  0
 39 64  1  0  0  0
 39 67  2  0  0  0
 40 52  1  0  0  0
 40 53  2  0  0  0
 40 58  1  0  0  0
 41112  1  0  0  0
 41113  1  0  0  0
 41114  1  0  0  0
 41 48  1  0  0  0
 42 43  1  0  0  0
 42 66  1  0  0  0
 42115  1  0  0  0
 42116  1  0  0  0
 43 44  1  0  0  0
 44117  1  0  0  0
 45 46  2  0  0  0
 45118  1  0  0  0
 46119  1  0  0  0
 47120  1  0  0  0
 47121  1  0  0  0
 48 56  1  0  0  0
 48 65  1  0  0  0
 48122  1  0  0  0
 49 50  1  0  0  0
 49 53  1  0  0  0
 49 64  1  0  0  0
 49123  1  0  0  0
 50 51  1  0  0  0
 50124  1  0  0  0
 50125  1  0  0  0
 51 52  1  0  0  0
 51126  1  0  0  0
 51127  1  0  0  0
 52128  1  0  0  0
 52129  1  0  0  0
 53 54  1  0  0  0
 54 55  2  0  0  0
 54130  1  0  0  0
 55 57  1  0  0  0
 55131  1  0  0  0
 56 69  2  0  0  0
 57 58  2  0  0  0
 57132  1  0  0  0
 58133  1  0  0  0
 59 60  1  0  0  0
 59 61  1  0  0  0
 59 62  1  0  0  0
 60134  1  0  0  0
 60135  1  0  0  0
 60136  1  0  0  0
 61137  1  0  0  0
 61138  1  0  0  0
 61139  1  0  0  0
 62140  1  0  0  0
 62141  1  0  0  0
 62142  1  0  0  0
 63 65  1  0  0  0
 63143  1  0  0  0
 63144  1  0  0  0
 63145  1  0  0  0
 64146  1  0  0  0
 65147  1  0  0  0
 68 82  1  0  0  0
 71 73  2  0  0  0
 71 75  1  0  0  0
 71148  1  0  0  0
 72 74  1  0  0  0
 72 75  2  0  0  0
 72149  1  0  0  0
 73 76  1  0  0  0
 73 77  1  0  0  0
 74 76  2  0  0  0
 74 79  1  0  0  0
 75 87  1  0  0  0
 76 88  1  0  0  0
 77 80  1  0  0  0
 77 86  2  0  0  0
 78150  1  0  0  0
 78151  1  0  0  0
 78152  1  0  0  0
 78 83  1  0  0  0
 79 85  1  0  0  0
 79153  1  0  0  0
 79154  1  0  0  0
 80 82  1  0  0  0
 80155  1  0  0  0
 80156  1  0  0  0
 81 83  1  0  0  0
 81 84  1  0  0  0
 81157  1  0  0  0
 81158  1  0  0  0
 82159  1  0  0  0
 82160  1  0  0  0
 83 85  1  0  0  0
 83161  1  0  0  0
 84162  1  0  0  0
 85163  1  0  0  0
 85164  1  0  0  0
M  CHG  1  85   1
M  ISO  4   1 100  68 101  82 101  84 100
M  END
> <chiral flag>
0

> <version>
0

> <s_m_source_file>
/data/baiqing/PycharmProjects/Reinvent-master-3.2/result/LINK_invent/BTK/process_docking_weight1_custom_sum_contain_oxygen_bond_distance_aromatic_linkinvent_7_9_3/rearranged_h_0023.sdf

> <i_m_source_file_index>
67

> <r_mmod_Potential_Energy-OPLS-2005>
-275.865844726562

> <r_mmod_Stretch_Energy-OPLS-2005>
35.4205856323242

> <r_mmod_Bend_Energy-OPLS-2005>
96.964714050293

> <r_mmod_Torsional_Energy-OPLS-2005>
304.336242675781

> <r_mmod_Improper_Torsional_Energy-OPLS-2005>
10.1345090866089

> <r_mmod_Van_der_Waal_Energy-OPLS-2005>
153.868606567383

> <r_mmod_Electrostatic_Energy-OPLS-2005>
-367.435607910156

> <r_mmod_Solvation_Energy-OPLS-2005>
-523.352233886719

> <b_mmod_Minimization_Converged-OPLS-2005>
0

> <r_mmod_RMS_Derivative-OPLS-2005>
5.42789554595947

$$$$
67
                    3D
 Structure written by MMmdl.
193201  0  0  1  0            999 V2000
  -30.8170  -14.3926   20.6277 C   0  0  0  0  0  0
  -30.4153  -12.2858   19.4144 C   0  0  0  0  0  0
  -29.5077  -12.5424   18.1992 C   0  0  0  0  0  0
  -28.0261  -12.4123   18.6090 C   0  0  0  0  0  0
  -27.6832  -13.2171   19.8929 C   0  0  2  0  0  0
  -28.7338  -13.0085   21.0155 C   0  0  0  0  0  0
  -25.2725  -13.8150   20.5689 C   0  0  0  0  0  0
  -24.1967  -13.0468   20.9102 C   0  0  0  0  0  0
  -24.6485  -11.6914   20.8712 C   0  0  0  0  0  0
  -23.9110  -10.4329   21.0394 C   0  0  0  0  0  0
  -24.3644   -9.4230   21.9172 C   0  0  0  0  0  0
  -23.6306   -8.2247   22.0721 C   0  0  0  0  0  0
  -22.4283   -8.0249   21.3506 C   0  0  0  0  0  0
  -21.9929   -9.0241   20.4623 C   0  0  0  0  0  0
  -22.7281  -10.2116   20.3047 C   0  0  0  0  0  0
  -21.6874   -6.0688   22.5236 C   0  0  0  0  0  0
  -21.4040   -6.5596   23.8159 C   0  0  0  0  0  0
  -21.3686   -5.6757   24.9129 C   0  0  0  0  0  0
  -21.6042   -4.3006   24.7204 C   0  0  0  0  0  0
  -21.8849   -3.8095   23.4334 C   0  0  0  0  0  0
  -21.9223   -4.6916   22.3383 C   0  0  0  0  0  0
  -22.7993  -13.5234   21.1778 C   0  0  0  0  0  0
  -22.1700   -4.2079   21.0976 F   0  0  0  0  0  0
  -21.5645   -3.4508   25.7731 F   0  0  0  0  0  0
  -30.0700  -13.2674   20.4560 N   0  0  0  0  0  0
  -26.3204  -12.9346   20.3472 N   0  0  0  0  0  0
  -25.9443  -11.6488   20.5829 N   0  0  0  0  0  0
  -22.0640  -12.8253   22.0352 N   0  0  0  0  0  0
  -25.4508  -15.1862   20.4078 N   0  0  0  0  0  0
  -31.8500  -14.6105   19.9963 O   0  0  0  0  0  0
  -21.6692   -6.8807   21.4167 O   0  0  0  0  0  0
  -22.3681  -14.5550   20.6614 O   0  0  0  0  0  0
  -24.6123  -31.8709   23.2038 C   0  0  0  0  0  0
  -25.9025  -32.4831   23.8389 C   0  0  1  0  0  0
  -27.2326  -27.4587   20.0624 C   0  0  0  0  0  0
  -25.5910  -33.8651   24.2305 N   0  0  0  0  0  0
  -23.3999  -30.4930   21.5448 C   0  0  2  0  0  0
  -24.8422  -28.9607   20.1121 C   0  0  0  0  0  0
  -22.7422  -29.4663   22.4950 C   0  0  0  0  0  0
  -18.0265  -28.1366   22.8418 C   0  0  0  0  0  0
  -24.1504  -36.7317   23.2629 C   0  0  0  0  0  0
  -25.9325  -30.8279   21.3691 C   0  0  0  0  0  0
  -26.0045  -29.4743   20.7031 C   0  0  0  0  0  0
  -27.2058  -28.7302   20.6749 C   0  0  0  0  0  0
  -26.0539  -26.9617   19.4587 C   0  0  0  0  0  0
  -24.8603  -27.7047   19.4879 C   0  0  0  0  0  0
  -23.6056  -29.8273   20.1594 C   0  0  0  0  0  0
  -25.4139  -36.3139   24.0298 C   0  0  1  0  0  0
  -20.5865  -28.3653   23.1257 C   0  0  2  0  0  0
  -20.6737  -26.9386   22.5377 C   0  0  0  0  0  0
  -19.5729  -26.6348   21.5158 C   0  0  0  0  0  0
  -18.1914  -26.7898   22.1574 C   0  0  0  0  0  0
  -19.1517  -28.8822   23.2835 C   0  0  0  0  0  0
  -18.9461  -30.1406   23.8872 C   0  0  0  0  0  0
  -17.6469  -30.6555   24.0562 C   0  0  0  0  0  0
  -25.9035  -34.9488   23.5092 C   0  0  0  0  0  0
  -16.5347  -29.9069   23.6332 C   0  0  0  0  0  0
  -16.7261  -28.6499   23.0327 C   0  0  0  0  0  0
  -26.4437  -31.6624   25.0740 C   0  0  0  0  0  0
  -25.3722  -31.3783   26.1521 C   0  0  0  0  0  0
  -27.0220  -30.3030   24.6154 C   0  0  0  0  0  0
  -27.6018  -32.4295   25.7540 C   0  0  0  0  0  0
  -27.5601  -37.1815   24.8456 C   0  0  0  0  0  0
  -21.4140  -29.3049   22.3727 N   0  0  0  0  0  0
  -26.4329  -37.3824   23.9373 N   0  0  0  0  0  0
  -24.6649  -31.0820   22.0922 N   0  0  0  0  0  0
  -23.4208  -28.8284   23.3019 O   0  0  0  0  0  0
  -28.3895  -26.7113   20.1012 O   0  0  0  0  0  0
  -26.5636  -34.8921   22.4662 O   0  0  0  0  0  0
  -23.5294  -32.1486   23.7392 O   0  0  0  0  0  0
  -26.1140  -20.8676   24.6503 C   0  0  0  0  0  0
  -26.0644  -22.2831   24.6731 C   0  0  0  0  0  0
  -27.2292  -20.2135   25.2241 C   0  0  0  0  0  0
  -27.0249  -22.9429   25.4846 C   0  0  0  0  0  0
  -28.2778  -21.0024   25.7386 C   0  0  0  0  0  0
  -24.9612  -20.0722   24.0531 C   0  0  0  0  0  0
  -27.2974  -18.6905   25.2713 C   0  0  0  0  0  0
  -27.4746  -26.8184   25.5748 C   0  0  0  0  0  0
  -23.7163  -23.3333   24.6070 C   0  0  0  0  0  0
  -26.5371  -24.2564   27.5754 C   0  0  0  0  0  0
  -27.9054  -25.3373   25.6550 C   0  0  0  0  0  0
  -31.0598  -18.7302   23.1541 C   0  0  0  0  0  0
  -26.7541  -23.9007   22.0627 C   0  0  0  0  0  0
  -30.2077  -19.8919   23.7317 C   0  0  0  0  0  0
  -30.2451  -17.5045   22.6837 C   0  0  0  0  0  0
  -27.6686  -25.1282   21.8357 C   0  0  0  0  0  0
  -25.5565  -24.2206   22.9949 C   0  0  0  0  0  0
  -30.5716  -20.3533   25.1758 C   0  0  0  0  0  0
  -31.0944  -16.5285   21.8403 C   0  0  0  0  0  0
  -28.2249  -25.3174   20.4039 C   0  0  0  0  0  0
  -25.0097  -23.0285   23.8276 C   0  0  1  0  0  0
  -26.7910  -24.3463   26.0553 C   0  0  1  0  0  0
  -28.1428  -22.3213   25.9376 N   0  0  0  0  0  0
  -29.4799  -20.4299   26.1606 N   0  0  0  0  0  0
  -30.3894  -15.2741   21.5413 N   0  0  0  0  0  0
  -31.4681  -12.3193   19.1278 H   0  0  0  0  0  0
  -30.2474  -11.2722   19.7879 H   0  0  0  0  0  0
  -29.7321  -11.8433   17.3941 H   0  0  0  0  0  0
  -29.7048  -13.5377   17.7962 H   0  0  0  0  0  0
  -27.8059  -11.3540   18.7535 H   0  0  0  0  0  0
  -27.3852  -12.7408   17.7908 H   0  0  0  0  0  0
  -27.7292  -14.2720   19.6151 H   0  0  0  0  0  0
  -28.7047  -11.9853   21.3885 H   0  0  0  0  0  0
  -28.5075  -13.6375   21.8782 H   0  0  0  0  0  0
  -25.2794   -9.5709   22.4725 H   0  0  0  0  0  0
  -24.0017   -7.4669   22.7465 H   0  0  0  0  0  0
  -21.0818   -8.8795   19.8958 H   0  0  0  0  0  0
  -22.3734  -10.9647   19.6155 H   0  0  0  0  0  0
  -21.2040   -7.6114   23.9628 H   0  0  0  0  0  0
  -21.1484   -6.0507   25.9027 H   0  0  0  0  0  0
  -22.0621   -2.7552   23.2888 H   0  0  0  0  0  0
  -22.4283  -11.9916   22.4758 H   0  0  0  0  0  0
  -21.1199  -13.1180   22.2434 H   0  0  0  0  0  0
  -24.6861  -15.8460   20.5044 H   0  0  0  0  0  0
  -26.3182  -15.6188   20.1158 H   0  0  0  0  0  0
  -26.7135  -32.5492   23.1201 H   0  0  0  0  0  0
  -25.0144  -33.9905   25.0511 H   0  0  0  0  0  0
  -22.6802  -31.3013   21.4013 H   0  0  0  0  0  0
  -23.3785  -35.9635   23.3316 H   0  0  0  0  0  0
  -24.3609  -36.8895   22.2034 H   0  0  0  0  0  0
  -23.7191  -37.6490   23.6636 H   0  0  0  0  0  0
  -26.0785  -31.6011   20.6117 H   0  0  0  0  0  0
  -26.8039  -30.8458   22.0107 H   0  0  0  0  0  0
  -28.0998  -29.1163   21.1466 H   0  0  0  0  0  0
  -26.0326  -26.0071   18.9548 H   0  0  0  0  0  0
  -23.9704  -27.3035   19.0209 H   0  0  0  0  0  0
  -23.7269  -30.5979   19.3950 H   0  0  0  0  0  0
  -22.7259  -29.2520   19.8626 H   0  0  0  0  0  0
  -25.1318  -36.2024   25.0788 H   0  0  0  0  0  0
  -20.9916  -28.3190   24.1385 H   0  0  0  0  0  0
  -20.5520  -26.2309   23.3581 H   0  0  0  0  0  0
  -21.6643  -26.7370   22.1263 H   0  0  0  0  0  0
  -19.6888  -25.6245   21.1202 H   0  0  0  0  0  0
  -19.6659  -27.3143   20.6665 H   0  0  0  0  0  0
  -17.4179  -26.6600   21.3978 H   0  0  0  0  0  0
  -18.0356  -26.0066   22.9001 H   0  0  0  0  0  0
  -19.7956  -30.7200   24.2264 H   0  0  0  0  0  0
  -17.5049  -31.6239   24.5179 H   0  0  0  0  0  0
  -15.5354  -30.2988   23.7632 H   0  0  0  0  0  0
  -15.8664  -28.0802   22.7063 H   0  0  0  0  0  0
  -24.5925  -30.7037   25.7981 H   0  0  0  0  0  0
  -24.8935  -32.2982   26.4882 H   0  0  0  0  0  0
  -25.8133  -30.9111   27.0347 H   0  0  0  0  0  0
  -26.2629  -29.6654   24.1608 H   0  0  0  0  0  0
  -27.4312  -29.7445   25.4585 H   0  0  0  0  0  0
  -27.8385  -30.4215   23.9024 H   0  0  0  0  0  0
  -27.2589  -33.3472   26.2334 H   0  0  0  0  0  0
  -28.3794  -32.7022   25.0386 H   0  0  0  0  0  0
  -28.0760  -31.8310   26.5322 H   0  0  0  0  0  0
  -28.2655  -38.0110   24.7596 H   0  0  0  0  0  0
  -28.1077  -36.2640   24.6228 H   0  0  0  0  0  0
  -27.2323  -37.1387   25.8871 H   0  0  0  0  0  0
  -20.9275  -29.8969   21.7145 H   0  0  0  0  0  0
  -26.0206  -38.2890   24.1414 H   0  0  0  0  0  0
  -24.0111  -20.4845   24.3893 H   0  0  0  0  0  0
  -24.9450  -19.0249   24.3400 H   0  0  0  0  0  0
  -25.0028  -20.1126   22.9658 H   0  0  0  0  0  0
  -26.4410  -18.2919   25.8175 H   0  0  0  0  0  0
  -28.1926  -18.3153   25.7693 H   0  0  0  0  0  0
  -27.2839  -18.2839   24.2598 H   0  0  0  0  0  0
  -28.0869  -27.3631   24.8508 H   0  0  0  0  0  0
  -27.5899  -27.3097   26.5419 H   0  0  0  0  0  0
  -26.4336  -26.9357   25.2617 H   0  0  0  0  0  0
  -23.3049  -22.4277   25.0593 H   0  0  0  0  0  0
  -22.9577  -23.7312   23.9343 H   0  0  0  0  0  0
  -23.8393  -24.0465   25.4185 H   0  0  0  0  0  0
  -25.7032  -23.5796   27.7831 H   0  0  0  0  0  0
  -26.2780  -25.2198   28.0138 H   0  0  0  0  0  0
  -27.4126  -23.8650   28.0982 H   0  0  0  0  0  0
  -28.7750  -25.2078   26.2989 H   0  0  0  0  0  0
  -28.2513  -25.0583   24.6634 H   0  0  0  0  0  0
  -31.8013  -18.3818   23.8766 H   0  0  0  0  0  0
  -31.6269  -19.1072   22.3015 H   0  0  0  0  0  0
  -27.3525  -23.0860   22.4720 H   0  0  0  0  0  0
  -26.3710  -23.5310   21.1113 H   0  0  0  0  0  0
  -29.1569  -19.6497   23.6196 H   0  0  0  0  0  0
  -30.3335  -20.7545   23.0750 H   0  0  0  0  0  0
  -29.3798  -17.8264   22.1015 H   0  0  0  0  0  0
  -29.8525  -16.9945   23.5638 H   0  0  0  0  0  0
  -28.5214  -25.0878   22.5105 H   0  0  0  0  0  0
  -27.1263  -26.0212   22.1326 H   0  0  0  0  0  0
  -24.7447  -24.6275   22.3873 H   0  0  0  0  0  0
  -25.8355  -25.0504   23.6335 H   0  0  0  0  0  0
  -31.0582  -21.3310   25.1341 H   0  0  0  0  0  0
  -31.3141  -19.6703   25.5843 H   0  0  0  0  0  0
  -31.3855  -17.0187   20.9061 H   0  0  0  0  0  0
  -32.0225  -16.2853   22.3647 H   0  0  0  0  0  0
  -27.6185  -24.8079   19.6571 H   0  0  0  0  0  0
  -29.1969  -24.8323   20.3357 H   0  0  0  0  0  0
  -24.7048  -22.3487   23.0368 H   0  0  0  0  0  0
  -25.8600  -24.7285   25.6544 H   0  0  0  0  0  0
  -29.8045  -20.8904   27.0042 H   0  0  0  0  0  0
  -29.5583  -15.0560   22.0685 H   0  0  0  0  0  0
  1 25  1  0  0  0
  1 30  2  0  0  0
  1 95  1  0  0  0
  2  3  1  0  0  0
  2 25  1  0  0  0
  2 96  1  0  0  0
  2 97  1  0  0  0
  3  4  1  0  0  0
  3 98  1  0  0  0
  3 99  1  0  0  0
  4  5  1  0  0  0
  4100  1  0  0  0
  4101  1  0  0  0
  5  6  1  0  0  0
  5 26  1  0  0  0
  5102  1  0  0  0
  6 25  1  0  0  0
  6103  1  0  0  0
  6104  1  0  0  0
  7  8  2  0  0  0
  7 26  1  0  0  0
  7 29  1  0  0  0
  8  9  1  0  0  0
  8 22  1  0  0  0
  9 10  1  0  0  0
  9 27  2  0  0  0
 10 11  2  0  0  0
 10 15  1  0  0  0
 11 12  1  0  0  0
 11105  1  0  0  0
 12 13  2  0  0  0
 12106  1  0  0  0
 13 14  1  0  0  0
 13 31  1  0  0  0
 14 15  2  0  0  0
 14107  1  0  0  0
 15108  1  0  0  0
 16 17  2  0  0  0
 16 21  1  0  0  0
 16 31  1  0  0  0
 17 18  1  0  0  0
 17109  1  0  0  0
 18 19  2  0  0  0
 18110  1  0  0  0
 19 20  1  0  0  0
 19 24  1  0  0  0
 20 21  2  0  0  0
 20111  1  0  0  0
 21 23  1  0  0  0
 22 28  1  0  0  0
 22 32  2  0  0  0
 26 27  1  0  0  0
 28112  1  0  0  0
 28113  1  0  0  0
 29114  1  0  0  0
 29115  1  0  0  0
 33 34  1  0  0  0
 33 66  1  0  0  0
 33 70  2  0  0  0
 34 36  1  0  0  0
 34 59  1  0  0  0
 34116  1  0  0  0
 35 44  2  0  0  0
 35 45  1  0  0  0
 35 68  1  0  0  0
 36 56  1  0  0  0
 36117  1  0  0  0
 37 39  1  0  0  0
 37 47  1  0  0  0
 37 66  1  0  0  0
 37118  1  0  0  0
 38 43  2  0  0  0
 38 46  1  0  0  0
 38 47  1  0  0  0
 39 64  1  0  0  0
 39 67  2  0  0  0
 40 52  1  0  0  0
 40 53  2  0  0  0
 40 58  1  0  0  0
 41119  1  0  0  0
 41120  1  0  0  0
 41121  1  0  0  0
 41 48  1  0  0  0
 42 43  1  0  0  0
 42 66  1  0  0  0
 42122  1  0  0  0
 42123  1  0  0  0
 43 44  1  0  0  0
 44124  1  0  0  0
 45 46  2  0  0  0
 45125  1  0  0  0
 46126  1  0  0  0
 47127  1  0  0  0
 47128  1  0  0  0
 48 56  1  0  0  0
 48 65  1  0  0  0
 48129  1  0  0  0
 49 50  1  0  0  0
 49 53  1  0  0  0
 49 64  1  0  0  0
 49130  1  0  0  0
 50 51  1  0  0  0
 50131  1  0  0  0
 50132  1  0  0  0
 51 52  1  0  0  0
 51133  1  0  0  0
 51134  1  0  0  0
 52135  1  0  0  0
 52136  1  0  0  0
 53 54  1  0  0  0
 54 55  2  0  0  0
 54137  1  0  0  0
 55 57  1  0  0  0
 55138  1  0  0  0
 56 69  2  0  0  0
 57 58  2  0  0  0
 57139  1  0  0  0
 58140  1  0  0  0
 59 60  1  0  0  0
 59 61  1  0  0  0
 59 62  1  0  0  0
 60141  1  0  0  0
 60142  1  0  0  0
 60143  1  0  0  0
 61144  1  0  0  0
 61145  1  0  0  0
 61146  1  0  0  0
 62147  1  0  0  0
 62148  1  0  0  0
 62149  1  0  0  0
 63 65  1  0  0  0
 63150  1  0  0  0
 63151  1  0  0  0
 63152  1  0  0  0
 64153  1  0  0  0
 65154  1  0  0  0
 68 90  1  0  0  0
 71 72  2  0  0  0
 71 73  1  0  0  0
 71 76  1  0  0  0
 72 74  1  0  0  0
 72 91  1  0  0  0
 73 75  2  0  0  0
 73 77  1  0  0  0
 74 92  1  0  0  0
 74 93  2  0  0  0
 75 93  1  0  0  0
 75 94  1  0  0  0
 76155  1  0  0  0
 76156  1  0  0  0
 76157  1  0  0  0
 77158  1  0  0  0
 77159  1  0  0  0
 77160  1  0  0  0
 78 81  1  0  0  0
 78161  1  0  0  0
 78162  1  0  0  0
 78163  1  0  0  0
 79164  1  0  0  0
 79165  1  0  0  0
 79166  1  0  0  0
 79 91  1  0  0  0
 80167  1  0  0  0
 80168  1  0  0  0
 80169  1  0  0  0
 80 92  1  0  0  0
 81 92  1  0  0  0
 81170  1  0  0  0
 81171  1  0  0  0
 82 84  1  0  0  0
 82 85  1  0  0  0
 82172  1  0  0  0
 82173  1  0  0  0
 83 86  1  0  0  0
 83 87  1  0  0  0
 83174  1  0  0  0
 83175  1  0  0  0
 84 88  1  0  0  0
 84176  1  0  0  0
 84177  1  0  0  0
 85 89  1  0  0  0
 85178  1  0  0  0
 85179  1  0  0  0
 86 90  1  0  0  0
 86180  1  0  0  0
 86181  1  0  0  0
 87 91  1  0  0  0
 87182  1  0  0  0
 87183  1  0  0  0
 88 94  1  0  0  0
 88184  1  0  0  0
 88185  1  0  0  0
 89 95  1  0  0  0
 89186  1  0  0  0
 89187  1  0  0  0
 90188  1  0  0  0
 90189  1  0  0  0
 91190  1  0  0  0
 92191  1  0  0  0
 94192  1  0  0  0
 95193  1  0  0  0
M  ISO  4   1 100  68 101  90 101  95 100
M  END
> <chiral flag>
0

> <version>
0

> <s_m_source_file>
/data/baiqing/PycharmProjects/Reinvent-master-3.2/result/LINK_invent/BTK/process_docking_weight1_custom_sum_contain_oxygen_bond_distance_aromatic_linkinvent_7_9_3/rearranged_h_0023.sdf

> <i_m_source_file_index>
68

> <r_mmod_Potential_Energy-OPLS-2005>
-213.641662597656

> <r_mmod_Stretch_Energy-OPLS-2005>
43.852840423584

> <r_mmod_Bend_Energy-OPLS-2005>
123.812400817871

> <r_mmod_Torsional_Energy-OPLS-2005>
294.997406005859

> <r_mmod_Improper_Torsional_Energy-OPLS-2005>
7.80274200439453

> <r_mmod_Van_der_Waal_Energy-OPLS-2005>
169.191207885742

> <r_mmod_Electrostatic_Energy-OPLS-2005>
-642.129028320312

> <r_mmod_Solvation_Energy-OPLS-2005>
-223.055358886719

> <b_mmod_Minimization_Converged-OPLS-2005>
0

> <r_mmod_RMS_Derivative-OPLS-2005>
7.4091944694519

$$$$
68
                    3D
 Structure written by MMmdl.
168176  0  0  1  0            999 V2000
  -31.1515  -14.0579   20.2185 C   0  0  0  0  0  0
  -30.3172  -11.9677   19.3170 C   0  0  0  0  0  0
  -29.4167  -12.3443   18.1422 C   0  0  0  0  0  0
  -27.9633  -12.3359   18.6228 C   0  0  0  0  0  0
  -27.7178  -13.2125   19.8811 C   0  0  2  0  0  0
  -28.8665  -13.0327   20.9381 C   0  0  0  0  0  0
  -25.2887  -13.8223   20.5716 C   0  0  0  0  0  0
  -24.2083  -13.0526   20.9135 C   0  0  0  0  0  0
  -24.6660  -11.6984   20.8895 C   0  0  0  0  0  0
  -23.9262  -10.4362   21.0512 C   0  0  0  0  0  0
  -24.3712   -9.4231   21.9308 C   0  0  0  0  0  0
  -23.6284   -8.2324   22.0837 C   0  0  0  0  0  0
  -22.4291   -8.0384   21.3562 C   0  0  0  0  0  0
  -21.9976   -9.0449   20.4698 C   0  0  0  0  0  0
  -22.7418  -10.2282   20.3124 C   0  0  0  0  0  0
  -21.6848   -6.0746   22.5256 C   0  0  0  0  0  0
  -21.4018   -6.5601   23.8210 C   0  0  0  0  0  0
  -21.3643   -5.6738   24.9144 C   0  0  0  0  0  0
  -21.6029   -4.3006   24.7206 C   0  0  0  0  0  0
  -21.8790   -3.8111   23.4312 C   0  0  0  0  0  0
  -21.9163   -4.6945   22.3367 C   0  0  0  0  0  0
  -22.8033  -13.5267   21.1706 C   0  0  0  0  0  0
  -22.1632   -4.2105   21.0952 F   0  0  0  0  0  0
  -21.5687   -3.4524   25.7746 F   0  0  0  0  0  0
  -30.2099  -13.0663   20.2816 N   0  0  0  0  0  0
  -26.3544  -12.9482   20.3836 N   0  0  0  0  0  0
  -25.9684  -11.6644   20.6275 N   0  0  0  0  0  0
  -22.0534  -12.8381   22.0224 N   0  0  0  0  0  0
  -25.4597  -15.1957   20.3925 N   0  0  0  0  0  0
  -31.1085  -15.1564   20.6972 O   0  0  0  0  0  0
  -21.6604   -6.8974   21.4259 O   0  0  0  0  0  0
  -22.3756  -14.5576   20.6509 O   0  0  0  0  0  0
  -24.6105  -31.8701   23.2102 C   0  0  0  0  0  0
  -25.9034  -32.4808   23.8376 C   0  0  1  0  0  0
  -27.2280  -27.4551   20.1004 C   0  0  0  0  0  0
  -25.5924  -33.8599   24.2330 N   0  0  0  0  0  0
  -23.3951  -30.4955   21.5496 C   0  0  2  0  0  0
  -24.8411  -28.9638   20.1131 C   0  0  0  0  0  0
  -22.7369  -29.4682   22.4978 C   0  0  0  0  0  0
  -18.0274  -28.1371   22.8500 C   0  0  0  0  0  0
  -24.1492  -36.7276   23.2634 C   0  0  0  0  0  0
  -25.9229  -30.8426   21.3603 C   0  0  0  0  0  0
  -25.9994  -29.4804   20.7051 C   0  0  0  0  0  0
  -27.1970  -28.7350   20.6934 C   0  0  0  0  0  0
  -26.0508  -26.9450   19.5052 C   0  0  0  0  0  0
  -24.8602  -27.6935   19.5126 C   0  0  0  0  0  0
  -23.6020  -29.8269   20.1632 C   0  0  0  0  0  0
  -25.4116  -36.3089   24.0337 C   0  0  1  0  0  0
  -20.5865  -28.3650   23.1336 C   0  0  2  0  0  0
  -20.6765  -26.9390   22.5431 C   0  0  0  0  0  0
  -19.5747  -26.6392   21.5211 C   0  0  0  0  0  0
  -18.1924  -26.7933   22.1618 C   0  0  0  0  0  0
  -19.1522  -28.8823   23.2927 C   0  0  0  0  0  0
  -18.9459  -30.1445   23.8922 C   0  0  0  0  0  0
  -17.6459  -30.6582   24.0573 C   0  0  0  0  0  0
  -25.9030  -34.9452   23.5109 C   0  0  0  0  0  0
  -16.5350  -29.9088   23.6322 C   0  0  0  0  0  0
  -16.7270  -28.6503   23.0347 C   0  0  0  0  0  0
  -26.4490  -31.6567   25.0675 C   0  0  0  0  0  0
  -25.3793  -31.3656   26.1452 C   0  0  0  0  0  0
  -27.0296  -30.3010   24.6017 C   0  0  0  0  0  0
  -27.6088  -32.4259   25.7452 C   0  0  0  0  0  0
  -27.5580  -37.1801   24.8475 C   0  0  0  0  0  0
  -21.4103  -29.3016   22.3717 N   0  0  0  0  0  0
  -26.4296  -37.3783   23.9401 N   0  0  0  0  0  0
  -24.6607  -31.0832   22.0979 N   0  0  0  0  0  0
  -23.4166  -28.8230   23.3009 O   0  0  0  0  0  0
  -28.4109  -26.7541   20.1240 O   0  0  0  0  0  0
  -26.5580  -34.8918   22.4662 O   0  0  0  0  0  0
  -23.5309  -32.1476   23.7506 O   0  0  0  0  0  0
  -32.8898  -16.9215   15.4563 C   0  0  0  0  0  0
  -33.2989  -15.5791   15.4223 C   0  0  0  0  0  0
  -32.6424  -17.5528   16.6889 C   0  0  0  0  0  0
  -33.1895  -15.4610   17.8730 C   0  0  0  0  0  0
  -33.4339  -14.8452   16.6169 C   0  0  0  0  0  0
  -32.8195  -16.8346   17.9012 C   0  0  0  0  0  0
  -32.1588  -18.9937   16.6618 C   0  0  0  0  0  0
  -33.3691  -14.6643   19.1747 C   0  0  0  0  0  0
  -30.6409  -19.0588   16.4470 C   0  0  0  0  0  0
  -30.0754  -20.4857   16.4316 C   0  0  0  0  0  0
  -29.7565  -21.0509   17.8300 C   0  0  0  0  0  0
  -29.2820  -22.5068   17.7330 C   0  0  0  0  0  0
  -28.8620  -23.1358   19.0702 C   0  0  0  0  0  0
  -28.6494  -24.6512   18.9321 C   0  0  0  0  0  0
  -28.3372  -25.3349   20.2704 C   0  0  0  0  0  0
  -32.2589  -13.7611   19.5108 N   0  0  0  0  0  0
  -33.9214  -13.1888   16.5064 Cl  0  0  0  0  0  0
  -32.6026  -17.6605   19.4111 Cl  0  0  0  0  0  0
  -31.3072  -11.7160   18.9291 H   0  0  0  0  0  0
  -29.9938  -11.0269   19.7688 H   0  0  0  0  0  0
  -29.5588  -11.6130   17.3464 H   0  0  0  0  0  0
  -29.6748  -13.3122   17.7188 H   0  0  0  0  0  0
  -27.7292  -11.2965   18.8559 H   0  0  0  0  0  0
  -27.2775  -12.6179   17.8231 H   0  0  0  0  0  0
  -27.7506  -14.2516   19.5549 H   0  0  0  0  0  0
  -28.7610  -12.0672   21.4357 H   0  0  0  0  0  0
  -28.8145  -13.7724   21.7333 H   0  0  0  0  0  0
  -25.2872   -9.5638   22.4914 H   0  0  0  0  0  0
  -23.9861   -7.4758   22.7653 H   0  0  0  0  0  0
  -21.0876   -8.9101   19.9006 H   0  0  0  0  0  0
  -22.4057  -10.9814   19.6122 H   0  0  0  0  0  0
  -21.2062   -7.6125   23.9683 H   0  0  0  0  0  0
  -21.1461   -6.0495   25.9026 H   0  0  0  0  0  0
  -22.0599   -2.7572   23.2835 H   0  0  0  0  0  0
  -22.4034  -12.0041   22.4706 H   0  0  0  0  0  0
  -21.1114  -13.1490   22.2214 H   0  0  0  0  0  0
  -24.7069  -15.8703   20.4686 H   0  0  0  0  0  0
  -26.3429  -15.6285   20.1547 H   0  0  0  0  0  0
  -26.7075  -32.5540   23.1111 H   0  0  0  0  0  0
  -25.0143  -33.9754   25.0524 H   0  0  0  0  0  0
  -22.6815  -31.3117   21.4107 H   0  0  0  0  0  0
  -23.3751  -35.9609   23.3320 H   0  0  0  0  0  0
  -24.3602  -36.8847   22.2044 H   0  0  0  0  0  0
  -23.7236  -37.6487   23.6620 H   0  0  0  0  0  0
  -26.0387  -31.6130   20.5976 H   0  0  0  0  0  0
  -26.8099  -30.8917   21.9795 H   0  0  0  0  0  0
  -28.0931  -29.1260   21.1557 H   0  0  0  0  0  0
  -26.0391  -25.9723   19.0348 H   0  0  0  0  0  0
  -23.9672  -27.2884   19.0580 H   0  0  0  0  0  0
  -23.7062  -30.5985   19.3997 H   0  0  0  0  0  0
  -22.7255  -29.2469   19.8673 H   0  0  0  0  0  0
  -25.1288  -36.1943   25.0829 H   0  0  0  0  0  0
  -20.9995  -28.3232   24.1446 H   0  0  0  0  0  0
  -20.5654  -26.2246   23.3607 H   0  0  0  0  0  0
  -21.6636  -26.7439   22.1228 H   0  0  0  0  0  0
  -19.6894  -25.6308   21.1217 H   0  0  0  0  0  0
  -19.6693  -27.3216   20.6751 H   0  0  0  0  0  0
  -17.4207  -26.6708   21.4014 H   0  0  0  0  0  0
  -18.0321  -26.0072   22.9003 H   0  0  0  0  0  0
  -19.7934  -30.7266   24.2290 H   0  0  0  0  0  0
  -17.5008  -31.6260   24.5169 H   0  0  0  0  0  0
  -15.5349  -30.2986   23.7624 H   0  0  0  0  0  0
  -15.8682  -28.0819   22.7041 H   0  0  0  0  0  0
  -24.6013  -30.6914   25.7844 H   0  0  0  0  0  0
  -24.8922  -32.2790   26.4874 H   0  0  0  0  0  0
  -25.8231  -30.8902   27.0213 H   0  0  0  0  0  0
  -26.2801  -29.6775   24.1129 H   0  0  0  0  0  0
  -27.4129  -29.7225   25.4430 H   0  0  0  0  0  0
  -27.8618  -30.4306   23.9097 H   0  0  0  0  0  0
  -27.2739  -33.3561   26.2060 H   0  0  0  0  0  0
  -28.3938  -32.6808   25.0315 H   0  0  0  0  0  0
  -28.0727  -31.8345   26.5360 H   0  0  0  0  0  0
  -28.2627  -38.0079   24.7507 H   0  0  0  0  0  0
  -28.1057  -36.2605   24.6325 H   0  0  0  0  0  0
  -27.2302  -37.1481   25.8888 H   0  0  0  0  0  0
  -20.9218  -29.8710   21.6940 H   0  0  0  0  0  0
  -26.0169  -38.2848   24.1427 H   0  0  0  0  0  0
  -32.7647  -17.4710   14.5336 H   0  0  0  0  0  0
  -33.5040  -15.1084   14.4710 H   0  0  0  0  0  0
  -32.6665  -19.5056   15.8416 H   0  0  0  0  0  0
  -32.4407  -19.5236   17.5698 H   0  0  0  0  0  0
  -33.5847  -15.3269   20.0117 H   0  0  0  0  0  0
  -34.2734  -14.0669   19.0760 H   0  0  0  0  0  0
  -30.1208  -18.4558   17.1951 H   0  0  0  0  0  0
  -30.4229  -18.5974   15.4842 H   0  0  0  0  0  0
  -29.1491  -20.4675   15.8569 H   0  0  0  0  0  0
  -30.7487  -21.1520   15.8848 H   0  0  0  0  0  0
  -30.6347  -20.9934   18.4784 H   0  0  0  0  0  0
  -28.9860  -20.4380   18.3012 H   0  0  0  0  0  0
  -28.4456  -22.5627   17.0346 H   0  0  0  0  0  0
  -30.0910  -23.0940   17.2969 H   0  0  0  0  0  0
  -29.6323  -22.9550   19.8227 H   0  0  0  0  0  0
  -27.9495  -22.6667   19.4428 H   0  0  0  0  0  0
  -27.8687  -24.8632   18.1988 H   0  0  0  0  0  0
  -29.5643  -25.0894   18.5369 H   0  0  0  0  0  0
  -29.0919  -25.0501   21.0048 H   0  0  0  0  0  0
  -27.3878  -24.9945   20.6878 H   0  0  0  0  0  0
  -32.3050  -12.8217   19.1397 H   0  0  0  0  0  0
  1 25  1  0  0  0
  1 30  2  0  0  0
  1 86  1  0  0  0
  2  3  1  0  0  0
  2 25  1  0  0  0
  2 89  1  0  0  0
  2 90  1  0  0  0
  3  4  1  0  0  0
  3 91  1  0  0  0
  3 92  1  0  0  0
  4  5  1  0  0  0
  4 93  1  0  0  0
  4 94  1  0  0  0
  5  6  1  0  0  0
  5 26  1  0  0  0
  5 95  1  0  0  0
  6 25  1  0  0  0
  6 96  1  0  0  0
  6 97  1  0  0  0
  7  8  2  0  0  0
  7 26  1  0  0  0
  7 29  1  0  0  0
  8  9  1  0  0  0
  8 22  1  0  0  0
  9 10  1  0  0  0
  9 27  2  0  0  0
 10 11  2  0  0  0
 10 15  1  0  0  0
 11 12  1  0  0  0
 11 98  1  0  0  0
 12 13  2  0  0  0
 12 99  1  0  0  0
 13 14  1  0  0  0
 13 31  1  0  0  0
 14 15  2  0  0  0
 14100  1  0  0  0
 15101  1  0  0  0
 16 17  2  0  0  0
 16 21  1  0  0  0
 16 31  1  0  0  0
 17 18  1  0  0  0
 17102  1  0  0  0
 18 19  2  0  0  0
 18103  1  0  0  0
 19 20  1  0  0  0
 19 24  1  0  0  0
 20 21  2  0  0  0
 20104  1  0  0  0
 21 23  1  0  0  0
 22 28  1  0  0  0
 22 32  2  0  0  0
 26 27  1  0  0  0
 28105  1  0  0  0
 28106  1  0  0  0
 29107  1  0  0  0
 29108  1  0  0  0
 33 34  1  0  0  0
 33 66  1  0  0  0
 33 70  2  0  0  0
 34 36  1  0  0  0
 34 59  1  0  0  0
 34109  1  0  0  0
 35 44  2  0  0  0
 35 45  1  0  0  0
 35 68  1  0  0  0
 36 56  1  0  0  0
 36110  1  0  0  0
 37 39  1  0  0  0
 37 47  1  0  0  0
 37 66  1  0  0  0
 37111  1  0  0  0
 38 43  2  0  0  0
 38 46  1  0  0  0
 38 47  1  0  0  0
 39 64  1  0  0  0
 39 67  2  0  0  0
 40 52  1  0  0  0
 40 53  2  0  0  0
 40 58  1  0  0  0
 41112  1  0  0  0
 41113  1  0  0  0
 41114  1  0  0  0
 41 48  1  0  0  0
 42 43  1  0  0  0
 42 66  1  0  0  0
 42115  1  0  0  0
 42116  1  0  0  0
 43 44  1  0  0  0
 44117  1  0  0  0
 45 46  2  0  0  0
 45118  1  0  0  0
 46119  1  0  0  0
 47120  1  0  0  0
 47121  1  0  0  0
 48 56  1  0  0  0
 48 65  1  0  0  0
 48122  1  0  0  0
 49 50  1  0  0  0
 49 53  1  0  0  0
 49 64  1  0  0  0
 49123  1  0  0  0
 50 51  1  0  0  0
 50124  1  0  0  0
 50125  1  0  0  0
 51 52  1  0  0  0
 51126  1  0  0  0
 51127  1  0  0  0
 52128  1  0  0  0
 52129  1  0  0  0
 53 54  1  0  0  0
 54 55  2  0  0  0
 54130  1  0  0  0
 55 57  1  0  0  0
 55131  1  0  0  0
 56 69  2  0  0  0
 57 58  2  0  0  0
 57132  1  0  0  0
 58133  1  0  0  0
 59 60  1  0  0  0
 59 61  1  0  0  0
 59 62  1  0  0  0
 60134  1  0  0  0
 60135  1  0  0  0
 60136  1  0  0  0
 61137  1  0  0  0
 61138  1  0  0  0
 61139  1  0  0  0
 62140  1  0  0  0
 62141  1  0  0  0
 62142  1  0  0  0
 63 65  1  0  0  0
 63143  1  0  0  0
 63144  1  0  0  0
 63145  1  0  0  0
 64146  1  0  0  0
 65147  1  0  0  0
 68 85  1  0  0  0
 71 72  2  0  0  0
 71 73  1  0  0  0
 71148  1  0  0  0
 72 75  1  0  0  0
 72149  1  0  0  0
 73 76  2  0  0  0
 73 77  1  0  0  0
 74 75  2  0  0  0
 74 76  1  0  0  0
 74 78  1  0  0  0
 75 87  1  0  0  0
 76 88  1  0  0  0
 77 79  1  0  0  0
 77150  1  0  0  0
 77151  1  0  0  0
 78 86  1  0  0  0
 78152  1  0  0  0
 78153  1  0  0  0
 79 80  1  0  0  0
 79154  1  0  0  0
 79155  1  0  0  0
 80 81  1  0  0  0
 80156  1  0  0  0
 80157  1  0  0  0
 81 82  1  0  0  0
 81158  1  0  0  0
 81159  1  0  0  0
 82 83  1  0  0  0
 82160  1  0  0  0
 82161  1  0  0  0
 83 84  1  0  0  0
 83162  1  0  0  0
 83163  1  0  0  0
 84 85  1  0  0  0
 84164  1  0  0  0
 84165  1  0  0  0
 85166  1  0  0  0
 85167  1  0  0  0
 86168  1  0  0  0
M  ISO  4   1 100  68 101  85 101  86 100
M  END
> <chiral flag>
0

> <version>
0

> <s_m_source_file>
/data/baiqing/PycharmProjects/Reinvent-master-3.2/result/LINK_invent/BTK/process_docking_weight1_custom_sum_contain_oxygen_bond_distance_aromatic_linkinvent_7_9_3/rearranged_h_0023.sdf

> <i_m_source_file_index>
69

> <r_mmod_Potential_Energy-OPLS-2005>
166.847900390625

> <r_mmod_Stretch_Energy-OPLS-2005>
44.1915435791016

> <r_mmod_Bend_Energy-OPLS-2005>
118.37580871582

> <r_mmod_Torsional_Energy-OPLS-2005>
206.031585693359

> <r_mmod_Improper_Torsional_Energy-OPLS-2005>
2.10577774047852

> <r_mmod_Van_der_Waal_Energy-OPLS-2005>
163.886566162109

> <r_mmod_Electrostatic_Energy-OPLS-2005>
-363.896942138672

> <r_mmod_Solvation_Energy-OPLS-2005>
-196.131530761719

> <b_mmod_Minimization_Converged-OPLS-2005>
0

> <r_mmod_RMS_Derivative-OPLS-2005>
7.0293664932251

$$$$
69
                    3D
 Structure written by MMmdl.
192200  0  0  1  0            999 V2000
  -30.7465  -14.3872   20.5499 C   0  0  0  0  0  0
  -30.3989  -12.2305   19.4347 C   0  0  0  0  0  0
  -29.4880  -12.4458   18.2089 C   0  0  0  0  0  0
  -28.0049  -12.3380   18.6177 C   0  0  0  0  0  0
  -27.6553  -13.1876   19.8702 C   0  0  2  0  0  0
  -28.6961  -12.9975   21.0014 C   0  0  0  0  0  0
  -25.2563  -13.8089   20.5713 C   0  0  0  0  0  0
  -24.1821  -13.0425   20.9227 C   0  0  0  0  0  0
  -24.6356  -11.6855   20.8763 C   0  0  0  0  0  0
  -23.9016  -10.4269   21.0388 C   0  0  0  0  0  0
  -24.3575   -9.4192   21.9182 C   0  0  0  0  0  0
  -23.6255   -8.2232   22.0757 C   0  0  0  0  0  0
  -22.4226   -8.0283   21.3556 C   0  0  0  0  0  0
  -21.9858   -9.0244   20.4636 C   0  0  0  0  0  0
  -22.7177  -10.2117   20.3043 C   0  0  0  0  0  0
  -21.6829   -6.0706   22.5294 C   0  0  0  0  0  0
  -21.3995   -6.5606   23.8226 C   0  0  0  0  0  0
  -21.3675   -5.6774   24.9202 C   0  0  0  0  0  0
  -21.6021   -4.3034   24.7256 C   0  0  0  0  0  0
  -21.8818   -3.8119   23.4390 C   0  0  0  0  0  0
  -21.9185   -4.6925   22.3423 C   0  0  0  0  0  0
  -22.7844  -13.5198   21.1926 C   0  0  0  0  0  0
  -22.1649   -4.2083   21.1011 F   0  0  0  0  0  0
  -21.5661   -3.4541   25.7803 F   0  0  0  0  0  0
  -30.0361  -13.2370   20.4389 N   0  0  0  0  0  0
  -26.2986  -12.9232   20.3366 N   0  0  0  0  0  0
  -25.9271  -11.6400   20.5765 N   0  0  0  0  0  0
  -22.0486  -12.8157   22.0435 N   0  0  0  0  0  0
  -25.4366  -15.1827   20.4175 N   0  0  0  0  0  0
  -31.9088  -14.5096   20.1410 O   0  0  0  0  0  0
  -21.6619   -6.8846   21.4246 O   0  0  0  0  0  0
  -22.3518  -14.5512   20.6758 O   0  0  0  0  0  0
  -24.6172  -31.8754   23.2263 C   0  0  0  0  0  0
  -25.9108  -32.4882   23.8450 C   0  0  1  0  0  0
  -27.2003  -27.4820   20.0842 C   0  0  0  0  0  0
  -25.6102  -33.8682   24.2423 N   0  0  0  0  0  0
  -23.3931  -30.5126   21.5757 C   0  0  2  0  0  0
  -24.8286  -29.0028   20.1294 C   0  0  0  0  0  0
  -22.7486  -29.4662   22.5153 C   0  0  0  0  0  0
  -18.0365  -28.1369   22.8581 C   0  0  0  0  0  0
  -24.1330  -36.7340   23.2642 C   0  0  0  0  0  0
  -25.9263  -30.8525   21.3756 C   0  0  0  0  0  0
  -25.9935  -29.4982   20.7226 C   0  0  0  0  0  0
  -27.1838  -28.7414   20.7155 C   0  0  0  0  0  0
  -26.0105  -27.0018   19.4733 C   0  0  0  0  0  0
  -24.8293  -27.7489   19.5083 C   0  0  0  0  0  0
  -23.5948  -29.8725   20.1807 C   0  0  0  0  0  0
  -25.3954  -36.3155   24.0383 C   0  0  1  0  0  0
  -20.5936  -28.3623   23.1441 C   0  0  2  0  0  0
  -20.6911  -26.9383   22.5501 C   0  0  0  0  0  0
  -19.5881  -26.6409   21.5285 C   0  0  0  0  0  0
  -18.2036  -26.7902   22.1708 C   0  0  0  0  0  0
  -19.1603  -28.8820   23.3000 C   0  0  0  0  0  0
  -18.9550  -30.1442   23.8973 C   0  0  0  0  0  0
  -17.6549  -30.6629   24.0501 C   0  0  0  0  0  0
  -25.8917  -34.9521   23.5102 C   0  0  0  0  0  0
  -16.5433  -29.9127   23.6308 C   0  0  0  0  0  0
  -16.7342  -28.6507   23.0421 C   0  0  0  0  0  0
  -26.4446  -31.6646   25.0821 C   0  0  0  0  0  0
  -25.3589  -31.3730   26.1435 C   0  0  0  0  0  0
  -27.0053  -30.3039   24.6188 C   0  0  0  0  0  0
  -27.6054  -32.4367   25.7546 C   0  0  0  0  0  0
  -27.5478  -37.1837   24.8419 C   0  0  0  0  0  0
  -21.4210  -29.3042   22.3917 N   0  0  0  0  0  0
  -26.4112  -37.3888   23.9471 N   0  0  0  0  0  0
  -24.6641  -31.0905   22.1167 N   0  0  0  0  0  0
  -23.4361  -28.8156   23.3049 O   0  0  0  0  0  0
  -28.3758  -26.7689   20.0895 O   0  0  0  0  0  0
  -26.5209  -34.8992   22.4520 O   0  0  0  0  0  0
  -23.5390  -32.1503   23.7697 O   0  0  0  0  0  0
  -31.0886  -16.1039   22.9129 C   0  0  0  0  0  0
  -29.5518  -17.6241   21.8365 C   0  0  0  0  0  0
  -31.4284  -17.1156   23.8451 C   0  0  0  0  0  0
  -29.9824  -18.6762   22.6681 C   0  0  0  0  0  0
  -30.9206  -18.4410   23.7106 C   0  0  0  0  0  0
  -30.1918  -16.3721   21.8488 C   0  0  0  0  0  0
  -32.4566  -16.7564   24.9047 C   0  0  0  0  0  0
  -29.7008  -20.1231   28.5261 C   0  0  0  0  0  0
  -30.1089  -22.6050   28.4828 C   0  0  0  0  0  0
  -31.3320  -22.4221   25.7732 C   0  0  0  0  0  0
  -29.5928  -16.1037   19.4436 C   0  0  0  0  0  0
  -29.6081  -20.0616   22.1741 C   0  0  0  0  0  0
  -31.4673  -19.6016   24.5770 C   0  0  0  0  0  0
  -28.1987  -20.5839   22.4678 C   0  0  0  0  0  0
  -27.9678  -22.0102   21.9044 C   0  0  0  0  0  0
  -27.6518  -22.0667   20.3876 C   0  0  0  0  0  0
  -28.8887  -22.0604   19.4487 C   0  0  0  0  0  0
  -29.4423  -23.3750   18.8665 C   0  0  0  0  0  0
  -29.5224  -24.6032   19.7875 C   0  0  0  0  0  0
  -28.2583  -25.4429   19.6124 C   0  0  0  0  0  0
  -29.8644  -21.3565   27.6144 C   0  0  0  0  0  0
  -30.9664  -21.1271   26.5384 C   0  0  1  0  0  0
  -30.0001  -15.4899   20.7252 N   0  0  0  0  0  0
  -30.5216  -20.0352   25.6344 N   0  3  0  0  0  0
  -31.4501  -12.2742   19.1486 H   0  0  0  0  0  0
  -30.2447  -11.2292   19.8416 H   0  0  0  0  0  0
  -29.7111  -11.7026   17.4412 H   0  0  0  0  0  0
  -29.6840  -13.4106   17.7445 H   0  0  0  0  0  0
  -27.7960  -11.2850   18.8131 H   0  0  0  0  0  0
  -27.3609  -12.6212   17.7852 H   0  0  0  0  0  0
  -27.6790  -14.2255   19.5518 H   0  0  0  0  0  0
  -28.6435  -11.9867   21.4079 H   0  0  0  0  0  0
  -28.4803  -13.6732   21.8295 H   0  0  0  0  0  0
  -25.2739   -9.5624   22.4740 H   0  0  0  0  0  0
  -23.9968   -7.4567   22.7427 H   0  0  0  0  0  0
  -21.0829   -8.8700   19.8932 H   0  0  0  0  0  0
  -22.3624  -10.9653   19.6124 H   0  0  0  0  0  0
  -21.1961   -7.6105   23.9687 H   0  0  0  0  0  0
  -21.1512   -6.0529   25.9083 H   0  0  0  0  0  0
  -22.0587   -2.7575   23.2920 H   0  0  0  0  0  0
  -22.4103  -11.9782   22.4773 H   0  0  0  0  0  0
  -21.1100  -13.1150   22.2703 H   0  0  0  0  0  0
  -24.6828  -15.8510   20.5440 H   0  0  0  0  0  0
  -26.3030  -15.6178   20.1326 H   0  0  0  0  0  0
  -26.7211  -32.5508   23.1248 H   0  0  0  0  0  0
  -25.0867  -33.9943   25.0944 H   0  0  0  0  0  0
  -22.6799  -31.3302   21.4579 H   0  0  0  0  0  0
  -23.3566  -35.9678   23.3373 H   0  0  0  0  0  0
  -24.3375  -36.8891   22.2018 H   0  0  0  0  0  0
  -23.7080  -37.6600   23.6543 H   0  0  0  0  0  0
  -26.0375  -31.6253   20.6129 H   0  0  0  0  0  0
  -26.8129  -30.8879   21.9916 H   0  0  0  0  0  0
  -28.0806  -29.1210   21.1909 H   0  0  0  0  0  0
  -25.9470  -26.0545   18.9582 H   0  0  0  0  0  0
  -23.9373  -27.3664   19.0360 H   0  0  0  0  0  0
  -23.6941  -30.6591   19.4283 H   0  0  0  0  0  0
  -22.7130  -29.3037   19.8844 H   0  0  0  0  0  0
  -25.1036  -36.1967   25.0859 H   0  0  0  0  0  0
  -21.0017  -28.3165   24.1560 H   0  0  0  0  0  0
  -20.5877  -26.2242   23.3695 H   0  0  0  0  0  0
  -21.6817  -26.7484   22.1297 H   0  0  0  0  0  0
  -19.7047  -25.6364   21.1229 H   0  0  0  0  0  0
  -19.6795  -27.3268   20.6860 H   0  0  0  0  0  0
  -17.4280  -26.6607   21.4125 H   0  0  0  0  0  0
  -18.0494  -26.0066   22.9153 H   0  0  0  0  0  0
  -19.8015  -30.7247   24.2406 H   0  0  0  0  0  0
  -17.5105  -31.6352   24.5011 H   0  0  0  0  0  0
  -15.5438  -30.3041   23.7637 H   0  0  0  0  0  0
  -15.8745  -28.0780   22.7234 H   0  0  0  0  0  0
  -24.6015  -30.6933   25.7537 H   0  0  0  0  0  0
  -24.8483  -32.2784   26.4687 H   0  0  0  0  0  0
  -25.7749  -30.9094   27.0375 H   0  0  0  0  0  0
  -26.2331  -29.6951   24.1395 H   0  0  0  0  0  0
  -27.8390  -30.4158   23.9274 H   0  0  0  0  0  0
  -27.3737  -29.7288   25.4704 H   0  0  0  0  0  0
  -27.2670  -33.3523   26.2437 H   0  0  0  0  0  0
  -28.3666  -32.7247   25.0235 H   0  0  0  0  0  0
  -28.0920  -31.8476   26.5312 H   0  0  0  0  0  0
  -28.2533  -38.0087   24.7346 H   0  0  0  0  0  0
  -28.0831  -36.2542   24.6263 H   0  0  0  0  0  0
  -27.2239  -37.1587   25.8845 H   0  0  0  0  0  0
  -20.9366  -29.8930   21.7301 H   0  0  0  0  0  0
  -25.9990  -38.2949   24.1576 H   0  0  0  0  0  0
  -31.6069  -15.1577   22.9864 H   0  0  0  0  0  0
  -28.8263  -17.8534   21.0723 H   0  0  0  0  0  0
  -32.3831  -15.7120   25.2052 H   0  0  0  0  0  0
  -32.3220  -17.3456   25.8069 H   0  0  0  0  0  0
  -33.4599  -16.9268   24.5127 H   0  0  0  0  0  0
  -30.6174  -19.9050   29.0754 H   0  0  0  0  0  0
  -29.4340  -19.2267   27.9706 H   0  0  0  0  0  0
  -28.9110  -20.2684   29.2614 H   0  0  0  0  0  0
  -29.5328  -22.5824   29.4089 H   0  0  0  0  0  0
  -29.8089  -23.5091   27.9522 H   0  0  0  0  0  0
  -31.1697  -22.7043   28.7407 H   0  0  0  0  0  0
  -30.5011  -22.7861   25.1695 H   0  0  0  0  0  0
  -32.1925  -22.2809   25.1144 H   0  0  0  0  0  0
  -31.6149  -23.2194   26.4655 H   0  0  0  0  0  0
  -28.5457  -16.3962   19.4479 H   0  0  0  0  0  0
  -29.7156  -15.4523   18.5746 H   0  0  0  0  0  0
  -30.2023  -16.9851   19.2479 H   0  0  0  0  0  0
  -30.3294  -20.8116   22.4721 H   0  0  0  0  0  0
  -29.7292  -19.9589   21.0959 H   0  0  0  0  0  0
  -31.7097  -20.4469   23.9441 H   0  0  0  0  0  0
  -32.4335  -19.3659   25.0221 H   0  0  0  0  0  0
  -28.0373  -20.5930   23.5434 H   0  0  0  0  0  0
  -27.4540  -19.8911   22.0758 H   0  0  0  0  0  0
  -28.7988  -22.6687   22.1623 H   0  0  0  0  0  0
  -27.1208  -22.4449   22.4343 H   0  0  0  0  0  0
  -27.0141  -22.9157   20.1623 H   0  0  0  0  0  0
  -26.9985  -21.2159   20.1663 H   0  0  0  0  0  0
  -28.6575  -21.4256   18.5937 H   0  0  0  0  0  0
  -29.7343  -21.5815   19.9224 H   0  0  0  0  0  0
  -28.9079  -23.6098   17.9428 H   0  0  0  0  0  0
  -30.4544  -23.1585   18.5263 H   0  0  0  0  0  0
  -30.3911  -25.1981   19.5023 H   0  0  0  0  0  0
  -29.6917  -24.3180   20.8277 H   0  0  0  0  0  0
  -27.4428  -24.9652   20.1511 H   0  0  0  0  0  0
  -28.0140  -25.5020   18.5480 H   0  0  0  0  0  0
  -28.9124  -21.5026   27.0959 H   0  0  0  0  0  0
  -31.8636  -20.7859   27.0672 H   0  0  0  0  0  0
  -29.6470  -20.3042   25.2142 H   0  0  0  0  0  0
  -30.3407  -19.2370   26.2208 H   0  0  0  0  0  0
  1 25  1  0  0  0
  1 30  2  0  0  0
  1 93  1  0  0  0
  2  3  1  0  0  0
  2 25  1  0  0  0
  2 95  1  0  0  0
  2 96  1  0  0  0
  3  4  1  0  0  0
  3 97  1  0  0  0
  3 98  1  0  0  0
  4  5  1  0  0  0
  4 99  1  0  0  0
  4100  1  0  0  0
  5  6  1  0  0  0
  5 26  1  0  0  0
  5101  1  0  0  0
  6 25  1  0  0  0
  6102  1  0  0  0
  6103  1  0  0  0
  7  8  2  0  0  0
  7 26  1  0  0  0
  7 29  1  0  0  0
  8  9  1  0  0  0
  8 22  1  0  0  0
  9 10  1  0  0  0
  9 27  2  0  0  0
 10 11  2  0  0  0
 10 15  1  0  0  0
 11 12  1  0  0  0
 11104  1  0  0  0
 12 13  2  0  0  0
 12105  1  0  0  0
 13 14  1  0  0  0
 13 31  1  0  0  0
 14 15  2  0  0  0
 14106  1  0  0  0
 15107  1  0  0  0
 16 17  2  0  0  0
 16 21  1  0  0  0
 16 31  1  0  0  0
 17 18  1  0  0  0
 17108  1  0  0  0
 18 19  2  0  0  0
 18109  1  0  0  0
 19 20  1  0  0  0
 19 24  1  0  0  0
 20 21  2  0  0  0
 20110  1  0  0  0
 21 23  1  0  0  0
 22 28  1  0  0  0
 22 32  2  0  0  0
 26 27  1  0  0  0
 28111  1  0  0  0
 28112  1  0  0  0
 29113  1  0  0  0
 29114  1  0  0  0
 33 34  1  0  0  0
 33 66  1  0  0  0
 33 70  2  0  0  0
 34 36  1  0  0  0
 34 59  1  0  0  0
 34115  1  0  0  0
 35 44  2  0  0  0
 35 45  1  0  0  0
 35 68  1  0  0  0
 36 56  1  0  0  0
 36116  1  0  0  0
 37 39  1  0  0  0
 37 47  1  0  0  0
 37 66  1  0  0  0
 37117  1  0  0  0
 38 43  2  0  0  0
 38 46  1  0  0  0
 38 47  1  0  0  0
 39 64  1  0  0  0
 39 67  2  0  0  0
 40 52  1  0  0  0
 40 53  2  0  0  0
 40 58  1  0  0  0
 41118  1  0  0  0
 41119  1  0  0  0
 41120  1  0  0  0
 41 48  1  0  0  0
 42 43  1  0  0  0
 42 66  1  0  0  0
 42121  1  0  0  0
 42122  1  0  0  0
 43 44  1  0  0  0
 44123  1  0  0  0
 45 46  2  0  0  0
 45124  1  0  0  0
 46125  1  0  0  0
 47126  1  0  0  0
 47127  1  0  0  0
 48 56  1  0  0  0
 48 65  1  0  0  0
 48128  1  0  0  0
 49 50  1  0  0  0
 49 53  1  0  0  0
 49 64  1  0  0  0
 49129  1  0  0  0
 50 51  1  0  0  0
 50130  1  0  0  0
 50131  1  0  0  0
 51 52  1  0  0  0
 51132  1  0  0  0
 51133  1  0  0  0
 52134  1  0  0  0
 52135  1  0  0  0
 53 54  1  0  0  0
 54 55  2  0  0  0
 54136  1  0  0  0
 55 57  1  0  0  0
 55137  1  0  0  0
 56 69  2  0  0  0
 57 58  2  0  0  0
 57138  1  0  0  0
 58139  1  0  0  0
 59 60  1  0  0  0
 59 61  1  0  0  0
 59 62  1  0  0  0
 60140  1  0  0  0
 60141  1  0  0  0
 60142  1  0  0  0
 61143  1  0  0  0
 61144  1  0  0  0
 61145  1  0  0  0
 62146  1  0  0  0
 62147  1  0  0  0
 62148  1  0  0  0
 63 65  1  0  0  0
 63149  1  0  0  0
 63150  1  0  0  0
 63151  1  0  0  0
 64152  1  0  0  0
 65153  1  0  0  0
 68 90  1  0  0  0
 71 73  2  0  0  0
 71 76  1  0  0  0
 71154  1  0  0  0
 72 74  1  0  0  0
 72 76  2  0  0  0
 72155  1  0  0  0
 73 75  1  0  0  0
 73 77  1  0  0  0
 74 75  2  0  0  0
 74 82  1  0  0  0
 75 83  1  0  0  0
 76 93  1  0  0  0
 77156  1  0  0  0
 77157  1  0  0  0
 77158  1  0  0  0
 78159  1  0  0  0
 78160  1  0  0  0
 78161  1  0  0  0
 78 91  1  0  0  0
 79 91  1  0  0  0
 79162  1  0  0  0
 79163  1  0  0  0
 79164  1  0  0  0
 80165  1  0  0  0
 80166  1  0  0  0
 80167  1  0  0  0
 80 92  1  0  0  0
 81 93  1  0  0  0
 81168  1  0  0  0
 81169  1  0  0  0
 81170  1  0  0  0
 82 84  1  0  0  0
 82171  1  0  0  0
 82172  1  0  0  0
 83 94  1  0  0  0
 83173  1  0  0  0
 83174  1  0  0  0
 84 85  1  0  0  0
 84175  1  0  0  0
 84176  1  0  0  0
 85 86  1  0  0  0
 85177  1  0  0  0
 85178  1  0  0  0
 86 87  1  0  0  0
 86179  1  0  0  0
 86180  1  0  0  0
 87 88  1  0  0  0
 87181  1  0  0  0
 87182  1  0  0  0
 88 89  1  0  0  0
 88183  1  0  0  0
 88184  1  0  0  0
 89 90  1  0  0  0
 89185  1  0  0  0
 89186  1  0  0  0
 90187  1  0  0  0
 90188  1  0  0  0
 91 92  1  0  0  0
 91189  1  0  0  0
 92 94  1  0  0  0
 92190  1  0  0  0
 94191  1  0  0  0
 94192  1  0  0  0
M  CHG  1  94   1
M  ISO  4   1 100  68 101  90 101  93 100
M  END
> <chiral flag>
0

> <version>
0

> <s_m_source_file>
/data/baiqing/PycharmProjects/Reinvent-master-3.2/result/LINK_invent/BTK/process_docking_weight1_custom_sum_contain_oxygen_bond_distance_aromatic_linkinvent_7_9_3/rearranged_h_0023.sdf

> <i_m_source_file_index>
70

> <r_mmod_Potential_Energy-OPLS-2005>
102.469680786133

> <r_mmod_Stretch_Energy-OPLS-2005>
42.7475967407227

> <r_mmod_Bend_Energy-OPLS-2005>
135.433334350586

> <r_mmod_Torsional_Energy-OPLS-2005>
336.995971679688

> <r_mmod_Improper_Torsional_Energy-OPLS-2005>
17.1630020141602

> <r_mmod_Van_der_Waal_Energy-OPLS-2005>
196.186416625977

> <r_mmod_Electrostatic_Energy-OPLS-2005>
-225.382141113281

> <r_mmod_Solvation_Energy-OPLS-2005>
-419.711242675781

> <b_mmod_Minimization_Converged-OPLS-2005>
0

> <r_mmod_RMS_Derivative-OPLS-2005>
10.1108465194702

$$$$
70
                    3D
 Structure written by MMmdl.
209218  0  0  1  0            999 V2000
  -30.7075  -14.3578   20.6951 C   0  0  0  0  0  0
  -30.4194  -12.2715   19.4038 C   0  0  0  0  0  0
  -29.4985  -12.5333   18.1973 C   0  0  0  0  0  0
  -28.0106  -12.4177   18.5913 C   0  0  0  0  0  0
  -27.6689  -13.1950   19.8891 C   0  0  2  0  0  0
  -28.6923  -12.8783   20.9981 C   0  0  0  0  0  0
  -25.2598  -13.8136   20.5656 C   0  0  0  0  0  0
  -24.1838  -13.0469   20.9149 C   0  0  0  0  0  0
  -24.6342  -11.6912   20.8678 C   0  0  0  0  0  0
  -23.8996  -10.4300   21.0373 C   0  0  0  0  0  0
  -24.3578   -9.4229   21.9159 C   0  0  0  0  0  0
  -23.6275   -8.2254   22.0738 C   0  0  0  0  0  0
  -22.4248   -8.0280   21.3548 C   0  0  0  0  0  0
  -21.9880   -9.0232   20.4636 C   0  0  0  0  0  0
  -22.7168  -10.2128   20.3026 C   0  0  0  0  0  0
  -21.6846   -6.0730   22.5273 C   0  0  0  0  0  0
  -21.4022   -6.5638   23.8215 C   0  0  0  0  0  0
  -21.3668   -5.6788   24.9173 C   0  0  0  0  0  0
  -21.6026   -4.3046   24.7225 C   0  0  0  0  0  0
  -21.8820   -3.8144   23.4340 C   0  0  0  0  0  0
  -21.9200   -4.6963   22.3400 C   0  0  0  0  0  0
  -22.7861  -13.5281   21.1843 C   0  0  0  0  0  0
  -22.1662   -4.2151   21.0973 F   0  0  0  0  0  0
  -21.5637   -3.4534   25.7738 F   0  0  0  0  0  0
  -30.0364  -13.1983   20.4792 N   0  0  0  0  0  0
  -26.3034  -12.9293   20.3351 N   0  0  0  0  0  0
  -25.9257  -11.6459   20.5665 N   0  0  0  0  0  0
  -22.0470  -12.8286   22.0367 N   0  0  0  0  0  0
  -25.4396  -15.1863   20.4070 N   0  0  0  0  0  0
  -31.7469  -14.6439   20.0933 O   0  0  0  0  0  0
  -21.6638   -6.8871   21.4237 O   0  0  0  0  0  0
  -22.3556  -14.5592   20.6666 O   0  0  0  0  0  0
  -24.6107  -31.8761   23.2147 C   0  0  0  0  0  0
  -25.9017  -32.4868   23.8424 C   0  0  1  0  0  0
  -27.2146  -27.4538   20.1068 C   0  0  0  0  0  0
  -25.5876  -33.8668   24.2340 N   0  0  0  0  0  0
  -23.3949  -30.5062   21.5545 C   0  0  2  0  0  0
  -24.8309  -28.9762   20.1230 C   0  0  0  0  0  0
  -22.7376  -29.4716   22.4972 C   0  0  0  0  0  0
  -18.0286  -28.1377   22.8472 C   0  0  0  0  0  0
  -24.1486  -36.7346   23.2640 C   0  0  0  0  0  0
  -25.9228  -30.8545   21.3601 C   0  0  0  0  0  0
  -25.9932  -29.4876   20.7120 C   0  0  0  0  0  0
  -27.1845  -28.7353   20.7001 C   0  0  0  0  0  0
  -26.0318  -26.9612   19.5158 C   0  0  0  0  0  0
  -24.8408  -27.7050   19.5283 C   0  0  0  0  0  0
  -23.6032  -29.8531   20.1634 C   0  0  0  0  0  0
  -25.4099  -36.3155   24.0354 C   0  0  1  0  0  0
  -20.5865  -28.3670   23.1304 C   0  0  2  0  0  0
  -20.6772  -26.9396   22.5437 C   0  0  0  0  0  0
  -19.5750  -26.6395   21.5213 C   0  0  0  0  0  0
  -18.1924  -26.7922   22.1612 C   0  0  0  0  0  0
  -19.1537  -28.8824   23.2899 C   0  0  0  0  0  0
  -18.9480  -30.1426   23.8923 C   0  0  0  0  0  0
  -17.6490  -30.6575   24.0569 C   0  0  0  0  0  0
  -25.9054  -34.9521   23.5159 C   0  0  0  0  0  0
  -16.5375  -29.9112   23.6292 C   0  0  0  0  0  0
  -16.7285  -28.6533   23.0299 C   0  0  0  0  0  0
  -26.4457  -31.6609   25.0713 C   0  0  0  0  0  0
  -25.3739  -31.3669   26.1461 C   0  0  0  0  0  0
  -27.0251  -30.3053   24.6016 C   0  0  0  0  0  0
  -27.6031  -32.4334   25.7461 C   0  0  0  0  0  0
  -27.5580  -37.1806   24.8449 C   0  0  0  0  0  0
  -21.4111  -29.3058   22.3718 N   0  0  0  0  0  0
  -26.4264  -37.3849   23.9453 N   0  0  0  0  0  0
  -24.6617  -31.0919   22.1016 N   0  0  0  0  0  0
  -23.4171  -28.8264   23.3002 O   0  0  0  0  0  0
  -28.4298  -26.8043   20.0942 O   0  0  0  0  0  0
  -26.5624  -34.8950   22.4728 O   0  0  0  0  0  0
  -23.5319  -32.1514   23.7560 O   0  0  0  0  0  0
  -31.6135  -16.6167   22.9349 C   0  0  0  0  0  0
  -32.3795  -17.4721   26.3869 C   0  0  0  0  0  0
  -31.8763  -18.8924   26.5898 C   0  0  0  0  0  0
  -27.3826  -23.2639   16.7847 C   0  0  0  0  0  0
  -28.4033  -25.3956   16.0065 C   0  0  0  0  0  0
  -27.3430  -23.7387   18.2499 C   0  0  0  0  0  0
  -28.4535  -25.9181   17.4442 C   0  0  0  0  0  0
  -32.8506  -17.3157   24.9394 C   0  0  0  0  0  0
  -30.9908  -18.7496   24.1518 C   0  0  0  0  0  0
  -27.2082  -24.4493   15.8203 C   0  0  1  0  0  0
  -28.4435  -24.7997   18.5272 C   0  0  1  0  0  0
  -30.7404  -19.2336   25.6126 C   0  0  2  0  0  0
  -27.0524  -24.0311   14.3548 C   0  0  0  0  0  0
  -26.5746  -24.2463   21.3417 C   0  0  0  0  0  0
  -30.1848  -25.4827   20.1640 C   0  0  0  0  0  0
  -29.6880  -18.9309   21.1372 C   0  0  0  0  0  0
  -31.5841  -17.8565   20.0054 C   0  0  0  0  0  0
  -29.2257  -17.0375   19.6602 C   0  0  0  0  0  0
  -30.4852  -20.7564   25.7053 C   0  0  0  0  0  0
  -29.3227  -21.3134   24.8662 C   0  0  0  0  0  0
  -29.7804  -22.1227   23.6379 C   0  0  0  0  0  0
  -28.6111  -22.8997   23.0116 C   0  0  0  0  0  0
  -30.3812  -16.5740   21.9598 C   0  0  1  0  0  0
  -28.0765  -24.6314   21.2692 C   0  0  2  0  0  0
  -28.6438  -25.3822   19.9894 C   0  0  1  0  0  0
  -30.2488  -17.5609   20.7122 C   0  0  0  0  0  0
  -31.7323  -17.4825   23.9856 N   0  0  0  0  0  0
  -30.1221  -15.1635   21.5997 N   0  0  0  0  0  0
  -28.9373  -23.4865   21.6889 N   0  3  0  0  0  0
  -32.4844  -15.7550   22.7623 O   0  0  0  0  0  0
  -31.4646  -12.3808   19.1130 H   0  0  0  0  0  0
  -30.3188  -11.2390   19.7453 H   0  0  0  0  0  0
  -29.7284  -11.8345   17.3910 H   0  0  0  0  0  0
  -29.6981  -13.5306   17.7996 H   0  0  0  0  0  0
  -27.7705  -11.3598   18.7077 H   0  0  0  0  0  0
  -27.3838  -12.7766   17.7737 H   0  0  0  0  0  0
  -27.7425  -14.2594   19.6626 H   0  0  0  0  0  0
  -28.6457  -11.8159   21.2456 H   0  0  0  0  0  0
  -28.4283  -13.3895   21.9241 H   0  0  0  0  0  0
  -25.2724   -9.5755   22.4743 H   0  0  0  0  0  0
  -24.0013   -7.4660   22.7441 H   0  0  0  0  0  0
  -21.0835   -8.8713   19.8934 H   0  0  0  0  0  0
  -22.3591  -10.9670   19.6138 H   0  0  0  0  0  0
  -21.1996   -7.6142   23.9714 H   0  0  0  0  0  0
  -21.1494   -6.0517   25.9080 H   0  0  0  0  0  0
  -22.0586   -2.7610   23.2830 H   0  0  0  0  0  0
  -22.4049  -11.9958   22.4828 H   0  0  0  0  0  0
  -21.1050  -13.1298   22.2470 H   0  0  0  0  0  0
  -24.6814  -15.8520   20.5141 H   0  0  0  0  0  0
  -26.2978  -15.6160   20.0924 H   0  0  0  0  0  0
  -26.7097  -32.5610   23.1204 H   0  0  0  0  0  0
  -24.9891  -33.9853   25.0379 H   0  0  0  0  0  0
  -22.6839  -31.3238   21.4246 H   0  0  0  0  0  0
  -23.3762  -35.9655   23.3284 H   0  0  0  0  0  0
  -24.3584  -36.9012   22.2058 H   0  0  0  0  0  0
  -23.7220  -37.6530   23.6686 H   0  0  0  0  0  0
  -26.0270  -31.6206   20.5906 H   0  0  0  0  0  0
  -26.8165  -30.9089   21.9705 H   0  0  0  0  0  0
  -28.0820  -29.1383   21.1483 H   0  0  0  0  0  0
  -26.0095  -26.0090   19.0272 H   0  0  0  0  0  0
  -23.9453  -27.2988   19.0796 H   0  0  0  0  0  0
  -23.7362  -30.6424   19.4221 H   0  0  0  0  0  0
  -22.7220  -29.2951   19.8437 H   0  0  0  0  0  0
  -25.1250  -36.2015   25.0843 H   0  0  0  0  0  0
  -20.9949  -28.3286   24.1427 H   0  0  0  0  0  0
  -20.5643  -26.2295   23.3653 H   0  0  0  0  0  0
  -21.6659  -26.7436   22.1251 H   0  0  0  0  0  0
  -19.6912  -25.6325   21.1217 H   0  0  0  0  0  0
  -19.6667  -27.3230   20.6759 H   0  0  0  0  0  0
  -17.4181  -26.6651   21.4033 H   0  0  0  0  0  0
  -18.0311  -26.0066   22.9019 H   0  0  0  0  0  0
  -19.7983  -30.7201   24.2308 H   0  0  0  0  0  0
  -17.5086  -31.6241   24.5206 H   0  0  0  0  0  0
  -15.5389  -30.3036   23.7611 H   0  0  0  0  0  0
  -15.8682  -28.0911   22.6922 H   0  0  0  0  0  0
  -24.5928  -30.6985   25.7813 H   0  0  0  0  0  0
  -24.8862  -32.2787   26.4915 H   0  0  0  0  0  0
  -25.8100  -30.8848   27.0218 H   0  0  0  0  0  0
  -26.2732  -29.6840   24.1113 H   0  0  0  0  0  0
  -27.4100  -29.7248   25.4418 H   0  0  0  0  0  0
  -27.8562  -30.4381   23.9074 H   0  0  0  0  0  0
  -27.2640  -33.3657   26.1987 H   0  0  0  0  0  0
  -28.3830  -32.6874   25.0270 H   0  0  0  0  0  0
  -28.0688  -31.8487   26.5405 H   0  0  0  0  0  0
  -28.2552  -38.0143   24.7593 H   0  0  0  0  0  0
  -28.1125  -36.2694   24.6162 H   0  0  0  0  0  0
  -27.2323  -37.1344   25.8849 H   0  0  0  0  0  0
  -20.9255  -29.8867   21.7026 H   0  0  0  0  0  0
  -26.0160  -38.2911   24.1535 H   0  0  0  0  0  0
  -31.5992  -16.7455   26.6211 H   0  0  0  0  0  0
  -33.2033  -17.2754   27.0739 H   0  0  0  0  0  0
  -32.7096  -19.5837   26.4527 H   0  0  0  0  0  0
  -31.5354  -19.0275   27.6172 H   0  0  0  0  0  0
  -26.6167  -22.5084   16.6141 H   0  0  0  0  0  0
  -28.3372  -22.7709   16.5898 H   0  0  0  0  0  0
  -29.3345  -24.8836   15.7559 H   0  0  0  0  0  0
  -28.3272  -26.2457   15.3288 H   0  0  0  0  0  0
  -27.4951  -22.8645   18.8831 H   0  0  0  0  0  0
  -26.3389  -24.0949   18.4608 H   0  0  0  0  0  0
  -27.5976  -26.5743   17.5513 H   0  0  0  0  0  0
  -29.3319  -26.5537   17.5638 H   0  0  0  0  0  0
  -33.3343  -16.3397   24.8749 H   0  0  0  0  0  0
  -33.6267  -18.0465   24.7090 H   0  0  0  0  0  0
  -31.5476  -19.5113   23.6055 H   0  0  0  0  0  0
  -30.0059  -18.6650   23.7024 H   0  0  0  0  0  0
  -26.2895  -24.9758   16.0902 H   0  0  0  0  0  0
  -29.3450  -24.2260   18.3141 H   0  0  0  0  0  0
  -29.8485  -18.7154   25.9717 H   0  0  0  0  0  0
  -27.9372  -23.5118   13.9865 H   0  0  0  0  0  0
  -26.8926  -24.9066   13.7219 H   0  0  0  0  0  0
  -26.1893  -23.3786   14.2250 H   0  0  0  0  0  0
  -25.9012  -25.0613   21.1071 H   0  0  0  0  0  0
  -26.2906  -23.9683   22.3576 H   0  0  0  0  0  0
  -26.3188  -23.3951   20.7164 H   0  0  0  0  0  0
  -30.6904  -24.5218   20.0682 H   0  0  0  0  0  0
  -30.4645  -25.9130   21.1257 H   0  0  0  0  0  0
  -30.6176  -26.1277   19.4003 H   0  0  0  0  0  0
  -29.4670  -19.5590   20.2726 H   0  0  0  0  0  0
  -30.4113  -19.4963   21.7135 H   0  0  0  0  0  0
  -28.7637  -18.8399   21.7101 H   0  0  0  0  0  0
  -31.4474  -18.5816   19.2025 H   0  0  0  0  0  0
  -32.0362  -16.9782   19.5562 H   0  0  0  0  0  0
  -32.3072  -18.2831   20.7003 H   0  0  0  0  0  0
  -28.9442  -17.8028   18.9348 H   0  0  0  0  0  0
  -28.3026  -16.7022   20.1368 H   0  0  0  0  0  0
  -29.6141  -16.2120   19.0633 H   0  0  0  0  0  0
  -31.4030  -21.3021   25.4717 H   0  0  0  0  0  0
  -30.2811  -21.0020   26.7487 H   0  0  0  0  0  0
  -28.7403  -21.9789   25.5066 H   0  0  0  0  0  0
  -28.6351  -20.5172   24.5743 H   0  0  0  0  0  0
  -30.2401  -21.4615   22.9045 H   0  0  0  0  0  0
  -30.5497  -22.8378   23.9424 H   0  0  0  0  0  0
  -28.3232  -23.6961   23.6996 H   0  0  0  0  0  0
  -27.7474  -22.2424   22.9065 H   0  0  0  0  0  0
  -29.5217  -16.7903   22.5949 H   0  0  0  0  0  0
  -28.2045  -25.3594   22.0730 H   0  0  0  0  0  0
  -29.3271  -14.7546   22.0654 H   0  0  0  0  0  0
  -28.9284  -22.7570   20.9914 H   0  0  0  0  0  0
  -29.8801  -23.8416   21.7413 H   0  0  0  0  0  0
  1 25  1  0  0  0
  1 30  2  0  0  0
  1 98  1  0  0  0
  2  3  1  0  0  0
  2 25  1  0  0  0
  2101  1  0  0  0
  2102  1  0  0  0
  3  4  1  0  0  0
  3103  1  0  0  0
  3104  1  0  0  0
  4  5  1  0  0  0
  4105  1  0  0  0
  4106  1  0  0  0
  5  6  1  0  0  0
  5 26  1  0  0  0
  5107  1  0  0  0
  6 25  1  0  0  0
  6108  1  0  0  0
  6109  1  0  0  0
  7  8  2  0  0  0
  7 26  1  0  0  0
  7 29  1  0  0  0
  8  9  1  0  0  0
  8 22  1  0  0  0
  9 10  1  0  0  0
  9 27  2  0  0  0
 10 11  2  0  0  0
 10 15  1  0  0  0
 11 12  1  0  0  0
 11110  1  0  0  0
 12 13  2  0  0  0
 12111  1  0  0  0
 13 14  1  0  0  0
 13 31  1  0  0  0
 14 15  2  0  0  0
 14112  1  0  0  0
 15113  1  0  0  0
 16 17  2  0  0  0
 16 21  1  0  0  0
 16 31  1  0  0  0
 17 18  1  0  0  0
 17114  1  0  0  0
 18 19  2  0  0  0
 18115  1  0  0  0
 19 20  1  0  0  0
 19 24  1  0  0  0
 20 21  2  0  0  0
 20116  1  0  0  0
 21 23  1  0  0  0
 22 28  1  0  0  0
 22 32  2  0  0  0
 26 27  1  0  0  0
 28117  1  0  0  0
 28118  1  0  0  0
 29119  1  0  0  0
 29120  1  0  0  0
 33 34  1  0  0  0
 33 66  1  0  0  0
 33 70  2  0  0  0
 34 36  1  0  0  0
 34 59  1  0  0  0
 34121  1  0  0  0
 35 44  2  0  0  0
 35 45  1  0  0  0
 35 68  1  0  0  0
 36 56  1  0  0  0
 36122  1  0  0  0
 37 39  1  0  0  0
 37 47  1  0  0  0
 37 66  1  0  0  0
 37123  1  0  0  0
 38 43  2  0  0  0
 38 46  1  0  0  0
 38 47  1  0  0  0
 39 64  1  0  0  0
 39 67  2  0  0  0
 40 52  1  0  0  0
 40 53  2  0  0  0
 40 58  1  0  0  0
 41124  1  0  0  0
 41125  1  0  0  0
 41126  1  0  0  0
 41 48  1  0  0  0
 42 43  1  0  0  0
 42 66  1  0  0  0
 42127  1  0  0  0
 42128  1  0  0  0
 43 44  1  0  0  0
 44129  1  0  0  0
 45 46  2  0  0  0
 45130  1  0  0  0
 46131  1  0  0  0
 47132  1  0  0  0
 47133  1  0  0  0
 48 56  1  0  0  0
 48 65  1  0  0  0
 48134  1  0  0  0
 49 50  1  0  0  0
 49 53  1  0  0  0
 49 64  1  0  0  0
 49135  1  0  0  0
 50 51  1  0  0  0
 50136  1  0  0  0
 50137  1  0  0  0
 51 52  1  0  0  0
 51138  1  0  0  0
 51139  1  0  0  0
 52140  1  0  0  0
 52141  1  0  0  0
 53 54  1  0  0  0
 54 55  2  0  0  0
 54142  1  0  0  0
 55 57  1  0  0  0
 55143  1  0  0  0
 56 69  2  0  0  0
 57 58  2  0  0  0
 57144  1  0  0  0
 58145  1  0  0  0
 59 60  1  0  0  0
 59 61  1  0  0  0
 59 62  1  0  0  0
 60146  1  0  0  0
 60147  1  0  0  0
 60148  1  0  0  0
 61149  1  0  0  0
 61150  1  0  0  0
 61151  1  0  0  0
 62152  1  0  0  0
 62153  1  0  0  0
 62154  1  0  0  0
 63 65  1  0  0  0
 63155  1  0  0  0
 63156  1  0  0  0
 63157  1  0  0  0
 64158  1  0  0  0
 65159  1  0  0  0
 68 95  1  0  0  0
 71 93  1  0  0  0
 71 97  1  0  0  0
 71100  2  0  0  0
 72 73  1  0  0  0
 72 78  1  0  0  0
 72160  1  0  0  0
 72161  1  0  0  0
 73 82  1  0  0  0
 73162  1  0  0  0
 73163  1  0  0  0
 74 76  1  0  0  0
 74 80  1  0  0  0
 74164  1  0  0  0
 74165  1  0  0  0
 75 77  1  0  0  0
 75 80  1  0  0  0
 75166  1  0  0  0
 75167  1  0  0  0
 76168  1  0  0  0
 76169  1  0  0  0
 76 81  1  0  0  0
 77 81  1  0  0  0
 77170  1  0  0  0
 77171  1  0  0  0
 78 97  1  0  0  0
 78172  1  0  0  0
 78173  1  0  0  0
 79 82  1  0  0  0
 79 97  1  0  0  0
 79174  1  0  0  0
 79175  1  0  0  0
 80 83  1  0  0  0
 80176  1  0  0  0
 81 95  1  0  0  0
 81177  1  0  0  0
 82 89  1  0  0  0
 82178  1  0  0  0
 83179  1  0  0  0
 83180  1  0  0  0
 83181  1  0  0  0
 84182  1  0  0  0
 84183  1  0  0  0
 84184  1  0  0  0
 84 94  1  0  0  0
 85185  1  0  0  0
 85186  1  0  0  0
 85187  1  0  0  0
 85 95  1  0  0  0
 86188  1  0  0  0
 86189  1  0  0  0
 86190  1  0  0  0
 86 96  1  0  0  0
 87 96  1  0  0  0
 87191  1  0  0  0
 87192  1  0  0  0
 87193  1  0  0  0
 88 96  1  0  0  0
 88194  1  0  0  0
 88195  1  0  0  0
 88196  1  0  0  0
 89 90  1  0  0  0
 89197  1  0  0  0
 89198  1  0  0  0
 90 91  1  0  0  0
 90199  1  0  0  0
 90200  1  0  0  0
 91 92  1  0  0  0
 91201  1  0  0  0
 91202  1  0  0  0
 92 99  1  0  0  0
 92203  1  0  0  0
 92204  1  0  0  0
 93 96  1  0  0  0
 93 98  1  0  0  0
 93205  1  0  0  0
 94 95  1  0  0  0
 94 99  1  0  0  0
 94206  1  0  0  0
 98207  1  0  0  0
 99208  1  0  0  0
 99209  1  0  0  0
M  CHG  1  99   1
M  ISO  4   1 100  68 101  95 101  98 100
M  END
> <chiral flag>
0

> <version>
0

> <s_m_source_file>
/data/baiqing/PycharmProjects/Reinvent-master-3.2/result/LINK_invent/BTK/process_docking_weight1_custom_sum_contain_oxygen_bond_distance_aromatic_linkinvent_7_9_3/rearranged_h_0023.sdf

> <i_m_source_file_index>
71

> <r_mmod_Potential_Energy-OPLS-2005>
85.2199172973633

> <r_mmod_Stretch_Energy-OPLS-2005>
59.3699417114258

> <r_mmod_Bend_Energy-OPLS-2005>
230.20654296875

> <r_mmod_Torsional_Energy-OPLS-2005>
343.766754150391

> <r_mmod_Improper_Torsional_Energy-OPLS-2005>
2.87309002876282

> <r_mmod_Van_der_Waal_Energy-OPLS-2005>
181.050689697266

> <r_mmod_Electrostatic_Energy-OPLS-2005>
-288.235443115234

> <r_mmod_Solvation_Energy-OPLS-2005>
-453.701202392578

> <b_mmod_Minimization_Converged-OPLS-2005>
0

> <r_mmod_RMS_Derivative-OPLS-2005>
4.35697937011719

$$$$
71
                    3D
 Structure written by MMmdl.
174182  0  0  1  0            999 V2000
  -30.7705  -14.3816   20.6460 C   0  0  0  0  0  0
  -30.4108  -12.2842   19.4039 C   0  0  0  0  0  0
  -29.4836  -12.5144   18.1963 C   0  0  0  0  0  0
  -28.0079  -12.3746   18.6132 C   0  0  0  0  0  0
  -27.6642  -13.2061   19.8776 C   0  0  2  0  0  0
  -28.7040  -12.9688   20.9959 C   0  0  0  0  0  0
  -25.2596  -13.8160   20.5681 C   0  0  0  0  0  0
  -24.1842  -13.0444   20.9166 C   0  0  0  0  0  0
  -24.6392  -11.6905   20.8729 C   0  0  0  0  0  0
  -23.9056  -10.4297   21.0399 C   0  0  0  0  0  0
  -24.3610   -9.4213   21.9181 C   0  0  0  0  0  0
  -23.6287   -8.2245   22.0754 C   0  0  0  0  0  0
  -22.4273   -8.0280   21.3541 C   0  0  0  0  0  0
  -21.9904   -9.0252   20.4644 C   0  0  0  0  0  0
  -22.7228  -10.2134   20.3051 C   0  0  0  0  0  0
  -21.6852   -6.0735   22.5279 C   0  0  0  0  0  0
  -21.4015   -6.5641   23.8211 C   0  0  0  0  0  0
  -21.3659   -5.6792   24.9176 C   0  0  0  0  0  0
  -21.6043   -4.3054   24.7224 C   0  0  0  0  0  0
  -21.8820   -3.8148   23.4346 C   0  0  0  0  0  0
  -21.9194   -4.6964   22.3403 C   0  0  0  0  0  0
  -22.7867  -13.5244   21.1836 C   0  0  0  0  0  0
  -22.1662   -4.2149   21.0980 F   0  0  0  0  0  0
  -21.5628   -3.4540   25.7738 F   0  0  0  0  0  0
  -30.0442  -13.2509   20.4503 N   0  0  0  0  0  0
  -26.3036  -12.9334   20.3384 N   0  0  0  0  0  0
  -25.9320  -11.6492   20.5766 N   0  0  0  0  0  0
  -22.0505  -12.8236   22.0387 N   0  0  0  0  0  0
  -25.4325  -15.1879   20.4096 N   0  0  0  0  0  0
  -31.8279  -14.6134   20.0535 O   0  0  0  0  0  0
  -21.6640   -6.8881   21.4240 O   0  0  0  0  0  0
  -22.3555  -14.5556   20.6694 O   0  0  0  0  0  0
  -24.6150  -31.8698   23.2140 C   0  0  0  0  0  0
  -25.9057  -32.4824   23.8413 C   0  0  1  0  0  0
  -27.2223  -27.4484   20.0809 C   0  0  0  0  0  0
  -25.5929  -33.8621   24.2361 N   0  0  0  0  0  0
  -23.3988  -30.4990   21.5553 C   0  0  2  0  0  0
  -24.8397  -28.9750   20.1112 C   0  0  0  0  0  0
  -22.7396  -29.4686   22.5009 C   0  0  0  0  0  0
  -18.0265  -28.1350   22.8489 C   0  0  0  0  0  0
  -24.1485  -36.7304   23.2639 C   0  0  0  0  0  0
  -25.9306  -30.8383   21.3687 C   0  0  0  0  0  0
  -26.0031  -29.4801   20.7046 C   0  0  0  0  0  0
  -27.1974  -28.7250   20.6858 C   0  0  0  0  0  0
  -26.0379  -26.9649   19.4733 C   0  0  0  0  0  0
  -24.8519  -27.7159   19.4941 C   0  0  0  0  0  0
  -23.6016  -29.8379   20.1678 C   0  0  0  0  0  0
  -25.4103  -36.3116   24.0355 C   0  0  1  0  0  0
  -20.5857  -28.3652   23.1312 C   0  0  2  0  0  0
  -20.6775  -26.9392   22.5403 C   0  0  0  0  0  0
  -19.5756  -26.6374   21.5200 C   0  0  0  0  0  0
  -18.1926  -26.7899   22.1603 C   0  0  0  0  0  0
  -19.1511  -28.8814   23.2896 C   0  0  0  0  0  0
  -18.9447  -30.1416   23.8907 C   0  0  0  0  0  0
  -17.6457  -30.6569   24.0552 C   0  0  0  0  0  0
  -25.9042  -34.9477   23.5154 C   0  0  0  0  0  0
  -16.5345  -29.9073   23.6319 C   0  0  0  0  0  0
  -16.7252  -28.6474   23.0359 C   0  0  0  0  0  0
  -26.4483  -31.6585   25.0727 C   0  0  0  0  0  0
  -25.3756  -31.3692   26.1484 C   0  0  0  0  0  0
  -27.0341  -30.3034   24.6114 C   0  0  0  0  0  0
  -27.6057  -32.4308   25.7481 C   0  0  0  0  0  0
  -27.5581  -37.1810   24.8467 C   0  0  0  0  0  0
  -21.4126  -29.3036   22.3732 N   0  0  0  0  0  0
  -26.4295  -37.3799   23.9407 N   0  0  0  0  0  0
  -24.6663  -31.0824   22.1031 N   0  0  0  0  0  0
  -23.4178  -28.8229   23.3044 O   0  0  0  0  0  0
  -28.3862  -26.7042   20.1292 O   0  0  0  0  0  0
  -26.5578  -34.8926   22.4699 O   0  0  0  0  0  0
  -23.5353  -32.1443   23.7554 O   0  0  0  0  0  0
  -27.3887  -22.1976   21.8434 C   0  0  0  0  0  0
  -28.5057  -21.4357   21.3648 C   0  0  0  0  0  0
  -27.1286  -21.6791   23.1089 C   0  0  0  0  0  0
  -28.7862  -20.4369   22.2476 C   0  0  0  0  0  0
  -26.1415  -22.1068   24.1652 C   0  0  0  0  0  0
  -26.8568  -18.6883   24.4972 C   0  0  0  0  0  0
  -26.3958  -22.9533   19.6276 C   0  0  0  0  0  0
  -25.2621  -23.6239   21.6606 C   0  0  0  0  0  0
  -30.9063  -17.6214   20.9110 C   0  0  0  0  0  0
  -27.5097  -24.6751   21.2647 C   0  0  0  0  0  0
  -27.9919  -19.7205   24.5282 C   0  0  0  0  0  0
  -29.6682  -18.5254   20.9989 C   0  0  0  0  0  0
  -30.9561  -16.4835   21.9587 C   0  0  0  0  0  0
  -28.2654  -25.2739   20.0399 C   0  0  0  0  0  0
  -26.6808  -23.3543   21.0990 C   0  0  0  0  0  0
  -27.9701  -20.5828   23.3467 N   0  0  0  0  0  0
  -29.7638  -19.4475   22.1241 N   0  0  0  0  0  0
  -30.2736  -15.2581   21.5295 N   0  0  0  0  0  0
  -29.4186  -21.7396   19.9237 Cl  0  0  0  0  0  0
  -31.4558  -12.3675   19.0996 H   0  0  0  0  0  0
  -30.2967  -11.2680   19.7845 H   0  0  0  0  0  0
  -29.7158  -11.8034   17.4021 H   0  0  0  0  0  0
  -29.6573  -13.5081   17.7800 H   0  0  0  0  0  0
  -27.8148  -11.3176   18.8009 H   0  0  0  0  0  0
  -27.3549  -12.6593   17.7874 H   0  0  0  0  0  0
  -27.7168  -14.2574   19.5932 H   0  0  0  0  0  0
  -28.6660  -11.9319   21.3328 H   0  0  0  0  0  0
  -28.4600  -13.5659   21.8747 H   0  0  0  0  0  0
  -25.2757   -9.5692   22.4753 H   0  0  0  0  0  0
  -24.0000   -7.4640   22.7473 H   0  0  0  0  0  0
  -21.0837   -8.8767   19.8948 H   0  0  0  0  0  0
  -22.3686  -10.9670   19.6159 H   0  0  0  0  0  0
  -21.2007   -7.6148   23.9715 H   0  0  0  0  0  0
  -21.1479   -6.0523   25.9077 H   0  0  0  0  0  0
  -22.0600   -2.7609   23.2846 H   0  0  0  0  0  0
  -22.4113  -11.9889   22.4766 H   0  0  0  0  0  0
  -21.1119  -13.1264   22.2593 H   0  0  0  0  0  0
  -24.6703  -15.8471   20.5230 H   0  0  0  0  0  0
  -26.2949  -15.6256   20.1089 H   0  0  0  0  0  0
  -26.7118  -32.5526   23.1166 H   0  0  0  0  0  0
  -25.0150  -33.9776   25.0554 H   0  0  0  0  0  0
  -22.6871  -31.3165   21.4228 H   0  0  0  0  0  0
  -23.3768  -35.9622   23.3315 H   0  0  0  0  0  0
  -24.3580  -36.8890   22.2051 H   0  0  0  0  0  0
  -23.7220  -37.6511   23.6629 H   0  0  0  0  0  0
  -26.0585  -31.6139   20.6122 H   0  0  0  0  0  0
  -26.8125  -30.8723   21.9967 H   0  0  0  0  0  0
  -28.0937  -29.1092   21.1533 H   0  0  0  0  0  0
  -25.9940  -26.0073   18.9803 H   0  0  0  0  0  0
  -23.9578  -27.3222   19.0308 H   0  0  0  0  0  0
  -23.7038  -30.6152   19.4103 H   0  0  0  0  0  0
  -22.7244  -29.2579   19.8742 H   0  0  0  0  0  0
  -25.1280  -36.2000   25.0856 H   0  0  0  0  0  0
  -20.9936  -28.3221   24.1441 H   0  0  0  0  0  0
  -20.5698  -26.2258   23.3590 H   0  0  0  0  0  0
  -21.6652  -26.7459   22.1192 H   0  0  0  0  0  0
  -19.6938  -25.6296   21.1207 H   0  0  0  0  0  0
  -19.6696  -27.3210   20.6754 H   0  0  0  0  0  0
  -17.4209  -26.6649   21.3993 H   0  0  0  0  0  0
  -18.0316  -26.0019   22.8973 H   0  0  0  0  0  0
  -19.7935  -30.7205   24.2302 H   0  0  0  0  0  0
  -17.5026  -31.6257   24.5145 H   0  0  0  0  0  0
  -15.5348  -30.2987   23.7647 H   0  0  0  0  0  0
  -15.8640  -28.0795   22.7100 H   0  0  0  0  0  0
  -24.5921  -30.7038   25.7827 H   0  0  0  0  0  0
  -24.8958  -32.2855   26.4944 H   0  0  0  0  0  0
  -25.8120  -30.8852   27.0233 H   0  0  0  0  0  0
  -26.2916  -29.6772   24.1157 H   0  0  0  0  0  0
  -27.4113  -29.7281   25.4578 H   0  0  0  0  0  0
  -27.8737  -30.4366   23.9290 H   0  0  0  0  0  0
  -27.2680  -33.3603   26.2077 H   0  0  0  0  0  0
  -28.3851  -32.6871   25.0293 H   0  0  0  0  0  0
  -28.0741  -31.8420   26.5375 H   0  0  0  0  0  0
  -28.2623  -38.0091   24.7529 H   0  0  0  0  0  0
  -28.1062  -36.2627   24.6293 H   0  0  0  0  0  0
  -27.2292  -37.1458   25.8870 H   0  0  0  0  0  0
  -20.9287  -29.8747   21.6943 H   0  0  0  0  0  0
  -26.0201  -38.2891   24.1390 H   0  0  0  0  0  0
  -25.1163  -21.9433   23.8358 H   0  0  0  0  0  0
  -26.2678  -23.1617   24.4081 H   0  0  0  0  0  0
  -26.2427  -21.5737   25.1068 H   0  0  0  0  0  0
  -26.8985  -18.0425   25.3743 H   0  0  0  0  0  0
  -26.9321  -18.0535   23.6136 H   0  0  0  0  0  0
  -25.8777  -19.1678   24.4813 H   0  0  0  0  0  0
  -25.8462  -22.0125   19.5814 H   0  0  0  0  0  0
  -27.2844  -22.8266   19.0176 H   0  0  0  0  0  0
  -25.7850  -23.6962   19.1151 H   0  0  0  0  0  0
  -24.6542  -22.7180   21.6743 H   0  0  0  0  0  0
  -24.7275  -24.3539   21.0502 H   0  0  0  0  0  0
  -25.2755  -24.0480   22.6620 H   0  0  0  0  0  0
  -31.7987  -18.2418   21.0103 H   0  0  0  0  0  0
  -30.9694  -17.2038   19.9053 H   0  0  0  0  0  0
  -26.8378  -25.4407   21.6482 H   0  0  0  0  0  0
  -28.2215  -24.5611   22.0832 H   0  0  0  0  0  0
  -28.9477  -19.2009   24.5840 H   0  0  0  0  0  0
  -27.9560  -20.3291   25.4306 H   0  0  0  0  0  0
  -28.7628  -17.9218   21.0858 H   0  0  0  0  0  0
  -29.5774  -19.0846   20.0683 H   0  0  0  0  0  0
  -30.5357  -16.8156   22.9084 H   0  0  0  0  0  0
  -31.9998  -16.2412   22.1697 H   0  0  0  0  0  0
  -29.2703  -24.8526   20.0111 H   0  0  0  0  0  0
  -27.8331  -25.0121   19.0775 H   0  0  0  0  0  0
  -29.9381  -18.9654   22.9976 H   0  0  0  0  0  0
  -29.4027  -15.0179   21.9799 H   0  0  0  0  0  0
  1 25  1  0  0  0
  1 30  2  0  0  0
  1 88  1  0  0  0
  2  3  1  0  0  0
  2 25  1  0  0  0
  2 90  1  0  0  0
  2 91  1  0  0  0
  3  4  1  0  0  0
  3 92  1  0  0  0
  3 93  1  0  0  0
  4  5  1  0  0  0
  4 94  1  0  0  0
  4 95  1  0  0  0
  5  6  1  0  0  0
  5 26  1  0  0  0
  5 96  1  0  0  0
  6 25  1  0  0  0
  6 97  1  0  0  0
  6 98  1  0  0  0
  7  8  2  0  0  0
  7 26  1  0  0  0
  7 29  1  0  0  0
  8  9  1  0  0  0
  8 22  1  0  0  0
  9 10  1  0  0  0
  9 27  2  0  0  0
 10 11  2  0  0  0
 10 15  1  0  0  0
 11 12  1  0  0  0
 11 99  1  0  0  0
 12 13  2  0  0  0
 12100  1  0  0  0
 13 14  1  0  0  0
 13 31  1  0  0  0
 14 15  2  0  0  0
 14101  1  0  0  0
 15102  1  0  0  0
 16 17  2  0  0  0
 16 21  1  0  0  0
 16 31  1  0  0  0
 17 18  1  0  0  0
 17103  1  0  0  0
 18 19  2  0  0  0
 18104  1  0  0  0
 19 20  1  0  0  0
 19 24  1  0  0  0
 20 21  2  0  0  0
 20105  1  0  0  0
 21 23  1  0  0  0
 22 28  1  0  0  0
 22 32  2  0  0  0
 26 27  1  0  0  0
 28106  1  0  0  0
 28107  1  0  0  0
 29108  1  0  0  0
 29109  1  0  0  0
 33 34  1  0  0  0
 33 66  1  0  0  0
 33 70  2  0  0  0
 34 36  1  0  0  0
 34 59  1  0  0  0
 34110  1  0  0  0
 35 44  2  0  0  0
 35 45  1  0  0  0
 35 68  1  0  0  0
 36 56  1  0  0  0
 36111  1  0  0  0
 37 39  1  0  0  0
 37 47  1  0  0  0
 37 66  1  0  0  0
 37112  1  0  0  0
 38 43  2  0  0  0
 38 46  1  0  0  0
 38 47  1  0  0  0
 39 64  1  0  0  0
 39 67  2  0  0  0
 40 52  1  0  0  0
 40 53  2  0  0  0
 40 58  1  0  0  0
 41113  1  0  0  0
 41114  1  0  0  0
 41115  1  0  0  0
 41 48  1  0  0  0
 42 43  1  0  0  0
 42 66  1  0  0  0
 42116  1  0  0  0
 42117  1  0  0  0
 43 44  1  0  0  0
 44118  1  0  0  0
 45 46  2  0  0  0
 45119  1  0  0  0
 46120  1  0  0  0
 47121  1  0  0  0
 47122  1  0  0  0
 48 56  1  0  0  0
 48 65  1  0  0  0
 48123  1  0  0  0
 49 50  1  0  0  0
 49 53  1  0  0  0
 49 64  1  0  0  0
 49124  1  0  0  0
 50 51  1  0  0  0
 50125  1  0  0  0
 50126  1  0  0  0
 51 52  1  0  0  0
 51127  1  0  0  0
 51128  1  0  0  0
 52129  1  0  0  0
 52130  1  0  0  0
 53 54  1  0  0  0
 54 55  2  0  0  0
 54131  1  0  0  0
 55 57  1  0  0  0
 55132  1  0  0  0
 56 69  2  0  0  0
 57 58  2  0  0  0
 57133  1  0  0  0
 58134  1  0  0  0
 59 60  1  0  0  0
 59 61  1  0  0  0
 59 62  1  0  0  0
 60135  1  0  0  0
 60136  1  0  0  0
 60137  1  0  0  0
 61138  1  0  0  0
 61139  1  0  0  0
 61140  1  0  0  0
 62141  1  0  0  0
 62142  1  0  0  0
 62143  1  0  0  0
 63 65  1  0  0  0
 63144  1  0  0  0
 63145  1  0  0  0
 63146  1  0  0  0
 64147  1  0  0  0
 65148  1  0  0  0
 68 84  1  0  0  0
 71 72  1  0  0  0
 71 73  2  0  0  0
 71 85  1  0  0  0
 72 74  2  0  0  0
 72 89  1  0  0  0
 73 75  1  0  0  0
 73 86  1  0  0  0
 74 86  1  0  0  0
 74 87  1  0  0  0
 75149  1  0  0  0
 75150  1  0  0  0
 75151  1  0  0  0
 76 81  1  0  0  0
 76152  1  0  0  0
 76153  1  0  0  0
 76154  1  0  0  0
 77155  1  0  0  0
 77156  1  0  0  0
 77157  1  0  0  0
 77 85  1  0  0  0
 78 85  1  0  0  0
 78158  1  0  0  0
 78159  1  0  0  0
 78160  1  0  0  0
 79 82  1  0  0  0
 79 83  1  0  0  0
 79161  1  0  0  0
 79162  1  0  0  0
 80 84  1  0  0  0
 80 85  1  0  0  0
 80163  1  0  0  0
 80164  1  0  0  0
 81 86  1  0  0  0
 81165  1  0  0  0
 81166  1  0  0  0
 82 87  1  0  0  0
 82167  1  0  0  0
 82168  1  0  0  0
 83 88  1  0  0  0
 83169  1  0  0  0
 83170  1  0  0  0
 84171  1  0  0  0
 84172  1  0  0  0
 87173  1  0  0  0
 88174  1  0  0  0
M  ISO  4   1 100  68 101  84 101  88 100
M  END
> <chiral flag>
0

> <version>
0

> <s_m_source_file>
/data/baiqing/PycharmProjects/Reinvent-master-3.2/result/LINK_invent/BTK/process_docking_weight1_custom_sum_contain_oxygen_bond_distance_aromatic_linkinvent_7_9_3/rearranged_h_0023.sdf

> <i_m_source_file_index>
72

> <r_mmod_Potential_Energy-OPLS-2005>
22.5995826721191

> <r_mmod_Stretch_Energy-OPLS-2005>
41.4525489807129

> <r_mmod_Bend_Energy-OPLS-2005>
124.96752166748

> <r_mmod_Torsional_Energy-OPLS-2005>
257.903991699219

> <r_mmod_Improper_Torsional_Energy-OPLS-2005>
6.32895374298096

> <r_mmod_Van_der_Waal_Energy-OPLS-2005>
153.530532836914

> <r_mmod_Electrostatic_Energy-OPLS-2005>
-359.152770996094

> <r_mmod_Solvation_Energy-OPLS-2005>
-212.277725219727

> <b_mmod_Minimization_Converged-OPLS-2005>
0

> <r_mmod_RMS_Derivative-OPLS-2005>
1.23072397708893

$$$$
72
                    3D
 Structure written by MMmdl.
167175  0  0  1  0            999 V2000
  -30.7065  -14.4515   20.5219 C   0  0  0  0  0  0
  -30.4154  -12.2796   19.4304 C   0  0  0  0  0  0
  -29.4926  -12.5052   18.2144 C   0  0  0  0  0  0
  -28.0129  -12.3665   18.6240 C   0  0  0  0  0  0
  -27.6617  -13.2057   19.8814 C   0  0  2  0  0  0
  -28.7061  -12.9973   21.0052 C   0  0  0  0  0  0
  -25.2587  -13.8141   20.5686 C   0  0  0  0  0  0
  -24.1841  -13.0418   20.9182 C   0  0  0  0  0  0
  -24.6402  -11.6885   20.8751 C   0  0  0  0  0  0
  -23.9054  -10.4274   21.0420 C   0  0  0  0  0  0
  -24.3595   -9.4193   21.9200 C   0  0  0  0  0  0
  -23.6280   -8.2226   22.0759 C   0  0  0  0  0  0
  -22.4267   -8.0262   21.3549 C   0  0  0  0  0  0
  -21.9902   -9.0232   20.4658 C   0  0  0  0  0  0
  -22.7220  -10.2116   20.3084 C   0  0  0  0  0  0
  -21.6846   -6.0720   22.5275 C   0  0  0  0  0  0
  -21.3992   -6.5625   23.8200 C   0  0  0  0  0  0
  -21.3679   -5.6791   24.9171 C   0  0  0  0  0  0
  -21.6060   -4.3052   24.7232 C   0  0  0  0  0  0
  -21.8813   -3.8141   23.4352 C   0  0  0  0  0  0
  -21.9183   -4.6951   22.3404 C   0  0  0  0  0  0
  -22.7870  -13.5215   21.1863 C   0  0  0  0  0  0
  -22.1662   -4.2136   21.0987 F   0  0  0  0  0  0
  -21.5655   -3.4545   25.7751 F   0  0  0  0  0  0
  -30.0417  -13.2701   20.4490 N   0  0  0  0  0  0
  -26.3035  -12.9313   20.3415 N   0  0  0  0  0  0
  -25.9332  -11.6473   20.5802 N   0  0  0  0  0  0
  -22.0525  -12.8198   22.0423 N   0  0  0  0  0  0
  -25.4303  -15.1849   20.4051 N   0  0  0  0  0  0
  -31.8533  -14.6135   20.0983 O   0  0  0  0  0  0
  -21.6637   -6.8858   21.4237 O   0  0  0  0  0  0
  -22.3557  -14.5533   20.6738 O   0  0  0  0  0  0
  -24.6138  -31.8678   23.2110 C   0  0  0  0  0  0
  -25.9038  -32.4824   23.8389 C   0  0  1  0  0  0
  -27.2468  -27.4624   20.0724 C   0  0  0  0  0  0
  -25.5902  -33.8623   24.2307 N   0  0  0  0  0  0
  -23.3999  -30.4905   21.5517 C   0  0  2  0  0  0
  -24.8456  -28.9589   20.1149 C   0  0  0  0  0  0
  -22.7379  -29.4659   22.4994 C   0  0  0  0  0  0
  -18.0264  -28.1377   22.8512 C   0  0  0  0  0  0
  -24.1493  -36.7323   23.2639 C   0  0  0  0  0  0
  -25.9235  -30.8377   21.3618 C   0  0  0  0  0  0
  -26.0012  -29.4727   20.7140 C   0  0  0  0  0  0
  -27.1975  -28.7244   20.7024 C   0  0  0  0  0  0
  -26.0668  -26.9509   19.4800 C   0  0  0  0  0  0
  -24.8724  -27.6949   19.5004 C   0  0  0  0  0  0
  -23.6054  -29.8215   20.1667 C   0  0  0  0  0  0
  -25.4106  -36.3087   24.0330 C   0  0  1  0  0  0
  -20.5858  -28.3653   23.1330 C   0  0  2  0  0  0
  -20.6748  -26.9393   22.5415 C   0  0  0  0  0  0
  -19.5726  -26.6385   21.5208 C   0  0  0  0  0  0
  -18.1914  -26.7928   22.1622 C   0  0  0  0  0  0
  -19.1520  -28.8823   23.2931 C   0  0  0  0  0  0
  -18.9434  -30.1435   23.8932 C   0  0  0  0  0  0
  -17.6443  -30.6586   24.0565 C   0  0  0  0  0  0
  -25.9035  -34.9470   23.5106 C   0  0  0  0  0  0
  -16.5334  -29.9085   23.6336 C   0  0  0  0  0  0
  -16.7257  -28.6501   23.0360 C   0  0  0  0  0  0
  -26.4481  -31.6613   25.0718 C   0  0  0  0  0  0
  -25.3764  -31.3729   26.1475 C   0  0  0  0  0  0
  -27.0313  -30.3051   24.6107 C   0  0  0  0  0  0
  -27.6034  -32.4360   25.7492 C   0  0  0  0  0  0
  -27.5576  -37.1808   24.8463 C   0  0  0  0  0  0
  -21.4108  -29.3036   22.3735 N   0  0  0  0  0  0
  -26.4283  -37.3772   23.9418 N   0  0  0  0  0  0
  -24.6641  -31.0789   22.1021 N   0  0  0  0  0  0
  -23.4165  -28.8188   23.3019 O   0  0  0  0  0  0
  -28.4461  -26.7858   20.0863 O   0  0  0  0  0  0
  -26.5590  -34.8924   22.4661 O   0  0  0  0  0  0
  -23.5329  -32.1420   23.7524 O   0  0  0  0  0  0
  -29.1694  -22.4587   19.5858 C   0  0  0  0  0  0
  -28.7224  -21.1357   19.7636 C   0  0  0  0  0  0
  -29.3514  -20.0720   19.0679 C   0  0  0  0  0  0
  -30.5107  -20.3594   18.2921 C   0  0  0  0  0  0
  -30.2321  -22.7863   18.7145 C   0  0  0  0  0  0
  -30.9514  -21.7027   18.1264 C   0  0  0  0  0  0
  -27.5171  -20.9137   20.6672 C   0  0  0  0  0  0
  -31.2813  -19.2523   17.5775 C   0  0  0  0  0  0
  -30.8031  -24.5536   17.0691 C   0  0  0  0  0  0
  -28.6863  -18.6864   19.0524 C   0  0  0  0  0  0
  -28.9310  -17.7473   20.2616 C   0  0  0  0  0  0
  -30.1380  -16.7987   20.1184 C   0  0  0  0  0  0
  -30.1048  -25.2077   19.3793 C   0  0  0  0  0  0
  -28.6982  -25.7918   19.0990 C   0  0  0  0  0  0
  -29.9339  -15.5132   20.7956 N   0  0  0  0  0  0
  -30.5315  -24.1529   18.4517 N   0  0  0  0  0  0
  -32.3999  -21.9900   17.2068 Cl  0  0  0  0  0  0
  -31.4634  -12.3537   19.1323 H   0  0  0  0  0  0
  -30.2897  -11.2710   19.8269 H   0  0  0  0  0  0
  -29.7268  -11.7971   17.4191 H   0  0  0  0  0  0
  -29.6672  -13.5003   17.8012 H   0  0  0  0  0  0
  -27.8151  -11.3097   18.8113 H   0  0  0  0  0  0
  -27.3665  -12.6535   17.7935 H   0  0  0  0  0  0
  -27.7000  -14.2512   19.5765 H   0  0  0  0  0  0
  -28.6697  -11.9729   21.3776 H   0  0  0  0  0  0
  -28.4859  -13.6297   21.8660 H   0  0  0  0  0  0
  -25.2737   -9.5661   22.4776 H   0  0  0  0  0  0
  -23.9996   -7.4602   22.7461 H   0  0  0  0  0  0
  -21.0845   -8.8728   19.8946 H   0  0  0  0  0  0
  -22.3668  -10.9649   19.6200 H   0  0  0  0  0  0
  -21.1951   -7.6126   23.9684 H   0  0  0  0  0  0
  -21.1539   -6.0539   25.9070 H   0  0  0  0  0  0
  -22.0579   -2.7603   23.2860 H   0  0  0  0  0  0
  -22.4150  -11.9832   22.4768 H   0  0  0  0  0  0
  -21.1159  -13.1246   22.2662 H   0  0  0  0  0  0
  -24.6599  -15.8378   20.4899 H   0  0  0  0  0  0
  -26.2761  -15.6136   20.0544 H   0  0  0  0  0  0
  -26.7101  -32.5543   23.1143 H   0  0  0  0  0  0
  -25.0082  -33.9823   25.0465 H   0  0  0  0  0  0
  -22.6888  -31.3076   21.4118 H   0  0  0  0  0  0
  -23.3734  -35.9682   23.3310 H   0  0  0  0  0  0
  -24.3583  -36.8940   22.2053 H   0  0  0  0  0  0
  -23.7280  -37.6541   23.6655 H   0  0  0  0  0  0
  -26.0321  -31.5997   20.5888 H   0  0  0  0  0  0
  -26.8139  -30.8929   21.9765 H   0  0  0  0  0  0
  -28.0912  -29.1201   21.1636 H   0  0  0  0  0  0
  -26.0465  -25.9811   19.0066 H   0  0  0  0  0  0
  -23.9804  -27.2936   19.0391 H   0  0  0  0  0  0
  -23.7079  -30.5929   19.4029 H   0  0  0  0  0  0
  -22.7316  -29.2362   19.8752 H   0  0  0  0  0  0
  -25.1283  -36.1920   25.0818 H   0  0  0  0  0  0
  -20.9965  -28.3192   24.1445 H   0  0  0  0  0  0
  -20.5635  -26.2253   23.3596 H   0  0  0  0  0  0
  -21.6622  -26.7440   22.1212 H   0  0  0  0  0  0
  -19.6893  -25.6292   21.1242 H   0  0  0  0  0  0
  -19.6668  -27.3188   20.6731 H   0  0  0  0  0  0
  -17.4182  -26.6694   21.4024 H   0  0  0  0  0  0
  -18.0323  -26.0039   22.8979 H   0  0  0  0  0  0
  -19.7903  -30.7257   24.2316 H   0  0  0  0  0  0
  -17.4985  -31.6282   24.5139 H   0  0  0  0  0  0
  -15.5333  -30.2994   23.7646 H   0  0  0  0  0  0
  -15.8651  -28.0829   22.7076 H   0  0  0  0  0  0
  -24.5927  -30.7080   25.7817 H   0  0  0  0  0  0
  -24.8983  -32.2900   26.4923 H   0  0  0  0  0  0
  -25.8135  -30.8893   27.0221 H   0  0  0  0  0  0
  -26.2850  -29.6796   24.1189 H   0  0  0  0  0  0
  -27.4090  -29.7290   25.4563 H   0  0  0  0  0  0
  -27.8676  -30.4349   23.9239 H   0  0  0  0  0  0
  -27.2622  -33.3643   26.2088 H   0  0  0  0  0  0
  -28.3841  -32.6975   25.0340 H   0  0  0  0  0  0
  -28.0710  -31.8495   26.5408 H   0  0  0  0  0  0
  -28.2579  -38.0112   24.7490 H   0  0  0  0  0  0
  -28.1075  -36.2642   24.6282 H   0  0  0  0  0  0
  -27.2308  -37.1457   25.8868 H   0  0  0  0  0  0
  -20.9236  -29.8768   21.6987 H   0  0  0  0  0  0
  -26.0157  -38.2850   24.1388 H   0  0  0  0  0  0
  -28.6306  -23.2297   20.1093 H   0  0  0  0  0  0
  -27.2583  -21.8215   21.2126 H   0  0  0  0  0  0
  -27.7161  -20.1441   21.4115 H   0  0  0  0  0  0
  -26.6386  -20.6256   20.0901 H   0  0  0  0  0  0
  -31.0414  -19.2490   16.5141 H   0  0  0  0  0  0
  -31.0789  -18.2628   17.9676 H   0  0  0  0  0  0
  -32.3576  -19.3861   17.6865 H   0  0  0  0  0  0
  -31.8717  -24.7178   16.9227 H   0  0  0  0  0  0
  -30.3048  -25.4879   16.8088 H   0  0  0  0  0  0
  -30.4716  -23.8029   16.3492 H   0  0  0  0  0  0
  -28.8879  -18.1690   18.1157 H   0  0  0  0  0  0
  -27.6119  -18.8583   18.9866 H   0  0  0  0  0  0
  -28.0369  -17.1274   20.3388 H   0  0  0  0  0  0
  -28.9843  -18.2978   21.1991 H   0  0  0  0  0  0
  -31.0551  -17.2835   20.4553 H   0  0  0  0  0  0
  -30.2792  -16.5643   19.0630 H   0  0  0  0  0  0
  -30.1559  -24.8398   20.4049 H   0  0  0  0  0  0
  -30.8367  -26.0165   19.3341 H   0  0  0  0  0  0
  -27.9446  -25.0070   19.1256 H   0  0  0  0  0  0
  -28.6555  -26.2571   18.1143 H   0  0  0  0  0  0
  -29.0180  -15.3207   21.1732 H   0  0  0  0  0  0
  1 25  1  0  0  0
  1 30  2  0  0  0
  1 85  1  0  0  0
  2  3  1  0  0  0
  2 25  1  0  0  0
  2 88  1  0  0  0
  2 89  1  0  0  0
  3  4  1  0  0  0
  3 90  1  0  0  0
  3 91  1  0  0  0
  4  5  1  0  0  0
  4 92  1  0  0  0
  4 93  1  0  0  0
  5  6  1  0  0  0
  5 26  1  0  0  0
  5 94  1  0  0  0
  6 25  1  0  0  0
  6 95  1  0  0  0
  6 96  1  0  0  0
  7  8  2  0  0  0
  7 26  1  0  0  0
  7 29  1  0  0  0
  8  9  1  0  0  0
  8 22  1  0  0  0
  9 10  1  0  0  0
  9 27  2  0  0  0
 10 11  2  0  0  0
 10 15  1  0  0  0
 11 12  1  0  0  0
 11 97  1  0  0  0
 12 13  2  0  0  0
 12 98  1  0  0  0
 13 14  1  0  0  0
 13 31  1  0  0  0
 14 15  2  0  0  0
 14 99  1  0  0  0
 15100  1  0  0  0
 16 17  2  0  0  0
 16 21  1  0  0  0
 16 31  1  0  0  0
 17 18  1  0  0  0
 17101  1  0  0  0
 18 19  2  0  0  0
 18102  1  0  0  0
 19 20  1  0  0  0
 19 24  1  0  0  0
 20 21  2  0  0  0
 20103  1  0  0  0
 21 23  1  0  0  0
 22 28  1  0  0  0
 22 32  2  0  0  0
 26 27  1  0  0  0
 28104  1  0  0  0
 28105  1  0  0  0
 29106  1  0  0  0
 29107  1  0  0  0
 33 34  1  0  0  0
 33 66  1  0  0  0
 33 70  2  0  0  0
 34 36  1  0  0  0
 34 59  1  0  0  0
 34108  1  0  0  0
 35 44  2  0  0  0
 35 45  1  0  0  0
 35 68  1  0  0  0
 36 56  1  0  0  0
 36109  1  0  0  0
 37 39  1  0  0  0
 37 47  1  0  0  0
 37 66  1  0  0  0
 37110  1  0  0  0
 38 43  2  0  0  0
 38 46  1  0  0  0
 38 47  1  0  0  0
 39 64  1  0  0  0
 39 67  2  0  0  0
 40 52  1  0  0  0
 40 53  2  0  0  0
 40 58  1  0  0  0
 41111  1  0  0  0
 41112  1  0  0  0
 41113  1  0  0  0
 41 48  1  0  0  0
 42 43  1  0  0  0
 42 66  1  0  0  0
 42114  1  0  0  0
 42115  1  0  0  0
 43 44  1  0  0  0
 44116  1  0  0  0
 45 46  2  0  0  0
 45117  1  0  0  0
 46118  1  0  0  0
 47119  1  0  0  0
 47120  1  0  0  0
 48 56  1  0  0  0
 48 65  1  0  0  0
 48121  1  0  0  0
 49 50  1  0  0  0
 49 53  1  0  0  0
 49 64  1  0  0  0
 49122  1  0  0  0
 50 51  1  0  0  0
 50123  1  0  0  0
 50124  1  0  0  0
 51 52  1  0  0  0
 51125  1  0  0  0
 51126  1  0  0  0
 52127  1  0  0  0
 52128  1  0  0  0
 53 54  1  0  0  0
 54 55  2  0  0  0
 54129  1  0  0  0
 55 57  1  0  0  0
 55130  1  0  0  0
 56 69  2  0  0  0
 57 58  2  0  0  0
 57131  1  0  0  0
 58132  1  0  0  0
 59 60  1  0  0  0
 59 61  1  0  0  0
 59 62  1  0  0  0
 60133  1  0  0  0
 60134  1  0  0  0
 60135  1  0  0  0
 61136  1  0  0  0
 61137  1  0  0  0
 61138  1  0  0  0
 62139  1  0  0  0
 62140  1  0  0  0
 62141  1  0  0  0
 63 65  1  0  0  0
 63142  1  0  0  0
 63143  1  0  0  0
 63144  1  0  0  0
 64145  1  0  0  0
 65146  1  0  0  0
 68 84  1  0  0  0
 71 72  2  0  0  0
 71 75  1  0  0  0
 71147  1  0  0  0
 72 73  1  0  0  0
 72 77  1  0  0  0
 73 74  2  0  0  0
 73 80  1  0  0  0
 74 76  1  0  0  0
 74 78  1  0  0  0
 75 76  2  0  0  0
 75 86  1  0  0  0
 76 87  1  0  0  0
 77148  1  0  0  0
 77149  1  0  0  0
 77150  1  0  0  0
 78151  1  0  0  0
 78152  1  0  0  0
 78153  1  0  0  0
 79 86  1  0  0  0
 79154  1  0  0  0
 79155  1  0  0  0
 79156  1  0  0  0
 80 81  1  0  0  0
 80157  1  0  0  0
 80158  1  0  0  0
 81 82  1  0  0  0
 81159  1  0  0  0
 81160  1  0  0  0
 82 85  1  0  0  0
 82161  1  0  0  0
 82162  1  0  0  0
 83 84  1  0  0  0
 83 86  1  0  0  0
 83163  1  0  0  0
 83164  1  0  0  0
 84165  1  0  0  0
 84166  1  0  0  0
 85167  1  0  0  0
M  ISO  4   1 100  68 101  84 101  85 100
M  END
> <chiral flag>
0

> <version>
0

> <s_m_source_file>
/data/baiqing/PycharmProjects/Reinvent-master-3.2/result/LINK_invent/BTK/process_docking_weight1_custom_sum_contain_oxygen_bond_distance_aromatic_linkinvent_7_9_3/rearranged_h_0023.sdf

> <i_m_source_file_index>
73

> <r_mmod_Potential_Energy-OPLS-2005>
44.795654296875

> <r_mmod_Stretch_Energy-OPLS-2005>
39.7066841125488

> <r_mmod_Bend_Energy-OPLS-2005>
115.497764587402

> <r_mmod_Torsional_Energy-OPLS-2005>
228.304138183594

> <r_mmod_Improper_Torsional_Energy-OPLS-2005>
11.0493907928467

> <r_mmod_Van_der_Waal_Energy-OPLS-2005>
178.283386230469

> <r_mmod_Electrostatic_Energy-OPLS-2005>
-317.865692138672

> <r_mmod_Solvation_Energy-OPLS-2005>
-222.886810302734

> <b_mmod_Minimization_Converged-OPLS-2005>
0

> <r_mmod_RMS_Derivative-OPLS-2005>
2.62326550483704

$$$$
73
                    3D
 Structure written by MMmdl.
211220  0  0  1  0            999 V2000
  -30.7274  -14.5081   20.3962 C   0  0  0  0  0  0
  -30.4014  -12.2792   19.4565 C   0  0  0  0  0  0
  -29.5083  -12.4137   18.1989 C   0  0  0  0  0  0
  -28.0429  -12.8168   18.5022 C   0  0  0  0  0  0
  -27.7116  -12.7641   19.9947 C   0  0  2  0  0  0
  -28.7388  -13.1714   21.0563 C   0  0  0  0  0  0
  -25.3097  -13.7633   20.5538 C   0  0  0  0  0  0
  -24.1849  -13.0466   20.9105 C   0  0  0  0  0  0
  -24.5790  -11.6784   20.8978 C   0  0  0  0  0  0
  -23.8519  -10.4277   21.0661 C   0  0  0  0  0  0
  -24.3359   -9.4117   21.9207 C   0  0  0  0  0  0
  -23.6177   -8.2088   22.0690 C   0  0  0  0  0  0
  -22.4141   -8.0189   21.3537 C   0  0  0  0  0  0
  -21.9629   -9.0190   20.4753 C   0  0  0  0  0  0
  -22.6752  -10.2172   20.3276 C   0  0  0  0  0  0
  -21.6793   -6.0698   22.5288 C   0  0  0  0  0  0
  -21.3974   -6.5660   23.8222 C   0  0  0  0  0  0
  -21.3660   -5.6839   24.9201 C   0  0  0  0  0  0
  -21.6024   -4.3101   24.7256 C   0  0  0  0  0  0
  -21.8787   -3.8160   23.4386 C   0  0  0  0  0  0
  -21.9173   -4.6943   22.3438 C   0  0  0  0  0  0
  -22.7981  -13.5616   21.1717 C   0  0  0  0  0  0
  -22.1682   -4.2132   21.1011 F   0  0  0  0  0  0
  -21.5580   -3.4603   25.7769 F   0  0  0  0  0  0
  -30.0480  -13.3440   20.4108 N   0  0  0  0  0  0
  -26.3068  -12.7967   20.3759 N   0  0  0  0  0  0
  -25.8433  -11.5654   20.6188 N   0  0  0  0  0  0
  -22.0375  -12.8638   22.0148 N   0  0  0  0  0  0
  -25.5524  -15.1200   20.3674 N   0  0  0  0  0  0
  -31.9130  -14.6100   20.0894 O   0  0  0  0  0  0
  -21.6557   -6.8775   21.4218 O   0  0  0  0  0  0
  -22.3891  -14.6000   20.6635 O   0  0  0  0  0  0
  -24.6126  -31.8667   23.2074 C   0  0  0  0  0  0
  -25.9041  -32.4821   23.8342 C   0  0  1  0  0  0
  -27.2155  -27.4409   20.1238 C   0  0  0  0  0  0
  -25.5890  -33.8617   24.2285 N   0  0  0  0  0  0
  -23.4004  -30.4846   21.5504 C   0  0  2  0  0  0
  -24.8453  -28.9639   20.0979 C   0  0  0  0  0  0
  -22.7468  -29.4557   22.4963 C   0  0  0  0  0  0
  -18.0293  -28.1359   22.8391 C   0  0  0  0  0  0
  -24.1477  -36.7328   23.2637 C   0  0  0  0  0  0
  -25.9218  -30.8407   21.3567 C   0  0  0  0  0  0
  -25.9996  -29.4760   20.7053 C   0  0  0  0  0  0
  -27.1913  -28.7205   20.7122 C   0  0  0  0  0  0
  -26.0584  -26.9499   19.4835 C   0  0  0  0  0  0
  -24.8718  -27.7021   19.4789 C   0  0  0  0  0  0
  -23.6050  -29.8242   20.1591 C   0  0  0  0  0  0
  -25.4093  -36.3115   24.0344 C   0  0  1  0  0  0
  -20.5891  -28.3615   23.1350 C   0  0  2  0  0  0
  -20.6688  -26.9427   22.5281 C   0  0  0  0  0  0
  -19.5827  -26.6775   21.4857 C   0  0  0  0  0  0
  -18.1972  -26.8049   22.1253 C   0  0  0  0  0  0
  -19.1545  -28.8783   23.2896 C   0  0  0  0  0  0
  -18.9466  -30.1323   23.9028 C   0  0  0  0  0  0
  -17.6485  -30.6476   24.0681 C   0  0  0  0  0  0
  -25.9015  -34.9482   23.5104 C   0  0  0  0  0  0
  -16.5375  -29.9028   23.6290 C   0  0  0  0  0  0
  -16.7287  -28.6461   23.0261 C   0  0  0  0  0  0
  -26.4448  -31.6589   25.0657 C   0  0  0  0  0  0
  -25.3707  -31.3723   26.1390 C   0  0  0  0  0  0
  -27.0254  -30.3015   24.6060 C   0  0  0  0  0  0
  -27.6040  -32.4278   25.7424 C   0  0  0  0  0  0
  -27.5567  -37.1810   24.8456 C   0  0  0  0  0  0
  -21.4179  -29.2992   22.3804 N   0  0  0  0  0  0
  -26.4286  -37.3785   23.9410 N   0  0  0  0  0  0
  -24.6633  -31.0752   22.1000 N   0  0  0  0  0  0
  -23.4274  -28.8000   23.2883 O   0  0  0  0  0  0
  -28.3617  -26.6926   20.2109 O   0  0  0  0  0  0
  -26.5573  -34.8954   22.4658 O   0  0  0  0  0  0
  -23.5326  -32.1449   23.7486 O   0  0  0  0  0  0
  -26.6828  -18.2482   18.7361 C   0  0  0  0  0  0
  -26.3397  -17.6819   17.4906 C   0  0  0  0  0  0
  -28.8490  -17.1225   18.7490 C   0  0  0  0  0  0
  -27.8991  -17.9589   19.3740 C   0  0  0  0  0  0
  -27.3055  -16.8732   16.8378 C   0  0  0  0  0  0
  -28.5580  -16.6143   17.4544 C   0  0  0  0  0  0
  -24.5036  -20.6368   21.5906 C   0  0  0  0  0  0
  -25.3719  -21.8475   21.9842 C   0  0  0  0  0  0
  -23.2958  -23.2961   21.8480 C   0  0  0  0  0  0
  -23.2681  -21.0407   20.7401 C   0  0  2  0  0  0
  -22.4244  -22.0327   21.5914 C   0  0  2  0  0  0
  -24.5655  -22.9600   22.6982 C   0  0  2  0  0  0
  -18.6231  -23.1135   21.6191 C   0  0  0  0  0  0
  -23.5738  -25.2546   24.4280 C   0  0  0  0  0  0
  -25.9319  -26.0943   24.6634 C   0  0  0  0  0  0
  -23.0678  -16.3929   16.3801 C   0  0  0  0  0  0
  -21.6581  -17.2499   18.8781 C   0  0  0  0  0  0
  -24.9662  -17.9881   16.8741 C   0  0  0  0  0  0
  -30.1363  -16.7437   19.4872 C   0  0  0  0  0  0
  -22.5039  -19.8084   20.1668 C   0  0  0  0  0  0
  -21.0227  -22.3900   21.0278 C   0  0  0  0  0  0
  -20.0771  -22.9773   22.0956 C   0  0  0  0  0  0
  -27.5469  -24.9726   21.9071 C   0  0  0  0  0  0
  -23.4310  -18.8951   19.3254 C   0  0  0  0  0  0
  -25.9894  -24.9324   21.9384 C   0  0  0  0  0  0
  -28.2103  -25.3038   20.5361 C   0  0  0  0  0  0
  -25.0606  -24.8607   24.3355 C   0  0  0  0  0  0
  -23.7692  -17.1900   17.5081 C   0  0  1  0  0  0
  -29.9215  -15.5715   20.3408 N   0  0  0  0  0  0
  -25.4498  -24.1212   23.0764 N   0  3  1  0  0  0
  -22.7909  -18.0258   18.3005 N   0  3  1  0  0  0
  -28.1766  -18.6428   20.9363 Cl  0  0  0  0  0  0
  -26.9784  -16.1987   15.2738 Cl  0  0  0  0  0  0
  -29.7337  -15.6653   16.6069 Cl  0  0  0  0  0  0
  -31.4601  -12.2772   19.1846 H   0  0  0  0  0  0
  -30.2320  -11.3078   19.9186 H   0  0  0  0  0  0
  -29.5061  -11.4555   17.6746 H   0  0  0  0  0  0
  -29.9555  -13.1228   17.5045 H   0  0  0  0  0  0
  -27.3671  -12.1765   17.9358 H   0  0  0  0  0  0
  -27.8618  -13.8302   18.1470 H   0  0  0  0  0  0
  -27.9503  -11.6975   20.0554 H   0  0  0  0  0  0
  -28.8304  -12.3907   21.8141 H   0  0  0  0  0  0
  -28.4098  -14.0546   21.6037 H   0  0  0  0  0  0
  -25.2626   -9.5524   22.4618 H   0  0  0  0  0  0
  -24.0021   -7.4411   22.7243 H   0  0  0  0  0  0
  -21.0510   -8.8694   19.9150 H   0  0  0  0  0  0
  -22.3162  -10.9826   19.6564 H   0  0  0  0  0  0
  -21.1949   -7.6177   23.9686 H   0  0  0  0  0  0
  -21.1545   -6.0604   25.9113 H   0  0  0  0  0  0
  -22.0584   -2.7623   23.2931 H   0  0  0  0  0  0
  -22.3670  -12.0117   22.4440 H   0  0  0  0  0  0
  -21.1015  -13.1825   22.2217 H   0  0  0  0  0  0
  -24.8575  -15.8333   20.5422 H   0  0  0  0  0  0
  -26.4597  -15.4928   20.1339 H   0  0  0  0  0  0
  -26.7124  -32.5557   23.1120 H   0  0  0  0  0  0
  -25.0086  -33.9757   25.0462 H   0  0  0  0  0  0
  -22.6853  -31.2989   21.4222 H   0  0  0  0  0  0
  -23.3749  -35.9648   23.3326 H   0  0  0  0  0  0
  -24.3590  -36.8914   22.2047 H   0  0  0  0  0  0
  -23.7236  -37.6548   23.6629 H   0  0  0  0  0  0
  -26.0154  -31.6047   20.5809 H   0  0  0  0  0  0
  -26.8147  -30.9018   21.9680 H   0  0  0  0  0  0
  -28.0790  -29.0969   21.1993 H   0  0  0  0  0  0
  -26.0586  -25.9776   19.0143 H   0  0  0  0  0  0
  -23.9876  -27.3067   18.9979 H   0  0  0  0  0  0
  -23.6953  -30.6011   19.4013 H   0  0  0  0  0  0
  -22.7356  -29.2359   19.8673 H   0  0  0  0  0  0
  -25.1286  -36.1984   25.0847 H   0  0  0  0  0  0
  -20.9986  -28.3122   24.1476 H   0  0  0  0  0  0
  -20.5281  -26.2131   23.3265 H   0  0  0  0  0  0
  -21.6540  -26.7394   22.1142 H   0  0  0  0  0  0
  -19.7164  -25.6962   21.0332 H   0  0  0  0  0  0
  -19.6846  -27.3992   20.6742 H   0  0  0  0  0  0
  -17.4300  -26.7105   21.3546 H   0  0  0  0  0  0
  -18.0280  -25.9998   22.8431 H   0  0  0  0  0  0
  -19.7951  -30.7034   24.2532 H   0  0  0  0  0  0
  -17.5073  -31.6094   24.5433 H   0  0  0  0  0  0
  -15.5376  -30.2953   23.7567 H   0  0  0  0  0  0
  -15.8688  -28.0814   22.6905 H   0  0  0  0  0  0
  -24.5894  -30.7070   25.7693 H   0  0  0  0  0  0
  -24.8896  -32.2903   26.4791 H   0  0  0  0  0  0
  -25.8057  -30.8904   27.0162 H   0  0  0  0  0  0
  -26.2805  -29.6799   24.1090 H   0  0  0  0  0  0
  -27.3954  -29.7221   25.4529 H   0  0  0  0  0  0
  -27.8654  -30.4284   23.9230 H   0  0  0  0  0  0
  -27.2694  -33.3586   26.2023 H   0  0  0  0  0  0
  -28.3854  -32.6834   25.0252 H   0  0  0  0  0  0
  -28.0699  -31.8378   26.5328 H   0  0  0  0  0  0
  -28.2582  -38.0096   24.7491 H   0  0  0  0  0  0
  -28.1056  -36.2647   24.6303 H   0  0  0  0  0  0
  -27.2280  -37.1476   25.8845 H   0  0  0  0  0  0
  -20.9327  -29.8845   21.7166 H   0  0  0  0  0  0
  -26.0205  -38.2869   24.1426 H   0  0  0  0  0  0
  -26.0207  -18.9237   19.2388 H   0  0  0  0  0  0
  -24.1871  -20.1048   22.4883 H   0  0  0  0  0  0
  -25.1450  -19.9424   21.0568 H   0  0  0  0  0  0
  -25.8374  -22.2326   21.0782 H   0  0  0  0  0  0
  -26.1888  -21.5075   22.6230 H   0  0  0  0  0  0
  -22.6912  -24.0641   22.3175 H   0  0  0  0  0  0
  -23.5693  -23.7201   20.8828 H   0  0  0  0  0  0
  -23.6350  -21.5876   19.8694 H   0  0  0  0  0  0
  -22.2417  -21.5433   22.5490 H   0  0  0  0  0  0
  -24.2230  -22.5252   23.6385 H   0  0  0  0  0  0
  -18.0042  -23.5709   22.3924 H   0  0  0  0  0  0
  -18.1796  -22.1462   21.3798 H   0  0  0  0  0  0
  -18.5514  -23.7389   20.7302 H   0  0  0  0  0  0
  -23.3680  -25.8031   25.3483 H   0  0  0  0  0  0
  -22.9129  -24.3885   24.4479 H   0  0  0  0  0  0
  -23.2860  -25.9029   23.6032 H   0  0  0  0  0  0
  -25.7013  -26.4562   25.6669 H   0  0  0  0  0  0
  -25.7401  -26.9286   23.9832 H   0  0  0  0  0  0
  -26.9994  -25.8770   24.6642 H   0  0  0  0  0  0
  -23.7955  -15.8389   15.7847 H   0  0  0  0  0  0
  -22.5225  -17.0511   15.7031 H   0  0  0  0  0  0
  -22.3683  -15.6442   16.7471 H   0  0  0  0  0  0
  -20.7172  -17.6288   18.4796 H   0  0  0  0  0  0
  -21.6012  -17.3253   19.9621 H   0  0  0  0  0  0
  -21.7040  -16.1833   18.6759 H   0  0  0  0  0  0
  -25.0049  -17.7976   15.8024 H   0  0  0  0  0  0
  -24.8148  -19.0649   16.8892 H   0  0  0  0  0  0
  -30.4981  -17.5753   20.0911 H   0  0  0  0  0  0
  -30.9365  -16.5670   18.7647 H   0  0  0  0  0  0
  -21.7050  -20.1485   19.5073 H   0  0  0  0  0  0
  -22.0292  -19.2543   20.9792 H   0  0  0  0  0  0
  -20.5237  -21.4970   20.6574 H   0  0  0  0  0  0
  -21.1089  -23.0678   20.1756 H   0  0  0  0  0  0
  -20.0824  -22.3452   22.9851 H   0  0  0  0  0  0
  -20.4384  -23.9511   22.4191 H   0  0  0  0  0  0
  -27.9081  -23.9806   22.1872 H   0  0  0  0  0  0
  -27.9350  -25.6560   22.6611 H   0  0  0  0  0  0
  -24.0292  -18.2702   19.9911 H   0  0  0  0  0  0
  -24.0915  -19.5757   18.7989 H   0  0  0  0  0  0
  -25.6640  -24.4955   20.9959 H   0  0  0  0  0  0
  -25.5608  -25.9343   21.9524 H   0  0  0  0  0  0
  -27.7461  -24.7403   19.7294 H   0  0  0  0  0  0
  -29.2346  -24.9306   20.5696 H   0  0  0  0  0  0
  -25.2348  -24.1466   25.1429 H   0  0  0  0  0  0
  -24.1821  -16.4503   18.1954 H   0  0  0  0  0  0
  -28.9744  -15.3933   20.6290 H   0  0  0  0  0  0
  -26.2787  -23.6377   23.3917 H   0  0  0  0  0  0
  -22.3696  -18.6602   17.6374 H   0  0  0  0  0  0
  1 25  1  0  0  0
  1 30  2  0  0  0
  1 99  1  0  0  0
  2  3  1  0  0  0
  2 25  1  0  0  0
  2105  1  0  0  0
  2106  1  0  0  0
  3  4  1  0  0  0
  3107  1  0  0  0
  3108  1  0  0  0
  4  5  1  0  0  0
  4109  1  0  0  0
  4110  1  0  0  0
  5  6  1  0  0  0
  5 26  1  0  0  0
  5111  1  0  0  0
  6 25  1  0  0  0
  6112  1  0  0  0
  6113  1  0  0  0
  7  8  2  0  0  0
  7 26  1  0  0  0
  7 29  1  0  0  0
  8  9  1  0  0  0
  8 22  1  0  0  0
  9 10  1  0  0  0
  9 27  2  0  0  0
 10 11  2  0  0  0
 10 15  1  0  0  0
 11 12  1  0  0  0
 11114  1  0  0  0
 12 13  2  0  0  0
 12115  1  0  0  0
 13 14  1  0  0  0
 13 31  1  0  0  0
 14 15  2  0  0  0
 14116  1  0  0  0
 15117  1  0  0  0
 16 17  2  0  0  0
 16 21  1  0  0  0
 16 31  1  0  0  0
 17 18  1  0  0  0
 17118  1  0  0  0
 18 19  2  0  0  0
 18119  1  0  0  0
 19 20  1  0  0  0
 19 24  1  0  0  0
 20 21  2  0  0  0
 20120  1  0  0  0
 21 23  1  0  0  0
 22 28  1  0  0  0
 22 32  2  0  0  0
 26 27  1  0  0  0
 28121  1  0  0  0
 28122  1  0  0  0
 29123  1  0  0  0
 29124  1  0  0  0
 33 34  1  0  0  0
 33 66  1  0  0  0
 33 70  2  0  0  0
 34 36  1  0  0  0
 34 59  1  0  0  0
 34125  1  0  0  0
 35 44  2  0  0  0
 35 45  1  0  0  0
 35 68  1  0  0  0
 36 56  1  0  0  0
 36126  1  0  0  0
 37 39  1  0  0  0
 37 47  1  0  0  0
 37 66  1  0  0  0
 37127  1  0  0  0
 38 43  2  0  0  0
 38 46  1  0  0  0
 38 47  1  0  0  0
 39 64  1  0  0  0
 39 67  2  0  0  0
 40 52  1  0  0  0
 40 53  2  0  0  0
 40 58  1  0  0  0
 41128  1  0  0  0
 41129  1  0  0  0
 41130  1  0  0  0
 41 48  1  0  0  0
 42 43  1  0  0  0
 42 66  1  0  0  0
 42131  1  0  0  0
 42132  1  0  0  0
 43 44  1  0  0  0
 44133  1  0  0  0
 45 46  2  0  0  0
 45134  1  0  0  0
 46135  1  0  0  0
 47136  1  0  0  0
 47137  1  0  0  0
 48 56  1  0  0  0
 48 65  1  0  0  0
 48138  1  0  0  0
 49 50  1  0  0  0
 49 53  1  0  0  0
 49 64  1  0  0  0
 49139  1  0  0  0
 50 51  1  0  0  0
 50140  1  0  0  0
 50141  1  0  0  0
 51 52  1  0  0  0
 51142  1  0  0  0
 51143  1  0  0  0
 52144  1  0  0  0
 52145  1  0  0  0
 53 54  1  0  0  0
 54 55  2  0  0  0
 54146  1  0  0  0
 55 57  1  0  0  0
 55147  1  0  0  0
 56 69  2  0  0  0
 57 58  2  0  0  0
 57148  1  0  0  0
 58149  1  0  0  0
 59 60  1  0  0  0
 59 61  1  0  0  0
 59 62  1  0  0  0
 60150  1  0  0  0
 60151  1  0  0  0
 60152  1  0  0  0
 61153  1  0  0  0
 61154  1  0  0  0
 61155  1  0  0  0
 62156  1  0  0  0
 62157  1  0  0  0
 62158  1  0  0  0
 63 65  1  0  0  0
 63159  1  0  0  0
 63160  1  0  0  0
 63161  1  0  0  0
 64162  1  0  0  0
 65163  1  0  0  0
 68 96  1  0  0  0
 71 72  2  0  0  0
 71 74  1  0  0  0
 71164  1  0  0  0
 72 75  1  0  0  0
 72 88  1  0  0  0
 73 74  2  0  0  0
 73 76  1  0  0  0
 73 89  1  0  0  0
 74102  1  0  0  0
 75 76  2  0  0  0
 75103  1  0  0  0
 76104  1  0  0  0
 77 78  1  0  0  0
 77 80  1  0  0  0
 77165  1  0  0  0
 77166  1  0  0  0
 78167  1  0  0  0
 78168  1  0  0  0
 78 82  1  0  0  0
 79 81  1  0  0  0
 79 82  1  0  0  0
 79169  1  0  0  0
 79170  1  0  0  0
 80 81  1  0  0  0
 80 90  1  0  0  0
 80171  1  0  0  0
 81 91  1  0  0  0
 81172  1  0  0  0
 82100  1  0  0  0
 82173  1  0  0  0
 83 92  1  0  0  0
 83174  1  0  0  0
 83175  1  0  0  0
 83176  1  0  0  0
 84177  1  0  0  0
 84178  1  0  0  0
 84179  1  0  0  0
 84 97  1  0  0  0
 85 97  1  0  0  0
 85180  1  0  0  0
 85181  1  0  0  0
 85182  1  0  0  0
 86183  1  0  0  0
 86184  1  0  0  0
 86185  1  0  0  0
 86 98  1  0  0  0
 87186  1  0  0  0
 87187  1  0  0  0
 87188  1  0  0  0
 87101  1  0  0  0
 88 98  1  0  0  0
 88189  1  0  0  0
 88190  1  0  0  0
 89 99  1  0  0  0
 89191  1  0  0  0
 89192  1  0  0  0
 90 94  1  0  0  0
 90193  1  0  0  0
 90194  1  0  0  0
 91 92  1  0  0  0
 91195  1  0  0  0
 91196  1  0  0  0
 92197  1  0  0  0
 92198  1  0  0  0
 93 95  1  0  0  0
 93 96  1  0  0  0
 93199  1  0  0  0
 93200  1  0  0  0
 94101  1  0  0  0
 94201  1  0  0  0
 94202  1  0  0  0
 95203  1  0  0  0
 95204  1  0  0  0
 95100  1  0  0  0
 96205  1  0  0  0
 96206  1  0  0  0
 97100  1  0  0  0
 97207  1  0  0  0
 98101  1  0  0  0
 98208  1  0  0  0
 99209  1  0  0  0
100210  1  0  0  0
101211  1  0  0  0
M  CHG  2 100   1 101   1
M  ISO  4   1 100  68 101  96 101  99 100
M  END
> <chiral flag>
0

> <version>
0

> <s_m_source_file>
/data/baiqing/PycharmProjects/Reinvent-master-3.2/result/LINK_invent/BTK/process_docking_weight1_custom_sum_contain_oxygen_bond_distance_aromatic_linkinvent_7_9_3/rearranged_h_0023.sdf

> <i_m_source_file_index>
74

> <r_mmod_Potential_Energy-OPLS-2005>
122.270614624023

> <r_mmod_Stretch_Energy-OPLS-2005>
54.0904426574707

> <r_mmod_Bend_Energy-OPLS-2005>
215.2060546875

> <r_mmod_Torsional_Energy-OPLS-2005>
372.980102539062

> <r_mmod_Improper_Torsional_Energy-OPLS-2005>
12.2140073776245

> <r_mmod_Van_der_Waal_Energy-OPLS-2005>
146.024673461914

> <r_mmod_Electrostatic_Energy-OPLS-2005>
49.4854927062988

> <r_mmod_Solvation_Energy-OPLS-2005>
-810.399169921875

> <b_mmod_Minimization_Converged-OPLS-2005>
0

> <r_mmod_RMS_Derivative-OPLS-2005>
5.85641860961914

$$$$
74
                    3D
 Structure written by MMmdl.
170179  0  0  1  0            999 V2000
  -30.5205  -15.1073   20.3893 C   0  0  0  0  0  0
  -30.4165  -12.6947   19.5059 C   0  0  0  0  0  0
  -29.5113  -12.5500   18.2613 C   0  0  0  0  0  0
  -28.0554  -12.3006   18.6879 C   0  0  0  0  0  0
  -27.6101  -13.2628   19.8189 C   0  0  2  0  0  0
  -28.6475  -13.3996   20.9521 C   0  0  0  0  0  0
  -25.2407  -13.8254   20.5717 C   0  0  0  0  0  0
  -24.1737  -13.0442   20.9212 C   0  0  0  0  0  0
  -24.6380  -11.6942   20.8736 C   0  0  0  0  0  0
  -23.9078  -10.4295   21.0393 C   0  0  0  0  0  0
  -24.3629   -9.4216   21.9174 C   0  0  0  0  0  0
  -23.6295   -8.2254   22.0755 C   0  0  0  0  0  0
  -22.4273   -8.0285   21.3546 C   0  0  0  0  0  0
  -21.9913   -9.0258   20.4643 C   0  0  0  0  0  0
  -22.7250  -10.2137   20.3043 C   0  0  0  0  0  0
  -21.6866   -6.0735   22.5273 C   0  0  0  0  0  0
  -21.4031   -6.5642   23.8205 C   0  0  0  0  0  0
  -21.3652   -5.6796   24.9170 C   0  0  0  0  0  0
  -21.6040   -4.3057   24.7219 C   0  0  0  0  0  0
  -21.8820   -3.8144   23.4341 C   0  0  0  0  0  0
  -21.9197   -4.6962   22.3399 C   0  0  0  0  0  0
  -22.7765  -13.5196   21.1865 C   0  0  0  0  0  0
  -22.1664   -4.2152   21.0975 F   0  0  0  0  0  0
  -21.5616   -3.4535   25.7728 F   0  0  0  0  0  0
  -29.8971  -13.8424   20.3236 N   0  0  0  0  0  0
  -26.2798  -12.9493   20.3197 N   0  0  0  0  0  0
  -25.9311  -11.6611   20.5719 N   0  0  0  0  0  0
  -22.0467  -12.8150   22.0442 N   0  0  0  0  0  0
  -25.4103  -15.1979   20.4196 N   0  0  0  0  0  0
  -31.7411  -15.0732   20.1793 O   0  0  0  0  0  0
  -21.6646   -6.8877   21.4235 O   0  0  0  0  0  0
  -22.3428  -14.5500   20.6739 O   0  0  0  0  0  0
  -24.6551  -31.8334   23.1800 C   0  0  0  0  0  0
  -25.9256  -32.4646   23.8236 C   0  0  1  0  0  0
  -27.2130  -26.9979   20.1709 C   0  0  0  0  0  0
  -25.5925  -33.8452   24.2130 N   0  0  0  0  0  0
  -23.4670  -30.4498   21.5313 C   0  0  2  0  0  0
  -24.9177  -28.8522   20.1164 C   0  0  0  0  0  0
  -22.7617  -29.4494   22.4837 C   0  0  0  0  0  0
  -18.0330  -28.1398   22.8483 C   0  0  0  0  0  0
  -24.1493  -36.7256   23.2645 C   0  0  0  0  0  0
  -26.0321  -30.6584   21.4030 C   0  0  0  0  0  0
  -26.1018  -29.2568   20.7466 C   0  0  0  0  0  0
  -27.2488  -28.3507   20.7499 C   0  0  0  0  0  0
  -26.0030  -26.7343   19.4924 C   0  0  0  0  0  0
  -24.8905  -27.6080   19.4713 C   0  0  0  0  0  0
  -23.7020  -29.7744   20.1543 C   0  0  0  0  0  0
  -25.4136  -36.3015   24.0295 C   0  0  1  0  0  0
  -20.5945  -28.3747   23.1203 C   0  0  2  0  0  0
  -20.6814  -26.9434   22.5406 C   0  0  0  0  0  0
  -19.5787  -26.6382   21.5214 C   0  0  0  0  0  0
  -18.1966  -26.7938   22.1619 C   0  0  0  0  0  0
  -19.1588  -28.8888   23.2832 C   0  0  0  0  0  0
  -18.9493  -30.1476   23.8874 C   0  0  0  0  0  0
  -17.6491  -30.6604   24.0528 C   0  0  0  0  0  0
  -25.9070  -34.9377   23.5033 C   0  0  0  0  0  0
  -16.5381  -29.9084   23.6329 C   0  0  0  0  0  0
  -16.7305  -28.6502   23.0365 C   0  0  0  0  0  0
  -26.4522  -31.6575   25.0737 C   0  0  0  0  0  0
  -25.3646  -31.3798   26.1395 C   0  0  0  0  0  0
  -27.0408  -30.2960   24.6399 C   0  0  0  0  0  0
  -27.6039  -32.4356   25.7525 C   0  0  0  0  0  0
  -27.5586  -37.1788   24.8442 C   0  0  0  0  0  0
  -21.4300  -29.3053   22.3555 N   0  0  0  0  0  0
  -26.4305  -37.3737   23.9385 N   0  0  0  0  0  0
  -24.7394  -31.0041   22.0923 N   0  0  0  0  0  0
  -23.4188  -28.8058   23.3045 O   0  0  0  0  0  0
  -28.2118  -25.9123   20.2410 O   0  0  0  0  0  0
  -26.5684  -34.8864   22.4629 O   0  0  0  0  0  0
  -23.5629  -32.1272   23.6926 O   0  0  0  0  0  0
  -31.8298  -20.3012   19.7031 C   0  0  0  0  0  0
  -33.1656  -20.6529   19.9667 C   0  0  0  0  0  0
  -32.5336  -21.3574   22.2028 C   0  0  0  0  0  0
  -30.8216  -20.4411   20.6905 C   0  0  0  0  0  0
  -33.5205  -21.1723   21.2211 C   0  0  0  0  0  0
  -31.1936  -21.0099   21.9443 C   0  0  0  0  0  0
  -28.7326  -22.9043   20.3240 C   0  0  0  0  0  0
  -28.4317  -21.4730   20.2079 C   0  0  0  0  0  0
  -28.9329  -18.8263   21.4179 C   0  0  0  0  0  0
  -29.3037  -18.9069   19.1936 C   0  0  0  0  0  0
  -29.7664  -17.3964   21.5189 C   0  0  0  0  0  0
  -30.0730  -17.4358   19.2617 C   0  0  0  0  0  0
  -29.3661  -20.0242   20.3848 C   0  0  0  0  0  0
  -26.7638  -21.0999   18.3126 C   0  0  0  0  0  0
  -25.8820  -21.8407   20.5696 C   0  0  0  0  0  0
  -27.8223  -24.3480   20.1299 C   0  0  0  0  0  0
  -26.9933  -21.0769   19.8318 C   0  0  0  0  0  0
  -29.8208  -16.4000   20.3626 N   0  0  0  0  0  0
  -35.1604  -21.5988   21.5462 Cl  0  0  0  0  0  0
  -30.0501  -21.3541   23.1954 Cl  0  0  0  0  0  0
  -31.4475  -12.8485   19.1874 H   0  0  0  0  0  0
  -30.4181  -11.7729   20.0894 H   0  0  0  0  0  0
  -29.8631  -11.7409   17.6202 H   0  0  0  0  0  0
  -29.5628  -13.4591   17.6607 H   0  0  0  0  0  0
  -27.9811  -11.2667   19.0281 H   0  0  0  0  0  0
  -27.3891  -12.3889   17.8289 H   0  0  0  0  0  0
  -27.5399  -14.2386   19.3389 H   0  0  0  0  0  0
  -28.7771  -12.4655   21.5007 H   0  0  0  0  0  0
  -28.3135  -14.1502   21.6714 H   0  0  0  0  0  0
  -25.2785   -9.5705   22.4725 H   0  0  0  0  0  0
  -24.0015   -7.4654   22.7471 H   0  0  0  0  0  0
  -21.0850   -8.8774   19.8937 H   0  0  0  0  0  0
  -22.3709  -10.9670   19.6132 H   0  0  0  0  0  0
  -21.2048   -7.6151   23.9714 H   0  0  0  0  0  0
  -21.1465   -6.0527   25.9078 H   0  0  0  0  0  0
  -22.0605   -2.7600   23.2847 H   0  0  0  0  0  0
  -22.4138  -11.9814   22.4778 H   0  0  0  0  0  0
  -21.1095  -13.1139   22.2700 H   0  0  0  0  0  0
  -24.6501  -15.8584   20.5440 H   0  0  0  0  0  0
  -26.2757  -15.6414   20.1355 H   0  0  0  0  0  0
  -26.7306  -32.5215   23.0942 H   0  0  0  0  0  0
  -24.9949  -33.9535   25.0196 H   0  0  0  0  0  0
  -22.7765  -31.2821   21.3743 H   0  0  0  0  0  0
  -23.3761  -35.9576   23.3277 H   0  0  0  0  0  0
  -24.3553  -36.8946   22.2064 H   0  0  0  0  0  0
  -23.7250  -37.6431   23.6723 H   0  0  0  0  0  0
  -26.1953  -31.4029   20.6229 H   0  0  0  0  0  0
  -26.8966  -30.7176   22.0533 H   0  0  0  0  0  0
  -28.1476  -28.6566   21.2676 H   0  0  0  0  0  0
  -25.8734  -25.7898   18.9871 H   0  0  0  0  0  0
  -23.9917  -27.2895   18.9611 H   0  0  0  0  0  0
  -23.8481  -30.5505   19.4020 H   0  0  0  0  0  0
  -22.8087  -29.2298   19.8431 H   0  0  0  0  0  0
  -25.1343  -36.1852   25.0789 H   0  0  0  0  0  0
  -21.0033  -28.3375   24.1320 H   0  0  0  0  0  0
  -20.5733  -26.2349   23.3638 H   0  0  0  0  0  0
  -21.6673  -26.7427   22.1193 H   0  0  0  0  0  0
  -19.6920  -25.6280   21.1279 H   0  0  0  0  0  0
  -19.6747  -27.3142   20.6705 H   0  0  0  0  0  0
  -17.4244  -26.6684   21.4009 H   0  0  0  0  0  0
  -18.0355  -26.0090   22.9020 H   0  0  0  0  0  0
  -19.7968  -30.7296   24.2251 H   0  0  0  0  0  0
  -17.5043  -31.6287   24.5130 H   0  0  0  0  0  0
  -15.5372  -30.2969   23.7702 H   0  0  0  0  0  0
  -15.8706  -28.0798   22.7115 H   0  0  0  0  0  0
  -24.5872  -30.7085   25.7717 H   0  0  0  0  0  0
  -24.8753  -32.2967   26.4676 H   0  0  0  0  0  0
  -25.7888  -30.9093   27.0274 H   0  0  0  0  0  0
  -26.3058  -29.6671   24.1361 H   0  0  0  0  0  0
  -27.3932  -29.7283   25.5023 H   0  0  0  0  0  0
  -27.8989  -30.4187   23.9792 H   0  0  0  0  0  0
  -27.2660  -33.3727   26.1956 H   0  0  0  0  0  0
  -28.3932  -32.6811   25.0402 H   0  0  0  0  0  0
  -28.0585  -31.8570   26.5569 H   0  0  0  0  0  0
  -28.2582  -38.0112   24.7524 H   0  0  0  0  0  0
  -28.1132  -36.2644   24.6282 H   0  0  0  0  0  0
  -27.2262  -37.1412   25.8829 H   0  0  0  0  0  0
  -20.9540  -29.8762   21.6710 H   0  0  0  0  0  0
  -26.0175  -38.2791   24.1431 H   0  0  0  0  0  0
  -31.6124  -19.9195   18.7171 H   0  0  0  0  0  0
  -33.9162  -20.5323   19.1977 H   0  0  0  0  0  0
  -32.7997  -21.7836   23.1593 H   0  0  0  0  0  0
  -29.7555  -23.1238   20.5918 H   0  0  0  0  0  0
  -28.8824  -19.2208   22.4274 H   0  0  0  0  0  0
  -27.8954  -18.5432   21.2406 H   0  0  0  0  0  0
  -28.2576  -18.6634   19.0066 H   0  0  0  0  0  0
  -29.5973  -19.3946   18.2632 H   0  0  0  0  0  0
  -29.3847  -16.8412   22.3768 H   0  0  0  0  0  0
  -30.7985  -17.6366   21.7823 H   0  0  0  0  0  0
  -31.1497  -17.6103   19.2324 H   0  0  0  0  0  0
  -29.8623  -16.9215   18.3223 H   0  0  0  0  0  0
  -27.4491  -20.4344   17.7872 H   0  0  0  0  0  0
  -26.9038  -22.0982   17.9009 H   0  0  0  0  0  0
  -25.7507  -20.7700   18.0727 H   0  0  0  0  0  0
  -26.1547  -22.0540   21.6046 H   0  0  0  0  0  0
  -24.9670  -21.2468   20.5873 H   0  0  0  0  0  0
  -25.6254  -22.7726   20.0720 H   0  0  0  0  0  0
  -27.0154  -24.2655   20.8559 H   0  0  0  0  0  0
  -27.3560  -24.2282   19.1530 H   0  0  0  0  0  0
  -26.8469  -20.0500   20.1553 H   0  0  0  0  0  0
  1 25  1  0  0  0
  1 30  2  0  0  0
  1 88  1  0  0  0
  2  3  1  0  0  0
  2 25  1  0  0  0
  2 91  1  0  0  0
  2 92  1  0  0  0
  3  4  1  0  0  0
  3 93  1  0  0  0
  3 94  1  0  0  0
  4  5  1  0  0  0
  4 95  1  0  0  0
  4 96  1  0  0  0
  5  6  1  0  0  0
  5 26  1  0  0  0
  5 97  1  0  0  0
  6 25  1  0  0  0
  6 98  1  0  0  0
  6 99  1  0  0  0
  7  8  2  0  0  0
  7 26  1  0  0  0
  7 29  1  0  0  0
  8  9  1  0  0  0
  8 22  1  0  0  0
  9 10  1  0  0  0
  9 27  2  0  0  0
 10 11  2  0  0  0
 10 15  1  0  0  0
 11 12  1  0  0  0
 11100  1  0  0  0
 12 13  2  0  0  0
 12101  1  0  0  0
 13 14  1  0  0  0
 13 31  1  0  0  0
 14 15  2  0  0  0
 14102  1  0  0  0
 15103  1  0  0  0
 16 17  2  0  0  0
 16 21  1  0  0  0
 16 31  1  0  0  0
 17 18  1  0  0  0
 17104  1  0  0  0
 18 19  2  0  0  0
 18105  1  0  0  0
 19 20  1  0  0  0
 19 24  1  0  0  0
 20 21  2  0  0  0
 20106  1  0  0  0
 21 23  1  0  0  0
 22 28  1  0  0  0
 22 32  2  0  0  0
 26 27  1  0  0  0
 28107  1  0  0  0
 28108  1  0  0  0
 29109  1  0  0  0
 29110  1  0  0  0
 33 34  1  0  0  0
 33 66  1  0  0  0
 33 70  2  0  0  0
 34 36  1  0  0  0
 34 59  1  0  0  0
 34111  1  0  0  0
 35 44  2  0  0  0
 35 45  1  0  0  0
 35 68  1  0  0  0
 36 56  1  0  0  0
 36112  1  0  0  0
 37 39  1  0  0  0
 37 47  1  0  0  0
 37 66  1  0  0  0
 37113  1  0  0  0
 38 43  2  0  0  0
 38 46  1  0  0  0
 38 47  1  0  0  0
 39 64  1  0  0  0
 39 67  2  0  0  0
 40 52  1  0  0  0
 40 53  2  0  0  0
 40 58  1  0  0  0
 41114  1  0  0  0
 41115  1  0  0  0
 41116  1  0  0  0
 41 48  1  0  0  0
 42 43  1  0  0  0
 42 66  1  0  0  0
 42117  1  0  0  0
 42118  1  0  0  0
 43 44  1  0  0  0
 44119  1  0  0  0
 45 46  2  0  0  0
 45120  1  0  0  0
 46121  1  0  0  0
 47122  1  0  0  0
 47123  1  0  0  0
 48 56  1  0  0  0
 48 65  1  0  0  0
 48124  1  0  0  0
 49 50  1  0  0  0
 49 53  1  0  0  0
 49 64  1  0  0  0
 49125  1  0  0  0
 50 51  1  0  0  0
 50126  1  0  0  0
 50127  1  0  0  0
 51 52  1  0  0  0
 51128  1  0  0  0
 51129  1  0  0  0
 52130  1  0  0  0
 52131  1  0  0  0
 53 54  1  0  0  0
 54 55  2  0  0  0
 54132  1  0  0  0
 55 57  1  0  0  0
 55133  1  0  0  0
 56 69  2  0  0  0
 57 58  2  0  0  0
 57134  1  0  0  0
 58135  1  0  0  0
 59 60  1  0  0  0
 59 61  1  0  0  0
 59 62  1  0  0  0
 60136  1  0  0  0
 60137  1  0  0  0
 60138  1  0  0  0
 61139  1  0  0  0
 61140  1  0  0  0
 61141  1  0  0  0
 62142  1  0  0  0
 62143  1  0  0  0
 62144  1  0  0  0
 63 65  1  0  0  0
 63145  1  0  0  0
 63146  1  0  0  0
 63147  1  0  0  0
 64148  1  0  0  0
 65149  1  0  0  0
 68 86  1  0  0  0
 71 72  2  0  0  0
 71 74  1  0  0  0
 71150  1  0  0  0
 72 75  1  0  0  0
 72151  1  0  0  0
 73 75  2  0  0  0
 73 76  1  0  0  0
 73152  1  0  0  0
 74 76  2  0  0  0
 74 83  1  0  0  0
 75 89  1  0  0  0
 76 90  1  0  0  0
 77 78  2  0  0  0
 77 86  1  0  0  0
 77153  1  0  0  0
 78 87  1  0  0  0
 78 83  1  0  0  0
 79 81  1  0  0  0
 79 83  1  0  0  0
 79154  1  0  0  0
 79155  1  0  0  0
 80 82  1  0  0  0
 80 83  1  0  0  0
 80156  1  0  0  0
 80157  1  0  0  0
 81 88  1  0  0  0
 81158  1  0  0  0
 81159  1  0  0  0
 82 88  1  0  0  0
 82160  1  0  0  0
 82161  1  0  0  0
 84162  1  0  0  0
 84163  1  0  0  0
 84164  1  0  0  0
 84 87  1  0  0  0
 85 87  1  0  0  0
 85165  1  0  0  0
 85166  1  0  0  0
 85167  1  0  0  0
 86168  1  0  0  0
 86169  1  0  0  0
 87170  1  0  0  0
M  ISO  4   1 100  68 101  86 101  88 100
M  END
> <chiral flag>
0

> <version>
0

> <s_m_source_file>
/data/baiqing/PycharmProjects/Reinvent-master-3.2/result/LINK_invent/BTK/process_docking_weight1_custom_sum_contain_oxygen_bond_distance_aromatic_linkinvent_7_9_3/rearranged_h_0023.sdf

> <i_m_source_file_index>
75

> <r_mmod_Potential_Energy-OPLS-2005>
1205.71081542969

> <r_mmod_Stretch_Energy-OPLS-2005>
433.320373535156

> <r_mmod_Bend_Energy-OPLS-2005>
401.059753417969

> <r_mmod_Torsional_Energy-OPLS-2005>
360.2646484375

> <r_mmod_Improper_Torsional_Energy-OPLS-2005>
13.2949905395508

> <r_mmod_Van_der_Waal_Energy-OPLS-2005>
147.740005493164

> <r_mmod_Electrostatic_Energy-OPLS-2005>
-295.809509277344

> <r_mmod_Solvation_Energy-OPLS-2005>
-185.706741333008

> <b_mmod_Minimization_Converged-OPLS-2005>
0

> <r_mmod_RMS_Derivative-OPLS-2005>
3.40304470062256

$$$$
75
                    3D
 Structure written by MMmdl.
166174  0  0  1  0            999 V2000
  -30.5300  -14.9605   20.4304 C   0  0  0  0  0  0
  -30.4464  -12.5956   19.5065 C   0  0  0  0  0  0
  -29.5275  -12.5311   18.2640 C   0  0  0  0  0  0
  -28.0605  -12.3108   18.6818 C   0  0  0  0  0  0
  -27.6312  -13.2462   19.8421 C   0  0  2  0  0  0
  -28.6709  -13.2747   20.9826 C   0  0  0  0  0  0
  -25.2457  -13.8223   20.5720 C   0  0  0  0  0  0
  -24.1779  -13.0460   20.9232 C   0  0  0  0  0  0
  -24.6397  -11.6929   20.8769 C   0  0  0  0  0  0
  -23.9095  -10.4302   21.0418 C   0  0  0  0  0  0
  -24.3636   -9.4213   21.9199 C   0  0  0  0  0  0
  -23.6301   -8.2249   22.0765 C   0  0  0  0  0  0
  -22.4279   -8.0294   21.3548 C   0  0  0  0  0  0
  -21.9918   -9.0281   20.4652 C   0  0  0  0  0  0
  -22.7265  -10.2154   20.3072 C   0  0  0  0  0  0
  -21.6850   -6.0737   22.5279 C   0  0  0  0  0  0
  -21.4013   -6.5639   23.8218 C   0  0  0  0  0  0
  -21.3661   -5.6789   24.9179 C   0  0  0  0  0  0
  -21.6051   -4.3056   24.7220 C   0  0  0  0  0  0
  -21.8815   -3.8145   23.4342 C   0  0  0  0  0  0
  -21.9193   -4.6963   22.3402 C   0  0  0  0  0  0
  -22.7794  -13.5221   21.1891 C   0  0  0  0  0  0
  -22.1657   -4.2155   21.0980 F   0  0  0  0  0  0
  -21.5630   -3.4548   25.7735 F   0  0  0  0  0  0
  -29.9510  -13.6912   20.3918 N   0  0  0  0  0  0
  -26.2886  -12.9448   20.3253 N   0  0  0  0  0  0
  -25.9325  -11.6582   20.5743 N   0  0  0  0  0  0
  -22.0443  -12.8213   22.0436 N   0  0  0  0  0  0
  -25.4130  -15.1959   20.4116 N   0  0  0  0  0  0
  -31.7245  -15.0395   20.1232 O   0  0  0  0  0  0
  -21.6639   -6.8891   21.4241 O   0  0  0  0  0  0
  -22.3460  -14.5535   20.6747 O   0  0  0  0  0  0
  -24.6492  -31.8432   23.1884 C   0  0  0  0  0  0
  -25.9262  -32.4664   23.8287 C   0  0  1  0  0  0
  -27.2037  -27.0932   20.1668 C   0  0  0  0  0  0
  -25.6003  -33.8486   24.2182 N   0  0  0  0  0  0
  -23.4513  -30.4679   21.5346 C   0  0  2  0  0  0
  -24.9004  -28.9009   20.1081 C   0  0  0  0  0  0
  -22.7598  -29.4563   22.4829 C   0  0  0  0  0  0
  -18.0351  -28.1364   22.8418 C   0  0  0  0  0  0
  -24.1502  -36.7235   23.2633 C   0  0  0  0  0  0
  -26.0139  -30.7042   21.3989 C   0  0  0  0  0  0
  -26.0824  -29.3168   20.7335 C   0  0  0  0  0  0
  -27.2327  -28.4322   20.7470 C   0  0  0  0  0  0
  -26.0001  -26.8179   19.4780 C   0  0  0  0  0  0
  -24.8754  -27.6613   19.4638 C   0  0  0  0  0  0
  -23.6791  -29.8064   20.1526 C   0  0  0  0  0  0
  -25.4125  -36.3003   24.0300 C   0  0  1  0  0  0
  -20.5946  -28.3739   23.1205 C   0  0  2  0  0  0
  -20.6843  -26.9439   22.5371 C   0  0  0  0  0  0
  -19.5847  -26.6371   21.5159 C   0  0  0  0  0  0
  -18.1999  -26.7941   22.1494 C   0  0  0  0  0  0
  -19.1581  -28.8855   23.2822 C   0  0  0  0  0  0
  -18.9460  -30.1441   23.8849 C   0  0  0  0  0  0
  -17.6446  -30.6531   24.0538 C   0  0  0  0  0  0
  -25.9095  -34.9387   23.5043 C   0  0  0  0  0  0
  -16.5363  -29.9013   23.6280 C   0  0  0  0  0  0
  -16.7327  -28.6438   23.0299 C   0  0  0  0  0  0
  -26.4568  -31.6553   25.0748 C   0  0  0  0  0  0
  -25.3733  -31.3792   26.1428 C   0  0  0  0  0  0
  -27.0409  -30.2915   24.6395 C   0  0  0  0  0  0
  -27.6080  -32.4337   25.7526 C   0  0  0  0  0  0
  -27.5569  -37.1775   24.8463 C   0  0  0  0  0  0
  -21.4279  -29.3087   22.3599 N   0  0  0  0  0  0
  -26.4282  -37.3719   23.9399 N   0  0  0  0  0  0
  -24.7239  -31.0257   22.0949 N   0  0  0  0  0  0
  -23.4231  -28.8097   23.2972 O   0  0  0  0  0  0
  -28.2262  -26.0534   20.2745 O   0  0  0  0  0  0
  -26.5688  -34.8890   22.4635 O   0  0  0  0  0  0
  -23.5599  -32.1335   23.7078 O   0  0  0  0  0  0
  -28.1870  -20.7046   22.2615 C   0  0  0  0  0  0
  -27.9407  -19.6361   23.0561 C   0  0  0  0  0  0
  -28.5036  -18.4914   22.4293 C   0  0  0  0  0  0
  -29.1352  -18.8562   21.2489 C   0  0  0  0  0  0
  -27.1797  -19.6845   24.3579 C   0  0  0  0  0  0
  -28.3702  -17.1076   23.0336 C   0  0  0  0  0  0
  -26.5636  -23.3643   18.2058 C   0  0  0  0  0  0
  -26.7584  -24.1790   21.0326 C   0  0  0  0  0  0
  -29.9154  -17.6955   20.3820 C   0  0  0  0  0  0
  -27.7546  -24.2579   18.6027 C   0  0  0  0  0  0
  -29.0647  -23.2366   20.5767 C   0  0  0  0  0  0
  -29.0889  -21.5651   20.1386 C   0  0  0  0  0  0
  -27.9825  -24.4838   20.1278 C   0  0  1  0  0  0
  -28.8928  -20.3511   21.1292 N   0  0  0  0  0  0
  -29.7291  -16.1261   20.6061 N   0  0  0  0  0  0
  -31.4800  -12.7554   19.1946 H   0  0  0  0  0  0
  -30.4435  -11.6437   20.0390 H   0  0  0  0  0  0
  -29.8480  -11.7328   17.5936 H   0  0  0  0  0  0
  -29.6124  -13.4585   17.6965 H   0  0  0  0  0  0
  -27.9598  -11.2713   18.9959 H   0  0  0  0  0  0
  -27.3973  -12.4335   17.8264 H   0  0  0  0  0  0
  -27.5971  -14.2484   19.4145 H   0  0  0  0  0  0
  -28.7580  -12.2975   21.4597 H   0  0  0  0  0  0
  -28.3673  -13.9723   21.7647 H   0  0  0  0  0  0
  -25.2801   -9.5657   22.4757 H   0  0  0  0  0  0
  -24.0013   -7.4622   22.7474 H   0  0  0  0  0  0
  -21.0857   -8.8816   19.8947 H   0  0  0  0  0  0
  -22.3761  -10.9690   19.6167 H   0  0  0  0  0  0
  -21.2008   -7.6151   23.9717 H   0  0  0  0  0  0
  -21.1478   -6.0527   25.9085 H   0  0  0  0  0  0
  -22.0590   -2.7606   23.2850 H   0  0  0  0  0  0
  -22.4083  -11.9901   22.4854 H   0  0  0  0  0  0
  -21.1044  -13.1195   22.2636 H   0  0  0  0  0  0
  -24.6446  -15.8466   20.5314 H   0  0  0  0  0  0
  -26.2454  -15.6332   20.0397 H   0  0  0  0  0  0
  -26.7338  -32.5236   23.1018 H   0  0  0  0  0  0
  -25.0118  -33.9590   25.0307 H   0  0  0  0  0  0
  -22.7542  -31.2949   21.3843 H   0  0  0  0  0  0
  -23.3760  -35.9572   23.3280 H   0  0  0  0  0  0
  -24.3605  -36.8880   22.2056 H   0  0  0  0  0  0
  -23.7266  -37.6421   23.6697 H   0  0  0  0  0  0
  -26.1864  -31.4625   20.6347 H   0  0  0  0  0  0
  -26.8801  -30.7459   22.0480 H   0  0  0  0  0  0
  -28.1240  -28.7491   21.2695 H   0  0  0  0  0  0
  -25.8549  -25.8842   18.9758 H   0  0  0  0  0  0
  -23.9760  -27.3299   18.9632 H   0  0  0  0  0  0
  -23.8173  -30.5863   19.4041 H   0  0  0  0  0  0
  -22.7928  -29.2543   19.8358 H   0  0  0  0  0  0
  -25.1310  -36.1809   25.0784 H   0  0  0  0  0  0
  -21.0040  -28.3312   24.1317 H   0  0  0  0  0  0
  -20.5759  -26.2319   23.3580 H   0  0  0  0  0  0
  -21.6714  -26.7496   22.1152 H   0  0  0  0  0  0
  -19.7024  -25.6261   21.1224 H   0  0  0  0  0  0
  -19.6811  -27.3154   20.6669 H   0  0  0  0  0  0
  -17.4339  -26.6850   21.3783 H   0  0  0  0  0  0
  -18.0266  -26.0028   22.8811 H   0  0  0  0  0  0
  -19.7918  -30.7272   24.2225 H   0  0  0  0  0  0
  -17.4975  -31.6174   24.5190 H   0  0  0  0  0  0
  -15.5338  -30.2873   23.7563 H   0  0  0  0  0  0
  -15.8773  -28.0707   22.6986 H   0  0  0  0  0  0
  -24.5940  -30.7080   25.7796 H   0  0  0  0  0  0
  -24.8897  -32.2994   26.4723 H   0  0  0  0  0  0
  -25.8025  -30.9081   27.0283 H   0  0  0  0  0  0
  -26.3053  -29.6649   24.1335 H   0  0  0  0  0  0
  -27.3896  -29.7205   25.5017 H   0  0  0  0  0  0
  -27.9027  -30.4089   23.9816 H   0  0  0  0  0  0
  -27.2652  -33.3671   26.2014 H   0  0  0  0  0  0
  -28.3942  -32.6853   25.0389 H   0  0  0  0  0  0
  -28.0709  -31.8524   26.5509 H   0  0  0  0  0  0
  -28.2562  -38.0093   24.7493 H   0  0  0  0  0  0
  -28.1083  -36.2615   24.6299 H   0  0  0  0  0  0
  -27.2295  -37.1429   25.8869 H   0  0  0  0  0  0
  -20.9473  -29.8795   21.6788 H   0  0  0  0  0  0
  -26.0124  -38.2761   24.1435 H   0  0  0  0  0  0
  -27.8766  -21.7276   22.4177 H   0  0  0  0  0  0
  -26.3058  -19.0331   24.3158 H   0  0  0  0  0  0
  -26.8408  -20.7000   24.5618 H   0  0  0  0  0  0
  -27.8101  -19.3669   25.1888 H   0  0  0  0  0  0
  -27.7260  -16.4842   22.4127 H   0  0  0  0  0  0
  -27.9091  -17.1411   24.0201 H   0  0  0  0  0  0
  -29.3364  -16.6174   23.1521 H   0  0  0  0  0  0
  -26.5827  -23.1747   17.1337 H   0  0  0  0  0  0
  -25.6032  -23.8264   18.4301 H   0  0  0  0  0  0
  -26.5703  -22.3983   18.7054 H   0  0  0  0  0  0
  -25.8176  -24.6098   20.7081 H   0  0  0  0  0  0
  -26.9342  -24.5459   22.0441 H   0  0  0  0  0  0
  -26.5753  -23.1072   21.1093 H   0  0  0  0  0  0
  -30.9861  -17.8826   20.4713 H   0  0  0  0  0  0
  -29.6992  -17.8706   19.3283 H   0  0  0  0  0  0
  -27.6705  -25.2075   18.0746 H   0  0  0  0  0  0
  -28.6602  -23.8267   18.1751 H   0  0  0  0  0  0
  -29.2226  -23.3011   21.6538 H   0  0  0  0  0  0
  -30.0197  -23.5962   20.1942 H   0  0  0  0  0  0
  -30.0412  -21.3860   19.6383 H   0  0  0  0  0  0
  -28.3615  -21.4113   19.3466 H   0  0  0  0  0  0
  -28.7770  -15.8895   20.8323 H   0  0  0  0  0  0
  1 25  1  0  0  0
  1 30  2  0  0  0
  1 85  1  0  0  0
  2  3  1  0  0  0
  2 25  1  0  0  0
  2 86  1  0  0  0
  2 87  1  0  0  0
  3  4  1  0  0  0
  3 88  1  0  0  0
  3 89  1  0  0  0
  4  5  1  0  0  0
  4 90  1  0  0  0
  4 91  1  0  0  0
  5  6  1  0  0  0
  5 26  1  0  0  0
  5 92  1  0  0  0
  6 25  1  0  0  0
  6 93  1  0  0  0
  6 94  1  0  0  0
  7  8  2  0  0  0
  7 26  1  0  0  0
  7 29  1  0  0  0
  8  9  1  0  0  0
  8 22  1  0  0  0
  9 10  1  0  0  0
  9 27  2  0  0  0
 10 11  2  0  0  0
 10 15  1  0  0  0
 11 12  1  0  0  0
 11 95  1  0  0  0
 12 13  2  0  0  0
 12 96  1  0  0  0
 13 14  1  0  0  0
 13 31  1  0  0  0
 14 15  2  0  0  0
 14 97  1  0  0  0
 15 98  1  0  0  0
 16 17  2  0  0  0
 16 21  1  0  0  0
 16 31  1  0  0  0
 17 18  1  0  0  0
 17 99  1  0  0  0
 18 19  2  0  0  0
 18100  1  0  0  0
 19 20  1  0  0  0
 19 24  1  0  0  0
 20 21  2  0  0  0
 20101  1  0  0  0
 21 23  1  0  0  0
 22 28  1  0  0  0
 22 32  2  0  0  0
 26 27  1  0  0  0
 28102  1  0  0  0
 28103  1  0  0  0
 29104  1  0  0  0
 29105  1  0  0  0
 33 34  1  0  0  0
 33 66  1  0  0  0
 33 70  2  0  0  0
 34 36  1  0  0  0
 34 59  1  0  0  0
 34106  1  0  0  0
 35 44  2  0  0  0
 35 45  1  0  0  0
 35 68  1  0  0  0
 36 56  1  0  0  0
 36107  1  0  0  0
 37 39  1  0  0  0
 37 47  1  0  0  0
 37 66  1  0  0  0
 37108  1  0  0  0
 38 43  2  0  0  0
 38 46  1  0  0  0
 38 47  1  0  0  0
 39 64  1  0  0  0
 39 67  2  0  0  0
 40 52  1  0  0  0
 40 53  2  0  0  0
 40 58  1  0  0  0
 41109  1  0  0  0
 41110  1  0  0  0
 41111  1  0  0  0
 41 48  1  0  0  0
 42 43  1  0  0  0
 42 66  1  0  0  0
 42112  1  0  0  0
 42113  1  0  0  0
 43 44  1  0  0  0
 44114  1  0  0  0
 45 46  2  0  0  0
 45115  1  0  0  0
 46116  1  0  0  0
 47117  1  0  0  0
 47118  1  0  0  0
 48 56  1  0  0  0
 48 65  1  0  0  0
 48119  1  0  0  0
 49 50  1  0  0  0
 49 53  1  0  0  0
 49 64  1  0  0  0
 49120  1  0  0  0
 50 51  1  0  0  0
 50121  1  0  0  0
 50122  1  0  0  0
 51 52  1  0  0  0
 51123  1  0  0  0
 51124  1  0  0  0
 52125  1  0  0  0
 52126  1  0  0  0
 53 54  1  0  0  0
 54 55  2  0  0  0
 54127  1  0  0  0
 55 57  1  0  0  0
 55128  1  0  0  0
 56 69  2  0  0  0
 57 58  2  0  0  0
 57129  1  0  0  0
 58130  1  0  0  0
 59 60  1  0  0  0
 59 61  1  0  0  0
 59 62  1  0  0  0
 60131  1  0  0  0
 60132  1  0  0  0
 60133  1  0  0  0
 61134  1  0  0  0
 61135  1  0  0  0
 61136  1  0  0  0
 62137  1  0  0  0
 62138  1  0  0  0
 62139  1  0  0  0
 63 65  1  0  0  0
 63140  1  0  0  0
 63141  1  0  0  0
 63142  1  0  0  0
 64143  1  0  0  0
 65144  1  0  0  0
 68 83  1  0  0  0
 71 72  2  0  0  0
 71 84  1  0  0  0
 71145  1  0  0  0
 72 73  1  0  0  0
 72 75  1  0  0  0
 73 74  2  0  0  0
 73 76  1  0  0  0
 74 79  1  0  0  0
 74 84  1  0  0  0
 75146  1  0  0  0
 75147  1  0  0  0
 75148  1  0  0  0
 76149  1  0  0  0
 76150  1  0  0  0
 76151  1  0  0  0
 77 80  1  0  0  0
 77152  1  0  0  0
 77153  1  0  0  0
 77154  1  0  0  0
 78155  1  0  0  0
 78156  1  0  0  0
 78157  1  0  0  0
 78 83  1  0  0  0
 79 85  1  0  0  0
 79158  1  0  0  0
 79159  1  0  0  0
 80 83  1  0  0  0
 80160  1  0  0  0
 80161  1  0  0  0
 81 82  1  0  0  0
 81 83  1  0  0  0
 81162  1  0  0  0
 81163  1  0  0  0
 82 84  1  0  0  0
 82164  1  0  0  0
 82165  1  0  0  0
 85166  1  0  0  0
M  ISO  4   1 100  68 101  83 101  85 100
M  END
> <chiral flag>
0

> <version>
0

> <s_m_source_file>
/data/baiqing/PycharmProjects/Reinvent-master-3.2/result/LINK_invent/BTK/process_docking_weight1_custom_sum_contain_oxygen_bond_distance_aromatic_linkinvent_7_9_3/rearranged_h_0023.sdf

> <i_m_source_file_index>
76

> <r_mmod_Potential_Energy-OPLS-2005>
608.723327636719

> <r_mmod_Stretch_Energy-OPLS-2005>
338.721618652344

> <r_mmod_Bend_Energy-OPLS-2005>
342.819854736328

> <r_mmod_Torsional_Energy-OPLS-2005>
242.730728149414

> <r_mmod_Improper_Torsional_Energy-OPLS-2005>
5.12554454803467

> <r_mmod_Van_der_Waal_Energy-OPLS-2005>
126.886764526367

> <r_mmod_Electrostatic_Energy-OPLS-2005>
-461.790344238281

> <r_mmod_Solvation_Energy-OPLS-2005>
-206.353012084961

> <b_mmod_Minimization_Converged-OPLS-2005>
0

> <r_mmod_RMS_Derivative-OPLS-2005>
3.46098875999451

$$$$
76
                    3D
 Structure written by MMmdl.
186194  0  0  1  0            999 V2000
  -30.7904  -14.3094   20.7383 C   0  0  0  0  0  0
  -30.4131  -12.2866   19.3759 C   0  0  0  0  0  0
  -29.4766  -12.5467   18.1840 C   0  0  0  0  0  0
  -28.0042  -12.3940   18.6042 C   0  0  0  0  0  0
  -27.6691  -13.1984   19.8862 C   0  0  2  0  0  0
  -28.7053  -12.9108   20.9934 C   0  0  0  0  0  0
  -25.2628  -13.8148   20.5683 C   0  0  0  0  0  0
  -24.1864  -13.0445   20.9175 C   0  0  0  0  0  0
  -24.6389  -11.6898   20.8730 C   0  0  0  0  0  0
  -23.9051  -10.4292   21.0398 C   0  0  0  0  0  0
  -24.3608   -9.4213   21.9183 C   0  0  0  0  0  0
  -23.6283   -8.2246   22.0756 C   0  0  0  0  0  0
  -22.4271   -8.0284   21.3538 C   0  0  0  0  0  0
  -21.9905   -9.0259   20.4645 C   0  0  0  0  0  0
  -22.7226  -10.2132   20.3053 C   0  0  0  0  0  0
  -21.6854   -6.0734   22.5276 C   0  0  0  0  0  0
  -21.4017   -6.5639   23.8209 C   0  0  0  0  0  0
  -21.3658   -5.6794   24.9172 C   0  0  0  0  0  0
  -21.6042   -4.3056   24.7222 C   0  0  0  0  0  0
  -21.8822   -3.8145   23.4346 C   0  0  0  0  0  0
  -21.9196   -4.6962   22.3401 C   0  0  0  0  0  0
  -22.7883  -13.5244   21.1830 C   0  0  0  0  0  0
  -22.1664   -4.2147   21.0978 F   0  0  0  0  0  0
  -21.5629   -3.4539   25.7735 F   0  0  0  0  0  0
  -30.0495  -13.2056   20.4635 N   0  0  0  0  0  0
  -26.3064  -12.9303   20.3417 N   0  0  0  0  0  0
  -25.9311  -11.6469   20.5761 N   0  0  0  0  0  0
  -22.0517  -12.8240   22.0379 N   0  0  0  0  0  0
  -25.4358  -15.1871   20.4075 N   0  0  0  0  0  0
  -31.7916  -14.6318   20.0863 O   0  0  0  0  0  0
  -21.6643   -6.8879   21.4238 O   0  0  0  0  0  0
  -22.3582  -14.5563   20.6691 O   0  0  0  0  0  0
  -24.6118  -31.8710   23.2129 C   0  0  0  0  0  0
  -25.9022  -32.4835   23.8411 C   0  0  1  0  0  0
  -27.2317  -27.4638   20.0979 C   0  0  0  0  0  0
  -25.5886  -33.8629   24.2343 N   0  0  0  0  0  0
  -23.3984  -30.4944   21.5535 C   0  0  2  0  0  0
  -24.8469  -28.9638   20.1154 C   0  0  0  0  0  0
  -22.7396  -29.4672   22.5022 C   0  0  0  0  0  0
  -18.0274  -28.1361   22.8507 C   0  0  0  0  0  0
  -24.1480  -36.7310   23.2642 C   0  0  0  0  0  0
  -25.9237  -30.8448   21.3643 C   0  0  0  0  0  0
  -26.0042  -29.4805   20.7143 C   0  0  0  0  0  0
  -27.2024  -28.7359   20.7066 C   0  0  0  0  0  0
  -26.0681  -26.9576   19.4860 C   0  0  0  0  0  0
  -24.8720  -27.6996   19.4994 C   0  0  0  0  0  0
  -23.6065  -29.8267   20.1681 C   0  0  0  0  0  0
  -25.4096  -36.3120   24.0341 C   0  0  1  0  0  0
  -20.5855  -28.3664   23.1314 C   0  0  2  0  0  0
  -20.6760  -26.9404   22.5411 C   0  0  0  0  0  0
  -19.5745  -26.6393   21.5202 C   0  0  0  0  0  0
  -18.1918  -26.7919   22.1616 C   0  0  0  0  0  0
  -19.1521  -28.8831   23.2905 C   0  0  0  0  0  0
  -18.9452  -30.1430   23.8926 C   0  0  0  0  0  0
  -17.6460  -30.6593   24.0564 C   0  0  0  0  0  0
  -25.9022  -34.9481   23.5137 C   0  0  0  0  0  0
  -16.5349  -29.9085   23.6336 C   0  0  0  0  0  0
  -16.7270  -28.6486   23.0382 C   0  0  0  0  0  0
  -26.4470  -31.6616   25.0732 C   0  0  0  0  0  0
  -25.3744  -31.3660   26.1483 C   0  0  0  0  0  0
  -27.0321  -30.3076   24.6074 C   0  0  0  0  0  0
  -27.6052  -32.4335   25.7492 C   0  0  0  0  0  0
  -27.5574  -37.1799   24.8467 C   0  0  0  0  0  0
  -21.4125  -29.3039   22.3725 N   0  0  0  0  0  0
  -26.4297  -37.3791   23.9409 N   0  0  0  0  0  0
  -24.6623  -31.0819   22.1034 N   0  0  0  0  0  0
  -23.4173  -28.8227   23.3061 O   0  0  0  0  0  0
  -28.3779  -26.7127   20.0729 O   0  0  0  0  0  0
  -26.5601  -34.8946   22.4715 O   0  0  0  0  0  0
  -23.5316  -32.1460   23.7547 O   0  0  0  0  0  0
  -28.0684  -21.1375   20.5233 C   0  0  0  0  0  0
  -28.8061  -19.3291   22.0949 C   0  0  0  0  0  0
  -28.2382  -20.1939   19.3211 C   0  0  2  0  0  0
  -29.0337  -18.3591   20.9049 C   0  0  1  0  0  0
  -29.3329  -19.1037   19.5583 C   0  0  0  0  0  0
  -27.7322  -20.4271   21.8603 C   0  0  2  0  0  0
  -28.4194  -21.0434   18.0419 C   0  0  0  0  0  0
  -30.7505  -19.7260   19.5817 C   0  0  0  0  0  0
  -29.2469  -18.0951   18.3831 C   0  0  0  0  0  0
  -26.3239  -19.7825   21.8284 C   0  0  0  0  0  0
  -26.1604  -22.9546   24.0650 C   0  0  0  0  0  0
  -31.4621  -14.8266   23.0094 C   0  0  0  0  0  0
  -30.1136  -17.3050   21.2827 C   0  0  0  0  0  0
  -27.6839  -24.7858   21.4466 C   0  0  0  0  0  0
  -28.0675  -23.8616   22.6207 C   0  0  0  0  0  0
  -29.5568  -16.0404   21.9695 C   0  0  0  0  0  0
  -28.6357  -25.9902   21.2776 C   0  0  0  0  0  0
  -27.0684  -22.6943   22.8503 C   0  0  1  0  0  0
  -30.4975  -14.9083   21.9126 N   0  0  0  0  0  0
  -27.7849  -21.3957   22.9981 N   0  3  0  0  0  0
  -31.4547  -12.3938   19.0675 H   0  0  0  0  0  0
  -30.3149  -11.2559   19.7197 H   0  0  0  0  0  0
  -29.7072  -11.8651   17.3640 H   0  0  0  0  0  0
  -29.6436  -13.5553   17.8006 H   0  0  0  0  0  0
  -27.8107  -11.3333   18.7690 H   0  0  0  0  0  0
  -27.3483  -12.7001   17.7894 H   0  0  0  0  0  0
  -27.7350  -14.2571   19.6335 H   0  0  0  0  0  0
  -28.6646  -11.8612   21.2875 H   0  0  0  0  0  0
  -28.4587  -13.4658   21.8976 H   0  0  0  0  0  0
  -25.2746   -9.5703   22.4760 H   0  0  0  0  0  0
  -23.9999   -7.4648   22.7475 H   0  0  0  0  0  0
  -21.0840   -8.8771   19.8941 H   0  0  0  0  0  0
  -22.3681  -10.9681   19.6168 H   0  0  0  0  0  0
  -21.2011   -7.6148   23.9713 H   0  0  0  0  0  0
  -21.1479   -6.0522   25.9076 H   0  0  0  0  0  0
  -22.0602   -2.7606   23.2847 H   0  0  0  0  0  0
  -22.4113  -11.9883   22.4752 H   0  0  0  0  0  0
  -21.1126  -13.1271   22.2568 H   0  0  0  0  0  0
  -24.6660  -15.8396   20.5022 H   0  0  0  0  0  0
  -26.2900  -15.6207   20.0824 H   0  0  0  0  0  0
  -26.7093  -32.5587   23.1184 H   0  0  0  0  0  0
  -25.0046  -33.9791   25.0495 H   0  0  0  0  0  0
  -22.6885  -31.3120   21.4157 H   0  0  0  0  0  0
  -23.3754  -35.9635   23.3333 H   0  0  0  0  0  0
  -24.3564  -36.8906   22.2051 H   0  0  0  0  0  0
  -23.7225  -37.6513   23.6657 H   0  0  0  0  0  0
  -26.0265  -31.6153   20.5978 H   0  0  0  0  0  0
  -26.8110  -30.8980   21.9823 H   0  0  0  0  0  0
  -28.1008  -29.1302   21.1617 H   0  0  0  0  0  0
  -26.0890  -25.9874   19.0097 H   0  0  0  0  0  0
  -23.9818  -27.2994   19.0340 H   0  0  0  0  0  0
  -23.7094  -30.6039   19.4099 H   0  0  0  0  0  0
  -22.7293  -29.2439   19.8788 H   0  0  0  0  0  0
  -25.1259  -36.2010   25.0832 H   0  0  0  0  0  0
  -20.9923  -28.3265   24.1440 H   0  0  0  0  0  0
  -20.5650  -26.2276   23.3592 H   0  0  0  0  0  0
  -21.6628  -26.7446   22.1198 H   0  0  0  0  0  0
  -19.6904  -25.6305   21.1238 H   0  0  0  0  0  0
  -19.6703  -27.3209   20.6737 H   0  0  0  0  0  0
  -17.4173  -26.6711   21.4026 H   0  0  0  0  0  0
  -18.0303  -26.0035   22.8984 H   0  0  0  0  0  0
  -19.7938  -30.7210   24.2332 H   0  0  0  0  0  0
  -17.5037  -31.6283   24.5141 H   0  0  0  0  0  0
  -15.5353  -30.2992   23.7643 H   0  0  0  0  0  0
  -15.8671  -28.0802   22.7103 H   0  0  0  0  0  0
  -24.5954  -30.6968   25.7813 H   0  0  0  0  0  0
  -24.8874  -32.2766   26.4975 H   0  0  0  0  0  0
  -25.8112  -30.8823   27.0229 H   0  0  0  0  0  0
  -26.2863  -29.6792   24.1185 H   0  0  0  0  0  0
  -27.4185  -29.7344   25.4511 H   0  0  0  0  0  0
  -27.8649  -30.4410   23.9159 H   0  0  0  0  0  0
  -27.2697  -33.3648   26.2070 H   0  0  0  0  0  0
  -28.3860  -32.6863   25.0308 H   0  0  0  0  0  0
  -28.0723  -31.8455   26.5399 H   0  0  0  0  0  0
  -28.2583  -38.0101   24.7520 H   0  0  0  0  0  0
  -28.1077  -36.2627   24.6304 H   0  0  0  0  0  0
  -27.2293  -37.1461   25.8872 H   0  0  0  0  0  0
  -20.9289  -29.8742   21.6928 H   0  0  0  0  0  0
  -26.0207  -38.2882   24.1424 H   0  0  0  0  0  0
  -27.2827  -21.8437   20.2625 H   0  0  0  0  0  0
  -28.9721  -21.7374   20.6364 H   0  0  0  0  0  0
  -29.7601  -19.8004   22.3327 H   0  0  0  0  0  0
  -28.5449  -18.7454   22.9784 H   0  0  0  0  0  0
  -27.2873  -19.6753   19.1906 H   0  0  0  0  0  0
  -28.1007  -17.8187   20.7455 H   0  0  0  0  0  0
  -29.3450  -21.6175   18.0591 H   0  0  0  0  0  0
  -27.6087  -21.7656   17.9407 H   0  0  0  0  0  0
  -28.4099  -20.4424   17.1348 H   0  0  0  0  0  0
  -30.8710  -20.4616   20.3749 H   0  0  0  0  0  0
  -30.9927  -20.2189   18.6415 H   0  0  0  0  0  0
  -31.5264  -18.9758   19.7294 H   0  0  0  0  0  0
  -28.2429  -17.6810   18.2873 H   0  0  0  0  0  0
  -29.9251  -17.2498   18.4748 H   0  0  0  0  0  0
  -29.5005  -18.5582   17.4304 H   0  0  0  0  0  0
  -26.2285  -19.0161   21.0621 H   0  0  0  0  0  0
  -25.5418  -20.5159   21.6345 H   0  0  0  0  0  0
  -26.0872  -19.2992   22.7763 H   0  0  0  0  0  0
  -25.5862  -23.8707   23.9250 H   0  0  0  0  0  0
  -26.7308  -23.0596   24.9870 H   0  0  0  0  0  0
  -25.4428  -22.1438   24.2022 H   0  0  0  0  0  0
  -31.0160  -15.1151   23.9608 H   0  0  0  0  0  0
  -32.3238  -15.4669   22.8199 H   0  0  0  0  0  0
  -31.8245  -13.8028   23.1224 H   0  0  0  0  0  0
  -30.8775  -17.7538   21.9185 H   0  0  0  0  0  0
  -30.6633  -17.0029   20.3984 H   0  0  0  0  0  0
  -26.6638  -25.1425   21.5937 H   0  0  0  0  0  0
  -27.6824  -24.2080   20.5213 H   0  0  0  0  0  0
  -28.1650  -24.4524   23.5347 H   0  0  0  0  0  0
  -29.0689  -23.4759   22.4293 H   0  0  0  0  0  0
  -28.6246  -15.7410   21.4907 H   0  0  0  0  0  0
  -29.2898  -16.2656   23.0031 H   0  0  0  0  0  0
  -29.6681  -25.6405   21.2319 H   0  0  0  0  0  0
  -28.5752  -26.6482   22.1456 H   0  0  0  0  0  0
  -26.3809  -22.6405   22.0076 H   0  0  0  0  0  0
  -28.7504  -21.6099   23.1941 H   0  0  0  0  0  0
  -27.4233  -20.9313   23.8171 H   0  0  0  0  0  0
  1 25  1  0  0  0
  1 30  2  0  0  0
  1 89  1  0  0  0
  2  3  1  0  0  0
  2 25  1  0  0  0
  2 91  1  0  0  0
  2 92  1  0  0  0
  3  4  1  0  0  0
  3 93  1  0  0  0
  3 94  1  0  0  0
  4  5  1  0  0  0
  4 95  1  0  0  0
  4 96  1  0  0  0
  5  6  1  0  0  0
  5 26  1  0  0  0
  5 97  1  0  0  0
  6 25  1  0  0  0
  6 98  1  0  0  0
  6 99  1  0  0  0
  7  8  2  0  0  0
  7 26  1  0  0  0
  7 29  1  0  0  0
  8  9  1  0  0  0
  8 22  1  0  0  0
  9 10  1  0  0  0
  9 27  2  0  0  0
 10 11  2  0  0  0
 10 15  1  0  0  0
 11 12  1  0  0  0
 11100  1  0  0  0
 12 13  2  0  0  0
 12101  1  0  0  0
 13 14  1  0  0  0
 13 31  1  0  0  0
 14 15  2  0  0  0
 14102  1  0  0  0
 15103  1  0  0  0
 16 17  2  0  0  0
 16 21  1  0  0  0
 16 31  1  0  0  0
 17 18  1  0  0  0
 17104  1  0  0  0
 18 19  2  0  0  0
 18105  1  0  0  0
 19 20  1  0  0  0
 19 24  1  0  0  0
 20 21  2  0  0  0
 20106  1  0  0  0
 21 23  1  0  0  0
 22 28  1  0  0  0
 22 32  2  0  0  0
 26 27  1  0  0  0
 28107  1  0  0  0
 28108  1  0  0  0
 29109  1  0  0  0
 29110  1  0  0  0
 33 34  1  0  0  0
 33 66  1  0  0  0
 33 70  2  0  0  0
 34 36  1  0  0  0
 34 59  1  0  0  0
 34111  1  0  0  0
 35 44  2  0  0  0
 35 45  1  0  0  0
 35 68  1  0  0  0
 36 56  1  0  0  0
 36112  1  0  0  0
 37 39  1  0  0  0
 37 47  1  0  0  0
 37 66  1  0  0  0
 37113  1  0  0  0
 38 43  2  0  0  0
 38 46  1  0  0  0
 38 47  1  0  0  0
 39 64  1  0  0  0
 39 67  2  0  0  0
 40 52  1  0  0  0
 40 53  2  0  0  0
 40 58  1  0  0  0
 41114  1  0  0  0
 41115  1  0  0  0
 41116  1  0  0  0
 41 48  1  0  0  0
 42 43  1  0  0  0
 42 66  1  0  0  0
 42117  1  0  0  0
 42118  1  0  0  0
 43 44  1  0  0  0
 44119  1  0  0  0
 45 46  2  0  0  0
 45120  1  0  0  0
 46121  1  0  0  0
 47122  1  0  0  0
 47123  1  0  0  0
 48 56  1  0  0  0
 48 65  1  0  0  0
 48124  1  0  0  0
 49 50  1  0  0  0
 49 53  1  0  0  0
 49 64  1  0  0  0
 49125  1  0  0  0
 50 51  1  0  0  0
 50126  1  0  0  0
 50127  1  0  0  0
 51 52  1  0  0  0
 51128  1  0  0  0
 51129  1  0  0  0
 52130  1  0  0  0
 52131  1  0  0  0
 53 54  1  0  0  0
 54 55  2  0  0  0
 54132  1  0  0  0
 55 57  1  0  0  0
 55133  1  0  0  0
 56 69  2  0  0  0
 57 58  2  0  0  0
 57134  1  0  0  0
 58135  1  0  0  0
 59 60  1  0  0  0
 59 61  1  0  0  0
 59 62  1  0  0  0
 60136  1  0  0  0
 60137  1  0  0  0
 60138  1  0  0  0
 61139  1  0  0  0
 61140  1  0  0  0
 61141  1  0  0  0
 62142  1  0  0  0
 62143  1  0  0  0
 62144  1  0  0  0
 63 65  1  0  0  0
 63145  1  0  0  0
 63146  1  0  0  0
 63147  1  0  0  0
 64148  1  0  0  0
 65149  1  0  0  0
 68 87  1  0  0  0
 71 73  1  0  0  0
 71 76  1  0  0  0
 71150  1  0  0  0
 71151  1  0  0  0
 72 74  1  0  0  0
 72 76  1  0  0  0
 72152  1  0  0  0
 72153  1  0  0  0
 73 75  1  0  0  0
 73 77  1  0  0  0
 73154  1  0  0  0
 74 75  1  0  0  0
 74 83  1  0  0  0
 74155  1  0  0  0
 75 78  1  0  0  0
 75 79  1  0  0  0
 76 80  1  0  0  0
 76 90  1  0  0  0
 77156  1  0  0  0
 77157  1  0  0  0
 77158  1  0  0  0
 78159  1  0  0  0
 78160  1  0  0  0
 78161  1  0  0  0
 79162  1  0  0  0
 79163  1  0  0  0
 79164  1  0  0  0
 80165  1  0  0  0
 80166  1  0  0  0
 80167  1  0  0  0
 81168  1  0  0  0
 81169  1  0  0  0
 81170  1  0  0  0
 81 88  1  0  0  0
 82 89  1  0  0  0
 82171  1  0  0  0
 82172  1  0  0  0
 82173  1  0  0  0
 83 86  1  0  0  0
 83174  1  0  0  0
 83175  1  0  0  0
 84 85  1  0  0  0
 84 87  1  0  0  0
 84176  1  0  0  0
 84177  1  0  0  0
 85 88  1  0  0  0
 85178  1  0  0  0
 85179  1  0  0  0
 86 89  1  0  0  0
 86180  1  0  0  0
 86181  1  0  0  0
 87182  1  0  0  0
 87183  1  0  0  0
 88 90  1  0  0  0
 88184  1  0  0  0
 90185  1  0  0  0
 90186  1  0  0  0
M  CHG  1  90   1
M  ISO  4   1 100  68 101  87 101  89 100
M  END
> <chiral flag>
0

> <version>
0

> <s_m_source_file>
/data/baiqing/PycharmProjects/Reinvent-master-3.2/result/LINK_invent/BTK/process_docking_weight1_custom_sum_contain_oxygen_bond_distance_aromatic_linkinvent_7_9_3/rearranged_h_0023.sdf

> <i_m_source_file_index>
77

> <r_mmod_Potential_Energy-OPLS-2005>
71.6773071289062

> <r_mmod_Stretch_Energy-OPLS-2005>
40.2241516113281

> <r_mmod_Bend_Energy-OPLS-2005>
109.424438476562

> <r_mmod_Torsional_Energy-OPLS-2005>
385.685577392578

> <r_mmod_Improper_Torsional_Energy-OPLS-2005>
6.08133602142334

> <r_mmod_Van_der_Waal_Energy-OPLS-2005>
143.048477172852

> <r_mmod_Electrostatic_Energy-OPLS-2005>
-208.650772094727

> <r_mmod_Solvation_Energy-OPLS-2005>
-411.858703613281

> <b_mmod_Minimization_Converged-OPLS-2005>
0

> <r_mmod_RMS_Derivative-OPLS-2005>
2.56549525260925

$$$$
77
                    3D
 Structure written by MMmdl.
161169  0  0  1  0            999 V2000
  -30.4649  -15.1514   20.3232 C   0  0  0  0  0  0
  -30.4438  -12.7193   19.4749 C   0  0  0  0  0  0
  -29.5222  -12.5126   18.2502 C   0  0  0  0  0  0
  -28.0569  -12.2891   18.6785 C   0  0  0  0  0  0
  -27.6064  -13.2498   19.8093 C   0  0  2  0  0  0
  -28.6603  -13.3975   20.9206 C   0  0  0  0  0  0
  -25.2414  -13.8053   20.5916 C   0  0  0  0  0  0
  -24.1736  -13.0308   20.9325 C   0  0  0  0  0  0
  -24.6366  -11.6820   20.8739 C   0  0  0  0  0  0
  -23.9028  -10.4245   21.0365 C   0  0  0  0  0  0
  -24.3604   -9.4194   21.9157 C   0  0  0  0  0  0
  -23.6292   -8.2231   22.0729 C   0  0  0  0  0  0
  -22.4282   -8.0261   21.3519 C   0  0  0  0  0  0
  -21.9898   -9.0217   20.4610 C   0  0  0  0  0  0
  -22.7197  -10.2108   20.3013 C   0  0  0  0  0  0
  -21.6874   -6.0729   22.5260 C   0  0  0  0  0  0
  -21.4016   -6.5638   23.8189 C   0  0  0  0  0  0
  -21.3671   -5.6797   24.9152 C   0  0  0  0  0  0
  -21.6054   -4.3056   24.7215 C   0  0  0  0  0  0
  -21.8835   -3.8140   23.4328 C   0  0  0  0  0  0
  -21.9215   -4.6956   22.3389 C   0  0  0  0  0  0
  -22.7767  -13.5090   21.1983 C   0  0  0  0  0  0
  -22.1697   -4.2145   21.0971 F   0  0  0  0  0  0
  -21.5631   -3.4548   25.7730 F   0  0  0  0  0  0
  -29.8881  -13.8632   20.2578 N   0  0  0  0  0  0
  -26.2814  -12.9342   20.3235 N   0  0  0  0  0  0
  -25.9289  -11.6465   20.5679 N   0  0  0  0  0  0
  -22.0410  -12.8067   22.0508 N   0  0  0  0  0  0
  -25.4034  -15.1751   20.4604 N   0  0  0  0  0  0
  -31.7018  -15.1415   20.4052 O   0  0  0  0  0  0
  -21.6642   -6.8867   21.4224 O   0  0  0  0  0  0
  -22.3470  -14.5413   20.6829 O   0  0  0  0  0  0
  -24.6552  -31.8321   23.1766 C   0  0  0  0  0  0
  -25.9280  -32.4622   23.8208 C   0  0  1  0  0  0
  -27.2298  -27.0233   20.1638 C   0  0  0  0  0  0
  -25.5985  -33.8433   24.2133 N   0  0  0  0  0  0
  -23.4663  -30.4437   21.5257 C   0  0  2  0  0  0
  -24.9198  -28.8473   20.1099 C   0  0  0  0  0  0
  -22.7629  -29.4472   22.4824 C   0  0  0  0  0  0
  -18.0306  -28.1397   22.8458 C   0  0  0  0  0  0
  -24.1494  -36.7215   23.2644 C   0  0  0  0  0  0
  -26.0302  -30.6645   21.3958 C   0  0  0  0  0  0
  -26.0996  -29.2658   20.7360 C   0  0  0  0  0  0
  -27.2516  -28.3744   20.7392 C   0  0  0  0  0  0
  -26.0203  -26.7295   19.4964 C   0  0  0  0  0  0
  -24.9004  -27.5967   19.4707 C   0  0  0  0  0  0
  -23.7005  -29.7635   20.1495 C   0  0  0  0  0  0
  -25.4138  -36.2996   24.0308 C   0  0  1  0  0  0
  -20.5926  -28.3727   23.1199 C   0  0  2  0  0  0
  -20.6794  -26.9418   22.5402 C   0  0  0  0  0  0
  -19.5775  -26.6367   21.5206 C   0  0  0  0  0  0
  -18.1949  -26.7928   22.1608 C   0  0  0  0  0  0
  -19.1570  -28.8881   23.2810 C   0  0  0  0  0  0
  -18.9485  -30.1477   23.8836 C   0  0  0  0  0  0
  -17.6490  -30.6585   24.0545 C   0  0  0  0  0  0
  -25.9096  -34.9371   23.5034 C   0  0  0  0  0  0
  -16.5375  -29.9071   23.6350 C   0  0  0  0  0  0
  -16.7296  -28.6495   23.0352 C   0  0  0  0  0  0
  -26.4564  -31.6521   25.0690 C   0  0  0  0  0  0
  -25.3715  -31.3732   26.1356 C   0  0  0  0  0  0
  -27.0485  -30.2912   24.6365 C   0  0  0  0  0  0
  -27.6061  -32.4313   25.7493 C   0  0  0  0  0  0
  -27.5584  -37.1766   24.8464 C   0  0  0  0  0  0
  -21.4308  -29.3036   22.3567 N   0  0  0  0  0  0
  -26.4293  -37.3729   23.9410 N   0  0  0  0  0  0
  -24.7377  -31.0044   22.0868 N   0  0  0  0  0  0
  -23.4205  -28.8039   23.3039 O   0  0  0  0  0  0
  -28.2690  -25.9862   20.2418 O   0  0  0  0  0  0
  -26.5685  -34.8891   22.4622 O   0  0  0  0  0  0
  -23.5640  -32.1264   23.6910 O   0  0  0  0  0  0
  -29.5336  -16.2370   18.5058 C   0  0  0  0  0  0
  -30.0621  -19.1277   19.1516 C   0  0  0  0  0  0
  -28.6824  -18.7889   21.0626 C   0  0  0  0  0  0
  -30.1144  -20.7411   19.4903 C   0  0  0  0  0  0
  -28.7391  -20.4225   21.3405 C   0  0  0  0  0  0
  -29.8529  -17.9716   20.2762 C   0  0  1  0  0  0
  -29.3660  -23.2742   22.0181 C   0  0  0  0  0  0
  -28.2166  -16.5925   17.7945 C   0  0  0  0  0  0
  -28.0589  -24.3974   20.0539 C   0  0  0  0  0  0
  -29.0918  -23.0597   20.5161 C   0  0  2  0  0  0
  -29.7618  -16.3634   19.8547 N   0  0  0  0  0  0
  -28.9419  -21.4407   20.1944 N   0  3  1  0  0  0
  -30.4061  -15.8177   17.7301 O   0  0  0  0  0  0
  -26.8781  -17.1823   18.7900 Cl  0  0  0  0  0  0
  -31.4619  -12.9253   19.1423 H   0  0  0  0  0  0
  -30.4981  -11.8162   20.0848 H   0  0  0  0  0  0
  -29.8669  -11.6689   17.6507 H   0  0  0  0  0  0
  -29.5825  -13.3790   17.5921 H   0  0  0  0  0  0
  -27.9644  -11.2569   19.0183 H   0  0  0  0  0  0
  -27.3940  -12.3832   17.8181 H   0  0  0  0  0  0
  -27.5152  -14.2216   19.3302 H   0  0  0  0  0  0
  -28.8113  -12.4589   21.4563 H   0  0  0  0  0  0
  -28.3331  -14.1370   21.6538 H   0  0  0  0  0  0
  -25.2755   -9.5721   22.4699 H   0  0  0  0  0  0
  -24.0036   -7.4634   22.7439 H   0  0  0  0  0  0
  -21.0840   -8.8689   19.8911 H   0  0  0  0  0  0
  -22.3621  -10.9631   19.6112 H   0  0  0  0  0  0
  -21.1996   -7.6146   23.9674 H   0  0  0  0  0  0
  -21.1485   -6.0532   25.9054 H   0  0  0  0  0  0
  -22.0607   -2.7599   23.2818 H   0  0  0  0  0  0
  -22.4065  -11.9749   22.4906 H   0  0  0  0  0  0
  -21.1009  -13.1037   22.2690 H   0  0  0  0  0  0
  -24.6306  -15.8209   20.5594 H   0  0  0  0  0  0
  -26.2324  -15.6208   20.0854 H   0  0  0  0  0  0
  -26.7339  -32.5182   23.0917 H   0  0  0  0  0  0
  -25.0132  -33.9528   25.0280 H   0  0  0  0  0  0
  -22.7754  -31.2729   21.3606 H   0  0  0  0  0  0
  -23.3786  -35.9516   23.3274 H   0  0  0  0  0  0
  -24.3575  -36.8887   22.2066 H   0  0  0  0  0  0
  -23.7210  -37.6379   23.6712 H   0  0  0  0  0  0
  -26.2052  -31.4140   20.6229 H   0  0  0  0  0  0
  -26.8917  -30.7126   22.0505 H   0  0  0  0  0  0
  -28.1485  -28.6940   21.2511 H   0  0  0  0  0  0
  -25.9084  -25.7724   19.0091 H   0  0  0  0  0  0
  -24.0035  -27.2705   18.9631 H   0  0  0  0  0  0
  -23.8469  -30.5356   19.3923 H   0  0  0  0  0  0
  -22.8125  -29.2123   19.8357 H   0  0  0  0  0  0
  -25.1330  -36.1823   25.0803 H   0  0  0  0  0  0
  -20.9999  -28.3330   24.1328 H   0  0  0  0  0  0
  -20.5680  -26.2347   23.3634 H   0  0  0  0  0  0
  -21.6660  -26.7412   22.1210 H   0  0  0  0  0  0
  -19.6947  -25.6266   21.1259 H   0  0  0  0  0  0
  -19.6719  -27.3155   20.6719 H   0  0  0  0  0  0
  -17.4228  -26.6655   21.4004 H   0  0  0  0  0  0
  -18.0346  -26.0077   22.9010 H   0  0  0  0  0  0
  -19.7965  -30.7305   24.2169 H   0  0  0  0  0  0
  -17.5040  -31.6257   24.5162 H   0  0  0  0  0  0
  -15.5373  -30.2958   23.7710 H   0  0  0  0  0  0
  -15.8688  -28.0807   22.7097 H   0  0  0  0  0  0
  -24.5898  -30.7083   25.7658 H   0  0  0  0  0  0
  -24.8899  -32.2922   26.4713 H   0  0  0  0  0  0
  -25.7964  -30.8934   27.0184 H   0  0  0  0  0  0
  -26.3165  -29.6557   24.1367 H   0  0  0  0  0  0
  -27.4072  -29.7278   25.4991 H   0  0  0  0  0  0
  -27.9069  -30.4132   23.9753 H   0  0  0  0  0  0
  -27.2638  -33.3647   26.1984 H   0  0  0  0  0  0
  -28.3929  -32.6823   25.0360 H   0  0  0  0  0  0
  -28.0678  -31.8494   26.5484 H   0  0  0  0  0  0
  -28.2566  -38.0097   24.7560 H   0  0  0  0  0  0
  -28.1119  -36.2628   24.6248 H   0  0  0  0  0  0
  -27.2294  -37.1351   25.8860 H   0  0  0  0  0  0
  -20.9554  -29.8741   21.6713 H   0  0  0  0  0  0
  -26.0150  -38.2792   24.1428 H   0  0  0  0  0  0
  -31.0019  -18.8961   18.6508 H   0  0  0  0  0  0
  -29.3022  -19.0251   18.3783 H   0  0  0  0  0  0
  -27.7163  -18.6461   20.6012 H   0  0  0  0  0  0
  -28.5683  -18.3070   22.0340 H   0  0  0  0  0  0
  -30.3069  -21.2725   18.5587 H   0  0  0  0  0  0
  -30.9999  -20.9117   20.1022 H   0  0  0  0  0  0
  -29.5478  -20.5687   22.0558 H   0  0  0  0  0  0
  -27.8307  -20.7067   21.8699 H   0  0  0  0  0  0
  -30.7279  -18.0062   20.9258 H   0  0  0  0  0  0
  -29.6014  -24.3198   22.2154 H   0  0  0  0  0  0
  -30.2150  -22.6920   22.3773 H   0  0  0  0  0  0
  -28.4928  -23.0269   22.6232 H   0  0  0  0  0  0
  -27.8549  -15.7010   17.2841 H   0  0  0  0  0  0
  -28.4058  -17.3383   17.0246 H   0  0  0  0  0  0
  -27.1056  -24.1970   20.5406 H   0  0  0  0  0  0
  -27.8634  -24.2690   18.9889 H   0  0  0  0  0  0
  -30.0303  -23.3049   20.0156 H   0  0  0  0  0  0
  -28.1512  -21.3509   19.5716 H   0  0  0  0  0  0
  1 25  1  0  0  0
  1 30  2  0  0  0
  1 81  1  0  0  0
  2  3  1  0  0  0
  2 25  1  0  0  0
  2 85  1  0  0  0
  2 86  1  0  0  0
  3  4  1  0  0  0
  3 87  1  0  0  0
  3 88  1  0  0  0
  4  5  1  0  0  0
  4 89  1  0  0  0
  4 90  1  0  0  0
  5  6  1  0  0  0
  5 26  1  0  0  0
  5 91  1  0  0  0
  6 25  1  0  0  0
  6 92  1  0  0  0
  6 93  1  0  0  0
  7  8  2  0  0  0
  7 26  1  0  0  0
  7 29  1  0  0  0
  8  9  1  0  0  0
  8 22  1  0  0  0
  9 10  1  0  0  0
  9 27  2  0  0  0
 10 11  2  0  0  0
 10 15  1  0  0  0
 11 12  1  0  0  0
 11 94  1  0  0  0
 12 13  2  0  0  0
 12 95  1  0  0  0
 13 14  1  0  0  0
 13 31  1  0  0  0
 14 15  2  0  0  0
 14 96  1  0  0  0
 15 97  1  0  0  0
 16 17  2  0  0  0
 16 21  1  0  0  0
 16 31  1  0  0  0
 17 18  1  0  0  0
 17 98  1  0  0  0
 18 19  2  0  0  0
 18 99  1  0  0  0
 19 20  1  0  0  0
 19 24  1  0  0  0
 20 21  2  0  0  0
 20100  1  0  0  0
 21 23  1  0  0  0
 22 28  1  0  0  0
 22 32  2  0  0  0
 26 27  1  0  0  0
 28101  1  0  0  0
 28102  1  0  0  0
 29103  1  0  0  0
 29104  1  0  0  0
 33 34  1  0  0  0
 33 66  1  0  0  0
 33 70  2  0  0  0
 34 36  1  0  0  0
 34 59  1  0  0  0
 34105  1  0  0  0
 35 44  2  0  0  0
 35 45  1  0  0  0
 35 68  1  0  0  0
 36 56  1  0  0  0
 36106  1  0  0  0
 37 39  1  0  0  0
 37 47  1  0  0  0
 37 66  1  0  0  0
 37107  1  0  0  0
 38 43  2  0  0  0
 38 46  1  0  0  0
 38 47  1  0  0  0
 39 64  1  0  0  0
 39 67  2  0  0  0
 40 52  1  0  0  0
 40 53  2  0  0  0
 40 58  1  0  0  0
 41108  1  0  0  0
 41109  1  0  0  0
 41110  1  0  0  0
 41 48  1  0  0  0
 42 43  1  0  0  0
 42 66  1  0  0  0
 42111  1  0  0  0
 42112  1  0  0  0
 43 44  1  0  0  0
 44113  1  0  0  0
 45 46  2  0  0  0
 45114  1  0  0  0
 46115  1  0  0  0
 47116  1  0  0  0
 47117  1  0  0  0
 48 56  1  0  0  0
 48 65  1  0  0  0
 48118  1  0  0  0
 49 50  1  0  0  0
 49 53  1  0  0  0
 49 64  1  0  0  0
 49119  1  0  0  0
 50 51  1  0  0  0
 50120  1  0  0  0
 50121  1  0  0  0
 51 52  1  0  0  0
 51122  1  0  0  0
 51123  1  0  0  0
 52124  1  0  0  0
 52125  1  0  0  0
 53 54  1  0  0  0
 54 55  2  0  0  0
 54126  1  0  0  0
 55 57  1  0  0  0
 55127  1  0  0  0
 56 69  2  0  0  0
 57 58  2  0  0  0
 57128  1  0  0  0
 58129  1  0  0  0
 59 60  1  0  0  0
 59 61  1  0  0  0
 59 62  1  0  0  0
 60130  1  0  0  0
 60131  1  0  0  0
 60132  1  0  0  0
 61133  1  0  0  0
 61134  1  0  0  0
 61135  1  0  0  0
 62136  1  0  0  0
 62137  1  0  0  0
 62138  1  0  0  0
 63 65  1  0  0  0
 63139  1  0  0  0
 63140  1  0  0  0
 63141  1  0  0  0
 64142  1  0  0  0
 65143  1  0  0  0
 68 79  1  0  0  0
 71 78  1  0  0  0
 71 81  1  0  0  0
 71 83  2  0  0  0
 72 74  1  0  0  0
 72 76  1  0  0  0
 72144  1  0  0  0
 72145  1  0  0  0
 73 75  1  0  0  0
 73 76  1  0  0  0
 73146  1  0  0  0
 73147  1  0  0  0
 74148  1  0  0  0
 74149  1  0  0  0
 74 82  1  0  0  0
 75 82  1  0  0  0
 75150  1  0  0  0
 75151  1  0  0  0
 76 81  1  0  0  0
 76152  1  0  0  0
 77153  1  0  0  0
 77154  1  0  0  0
 77155  1  0  0  0
 77 80  1  0  0  0
 78 84  1  0  0  0
 78156  1  0  0  0
 78157  1  0  0  0
 79 80  1  0  0  0
 79158  1  0  0  0
 79159  1  0  0  0
 80 82  1  0  0  0
 80160  1  0  0  0
 82161  1  0  0  0
M  CHG  1  82   1
M  ISO  4   1 100  68 101  79 101  81 100
M  END
> <chiral flag>
0

> <version>
0

> <s_m_source_file>
/data/baiqing/PycharmProjects/Reinvent-master-3.2/result/LINK_invent/BTK/process_docking_weight1_custom_sum_contain_oxygen_bond_distance_aromatic_linkinvent_7_9_3/rearranged_h_0023.sdf

> <i_m_source_file_index>
78

> <r_mmod_Potential_Energy-OPLS-2005>
1164.62438964844

> <r_mmod_Stretch_Energy-OPLS-2005>
433.914184570312

> <r_mmod_Bend_Energy-OPLS-2005>
416.063201904297

> <r_mmod_Torsional_Energy-OPLS-2005>
375.189483642578

> <r_mmod_Improper_Torsional_Energy-OPLS-2005>
17.0462322235107

> <r_mmod_Van_der_Waal_Energy-OPLS-2005>
132.038452148438

> <r_mmod_Electrostatic_Energy-OPLS-2005>
-135.229431152344

> <r_mmod_Solvation_Energy-OPLS-2005>
-426.186340332031

> <b_mmod_Minimization_Converged-OPLS-2005>
0

> <r_mmod_RMS_Derivative-OPLS-2005>
3.18736100196838

$$$$
78
                    3D
 Structure written by MMmdl.
186194  0  0  1  0            999 V2000
  -30.7663  -14.4135   20.5880 C   0  0  0  0  0  0
  -30.4065  -12.2791   19.4192 C   0  0  0  0  0  0
  -29.4879  -12.5075   18.2034 C   0  0  0  0  0  0
  -28.0097  -12.3803   18.6150 C   0  0  0  0  0  0
  -27.6641  -13.2161   19.8771 C   0  0  2  0  0  0
  -28.7058  -12.9989   21.0002 C   0  0  0  0  0  0
  -25.2597  -13.8204   20.5698 C   0  0  0  0  0  0
  -24.1845  -13.0446   20.9185 C   0  0  0  0  0  0
  -24.6415  -11.6929   20.8735 C   0  0  0  0  0  0
  -23.9076  -10.4301   21.0408 C   0  0  0  0  0  0
  -24.3625   -9.4210   21.9184 C   0  0  0  0  0  0
  -23.6295   -8.2245   22.0755 C   0  0  0  0  0  0
  -22.4275   -8.0287   21.3543 C   0  0  0  0  0  0
  -21.9923   -9.0258   20.4637 C   0  0  0  0  0  0
  -22.7254  -10.2136   20.3044 C   0  0  0  0  0  0
  -21.6856   -6.0733   22.5274 C   0  0  0  0  0  0
  -21.4011   -6.5638   23.8203 C   0  0  0  0  0  0
  -21.3656   -5.6791   24.9171 C   0  0  0  0  0  0
  -21.6044   -4.3054   24.7224 C   0  0  0  0  0  0
  -21.8818   -3.8143   23.4349 C   0  0  0  0  0  0
  -21.9195   -4.6961   22.3401 C   0  0  0  0  0  0
  -22.7855  -13.5237   21.1824 C   0  0  0  0  0  0
  -22.1660   -4.2144   21.0981 F   0  0  0  0  0  0
  -21.5631   -3.4541   25.7742 F   0  0  0  0  0  0
  -30.0457  -13.2685   20.4490 N   0  0  0  0  0  0
  -26.3047  -12.9387   20.3389 N   0  0  0  0  0  0
  -25.9350  -11.6534   20.5769 N   0  0  0  0  0  0
  -22.0485  -12.8221   22.0387 N   0  0  0  0  0  0
  -25.4290  -15.1914   20.4096 N   0  0  0  0  0  0
  -31.8565  -14.5563   20.0332 O   0  0  0  0  0  0
  -21.6634   -6.8887   21.4236 O   0  0  0  0  0  0
  -22.3541  -14.5536   20.6682 O   0  0  0  0  0  0
  -24.6109  -31.8671   23.2094 C   0  0  0  0  0  0
  -25.8986  -32.4832   23.8416 C   0  0  1  0  0  0
  -27.2456  -27.4686   20.0617 C   0  0  0  0  0  0
  -25.5823  -33.8637   24.2318 N   0  0  0  0  0  0
  -23.3994  -30.4815   21.5553 C   0  0  2  0  0  0
  -24.8425  -28.9420   20.1246 C   0  0  0  0  0  0
  -22.7385  -29.4655   22.5086 C   0  0  0  0  0  0
  -18.0257  -28.1408   22.8495 C   0  0  0  0  0  0
  -24.1469  -36.7377   23.2625 C   0  0  0  0  0  0
  -25.9180  -30.8363   21.3525 C   0  0  0  0  0  0
  -25.9960  -29.4626   20.7222 C   0  0  0  0  0  0
  -27.1934  -28.7186   20.7115 C   0  0  0  0  0  0
  -26.0692  -26.9392   19.4870 C   0  0  0  0  0  0
  -24.8678  -27.6720   19.5216 C   0  0  0  0  0  0
  -23.5999  -29.7988   20.1757 C   0  0  0  0  0  0
  -25.4076  -36.3138   24.0325 C   0  0  1  0  0  0
  -20.5844  -28.3693   23.1339 C   0  0  2  0  0  0
  -20.6777  -26.9437   22.5435 C   0  0  0  0  0  0
  -19.5763  -26.6413   21.5234 C   0  0  0  0  0  0
  -18.1926  -26.7959   22.1616 C   0  0  0  0  0  0
  -19.1501  -28.8866   23.2909 C   0  0  0  0  0  0
  -18.9433  -30.1478   23.8918 C   0  0  0  0  0  0
  -17.6433  -30.6611   24.0598 C   0  0  0  0  0  0
  -25.8995  -34.9490   23.5123 C   0  0  0  0  0  0
  -16.5330  -29.9120   23.6343 C   0  0  0  0  0  0
  -16.7244  -28.6544   23.0346 C   0  0  0  0  0  0
  -26.4422  -31.6622   25.0749 C   0  0  0  0  0  0
  -25.3686  -31.3698   26.1512 C   0  0  0  0  0  0
  -27.0290  -30.3102   24.6083 C   0  0  0  0  0  0
  -27.6008  -32.4329   25.7521 C   0  0  0  0  0  0
  -27.5570  -37.1834   24.8445 C   0  0  0  0  0  0
  -21.4122  -29.3055   22.3777 N   0  0  0  0  0  0
  -26.4273  -37.3808   23.9389 N   0  0  0  0  0  0
  -24.6634  -31.0756   22.0995 N   0  0  0  0  0  0
  -23.4154  -28.8219   23.3144 O   0  0  0  0  0  0
  -28.4579  -26.8236   19.9972 O   0  0  0  0  0  0
  -26.5593  -34.8933   22.4712 O   0  0  0  0  0  0
  -23.5302  -32.1434   23.7475 O   0  0  0  0  0  0
  -29.8705  -19.0564   22.0429 C   0  0  0  0  0  0
  -31.7055  -17.3428   20.8178 C   0  0  0  0  0  0
  -31.0460  -19.5963   21.4835 C   0  0  0  0  0  0
  -29.6130  -17.6684   22.0126 C   0  0  0  0  0  0
  -31.9817  -18.7223   20.8793 C   0  0  0  0  0  0
  -30.5216  -16.7879   21.3733 C   0  0  0  0  0  0
  -28.3489  -17.1494   22.6767 C   0  0  0  0  0  0
  -33.2902  -19.2187   20.2764 C   0  0  0  0  0  0
  -32.2495  -29.1596   15.9173 C   0  0  0  0  0  0
  -31.2810  -21.1017   21.5561 C   0  0  0  0  0  0
  -31.1889  -21.7829   20.1786 C   0  0  0  0  0  0
  -31.8916  -23.1481   20.1323 C   0  0  0  0  0  0
  -32.0179  -23.6649   18.6930 C   0  0  0  0  0  0
  -32.6513  -25.0611   18.5990 C   0  0  0  0  0  0
  -32.5899  -25.6042   17.1609 C   0  0  0  0  0  0
  -29.5165  -28.3607   17.6192 C   0  0  0  0  0  0
  -28.8045  -26.9914   17.5165 C   0  0  0  0  0  0
  -32.9987  -27.0856   17.0008 C   0  0  0  0  0  0
  -31.0338  -28.3298   17.9013 C   0  0  0  0  0  0
  -28.7890  -26.1162   18.7981 C   0  0  0  0  0  0
  -30.1930  -15.3917   21.3135 N   0  0  0  0  0  0
  -31.8413  -27.9708   16.7041 N   0  3  1  0  0  0
  -31.4536  -12.3367   19.1156 H   0  0  0  0  0  0
  -30.2754  -11.2698   19.8116 H   0  0  0  0  0  0
  -29.7177  -11.7881   17.4160 H   0  0  0  0  0  0
  -29.6721  -13.4955   17.7770 H   0  0  0  0  0  0
  -27.8096  -11.3248   18.8006 H   0  0  0  0  0  0
  -27.3629  -12.6682   17.7858 H   0  0  0  0  0  0
  -27.7084  -14.2656   19.5845 H   0  0  0  0  0  0
  -28.6662  -11.9687   21.3573 H   0  0  0  0  0  0
  -28.4712  -13.6160   21.8688 H   0  0  0  0  0  0
  -25.2772   -9.5676   22.4763 H   0  0  0  0  0  0
  -23.9992   -7.4639   22.7487 H   0  0  0  0  0  0
  -21.0853   -8.8776   19.8947 H   0  0  0  0  0  0
  -22.3721  -10.9669   19.6145 H   0  0  0  0  0  0
  -21.1993   -7.6144   23.9708 H   0  0  0  0  0  0
  -21.1478   -6.0522   25.9072 H   0  0  0  0  0  0
  -22.0603   -2.7607   23.2849 H   0  0  0  0  0  0
  -22.4096  -11.9879   22.4769 H   0  0  0  0  0  0
  -21.1082  -13.1231   22.2541 H   0  0  0  0  0  0
  -24.6614  -15.8467   20.5115 H   0  0  0  0  0  0
  -26.2792  -15.6283   20.0756 H   0  0  0  0  0  0
  -26.7068  -32.5580   23.1201 H   0  0  0  0  0  0
  -24.9894  -33.9839   25.0414 H   0  0  0  0  0  0
  -22.6855  -31.2940   21.4108 H   0  0  0  0  0  0
  -23.3700  -35.9744   23.3281 H   0  0  0  0  0  0
  -24.3544  -36.9040   22.2043 H   0  0  0  0  0  0
  -23.7269  -37.6581   23.6685 H   0  0  0  0  0  0
  -25.9946  -31.5779   20.5555 H   0  0  0  0  0  0
  -26.8195  -30.9247   21.9469 H   0  0  0  0  0  0
  -28.0887  -29.1141   21.1672 H   0  0  0  0  0  0
  -26.0723  -25.9701   19.0122 H   0  0  0  0  0  0
  -23.9736  -27.2544   19.0833 H   0  0  0  0  0  0
  -23.6817  -30.5621   19.4016 H   0  0  0  0  0  0
  -22.7319  -29.1964   19.9053 H   0  0  0  0  0  0
  -25.1234  -36.2012   25.0819 H   0  0  0  0  0  0
  -20.9888  -28.3276   24.1479 H   0  0  0  0  0  0
  -20.5734  -26.2293   23.3613 H   0  0  0  0  0  0
  -21.6630  -26.7521   22.1192 H   0  0  0  0  0  0
  -19.6923  -25.6328   21.1261 H   0  0  0  0  0  0
  -19.6720  -27.3210   20.6759 H   0  0  0  0  0  0
  -17.4203  -26.6715   21.4021 H   0  0  0  0  0  0
  -18.0317  -26.0100   22.9002 H   0  0  0  0  0  0
  -19.7903  -30.7319   24.2283 H   0  0  0  0  0  0
  -17.4981  -31.6275   24.5233 H   0  0  0  0  0  0
  -15.5332  -30.3035   23.7672 H   0  0  0  0  0  0
  -15.8642  -28.0884   22.7052 H   0  0  0  0  0  0
  -24.5845  -30.7049   25.7859 H   0  0  0  0  0  0
  -24.8862  -32.2836   26.5013 H   0  0  0  0  0  0
  -25.8034  -30.8841   27.0261 H   0  0  0  0  0  0
  -26.2846  -29.6857   24.1119 H   0  0  0  0  0  0
  -27.4089  -29.7345   25.4539 H   0  0  0  0  0  0
  -27.8653  -30.4484   23.9211 H   0  0  0  0  0  0
  -27.2632  -33.3631   26.2109 H   0  0  0  0  0  0
  -28.3815  -32.6886   25.0339 H   0  0  0  0  0  0
  -28.0668  -31.8426   26.5435 H   0  0  0  0  0  0
  -28.2568  -38.0142   24.7483 H   0  0  0  0  0  0
  -28.1083  -36.2684   24.6260 H   0  0  0  0  0  0
  -27.2297  -37.1461   25.8846 H   0  0  0  0  0  0
  -20.9328  -29.8749   21.6945 H   0  0  0  0  0  0
  -26.0182  -38.2897   24.1364 H   0  0  0  0  0  0
  -29.1577  -19.7232   22.5070 H   0  0  0  0  0  0
  -32.4471  -16.7380   20.3226 H   0  0  0  0  0  0
  -27.8131  -17.9524   23.1844 H   0  0  0  0  0  0
  -28.5924  -16.3959   23.4264 H   0  0  0  0  0  0
  -27.6751  -16.7130   21.9400 H   0  0  0  0  0  0
  -34.0640  -18.4521   20.3314 H   0  0  0  0  0  0
  -33.6771  -20.0970   20.7905 H   0  0  0  0  0  0
  -33.1561  -19.4689   19.2238 H   0  0  0  0  0  0
  -32.7778  -28.8691   15.0088 H   0  0  0  0  0  0
  -32.9114  -29.8033   16.4971 H   0  0  0  0  0  0
  -31.3867  -29.7498   15.6110 H   0  0  0  0  0  0
  -32.2529  -21.2820   22.0182 H   0  0  0  0  0  0
  -30.5514  -21.5577   22.2285 H   0  0  0  0  0  0
  -30.1434  -21.8756   19.8801 H   0  0  0  0  0  0
  -31.6489  -21.1490   19.4233 H   0  0  0  0  0  0
  -32.8856  -23.0699   20.5745 H   0  0  0  0  0  0
  -31.3368  -23.8612   20.7442 H   0  0  0  0  0  0
  -31.0297  -23.6754   18.2319 H   0  0  0  0  0  0
  -32.6136  -22.9642   18.1057 H   0  0  0  0  0  0
  -33.6913  -25.0160   18.9243 H   0  0  0  0  0  0
  -32.1549  -25.7378   19.2933 H   0  0  0  0  0  0
  -31.5990  -25.4404   16.7347 H   0  0  0  0  0  0
  -33.2601  -24.9940   16.5522 H   0  0  0  0  0  0
  -29.0375  -28.9354   18.4120 H   0  0  0  0  0  0
  -29.3232  -28.9279   16.7068 H   0  0  0  0  0  0
  -29.2386  -26.4151   16.6994 H   0  0  0  0  0  0
  -27.7732  -27.1809   17.2136 H   0  0  0  0  0  0
  -33.6904  -27.1322   16.1596 H   0  0  0  0  0  0
  -33.5653  -27.4609   17.8536 H   0  0  0  0  0  0
  -31.2320  -27.6609   18.7356 H   0  0  0  0  0  0
  -31.3500  -29.3135   18.2544 H   0  0  0  0  0  0
  -29.7801  -25.6967   18.9530 H   0  0  0  0  0  0
  -28.1403  -25.2494   18.6564 H   0  0  0  0  0  0
  -29.3277  -15.1259   21.7564 H   0  0  0  0  0  0
  -31.2403  -27.4433   16.0913 H   0  0  0  0  0  0
  1 25  1  0  0  0
  1 30  2  0  0  0
  1 91  1  0  0  0
  2  3  1  0  0  0
  2 25  1  0  0  0
  2 93  1  0  0  0
  2 94  1  0  0  0
  3  4  1  0  0  0
  3 95  1  0  0  0
  3 96  1  0  0  0
  4  5  1  0  0  0
  4 97  1  0  0  0
  4 98  1  0  0  0
  5  6  1  0  0  0
  5 26  1  0  0  0
  5 99  1  0  0  0
  6 25  1  0  0  0
  6100  1  0  0  0
  6101  1  0  0  0
  7  8  2  0  0  0
  7 26  1  0  0  0
  7 29  1  0  0  0
  8  9  1  0  0  0
  8 22  1  0  0  0
  9 10  1  0  0  0
  9 27  2  0  0  0
 10 11  2  0  0  0
 10 15  1  0  0  0
 11 12  1  0  0  0
 11102  1  0  0  0
 12 13  2  0  0  0
 12103  1  0  0  0
 13 14  1  0  0  0
 13 31  1  0  0  0
 14 15  2  0  0  0
 14104  1  0  0  0
 15105  1  0  0  0
 16 17  2  0  0  0
 16 21  1  0  0  0
 16 31  1  0  0  0
 17 18  1  0  0  0
 17106  1  0  0  0
 18 19  2  0  0  0
 18107  1  0  0  0
 19 20  1  0  0  0
 19 24  1  0  0  0
 20 21  2  0  0  0
 20108  1  0  0  0
 21 23  1  0  0  0
 22 28  1  0  0  0
 22 32  2  0  0  0
 26 27  1  0  0  0
 28109  1  0  0  0
 28110  1  0  0  0
 29111  1  0  0  0
 29112  1  0  0  0
 33 34  1  0  0  0
 33 66  1  0  0  0
 33 70  2  0  0  0
 34 36  1  0  0  0
 34 59  1  0  0  0
 34113  1  0  0  0
 35 44  2  0  0  0
 35 45  1  0  0  0
 35 68  1  0  0  0
 36 56  1  0  0  0
 36114  1  0  0  0
 37 39  1  0  0  0
 37 47  1  0  0  0
 37 66  1  0  0  0
 37115  1  0  0  0
 38 43  2  0  0  0
 38 46  1  0  0  0
 38 47  1  0  0  0
 39 64  1  0  0  0
 39 67  2  0  0  0
 40 52  1  0  0  0
 40 53  2  0  0  0
 40 58  1  0  0  0
 41116  1  0  0  0
 41117  1  0  0  0
 41118  1  0  0  0
 41 48  1  0  0  0
 42 43  1  0  0  0
 42 66  1  0  0  0
 42119  1  0  0  0
 42120  1  0  0  0
 43 44  1  0  0  0
 44121  1  0  0  0
 45 46  2  0  0  0
 45122  1  0  0  0
 46123  1  0  0  0
 47124  1  0  0  0
 47125  1  0  0  0
 48 56  1  0  0  0
 48 65  1  0  0  0
 48126  1  0  0  0
 49 50  1  0  0  0
 49 53  1  0  0  0
 49 64  1  0  0  0
 49127  1  0  0  0
 50 51  1  0  0  0
 50128  1  0  0  0
 50129  1  0  0  0
 51 52  1  0  0  0
 51130  1  0  0  0
 51131  1  0  0  0
 52132  1  0  0  0
 52133  1  0  0  0
 53 54  1  0  0  0
 54 55  2  0  0  0
 54134  1  0  0  0
 55 57  1  0  0  0
 55135  1  0  0  0
 56 69  2  0  0  0
 57 58  2  0  0  0
 57136  1  0  0  0
 58137  1  0  0  0
 59 60  1  0  0  0
 59 61  1  0  0  0
 59 62  1  0  0  0
 60138  1  0  0  0
 60139  1  0  0  0
 60140  1  0  0  0
 61141  1  0  0  0
 61142  1  0  0  0
 61143  1  0  0  0
 62144  1  0  0  0
 62145  1  0  0  0
 62146  1  0  0  0
 63 65  1  0  0  0
 63147  1  0  0  0
 63148  1  0  0  0
 63149  1  0  0  0
 64150  1  0  0  0
 65151  1  0  0  0
 68 90  1  0  0  0
 71 73  2  0  0  0
 71 74  1  0  0  0
 71152  1  0  0  0
 72 75  2  0  0  0
 72 76  1  0  0  0
 72153  1  0  0  0
 73 75  1  0  0  0
 73 80  1  0  0  0
 74 76  2  0  0  0
 74 77  1  0  0  0
 75 78  1  0  0  0
 76 91  1  0  0  0
 77154  1  0  0  0
 77155  1  0  0  0
 77156  1  0  0  0
 78157  1  0  0  0
 78158  1  0  0  0
 78159  1  0  0  0
 79160  1  0  0  0
 79161  1  0  0  0
 79162  1  0  0  0
 79 92  1  0  0  0
 80 81  1  0  0  0
 80163  1  0  0  0
 80164  1  0  0  0
 81 82  1  0  0  0
 81165  1  0  0  0
 81166  1  0  0  0
 82 83  1  0  0  0
 82167  1  0  0  0
 82168  1  0  0  0
 83 84  1  0  0  0
 83169  1  0  0  0
 83170  1  0  0  0
 84 85  1  0  0  0
 84171  1  0  0  0
 84172  1  0  0  0
 85 88  1  0  0  0
 85173  1  0  0  0
 85174  1  0  0  0
 86 87  1  0  0  0
 86 89  1  0  0  0
 86175  1  0  0  0
 86176  1  0  0  0
 87 90  1  0  0  0
 87177  1  0  0  0
 87178  1  0  0  0
 88 92  1  0  0  0
 88179  1  0  0  0
 88180  1  0  0  0
 89 92  1  0  0  0
 89181  1  0  0  0
 89182  1  0  0  0
 90183  1  0  0  0
 90184  1  0  0  0
 91185  1  0  0  0
 92186  1  0  0  0
M  CHG  1  92   1
M  ISO  4   1 100  68 101  90 101  91 100
M  END
> <chiral flag>
0

> <version>
0

> <s_m_source_file>
/data/baiqing/PycharmProjects/Reinvent-master-3.2/result/LINK_invent/BTK/process_docking_weight1_custom_sum_contain_oxygen_bond_distance_aromatic_linkinvent_7_9_3/rearranged_h_0023.sdf

> <i_m_source_file_index>
79

> <r_mmod_Potential_Energy-OPLS-2005>
-126.720741271973

> <r_mmod_Stretch_Energy-OPLS-2005>
37.3612442016602

> <r_mmod_Bend_Energy-OPLS-2005>
113.205024719238

> <r_mmod_Torsional_Energy-OPLS-2005>
251.061370849609

> <r_mmod_Improper_Torsional_Energy-OPLS-2005>
2.48608994483948

> <r_mmod_Van_der_Waal_Energy-OPLS-2005>
157.610397338867

> <r_mmod_Electrostatic_Energy-OPLS-2005>
-278.083587646484

> <r_mmod_Solvation_Energy-OPLS-2005>
-421.614135742188

> <b_mmod_Minimization_Converged-OPLS-2005>
0

> <r_mmod_RMS_Derivative-OPLS-2005>
3.417147397995

$$$$
79
                    3D
 Structure written by MMmdl.
182192  0  0  1  0            999 V2000
  -30.5475  -14.9664   20.4642 C   0  0  0  0  0  0
  -30.4331  -12.6033   19.5025 C   0  0  0  0  0  0
  -29.5043  -12.4964   18.2707 C   0  0  0  0  0  0
  -28.0480  -12.2739   18.7081 C   0  0  0  0  0  0
  -27.6249  -13.2385   19.8435 C   0  0  2  0  0  0
  -28.6677  -13.2892   20.9795 C   0  0  0  0  0  0
  -25.2467  -13.8258   20.5726 C   0  0  0  0  0  0
  -24.1786  -13.0490   20.9265 C   0  0  0  0  0  0
  -24.6373  -11.6976   20.8848 C   0  0  0  0  0  0
  -23.9088  -10.4333   21.0481 C   0  0  0  0  0  0
  -24.3654   -9.4227   21.9225 C   0  0  0  0  0  0
  -23.6328   -8.2256   22.0773 C   0  0  0  0  0  0
  -22.4298   -8.0321   21.3560 C   0  0  0  0  0  0
  -21.9957   -9.0290   20.4649 C   0  0  0  0  0  0
  -22.7282  -10.2171   20.3083 C   0  0  0  0  0  0
  -21.6855   -6.0775   22.5292 C   0  0  0  0  0  0
  -21.3991   -6.5661   23.8226 C   0  0  0  0  0  0
  -21.3654   -5.6789   24.9179 C   0  0  0  0  0  0
  -21.6041   -4.3065   24.7214 C   0  0  0  0  0  0
  -21.8822   -3.8173   23.4327 C   0  0  0  0  0  0
  -21.9196   -4.7007   22.3393 C   0  0  0  0  0  0
  -22.7788  -13.5268   21.1934 C   0  0  0  0  0  0
  -22.1669   -4.2206   21.0969 F   0  0  0  0  0  0
  -21.5641   -3.4526   25.7720 F   0  0  0  0  0  0
  -29.9334  -13.7127   20.3710 N   0  0  0  0  0  0
  -26.2868  -12.9436   20.3308 N   0  0  0  0  0  0
  -25.9307  -11.6590   20.5866 N   0  0  0  0  0  0
  -22.0442  -12.8195   22.0457 N   0  0  0  0  0  0
  -25.4227  -15.1980   20.4123 N   0  0  0  0  0  0
  -31.7506  -15.0065   20.1867 O   0  0  0  0  0  0
  -21.6642   -6.8931   21.4264 O   0  0  0  0  0  0
  -22.3491  -14.5579   20.6838 O   0  0  0  0  0  0
  -24.6444  -31.8412   23.1894 C   0  0  0  0  0  0
  -25.9188  -32.4667   23.8289 C   0  0  1  0  0  0
  -27.2215  -27.1361   20.1473 C   0  0  0  0  0  0
  -25.5942  -33.8497   24.2194 N   0  0  0  0  0  0
  -23.4490  -30.4562   21.5397 C   0  0  2  0  0  0
  -24.8968  -28.8792   20.1156 C   0  0  0  0  0  0
  -22.7559  -29.4498   22.4927 C   0  0  0  0  0  0
  -18.0235  -28.1374   22.8415 C   0  0  0  0  0  0
  -24.1496  -36.7243   23.2661 C   0  0  0  0  0  0
  -26.0035  -30.7131   21.3859 C   0  0  0  0  0  0
  -26.0780  -29.3252   20.7271 C   0  0  0  0  0  0
  -27.2446  -28.4724   20.7133 C   0  0  0  0  0  0
  -26.0122  -26.7778   19.5224 C   0  0  0  0  0  0
  -24.8768  -27.6189   19.4981 C   0  0  0  0  0  0
  -23.6751  -29.7819   20.1599 C   0  0  0  0  0  0
  -25.4132  -36.3030   24.0323 C   0  0  1  0  0  0
  -20.5876  -28.3687   23.1249 C   0  0  2  0  0  0
  -20.6754  -26.9400   22.5417 C   0  0  0  0  0  0
  -19.5746  -26.6359   21.5198 C   0  0  0  0  0  0
  -18.1905  -26.7893   22.1586 C   0  0  0  0  0  0
  -19.1513  -28.8851   23.2792 C   0  0  0  0  0  0
  -18.9459  -30.1432   23.8818 C   0  0  0  0  0  0
  -17.6492  -30.6579   24.0527 C   0  0  0  0  0  0
  -25.9122  -34.9400   23.5099 C   0  0  0  0  0  0
  -16.5359  -29.9087   23.6350 C   0  0  0  0  0  0
  -16.7229  -28.6511   23.0339 C   0  0  0  0  0  0
  -26.4503  -31.6545   25.0734 C   0  0  0  0  0  0
  -25.3711  -31.3685   26.1446 C   0  0  0  0  0  0
  -27.0403  -30.2964   24.6300 C   0  0  0  0  0  0
  -27.6048  -32.4347   25.7489 C   0  0  0  0  0  0
  -27.5568  -37.1751   24.8462 C   0  0  0  0  0  0
  -21.4253  -29.3021   22.3635 N   0  0  0  0  0  0
  -26.4282  -37.3746   23.9427 N   0  0  0  0  0  0
  -24.7195  -31.0236   22.0958 N   0  0  0  0  0  0
  -23.4172  -28.8033   23.3100 O   0  0  0  0  0  0
  -28.2965  -26.1809   20.1279 O   0  0  0  0  0  0
  -26.5713  -34.8865   22.4680 O   0  0  0  0  0  0
  -23.5565  -32.1334   23.7121 O   0  0  0  0  0  0
  -30.1470  -19.9935   27.4648 C   0  0  0  0  0  0
  -30.7912  -19.4032   28.5865 C   0  0  0  0  0  0
  -31.0097  -19.7938   26.4200 C   0  0  0  0  0  0
  -29.4786  -18.1356   30.4510 C   0  0  0  0  0  0
  -28.8884  -19.5318   30.4391 C   0  0  0  0  0  0
  -31.3138  -18.0699   23.6686 C   0  0  0  0  0  0
  -30.7444  -17.1026   22.6421 C   0  0  0  0  0  0
  -29.9990  -19.8534   22.6795 C   0  0  0  0  0  0
  -30.3233  -19.3109   30.0162 C   0  0  0  0  0  0
  -30.3113  -19.1610   23.9932 C   0  0  2  0  0  0
  -30.3275  -17.6110   21.2082 C   0  0  2  0  0  0
  -29.4542  -19.1243   21.4105 C   0  0  2  0  0  0
  -30.5618  -22.4636   21.2462 C   0  0  0  0  0  0
  -33.3753  -18.7720   26.3106 C   0  0  0  0  0  0
  -30.8769  -20.2221   24.9857 C   0  0  0  0  0  0
  -28.5559  -23.2210   19.9078 C   0  0  0  0  0  0
  -28.1590  -24.7111   20.6220 C   0  0  0  0  0  0
  -29.1734  -21.9222   20.7987 C   0  0  1  0  0  0
  -31.9587  -18.8734   28.2551 N   0  0  0  0  0  0
  -32.1194  -19.1427   26.9415 N   0  0  0  0  0  0
  -29.8235  -16.1759   20.7249 N   0  0  0  0  0  0
  -29.2891  -20.3510   20.3678 N   0  3  0  0  0  0
  -31.4590  -12.7655   19.1694 H   0  0  0  0  0  0
  -30.4488  -11.6651   20.0576 H   0  0  0  0  0  0
  -29.8263  -11.6784   17.6249 H   0  0  0  0  0  0
  -29.5676  -13.4072   17.6763 H   0  0  0  0  0  0
  -27.9641  -11.2453   19.0603 H   0  0  0  0  0  0
  -27.3708  -12.3556   17.8572 H   0  0  0  0  0  0
  -27.5874  -14.2287   19.3928 H   0  0  0  0  0  0
  -28.7710  -12.3155   21.4596 H   0  0  0  0  0  0
  -28.3668  -13.9896   21.7612 H   0  0  0  0  0  0
  -25.2802   -9.5691   22.4811 H   0  0  0  0  0  0
  -24.0051   -7.4622   22.7466 H   0  0  0  0  0  0
  -21.0898   -8.8801   19.8930 H   0  0  0  0  0  0
  -22.3766  -10.9721   19.6197 H   0  0  0  0  0  0
  -21.1956   -7.6152   23.9749 H   0  0  0  0  0  0
  -21.1476   -6.0506   25.9080 H   0  0  0  0  0  0
  -22.0618   -2.7645   23.2789 H   0  0  0  0  0  0
  -22.4043  -11.9771   22.4673 H   0  0  0  0  0  0
  -21.1104  -13.1271   22.2812 H   0  0  0  0  0  0
  -24.6687  -15.8650   20.5336 H   0  0  0  0  0  0
  -26.2605  -15.6168   20.0323 H   0  0  0  0  0  0
  -26.7253  -32.5241   23.1036 H   0  0  0  0  0  0
  -25.0008  -33.9618   25.0290 H   0  0  0  0  0  0
  -22.7541  -31.2822   21.3828 H   0  0  0  0  0  0
  -23.3776  -35.9556   23.3316 H   0  0  0  0  0  0
  -24.3593  -36.8917   22.2078 H   0  0  0  0  0  0
  -23.7208  -37.6428   23.6721 H   0  0  0  0  0  0
  -26.1511  -31.4687   20.6131 H   0  0  0  0  0  0
  -26.8766  -30.7677   22.0240 H   0  0  0  0  0  0
  -28.1534  -28.8097   21.1939 H   0  0  0  0  0  0
  -25.9347  -25.8059   19.0604 H   0  0  0  0  0  0
  -23.9732  -27.2720   19.0125 H   0  0  0  0  0  0
  -23.8050  -30.5578   19.4041 H   0  0  0  0  0  0
  -22.7882  -29.2239   19.8540 H   0  0  0  0  0  0
  -25.1287  -36.1895   25.0802 H   0  0  0  0  0  0
  -20.9852  -28.3270   24.1423 H   0  0  0  0  0  0
  -20.5693  -26.2268   23.3600 H   0  0  0  0  0  0
  -21.6618  -26.7468   22.1187 H   0  0  0  0  0  0
  -19.6999  -25.6286   21.1211 H   0  0  0  0  0  0
  -19.6743  -27.3177   20.6746 H   0  0  0  0  0  0
  -17.4189  -26.6576   21.3954 H   0  0  0  0  0  0
  -18.0294  -26.0044   22.9001 H   0  0  0  0  0  0
  -19.7987  -30.7176   24.2182 H   0  0  0  0  0  0
  -17.5103  -31.6260   24.5140 H   0  0  0  0  0  0
  -15.5374  -30.2988   23.7771 H   0  0  0  0  0  0
  -15.8585  -28.0834   22.7129 H   0  0  0  0  0  0
  -24.5926  -30.6983   25.7778 H   0  0  0  0  0  0
  -24.8813  -32.2810   26.4864 H   0  0  0  0  0  0
  -25.8000  -30.8889   27.0247 H   0  0  0  0  0  0
  -26.3039  -29.6645   24.1325 H   0  0  0  0  0  0
  -27.4072  -29.7269   25.4852 H   0  0  0  0  0  0
  -27.8892  -30.4224   23.9573 H   0  0  0  0  0  0
  -27.2688  -33.3720   26.1926 H   0  0  0  0  0  0
  -28.3874  -32.6810   25.0299 H   0  0  0  0  0  0
  -28.0694  -31.8574   26.5497 H   0  0  0  0  0  0
  -28.2533  -38.0092   24.7571 H   0  0  0  0  0  0
  -28.1074  -36.2621   24.6216 H   0  0  0  0  0  0
  -27.2259  -37.1334   25.8846 H   0  0  0  0  0  0
  -20.9505  -29.8773   21.6814 H   0  0  0  0  0  0
  -26.0151  -38.2797   24.1515 H   0  0  0  0  0  0
  -29.1926  -20.5000   27.4364 H   0  0  0  0  0  0
  -29.1435  -17.4392   29.6836 H   0  0  0  0  0  0
  -29.7185  -17.6846   31.4116 H   0  0  0  0  0  0
  -28.7167  -19.9958   31.4086 H   0  0  0  0  0  0
  -28.1748  -19.8040   29.6659 H   0  0  0  0  0  0
  -32.2651  -18.4760   23.3243 H   0  0  0  0  0  0
  -31.5145  -17.5033   24.5794 H   0  0  0  0  0  0
  -29.8707  -16.6488   23.1195 H   0  0  0  0  0  0
  -31.4873  -16.3044   22.5744 H   0  0  0  0  0  0
  -30.9452  -20.3078   22.3990 H   0  0  0  0  0  0
  -29.2978  -20.6264   22.9748 H   0  0  0  0  0  0
  -31.0794  -19.6807   30.7055 H   0  0  0  0  0  0
  -29.3888  -18.7471   24.4032 H   0  0  0  0  0  0
  -31.2442  -17.8430   20.6631 H   0  0  0  0  0  0
  -28.4337  -18.8400   21.6628 H   0  0  0  0  0  0
  -30.7267  -23.5076   20.9878 H   0  0  0  0  0  0
  -31.3843  -21.9146   20.7872 H   0  0  0  0  0  0
  -30.6724  -22.4310   22.3286 H   0  0  0  0  0  0
  -33.5554  -19.3686   25.4172 H   0  0  0  0  0  0
  -33.3703  -17.7151   26.0390 H   0  0  0  0  0  0
  -34.2041  -18.9530   26.9989 H   0  0  0  0  0  0
  -31.8294  -20.6053   24.6179 H   0  0  0  0  0  0
  -30.2233  -21.0974   24.9755 H   0  0  0  0  0  0
  -29.2544  -23.4238   19.0957 H   0  0  0  0  0  0
  -27.6545  -22.8820   19.3984 H   0  0  0  0  0  0
  -28.7538  -24.7282   21.5337 H   0  0  0  0  0  0
  -27.1426  -24.6086   21.0000 H   0  0  0  0  0  0
  -28.4889  -21.9282   21.6449 H   0  0  0  0  0  0
  -28.8318  -16.0294   20.8314 H   0  0  0  0  0  0
  -28.4415  -20.1350   19.8672 H   0  0  0  0  0  0
  -30.0165  -20.2687   19.6785 H   0  0  0  0  0  0
  1 25  1  0  0  0
  1 30  2  0  0  0
  1 91  1  0  0  0
  2  3  1  0  0  0
  2 25  1  0  0  0
  2 93  1  0  0  0
  2 94  1  0  0  0
  3  4  1  0  0  0
  3 95  1  0  0  0
  3 96  1  0  0  0
  4  5  1  0  0  0
  4 97  1  0  0  0
  4 98  1  0  0  0
  5  6  1  0  0  0
  5 26  1  0  0  0
  5 99  1  0  0  0
  6 25  1  0  0  0
  6100  1  0  0  0
  6101  1  0  0  0
  7  8  2  0  0  0
  7 26  1  0  0  0
  7 29  1  0  0  0
  8  9  1  0  0  0
  8 22  1  0  0  0
  9 10  1  0  0  0
  9 27  2  0  0  0
 10 11  2  0  0  0
 10 15  1  0  0  0
 11 12  1  0  0  0
 11102  1  0  0  0
 12 13  2  0  0  0
 12103  1  0  0  0
 13 14  1  0  0  0
 13 31  1  0  0  0
 14 15  2  0  0  0
 14104  1  0  0  0
 15105  1  0  0  0
 16 17  2  0  0  0
 16 21  1  0  0  0
 16 31  1  0  0  0
 17 18  1  0  0  0
 17106  1  0  0  0
 18 19  2  0  0  0
 18107  1  0  0  0
 19 20  1  0  0  0
 19 24  1  0  0  0
 20 21  2  0  0  0
 20108  1  0  0  0
 21 23  1  0  0  0
 22 28  1  0  0  0
 22 32  2  0  0  0
 26 27  1  0  0  0
 28109  1  0  0  0
 28110  1  0  0  0
 29111  1  0  0  0
 29112  1  0  0  0
 33 34  1  0  0  0
 33 66  1  0  0  0
 33 70  2  0  0  0
 34 36  1  0  0  0
 34 59  1  0  0  0
 34113  1  0  0  0
 35 44  2  0  0  0
 35 45  1  0  0  0
 35 68  1  0  0  0
 36 56  1  0  0  0
 36114  1  0  0  0
 37 39  1  0  0  0
 37 47  1  0  0  0
 37 66  1  0  0  0
 37115  1  0  0  0
 38 43  2  0  0  0
 38 46  1  0  0  0
 38 47  1  0  0  0
 39 64  1  0  0  0
 39 67  2  0  0  0
 40 52  1  0  0  0
 40 53  2  0  0  0
 40 58  1  0  0  0
 41116  1  0  0  0
 41117  1  0  0  0
 41118  1  0  0  0
 41 48  1  0  0  0
 42 43  1  0  0  0
 42 66  1  0  0  0
 42119  1  0  0  0
 42120  1  0  0  0
 43 44  1  0  0  0
 44121  1  0  0  0
 45 46  2  0  0  0
 45122  1  0  0  0
 46123  1  0  0  0
 47124  1  0  0  0
 47125  1  0  0  0
 48 56  1  0  0  0
 48 65  1  0  0  0
 48126  1  0  0  0
 49 50  1  0  0  0
 49 53  1  0  0  0
 49 64  1  0  0  0
 49127  1  0  0  0
 50 51  1  0  0  0
 50128  1  0  0  0
 50129  1  0  0  0
 51 52  1  0  0  0
 51130  1  0  0  0
 51131  1  0  0  0
 52132  1  0  0  0
 52133  1  0  0  0
 53 54  1  0  0  0
 54 55  2  0  0  0
 54134  1  0  0  0
 55 57  1  0  0  0
 55135  1  0  0  0
 56 69  2  0  0  0
 57 58  2  0  0  0
 57136  1  0  0  0
 58137  1  0  0  0
 59 60  1  0  0  0
 59 61  1  0  0  0
 59 62  1  0  0  0
 60138  1  0  0  0
 60139  1  0  0  0
 60140  1  0  0  0
 61141  1  0  0  0
 61142  1  0  0  0
 61143  1  0  0  0
 62144  1  0  0  0
 62145  1  0  0  0
 62146  1  0  0  0
 63 65  1  0  0  0
 63147  1  0  0  0
 63148  1  0  0  0
 63149  1  0  0  0
 64150  1  0  0  0
 65151  1  0  0  0
 68 87  1  0  0  0
 71 72  1  0  0  0
 71 73  2  0  0  0
 71152  1  0  0  0
 72 89  2  0  0  0
 72 79  1  0  0  0
 73 85  1  0  0  0
 73 90  1  0  0  0
 74 75  1  0  0  0
 74 79  1  0  0  0
 74153  1  0  0  0
 74154  1  0  0  0
 75 79  1  0  0  0
 75155  1  0  0  0
 75156  1  0  0  0
 76 77  1  0  0  0
 76 80  1  0  0  0
 76157  1  0  0  0
 76158  1  0  0  0
 77 81  1  0  0  0
 77159  1  0  0  0
 77160  1  0  0  0
 78 80  1  0  0  0
 78 82  1  0  0  0
 78161  1  0  0  0
 78162  1  0  0  0
 79163  1  0  0  0
 80 85  1  0  0  0
 80164  1  0  0  0
 81 82  1  0  0  0
 81 91  1  0  0  0
 81165  1  0  0  0
 82 92  1  0  0  0
 82166  1  0  0  0
 83167  1  0  0  0
 83168  1  0  0  0
 83169  1  0  0  0
 83 88  1  0  0  0
 84 90  1  0  0  0
 84170  1  0  0  0
 84171  1  0  0  0
 84172  1  0  0  0
 85173  1  0  0  0
 85174  1  0  0  0
 86 87  1  0  0  0
 86 88  1  0  0  0
 86175  1  0  0  0
 86176  1  0  0  0
 87177  1  0  0  0
 87178  1  0  0  0
 88 92  1  0  0  0
 88179  1  0  0  0
 89 90  1  0  0  0
 91180  1  0  0  0
 92181  1  0  0  0
 92182  1  0  0  0
M  CHG  1  92   1
M  ISO  4   1 100  68 101  87 101  91 100
M  END
> <chiral flag>
0

> <version>
0

> <s_m_source_file>
/data/baiqing/PycharmProjects/Reinvent-master-3.2/result/LINK_invent/BTK/process_docking_weight1_custom_sum_contain_oxygen_bond_distance_aromatic_linkinvent_7_9_3/rearranged_h_0023.sdf

> <i_m_source_file_index>
80

> <r_mmod_Potential_Energy-OPLS-2005>
576.573913574219

> <r_mmod_Stretch_Energy-OPLS-2005>
342.517486572266

> <r_mmod_Bend_Energy-OPLS-2005>
395.231048583984

> <r_mmod_Torsional_Energy-OPLS-2005>
333.048675537109

> <r_mmod_Improper_Torsional_Energy-OPLS-2005>
3.4778196811676

> <r_mmod_Van_der_Waal_Energy-OPLS-2005>
136.283950805664

> <r_mmod_Electrostatic_Energy-OPLS-2005>
-314.703979492188

> <r_mmod_Solvation_Energy-OPLS-2005>
-512.923645019531

> <b_mmod_Minimization_Converged-OPLS-2005>
0

> <r_mmod_RMS_Derivative-OPLS-2005>
5.89303827285767

$$$$
80
                    3D
 Structure written by MMmdl.
168176  0  0  1  0            999 V2000
  -30.6610  -14.5849   20.2334 C   0  0  0  0  0  0
  -30.4225  -12.3202   19.3727 C   0  0  0  0  0  0
  -29.4729  -12.4633   18.1609 C   0  0  0  0  0  0
  -27.9826  -12.4036   18.5753 C   0  0  0  0  0  0
  -27.6494  -13.2159   19.8577 C   0  0  2  0  0  0
  -28.7443  -13.0868   20.9485 C   0  0  0  0  0  0
  -25.2626  -13.8117   20.5788 C   0  0  0  0  0  0
  -24.1893  -13.0345   20.9305 C   0  0  0  0  0  0
  -24.6499  -11.6851   20.8779 C   0  0  0  0  0  0
  -23.9156  -10.4233   21.0395 C   0  0  0  0  0  0
  -24.3649   -9.4137   21.9150 C   0  0  0  0  0  0
  -23.6307   -8.2184   22.0720 C   0  0  0  0  0  0
  -22.4298   -8.0237   21.3468 C   0  0  0  0  0  0
  -21.9922   -9.0255   20.4626 C   0  0  0  0  0  0
  -22.7316  -10.2113   20.3022 C   0  0  0  0  0  0
  -21.6869   -6.0708   22.5217 C   0  0  0  0  0  0
  -21.4016   -6.5634   23.8154 C   0  0  0  0  0  0
  -21.3690   -5.6784   24.9111 C   0  0  0  0  0  0
  -21.6014   -4.3040   24.7173 C   0  0  0  0  0  0
  -21.8832   -3.8131   23.4287 C   0  0  0  0  0  0
  -21.9229   -4.6950   22.3360 C   0  0  0  0  0  0
  -22.7959  -13.5224   21.1919 C   0  0  0  0  0  0
  -22.1757   -4.2154   21.0943 F   0  0  0  0  0  0
  -21.5585   -3.4523   25.7677 F   0  0  0  0  0  0
  -30.0552  -13.3738   20.3218 N   0  0  0  0  0  0
  -26.3048  -12.9304   20.3415 N   0  0  0  0  0  0
  -25.9443  -11.6450   20.5842 N   0  0  0  0  0  0
  -22.0577  -12.8190   22.0536 N   0  0  0  0  0  0
  -25.4181  -15.1795   20.4078 N   0  0  0  0  0  0
  -31.8810  -14.7244   20.2885 O   0  0  0  0  0  0
  -21.6639   -6.8827   21.4163 O   0  0  0  0  0  0
  -22.3688  -14.5494   20.6830 O   0  0  0  0  0  0
  -24.6268  -31.8587   23.2091 C   0  0  0  0  0  0
  -25.9127  -32.4757   23.8389 C   0  0  1  0  0  0
  -27.2140  -27.3372   20.0862 C   0  0  0  0  0  0
  -25.5939  -33.8574   24.2343 N   0  0  0  0  0  0
  -23.4186  -30.4887   21.5495 C   0  0  2  0  0  0
  -24.8511  -28.9381   20.1104 C   0  0  0  0  0  0
  -22.7469  -29.4667   22.5006 C   0  0  0  0  0  0
  -18.0315  -28.1321   22.8543 C   0  0  0  0  0  0
  -24.1457  -36.7292   23.2647 C   0  0  0  0  0  0
  -25.9526  -30.7929   21.3716 C   0  0  0  0  0  0
  -26.0186  -29.4221   20.7103 C   0  0  0  0  0  0
  -27.1959  -28.6254   20.6955 C   0  0  0  0  0  0
  -26.0145  -26.8816   19.4945 C   0  0  0  0  0  0
  -24.8476  -27.6752   19.4929 C   0  0  0  0  0  0
  -23.6253  -29.8225   20.1620 C   0  0  0  0  0  0
  -25.4077  -36.3126   24.0379 C   0  0  1  0  0  0
  -20.5876  -28.3697   23.1340 C   0  0  2  0  0  0
  -20.6788  -26.9434   22.5451 C   0  0  0  0  0  0
  -19.5798  -26.6419   21.5195 C   0  0  0  0  0  0
  -18.1980  -26.7914   22.1563 C   0  0  0  0  0  0
  -19.1541  -28.8828   23.2929 C   0  0  0  0  0  0
  -18.9439  -30.1386   23.9007 C   0  0  0  0  0  0
  -17.6442  -30.6551   24.0558 C   0  0  0  0  0  0
  -25.9018  -34.9490   23.5174 C   0  0  0  0  0  0
  -16.5348  -29.9051   23.6275 C   0  0  0  0  0  0
  -16.7283  -28.6416   23.0404 C   0  0  0  0  0  0
  -26.4487  -31.6566   25.0762 C   0  0  0  0  0  0
  -25.3674  -31.3714   26.1456 C   0  0  0  0  0  0
  -27.0309  -30.3038   24.6144 C   0  0  0  0  0  0
  -27.6079  -32.4266   25.7458 C   0  0  0  0  0  0
  -27.5596  -37.1814   24.8479 C   0  0  0  0  0  0
  -21.4178  -29.3072   22.3736 N   0  0  0  0  0  0
  -26.4306  -37.3807   23.9408 N   0  0  0  0  0  0
  -24.6840  -31.0618   22.0990 N   0  0  0  0  0  0
  -23.4175  -28.8248   23.3122 O   0  0  0  0  0  0
  -28.3778  -26.5585   20.1134 O   0  0  0  0  0  0
  -26.5590  -34.8971   22.4728 O   0  0  0  0  0  0
  -23.5409  -32.1401   23.7457 O   0  0  0  0  0  0
  -28.7609  -19.0054   20.8489 C   0  0  0  0  0  0
  -29.3137  -17.5701   20.8095 C   0  0  0  0  0  0
  -30.7216  -19.4677   19.3113 C   0  0  0  0  0  0
  -30.8235  -17.9366   18.8455 C   0  0  2  0  0  0
  -29.3296  -20.0094   19.8038 C   0  0  2  0  0  0
  -29.6782  -16.9956   19.4376 C   0  0  2  0  0  0
  -33.4217  -18.2622   18.4963 C   0  0  0  0  0  0
  -32.2631  -17.4163   19.0584 C   0  0  0  0  0  0
  -28.5558  -23.9389   20.2379 C   0  0  0  0  0  0
  -29.0698  -22.6186   19.4979 C   0  0  0  0  0  0
  -28.5194  -25.2821   19.3930 C   0  0  0  0  0  0
  -28.4797  -16.9973   18.4118 C   0  0  0  0  0  0
  -29.8193  -15.5262   19.7242 N   0  0  0  0  0  0
  -29.3022  -21.4089   20.3833 N   0  3  0  0  0  0
  -28.7564  -16.1503   17.4260 F   0  0  0  0  0  0
  -27.3548  -16.5894   18.9871 F   0  0  0  0  0  0
  -28.2251  -18.1735   17.8468 F   0  0  0  0  0  0
  -31.4615  -12.4005   19.0511 H   0  0  0  0  0  0
  -30.3157  -11.3311   19.8181 H   0  0  0  0  0  0
  -29.6556  -11.6742   17.4299 H   0  0  0  0  0  0
  -29.6682  -13.4001   17.6297 H   0  0  0  0  0  0
  -27.7020  -11.3590   18.7045 H   0  0  0  0  0  0
  -27.3691  -12.7724   17.7462 H   0  0  0  0  0  0
  -27.6245  -14.2517   19.5406 H   0  0  0  0  0  0
  -28.7385  -12.0835   21.3835 H   0  0  0  0  0  0
  -28.5722  -13.7831   21.7703 H   0  0  0  0  0  0
  -25.2775   -9.5668   22.4754 H   0  0  0  0  0  0
  -23.9990   -7.4622   22.7511 H   0  0  0  0  0  0
  -21.0779   -8.8925   19.8990 H   0  0  0  0  0  0
  -22.3824  -10.9685   19.6154 H   0  0  0  0  0  0
  -21.2065   -7.6151   23.9697 H   0  0  0  0  0  0
  -21.1489   -6.0481   25.9034 H   0  0  0  0  0  0
  -22.0611   -2.7604   23.2788 H   0  0  0  0  0  0
  -22.4133  -11.9812   22.4859 H   0  0  0  0  0  0
  -21.1116  -13.1083   22.2577 H   0  0  0  0  0  0
  -24.6384  -15.8087   20.5305 H   0  0  0  0  0  0
  -26.2408  -15.6481   20.0423 H   0  0  0  0  0  0
  -26.7227  -32.5418   23.1138 H   0  0  0  0  0  0
  -25.0094  -33.9641   25.0508 H   0  0  0  0  0  0
  -22.7125  -31.3120   21.4140 H   0  0  0  0  0  0
  -23.3755  -35.9596   23.3293 H   0  0  0  0  0  0
  -24.3582  -36.8895   22.2075 H   0  0  0  0  0  0
  -23.7175  -37.6497   23.6604 H   0  0  0  0  0  0
  -26.0784  -31.5617   20.6103 H   0  0  0  0  0  0
  -26.8347  -30.8373   21.9969 H   0  0  0  0  0  0
  -28.0984  -28.9830   21.1720 H   0  0  0  0  0  0
  -25.9298  -25.9047   19.0482 H   0  0  0  0  0  0
  -23.9453  -27.2932   19.0287 H   0  0  0  0  0  0
  -23.7484  -30.5986   19.4032 H   0  0  0  0  0  0
  -22.7366  -29.2600   19.8654 H   0  0  0  0  0  0
  -25.1244  -36.2012   25.0893 H   0  0  0  0  0  0
  -20.9971  -28.3236   24.1452 H   0  0  0  0  0  0
  -20.5599  -26.2351   23.3660 H   0  0  0  0  0  0
  -21.6681  -26.7477   22.1330 H   0  0  0  0  0  0
  -19.7010  -25.6349   21.1203 H   0  0  0  0  0  0
  -19.6740  -27.3277   20.6755 H   0  0  0  0  0  0
  -17.4306  -26.6823   21.3893 H   0  0  0  0  0  0
  -18.0293  -25.9956   22.8809 H   0  0  0  0  0  0
  -19.7874  -30.7174   24.2489 H   0  0  0  0  0  0
  -17.4938  -31.6262   24.5086 H   0  0  0  0  0  0
  -15.5305  -30.2930   23.7476 H   0  0  0  0  0  0
  -15.8709  -28.0662   22.7113 H   0  0  0  0  0  0
  -24.5907  -30.7007   25.7761 H   0  0  0  0  0  0
  -24.8765  -32.2860   26.4811 H   0  0  0  0  0  0
  -25.8001  -30.8956   27.0264 H   0  0  0  0  0  0
  -26.2902  -29.6815   24.1138 H   0  0  0  0  0  0
  -27.4015  -29.7308   25.4627 H   0  0  0  0  0  0
  -27.8745  -30.4391   23.9386 H   0  0  0  0  0  0
  -27.2813  -33.3635   26.2000 H   0  0  0  0  0  0
  -28.3897  -32.6709   25.0237 H   0  0  0  0  0  0
  -28.0706  -31.8359   26.5367 H   0  0  0  0  0  0
  -28.2639  -38.0096   24.7536 H   0  0  0  0  0  0
  -28.1098  -36.2645   24.6276 H   0  0  0  0  0  0
  -27.2335  -37.1453   25.8903 H   0  0  0  0  0  0
  -20.9340  -29.8812   21.6964 H   0  0  0  0  0  0
  -26.0218  -38.2918   24.1372 H   0  0  0  0  0  0
  -28.9687  -19.3480   21.8609 H   0  0  0  0  0  0
  -27.6746  -18.9419   20.7590 H   0  0  0  0  0  0
  -28.5817  -16.9233   21.2943 H   0  0  0  0  0  0
  -30.2209  -17.4997   21.4145 H   0  0  0  0  0  0
  -31.0946  -20.1160   18.5202 H   0  0  0  0  0  0
  -31.4139  -19.6125   20.1365 H   0  0  0  0  0  0
  -30.6873  -17.9350   17.7662 H   0  0  0  0  0  0
  -28.6350  -20.0461   18.9680 H   0  0  0  0  0  0
  -34.3752  -17.8056   18.7643 H   0  0  0  0  0  0
  -33.4330  -19.2627   18.9231 H   0  0  0  0  0  0
  -33.4144  -18.3476   17.4080 H   0  0  0  0  0  0
  -32.3527  -16.4349   18.6000 H   0  0  0  0  0  0
  -32.4283  -17.3030   20.1318 H   0  0  0  0  0  0
  -29.1599  -24.1322   21.1255 H   0  0  0  0  0  0
  -27.5496  -23.7515   20.6165 H   0  0  0  0  0  0
  -30.0023  -22.8281   18.9754 H   0  0  0  0  0  0
  -28.3455  -22.3650   18.7235 H   0  0  0  0  0  0
  -27.8238  -25.1853   18.5632 H   0  0  0  0  0  0
  -29.4869  -25.3706   18.8950 H   0  0  0  0  0  0
  -28.9251  -15.0979   19.5367 H   0  0  0  0  0  0
  -30.1458  -21.5330   20.9219 H   0  0  0  0  0  0
  -28.5338  -21.4148   21.0394 H   0  0  0  0  0  0
  1 25  1  0  0  0
  1 30  2  0  0  0
  1 83  1  0  0  0
  2  3  1  0  0  0
  2 25  1  0  0  0
  2 88  1  0  0  0
  2 89  1  0  0  0
  3  4  1  0  0  0
  3 90  1  0  0  0
  3 91  1  0  0  0
  4  5  1  0  0  0
  4 92  1  0  0  0
  4 93  1  0  0  0
  5  6  1  0  0  0
  5 26  1  0  0  0
  5 94  1  0  0  0
  6 25  1  0  0  0
  6 95  1  0  0  0
  6 96  1  0  0  0
  7  8  2  0  0  0
  7 26  1  0  0  0
  7 29  1  0  0  0
  8  9  1  0  0  0
  8 22  1  0  0  0
  9 10  1  0  0  0
  9 27  2  0  0  0
 10 11  2  0  0  0
 10 15  1  0  0  0
 11 12  1  0  0  0
 11 97  1  0  0  0
 12 13  2  0  0  0
 12 98  1  0  0  0
 13 14  1  0  0  0
 13 31  1  0  0  0
 14 15  2  0  0  0
 14 99  1  0  0  0
 15100  1  0  0  0
 16 17  2  0  0  0
 16 21  1  0  0  0
 16 31  1  0  0  0
 17 18  1  0  0  0
 17101  1  0  0  0
 18 19  2  0  0  0
 18102  1  0  0  0
 19 20  1  0  0  0
 19 24  1  0  0  0
 20 21  2  0  0  0
 20103  1  0  0  0
 21 23  1  0  0  0
 22 28  1  0  0  0
 22 32  2  0  0  0
 26 27  1  0  0  0
 28104  1  0  0  0
 28105  1  0  0  0
 29106  1  0  0  0
 29107  1  0  0  0
 33 34  1  0  0  0
 33 66  1  0  0  0
 33 70  2  0  0  0
 34 36  1  0  0  0
 34 59  1  0  0  0
 34108  1  0  0  0
 35 44  2  0  0  0
 35 45  1  0  0  0
 35 68  1  0  0  0
 36 56  1  0  0  0
 36109  1  0  0  0
 37 39  1  0  0  0
 37 47  1  0  0  0
 37 66  1  0  0  0
 37110  1  0  0  0
 38 43  2  0  0  0
 38 46  1  0  0  0
 38 47  1  0  0  0
 39 64  1  0  0  0
 39 67  2  0  0  0
 40 52  1  0  0  0
 40 53  2  0  0  0
 40 58  1  0  0  0
 41111  1  0  0  0
 41112  1  0  0  0
 41113  1  0  0  0
 41 48  1  0  0  0
 42 43  1  0  0  0
 42 66  1  0  0  0
 42114  1  0  0  0
 42115  1  0  0  0
 43 44  1  0  0  0
 44116  1  0  0  0
 45 46  2  0  0  0
 45117  1  0  0  0
 46118  1  0  0  0
 47119  1  0  0  0
 47120  1  0  0  0
 48 56  1  0  0  0
 48 65  1  0  0  0
 48121  1  0  0  0
 49 50  1  0  0  0
 49 53  1  0  0  0
 49 64  1  0  0  0
 49122  1  0  0  0
 50 51  1  0  0  0
 50123  1  0  0  0
 50124  1  0  0  0
 51 52  1  0  0  0
 51125  1  0  0  0
 51126  1  0  0  0
 52127  1  0  0  0
 52128  1  0  0  0
 53 54  1  0  0  0
 54 55  2  0  0  0
 54129  1  0  0  0
 55 57  1  0  0  0
 55130  1  0  0  0
 56 69  2  0  0  0
 57 58  2  0  0  0
 57131  1  0  0  0
 58132  1  0  0  0
 59 60  1  0  0  0
 59 61  1  0  0  0
 59 62  1  0  0  0
 60133  1  0  0  0
 60134  1  0  0  0
 60135  1  0  0  0
 61136  1  0  0  0
 61137  1  0  0  0
 61138  1  0  0  0
 62139  1  0  0  0
 62140  1  0  0  0
 62141  1  0  0  0
 63 65  1  0  0  0
 63142  1  0  0  0
 63143  1  0  0  0
 63144  1  0  0  0
 64145  1  0  0  0
 65146  1  0  0  0
 68 81  1  0  0  0
 71 72  1  0  0  0
 71 75  1  0  0  0
 71147  1  0  0  0
 71148  1  0  0  0
 72 76  1  0  0  0
 72149  1  0  0  0
 72150  1  0  0  0
 73 74  1  0  0  0
 73 75  1  0  0  0
 73151  1  0  0  0
 73152  1  0  0  0
 74 76  1  0  0  0
 74 78  1  0  0  0
 74153  1  0  0  0
 75 84  1  0  0  0
 75154  1  0  0  0
 76 82  1  0  0  0
 76 83  1  0  0  0
 77 78  1  0  0  0
 77155  1  0  0  0
 77156  1  0  0  0
 77157  1  0  0  0
 78158  1  0  0  0
 78159  1  0  0  0
 79 80  1  0  0  0
 79 81  1  0  0  0
 79160  1  0  0  0
 79161  1  0  0  0
 80 84  1  0  0  0
 80162  1  0  0  0
 80163  1  0  0  0
 81164  1  0  0  0
 81165  1  0  0  0
 82 85  1  0  0  0
 82 86  1  0  0  0
 82 87  1  0  0  0
 83166  1  0  0  0
 84167  1  0  0  0
 84168  1  0  0  0
M  CHG  1  84   1
M  ISO  4   1 100  68 101  81 101  83 100
M  END
> <chiral flag>
0

> <version>
0

> <s_m_source_file>
/data/baiqing/PycharmProjects/Reinvent-master-3.2/result/LINK_invent/BTK/process_docking_weight1_custom_sum_contain_oxygen_bond_distance_aromatic_linkinvent_7_9_3/rearranged_h_0023.sdf

> <i_m_source_file_index>
81

> <r_mmod_Potential_Energy-OPLS-2005>
66.6106338500977

> <r_mmod_Stretch_Energy-OPLS-2005>
79.088264465332

> <r_mmod_Bend_Energy-OPLS-2005>
227.675735473633

> <r_mmod_Torsional_Energy-OPLS-2005>
310.383575439453

> <r_mmod_Improper_Torsional_Energy-OPLS-2005>
10.1721353530884

> <r_mmod_Van_der_Waal_Energy-OPLS-2005>
139.845840454102

> <r_mmod_Electrostatic_Energy-OPLS-2005>
-298.761474609375

> <r_mmod_Solvation_Energy-OPLS-2005>
-460.675750732422

> <b_mmod_Minimization_Converged-OPLS-2005>
0

> <r_mmod_RMS_Derivative-OPLS-2005>
11.7532711029053

$$$$
81
                    3D
 Structure written by MMmdl.
206216  0  0  1  0            999 V2000
  -30.6322  -14.8396   20.3342 C   0  0  0  0  0  0
  -30.4279  -12.5032   19.4461 C   0  0  0  0  0  0
  -29.4982  -12.4797   18.2158 C   0  0  0  0  0  0
  -28.0410  -12.2461   18.6638 C   0  0  0  0  0  0
  -27.6360  -13.1732   19.8353 C   0  0  2  0  0  0
  -28.7004  -13.2255   20.9583 C   0  0  0  0  0  0
  -25.2651  -13.7905   20.5846 C   0  0  0  0  0  0
  -24.1819  -13.0184   20.9185 C   0  0  0  0  0  0
  -24.6343  -11.6719   20.8802 C   0  0  0  0  0  0
  -23.8989  -10.4169   21.0468 C   0  0  0  0  0  0
  -24.3589   -9.4119   21.9230 C   0  0  0  0  0  0
  -23.6266   -8.2160   22.0775 C   0  0  0  0  0  0
  -22.4280   -8.0221   21.3530 C   0  0  0  0  0  0
  -21.9899   -9.0189   20.4681 C   0  0  0  0  0  0
  -22.7189  -10.2059   20.3092 C   0  0  0  0  0  0
  -21.6799   -6.0675   22.5277 C   0  0  0  0  0  0
  -21.4031   -6.5626   23.8211 C   0  0  0  0  0  0
  -21.3663   -5.6775   24.9180 C   0  0  0  0  0  0
  -21.6035   -4.3047   24.7220 C   0  0  0  0  0  0
  -21.8807   -3.8125   23.4363 C   0  0  0  0  0  0
  -21.9202   -4.6920   22.3416 C   0  0  0  0  0  0
  -22.7885  -13.5210   21.1772 C   0  0  0  0  0  0
  -22.1659   -4.2112   21.0986 F   0  0  0  0  0  0
  -21.5602   -3.4574   25.7736 F   0  0  0  0  0  0
  -29.9556  -13.6231   20.3050 N   0  0  0  0  0  0
  -26.2941  -12.8963   20.3371 N   0  0  0  0  0  0
  -25.9223  -11.6200   20.5798 N   0  0  0  0  0  0
  -22.0479  -12.8252   22.0422 N   0  0  0  0  0  0
  -25.4390  -15.1519   20.4128 N   0  0  0  0  0  0
  -31.8578  -14.7808   20.1816 O   0  0  0  0  0  0
  -21.6619   -6.8832   21.4220 O   0  0  0  0  0  0
  -22.3656  -14.5480   20.6610 O   0  0  0  0  0  0
  -24.6358  -31.8577   23.1979 C   0  0  0  0  0  0
  -25.9109  -32.4770   23.8421 C   0  0  1  0  0  0
  -27.1447  -27.1970   20.1655 C   0  0  0  0  0  0
  -25.5890  -33.8554   24.2341 N   0  0  0  0  0  0
  -23.4326  -30.4940   21.5444 C   0  0  2  0  0  0
  -24.8735  -28.9572   20.1107 C   0  0  0  0  0  0
  -22.7446  -29.4726   22.4884 C   0  0  0  0  0  0
  -18.0204  -28.1421   22.8379 C   0  0  0  0  0  0
  -24.1465  -36.7246   23.2621 C   0  0  0  0  0  0
  -25.9904  -30.7534   21.4023 C   0  0  0  0  0  0
  -26.0440  -29.3633   20.7705 C   0  0  0  0  0  0
  -27.1776  -28.4711   20.8296 C   0  0  0  0  0  0
  -26.0276  -27.0073   19.3145 C   0  0  0  0  0  0
  -24.8632  -27.7769   19.3712 C   0  0  0  0  0  0
  -23.6538  -29.8489   20.1599 C   0  0  0  0  0  0
  -25.4102  -36.3036   24.0336 C   0  0  1  0  0  0
  -20.5896  -28.3705   23.1264 C   0  0  2  0  0  0
  -20.6805  -26.9496   22.5202 C   0  0  0  0  0  0
  -19.5817  -26.6601   21.5022 C   0  0  0  0  0  0
  -18.1959  -26.7996   22.1511 C   0  0  0  0  0  0
  -19.1472  -28.8825   23.2895 C   0  0  0  0  0  0
  -18.9441  -30.1359   23.9004 C   0  0  0  0  0  0
  -17.6475  -30.6632   24.0563 C   0  0  0  0  0  0
  -25.9027  -34.9383   23.5122 C   0  0  0  0  0  0
  -16.5321  -29.9165   23.6309 C   0  0  0  0  0  0
  -16.7184  -28.6595   23.0291 C   0  0  0  0  0  0
  -26.4510  -31.6637   25.0820 C   0  0  0  0  0  0
  -25.3755  -31.3732   26.1537 C   0  0  0  0  0  0
  -27.0397  -30.3046   24.6427 C   0  0  0  0  0  0
  -27.6115  -32.4345   25.7594 C   0  0  0  0  0  0
  -27.5566  -37.1765   24.8495 C   0  0  0  0  0  0
  -21.4139  -29.3208   22.3727 N   0  0  0  0  0  0
  -26.4289  -37.3758   23.9416 N   0  0  0  0  0  0
  -24.7046  -31.0545   22.1007 N   0  0  0  0  0  0
  -23.4098  -28.8261   23.3023 O   0  0  0  0  0  0
  -28.1264  -26.1607   20.1996 O   0  0  0  0  0  0
  -26.5590  -34.8809   22.4676 O   0  0  0  0  0  0
  -23.5433  -32.1424   23.7094 O   0  0  0  0  0  0
  -27.9768  -21.7192   19.5804 C   0  0  0  0  0  0
  -27.9728  -20.3676   19.0237 C   0  0  0  0  0  0
  -27.1400  -22.0118   20.6952 C   0  0  0  0  0  0
  -26.6772  -20.1158   18.5649 C   0  0  0  0  0  0
  -26.0774  -20.9873   20.8206 C   0  0  0  0  0  0
  -25.6986  -20.2421   19.6119 C   0  0  0  0  0  0
  -27.6825  -22.8720   18.5857 C   0  0  0  0  0  0
  -26.1372  -23.2438   18.3662 C   0  0  0  0  0  0
  -25.0852  -23.5386   19.4875 C   0  0  0  0  0  0
  -30.2199  -18.8162   19.8377 C   0  0  0  0  0  0
  -28.0298  -17.9346   20.2376 C   0  0  0  0  0  0
  -30.7948  -17.3173   19.7266 C   0  0  0  0  0  0
  -28.5343  -16.4361   20.1544 C   0  0  0  0  0  0
  -28.7585  -18.9812   19.3370 C   0  0  0  0  0  0
  -26.9932  -23.5804   21.2267 C   0  0  2  0  0  0
  -25.6516  -24.1484   20.7452 C   0  0  2  0  0  0
  -24.6694  -24.8470   21.6997 C   0  0  0  0  0  0
  -25.6439  -23.9320   14.6349 C   0  0  0  0  0  0
  -25.2479  -21.6478   23.2731 C   0  0  0  0  0  0
  -25.8912  -19.3145   22.7291 C   0  0  0  0  0  0
  -23.1214  -20.5659   19.3505 C   0  0  0  0  0  0
  -24.0223  -18.2767   20.1080 C   0  0  0  0  0  0
  -26.4751  -19.5251   17.1429 C   0  0  0  0  0  0
  -28.0807  -24.8711   21.0756 C   0  0  0  0  0  0
  -25.2150  -22.4548   14.6192 C   0  0  0  0  0  0
  -25.5703  -20.3037   16.1197 C   0  0  0  0  0  0
  -26.2030  -21.5295   15.3834 C   0  0  0  0  0  0
  -25.3169  -20.6228   22.1389 C   0  0  0  0  0  0
  -24.3033  -19.5815   19.3586 C   0  0  0  0  0  0
  -29.9983  -16.1110   20.1912 N   0  0  0  0  0  0
  -31.4637  -12.6246   19.1192 H   0  0  0  0  0  0
  -30.3941  -11.5457   19.9694 H   0  0  0  0  0  0
  -29.8035  -11.7090   17.5034 H   0  0  0  0  0  0
  -29.5721  -13.4290   17.6805 H   0  0  0  0  0  0
  -27.9453  -11.2066   18.9694 H   0  0  0  0  0  0
  -27.3663  -12.3948   17.8190 H   0  0  0  0  0  0
  -27.5709  -14.1398   19.3582 H   0  0  0  0  0  0
  -28.8050  -12.2591   21.4586 H   0  0  0  0  0  0
  -28.4414  -13.9329   21.7379 H   0  0  0  0  0  0
  -25.2683   -9.5558   22.4886 H   0  0  0  0  0  0
  -23.9907   -7.4538   22.7528 H   0  0  0  0  0  0
  -21.0803   -8.8728   19.9012 H   0  0  0  0  0  0
  -22.3659  -10.9623   19.6284 H   0  0  0  0  0  0
  -21.2060   -7.6168   23.9698 H   0  0  0  0  0  0
  -21.1495   -6.0557   25.9089 H   0  0  0  0  0  0
  -22.0603   -2.7600   23.2875 H   0  0  0  0  0  0
  -22.4036  -11.9829   22.4757 H   0  0  0  0  0  0
  -21.1114  -13.1350   22.2631 H   0  0  0  0  0  0
  -24.6598  -15.7909   20.5164 H   0  0  0  0  0  0
  -26.2905  -15.6010   20.0969 H   0  0  0  0  0  0
  -26.7121  -32.5273   23.1095 H   0  0  0  0  0  0
  -25.0137  -33.9890   25.0544 H   0  0  0  0  0  0
  -22.7283  -31.3106   21.3916 H   0  0  0  0  0  0
  -23.3762  -35.9534   23.3278 H   0  0  0  0  0  0
  -24.3613  -36.8861   22.2041 H   0  0  0  0  0  0
  -23.7151  -37.6415   23.6699 H   0  0  0  0  0  0
  -26.1414  -31.5213   20.6346 H   0  0  0  0  0  0
  -26.8667  -30.7925   22.0376 H   0  0  0  0  0  0
  -28.0777  -28.7385   21.3677 H   0  0  0  0  0  0
  -25.9807  -26.1615   18.6474 H   0  0  0  0  0  0
  -23.9952  -27.4986   18.7735 H   0  0  0  0  0  0
  -23.7591  -30.6341   19.4100 H   0  0  0  0  0  0
  -22.7706  -29.2942   19.8543 H   0  0  0  0  0  0
  -25.1254  -36.1912   25.0847 H   0  0  0  0  0  0
  -21.0071  -28.3178   24.1330 H   0  0  0  0  0  0
  -20.5823  -26.2378   23.3354 H   0  0  0  0  0  0
  -21.6656  -26.7579   22.0909 H   0  0  0  0  0  0
  -19.7108  -25.6591   21.0897 H   0  0  0  0  0  0
  -19.6841  -27.3605   20.6738 H   0  0  0  0  0  0
  -17.4164  -26.6526   21.4018 H   0  0  0  0  0  0
  -18.0643  -26.0210   22.9029 H   0  0  0  0  0  0
  -19.7915  -30.7065   24.2573 H   0  0  0  0  0  0
  -17.4983  -31.6304   24.5139 H   0  0  0  0  0  0
  -15.5325  -30.3140   23.7506 H   0  0  0  0  0  0
  -15.8539  -28.0854   22.7125 H   0  0  0  0  0  0
  -24.6016  -30.7013   25.7831 H   0  0  0  0  0  0
  -24.8870  -32.2846   26.5001 H   0  0  0  0  0  0
  -25.8100  -30.8921   27.0304 H   0  0  0  0  0  0
  -26.3054  -29.6732   24.1459 H   0  0  0  0  0  0
  -27.3995  -29.7414   25.5045 H   0  0  0  0  0  0
  -27.8967  -30.4321   23.9811 H   0  0  0  0  0  0
  -27.2912  -33.3723   26.2157 H   0  0  0  0  0  0
  -28.4029  -32.6733   25.0477 H   0  0  0  0  0  0
  -28.0724  -31.8435   26.5536 H   0  0  0  0  0  0
  -28.2543  -38.0085   24.7470 H   0  0  0  0  0  0
  -28.1050  -36.2566   24.6378 H   0  0  0  0  0  0
  -27.2285  -37.1464   25.8901 H   0  0  0  0  0  0
  -20.9262  -29.9136   21.7140 H   0  0  0  0  0  0
  -26.0139  -38.2817   24.1434 H   0  0  0  0  0  0
  -28.1295  -22.6167   17.6297 H   0  0  0  0  0  0
  -28.2435  -23.7651   18.8440 H   0  0  0  0  0  0
  -25.6176  -22.4562   17.8288 H   0  0  0  0  0  0
  -26.1587  -24.0932   17.7074 H   0  0  0  0  0  0
  -24.5424  -22.6677   19.8191 H   0  0  0  0  0  0
  -24.3272  -24.2182   19.0836 H   0  0  0  0  0  0
  -30.8922  -19.4846   19.2990 H   0  0  0  0  0  0
  -30.2767  -19.1495   20.8722 H   0  0  0  0  0  0
  -28.0428  -18.2879   21.2680 H   0  0  0  0  0  0
  -26.9731  -17.8887   19.9702 H   0  0  0  0  0  0
  -31.7725  -17.2972   20.2158 H   0  0  0  0  0  0
  -30.9606  -17.1510   18.6579 H   0  0  0  0  0  0
  -28.1759  -16.0902   19.1878 H   0  0  0  0  0  0
  -28.0148  -15.8781   20.9222 H   0  0  0  0  0  0
  -28.7893  -18.5558   18.3322 H   0  0  0  0  0  0
  -26.9716  -23.4871   22.3105 H   0  0  0  0  0  0
  -26.0143  -24.9702   20.2473 H   0  0  0  0  0  0
  -23.7261  -25.0504   21.1834 H   0  0  0  0  0  0
  -25.0862  -25.8034   22.0366 H   0  0  0  0  0  0
  -24.4446  -24.3168   22.6093 H   0  0  0  0  0  0
  -25.5988  -24.3420   15.6437 H   0  0  0  0  0  0
  -25.0242  -24.5554   13.9906 H   0  0  0  0  0  0
  -26.6712  -24.0441   14.2996 H   0  0  0  0  0  0
  -24.5102  -22.3915   22.9971 H   0  0  0  0  0  0
  -26.2217  -22.0745   23.5082 H   0  0  0  0  0  0
  -24.8788  -21.2101   24.2015 H   0  0  0  0  0  0
  -25.9070  -18.4912   22.0227 H   0  0  0  0  0  0
  -25.3010  -18.9589   23.5667 H   0  0  0  0  0  0
  -26.9087  -19.4301   23.0901 H   0  0  0  0  0  0
  -23.3178  -21.3356   18.5913 H   0  0  0  0  0  0
  -22.9928  -21.0426   20.3250 H   0  0  0  0  0  0
  -22.1852  -20.0826   19.0430 H   0  0  0  0  0  0
  -24.8294  -17.5693   19.9335 H   0  0  0  0  0  0
  -23.1094  -17.7969   19.7556 H   0  0  0  0  0  0
  -23.8852  -18.4091   21.1691 H   0  0  0  0  0  0
  -26.0713  -18.5129   17.2309 H   0  0  0  0  0  0
  -27.4598  -19.4159   16.6769 H   0  0  0  0  0  0
  -29.0478  -24.3861   20.9794 H   0  0  0  0  0  0
  -28.1672  -25.2888   22.0784 H   0  0  0  0  0  0
  -25.1251  -22.1472   13.5790 H   0  0  0  0  0  0
  -24.2071  -22.3807   15.0248 H   0  0  0  0  0  0
  -24.6112  -20.5661   16.5772 H   0  0  0  0  0  0
  -25.3047  -19.5793   15.3396 H   0  0  0  0  0  0
  -26.7386  -22.1453   16.0888 H   0  0  0  0  0  0
  -26.9579  -21.1907   14.6682 H   0  0  0  0  0  0
  -24.2775  -20.4189   21.8933 H   0  0  0  0  0  0
  -24.2934  -19.2068   18.3436 H   0  0  0  0  0  0
  1 25  1  0  0  0
  1 30  2  0  0  0
  1100  1  0  0  0
  2  3  1  0  0  0
  2 25  1  0  0  0
  2101  1  0  0  0
  2102  1  0  0  0
  3  4  1  0  0  0
  3103  1  0  0  0
  3104  1  0  0  0
  4  5  1  0  0  0
  4105  1  0  0  0
  4106  1  0  0  0
  5  6  1  0  0  0
  5 26  1  0  0  0
  5107  1  0  0  0
  6 25  1  0  0  0
  6108  1  0  0  0
  6109  1  0  0  0
  7  8  2  0  0  0
  7 26  1  0  0  0
  7 29  1  0  0  0
  8  9  1  0  0  0
  8 22  1  0  0  0
  9 10  1  0  0  0
  9 27  2  0  0  0
 10 11  2  0  0  0
 10 15  1  0  0  0
 11 12  1  0  0  0
 11110  1  0  0  0
 12 13  2  0  0  0
 12111  1  0  0  0
 13 14  1  0  0  0
 13 31  1  0  0  0
 14 15  2  0  0  0
 14112  1  0  0  0
 15113  1  0  0  0
 16 17  2  0  0  0
 16 21  1  0  0  0
 16 31  1  0  0  0
 17 18  1  0  0  0
 17114  1  0  0  0
 18 19  2  0  0  0
 18115  1  0  0  0
 19 20  1  0  0  0
 19 24  1  0  0  0
 20 21  2  0  0  0
 20116  1  0  0  0
 21 23  1  0  0  0
 22 28  1  0  0  0
 22 32  2  0  0  0
 26 27  1  0  0  0
 28117  1  0  0  0
 28118  1  0  0  0
 29119  1  0  0  0
 29120  1  0  0  0
 33 34  1  0  0  0
 33 66  1  0  0  0
 33 70  2  0  0  0
 34 36  1  0  0  0
 34 59  1  0  0  0
 34121  1  0  0  0
 35 44  2  0  0  0
 35 45  1  0  0  0
 35 68  1  0  0  0
 36 56  1  0  0  0
 36122  1  0  0  0
 37 39  1  0  0  0
 37 47  1  0  0  0
 37 66  1  0  0  0
 37123  1  0  0  0
 38 43  2  0  0  0
 38 46  1  0  0  0
 38 47  1  0  0  0
 39 64  1  0  0  0
 39 67  2  0  0  0
 40 52  1  0  0  0
 40 53  2  0  0  0
 40 58  1  0  0  0
 41124  1  0  0  0
 41125  1  0  0  0
 41126  1  0  0  0
 41 48  1  0  0  0
 42 43  1  0  0  0
 42 66  1  0  0  0
 42127  1  0  0  0
 42128  1  0  0  0
 43 44  1  0  0  0
 44129  1  0  0  0
 45 46  2  0  0  0
 45130  1  0  0  0
 46131  1  0  0  0
 47132  1  0  0  0
 47133  1  0  0  0
 48 56  1  0  0  0
 48 65  1  0  0  0
 48134  1  0  0  0
 49 50  1  0  0  0
 49 53  1  0  0  0
 49 64  1  0  0  0
 49135  1  0  0  0
 50 51  1  0  0  0
 50136  1  0  0  0
 50137  1  0  0  0
 51 52  1  0  0  0
 51138  1  0  0  0
 51139  1  0  0  0
 52140  1  0  0  0
 52141  1  0  0  0
 53 54  1  0  0  0
 54 55  2  0  0  0
 54142  1  0  0  0
 55 57  1  0  0  0
 55143  1  0  0  0
 56 69  2  0  0  0
 57 58  2  0  0  0
 57144  1  0  0  0
 58145  1  0  0  0
 59 60  1  0  0  0
 59 61  1  0  0  0
 59 62  1  0  0  0
 60146  1  0  0  0
 60147  1  0  0  0
 60148  1  0  0  0
 61149  1  0  0  0
 61150  1  0  0  0
 61151  1  0  0  0
 62152  1  0  0  0
 62153  1  0  0  0
 62154  1  0  0  0
 63 65  1  0  0  0
 63155  1  0  0  0
 63156  1  0  0  0
 63157  1  0  0  0
 64158  1  0  0  0
 65159  1  0  0  0
 68 94  1  0  0  0
 71 72  1  0  0  0
 71 73  2  0  0  0
 71 77  1  0  0  0
 72 74  2  0  0  0
 72 84  1  0  0  0
 73 75  1  0  0  0
 73 85  1  0  0  0
 74 76  1  0  0  0
 74 93  1  0  0  0
 75 76  2  0  0  0
 75 98  1  0  0  0
 76 99  1  0  0  0
 77 78  1  0  0  0
 77160  1  0  0  0
 77161  1  0  0  0
 78 79  1  0  0  0
 78162  1  0  0  0
 78163  1  0  0  0
 79 86  1  0  0  0
 79164  1  0  0  0
 79165  1  0  0  0
 80 82  1  0  0  0
 80 84  1  0  0  0
 80166  1  0  0  0
 80167  1  0  0  0
 81 83  1  0  0  0
 81 84  1  0  0  0
 81168  1  0  0  0
 81169  1  0  0  0
 82100  1  0  0  0
 82170  1  0  0  0
 82171  1  0  0  0
 83100  1  0  0  0
 83172  1  0  0  0
 83173  1  0  0  0
 84174  1  0  0  0
 85 86  1  0  0  0
 85 94  1  0  0  0
 85175  1  0  0  0
 86 87  1  0  0  0
 86176  1  0  0  0
 87177  1  0  0  0
 87178  1  0  0  0
 87179  1  0  0  0
 88 95  1  0  0  0
 88180  1  0  0  0
 88181  1  0  0  0
 88182  1  0  0  0
 89183  1  0  0  0
 89184  1  0  0  0
 89185  1  0  0  0
 89 98  1  0  0  0
 90 98  1  0  0  0
 90186  1  0  0  0
 90187  1  0  0  0
 90188  1  0  0  0
 91189  1  0  0  0
 91190  1  0  0  0
 91191  1  0  0  0
 91 99  1  0  0  0
 92 99  1  0  0  0
 92192  1  0  0  0
 92193  1  0  0  0
 92194  1  0  0  0
 93 96  1  0  0  0
 93195  1  0  0  0
 93196  1  0  0  0
 94197  1  0  0  0
 94198  1  0  0  0
 95 97  1  0  0  0
 95199  1  0  0  0
 95200  1  0  0  0
 96 97  1  0  0  0
 96201  1  0  0  0
 96202  1  0  0  0
 97203  1  0  0  0
 97204  1  0  0  0
 98205  1  0  0  0
 99206  1  0  0  0
M  ISO  4   1 100  68 101  94 101 100 100
M  END
> <chiral flag>
0

> <version>
0

> <s_m_source_file>
/data/baiqing/PycharmProjects/Reinvent-master-3.2/result/LINK_invent/BTK/process_docking_weight1_custom_sum_contain_oxygen_bond_distance_aromatic_linkinvent_7_9_3/rearranged_h_0023.sdf

> <i_m_source_file_index>
82

> <r_mmod_Potential_Energy-OPLS-2005>
1436.56958007812

> <r_mmod_Stretch_Energy-OPLS-2005>
268.473876953125

> <r_mmod_Bend_Energy-OPLS-2005>
520.3330078125

> <r_mmod_Torsional_Energy-OPLS-2005>
707.227355957031

> <r_mmod_Improper_Torsional_Energy-OPLS-2005>
46.7000465393066

> <r_mmod_Van_der_Waal_Energy-OPLS-2005>
222.745666503906

> <r_mmod_Electrostatic_Energy-OPLS-2005>
-324.011199951172

> <r_mmod_Solvation_Energy-OPLS-2005>
-167.907241821289

> <b_mmod_Minimization_Converged-OPLS-2005>
0

> <r_mmod_RMS_Derivative-OPLS-2005>
18.5890293121338

$$$$
82
                    3D
 Structure written by MMmdl.
177185  0  0  1  0            999 V2000
  -30.7682  -14.3731   20.6659 C   0  0  0  0  0  0
  -30.4155  -12.2886   19.4010 C   0  0  0  0  0  0
  -29.4842  -12.5171   18.1959 C   0  0  0  0  0  0
  -28.0072  -12.3793   18.6104 C   0  0  0  0  0  0
  -27.6636  -13.2052   19.8774 C   0  0  2  0  0  0
  -28.7010  -12.9580   20.9939 C   0  0  0  0  0  0
  -25.2584  -13.8165   20.5670 C   0  0  0  0  0  0
  -24.1835  -13.0457   20.9161 C   0  0  0  0  0  0
  -24.6393  -11.6912   20.8732 C   0  0  0  0  0  0
  -23.9059  -10.4307   21.0402 C   0  0  0  0  0  0
  -24.3613   -9.4217   21.9179 C   0  0  0  0  0  0
  -23.6294   -8.2252   22.0754 C   0  0  0  0  0  0
  -22.4278   -8.0283   21.3543 C   0  0  0  0  0  0
  -21.9907   -9.0259   20.4643 C   0  0  0  0  0  0
  -22.7234  -10.2136   20.3049 C   0  0  0  0  0  0
  -21.6842   -6.0735   22.5288 C   0  0  0  0  0  0
  -21.4011   -6.5643   23.8219 C   0  0  0  0  0  0
  -21.3658   -5.6790   24.9181 C   0  0  0  0  0  0
  -21.6042   -4.3056   24.7224 C   0  0  0  0  0  0
  -21.8818   -3.8150   23.4348 C   0  0  0  0  0  0
  -21.9200   -4.6968   22.3405 C   0  0  0  0  0  0
  -22.7857  -13.5246   21.1843 C   0  0  0  0  0  0
  -22.1661   -4.2156   21.0980 F   0  0  0  0  0  0
  -21.5631   -3.4540   25.7737 F   0  0  0  0  0  0
  -30.0426  -13.2457   20.4537 N   0  0  0  0  0  0
  -26.3028  -12.9343   20.3369 N   0  0  0  0  0  0
  -25.9317  -11.6501   20.5752 N   0  0  0  0  0  0
  -22.0487  -12.8243   22.0381 N   0  0  0  0  0  0
  -25.4328  -15.1890   20.4092 N   0  0  0  0  0  0
  -31.8246  -14.6143   20.0737 O   0  0  0  0  0  0
  -21.6640   -6.8883   21.4245 O   0  0  0  0  0  0
  -22.3543  -14.5557   20.6682 O   0  0  0  0  0  0
  -24.6118  -31.8724   23.2063 C   0  0  0  0  0  0
  -25.9052  -32.4821   23.8356 C   0  0  1  0  0  0
  -27.2352  -27.4526   20.0785 C   0  0  0  0  0  0
  -25.5932  -33.8607   24.2294 N   0  0  0  0  0  0
  -23.3960  -30.4946   21.5520 C   0  0  2  0  0  0
  -24.8402  -28.9613   20.1175 C   0  0  0  0  0  0
  -22.7401  -29.4689   22.5049 C   0  0  0  0  0  0
  -18.0280  -28.1368   22.8522 C   0  0  0  0  0  0
  -24.1491  -36.7292   23.2644 C   0  0  0  0  0  0
  -25.9259  -30.8448   21.3536 C   0  0  0  0  0  0
  -26.0035  -29.4816   20.6983 C   0  0  0  0  0  0
  -27.2030  -28.7349   20.6710 C   0  0  0  0  0  0
  -26.0442  -26.9410   19.5107 C   0  0  0  0  0  0
  -24.8526  -27.6860   19.5286 C   0  0  0  0  0  0
  -23.5984  -29.8209   20.1695 C   0  0  0  0  0  0
  -25.4111  -36.3083   24.0329 C   0  0  1  0  0  0
  -20.5855  -28.3643   23.1353 C   0  0  2  0  0  0
  -20.6759  -26.9384   22.5441 C   0  0  0  0  0  0
  -19.5750  -26.6377   21.5220 C   0  0  0  0  0  0
  -18.1933  -26.7924   22.1636 C   0  0  0  0  0  0
  -19.1526  -28.8833   23.2931 C   0  0  0  0  0  0
  -18.9449  -30.1463   23.8883 C   0  0  0  0  0  0
  -17.6447  -30.6582   24.0566 C   0  0  0  0  0  0
  -25.9061  -34.9458   23.5101 C   0  0  0  0  0  0
  -16.5334  -29.9076   23.6354 C   0  0  0  0  0  0
  -16.7262  -28.6500   23.0340 C   0  0  0  0  0  0
  -26.4499  -31.6573   25.0675 C   0  0  0  0  0  0
  -25.3773  -31.3656   26.1435 C   0  0  0  0  0  0
  -27.0335  -30.3007   24.6041 C   0  0  0  0  0  0
  -27.6080  -32.4286   25.7435 C   0  0  0  0  0  0
  -27.5570  -37.1782   24.8478 C   0  0  0  0  0  0
  -21.4134  -29.3008   22.3768 N   0  0  0  0  0  0
  -26.4291  -37.3775   23.9413 N   0  0  0  0  0  0
  -24.6625  -31.0858   22.0947 N   0  0  0  0  0  0
  -23.4204  -28.8274   23.3111 O   0  0  0  0  0  0
  -28.4279  -26.7519   20.0758 O   0  0  0  0  0  0
  -26.5652  -34.8909   22.4679 O   0  0  0  0  0  0
  -23.5330  -32.1474   23.7512 O   0  0  0  0  0  0
  -30.2221  -23.5546   17.1418 C   0  0  0  0  0  0
  -30.9170  -25.6886   18.0606 C   0  0  0  0  0  0
  -29.9092  -24.7223   17.8647 C   0  0  0  0  0  0
  -32.5338  -24.3052   16.8294 C   0  0  0  0  0  0
  -31.5122  -23.3449   16.6173 C   0  0  0  0  0  0
  -32.2148  -25.4879   17.5470 C   0  0  0  0  0  0
  -28.4922  -24.9191   18.3944 C   0  0  0  0  0  0
  -33.9420  -24.0963   16.2596 C   0  0  0  0  0  0
  -31.8558  -19.8183   20.2098 C   0  0  0  0  0  0
  -32.8974  -20.9172   20.4685 C   0  0  0  0  0  0
  -31.7528  -18.8009   21.3585 C   0  0  0  0  0  0
  -33.0829  -21.8258   19.2429 C   0  0  0  0  0  0
  -30.9350  -17.5615   20.9590 C   0  0  0  0  0  0
  -34.2878  -22.7812   19.3514 C   0  0  0  0  0  0
  -30.9318  -16.4522   22.0318 C   0  0  0  0  0  0
  -35.1778  -22.8443   18.0838 C   0  0  0  0  0  0
  -28.3877  -25.3324   19.8788 C   0  0  0  0  0  0
  -30.2735  -15.2277   21.5709 N   0  0  0  0  0  0
  -35.0238  -24.0720   17.2714 N   0  3  0  0  0  0
  -31.7893  -21.8877   15.7284 Cl  0  0  0  0  0  0
  -33.4047  -26.7139   17.8239 Cl  0  0  0  0  0  0
  -31.4578  -12.3885   19.0902 H   0  0  0  0  0  0
  -30.3175  -11.2681   19.7757 H   0  0  0  0  0  0
  -29.7169  -11.8079   17.3999 H   0  0  0  0  0  0
  -29.6571  -13.5111   17.7814 H   0  0  0  0  0  0
  -27.8085  -11.3223   18.7905 H   0  0  0  0  0  0
  -27.3578  -12.6714   17.7848 H   0  0  0  0  0  0
  -27.7195  -14.2575   19.5984 H   0  0  0  0  0  0
  -28.6630  -11.9184   21.3205 H   0  0  0  0  0  0
  -28.4537  -13.5455   21.8778 H   0  0  0  0  0  0
  -25.2760   -9.5698   22.4745 H   0  0  0  0  0  0
  -24.0010   -7.4640   22.7471 H   0  0  0  0  0  0
  -21.0837   -8.8768   19.8945 H   0  0  0  0  0  0
  -22.3695  -10.9669   19.6147 H   0  0  0  0  0  0
  -21.1990   -7.6151   23.9722 H   0  0  0  0  0  0
  -21.1476   -6.0521   25.9078 H   0  0  0  0  0  0
  -22.0597   -2.7618   23.2844 H   0  0  0  0  0  0
  -22.4094  -11.9901   22.4776 H   0  0  0  0  0  0
  -21.1100  -13.1265   22.2571 H   0  0  0  0  0  0
  -24.6730  -15.8509   20.5237 H   0  0  0  0  0  0
  -26.2966  -15.6253   20.1111 H   0  0  0  0  0  0
  -26.7127  -32.5592   23.1133 H   0  0  0  0  0  0
  -25.0036  -33.9758   25.0398 H   0  0  0  0  0  0
  -22.6821  -31.3088   21.4164 H   0  0  0  0  0  0
  -23.3735  -35.9652   23.3321 H   0  0  0  0  0  0
  -24.3603  -36.8913   22.2067 H   0  0  0  0  0  0
  -23.7249  -37.6493   23.6659 H   0  0  0  0  0  0
  -26.0359  -31.6097   20.5851 H   0  0  0  0  0  0
  -26.8152  -30.8969   21.9706 H   0  0  0  0  0  0
  -28.1057  -29.1388   21.1072 H   0  0  0  0  0  0
  -26.0073  -25.9653   19.0503 H   0  0  0  0  0  0
  -23.9510  -27.2698   19.0996 H   0  0  0  0  0  0
  -23.6896  -30.5903   19.4019 H   0  0  0  0  0  0
  -22.7234  -29.2316   19.8868 H   0  0  0  0  0  0
  -25.1256  -36.1930   25.0818 H   0  0  0  0  0  0
  -20.9960  -28.3178   24.1467 H   0  0  0  0  0  0
  -20.5656  -26.2235   23.3616 H   0  0  0  0  0  0
  -21.6630  -26.7436   22.1220 H   0  0  0  0  0  0
  -19.6882  -25.6289   21.1245 H   0  0  0  0  0  0
  -19.6673  -27.3195   20.6758 H   0  0  0  0  0  0
  -17.4192  -26.6708   21.4042 H   0  0  0  0  0  0
  -18.0325  -26.0055   22.9018 H   0  0  0  0  0  0
  -19.7917  -30.7327   24.2209 H   0  0  0  0  0  0
  -17.4974  -31.6265   24.5178 H   0  0  0  0  0  0
  -15.5326  -30.2937   23.7708 H   0  0  0  0  0  0
  -15.8670  -28.0830   22.6998 H   0  0  0  0  0  0
  -24.5927  -30.7052   25.7723 H   0  0  0  0  0  0
  -24.9013  -32.2824   26.4911 H   0  0  0  0  0  0
  -25.8135  -30.8756   27.0149 H   0  0  0  0  0  0
  -26.2862  -29.6757   24.1139 H   0  0  0  0  0  0
  -27.4162  -29.7251   25.4486 H   0  0  0  0  0  0
  -27.8666  -30.4319   23.9127 H   0  0  0  0  0  0
  -27.2669  -33.3548   26.2057 H   0  0  0  0  0  0
  -28.3828  -32.6906   25.0217 H   0  0  0  0  0  0
  -28.0808  -31.8395   26.5305 H   0  0  0  0  0  0
  -28.2560  -38.0086   24.7516 H   0  0  0  0  0  0
  -28.1049  -36.2618   24.6262 H   0  0  0  0  0  0
  -27.2313  -37.1412   25.8884 H   0  0  0  0  0  0
  -20.9292  -29.8704   21.6962 H   0  0  0  0  0  0
  -26.0158  -38.2854   24.1369 H   0  0  0  0  0  0
  -29.4646  -22.8021   16.9797 H   0  0  0  0  0  0
  -30.6991  -26.5977   18.6029 H   0  0  0  0  0  0
  -27.9545  -23.9766   18.2763 H   0  0  0  0  0  0
  -27.9730  -25.6366   17.7591 H   0  0  0  0  0  0
  -34.1533  -24.9144   15.5713 H   0  0  0  0  0  0
  -34.0103  -23.1971   15.6495 H   0  0  0  0  0  0
  -32.1397  -19.2905   19.2978 H   0  0  0  0  0  0
  -30.8769  -20.2620   20.0144 H   0  0  0  0  0  0
  -33.8484  -20.4403   20.7123 H   0  0  0  0  0  0
  -32.6137  -21.5091   21.3402 H   0  0  0  0  0  0
  -31.3194  -19.2781   22.2375 H   0  0  0  0  0  0
  -32.7556  -18.4846   21.6493 H   0  0  0  0  0  0
  -32.1700  -22.3991   19.0922 H   0  0  0  0  0  0
  -33.1903  -21.1925   18.3631 H   0  0  0  0  0  0
  -31.3564  -17.1683   20.0330 H   0  0  0  0  0  0
  -29.9118  -17.8563   20.7229 H   0  0  0  0  0  0
  -34.9220  -22.4395   20.1708 H   0  0  0  0  0  0
  -33.9612  -23.7735   19.6645 H   0  0  0  0  0  0
  -30.4228  -16.8044   22.9307 H   0  0  0  0  0  0
  -31.9553  -16.2134   22.3295 H   0  0  0  0  0  0
  -35.0921  -21.9489   17.4663 H   0  0  0  0  0  0
  -36.2149  -22.8463   18.4217 H   0  0  0  0  0  0
  -29.1919  -24.8686   20.4501 H   0  0  0  0  0  0
  -27.4790  -24.9103   20.3123 H   0  0  0  0  0  0
  -29.4011  -14.9714   22.0094 H   0  0  0  0  0  0
  -34.9693  -24.8944   17.8519 H   0  0  0  0  0  0
  -35.8815  -24.1545   16.7474 H   0  0  0  0  0  0
  1 25  1  0  0  0
  1 30  2  0  0  0
  1 88  1  0  0  0
  2  3  1  0  0  0
  2 25  1  0  0  0
  2 92  1  0  0  0
  2 93  1  0  0  0
  3  4  1  0  0  0
  3 94  1  0  0  0
  3 95  1  0  0  0
  4  5  1  0  0  0
  4 96  1  0  0  0
  4 97  1  0  0  0
  5  6  1  0  0  0
  5 26  1  0  0  0
  5 98  1  0  0  0
  6 25  1  0  0  0
  6 99  1  0  0  0
  6100  1  0  0  0
  7  8  2  0  0  0
  7 26  1  0  0  0
  7 29  1  0  0  0
  8  9  1  0  0  0
  8 22  1  0  0  0
  9 10  1  0  0  0
  9 27  2  0  0  0
 10 11  2  0  0  0
 10 15  1  0  0  0
 11 12  1  0  0  0
 11101  1  0  0  0
 12 13  2  0  0  0
 12102  1  0  0  0
 13 14  1  0  0  0
 13 31  1  0  0  0
 14 15  2  0  0  0
 14103  1  0  0  0
 15104  1  0  0  0
 16 17  2  0  0  0
 16 21  1  0  0  0
 16 31  1  0  0  0
 17 18  1  0  0  0
 17105  1  0  0  0
 18 19  2  0  0  0
 18106  1  0  0  0
 19 20  1  0  0  0
 19 24  1  0  0  0
 20 21  2  0  0  0
 20107  1  0  0  0
 21 23  1  0  0  0
 22 28  1  0  0  0
 22 32  2  0  0  0
 26 27  1  0  0  0
 28108  1  0  0  0
 28109  1  0  0  0
 29110  1  0  0  0
 29111  1  0  0  0
 33 34  1  0  0  0
 33 66  1  0  0  0
 33 70  2  0  0  0
 34 36  1  0  0  0
 34 59  1  0  0  0
 34112  1  0  0  0
 35 44  2  0  0  0
 35 45  1  0  0  0
 35 68  1  0  0  0
 36 56  1  0  0  0
 36113  1  0  0  0
 37 39  1  0  0  0
 37 47  1  0  0  0
 37 66  1  0  0  0
 37114  1  0  0  0
 38 43  2  0  0  0
 38 46  1  0  0  0
 38 47  1  0  0  0
 39 64  1  0  0  0
 39 67  2  0  0  0
 40 52  1  0  0  0
 40 53  2  0  0  0
 40 58  1  0  0  0
 41115  1  0  0  0
 41116  1  0  0  0
 41117  1  0  0  0
 41 48  1  0  0  0
 42 43  1  0  0  0
 42 66  1  0  0  0
 42118  1  0  0  0
 42119  1  0  0  0
 43 44  1  0  0  0
 44120  1  0  0  0
 45 46  2  0  0  0
 45121  1  0  0  0
 46122  1  0  0  0
 47123  1  0  0  0
 47124  1  0  0  0
 48 56  1  0  0  0
 48 65  1  0  0  0
 48125  1  0  0  0
 49 50  1  0  0  0
 49 53  1  0  0  0
 49 64  1  0  0  0
 49126  1  0  0  0
 50 51  1  0  0  0
 50127  1  0  0  0
 50128  1  0  0  0
 51 52  1  0  0  0
 51129  1  0  0  0
 51130  1  0  0  0
 52131  1  0  0  0
 52132  1  0  0  0
 53 54  1  0  0  0
 54 55  2  0  0  0
 54133  1  0  0  0
 55 57  1  0  0  0
 55134  1  0  0  0
 56 69  2  0  0  0
 57 58  2  0  0  0
 57135  1  0  0  0
 58136  1  0  0  0
 59 60  1  0  0  0
 59 61  1  0  0  0
 59 62  1  0  0  0
 60137  1  0  0  0
 60138  1  0  0  0
 60139  1  0  0  0
 61140  1  0  0  0
 61141  1  0  0  0
 61142  1  0  0  0
 62143  1  0  0  0
 62144  1  0  0  0
 62145  1  0  0  0
 63 65  1  0  0  0
 63146  1  0  0  0
 63147  1  0  0  0
 63148  1  0  0  0
 64149  1  0  0  0
 65150  1  0  0  0
 68 87  1  0  0  0
 71 73  2  0  0  0
 71 75  1  0  0  0
 71151  1  0  0  0
 72 73  1  0  0  0
 72 76  2  0  0  0
 72152  1  0  0  0
 73 77  1  0  0  0
 74 75  2  0  0  0
 74 76  1  0  0  0
 74 78  1  0  0  0
 75 90  1  0  0  0
 76 91  1  0  0  0
 77 87  1  0  0  0
 77153  1  0  0  0
 77154  1  0  0  0
 78 89  1  0  0  0
 78155  1  0  0  0
 78156  1  0  0  0
 79 80  1  0  0  0
 79 81  1  0  0  0
 79157  1  0  0  0
 79158  1  0  0  0
 80 82  1  0  0  0
 80159  1  0  0  0
 80160  1  0  0  0
 81 83  1  0  0  0
 81161  1  0  0  0
 81162  1  0  0  0
 82 84  1  0  0  0
 82163  1  0  0  0
 82164  1  0  0  0
 83 85  1  0  0  0
 83165  1  0  0  0
 83166  1  0  0  0
 84 86  1  0  0  0
 84167  1  0  0  0
 84168  1  0  0  0
 85 88  1  0  0  0
 85169  1  0  0  0
 85170  1  0  0  0
 86 89  1  0  0  0
 86171  1  0  0  0
 86172  1  0  0  0
 87173  1  0  0  0
 87174  1  0  0  0
 88175  1  0  0  0
 89176  1  0  0  0
 89177  1  0  0  0
M  CHG  1  89   1
M  ISO  4   1 100  68 101  87 101  88 100
M  END
> <chiral flag>
0

> <version>
0

> <s_m_source_file>
/data/baiqing/PycharmProjects/Reinvent-master-3.2/result/LINK_invent/BTK/process_docking_weight1_custom_sum_contain_oxygen_bond_distance_aromatic_linkinvent_7_9_3/rearranged_h_0023.sdf

> <i_m_source_file_index>
83

> <r_mmod_Potential_Energy-OPLS-2005>
-256.775085449219

> <r_mmod_Stretch_Energy-OPLS-2005>
36.0415458679199

> <r_mmod_Bend_Energy-OPLS-2005>
106.052429199219

> <r_mmod_Torsional_Energy-OPLS-2005>
210.317901611328

> <r_mmod_Improper_Torsional_Energy-OPLS-2005>
1.64852499961853

> <r_mmod_Van_der_Waal_Energy-OPLS-2005>
152.802185058594

> <r_mmod_Electrostatic_Energy-OPLS-2005>
-320.183929443359

> <r_mmod_Solvation_Energy-OPLS-2005>
-451.706726074219

> <b_mmod_Minimization_Converged-OPLS-2005>
0

> <r_mmod_RMS_Derivative-OPLS-2005>
3.38091921806335

$$$$
83
                    3D
 Structure written by MMmdl.
181189  0  0  1  0            999 V2000
  -30.7594  -14.4776   20.3828 C   0  0  0  0  0  0
  -30.4253  -12.2393   19.4516 C   0  0  0  0  0  0
  -29.4782  -12.2316   18.2290 C   0  0  0  0  0  0
  -27.9948  -12.2830   18.6415 C   0  0  0  0  0  0
  -27.6606  -13.1986   19.8549 C   0  0  2  0  0  0
  -28.7266  -13.1099   20.9689 C   0  0  0  0  0  0
  -25.2686  -13.8171   20.5820 C   0  0  0  0  0  0
  -24.1911  -13.0468   20.9251 C   0  0  0  0  0  0
  -24.6438  -11.6908   20.8817 C   0  0  0  0  0  0
  -23.9056  -10.4306   21.0437 C   0  0  0  0  0  0
  -24.3591   -9.4199   21.9201 C   0  0  0  0  0  0
  -23.6241   -8.2237   22.0767 C   0  0  0  0  0  0
  -22.4216   -8.0277   21.3559 C   0  0  0  0  0  0
  -21.9872   -9.0263   20.4665 C   0  0  0  0  0  0
  -22.7224  -10.2132   20.3085 C   0  0  0  0  0  0
  -21.6835   -6.0692   22.5270 C   0  0  0  0  0  0
  -21.4007   -6.5608   23.8195 C   0  0  0  0  0  0
  -21.3682   -5.6782   24.9171 C   0  0  0  0  0  0
  -21.6060   -4.3049   24.7233 C   0  0  0  0  0  0
  -21.8811   -3.8122   23.4361 C   0  0  0  0  0  0
  -21.9201   -4.6927   22.3407 C   0  0  0  0  0  0
  -22.7922  -13.5272   21.1828 C   0  0  0  0  0  0
  -22.1671   -4.2118   21.0981 F   0  0  0  0  0  0
  -21.5632   -3.4559   25.7758 F   0  0  0  0  0  0
  -30.0376  -13.3322   20.3487 N   0  0  0  0  0  0
  -26.3108  -12.9333   20.3502 N   0  0  0  0  0  0
  -25.9398  -11.6500   20.6003 N   0  0  0  0  0  0
  -22.0549  -12.8273   22.0357 N   0  0  0  0  0  0
  -25.4429  -15.1869   20.4211 N   0  0  0  0  0  0
  -31.9870  -14.4890   20.3051 O   0  0  0  0  0  0
  -21.6626   -6.8835   21.4227 O   0  0  0  0  0  0
  -22.3628  -14.5577   20.6644 O   0  0  0  0  0  0
  -24.6066  -31.8771   23.2092 C   0  0  0  0  0  0
  -25.9004  -32.4854   23.8390 C   0  0  1  0  0  0
  -27.2675  -27.5126   20.1011 C   0  0  0  0  0  0
  -25.5893  -33.8642   24.2344 N   0  0  0  0  0  0
  -23.3866  -30.4963   21.5510 C   0  0  2  0  0  0
  -24.8388  -28.9658   20.1121 C   0  0  0  0  0  0
  -22.7347  -29.4696   22.5026 C   0  0  0  0  0  0
  -18.0254  -28.1353   22.8487 C   0  0  0  0  0  0
  -24.1501  -36.7289   23.2634 C   0  0  0  0  0  0
  -25.9013  -30.8770   21.3412 C   0  0  0  0  0  0
  -25.9855  -29.5140   20.6916 C   0  0  0  0  0  0
  -27.1943  -28.8043   20.6738 C   0  0  0  0  0  0
  -26.1041  -26.9717   19.5137 C   0  0  0  0  0  0
  -24.8882  -27.6891   19.5156 C   0  0  0  0  0  0
  -23.5908  -29.8165   20.1668 C   0  0  0  0  0  0
  -25.4124  -36.3109   24.0348 C   0  0  1  0  0  0
  -20.5840  -28.3635   23.1333 C   0  0  2  0  0  0
  -20.6724  -26.9381   22.5431 C   0  0  0  0  0  0
  -19.5727  -26.6356   21.5211 C   0  0  0  0  0  0
  -18.1892  -26.7895   22.1616 C   0  0  0  0  0  0
  -19.1506  -28.8817   23.2888 C   0  0  0  0  0  0
  -18.9464  -30.1411   23.8924 C   0  0  0  0  0  0
  -17.6474  -30.6588   24.0571 C   0  0  0  0  0  0
  -25.9052  -34.9487   23.5155 C   0  0  0  0  0  0
  -16.5354  -29.9117   23.6328 C   0  0  0  0  0  0
  -16.7247  -28.6516   23.0378 C   0  0  0  0  0  0
  -26.4478  -31.6573   25.0662 C   0  0  0  0  0  0
  -25.3768  -31.3623   26.1410 C   0  0  0  0  0  0
  -27.0274  -30.3037   24.5920 C   0  0  0  0  0  0
  -27.6071  -32.4259   25.7455 C   0  0  0  0  0  0
  -27.5597  -37.1772   24.8444 C   0  0  0  0  0  0
  -21.4092  -29.3016   22.3749 N   0  0  0  0  0  0
  -26.4277  -37.3820   23.9453 N   0  0  0  0  0  0
  -24.6487  -31.0953   22.0936 N   0  0  0  0  0  0
  -23.4133  -28.8245   23.3056 O   0  0  0  0  0  0
  -28.4228  -26.7575   20.0953 O   0  0  0  0  0  0
  -26.5604  -34.8953   22.4710 O   0  0  0  0  0  0
  -23.5318  -32.1476   23.7583 O   0  0  0  0  0  0
  -31.7392  -18.6053   20.1218 C   0  0  0  0  0  0
  -31.2987  -17.5921   20.8777 C   0  0  0  0  0  0
  -33.2752  -18.2495   21.6759 C   0  0  0  0  0  0
  -31.0736  -19.3457   18.9765 C   0  0  0  0  0  0
  -28.9042  -16.4880   17.8391 C   0  0  0  0  0  0
  -31.5180  -16.2611   17.8779 C   0  0  0  0  0  0
  -32.2055  -16.4059   22.9537 C   0  0  0  0  0  0
  -29.9963  -16.7846   20.7837 C   0  0  0  0  0  0
  -32.7021  -23.3296   19.8633 C   0  0  0  0  0  0
  -31.8228  -24.0795   20.8669 C   0  0  0  0  0  0
  -33.1636  -21.9709   20.4232 C   0  0  0  0  0  0
  -31.1957  -25.3730   20.3264 C   0  0  0  0  0  0
  -33.7454  -21.0784   19.3211 C   0  0  0  0  0  0
  -30.3424  -26.0222   21.4213 C   0  0  0  0  0  0
  -34.0270  -19.6167   19.7227 C   0  0  0  0  0  0
  -29.4731  -27.1931   20.9689 C   0  0  0  0  0  0
  -30.1493  -15.8184   18.4597 C   0  0  0  0  0  0
  -32.2455  -17.4058   21.8831 N   0  0  0  0  0  0
  -33.0093  -18.9601   20.5631 N   0  0  0  0  0  0
  -30.0997  -15.5761   19.9314 N   0  0  0  0  0  0
  -34.3142  -18.2999   22.3448 O   0  0  0  0  0  0
  -31.4583  -12.3206   19.1102 H   0  0  0  0  0  0
  -30.3584  -11.2932   19.9930 H   0  0  0  0  0  0
  -29.6343  -11.2897   17.6973 H   0  0  0  0  0  0
  -29.7221  -12.9688   17.4704 H   0  0  0  0  0  0
  -27.7261  -11.2549   18.8752 H   0  0  0  0  0  0
  -27.3749  -12.5495   17.7871 H   0  0  0  0  0  0
  -27.6679  -14.2186   19.4839 H   0  0  0  0  0  0
  -28.7077  -12.1444   21.4753 H   0  0  0  0  0  0
  -28.5420  -13.8646   21.7343 H   0  0  0  0  0  0
  -25.2744   -9.5636   22.4777 H   0  0  0  0  0  0
  -23.9960   -7.4609   22.7455 H   0  0  0  0  0  0
  -21.0829   -8.8760   19.8938 H   0  0  0  0  0  0
  -22.3703  -10.9653   19.6169 H   0  0  0  0  0  0
  -21.1971   -7.6103   23.9689 H   0  0  0  0  0  0
  -21.1525   -6.0517   25.9065 H   0  0  0  0  0  0
  -22.0571   -2.7591   23.2877 H   0  0  0  0  0  0
  -22.4216  -11.9976   22.4770 H   0  0  0  0  0  0
  -21.1170  -13.1298   22.2569 H   0  0  0  0  0  0
  -24.6871  -15.8486   20.5485 H   0  0  0  0  0  0
  -26.3063  -15.6244   20.1224 H   0  0  0  0  0  0
  -26.7072  -32.5656   23.1197 H   0  0  0  0  0  0
  -25.0057  -33.9789   25.0491 H   0  0  0  0  0  0
  -22.6746  -31.3111   21.4108 H   0  0  0  0  0  0
  -23.3800  -35.9561   23.3234 H   0  0  0  0  0  0
  -24.3608  -36.8972   22.2042 H   0  0  0  0  0  0
  -23.7177  -37.6459   23.6690 H   0  0  0  0  0  0
  -25.9975  -31.6520   20.5776 H   0  0  0  0  0  0
  -26.7920  -30.9378   21.9516 H   0  0  0  0  0  0
  -28.0608  -29.2866   21.1002 H   0  0  0  0  0  0
  -26.1406  -25.9909   19.0633 H   0  0  0  0  0  0
  -24.0040  -27.2585   19.0690 H   0  0  0  0  0  0
  -23.6819  -30.5902   19.4034 H   0  0  0  0  0  0
  -22.7203  -29.2219   19.8787 H   0  0  0  0  0  0
  -25.1284  -36.1958   25.0822 H   0  0  0  0  0  0
  -20.9917  -28.3231   24.1463 H   0  0  0  0  0  0
  -20.5597  -26.2300   23.3640 H   0  0  0  0  0  0
  -21.6602  -26.7399   22.1265 H   0  0  0  0  0  0
  -19.6893  -25.6270   21.1246 H   0  0  0  0  0  0
  -19.6650  -27.3149   20.6726 H   0  0  0  0  0  0
  -17.4145  -26.6652   21.4010 H   0  0  0  0  0  0
  -18.0254  -26.0032   22.9012 H   0  0  0  0  0  0
  -19.7973  -30.7175   24.2323 H   0  0  0  0  0  0
  -17.5083  -31.6286   24.5141 H   0  0  0  0  0  0
  -15.5380  -30.3058   23.7652 H   0  0  0  0  0  0
  -15.8617  -28.0848   22.7139 H   0  0  0  0  0  0
  -24.5989  -30.6931   25.7725 H   0  0  0  0  0  0
  -24.8909  -32.2745   26.4863 H   0  0  0  0  0  0
  -25.8143  -30.8795   27.0152 H   0  0  0  0  0  0
  -26.2722  -29.6811   24.1116 H   0  0  0  0  0  0
  -27.4215  -29.7268   25.4287 H   0  0  0  0  0  0
  -27.8499  -30.4354   23.8896 H   0  0  0  0  0  0
  -27.2678  -33.3548   26.2069 H   0  0  0  0  0  0
  -28.3902  -32.6832   25.0296 H   0  0  0  0  0  0
  -28.0719  -31.8334   26.5352 H   0  0  0  0  0  0
  -28.2540  -38.0153   24.7690 H   0  0  0  0  0  0
  -28.1194  -36.2716   24.6047 H   0  0  0  0  0  0
  -27.2356  -37.1127   25.8848 H   0  0  0  0  0  0
  -20.9228  -29.8755   21.7002 H   0  0  0  0  0  0
  -26.0181  -38.2886   24.1568 H   0  0  0  0  0  0
  -30.1710  -18.8424   18.6621 H   0  0  0  0  0  0
  -31.7226  -19.4146   18.1047 H   0  0  0  0  0  0
  -30.7726  -20.3449   19.2925 H   0  0  0  0  0  0
  -28.9945  -16.5258   16.7513 H   0  0  0  0  0  0
  -28.7113  -17.5011   18.1766 H   0  0  0  0  0  0
  -27.9972  -15.9249   18.0536 H   0  0  0  0  0  0
  -31.8258  -15.5881   17.0747 H   0  0  0  0  0  0
  -32.3348  -16.2534   18.6015 H   0  0  0  0  0  0
  -31.4762  -17.2512   17.4346 H   0  0  0  0  0  0
  -31.2293  -15.9532   23.1126 H   0  0  0  0  0  0
  -32.5182  -16.8473   23.9042 H   0  0  0  0  0  0
  -32.9133  -15.6084   22.7190 H   0  0  0  0  0  0
  -29.2142  -17.4391   20.4038 H   0  0  0  0  0  0
  -29.6408  -16.4964   21.7723 H   0  0  0  0  0  0
  -33.5663  -23.9375   19.5904 H   0  0  0  0  0  0
  -32.1373  -23.1786   18.9424 H   0  0  0  0  0  0
  -32.4109  -24.2956   21.7590 H   0  0  0  0  0  0
  -31.0156  -23.4167   21.1825 H   0  0  0  0  0  0
  -32.3140  -21.4691   20.8881 H   0  0  0  0  0  0
  -33.9014  -22.1207   21.2112 H   0  0  0  0  0  0
  -30.5782  -25.1579   19.4515 H   0  0  0  0  0  0
  -31.9733  -26.0637   19.9942 H   0  0  0  0  0  0
  -34.6670  -21.5193   18.9379 H   0  0  0  0  0  0
  -33.0693  -21.0862   18.4700 H   0  0  0  0  0  0
  -31.0040  -26.3774   22.2121 H   0  0  0  0  0  0
  -29.6956  -25.2750   21.8798 H   0  0  0  0  0  0
  -35.0008  -19.5660   20.2114 H   0  0  0  0  0  0
  -34.1435  -19.0190   18.8171 H   0  0  0  0  0  0
  -30.0695  -27.9731   20.4962 H   0  0  0  0  0  0
  -29.0709  -27.6053   21.8953 H   0  0  0  0  0  0
  -30.0552  -14.8349   18.0340 H   0  0  0  0  0  0
  1 25  1  0  0  0
  1 30  2  0  0  0
  1 90  1  0  0  0
  2  3  1  0  0  0
  2 25  1  0  0  0
  2 92  1  0  0  0
  2 93  1  0  0  0
  3  4  1  0  0  0
  3 94  1  0  0  0
  3 95  1  0  0  0
  4  5  1  0  0  0
  4 96  1  0  0  0
  4 97  1  0  0  0
  5  6  1  0  0  0
  5 26  1  0  0  0
  5 98  1  0  0  0
  6 25  1  0  0  0
  6 99  1  0  0  0
  6100  1  0  0  0
  7  8  2  0  0  0
  7 26  1  0  0  0
  7 29  1  0  0  0
  8  9  1  0  0  0
  8 22  1  0  0  0
  9 10  1  0  0  0
  9 27  2  0  0  0
 10 11  2  0  0  0
 10 15  1  0  0  0
 11 12  1  0  0  0
 11101  1  0  0  0
 12 13  2  0  0  0
 12102  1  0  0  0
 13 14  1  0  0  0
 13 31  1  0  0  0
 14 15  2  0  0  0
 14103  1  0  0  0
 15104  1  0  0  0
 16 17  2  0  0  0
 16 21  1  0  0  0
 16 31  1  0  0  0
 17 18  1  0  0  0
 17105  1  0  0  0
 18 19  2  0  0  0
 18106  1  0  0  0
 19 20  1  0  0  0
 19 24  1  0  0  0
 20 21  2  0  0  0
 20107  1  0  0  0
 21 23  1  0  0  0
 22 28  1  0  0  0
 22 32  2  0  0  0
 26 27  1  0  0  0
 28108  1  0  0  0
 28109  1  0  0  0
 29110  1  0  0  0
 29111  1  0  0  0
 33 34  1  0  0  0
 33 66  1  0  0  0
 33 70  2  0  0  0
 34 36  1  0  0  0
 34 59  1  0  0  0
 34112  1  0  0  0
 35 44  2  0  0  0
 35 45  1  0  0  0
 35 68  1  0  0  0
 36 56  1  0  0  0
 36113  1  0  0  0
 37 39  1  0  0  0
 37 47  1  0  0  0
 37 66  1  0  0  0
 37114  1  0  0  0
 38 43  2  0  0  0
 38 46  1  0  0  0
 38 47  1  0  0  0
 39 64  1  0  0  0
 39 67  2  0  0  0
 40 52  1  0  0  0
 40 53  2  0  0  0
 40 58  1  0  0  0
 41115  1  0  0  0
 41116  1  0  0  0
 41117  1  0  0  0
 41 48  1  0  0  0
 42 43  1  0  0  0
 42 66  1  0  0  0
 42118  1  0  0  0
 42119  1  0  0  0
 43 44  1  0  0  0
 44120  1  0  0  0
 45 46  2  0  0  0
 45121  1  0  0  0
 46122  1  0  0  0
 47123  1  0  0  0
 47124  1  0  0  0
 48 56  1  0  0  0
 48 65  1  0  0  0
 48125  1  0  0  0
 49 50  1  0  0  0
 49 53  1  0  0  0
 49 64  1  0  0  0
 49126  1  0  0  0
 50 51  1  0  0  0
 50127  1  0  0  0
 50128  1  0  0  0
 51 52  1  0  0  0
 51129  1  0  0  0
 51130  1  0  0  0
 52131  1  0  0  0
 52132  1  0  0  0
 53 54  1  0  0  0
 54 55  2  0  0  0
 54133  1  0  0  0
 55 57  1  0  0  0
 55134  1  0  0  0
 56 69  2  0  0  0
 57 58  2  0  0  0
 57135  1  0  0  0
 58136  1  0  0  0
 59 60  1  0  0  0
 59 61  1  0  0  0
 59 62  1  0  0  0
 60137  1  0  0  0
 60138  1  0  0  0
 60139  1  0  0  0
 61140  1  0  0  0
 61141  1  0  0  0
 61142  1  0  0  0
 62143  1  0  0  0
 62144  1  0  0  0
 62145  1  0  0  0
 63 65  1  0  0  0
 63146  1  0  0  0
 63147  1  0  0  0
 63148  1  0  0  0
 64149  1  0  0  0
 65150  1  0  0  0
 68 86  1  0  0  0
 71 72  2  0  0  0
 71 74  1  0  0  0
 71 89  1  0  0  0
 72 78  1  0  0  0
 72 88  1  0  0  0
 73 88  1  0  0  0
 73 89  1  0  0  0
 73 91  2  0  0  0
 74151  1  0  0  0
 74152  1  0  0  0
 74153  1  0  0  0
 75154  1  0  0  0
 75155  1  0  0  0
 75156  1  0  0  0
 75 87  1  0  0  0
 76 87  1  0  0  0
 76157  1  0  0  0
 76158  1  0  0  0
 76159  1  0  0  0
 77 88  1  0  0  0
 77160  1  0  0  0
 77161  1  0  0  0
 77162  1  0  0  0
 78 90  1  0  0  0
 78163  1  0  0  0
 78164  1  0  0  0
 79 80  1  0  0  0
 79 81  1  0  0  0
 79165  1  0  0  0
 79166  1  0  0  0
 80 82  1  0  0  0
 80167  1  0  0  0
 80168  1  0  0  0
 81 83  1  0  0  0
 81169  1  0  0  0
 81170  1  0  0  0
 82 84  1  0  0  0
 82171  1  0  0  0
 82172  1  0  0  0
 83 85  1  0  0  0
 83173  1  0  0  0
 83174  1  0  0  0
 84 86  1  0  0  0
 84175  1  0  0  0
 84176  1  0  0  0
 85 89  1  0  0  0
 85177  1  0  0  0
 85178  1  0  0  0
 86179  1  0  0  0
 86180  1  0  0  0
 87 90  1  0  0  0
 87181  1  0  0  0
M  ISO  4   1 100  68 101  86 101  90 100
M  END
> <chiral flag>
0

> <version>
0

> <s_m_source_file>
/data/baiqing/PycharmProjects/Reinvent-master-3.2/result/LINK_invent/BTK/process_docking_weight1_custom_sum_contain_oxygen_bond_distance_aromatic_linkinvent_7_9_3/rearranged_h_0023.sdf

> <i_m_source_file_index>
84

> <r_mmod_Potential_Energy-OPLS-2005>
420.646179199219

> <r_mmod_Stretch_Energy-OPLS-2005>
39.4595146179199

> <r_mmod_Bend_Energy-OPLS-2005>
218.428482055664

> <r_mmod_Torsional_Energy-OPLS-2005>
425.221008300781

> <r_mmod_Improper_Torsional_Energy-OPLS-2005>
21.8806381225586

> <r_mmod_Van_der_Waal_Energy-OPLS-2005>
141.101272583008

> <r_mmod_Electrostatic_Energy-OPLS-2005>
-274.515014648438

> <r_mmod_Solvation_Energy-OPLS-2005>
-196.968414306641

> <b_mmod_Minimization_Converged-OPLS-2005>
0

> <r_mmod_RMS_Derivative-OPLS-2005>
5.4559063911438

$$$$
84
                    3D
 Structure written by MMmdl.
181190  0  0  1  0            999 V2000
  -30.7307  -14.4604   20.5263 C   0  0  0  0  0  0
  -30.4113  -12.2826   19.4346 C   0  0  0  0  0  0
  -29.4961  -12.4917   18.2123 C   0  0  0  0  0  0
  -28.0162  -12.3596   18.6225 C   0  0  0  0  0  0
  -27.6584  -13.2120   19.8707 C   0  0  2  0  0  0
  -28.7029  -13.0218   20.9962 C   0  0  0  0  0  0
  -25.2535  -13.8127   20.5679 C   0  0  0  0  0  0
  -24.1812  -13.0400   20.9193 C   0  0  0  0  0  0
  -24.6390  -11.6882   20.8746 C   0  0  0  0  0  0
  -23.9060  -10.4272   21.0404 C   0  0  0  0  0  0
  -24.3609   -9.4187   21.9180 C   0  0  0  0  0  0
  -23.6280   -8.2230   22.0752 C   0  0  0  0  0  0
  -22.4259   -8.0272   21.3551 C   0  0  0  0  0  0
  -21.9895   -9.0243   20.4651 C   0  0  0  0  0  0
  -22.7231  -10.2116   20.3052 C   0  0  0  0  0  0
  -21.6845   -6.0724   22.5279 C   0  0  0  0  0  0
  -21.4014   -6.5629   23.8212 C   0  0  0  0  0  0
  -21.3656   -5.6785   24.9178 C   0  0  0  0  0  0
  -21.6040   -4.3048   24.7226 C   0  0  0  0  0  0
  -21.8823   -3.8139   23.4348 C   0  0  0  0  0  0
  -21.9191   -4.6954   22.3401 C   0  0  0  0  0  0
  -22.7835  -13.5204   21.1843 C   0  0  0  0  0  0
  -22.1662   -4.2141   21.0979 F   0  0  0  0  0  0
  -21.5619   -3.4532   25.7740 F   0  0  0  0  0  0
  -30.0369  -13.2928   20.4359 N   0  0  0  0  0  0
  -26.3006  -12.9333   20.3359 N   0  0  0  0  0  0
  -25.9322  -11.6488   20.5775 N   0  0  0  0  0  0
  -22.0470  -12.8222   22.0407 N   0  0  0  0  0  0
  -25.4165  -15.1818   20.4052 N   0  0  0  0  0  0
  -31.8907  -14.5600   20.1183 O   0  0  0  0  0  0
  -21.6630   -6.8864   21.4240 O   0  0  0  0  0  0
  -22.3528  -14.5508   20.6676 O   0  0  0  0  0  0
  -24.6107  -31.8697   23.2128 C   0  0  0  0  0  0
  -25.9021  -32.4831   23.8409 C   0  0  1  0  0  0
  -27.2429  -27.4673   20.0856 C   0  0  0  0  0  0
  -25.5889  -33.8624   24.2337 N   0  0  0  0  0  0
  -23.3978  -30.4922   21.5519 C   0  0  2  0  0  0
  -24.8473  -28.9605   20.1153 C   0  0  0  0  0  0
  -22.7386  -29.4659   22.5007 C   0  0  0  0  0  0
  -18.0265  -28.1379   22.8494 C   0  0  0  0  0  0
  -24.1484  -36.7310   23.2635 C   0  0  0  0  0  0
  -25.9221  -30.8426   21.3634 C   0  0  0  0  0  0
  -26.0022  -29.4765   20.7165 C   0  0  0  0  0  0
  -27.1985  -28.7292   20.7148 C   0  0  0  0  0  0
  -26.0703  -26.9508   19.4928 C   0  0  0  0  0  0
  -24.8730  -27.6927   19.5070 C   0  0  0  0  0  0
  -23.6062  -29.8235   20.1661 C   0  0  0  0  0  0
  -25.4098  -36.3104   24.0336 C   0  0  1  0  0  0
  -20.5851  -28.3659   23.1328 C   0  0  2  0  0  0
  -20.6760  -26.9395   22.5432 C   0  0  0  0  0  0
  -19.5745  -26.6388   21.5217 C   0  0  0  0  0  0
  -18.1915  -26.7934   22.1610 C   0  0  0  0  0  0
  -19.1514  -28.8833   23.2911 C   0  0  0  0  0  0
  -18.9446  -30.1440   23.8925 C   0  0  0  0  0  0
  -17.6452  -30.6584   24.0571 C   0  0  0  0  0  0
  -25.9022  -34.9473   23.5129 C   0  0  0  0  0  0
  -16.5341  -29.9090   23.6324 C   0  0  0  0  0  0
  -16.7255  -28.6506   23.0348 C   0  0  0  0  0  0
  -26.4460  -31.6595   25.0722 C   0  0  0  0  0  0
  -25.3745  -31.3723   26.1493 C   0  0  0  0  0  0
  -27.0255  -30.3028   24.6077 C   0  0  0  0  0  0
  -27.6065  -32.4290   25.7458 C   0  0  0  0  0  0
  -27.5572  -37.1802   24.8455 C   0  0  0  0  0  0
  -21.4119  -29.3025   22.3732 N   0  0  0  0  0  0
  -26.4282  -37.3788   23.9405 N   0  0  0  0  0  0
  -24.6614  -31.0819   22.1019 N   0  0  0  0  0  0
  -23.4167  -28.8206   23.3046 O   0  0  0  0  0  0
  -28.4137  -26.7451   20.0971 O   0  0  0  0  0  0
  -26.5586  -34.8918   22.4690 O   0  0  0  0  0  0
  -23.5314  -32.1444   23.7541 O   0  0  0  0  0  0
  -29.2142  -17.8242   20.3534 C   0  0  0  0  0  0
  -29.8506  -18.9489   19.8749 C   0  0  0  0  0  0
  -30.2697  -16.8909   20.5724 C   0  0  0  0  0  0
  -27.5332  -22.1470   19.5851 C   0  0  0  0  0  0
  -28.2902  -23.2569   18.8290 C   0  0  0  0  0  0
  -30.1009  -23.1504   20.5257 C   0  0  0  0  0  0
  -28.4957  -21.1465   20.2709 C   0  0  2  0  0  0
  -29.3411  -22.0068   21.2509 C   0  0  1  0  0  0
  -27.7426  -17.5565   20.5027 C   0  0  0  0  0  0
  -30.2403  -21.1913   22.1941 C   0  0  0  0  0  0
  -28.5072  -19.8465   18.0069 C   0  0  0  0  0  0
  -30.6560  -24.7520   17.7775 C   0  0  0  0  0  0
  -29.6803  -27.6172   18.2697 C   0  0  0  0  0  0
  -32.3256  -19.4438   19.3762 C   0  0  0  0  0  0
  -29.3008  -20.2290   19.2754 C   0  0  2  0  0  0
  -29.9084  -25.1742   19.0671 C   0  0  1  0  0  0
  -28.9562  -26.3794   18.8284 C   0  0  1  0  0  0
  -31.4628  -17.4165   20.3435 N   0  0  0  0  0  0
  -31.2091  -18.6543   19.8706 N   0  0  0  0  0  0
  -30.0145  -15.5321   20.9218 N   0  0  0  0  0  0
  -29.1954  -24.0303   19.7271 N   0  3  1  0  0  0
  -31.4605  -12.3401   19.1405 H   0  0  0  0  0  0
  -30.2757  -11.2819   19.8482 H   0  0  0  0  0  0
  -29.7342  -11.7654   17.4337 H   0  0  0  0  0  0
  -29.6761  -13.4772   17.7791 H   0  0  0  0  0  0
  -27.8269  -11.3049   18.8261 H   0  0  0  0  0  0
  -27.3691  -12.6249   17.7860 H   0  0  0  0  0  0
  -27.6933  -14.2555   19.5561 H   0  0  0  0  0  0
  -28.6695  -11.9993   21.3749 H   0  0  0  0  0  0
  -28.4786  -13.6591   21.8527 H   0  0  0  0  0  0
  -25.2750   -9.5657   22.4759 H   0  0  0  0  0  0
  -23.9987   -7.4612   22.7465 H   0  0  0  0  0  0
  -21.0826   -8.8759   19.8955 H   0  0  0  0  0  0
  -22.3690  -10.9653   19.6158 H   0  0  0  0  0  0
  -21.2014   -7.6136   23.9715 H   0  0  0  0  0  0
  -21.1469   -6.0514   25.9078 H   0  0  0  0  0  0
  -22.0605   -2.7599   23.2859 H   0  0  0  0  0  0
  -22.4062  -11.9883   22.4817 H   0  0  0  0  0  0
  -21.1089  -13.1265   22.2593 H   0  0  0  0  0  0
  -24.6414  -15.8289   20.4960 H   0  0  0  0  0  0
  -26.2538  -15.6141   20.0416 H   0  0  0  0  0  0
  -26.7096  -32.5560   23.1182 H   0  0  0  0  0  0
  -25.0050  -33.9800   25.0486 H   0  0  0  0  0  0
  -22.6841  -31.3067   21.4141 H   0  0  0  0  0  0
  -23.3742  -35.9647   23.3299 H   0  0  0  0  0  0
  -24.3589  -36.8924   22.2051 H   0  0  0  0  0  0
  -23.7244  -37.6514   23.6654 H   0  0  0  0  0  0
  -26.0273  -31.6076   20.5928 H   0  0  0  0  0  0
  -26.8124  -30.9017   21.9774 H   0  0  0  0  0  0
  -28.0900  -29.1213   21.1846 H   0  0  0  0  0  0
  -26.0693  -25.9737   19.0323 H   0  0  0  0  0  0
  -23.9818  -27.2840   19.0513 H   0  0  0  0  0  0
  -23.7086  -30.5981   19.4048 H   0  0  0  0  0  0
  -22.7318  -29.2391   19.8743 H   0  0  0  0  0  0
  -25.1276  -36.1967   25.0832 H   0  0  0  0  0  0
  -20.9938  -28.3237   24.1448 H   0  0  0  0  0  0
  -20.5650  -26.2263   23.3617 H   0  0  0  0  0  0
  -21.6638  -26.7451   22.1228 H   0  0  0  0  0  0
  -19.6906  -25.6305   21.1233 H   0  0  0  0  0  0
  -19.6687  -27.3210   20.6756 H   0  0  0  0  0  0
  -17.4193  -26.6697   21.4002 H   0  0  0  0  0  0
  -18.0294  -26.0064   22.8986 H   0  0  0  0  0  0
  -19.7925  -30.7249   24.2302 H   0  0  0  0  0  0
  -17.5008  -31.6266   24.5171 H   0  0  0  0  0  0
  -15.5344  -30.3003   23.7637 H   0  0  0  0  0  0
  -15.8651  -28.0832   22.7054 H   0  0  0  0  0  0
  -24.5897  -30.7080   25.7852 H   0  0  0  0  0  0
  -24.8965  -32.2894   26.4945 H   0  0  0  0  0  0
  -25.8110  -30.8890   27.0243 H   0  0  0  0  0  0
  -26.2767  -29.6809   24.1155 H   0  0  0  0  0  0
  -27.4041  -29.7249   25.4519 H   0  0  0  0  0  0
  -27.8608  -30.4331   23.9193 H   0  0  0  0  0  0
  -27.2725  -33.3610   26.2028 H   0  0  0  0  0  0
  -28.3868  -32.6803   25.0261 H   0  0  0  0  0  0
  -28.0728  -31.8405   26.5370 H   0  0  0  0  0  0
  -28.2608  -38.0080   24.7488 H   0  0  0  0  0  0
  -28.1047  -36.2618   24.6287 H   0  0  0  0  0  0
  -27.2296  -37.1472   25.8859 H   0  0  0  0  0  0
  -20.9264  -29.8731   21.6951 H   0  0  0  0  0  0
  -26.0170  -38.2863   24.1414 H   0  0  0  0  0  0
  -26.8369  -21.6407   18.9174 H   0  0  0  0  0  0
  -26.8910  -22.6083   20.3373 H   0  0  0  0  0  0
  -27.5639  -23.9215   18.3620 H   0  0  0  0  0  0
  -28.8644  -22.8135   18.0170 H   0  0  0  0  0  0
  -30.8817  -22.7350   19.8894 H   0  0  0  0  0  0
  -30.6157  -23.7611   21.2691 H   0  0  0  0  0  0
  -27.8650  -20.4952   20.8737 H   0  0  0  0  0  0
  -28.6289  -22.4938   21.9203 H   0  0  0  0  0  0
  -27.1417  -18.4627   20.5316 H   0  0  0  0  0  0
  -27.5224  -17.0075   21.4186 H   0  0  0  0  0  0
  -27.3742  -16.9660   19.6650 H   0  0  0  0  0  0
  -31.0965  -20.7616   21.6826 H   0  0  0  0  0  0
  -29.6884  -20.3749   22.6619 H   0  0  0  0  0  0
  -30.6327  -21.8179   22.9956 H   0  0  0  0  0  0
  -29.0985  -19.1892   17.3678 H   0  0  0  0  0  0
  -28.2443  -20.7063   17.3935 H   0  0  0  0  0  0
  -27.5862  -19.3179   18.2524 H   0  0  0  0  0  0
  -31.3551  -25.5244   17.4569 H   0  0  0  0  0  0
  -29.9700  -24.5808   16.9471 H   0  0  0  0  0  0
  -31.2451  -23.8463   17.9168 H   0  0  0  0  0  0
  -30.0721  -27.4364   17.2692 H   0  0  0  0  0  0
  -30.5111  -27.9111   18.9108 H   0  0  0  0  0  0
  -29.0057  -28.4696   18.1925 H   0  0  0  0  0  0
  -32.4466  -20.3496   19.9682 H   0  0  0  0  0  0
  -32.1506  -19.7213   18.3367 H   0  0  0  0  0  0
  -33.2535  -18.8722   19.4221 H   0  0  0  0  0  0
  -30.1353  -20.8218   18.9068 H   0  0  0  0  0  0
  -30.6651  -25.5214   19.7737 H   0  0  0  0  0  0
  -28.1758  -26.0953   18.1226 H   0  0  0  0  0  0
  -29.0768  -15.3239   21.2207 H   0  0  0  0  0  0
  -28.5980  -24.4756   20.4121 H   0  0  0  0  0  0
  1 25  1  0  0  0
  1 30  2  0  0  0
  1 90  1  0  0  0
  2  3  1  0  0  0
  2 25  1  0  0  0
  2 92  1  0  0  0
  2 93  1  0  0  0
  3  4  1  0  0  0
  3 94  1  0  0  0
  3 95  1  0  0  0
  4  5  1  0  0  0
  4 96  1  0  0  0
  4 97  1  0  0  0
  5  6  1  0  0  0
  5 26  1  0  0  0
  5 98  1  0  0  0
  6 25  1  0  0  0
  6 99  1  0  0  0
  6100  1  0  0  0
  7  8  2  0  0  0
  7 26  1  0  0  0
  7 29  1  0  0  0
  8  9  1  0  0  0
  8 22  1  0  0  0
  9 10  1  0  0  0
  9 27  2  0  0  0
 10 11  2  0  0  0
 10 15  1  0  0  0
 11 12  1  0  0  0
 11101  1  0  0  0
 12 13  2  0  0  0
 12102  1  0  0  0
 13 14  1  0  0  0
 13 31  1  0  0  0
 14 15  2  0  0  0
 14103  1  0  0  0
 15104  1  0  0  0
 16 17  2  0  0  0
 16 21  1  0  0  0
 16 31  1  0  0  0
 17 18  1  0  0  0
 17105  1  0  0  0
 18 19  2  0  0  0
 18106  1  0  0  0
 19 20  1  0  0  0
 19 24  1  0  0  0
 20 21  2  0  0  0
 20107  1  0  0  0
 21 23  1  0  0  0
 22 28  1  0  0  0
 22 32  2  0  0  0
 26 27  1  0  0  0
 28108  1  0  0  0
 28109  1  0  0  0
 29110  1  0  0  0
 29111  1  0  0  0
 33 34  1  0  0  0
 33 66  1  0  0  0
 33 70  2  0  0  0
 34 36  1  0  0  0
 34 59  1  0  0  0
 34112  1  0  0  0
 35 44  2  0  0  0
 35 45  1  0  0  0
 35 68  1  0  0  0
 36 56  1  0  0  0
 36113  1  0  0  0
 37 39  1  0  0  0
 37 47  1  0  0  0
 37 66  1  0  0  0
 37114  1  0  0  0
 38 43  2  0  0  0
 38 46  1  0  0  0
 38 47  1  0  0  0
 39 64  1  0  0  0
 39 67  2  0  0  0
 40 52  1  0  0  0
 40 53  2  0  0  0
 40 58  1  0  0  0
 41115  1  0  0  0
 41116  1  0  0  0
 41117  1  0  0  0
 41 48  1  0  0  0
 42 43  1  0  0  0
 42 66  1  0  0  0
 42118  1  0  0  0
 42119  1  0  0  0
 43 44  1  0  0  0
 44120  1  0  0  0
 45 46  2  0  0  0
 45121  1  0  0  0
 46122  1  0  0  0
 47123  1  0  0  0
 47124  1  0  0  0
 48 56  1  0  0  0
 48 65  1  0  0  0
 48125  1  0  0  0
 49 50  1  0  0  0
 49 53  1  0  0  0
 49 64  1  0  0  0
 49126  1  0  0  0
 50 51  1  0  0  0
 50127  1  0  0  0
 50128  1  0  0  0
 51 52  1  0  0  0
 51129  1  0  0  0
 51130  1  0  0  0
 52131  1  0  0  0
 52132  1  0  0  0
 53 54  1  0  0  0
 54 55  2  0  0  0
 54133  1  0  0  0
 55 57  1  0  0  0
 55134  1  0  0  0
 56 69  2  0  0  0
 57 58  2  0  0  0
 57135  1  0  0  0
 58136  1  0  0  0
 59 60  1  0  0  0
 59 61  1  0  0  0
 59 62  1  0  0  0
 60137  1  0  0  0
 60138  1  0  0  0
 60139  1  0  0  0
 61140  1  0  0  0
 61141  1  0  0  0
 61142  1  0  0  0
 62143  1  0  0  0
 62144  1  0  0  0
 62145  1  0  0  0
 63 65  1  0  0  0
 63146  1  0  0  0
 63147  1  0  0  0
 63148  1  0  0  0
 64149  1  0  0  0
 65150  1  0  0  0
 68 87  1  0  0  0
 71 72  2  0  0  0
 71 73  1  0  0  0
 71 79  1  0  0  0
 72 85  1  0  0  0
 72 89  1  0  0  0
 73 88  2  0  0  0
 73 90  1  0  0  0
 74 75  1  0  0  0
 74151  1  0  0  0
 74152  1  0  0  0
 74 77  1  0  0  0
 75153  1  0  0  0
 75154  1  0  0  0
 75 91  1  0  0  0
 76 78  1  0  0  0
 76 91  1  0  0  0
 76155  1  0  0  0
 76156  1  0  0  0
 77 78  1  0  0  0
 77 85  1  0  0  0
 77157  1  0  0  0
 78 80  1  0  0  0
 78158  1  0  0  0
 79159  1  0  0  0
 79160  1  0  0  0
 79161  1  0  0  0
 80162  1  0  0  0
 80163  1  0  0  0
 80164  1  0  0  0
 81165  1  0  0  0
 81166  1  0  0  0
 81167  1  0  0  0
 81 85  1  0  0  0
 82168  1  0  0  0
 82169  1  0  0  0
 82170  1  0  0  0
 82 86  1  0  0  0
 83171  1  0  0  0
 83172  1  0  0  0
 83173  1  0  0  0
 83 87  1  0  0  0
 84 89  1  0  0  0
 84174  1  0  0  0
 84175  1  0  0  0
 84176  1  0  0  0
 85177  1  0  0  0
 86 87  1  0  0  0
 86 91  1  0  0  0
 86178  1  0  0  0
 87179  1  0  0  0
 88 89  1  0  0  0
 90180  1  0  0  0
 91181  1  0  0  0
M  CHG  1  91   1
M  ISO  4   1 100  68 101  87 101  90 100
M  END
> <chiral flag>
0

> <version>
0

> <s_m_source_file>
/data/baiqing/PycharmProjects/Reinvent-master-3.2/result/LINK_invent/BTK/process_docking_weight1_custom_sum_contain_oxygen_bond_distance_aromatic_linkinvent_7_9_3/rearranged_h_0023.sdf

> <i_m_source_file_index>
85

> <r_mmod_Potential_Energy-OPLS-2005>
-87.0055618286133

> <r_mmod_Stretch_Energy-OPLS-2005>
40.6248321533203

> <r_mmod_Bend_Energy-OPLS-2005>
116.820220947266

> <r_mmod_Torsional_Energy-OPLS-2005>
301.867340087891

> <r_mmod_Improper_Torsional_Energy-OPLS-2005>
6.30737924575806

> <r_mmod_Van_der_Waal_Energy-OPLS-2005>
131.386215209961

> <r_mmod_Electrostatic_Energy-OPLS-2005>
-264.134674072266

> <r_mmod_Solvation_Energy-OPLS-2005>
-434.452972412109

> <b_mmod_Minimization_Converged-OPLS-2005>
0

> <r_mmod_RMS_Derivative-OPLS-2005>
1.37081277370453

$$$$
85
                    3D
 Structure written by MMmdl.
187196  0  0  1  0            999 V2000
  -30.7303  -14.3914   20.5847 C   0  0  0  0  0  0
  -30.4105  -12.2580   19.4015 C   0  0  0  0  0  0
  -29.4882  -12.4998   18.1934 C   0  0  0  0  0  0
  -28.0065  -12.3675   18.5982 C   0  0  0  0  0  0
  -27.6656  -13.1983   19.8674 C   0  0  2  0  0  0
  -28.7018  -12.9476   20.9851 C   0  0  0  0  0  0
  -25.2598  -13.8140   20.5496 C   0  0  0  0  0  0
  -24.1864  -13.0430   20.9079 C   0  0  0  0  0  0
  -24.6457  -11.6902   20.8675 C   0  0  0  0  0  0
  -23.9116  -10.4295   21.0383 C   0  0  0  0  0  0
  -24.3666   -9.4197   21.9172 C   0  0  0  0  0  0
  -23.6294   -8.2252   22.0777 C   0  0  0  0  0  0
  -22.4254   -8.0330   21.3594 C   0  0  0  0  0  0
  -21.9911   -9.0270   20.4652 C   0  0  0  0  0  0
  -22.7256  -10.2133   20.3038 C   0  0  0  0  0  0
  -21.6842   -6.0781   22.5300 C   0  0  0  0  0  0
  -21.4049   -6.5681   23.8243 C   0  0  0  0  0  0
  -21.3625   -5.6796   24.9187 C   0  0  0  0  0  0
  -21.6026   -4.3064   24.7215 C   0  0  0  0  0  0
  -21.8816   -3.8188   23.4331 C   0  0  0  0  0  0
  -21.9171   -4.7009   22.3396 C   0  0  0  0  0  0
  -22.7902  -13.5232   21.1681 C   0  0  0  0  0  0
  -22.1623   -4.2227   21.0942 F   0  0  0  0  0  0
  -21.5593   -3.4504   25.7708 F   0  0  0  0  0  0
  -30.0386  -13.2336   20.4359 N   0  0  0  0  0  0
  -26.3058  -12.9308   20.3304 N   0  0  0  0  0  0
  -25.9369  -11.6468   20.5745 N   0  0  0  0  0  0
  -22.0574  -12.8251   22.0285 N   0  0  0  0  0  0
  -25.4207  -15.1811   20.3783 N   0  0  0  0  0  0
  -31.8392  -14.5910   20.0866 O   0  0  0  0  0  0
  -21.6637   -6.8910   21.4260 O   0  0  0  0  0  0
  -22.3522  -14.5488   20.6464 O   0  0  0  0  0  0
  -24.6146  -31.8694   23.2127 C   0  0  0  0  0  0
  -25.9024  -32.4847   23.8418 C   0  0  1  0  0  0
  -27.2532  -27.4732   20.0752 C   0  0  0  0  0  0
  -25.5884  -33.8637   24.2351 N   0  0  0  0  0  0
  -23.4032  -30.4921   21.5507 C   0  0  2  0  0  0
  -24.8548  -28.9608   20.1187 C   0  0  0  0  0  0
  -22.7422  -29.4661   22.4989 C   0  0  0  0  0  0
  -18.0274  -28.1393   22.8494 C   0  0  0  0  0  0
  -24.1485  -36.7322   23.2645 C   0  0  0  0  0  0
  -25.9305  -30.8468   21.3607 C   0  0  0  0  0  0
  -26.0147  -29.4836   20.7070 C   0  0  0  0  0  0
  -27.2201  -28.7474   20.6809 C   0  0  0  0  0  0
  -26.0713  -26.9456   19.5183 C   0  0  0  0  0  0
  -24.8756  -27.6881   19.5224 C   0  0  0  0  0  0
  -23.6143  -29.8236   20.1659 C   0  0  0  0  0  0
  -25.4110  -36.3128   24.0351 C   0  0  1  0  0  0
  -20.5871  -28.3670   23.1318 C   0  0  2  0  0  0
  -20.6758  -26.9402   22.5425 C   0  0  0  0  0  0
  -19.5750  -26.6392   21.5214 C   0  0  0  0  0  0
  -18.1922  -26.7932   22.1613 C   0  0  0  0  0  0
  -19.1522  -28.8847   23.2904 C   0  0  0  0  0  0
  -18.9450  -30.1449   23.8926 C   0  0  0  0  0  0
  -17.6454  -30.6591   24.0568 C   0  0  0  0  0  0
  -25.9026  -34.9491   23.5151 C   0  0  0  0  0  0
  -16.5348  -29.9100   23.6323 C   0  0  0  0  0  0
  -16.7263  -28.6518   23.0342 C   0  0  0  0  0  0
  -26.4457  -31.6611   25.0728 C   0  0  0  0  0  0
  -25.3729  -31.3714   26.1487 C   0  0  0  0  0  0
  -27.0295  -30.3063   24.6091 C   0  0  0  0  0  0
  -27.6055  -32.4318   25.7477 C   0  0  0  0  0  0
  -27.5592  -37.1811   24.8466 C   0  0  0  0  0  0
  -21.4139  -29.3036   22.3739 N   0  0  0  0  0  0
  -26.4302  -37.3808   23.9419 N   0  0  0  0  0  0
  -24.6676  -31.0819   22.1005 N   0  0  0  0  0  0
  -23.4186  -28.8198   23.3040 O   0  0  0  0  0  0
  -28.4045  -26.7205   20.0414 O   0  0  0  0  0  0
  -26.5595  -34.8929   22.4716 O   0  0  0  0  0  0
  -23.5324  -32.1429   23.7518 O   0  0  0  0  0  0
  -29.8199  -22.6674   15.8658 C   0  0  0  0  0  0
  -29.9582  -21.2673   15.8462 C   0  0  0  0  0  0
  -28.5751  -23.2759   16.1174 C   0  0  0  0  0  0
  -27.4332  -22.4627   16.3933 C   0  0  0  0  0  0
  -27.5701  -21.0400   16.3776 C   0  0  0  0  0  0
  -28.8251  -20.4654   16.0680 C   0  0  0  0  0  0
  -32.1802  -21.0332   14.4601 C   0  0  0  0  0  0
  -31.5384  -19.6676   14.4831 C   0  0  0  0  0  0
  -31.3000  -20.6347   15.6221 C   0  0  0  0  0  0
  -25.0917  -23.0553   15.5242 C   0  0  0  0  0  0
  -28.5122  -24.8009   16.0092 C   0  0  0  0  0  0
  -26.0744  -23.1087   16.6968 C   0  0  0  0  0  0
  -26.3988  -20.0834   16.6540 C   0  0  0  0  0  0
  -28.3404  -25.5586   17.3430 C   0  0  0  0  0  0
  -26.6417  -19.0434   17.7774 C   0  0  0  0  0  0
  -27.1589  -19.6515   19.0995 C   0  0  0  0  0  0
  -27.1843  -18.6665   20.2803 C   0  0  0  0  0  0
  -28.3022  -17.6033   20.2080 C   0  0  0  0  0  0
  -29.3125  -17.7259   21.3638 C   0  0  0  0  0  0
  -29.6279  -26.0066   18.0488 C   0  0  0  0  0  0
  -30.5063  -16.7658   21.2431 C   0  0  0  0  0  0
  -29.3757  -27.1287   19.0803 C   0  0  0  0  0  0
  -30.0684  -15.3727   21.2048 N   0  0  0  0  0  0
  -28.9559  -19.1198   15.9803 F   0  0  0  0  0  0
  -31.4598  -12.3266   19.0984 H   0  0  0  0  0  0
  -30.2704  -11.2418   19.7715 H   0  0  0  0  0  0
  -29.7275  -11.7974   17.3917 H   0  0  0  0  0  0
  -29.6671  -13.4973   17.7936 H   0  0  0  0  0  0
  -27.8002  -11.3093   18.7702 H   0  0  0  0  0  0
  -27.3655  -12.6759   17.7724 H   0  0  0  0  0  0
  -27.7254  -14.2494   19.5841 H   0  0  0  0  0  0
  -28.6703  -11.9046   21.3005 H   0  0  0  0  0  0
  -28.4625  -13.5243   21.8811 H   0  0  0  0  0  0
  -25.2833   -9.5654   22.4724 H   0  0  0  0  0  0
  -23.9994   -7.4640   22.7510 H   0  0  0  0  0  0
  -21.0857   -8.8771   19.8954 H   0  0  0  0  0  0
  -22.3719  -10.9666   19.6153 H   0  0  0  0  0  0
  -21.2134   -7.6209   23.9743 H   0  0  0  0  0  0
  -21.1400   -6.0581   25.9070 H   0  0  0  0  0  0
  -22.0627   -2.7666   23.2804 H   0  0  0  0  0  0
  -22.4213  -11.9934   22.4701 H   0  0  0  0  0  0
  -21.1217  -13.1309   22.2459 H   0  0  0  0  0  0
  -24.6385  -15.8201   20.4774 H   0  0  0  0  0  0
  -26.2373  -15.6225   19.9748 H   0  0  0  0  0  0
  -26.7118  -32.5570   23.1214 H   0  0  0  0  0  0
  -25.0024  -33.9800   25.0488 H   0  0  0  0  0  0
  -22.6918  -31.3082   21.4103 H   0  0  0  0  0  0
  -23.3745  -35.9651   23.3316 H   0  0  0  0  0  0
  -24.3579  -36.8918   22.2053 H   0  0  0  0  0  0
  -23.7219  -37.6531   23.6639 H   0  0  0  0  0  0
  -26.0373  -31.6141   20.5928 H   0  0  0  0  0  0
  -26.8203  -30.9022   21.9765 H   0  0  0  0  0  0
  -28.1176  -29.1525   21.1270 H   0  0  0  0  0  0
  -26.0728  -25.9603   19.0788 H   0  0  0  0  0  0
  -23.9832  -27.2729   19.0750 H   0  0  0  0  0  0
  -23.7263  -30.5990   19.4076 H   0  0  0  0  0  0
  -22.7403  -29.2421   19.8658 H   0  0  0  0  0  0
  -25.1276  -36.2015   25.0840 H   0  0  0  0  0  0
  -20.9956  -28.3244   24.1441 H   0  0  0  0  0  0
  -20.5653  -26.2289   23.3624 H   0  0  0  0  0  0
  -21.6630  -26.7441   22.1231 H   0  0  0  0  0  0
  -19.6902  -25.6305   21.1246 H   0  0  0  0  0  0
  -19.6693  -27.3207   20.6753 H   0  0  0  0  0  0
  -17.4194  -26.6700   21.4008 H   0  0  0  0  0  0
  -18.0303  -26.0074   22.9010 H   0  0  0  0  0  0
  -19.7925  -30.7251   24.2316 H   0  0  0  0  0  0
  -17.5008  -31.6266   24.5181 H   0  0  0  0  0  0
  -15.5345  -30.3011   23.7628 H   0  0  0  0  0  0
  -15.8661  -28.0846   22.7037 H   0  0  0  0  0  0
  -24.5896  -30.7073   25.7823 H   0  0  0  0  0  0
  -24.8925  -32.2868   26.4954 H   0  0  0  0  0  0
  -25.8071  -30.8868   27.0243 H   0  0  0  0  0  0
  -26.2843  -29.6829   24.1153 H   0  0  0  0  0  0
  -27.4094  -29.7294   25.4532 H   0  0  0  0  0  0
  -27.8653  -30.4411   23.9227 H   0  0  0  0  0  0
  -27.2704  -33.3608   26.2110 H   0  0  0  0  0  0
  -28.3827  -32.6899   25.0268 H   0  0  0  0  0  0
  -28.0781  -31.8412   26.5344 H   0  0  0  0  0  0
  -28.2614  -38.0103   24.7515 H   0  0  0  0  0  0
  -28.1072  -36.2634   24.6277 H   0  0  0  0  0  0
  -27.2309  -37.1456   25.8867 H   0  0  0  0  0  0
  -20.9323  -29.8789   21.6970 H   0  0  0  0  0  0
  -26.0198  -38.2891   24.1408 H   0  0  0  0  0  0
  -30.6844  -23.2815   15.6647 H   0  0  0  0  0  0
  -31.7903  -21.7414   13.7324 H   0  0  0  0  0  0
  -33.2572  -21.0647   14.6169 H   0  0  0  0  0  0
  -32.1973  -18.8195   14.6636 H   0  0  0  0  0  0
  -30.7233  -19.4873   13.7826 H   0  0  0  0  0  0
  -31.7830  -20.4235   16.5732 H   0  0  0  0  0  0
  -24.1811  -23.6037   15.7699 H   0  0  0  0  0  0
  -24.8055  -22.0366   15.2644 H   0  0  0  0  0  0
  -25.5268  -23.5245   14.6403 H   0  0  0  0  0  0
  -27.6843  -25.0516   15.3429 H   0  0  0  0  0  0
  -29.3999  -25.1710   15.4928 H   0  0  0  0  0  0
  -26.1662  -24.1569   16.9551 H   0  0  0  0  0  0
  -25.6507  -22.6601   17.5962 H   0  0  0  0  0  0
  -26.1575  -19.5723   15.7206 H   0  0  0  0  0  0
  -25.4918  -20.6216   16.9170 H   0  0  0  0  0  0
  -27.7520  -24.9857   18.0536 H   0  0  0  0  0  0
  -27.7597  -26.4534   17.1194 H   0  0  0  0  0  0
  -27.3329  -18.2730   17.4358 H   0  0  0  0  0  0
  -25.7097  -18.5101   17.9595 H   0  0  0  0  0  0
  -26.5199  -20.4936   19.3696 H   0  0  0  0  0  0
  -28.1601  -20.0637   18.9676 H   0  0  0  0  0  0
  -26.2133  -18.1815   20.3816 H   0  0  0  0  0  0
  -27.3040  -19.2393   21.2011 H   0  0  0  0  0  0
  -28.8249  -17.6493   19.2499 H   0  0  0  0  0  0
  -27.8472  -16.6148   20.2445 H   0  0  0  0  0  0
  -28.8077  -17.5600   22.3176 H   0  0  0  0  0  0
  -29.6956  -18.7476   21.4020 H   0  0  0  0  0  0
  -30.3501  -26.3637   17.3147 H   0  0  0  0  0  0
  -30.0928  -25.1465   18.5286 H   0  0  0  0  0  0
  -31.1826  -16.9096   22.0871 H   0  0  0  0  0  0
  -31.0761  -17.0153   20.3410 H   0  0  0  0  0  0
  -29.0868  -28.0466   18.5631 H   0  0  0  0  0  0
  -30.3046  -27.3583   19.6027 H   0  0  0  0  0  0
  -29.1552  -15.1548   21.5679 H   0  0  0  0  0  0
  1 25  1  0  0  0
  1 30  2  0  0  0
  1 93  1  0  0  0
  2  3  1  0  0  0
  2 25  1  0  0  0
  2 95  1  0  0  0
  2 96  1  0  0  0
  3  4  1  0  0  0
  3 97  1  0  0  0
  3 98  1  0  0  0
  4  5  1  0  0  0
  4 99  1  0  0  0
  4100  1  0  0  0
  5  6  1  0  0  0
  5 26  1  0  0  0
  5101  1  0  0  0
  6 25  1  0  0  0
  6102  1  0  0  0
  6103  1  0  0  0
  7  8  2  0  0  0
  7 26  1  0  0  0
  7 29  1  0  0  0
  8  9  1  0  0  0
  8 22  1  0  0  0
  9 10  1  0  0  0
  9 27  2  0  0  0
 10 11  2  0  0  0
 10 15  1  0  0  0
 11 12  1  0  0  0
 11104  1  0  0  0
 12 13  2  0  0  0
 12105  1  0  0  0
 13 14  1  0  0  0
 13 31  1  0  0  0
 14 15  2  0  0  0
 14106  1  0  0  0
 15107  1  0  0  0
 16 17  2  0  0  0
 16 21  1  0  0  0
 16 31  1  0  0  0
 17 18  1  0  0  0
 17108  1  0  0  0
 18 19  2  0  0  0
 18109  1  0  0  0
 19 20  1  0  0  0
 19 24  1  0  0  0
 20 21  2  0  0  0
 20110  1  0  0  0
 21 23  1  0  0  0
 22 28  1  0  0  0
 22 32  2  0  0  0
 26 27  1  0  0  0
 28111  1  0  0  0
 28112  1  0  0  0
 29113  1  0  0  0
 29114  1  0  0  0
 33 34  1  0  0  0
 33 66  1  0  0  0
 33 70  2  0  0  0
 34 36  1  0  0  0
 34 59  1  0  0  0
 34115  1  0  0  0
 35 44  2  0  0  0
 35 45  1  0  0  0
 35 68  1  0  0  0
 36 56  1  0  0  0
 36116  1  0  0  0
 37 39  1  0  0  0
 37 47  1  0  0  0
 37 66  1  0  0  0
 37117  1  0  0  0
 38 43  2  0  0  0
 38 46  1  0  0  0
 38 47  1  0  0  0
 39 64  1  0  0  0
 39 67  2  0  0  0
 40 52  1  0  0  0
 40 53  2  0  0  0
 40 58  1  0  0  0
 41118  1  0  0  0
 41119  1  0  0  0
 41120  1  0  0  0
 41 48  1  0  0  0
 42 43  1  0  0  0
 42 66  1  0  0  0
 42121  1  0  0  0
 42122  1  0  0  0
 43 44  1  0  0  0
 44123  1  0  0  0
 45 46  2  0  0  0
 45124  1  0  0  0
 46125  1  0  0  0
 47126  1  0  0  0
 47127  1  0  0  0
 48 56  1  0  0  0
 48 65  1  0  0  0
 48128  1  0  0  0
 49 50  1  0  0  0
 49 53  1  0  0  0
 49 64  1  0  0  0
 49129  1  0  0  0
 50 51  1  0  0  0
 50130  1  0  0  0
 50131  1  0  0  0
 51 52  1  0  0  0
 51132  1  0  0  0
 51133  1  0  0  0
 52134  1  0  0  0
 52135  1  0  0  0
 53 54  1  0  0  0
 54 55  2  0  0  0
 54136  1  0  0  0
 55 57  1  0  0  0
 55137  1  0  0  0
 56 69  2  0  0  0
 57 58  2  0  0  0
 57138  1  0  0  0
 58139  1  0  0  0
 59 60  1  0  0  0
 59 61  1  0  0  0
 59 62  1  0  0  0
 60140  1  0  0  0
 60141  1  0  0  0
 60142  1  0  0  0
 61143  1  0  0  0
 61144  1  0  0  0
 61145  1  0  0  0
 62146  1  0  0  0
 62147  1  0  0  0
 62148  1  0  0  0
 63 65  1  0  0  0
 63149  1  0  0  0
 63150  1  0  0  0
 63151  1  0  0  0
 64152  1  0  0  0
 65153  1  0  0  0
 68 92  1  0  0  0
 71 72  2  0  0  0
 71 73  1  0  0  0
 71154  1  0  0  0
 72 76  1  0  0  0
 72 79  1  0  0  0
 73 74  2  0  0  0
 73 81  1  0  0  0
 74 75  1  0  0  0
 74 82  1  0  0  0
 75 76  2  0  0  0
 75 83  1  0  0  0
 76 94  1  0  0  0
 77 78  1  0  0  0
 77 79  1  0  0  0
 77155  1  0  0  0
 77156  1  0  0  0
 78 79  1  0  0  0
 78157  1  0  0  0
 78158  1  0  0  0
 79159  1  0  0  0
 80 82  1  0  0  0
 80160  1  0  0  0
 80161  1  0  0  0
 80162  1  0  0  0
 81 84  1  0  0  0
 81163  1  0  0  0
 81164  1  0  0  0
 82165  1  0  0  0
 82166  1  0  0  0
 83 85  1  0  0  0
 83167  1  0  0  0
 83168  1  0  0  0
 84 90  1  0  0  0
 84169  1  0  0  0
 84170  1  0  0  0
 85 86  1  0  0  0
 85171  1  0  0  0
 85172  1  0  0  0
 86 87  1  0  0  0
 86173  1  0  0  0
 86174  1  0  0  0
 87 88  1  0  0  0
 87175  1  0  0  0
 87176  1  0  0  0
 88 89  1  0  0  0
 88177  1  0  0  0
 88178  1  0  0  0
 89 91  1  0  0  0
 89179  1  0  0  0
 89180  1  0  0  0
 90 92  1  0  0  0
 90181  1  0  0  0
 90182  1  0  0  0
 91 93  1  0  0  0
 91183  1  0  0  0
 91184  1  0  0  0
 92185  1  0  0  0
 92186  1  0  0  0
 93187  1  0  0  0
M  ISO  4   1 100  68 101  92 101  93 100
M  END
> <chiral flag>
0

> <version>
0

> <s_m_source_file>
/data/baiqing/PycharmProjects/Reinvent-master-3.2/result/LINK_invent/BTK/process_docking_weight1_custom_sum_contain_oxygen_bond_distance_aromatic_linkinvent_7_9_3/rearranged_h_0023.sdf

> <i_m_source_file_index>
86

> <r_mmod_Potential_Energy-OPLS-2005>
17.1648654937744

> <r_mmod_Stretch_Energy-OPLS-2005>
37.8383369445801

> <r_mmod_Bend_Energy-OPLS-2005>
100.211692810059

> <r_mmod_Torsional_Energy-OPLS-2005>
288.365661621094

> <r_mmod_Improper_Torsional_Energy-OPLS-2005>
3.62456560134888

> <r_mmod_Van_der_Waal_Energy-OPLS-2005>
147.15022277832

> <r_mmod_Electrostatic_Energy-OPLS-2005>
-380.408294677734

> <r_mmod_Solvation_Energy-OPLS-2005>
-188.303741455078

> <b_mmod_Minimization_Converged-OPLS-2005>
0

> <r_mmod_RMS_Derivative-OPLS-2005>
5.61454248428345

$$$$
86
                    3D
 Structure written by MMmdl.
165173  0  0  1  0            999 V2000
  -30.6882  -14.4592   20.5380 C   0  0  0  0  0  0
  -30.4257  -12.2916   19.4182 C   0  0  0  0  0  0
  -29.4968  -12.5034   18.2052 C   0  0  0  0  0  0
  -28.0163  -12.3544   18.6142 C   0  0  0  0  0  0
  -27.6617  -13.1794   19.8796 C   0  0  2  0  0  0
  -28.7078  -12.9674   20.9994 C   0  0  0  0  0  0
  -25.2606  -13.8078   20.5668 C   0  0  0  0  0  0
  -24.1828  -13.0400   20.9157 C   0  0  0  0  0  0
  -24.6346  -11.6860   20.8699 C   0  0  0  0  0  0
  -23.8999  -10.4266   21.0368 C   0  0  0  0  0  0
  -24.3573   -9.4194   21.9153 C   0  0  0  0  0  0
  -23.6271   -8.2219   22.0738 C   0  0  0  0  0  0
  -22.4250   -8.0250   21.3539 C   0  0  0  0  0  0
  -21.9855   -9.0205   20.4643 C   0  0  0  0  0  0
  -22.7156  -10.2098   20.3040 C   0  0  0  0  0  0
  -21.6853   -6.0707   22.5277 C   0  0  0  0  0  0
  -21.4008   -6.5616   23.8206 C   0  0  0  0  0  0
  -21.3659   -5.6777   24.9171 C   0  0  0  0  0  0
  -21.6050   -4.3041   24.7231 C   0  0  0  0  0  0
  -21.8824   -3.8128   23.4352 C   0  0  0  0  0  0
  -21.9191   -4.6938   22.3401 C   0  0  0  0  0  0
  -22.7863  -13.5231   21.1818 C   0  0  0  0  0  0
  -22.1664   -4.2117   21.0984 F   0  0  0  0  0  0
  -21.5632   -3.4534   25.7750 F   0  0  0  0  0  0
  -30.0389  -13.2700   20.4448 N   0  0  0  0  0  0
  -26.3012  -12.9189   20.3376 N   0  0  0  0  0  0
  -25.9270  -11.6382   20.5754 N   0  0  0  0  0  0
  -22.0501  -12.8245   22.0393 N   0  0  0  0  0  0
  -25.4351  -15.1794   20.4088 N   0  0  0  0  0  0
  -31.8278  -14.6384   20.1004 O   0  0  0  0  0  0
  -21.6636   -6.8842   21.4238 O   0  0  0  0  0  0
  -22.3561  -14.5539   20.6659 O   0  0  0  0  0  0
  -24.6109  -31.8705   23.2142 C   0  0  0  0  0  0
  -25.9024  -32.4834   23.8421 C   0  0  1  0  0  0
  -27.2332  -27.4675   20.0946 C   0  0  0  0  0  0
  -25.5898  -33.8635   24.2349 N   0  0  0  0  0  0
  -23.3959  -30.4950   21.5538 C   0  0  2  0  0  0
  -24.8402  -28.9635   20.1176 C   0  0  0  0  0  0
  -22.7386  -29.4668   22.5012 C   0  0  0  0  0  0
  -18.0265  -28.1374   22.8497 C   0  0  0  0  0  0
  -24.1484  -36.7326   23.2636 C   0  0  0  0  0  0
  -25.9215  -30.8457   21.3626 C   0  0  0  0  0  0
  -25.9969  -29.4824   20.7117 C   0  0  0  0  0  0
  -27.1948  -28.7417   20.6959 C   0  0  0  0  0  0
  -26.0623  -26.9554   19.4893 C   0  0  0  0  0  0
  -24.8652  -27.6974   19.5061 C   0  0  0  0  0  0
  -23.6026  -29.8292   20.1670 C   0  0  0  0  0  0
  -25.4103  -36.3120   24.0338 C   0  0  1  0  0  0
  -20.5853  -28.3650   23.1331 C   0  0  2  0  0  0
  -20.6759  -26.9391   22.5419 C   0  0  0  0  0  0
  -19.5739  -26.6389   21.5216 C   0  0  0  0  0  0
  -18.1915  -26.7926   22.1625 C   0  0  0  0  0  0
  -19.1513  -28.8831   23.2915 C   0  0  0  0  0  0
  -18.9442  -30.1442   23.8916 C   0  0  0  0  0  0
  -17.6448  -30.6582   24.0567 C   0  0  0  0  0  0
  -25.9031  -34.9482   23.5139 C   0  0  0  0  0  0
  -16.5339  -29.9081   23.6329 C   0  0  0  0  0  0
  -16.7256  -28.6500   23.0346 C   0  0  0  0  0  0
  -26.4472  -31.6604   25.0731 C   0  0  0  0  0  0
  -25.3760  -31.3694   26.1495 C   0  0  0  0  0  0
  -27.0299  -30.3049   24.6085 C   0  0  0  0  0  0
  -27.6056  -32.4318   25.7490 C   0  0  0  0  0  0
  -27.5579  -37.1817   24.8463 C   0  0  0  0  0  0
  -21.4122  -29.3024   22.3749 N   0  0  0  0  0  0
  -26.4294  -37.3799   23.9408 N   0  0  0  0  0  0
  -24.6609  -31.0836   22.1025 N   0  0  0  0  0  0
  -23.4176  -28.8213   23.3043 O   0  0  0  0  0  0
  -28.4353  -26.8037   20.0802 O   0  0  0  0  0  0
  -26.5585  -34.8926   22.4693 O   0  0  0  0  0  0
  -23.5311  -32.1448   23.7557 O   0  0  0  0  0  0
  -30.8439  -18.8589   19.5583 C   0  0  0  0  0  0
  -28.8558  -16.9043   19.2996 C   0  0  0  0  0  0
  -29.8415  -19.0109   18.5719 C   0  0  0  0  0  0
  -29.8936  -16.7074   20.2351 C   0  0  0  0  0  0
  -30.8770  -17.7170   20.3882 C   0  0  0  0  0  0
  -28.8368  -18.0257   18.4557 C   0  0  0  0  0  0
  -29.8971  -24.1965   16.8627 C   0  0  0  0  0  0
  -31.1246  -24.9715   16.4300 C   0  0  0  0  0  0
  -29.8692  -20.2017   17.6228 C   0  0  0  0  0  0
  -29.0126  -24.9704   17.8352 C   0  0  0  0  0  0
  -28.7948  -21.2604   17.9298 C   0  0  0  0  0  0
  -29.4468  -24.7912   19.3007 C   0  0  0  0  0  0
  -28.5304  -22.2207   16.7541 C   0  0  0  0  0  0
  -28.4375  -25.3947   20.2769 C   0  0  0  0  0  0
  -29.7047  -23.0150   16.4143 N   0  0  0  0  0  0
  -29.9311  -15.4838   20.9628 N   0  0  0  0  0  0
  -32.1226  -17.5835   21.5807 Cl  0  0  0  0  0  0
  -27.5841  -18.1334   17.2683 Cl  0  0  0  0  0  0
  -31.4704  -12.3917   19.1180 H   0  0  0  0  0  0
  -30.3250  -11.2794   19.8114 H   0  0  0  0  0  0
  -29.7436  -11.7926   17.4150 H   0  0  0  0  0  0
  -29.6609  -13.4974   17.7847 H   0  0  0  0  0  0
  -27.8256  -11.2967   18.7974 H   0  0  0  0  0  0
  -27.3653  -12.6370   17.7852 H   0  0  0  0  0  0
  -27.6999  -14.2171   19.5824 H   0  0  0  0  0  0
  -28.6871  -11.9315   21.3417 H   0  0  0  0  0  0
  -28.4746  -13.5710   21.8772 H   0  0  0  0  0  0
  -25.2719   -9.5700   22.4708 H   0  0  0  0  0  0
  -24.0000   -7.4628   22.7462 H   0  0  0  0  0  0
  -21.0780   -8.8683   19.8966 H   0  0  0  0  0  0
  -22.3574  -10.9618   19.6139 H   0  0  0  0  0  0
  -21.1997   -7.6126   23.9696 H   0  0  0  0  0  0
  -21.1482   -6.0510   25.9070 H   0  0  0  0  0  0
  -22.0607   -2.7587   23.2857 H   0  0  0  0  0  0
  -22.4114  -11.9908   22.4797 H   0  0  0  0  0  0
  -21.1114  -13.1255   22.2593 H   0  0  0  0  0  0
  -24.6687  -15.8317   20.5340 H   0  0  0  0  0  0
  -26.2828  -15.6222   20.0843 H   0  0  0  0  0  0
  -26.7096  -32.5564   23.1195 H   0  0  0  0  0  0
  -25.0055  -33.9812   25.0498 H   0  0  0  0  0  0
  -22.6832  -31.3117   21.4178 H   0  0  0  0  0  0
  -23.3738  -35.9671   23.3316 H   0  0  0  0  0  0
  -24.3576  -36.8921   22.2048 H   0  0  0  0  0  0
  -23.7253  -37.6543   23.6638 H   0  0  0  0  0  0
  -26.0311  -31.6129   20.5950 H   0  0  0  0  0  0
  -26.8112  -30.8970   21.9788 H   0  0  0  0  0  0
  -28.0921  -29.1415   21.1473 H   0  0  0  0  0  0
  -26.0634  -26.0031   18.9787 H   0  0  0  0  0  0
  -23.9771  -27.2966   19.0366 H   0  0  0  0  0  0
  -23.7154  -30.6060   19.4101 H   0  0  0  0  0  0
  -22.7260  -29.2514   19.8683 H   0  0  0  0  0  0
  -25.1278  -36.1991   25.0831 H   0  0  0  0  0  0
  -20.9947  -28.3209   24.1454 H   0  0  0  0  0  0
  -20.5673  -26.2250   23.3596 H   0  0  0  0  0  0
  -21.6626  -26.7453   22.1202 H   0  0  0  0  0  0
  -19.6898  -25.6309   21.1219 H   0  0  0  0  0  0
  -19.6682  -27.3220   20.6761 H   0  0  0  0  0  0
  -17.4190  -26.6685   21.4019 H   0  0  0  0  0  0
  -18.0308  -26.0061   22.9008 H   0  0  0  0  0  0
  -19.7915  -30.7251   24.2289 H   0  0  0  0  0  0
  -17.4999  -31.6260   24.5167 H   0  0  0  0  0  0
  -15.5335  -30.2988   23.7646 H   0  0  0  0  0  0
  -15.8656  -28.0833   22.7043 H   0  0  0  0  0  0
  -24.5918  -30.7057   25.7838 H   0  0  0  0  0  0
  -24.8974  -32.2842   26.4996 H   0  0  0  0  0  0
  -25.8131  -30.8825   27.0222 H   0  0  0  0  0  0
  -26.2823  -29.6811   24.1163 H   0  0  0  0  0  0
  -27.4102  -29.7284   25.4534 H   0  0  0  0  0  0
  -27.8653  -30.4378   23.9204 H   0  0  0  0  0  0
  -27.2678  -33.3600   26.2116 H   0  0  0  0  0  0
  -28.3840  -32.6908   25.0300 H   0  0  0  0  0  0
  -28.0758  -31.8416   26.5368 H   0  0  0  0  0  0
  -28.2603  -38.0105   24.7492 H   0  0  0  0  0  0
  -28.1061  -36.2633   24.6304 H   0  0  0  0  0  0
  -27.2294  -37.1490   25.8866 H   0  0  0  0  0  0
  -20.9273  -29.8738   21.6976 H   0  0  0  0  0  0
  -26.0183  -38.2881   24.1400 H   0  0  0  0  0  0
  -31.6095  -19.6129   19.6672 H   0  0  0  0  0  0
  -28.0743  -16.1798   19.1673 H   0  0  0  0  0  0
  -31.7319  -25.2363   17.2957 H   0  0  0  0  0  0
  -30.8303  -25.8910   15.9222 H   0  0  0  0  0  0
  -31.7427  -24.3899   15.7454 H   0  0  0  0  0  0
  -29.7338  -19.8207   16.6092 H   0  0  0  0  0  0
  -30.8549  -20.6689   17.6346 H   0  0  0  0  0  0
  -27.9623  -24.7197   17.7116 H   0  0  0  0  0  0
  -29.0613  -26.0296   17.5802 H   0  0  0  0  0  0
  -29.0475  -21.7923   18.8426 H   0  0  0  0  0  0
  -27.8502  -20.7637   18.1489 H   0  0  0  0  0  0
  -30.4239  -25.2470   19.4607 H   0  0  0  0  0  0
  -29.5710  -23.7399   19.5429 H   0  0  0  0  0  0
  -27.6440  -22.8204   16.9563 H   0  0  0  0  0  0
  -28.2438  -21.6329   15.8800 H   0  0  0  0  0  0
  -28.7583  -25.1976   21.3006 H   0  0  0  0  0  0
  -27.4691  -24.9082   20.1677 H   0  0  0  0  0  0
  -29.0483  -15.1830   21.3465 H   0  0  0  0  0  0
  1 25  1  0  0  0
  1 30  2  0  0  0
  1 86  1  0  0  0
  2  3  1  0  0  0
  2 25  1  0  0  0
  2 89  1  0  0  0
  2 90  1  0  0  0
  3  4  1  0  0  0
  3 91  1  0  0  0
  3 92  1  0  0  0
  4  5  1  0  0  0
  4 93  1  0  0  0
  4 94  1  0  0  0
  5  6  1  0  0  0
  5 26  1  0  0  0
  5 95  1  0  0  0
  6 25  1  0  0  0
  6 96  1  0  0  0
  6 97  1  0  0  0
  7  8  2  0  0  0
  7 26  1  0  0  0
  7 29  1  0  0  0
  8  9  1  0  0  0
  8 22  1  0  0  0
  9 10  1  0  0  0
  9 27  2  0  0  0
 10 11  2  0  0  0
 10 15  1  0  0  0
 11 12  1  0  0  0
 11 98  1  0  0  0
 12 13  2  0  0  0
 12 99  1  0  0  0
 13 14  1  0  0  0
 13 31  1  0  0  0
 14 15  2  0  0  0
 14100  1  0  0  0
 15101  1  0  0  0
 16 17  2  0  0  0
 16 21  1  0  0  0
 16 31  1  0  0  0
 17 18  1  0  0  0
 17102  1  0  0  0
 18 19  2  0  0  0
 18103  1  0  0  0
 19 20  1  0  0  0
 19 24  1  0  0  0
 20 21  2  0  0  0
 20104  1  0  0  0
 21 23  1  0  0  0
 22 28  1  0  0  0
 22 32  2  0  0  0
 26 27  1  0  0  0
 28105  1  0  0  0
 28106  1  0  0  0
 29107  1  0  0  0
 29108  1  0  0  0
 33 34  1  0  0  0
 33 66  1  0  0  0
 33 70  2  0  0  0
 34 36  1  0  0  0
 34 59  1  0  0  0
 34109  1  0  0  0
 35 44  2  0  0  0
 35 45  1  0  0  0
 35 68  1  0  0  0
 36 56  1  0  0  0
 36110  1  0  0  0
 37 39  1  0  0  0
 37 47  1  0  0  0
 37 66  1  0  0  0
 37111  1  0  0  0
 38 43  2  0  0  0
 38 46  1  0  0  0
 38 47  1  0  0  0
 39 64  1  0  0  0
 39 67  2  0  0  0
 40 52  1  0  0  0
 40 53  2  0  0  0
 40 58  1  0  0  0
 41112  1  0  0  0
 41113  1  0  0  0
 41114  1  0  0  0
 41 48  1  0  0  0
 42 43  1  0  0  0
 42 66  1  0  0  0
 42115  1  0  0  0
 42116  1  0  0  0
 43 44  1  0  0  0
 44117  1  0  0  0
 45 46  2  0  0  0
 45118  1  0  0  0
 46119  1  0  0  0
 47120  1  0  0  0
 47121  1  0  0  0
 48 56  1  0  0  0
 48 65  1  0  0  0
 48122  1  0  0  0
 49 50  1  0  0  0
 49 53  1  0  0  0
 49 64  1  0  0  0
 49123  1  0  0  0
 50 51  1  0  0  0
 50124  1  0  0  0
 50125  1  0  0  0
 51 52  1  0  0  0
 51126  1  0  0  0
 51127  1  0  0  0
 52128  1  0  0  0
 52129  1  0  0  0
 53 54  1  0  0  0
 54 55  2  0  0  0
 54130  1  0  0  0
 55 57  1  0  0  0
 55131  1  0  0  0
 56 69  2  0  0  0
 57 58  2  0  0  0
 57132  1  0  0  0
 58133  1  0  0  0
 59 60  1  0  0  0
 59 61  1  0  0  0
 59 62  1  0  0  0
 60134  1  0  0  0
 60135  1  0  0  0
 60136  1  0  0  0
 61137  1  0  0  0
 61138  1  0  0  0
 61139  1  0  0  0
 62140  1  0  0  0
 62141  1  0  0  0
 62142  1  0  0  0
 63 65  1  0  0  0
 63143  1  0  0  0
 63144  1  0  0  0
 63145  1  0  0  0
 64146  1  0  0  0
 65147  1  0  0  0
 68 84  1  0  0  0
 71 73  2  0  0  0
 71 75  1  0  0  0
 71148  1  0  0  0
 72 74  1  0  0  0
 72 76  2  0  0  0
 72149  1  0  0  0
 73 76  1  0  0  0
 73 79  1  0  0  0
 74 75  2  0  0  0
 74 86  1  0  0  0
 75 87  1  0  0  0
 76 88  1  0  0  0
 77 78  1  0  0  0
 77 80  1  0  0  0
 77 85  2  0  0  0
 78150  1  0  0  0
 78151  1  0  0  0
 78152  1  0  0  0
 79 81  1  0  0  0
 79153  1  0  0  0
 79154  1  0  0  0
 80 82  1  0  0  0
 80155  1  0  0  0
 80156  1  0  0  0
 81 83  1  0  0  0
 81157  1  0  0  0
 81158  1  0  0  0
 82 84  1  0  0  0
 82159  1  0  0  0
 82160  1  0  0  0
 83 85  1  0  0  0
 83161  1  0  0  0
 83162  1  0  0  0
 84163  1  0  0  0
 84164  1  0  0  0
 86165  1  0  0  0
M  ISO  4   1 100  68 101  84 101  86 100
M  END
> <chiral flag>
0

> <version>
0

> <s_m_source_file>
/data/baiqing/PycharmProjects/Reinvent-master-3.2/result/LINK_invent/BTK/process_docking_weight1_custom_sum_contain_oxygen_bond_distance_aromatic_linkinvent_7_9_3/rearranged_h_0023.sdf

> <i_m_source_file_index>
87

> <r_mmod_Potential_Energy-OPLS-2005>
-76.2864379882812

> <r_mmod_Stretch_Energy-OPLS-2005>
33.5450553894043

> <r_mmod_Bend_Energy-OPLS-2005>
108.135643005371

> <r_mmod_Torsional_Energy-OPLS-2005>
255.696319580078

> <r_mmod_Improper_Torsional_Energy-OPLS-2005>
7.76708459854126

> <r_mmod_Van_der_Waal_Energy-OPLS-2005>
153.162582397461

> <r_mmod_Electrostatic_Energy-OPLS-2005>
-430.831451416016

> <r_mmod_Solvation_Energy-OPLS-2005>
-215.790054321289

> <b_mmod_Minimization_Converged-OPLS-2005>
0

> <r_mmod_RMS_Derivative-OPLS-2005>
2.25716924667358

$$$$
87
                    3D
 Structure written by MMmdl.
160169  0  0  1  0            999 V2000
  -30.6585  -14.5522   20.5204 C   0  0  0  0  0  0
  -30.4014  -12.3395   19.4188 C   0  0  0  0  0  0
  -29.4870  -12.4798   18.1866 C   0  0  0  0  0  0
  -28.0084  -12.3175   18.5936 C   0  0  0  0  0  0
  -27.6331  -13.1881   19.8238 C   0  0  2  0  0  0
  -28.6731  -13.0541   20.9591 C   0  0  0  0  0  0
  -25.2534  -13.8050   20.5541 C   0  0  0  0  0  0
  -24.1809  -13.0394   20.9086 C   0  0  0  0  0  0
  -24.6327  -11.6848   20.8694 C   0  0  0  0  0  0
  -23.8997  -10.4273   21.0416 C   0  0  0  0  0  0
  -24.3578   -9.4203   21.9184 C   0  0  0  0  0  0
  -23.6256   -8.2242   22.0779 C   0  0  0  0  0  0
  -22.4247   -8.0270   21.3552 C   0  0  0  0  0  0
  -21.9856   -9.0239   20.4666 C   0  0  0  0  0  0
  -22.7176  -10.2117   20.3076 C   0  0  0  0  0  0
  -21.6846   -6.0736   22.5269 C   0  0  0  0  0  0
  -21.3978   -6.5643   23.8192 C   0  0  0  0  0  0
  -21.3659   -5.6805   24.9163 C   0  0  0  0  0  0
  -21.6058   -4.3068   24.7212 C   0  0  0  0  0  0
  -21.8803   -3.8159   23.4327 C   0  0  0  0  0  0
  -21.9175   -4.6970   22.3386 C   0  0  0  0  0  0
  -22.7879  -13.5276   21.1762 C   0  0  0  0  0  0
  -22.1651   -4.2171   21.0961 F   0  0  0  0  0  0
  -21.5666   -3.4564   25.7716 F   0  0  0  0  0  0
  -29.9904  -13.3666   20.3940 N   0  0  0  0  0  0
  -26.2874  -12.9181   20.3043 N   0  0  0  0  0  0
  -25.9205  -11.6367   20.5560 N   0  0  0  0  0  0
  -22.0514  -12.8340   22.0319 N   0  0  0  0  0  0
  -25.4266  -15.1775   20.4029 N   0  0  0  0  0  0
  -31.8252  -14.6754   20.1286 O   0  0  0  0  0  0
  -21.6633   -6.8862   21.4226 O   0  0  0  0  0  0
  -22.3622  -14.5632   20.6652 O   0  0  0  0  0  0
  -24.6209  -31.8672   23.2012 C   0  0  0  0  0  0
  -25.9053  -32.4821   23.8359 C   0  0  1  0  0  0
  -27.2242  -27.3681   20.1181 C   0  0  0  0  0  0
  -25.5869  -33.8616   24.2318 N   0  0  0  0  0  0
  -23.4140  -30.4855   21.5449 C   0  0  2  0  0  0
  -24.8614  -28.9521   20.1008 C   0  0  0  0  0  0
  -22.7502  -29.4611   22.4991 C   0  0  0  0  0  0
  -18.0245  -28.1325   22.8470 C   0  0  0  0  0  0
  -24.1484  -36.7300   23.2632 C   0  0  0  0  0  0
  -25.9492  -30.8163   21.3653 C   0  0  0  0  0  0
  -26.0231  -29.4431   20.7154 C   0  0  0  0  0  0
  -27.2031  -28.6558   20.7189 C   0  0  0  0  0  0
  -26.0494  -26.9215   19.4720 C   0  0  0  0  0  0
  -24.8774  -27.6982   19.4687 C   0  0  0  0  0  0
  -23.6263  -29.8218   20.1550 C   0  0  0  0  0  0
  -25.4101  -36.3130   24.0365 C   0  0  1  0  0  0
  -20.5850  -28.3645   23.1260 C   0  0  2  0  0  0
  -20.6736  -26.9352   22.5427 C   0  0  0  0  0  0
  -19.5734  -26.6300   21.5211 C   0  0  0  0  0  0
  -18.1909  -26.7840   22.1644 C   0  0  0  0  0  0
  -19.1505  -28.8812   23.2832 C   0  0  0  0  0  0
  -18.9446  -30.1375   23.8903 C   0  0  0  0  0  0
  -17.6446  -30.6568   24.0498 C   0  0  0  0  0  0
  -25.9022  -34.9486   23.5161 C   0  0  0  0  0  0
  -16.5321  -29.9078   23.6275 C   0  0  0  0  0  0
  -16.7226  -28.6457   23.0371 C   0  0  0  0  0  0
  -26.4458  -31.6580   25.0677 C   0  0  0  0  0  0
  -25.3661  -31.3751   26.1366 C   0  0  0  0  0  0
  -27.0284  -30.3007   24.6083 C   0  0  0  0  0  0
  -27.6054  -32.4269   25.7435 C   0  0  0  0  0  0
  -27.5586  -37.1793   24.8465 C   0  0  0  0  0  0
  -21.4218  -29.3023   22.3748 N   0  0  0  0  0  0
  -26.4310  -37.3791   23.9406 N   0  0  0  0  0  0
  -24.6802  -31.0727   22.0937 N   0  0  0  0  0  0
  -23.4228  -28.8172   23.3082 O   0  0  0  0  0  0
  -28.3718  -26.5864   20.1761 O   0  0  0  0  0  0
  -26.5623  -34.8958   22.4733 O   0  0  0  0  0  0
  -23.5365  -32.1450   23.7315 O   0  0  0  0  0  0
  -29.4967  -18.4629   21.7160 C   0  0  0  0  0  0
  -29.1042  -17.9579   20.5172 C   0  0  0  0  0  0
  -28.8573  -20.4614   20.7432 C   0  0  0  0  0  0
  -28.5063  -21.9144   20.6009 C   0  0  0  0  0  0
  -28.3170  -22.8672   21.5661 C   0  0  0  0  0  0
  -29.9943  -17.5594   22.7968 C   0  0  0  0  0  0
  -29.1006  -16.4742   20.1977 C   0  0  0  0  0  0
  -30.6540  -16.2721   22.2223 C   0  0  0  0  0  0
  -28.4371  -22.5484   23.0585 C   0  0  0  0  0  0
  -26.3454  -24.4393   21.6016 C   0  0  0  0  0  0
  -28.3270  -25.1248   20.0494 C   0  0  0  0  0  0
  -27.8656  -24.3515   21.3399 C   0  0  2  0  0  0
  -29.3465  -19.8573   21.8440 N   0  0  0  0  0  0
  -29.9884  -15.6185   21.0604 N   0  0  0  0  0  0
  -28.5482  -19.2557   19.4629 S   0  0  0  0  0  0
  -31.4447  -12.4368   19.1152 H   0  0  0  0  0  0
  -30.2947  -11.3448   19.8582 H   0  0  0  0  0  0
  -29.7511  -11.7459   17.4217 H   0  0  0  0  0  0
  -29.6410  -13.4591   17.7300 H   0  0  0  0  0  0
  -27.8417  -11.2624   18.8141 H   0  0  0  0  0  0
  -27.3589  -12.5495   17.7462 H   0  0  0  0  0  0
  -27.6352  -14.2098   19.4570 H   0  0  0  0  0  0
  -28.6774  -12.0420   21.3704 H   0  0  0  0  0  0
  -28.4226  -13.7124   21.7910 H   0  0  0  0  0  0
  -25.2741   -9.5747   22.4721 H   0  0  0  0  0  0
  -24.0007   -7.4680   22.7541 H   0  0  0  0  0  0
  -21.0777   -8.8752   19.8990 H   0  0  0  0  0  0
  -22.3616  -10.9653   19.6214 H   0  0  0  0  0  0
  -21.1930   -7.6153   23.9698 H   0  0  0  0  0  0
  -21.1508   -6.0534   25.9066 H   0  0  0  0  0  0
  -22.0570   -2.7613   23.2799 H   0  0  0  0  0  0
  -22.4109  -12.0025   22.4768 H   0  0  0  0  0  0
  -21.1162  -13.1477   22.2480 H   0  0  0  0  0  0
  -24.6599  -15.8273   20.5353 H   0  0  0  0  0  0
  -26.2812  -15.6179   20.0904 H   0  0  0  0  0  0
  -26.7142  -32.5547   23.1150 H   0  0  0  0  0  0
  -24.9999  -33.9779   25.0459 H   0  0  0  0  0  0
  -22.7022  -31.3039   21.4091 H   0  0  0  0  0  0
  -23.3774  -35.9594   23.3317 H   0  0  0  0  0  0
  -24.3564  -36.8886   22.2028 H   0  0  0  0  0  0
  -23.7222  -37.6512   23.6632 H   0  0  0  0  0  0
  -26.0704  -31.5784   20.5915 H   0  0  0  0  0  0
  -26.8332  -30.8685   21.9915 H   0  0  0  0  0  0
  -28.0937  -29.0191   21.2149 H   0  0  0  0  0  0
  -26.0152  -25.9631   18.9810 H   0  0  0  0  0  0
  -23.9947  -27.3179   18.9750 H   0  0  0  0  0  0
  -23.7330  -30.5946   19.3922 H   0  0  0  0  0  0
  -22.7543  -29.2385   19.8577 H   0  0  0  0  0  0
  -25.1260  -36.2028   25.0865 H   0  0  0  0  0  0
  -20.9866  -28.3168   24.1395 H   0  0  0  0  0  0
  -20.5535  -26.2283   23.3664 H   0  0  0  0  0  0
  -21.6593  -26.7264   22.1225 H   0  0  0  0  0  0
  -19.6893  -25.6172   21.1305 H   0  0  0  0  0  0
  -19.6712  -27.3083   20.6717 H   0  0  0  0  0  0
  -17.4159  -26.6479   21.4080 H   0  0  0  0  0  0
  -18.0417  -26.0023   22.9109 H   0  0  0  0  0  0
  -19.7942  -30.7124   24.2370 H   0  0  0  0  0  0
  -17.5012  -31.6273   24.5037 H   0  0  0  0  0  0
  -15.5333  -30.3016   23.7602 H   0  0  0  0  0  0
  -15.8603  -28.0749   22.7186 H   0  0  0  0  0  0
  -24.5849  -30.7118   25.7643 H   0  0  0  0  0  0
  -24.8829  -32.2944   26.4691 H   0  0  0  0  0  0
  -25.7879  -30.8945   27.0195 H   0  0  0  0  0  0
  -26.2882  -29.6815   24.0979 H   0  0  0  0  0  0
  -27.3903  -29.7192   25.4574 H   0  0  0  0  0  0
  -27.8789  -30.4340   23.9379 H   0  0  0  0  0  0
  -27.2724  -33.3595   26.2021 H   0  0  0  0  0  0
  -28.3830  -32.6763   25.0196 H   0  0  0  0  0  0
  -28.0761  -31.8356   26.5304 H   0  0  0  0  0  0
  -28.2600  -38.0086   24.7490 H   0  0  0  0  0  0
  -28.1097  -36.2613   24.6332 H   0  0  0  0  0  0
  -27.2293  -37.1489   25.8867 H   0  0  0  0  0  0
  -20.9464  -29.8923   21.7087 H   0  0  0  0  0  0
  -26.0225  -38.2893   24.1363 H   0  0  0  0  0  0
  -28.3733  -22.2117   19.5702 H   0  0  0  0  0  0
  -29.1619  -17.2860   23.4472 H   0  0  0  0  0  0
  -30.7163  -18.0706   23.4370 H   0  0  0  0  0  0
  -29.3081  -16.3313   19.1343 H   0  0  0  0  0  0
  -28.0727  -16.1325   20.3270 H   0  0  0  0  0  0
  -30.7722  -15.5399   23.0244 H   0  0  0  0  0  0
  -31.6677  -16.5427   21.9219 H   0  0  0  0  0  0
  -29.2413  -21.8557   23.2841 H   0  0  0  0  0  0
  -27.5022  -22.1291   23.4304 H   0  0  0  0  0  0
  -28.6617  -23.4338   23.6503 H   0  0  0  0  0  0
  -26.0680  -23.9767   22.5485 H   0  0  0  0  0  0
  -25.7769  -23.9319   20.8215 H   0  0  0  0  0  0
  -25.9981  -25.4681   21.6579 H   0  0  0  0  0  0
  -27.7949  -24.7781   19.1652 H   0  0  0  0  0  0
  -29.3715  -24.8566   19.8689 H   0  0  0  0  0  0
  -28.3533  -24.9294   22.1240 H   0  0  0  0  0  0
  1 25  1  0  0  0
  1 30  2  0  0  0
  1 84  1  0  0  0
  2  3  1  0  0  0
  2 25  1  0  0  0
  2 86  1  0  0  0
  2 87  1  0  0  0
  3  4  1  0  0  0
  3 88  1  0  0  0
  3 89  1  0  0  0
  4  5  1  0  0  0
  4 90  1  0  0  0
  4 91  1  0  0  0
  5  6  1  0  0  0
  5 26  1  0  0  0
  5 92  1  0  0  0
  6 25  1  0  0  0
  6 93  1  0  0  0
  6 94  1  0  0  0
  7  8  2  0  0  0
  7 26  1  0  0  0
  7 29  1  0  0  0
  8  9  1  0  0  0
  8 22  1  0  0  0
  9 10  1  0  0  0
  9 27  2  0  0  0
 10 11  2  0  0  0
 10 15  1  0  0  0
 11 12  1  0  0  0
 11 95  1  0  0  0
 12 13  2  0  0  0
 12 96  1  0  0  0
 13 14  1  0  0  0
 13 31  1  0  0  0
 14 15  2  0  0  0
 14 97  1  0  0  0
 15 98  1  0  0  0
 16 17  2  0  0  0
 16 21  1  0  0  0
 16 31  1  0  0  0
 17 18  1  0  0  0
 17 99  1  0  0  0
 18 19  2  0  0  0
 18100  1  0  0  0
 19 20  1  0  0  0
 19 24  1  0  0  0
 20 21  2  0  0  0
 20101  1  0  0  0
 21 23  1  0  0  0
 22 28  1  0  0  0
 22 32  2  0  0  0
 26 27  1  0  0  0
 28102  1  0  0  0
 28103  1  0  0  0
 29104  1  0  0  0
 29105  1  0  0  0
 33 34  1  0  0  0
 33 66  1  0  0  0
 33 70  2  0  0  0
 34 36  1  0  0  0
 34 59  1  0  0  0
 34106  1  0  0  0
 35 44  2  0  0  0
 35 45  1  0  0  0
 35 68  1  0  0  0
 36 56  1  0  0  0
 36107  1  0  0  0
 37 39  1  0  0  0
 37 47  1  0  0  0
 37 66  1  0  0  0
 37108  1  0  0  0
 38 43  2  0  0  0
 38 46  1  0  0  0
 38 47  1  0  0  0
 39 64  1  0  0  0
 39 67  2  0  0  0
 40 52  1  0  0  0
 40 53  2  0  0  0
 40 58  1  0  0  0
 41109  1  0  0  0
 41110  1  0  0  0
 41111  1  0  0  0
 41 48  1  0  0  0
 42 43  1  0  0  0
 42 66  1  0  0  0
 42112  1  0  0  0
 42113  1  0  0  0
 43 44  1  0  0  0
 44114  1  0  0  0
 45 46  2  0  0  0
 45115  1  0  0  0
 46116  1  0  0  0
 47117  1  0  0  0
 47118  1  0  0  0
 48 56  1  0  0  0
 48 65  1  0  0  0
 48119  1  0  0  0
 49 50  1  0  0  0
 49 53  1  0  0  0
 49 64  1  0  0  0
 49120  1  0  0  0
 50 51  1  0  0  0
 50121  1  0  0  0
 50122  1  0  0  0
 51 52  1  0  0  0
 51123  1  0  0  0
 51124  1  0  0  0
 52125  1  0  0  0
 52126  1  0  0  0
 53 54  1  0  0  0
 54 55  2  0  0  0
 54127  1  0  0  0
 55 57  1  0  0  0
 55128  1  0  0  0
 56 69  2  0  0  0
 57 58  2  0  0  0
 57129  1  0  0  0
 58130  1  0  0  0
 59 60  1  0  0  0
 59 61  1  0  0  0
 59 62  1  0  0  0
 60131  1  0  0  0
 60132  1  0  0  0
 60133  1  0  0  0
 61134  1  0  0  0
 61135  1  0  0  0
 61136  1  0  0  0
 62137  1  0  0  0
 62138  1  0  0  0
 62139  1  0  0  0
 63 65  1  0  0  0
 63140  1  0  0  0
 63141  1  0  0  0
 63142  1  0  0  0
 64143  1  0  0  0
 65144  1  0  0  0
 68 81  1  0  0  0
 71 72  2  0  0  0
 71 76  1  0  0  0
 71 83  1  0  0  0
 72 77  1  0  0  0
 72 85  1  0  0  0
 73 74  1  0  0  0
 73 83  2  0  0  0
 73 85  1  0  0  0
 74 75  2  0  0  0
 74145  1  0  0  0
 75 79  1  0  0  0
 75 82  1  0  0  0
 76 78  1  0  0  0
 76146  1  0  0  0
 76147  1  0  0  0
 77 84  1  0  0  0
 77148  1  0  0  0
 77149  1  0  0  0
 78 84  1  0  0  0
 78150  1  0  0  0
 78151  1  0  0  0
 79152  1  0  0  0
 79153  1  0  0  0
 79154  1  0  0  0
 80155  1  0  0  0
 80156  1  0  0  0
 80157  1  0  0  0
 80 82  1  0  0  0
 81 82  1  0  0  0
 81158  1  0  0  0
 81159  1  0  0  0
 82160  1  0  0  0
M  ISO  4   1 100  68 101  81 101  84 100
M  END
> <chiral flag>
0

> <version>
0

> <s_m_source_file>
/data/baiqing/PycharmProjects/Reinvent-master-3.2/result/LINK_invent/BTK/process_docking_weight1_custom_sum_contain_oxygen_bond_distance_aromatic_linkinvent_7_9_3/rearranged_h_0023.sdf

> <i_m_source_file_index>
88

> <r_mmod_Potential_Energy-OPLS-2005>
196.658950805664

> <r_mmod_Stretch_Energy-OPLS-2005>
63.1571502685547

> <r_mmod_Bend_Energy-OPLS-2005>
150.761489868164

> <r_mmod_Torsional_Energy-OPLS-2005>
302.995666503906

> <r_mmod_Improper_Torsional_Energy-OPLS-2005>
4.77012348175049

> <r_mmod_Van_der_Waal_Energy-OPLS-2005>
133.040267944336

> <r_mmod_Electrostatic_Energy-OPLS-2005>
-293.029022216797

> <r_mmod_Solvation_Energy-OPLS-2005>
-195.870315551758

> <b_mmod_Minimization_Converged-OPLS-2005>
0

> <r_mmod_RMS_Derivative-OPLS-2005>
6.29999303817749

$$$$
88
                    3D
 Structure written by MMmdl.
169177  0  0  1  0            999 V2000
  -30.7010  -14.3939   20.6069 C   0  0  0  0  0  0
  -30.4173  -12.2604   19.4006 C   0  0  0  0  0  0
  -29.4760  -12.4459   18.1895 C   0  0  0  0  0  0
  -27.9930  -12.3451   18.6017 C   0  0  0  0  0  0
  -27.6542  -13.1743   19.8688 C   0  0  2  0  0  0
  -28.6934  -12.9114   20.9791 C   0  0  0  0  0  0
  -25.2576  -13.8103   20.5656 C   0  0  0  0  0  0
  -24.1797  -13.0416   20.9140 C   0  0  0  0  0  0
  -24.6311  -11.6891   20.8739 C   0  0  0  0  0  0
  -23.9007  -10.4284   21.0365 C   0  0  0  0  0  0
  -24.3572   -9.4220   21.9154 C   0  0  0  0  0  0
  -23.6270   -8.2241   22.0710 C   0  0  0  0  0  0
  -22.4260   -8.0243   21.3520 C   0  0  0  0  0  0
  -21.9894   -9.0216   20.4629 C   0  0  0  0  0  0
  -22.7187  -10.2125   20.3024 C   0  0  0  0  0  0
  -21.6863   -6.0709   22.5268 C   0  0  0  0  0  0
  -21.4021   -6.5624   23.8200 C   0  0  0  0  0  0
  -21.3641   -5.6789   24.9169 C   0  0  0  0  0  0
  -21.6051   -4.3048   24.7218 C   0  0  0  0  0  0
  -21.8823   -3.8131   23.4340 C   0  0  0  0  0  0
  -21.9203   -4.6939   22.3387 C   0  0  0  0  0  0
  -22.7833  -13.5232   21.1804 C   0  0  0  0  0  0
  -22.1671   -4.2118   21.0966 F   0  0  0  0  0  0
  -21.5609   -3.4523   25.7721 F   0  0  0  0  0  0
  -30.0286  -13.2249   20.4393 N   0  0  0  0  0  0
  -26.2958  -12.9214   20.3341 N   0  0  0  0  0  0
  -25.9212  -11.6416   20.5792 N   0  0  0  0  0  0
  -22.0498  -12.8240   22.0391 N   0  0  0  0  0  0
  -25.4316  -15.1807   20.4030 N   0  0  0  0  0  0
  -31.8101  -14.6087   20.1054 O   0  0  0  0  0  0
  -21.6640   -6.8844   21.4227 O   0  0  0  0  0  0
  -22.3492  -14.5499   20.6584 O   0  0  0  0  0  0
  -24.6134  -31.8682   23.2147 C   0  0  0  0  0  0
  -25.9033  -32.4820   23.8413 C   0  0  1  0  0  0
  -27.2458  -27.4789   20.0559 C   0  0  0  0  0  0
  -25.5918  -33.8618   24.2349 N   0  0  0  0  0  0
  -23.3960  -30.4937   21.5549 C   0  0  2  0  0  0
  -24.8405  -28.9606   20.1177 C   0  0  0  0  0  0
  -22.7369  -29.4668   22.5026 C   0  0  0  0  0  0
  -18.0244  -28.1359   22.8494 C   0  0  0  0  0  0
  -24.1480  -36.7306   23.2644 C   0  0  0  0  0  0
  -25.9228  -30.8414   21.3654 C   0  0  0  0  0  0
  -25.9977  -29.4793   20.7106 C   0  0  0  0  0  0
  -27.1963  -28.7375   20.6886 C   0  0  0  0  0  0
  -26.0663  -26.9587   19.4740 C   0  0  0  0  0  0
  -24.8643  -27.6928   19.5100 C   0  0  0  0  0  0
  -23.6006  -29.8241   20.1706 C   0  0  0  0  0  0
  -25.4099  -36.3117   24.0356 C   0  0  1  0  0  0
  -20.5841  -28.3631   23.1345 C   0  0  2  0  0  0
  -20.6740  -26.9375   22.5424 C   0  0  0  0  0  0
  -19.5717  -26.6374   21.5212 C   0  0  0  0  0  0
  -18.1900  -26.7917   22.1624 C   0  0  0  0  0  0
  -19.1508  -28.8815   23.2921 C   0  0  0  0  0  0
  -18.9434  -30.1428   23.8909 C   0  0  0  0  0  0
  -17.6446  -30.6584   24.0554 C   0  0  0  0  0  0
  -25.9030  -34.9480   23.5143 C   0  0  0  0  0  0
  -16.5326  -29.9079   23.6333 C   0  0  0  0  0  0
  -16.7250  -28.6499   23.0358 C   0  0  0  0  0  0
  -26.4468  -31.6613   25.0734 C   0  0  0  0  0  0
  -25.3757  -31.3735   26.1503 C   0  0  0  0  0  0
  -27.0298  -30.3062   24.6122 C   0  0  0  0  0  0
  -27.6055  -32.4327   25.7476 C   0  0  0  0  0  0
  -27.5579  -37.1802   24.8464 C   0  0  0  0  0  0
  -21.4111  -29.3013   22.3764 N   0  0  0  0  0  0
  -26.4286  -37.3801   23.9424 N   0  0  0  0  0  0
  -24.6611  -31.0829   22.1036 N   0  0  0  0  0  0
  -23.4171  -28.8220   23.3051 O   0  0  0  0  0  0
  -28.4544  -26.8158   20.0535 O   0  0  0  0  0  0
  -26.5570  -34.8930   22.4688 O   0  0  0  0  0  0
  -23.5333  -32.1400   23.7596 O   0  0  0  0  0  0
  -28.3622  -23.3986   18.4324 C   0  0  0  0  0  0
  -27.1324  -22.6822   20.8270 C   0  0  0  0  0  0
  -27.9589  -22.0542   18.6164 C   0  0  0  0  0  0
  -28.1953  -24.3797   19.4350 C   0  0  0  0  0  0
  -27.2436  -21.7275   19.8024 C   0  0  0  0  0  0
  -27.6393  -23.9835   20.6821 C   0  0  0  0  0  0
  -28.3978  -21.0312   17.5955 C   0  0  0  0  0  0
  -30.5209  -16.5356   17.8097 C   0  0  0  0  0  0
  -28.2401  -16.9074   16.9299 C   0  0  0  0  0  0
  -28.6955  -25.7886   19.0987 C   0  0  0  0  0  0
  -29.3020  -17.6981   20.6428 C   0  0  0  0  0  0
  -28.5806  -17.2089   19.3684 C   0  0  0  0  0  0
  -30.3828  -16.7786   21.2599 C   0  0  0  0  0  0
  -29.6354  -18.8654   17.6608 C   0  0  0  0  0  0
  -29.2552  -17.3977   17.9753 C   0  0  0  0  0  0
  -28.6241  -19.8127   18.0920 N   0  0  0  0  0  0
  -30.0221  -15.3544   21.2472 N   0  0  0  0  0  0
  -28.7240  -21.3552   16.4496 O   0  0  0  0  0  0
  -26.4979  -20.1893   20.0923 Cl  0  0  0  0  0  0
  -27.5655  -25.0001   22.0807 Cl  0  0  0  0  0  0
  -31.4564  -12.3812   19.0862 H   0  0  0  0  0  0
  -30.3418  -11.2413   19.7875 H   0  0  0  0  0  0
  -29.6980  -11.6962   17.4276 H   0  0  0  0  0  0
  -29.6483  -13.4104   17.7218 H   0  0  0  0  0  0
  -27.7810  -11.2942   18.7903 H   0  0  0  0  0  0
  -27.3463  -12.6323   17.7705 H   0  0  0  0  0  0
  -27.7095  -14.2138   19.5750 H   0  0  0  0  0  0
  -28.6574  -11.8559   21.2564 H   0  0  0  0  0  0
  -28.4568  -13.4603   21.8919 H   0  0  0  0  0  0
  -25.2701   -9.5704   22.4745 H   0  0  0  0  0  0
  -23.9972   -7.4651   22.7434 H   0  0  0  0  0  0
  -21.0809   -8.8727   19.8993 H   0  0  0  0  0  0
  -22.3585  -10.9641   19.6139 H   0  0  0  0  0  0
  -21.2025   -7.6139   23.9679 H   0  0  0  0  0  0
  -21.1459   -6.0526   25.9072 H   0  0  0  0  0  0
  -22.0619   -2.7585   23.2849 H   0  0  0  0  0  0
  -22.4156  -11.9921   22.4783 H   0  0  0  0  0  0
  -21.1097  -13.1241   22.2614 H   0  0  0  0  0  0
  -24.6586  -15.8340   20.4701 H   0  0  0  0  0  0
  -26.2814  -15.6153   20.0683 H   0  0  0  0  0  0
  -26.7099  -32.5538   23.1171 H   0  0  0  0  0  0
  -25.0117  -33.9762   25.0533 H   0  0  0  0  0  0
  -22.6834  -31.3105   21.4192 H   0  0  0  0  0  0
  -23.3751  -35.9632   23.3319 H   0  0  0  0  0  0
  -24.3583  -36.8894   22.2059 H   0  0  0  0  0  0
  -23.7214  -37.6516   23.6619 H   0  0  0  0  0  0
  -26.0370  -31.6105   20.6001 H   0  0  0  0  0  0
  -26.8112  -30.8891   21.9849 H   0  0  0  0  0  0
  -28.0925  -29.1379   21.1413 H   0  0  0  0  0  0
  -26.0568  -25.9912   18.9951 H   0  0  0  0  0  0
  -23.9688  -27.2811   19.0646 H   0  0  0  0  0  0
  -23.7102  -30.5959   19.4083 H   0  0  0  0  0  0
  -22.7233  -29.2435   19.8760 H   0  0  0  0  0  0
  -25.1271  -36.1987   25.0851 H   0  0  0  0  0  0
  -20.9931  -28.3190   24.1465 H   0  0  0  0  0  0
  -20.5639  -26.2224   23.3593 H   0  0  0  0  0  0
  -21.6619  -26.7405   22.1223 H   0  0  0  0  0  0
  -19.6875  -25.6292   21.1226 H   0  0  0  0  0  0
  -19.6700  -27.3195   20.6756 H   0  0  0  0  0  0
  -17.4178  -26.6683   21.4017 H   0  0  0  0  0  0
  -18.0295  -26.0041   22.8998 H   0  0  0  0  0  0
  -19.7912  -30.7234   24.2298 H   0  0  0  0  0  0
  -17.4996  -31.6266   24.5139 H   0  0  0  0  0  0
  -15.5326  -30.2979   23.7655 H   0  0  0  0  0  0
  -15.8645  -28.0816   22.7069 H   0  0  0  0  0  0
  -24.5904  -30.7090   25.7867 H   0  0  0  0  0  0
  -24.8970  -32.2899   26.4967 H   0  0  0  0  0  0
  -25.8135  -30.8898   27.0246 H   0  0  0  0  0  0
  -26.2843  -29.6819   24.1173 H   0  0  0  0  0  0
  -27.4064  -29.7306   25.4589 H   0  0  0  0  0  0
  -27.8677  -30.4388   23.9273 H   0  0  0  0  0  0
  -27.2683  -33.3617   26.2083 H   0  0  0  0  0  0
  -28.3834  -32.6902   25.0276 H   0  0  0  0  0  0
  -28.0741  -31.8426   26.5358 H   0  0  0  0  0  0
  -28.2604  -38.0092   24.7516 H   0  0  0  0  0  0
  -28.1065  -36.2627   24.6271 H   0  0  0  0  0  0
  -27.2302  -37.1443   25.8867 H   0  0  0  0  0  0
  -20.9264  -29.8739   21.7002 H   0  0  0  0  0  0
  -26.0186  -38.2887   24.1427 H   0  0  0  0  0  0
  -28.8624  -23.6798   17.5144 H   0  0  0  0  0  0
  -26.6682  -22.3922   21.7596 H   0  0  0  0  0  0
  -30.2981  -15.4758   17.9022 H   0  0  0  0  0  0
  -31.2889  -16.7721   18.5427 H   0  0  0  0  0  0
  -30.9721  -16.6854   16.8264 H   0  0  0  0  0  0
  -28.0568  -15.8348   17.0306 H   0  0  0  0  0  0
  -28.5988  -17.0806   15.9142 H   0  0  0  0  0  0
  -27.2787  -17.4171   17.0289 H   0  0  0  0  0  0
  -28.3060  -26.0962   18.1262 H   0  0  0  0  0  0
  -29.7755  -25.7314   18.9628 H   0  0  0  0  0  0
  -28.5347  -17.8568   21.4027 H   0  0  0  0  0  0
  -29.7219  -18.6877   20.4687 H   0  0  0  0  0  0
  -27.6139  -17.7131   19.3376 H   0  0  0  0  0  0
  -28.3089  -16.1711   19.4955 H   0  0  0  0  0  0
  -30.5557  -17.0888   22.2910 H   0  0  0  0  0  0
  -31.3314  -16.9529   20.7535 H   0  0  0  0  0  0
  -29.8673  -18.9891   16.6018 H   0  0  0  0  0  0
  -30.5451  -19.1301   18.2012 H   0  0  0  0  0  0
  -28.2331  -19.6470   19.0082 H   0  0  0  0  0  0
  -29.1374  -15.0859   21.6547 H   0  0  0  0  0  0
  1 25  1  0  0  0
  1 30  2  0  0  0
  1 87  1  0  0  0
  2  3  1  0  0  0
  2 25  1  0  0  0
  2 91  1  0  0  0
  2 92  1  0  0  0
  3  4  1  0  0  0
  3 93  1  0  0  0
  3 94  1  0  0  0
  4  5  1  0  0  0
  4 95  1  0  0  0
  4 96  1  0  0  0
  5  6  1  0  0  0
  5 26  1  0  0  0
  5 97  1  0  0  0
  6 25  1  0  0  0
  6 98  1  0  0  0
  6 99  1  0  0  0
  7  8  2  0  0  0
  7 26  1  0  0  0
  7 29  1  0  0  0
  8  9  1  0  0  0
  8 22  1  0  0  0
  9 10  1  0  0  0
  9 27  2  0  0  0
 10 11  2  0  0  0
 10 15  1  0  0  0
 11 12  1  0  0  0
 11100  1  0  0  0
 12 13  2  0  0  0
 12101  1  0  0  0
 13 14  1  0  0  0
 13 31  1  0  0  0
 14 15  2  0  0  0
 14102  1  0  0  0
 15103  1  0  0  0
 16 17  2  0  0  0
 16 21  1  0  0  0
 16 31  1  0  0  0
 17 18  1  0  0  0
 17104  1  0  0  0
 18 19  2  0  0  0
 18105  1  0  0  0
 19 20  1  0  0  0
 19 24  1  0  0  0
 20 21  2  0  0  0
 20106  1  0  0  0
 21 23  1  0  0  0
 22 28  1  0  0  0
 22 32  2  0  0  0
 26 27  1  0  0  0
 28107  1  0  0  0
 28108  1  0  0  0
 29109  1  0  0  0
 29110  1  0  0  0
 33 34  1  0  0  0
 33 66  1  0  0  0
 33 70  2  0  0  0
 34 36  1  0  0  0
 34 59  1  0  0  0
 34111  1  0  0  0
 35 44  2  0  0  0
 35 45  1  0  0  0
 35 68  1  0  0  0
 36 56  1  0  0  0
 36112  1  0  0  0
 37 39  1  0  0  0
 37 47  1  0  0  0
 37 66  1  0  0  0
 37113  1  0  0  0
 38 43  2  0  0  0
 38 46  1  0  0  0
 38 47  1  0  0  0
 39 64  1  0  0  0
 39 67  2  0  0  0
 40 52  1  0  0  0
 40 53  2  0  0  0
 40 58  1  0  0  0
 41114  1  0  0  0
 41115  1  0  0  0
 41116  1  0  0  0
 41 48  1  0  0  0
 42 43  1  0  0  0
 42 66  1  0  0  0
 42117  1  0  0  0
 42118  1  0  0  0
 43 44  1  0  0  0
 44119  1  0  0  0
 45 46  2  0  0  0
 45120  1  0  0  0
 46121  1  0  0  0
 47122  1  0  0  0
 47123  1  0  0  0
 48 56  1  0  0  0
 48 65  1  0  0  0
 48124  1  0  0  0
 49 50  1  0  0  0
 49 53  1  0  0  0
 49 64  1  0  0  0
 49125  1  0  0  0
 50 51  1  0  0  0
 50126  1  0  0  0
 50127  1  0  0  0
 51 52  1  0  0  0
 51128  1  0  0  0
 51129  1  0  0  0
 52130  1  0  0  0
 52131  1  0  0  0
 53 54  1  0  0  0
 54 55  2  0  0  0
 54132  1  0  0  0
 55 57  1  0  0  0
 55133  1  0  0  0
 56 69  2  0  0  0
 57 58  2  0  0  0
 57134  1  0  0  0
 58135  1  0  0  0
 59 60  1  0  0  0
 59 61  1  0  0  0
 59 62  1  0  0  0
 60136  1  0  0  0
 60137  1  0  0  0
 60138  1  0  0  0
 61139  1  0  0  0
 61140  1  0  0  0
 61141  1  0  0  0
 62142  1  0  0  0
 62143  1  0  0  0
 62144  1  0  0  0
 63 65  1  0  0  0
 63145  1  0  0  0
 63146  1  0  0  0
 63147  1  0  0  0
 64148  1  0  0  0
 65149  1  0  0  0
 68 80  1  0  0  0
 71 73  2  0  0  0
 71 74  1  0  0  0
 71150  1  0  0  0
 72 75  2  0  0  0
 72 76  1  0  0  0
 72151  1  0  0  0
 73 75  1  0  0  0
 73 77  1  0  0  0
 74 76  2  0  0  0
 74 80  1  0  0  0
 75 89  1  0  0  0
 76 90  1  0  0  0
 77 86  1  0  0  0
 77 88  2  0  0  0
 78152  1  0  0  0
 78153  1  0  0  0
 78154  1  0  0  0
 78 85  1  0  0  0
 79 85  1  0  0  0
 79155  1  0  0  0
 79156  1  0  0  0
 79157  1  0  0  0
 80158  1  0  0  0
 80159  1  0  0  0
 81 82  1  0  0  0
 81 83  1  0  0  0
 81160  1  0  0  0
 81161  1  0  0  0
 82 85  1  0  0  0
 82162  1  0  0  0
 82163  1  0  0  0
 83 87  1  0  0  0
 83164  1  0  0  0
 83165  1  0  0  0
 84 85  1  0  0  0
 84 86  1  0  0  0
 84166  1  0  0  0
 84167  1  0  0  0
 86168  1  0  0  0
 87169  1  0  0  0
M  ISO  4   1 100  68 101  80 101  87 100
M  END
> <chiral flag>
0

> <version>
0

> <s_m_source_file>
/data/baiqing/PycharmProjects/Reinvent-master-3.2/result/LINK_invent/BTK/process_docking_weight1_custom_sum_contain_oxygen_bond_distance_aromatic_linkinvent_7_9_3/rearranged_h_0023.sdf

> <i_m_source_file_index>
89

> <r_mmod_Potential_Energy-OPLS-2005>
-62.9478416442871

> <r_mmod_Stretch_Energy-OPLS-2005>
35.8902053833008

> <r_mmod_Bend_Energy-OPLS-2005>
128.199859619141

> <r_mmod_Torsional_Energy-OPLS-2005>
258.501861572266

> <r_mmod_Improper_Torsional_Energy-OPLS-2005>
7.61534452438354

> <r_mmod_Van_der_Waal_Energy-OPLS-2005>
160.758850097656

> <r_mmod_Electrostatic_Energy-OPLS-2005>
-449.177795410156

> <r_mmod_Solvation_Energy-OPLS-2005>
-215.556854248047

> <b_mmod_Minimization_Converged-OPLS-2005>
0

> <r_mmod_RMS_Derivative-OPLS-2005>
5.39849472045898

$$$$
89
                    3D
 Structure written by MMmdl.
166175  0  0  1  0            999 V2000
  -30.6708  -14.6653   20.4749 C   0  0  0  0  0  0
  -30.4333  -12.4074   19.4708 C   0  0  0  0  0  0
  -29.5093  -12.5297   18.2390 C   0  0  0  0  0  0
  -28.0325  -12.3630   18.6428 C   0  0  0  0  0  0
  -27.6533  -13.2397   19.8664 C   0  0  2  0  0  0
  -28.7038  -13.1252   20.9983 C   0  0  0  0  0  0
  -25.2504  -13.8254   20.5693 C   0  0  0  0  0  0
  -24.1779  -13.0451   20.9184 C   0  0  0  0  0  0
  -24.6391  -11.6951   20.8720 C   0  0  0  0  0  0
  -23.9061  -10.4297   21.0385 C   0  0  0  0  0  0
  -24.3609   -9.4219   21.9190 C   0  0  0  0  0  0
  -23.6263   -8.2263   22.0762 C   0  0  0  0  0  0
  -22.4264   -8.0292   21.3538 C   0  0  0  0  0  0
  -21.9899   -9.0260   20.4639 C   0  0  0  0  0  0
  -22.7232  -10.2129   20.3044 C   0  0  0  0  0  0
  -21.6843   -6.0732   22.5271 C   0  0  0  0  0  0
  -21.4017   -6.5641   23.8203 C   0  0  0  0  0  0
  -21.3645   -5.6787   24.9159 C   0  0  0  0  0  0
  -21.6046   -4.3060   24.7212 C   0  0  0  0  0  0
  -21.8814   -3.8149   23.4335 C   0  0  0  0  0  0
  -21.9184   -4.6963   22.3394 C   0  0  0  0  0  0
  -22.7785  -13.5232   21.1802 C   0  0  0  0  0  0
  -22.1649   -4.2153   21.0958 F   0  0  0  0  0  0
  -21.5619   -3.4544   25.7722 F   0  0  0  0  0  0
  -30.0263  -13.4489   20.4339 N   0  0  0  0  0  0
  -26.2978  -12.9471   20.3353 N   0  0  0  0  0  0
  -25.9345  -11.6605   20.5797 N   0  0  0  0  0  0
  -22.0417  -12.8240   22.0391 N   0  0  0  0  0  0
  -25.4182  -15.1966   20.4084 N   0  0  0  0  0  0
  -31.8310  -14.7719   20.0738 O   0  0  0  0  0  0
  -21.6620   -6.8888   21.4235 O   0  0  0  0  0  0
  -22.3464  -14.5511   20.6624 O   0  0  0  0  0  0
  -24.6346  -31.8569   23.2098 C   0  0  0  0  0  0
  -25.9200  -32.4707   23.8460 C   0  0  1  0  0  0
  -27.2090  -27.2994   20.1081 C   0  0  0  0  0  0
  -25.6071  -33.8529   24.2389 N   0  0  0  0  0  0
  -23.4303  -30.4881   21.5453 C   0  0  2  0  0  0
  -24.8706  -28.9497   20.1029 C   0  0  0  0  0  0
  -22.7527  -29.4539   22.4830 C   0  0  0  0  0  0
  -18.0304  -28.1228   22.8392 C   0  0  0  0  0  0
  -24.1487  -36.7191   23.2691 C   0  0  0  0  0  0
  -25.9832  -30.7625   21.4083 C   0  0  0  0  0  0
  -26.0390  -29.4065   20.7208 C   0  0  0  0  0  0
  -27.2079  -28.5951   20.7136 C   0  0  0  0  0  0
  -26.0199  -26.8965   19.4660 C   0  0  0  0  0  0
  -24.8624  -27.6976   19.4654 C   0  0  0  0  0  0
  -23.6545  -29.8501   20.1536 C   0  0  0  0  0  0
  -25.4095  -36.3057   24.0445 C   0  0  1  0  0  0
  -20.5937  -28.3575   23.1183 C   0  0  2  0  0  0
  -20.6750  -26.9283   22.5311 C   0  0  0  0  0  0
  -19.5730  -26.6240   21.5111 C   0  0  0  0  0  0
  -18.1917  -26.7768   22.1558 C   0  0  0  0  0  0
  -19.1566  -28.8697   23.2767 C   0  0  0  0  0  0
  -18.9529  -30.1274   23.8836 C   0  0  0  0  0  0
  -17.6561  -30.6464   24.0458 C   0  0  0  0  0  0
  -25.9052  -34.9433   23.5181 C   0  0  0  0  0  0
  -16.5417  -29.8920   23.6340 C   0  0  0  0  0  0
  -16.7302  -28.6336   23.0352 C   0  0  0  0  0  0
  -26.4570  -31.6568   25.0871 C   0  0  0  0  0  0
  -25.3818  -31.3735   26.1624 C   0  0  0  0  0  0
  -27.0532  -30.3045   24.6363 C   0  0  0  0  0  0
  -27.6041  -32.4429   25.7653 C   0  0  0  0  0  0
  -27.5571  -37.1749   24.8506 C   0  0  0  0  0  0
  -21.4244  -29.2991   22.3619 N   0  0  0  0  0  0
  -26.4272  -37.3733   23.9476 N   0  0  0  0  0  0
  -24.6980  -31.0521   22.1100 N   0  0  0  0  0  0
  -23.4239  -28.8034   23.2862 O   0  0  0  0  0  0
  -28.3233  -26.4452   20.1762 O   0  0  0  0  0  0
  -26.5495  -34.8911   22.4667 O   0  0  0  0  0  0
  -23.5498  -32.1439   23.7366 O   0  0  0  0  0  0
  -29.0339  -18.0791   20.9779 C   0  0  0  0  0  0
  -31.1398  -17.8261   19.8442 C   0  0  0  0  0  0
  -29.0773  -19.5050   20.8133 C   0  0  0  0  0  0
  -30.1861  -20.1186   20.1691 C   0  0  0  0  0  0
  -31.1944  -19.2444   19.6426 C   0  0  0  0  0  0
  -30.0702  -17.2014   20.5484 C   0  0  0  0  0  0
  -30.3145  -21.6939   20.1207 C   0  0  0  0  0  0
  -28.4342  -21.8389   21.6466 C   0  0  0  0  0  0
  -27.9240  -20.4111   21.2923 C   0  0  0  0  0  0
  -32.3782  -19.8126   18.8615 C   0  0  0  0  0  0
  -27.2150  -19.8235   22.5335 C   0  0  0  0  0  0
  -26.8722  -20.5417   20.1729 C   0  0  0  0  0  0
  -29.2431  -24.0206   20.6585 C   0  0  0  0  0  0
  -28.1537  -24.9817   19.9762 C   0  0  0  0  0  0
  -29.9372  -15.7622   20.8475 N   0  0  0  0  0  0
  -29.0810  -22.4981   20.4805 N   0  3  1  0  0  0
  -31.4784  -12.5075   19.1702 H   0  0  0  0  0  0
  -30.3519  -11.4208   19.9299 H   0  0  0  0  0  0
  -29.7826  -11.7943   17.4807 H   0  0  0  0  0  0
  -29.6498  -13.5130   17.7871 H   0  0  0  0  0  0
  -27.8637  -11.3107   18.8707 H   0  0  0  0  0  0
  -27.3867  -12.5980   17.7964 H   0  0  0  0  0  0
  -27.6570  -14.2717   19.5169 H   0  0  0  0  0  0
  -28.7080  -12.1139   21.4011 H   0  0  0  0  0  0
  -28.4500  -13.7784   21.8337 H   0  0  0  0  0  0
  -25.2745   -9.5710   22.4786 H   0  0  0  0  0  0
  -23.9954   -7.4677   22.7516 H   0  0  0  0  0  0
  -21.0837   -8.8773   19.8964 H   0  0  0  0  0  0
  -22.3682  -10.9660   19.6153 H   0  0  0  0  0  0
  -21.2011   -7.6147   23.9710 H   0  0  0  0  0  0
  -21.1464   -6.0515   25.9059 H   0  0  0  0  0  0
  -22.0598   -2.7614   23.2825 H   0  0  0  0  0  0
  -22.3977  -11.9918   22.4851 H   0  0  0  0  0  0
  -21.1024  -13.1296   22.2516 H   0  0  0  0  0  0
  -24.6498  -15.8523   20.5007 H   0  0  0  0  0  0
  -26.2778  -15.6399   20.1105 H   0  0  0  0  0  0
  -26.7288  -32.5344   23.1212 H   0  0  0  0  0  0
  -25.0681  -33.9692   25.0852 H   0  0  0  0  0  0
  -22.7254  -31.3102   21.4072 H   0  0  0  0  0  0
  -23.3833  -35.9427   23.3317 H   0  0  0  0  0  0
  -24.3660  -36.8764   22.2107 H   0  0  0  0  0  0
  -23.7119  -37.6386   23.6642 H   0  0  0  0  0  0
  -26.1957  -31.5450   20.6797 H   0  0  0  0  0  0
  -26.8324  -30.7408   22.0790 H   0  0  0  0  0  0
  -28.1001  -28.9268   21.2217 H   0  0  0  0  0  0
  -25.9572  -25.9462   18.9552 H   0  0  0  0  0  0
  -23.9702  -27.3433   18.9649 H   0  0  0  0  0  0
  -23.8023  -30.6513   19.4276 H   0  0  0  0  0  0
  -22.7663  -29.3129   19.8215 H   0  0  0  0  0  0
  -25.1204  -36.1988   25.0932 H   0  0  0  0  0  0
  -21.0014  -28.3082   24.1303 H   0  0  0  0  0  0
  -20.5536  -26.2173   23.3501 H   0  0  0  0  0  0
  -21.6612  -26.7117   22.1168 H   0  0  0  0  0  0
  -19.6911  -25.6155   21.1119 H   0  0  0  0  0  0
  -19.6728  -27.3024   20.6629 H   0  0  0  0  0  0
  -17.4169  -26.6561   21.3945 H   0  0  0  0  0  0
  -18.0282  -25.9821   22.8886 H   0  0  0  0  0  0
  -19.8047  -30.6970   24.2251 H   0  0  0  0  0  0
  -17.5153  -31.6207   24.4933 H   0  0  0  0  0  0
  -15.5407  -30.2781   23.7686 H   0  0  0  0  0  0
  -15.8717  -28.0587   22.7157 H   0  0  0  0  0  0
  -24.5946  -30.7083   25.8061 H   0  0  0  0  0  0
  -24.9084  -32.2922   26.5116 H   0  0  0  0  0  0
  -25.8181  -30.8967   27.0409 H   0  0  0  0  0  0
  -26.3204  -29.6722   24.1346 H   0  0  0  0  0  0
  -27.4320  -29.7307   25.4833 H   0  0  0  0  0  0
  -27.9002  -30.4468   23.9643 H   0  0  0  0  0  0
  -27.2543  -33.3742   26.2121 H   0  0  0  0  0  0
  -28.3873  -32.6993   25.0505 H   0  0  0  0  0  0
  -28.0701  -31.8708   26.5678 H   0  0  0  0  0  0
  -28.2494  -38.0116   24.7560 H   0  0  0  0  0  0
  -28.1140  -36.2639   24.6285 H   0  0  0  0  0  0
  -27.2321  -37.1324   25.8915 H   0  0  0  0  0  0
  -20.9356  -29.9036   21.7186 H   0  0  0  0  0  0
  -26.0202  -38.2835   24.1434 H   0  0  0  0  0  0
  -28.1911  -17.6295   21.4745 H   0  0  0  0  0  0
  -31.9551  -17.2281   19.4545 H   0  0  0  0  0  0
  -30.6637  -22.0190   19.1417 H   0  0  0  0  0  0
  -31.1120  -21.9527   20.8253 H   0  0  0  0  0  0
  -29.1492  -21.7727   22.4719 H   0  0  0  0  0  0
  -27.6112  -22.4517   22.0160 H   0  0  0  0  0  0
  -32.9850  -19.0241   18.4164 H   0  0  0  0  0  0
  -33.0345  -20.4048   19.4988 H   0  0  0  0  0  0
  -32.0469  -20.4498   18.0407 H   0  0  0  0  0  0
  -27.9185  -19.6301   23.3452 H   0  0  0  0  0  0
  -26.6846  -18.8967   22.3152 H   0  0  0  0  0  0
  -26.4620  -20.5140   22.9126 H   0  0  0  0  0  0
  -27.3389  -20.7367   19.2066 H   0  0  0  0  0  0
  -26.1769  -21.3582   20.3755 H   0  0  0  0  0  0
  -26.2849  -19.6291   20.0783 H   0  0  0  0  0  0
  -29.2084  -24.2268   21.7350 H   0  0  0  0  0  0
  -30.2485  -24.3209   20.3405 H   0  0  0  0  0  0
  -27.1778  -24.6675   20.3540 H   0  0  0  0  0  0
  -28.1156  -24.8061   18.8938 H   0  0  0  0  0  0
  -29.0987  -15.5090   21.3503 H   0  0  0  0  0  0
  -28.4428  -22.3673   19.7100 H   0  0  0  0  0  0
  1 25  1  0  0  0
  1 30  2  0  0  0
  1 85  1  0  0  0
  2  3  1  0  0  0
  2 25  1  0  0  0
  2 87  1  0  0  0
  2 88  1  0  0  0
  3  4  1  0  0  0
  3 89  1  0  0  0
  3 90  1  0  0  0
  4  5  1  0  0  0
  4 91  1  0  0  0
  4 92  1  0  0  0
  5  6  1  0  0  0
  5 26  1  0  0  0
  5 93  1  0  0  0
  6 25  1  0  0  0
  6 94  1  0  0  0
  6 95  1  0  0  0
  7  8  2  0  0  0
  7 26  1  0  0  0
  7 29  1  0  0  0
  8  9  1  0  0  0
  8 22  1  0  0  0
  9 10  1  0  0  0
  9 27  2  0  0  0
 10 11  2  0  0  0
 10 15  1  0  0  0
 11 12  1  0  0  0
 11 96  1  0  0  0
 12 13  2  0  0  0
 12 97  1  0  0  0
 13 14  1  0  0  0
 13 31  1  0  0  0
 14 15  2  0  0  0
 14 98  1  0  0  0
 15 99  1  0  0  0
 16 17  2  0  0  0
 16 21  1  0  0  0
 16 31  1  0  0  0
 17 18  1  0  0  0
 17100  1  0  0  0
 18 19  2  0  0  0
 18101  1  0  0  0
 19 20  1  0  0  0
 19 24  1  0  0  0
 20 21  2  0  0  0
 20102  1  0  0  0
 21 23  1  0  0  0
 22 28  1  0  0  0
 22 32  2  0  0  0
 26 27  1  0  0  0
 28103  1  0  0  0
 28104  1  0  0  0
 29105  1  0  0  0
 29106  1  0  0  0
 33 34  1  0  0  0
 33 66  1  0  0  0
 33 70  2  0  0  0
 34 36  1  0  0  0
 34 59  1  0  0  0
 34107  1  0  0  0
 35 44  2  0  0  0
 35 45  1  0  0  0
 35 68  1  0  0  0
 36 56  1  0  0  0
 36108  1  0  0  0
 37 39  1  0  0  0
 37 47  1  0  0  0
 37 66  1  0  0  0
 37109  1  0  0  0
 38 43  2  0  0  0
 38 46  1  0  0  0
 38 47  1  0  0  0
 39 64  1  0  0  0
 39 67  2  0  0  0
 40 52  1  0  0  0
 40 53  2  0  0  0
 40 58  1  0  0  0
 41110  1  0  0  0
 41111  1  0  0  0
 41112  1  0  0  0
 41 48  1  0  0  0
 42 43  1  0  0  0
 42 66  1  0  0  0
 42113  1  0  0  0
 42114  1  0  0  0
 43 44  1  0  0  0
 44115  1  0  0  0
 45 46  2  0  0  0
 45116  1  0  0  0
 46117  1  0  0  0
 47118  1  0  0  0
 47119  1  0  0  0
 48 56  1  0  0  0
 48 65  1  0  0  0
 48120  1  0  0  0
 49 50  1  0  0  0
 49 53  1  0  0  0
 49 64  1  0  0  0
 49121  1  0  0  0
 50 51  1  0  0  0
 50122  1  0  0  0
 50123  1  0  0  0
 51 52  1  0  0  0
 51124  1  0  0  0
 51125  1  0  0  0
 52126  1  0  0  0
 52127  1  0  0  0
 53 54  1  0  0  0
 54 55  2  0  0  0
 54128  1  0  0  0
 55 57  1  0  0  0
 55129  1  0  0  0
 56 69  2  0  0  0
 57 58  2  0  0  0
 57130  1  0  0  0
 58131  1  0  0  0
 59 60  1  0  0  0
 59 61  1  0  0  0
 59 62  1  0  0  0
 60132  1  0  0  0
 60133  1  0  0  0
 60134  1  0  0  0
 61135  1  0  0  0
 61136  1  0  0  0
 61137  1  0  0  0
 62138  1  0  0  0
 62139  1  0  0  0
 62140  1  0  0  0
 63 65  1  0  0  0
 63141  1  0  0  0
 63142  1  0  0  0
 63143  1  0  0  0
 64144  1  0  0  0
 65145  1  0  0  0
 68 84  1  0  0  0
 71 73  2  0  0  0
 71 76  1  0  0  0
 71146  1  0  0  0
 72 75  1  0  0  0
 72 76  2  0  0  0
 72147  1  0  0  0
 73 74  1  0  0  0
 73 79  1  0  0  0
 74 75  2  0  0  0
 74 77  1  0  0  0
 75 80  1  0  0  0
 76 85  1  0  0  0
 77 86  1  0  0  0
 77148  1  0  0  0
 77149  1  0  0  0
 78 79  1  0  0  0
 78 86  1  0  0  0
 78150  1  0  0  0
 78151  1  0  0  0
 79 81  1  0  0  0
 79 82  1  0  0  0
 80152  1  0  0  0
 80153  1  0  0  0
 80154  1  0  0  0
 81155  1  0  0  0
 81156  1  0  0  0
 81157  1  0  0  0
 82158  1  0  0  0
 82159  1  0  0  0
 82160  1  0  0  0
 83 84  1  0  0  0
 83161  1  0  0  0
 83162  1  0  0  0
 83 86  1  0  0  0
 84163  1  0  0  0
 84164  1  0  0  0
 85165  1  0  0  0
 86166  1  0  0  0
M  CHG  1  86   1
M  ISO  4   1 100  68 101  84 101  85 100
M  END
> <chiral flag>
0

> <version>
0

> <s_m_source_file>
/data/baiqing/PycharmProjects/Reinvent-master-3.2/result/LINK_invent/BTK/process_docking_weight1_custom_sum_contain_oxygen_bond_distance_aromatic_linkinvent_7_9_3/rearranged_h_0023.sdf

> <i_m_source_file_index>
90

> <r_mmod_Potential_Energy-OPLS-2005>
4.12691879272461

> <r_mmod_Stretch_Energy-OPLS-2005>
95.8286590576172

> <r_mmod_Bend_Energy-OPLS-2005>
145.387191772461

> <r_mmod_Torsional_Energy-OPLS-2005>
249.079895019531

> <r_mmod_Improper_Torsional_Energy-OPLS-2005>
3.31252670288086

> <r_mmod_Van_der_Waal_Energy-OPLS-2005>
152.1806640625

> <r_mmod_Electrostatic_Energy-OPLS-2005>
-274.672058105469

> <r_mmod_Solvation_Energy-OPLS-2005>
-427.12548828125

> <b_mmod_Minimization_Converged-OPLS-2005>
0

> <r_mmod_RMS_Derivative-OPLS-2005>
8.81121158599854

$$$$
91
                    3D
 Structure written by MMmdl.
154162  0  0  1  0            999 V2000
  -30.6075  -14.7263   20.4808 C   0  0  0  0  0  0
  -30.4385  -12.4430   19.4898 C   0  0  0  0  0  0
  -29.5208  -12.5187   18.2482 C   0  0  0  0  0  0
  -28.0439  -12.3435   18.6520 C   0  0  0  0  0  0
  -27.6499  -13.2322   19.8616 C   0  0  2  0  0  0
  -28.6890  -13.1394   21.0029 C   0  0  0  0  0  0
  -25.2541  -13.8198   20.5709 C   0  0  0  0  0  0
  -24.1823  -13.0444   20.9203 C   0  0  0  0  0  0
  -24.6414  -11.6918   20.8739 C   0  0  0  0  0  0
  -23.9083  -10.4292   21.0396 C   0  0  0  0  0  0
  -24.3635   -9.4207   21.9171 C   0  0  0  0  0  0
  -23.6305   -8.2244   22.0744 C   0  0  0  0  0  0
  -22.4283   -8.0291   21.3541 C   0  0  0  0  0  0
  -21.9920   -9.0267   20.4645 C   0  0  0  0  0  0
  -22.7255  -10.2142   20.3050 C   0  0  0  0  0  0
  -21.6858   -6.0747   22.5280 C   0  0  0  0  0  0
  -21.4017   -6.5644   23.8219 C   0  0  0  0  0  0
  -21.3661   -5.6786   24.9178 C   0  0  0  0  0  0
  -21.6047   -4.3053   24.7220 C   0  0  0  0  0  0
  -21.8816   -3.8156   23.4336 C   0  0  0  0  0  0
  -21.9193   -4.6978   22.3398 C   0  0  0  0  0  0
  -22.7841  -13.5229   21.1854 C   0  0  0  0  0  0
  -22.1656   -4.2159   21.0975 F   0  0  0  0  0  0
  -21.5620   -3.4535   25.7734 F   0  0  0  0  0  0
  -30.0011  -13.4906   20.4432 N   0  0  0  0  0  0
  -26.2980  -12.9410   20.3315 N   0  0  0  0  0  0
  -25.9348  -11.6546   20.5753 N   0  0  0  0  0  0
  -22.0478  -12.8241   22.0426 N   0  0  0  0  0  0
  -25.4242  -15.1929   20.4156 N   0  0  0  0  0  0
  -31.7602  -14.8622   20.0602 O   0  0  0  0  0  0
  -21.6638   -6.8896   21.4244 O   0  0  0  0  0  0
  -22.3521  -14.5521   20.6693 O   0  0  0  0  0  0
  -24.6307  -31.8562   23.2006 C   0  0  0  0  0  0
  -25.9126  -32.4769   23.8349 C   0  0  1  0  0  0
  -27.2167  -27.2615   20.1238 C   0  0  0  0  0  0
  -25.5918  -33.8569   24.2269 N   0  0  0  0  0  0
  -23.4285  -30.4802   21.5434 C   0  0  2  0  0  0
  -24.8762  -28.9333   20.1047 C   0  0  0  0  0  0
  -22.7505  -29.4600   22.4909 C   0  0  0  0  0  0
  -18.0292  -28.1402   22.8481 C   0  0  0  0  0  0
  -24.1480  -36.7295   23.2640 C   0  0  0  0  0  0
  -25.9746  -30.7681   21.3827 C   0  0  0  0  0  0
  -26.0460  -29.3902   20.7245 C   0  0  0  0  0  0
  -27.2165  -28.5640   20.7301 C   0  0  0  0  0  0
  -26.0317  -26.8910   19.4456 C   0  0  0  0  0  0
  -24.8758  -27.6931   19.4521 C   0  0  0  0  0  0
  -23.6464  -29.8187   20.1569 C   0  0  0  0  0  0
  -25.4104  -36.3080   24.0332 C   0  0  1  0  0  0
  -20.5898  -28.3703   23.1274 C   0  0  2  0  0  0
  -20.6780  -26.9421   22.5416 C   0  0  0  0  0  0
  -19.5746  -26.6387   21.5224 C   0  0  0  0  0  0
  -18.1932  -26.7938   22.1635 C   0  0  0  0  0  0
  -19.1550  -28.8872   23.2875 C   0  0  0  0  0  0
  -18.9463  -30.1472   23.8896 C   0  0  0  0  0  0
  -17.6464  -30.6600   24.0568 C   0  0  0  0  0  0
  -25.9047  -34.9445   23.5104 C   0  0  0  0  0  0
  -16.5354  -29.9105   23.6327 C   0  0  0  0  0  0
  -16.7281  -28.6526   23.0343 C   0  0  0  0  0  0
  -26.4479  -31.6598   25.0744 C   0  0  0  0  0  0
  -25.3691  -31.3765   26.1466 C   0  0  0  0  0  0
  -27.0318  -30.3013   24.6229 C   0  0  0  0  0  0
  -27.6032  -32.4341   25.7510 C   0  0  0  0  0  0
  -27.5577  -37.1803   24.8461 C   0  0  0  0  0  0
  -21.4218  -29.3051   22.3665 N   0  0  0  0  0  0
  -26.4279  -37.3781   23.9417 N   0  0  0  0  0  0
  -24.6969  -31.0522   22.0985 N   0  0  0  0  0  0
  -23.4205  -28.8124   23.2998 O   0  0  0  0  0  0
  -28.2997  -26.3509   20.2154 O   0  0  0  0  0  0
  -26.5622  -34.8919   22.4678 O   0  0  0  0  0  0
  -23.5451  -32.1386   23.7290 O   0  0  0  0  0  0
  -29.2752  -17.0525   18.8425 C   0  0  0  0  0  0
  -28.8921  -19.4778   18.7442 C   0  0  0  0  0  0
  -28.8862  -18.2062   18.1324 C   0  0  0  0  0  0
  -29.6602  -17.1161   20.1983 C   0  0  0  0  0  0
  -29.2824  -19.6601   20.0925 C   0  0  0  0  0  0
  -29.6532  -18.4409   20.8102 C   0  0  0  0  0  0
  -28.4295  -18.0779   16.6925 C   0  0  0  0  0  0
  -28.9414  -23.6821   20.5462 C   0  0  0  0  0  0
  -28.0868  -24.8926   19.8941 C   0  0  0  0  0  0
  -28.7166  -22.1740   19.9880 C   0  0  0  0  0  0
  -29.8690  -15.8217   20.8910 N   0  0  0  0  0  0
  -29.3006  -20.9729   20.6697 O   0  0  0  0  0  0
  -30.0904  -18.5770   22.4759 Cl  0  0  0  0  0  0
  -31.4824  -12.5626   19.1947 H   0  0  0  0  0  0
  -30.3768  -11.4594   19.9566 H   0  0  0  0  0  0
  -29.8048  -11.7546   17.5233 H   0  0  0  0  0  0
  -29.6552  -13.4796   17.7481 H   0  0  0  0  0  0
  -27.8954  -11.2933   18.9044 H   0  0  0  0  0  0
  -27.3916  -12.5475   17.8017 H   0  0  0  0  0  0
  -27.6548  -14.2599   19.4978 H   0  0  0  0  0  0
  -28.7125  -12.1331   21.4250 H   0  0  0  0  0  0
  -28.4190  -13.8038   21.8247 H   0  0  0  0  0  0
  -25.2780   -9.5681   22.4739 H   0  0  0  0  0  0
  -24.0013   -7.4635   22.7464 H   0  0  0  0  0  0
  -21.0847   -8.8801   19.8960 H   0  0  0  0  0  0
  -22.3717  -10.9682   19.6156 H   0  0  0  0  0  0
  -21.2014   -7.6150   23.9742 H   0  0  0  0  0  0
  -21.1477   -6.0502   25.9083 H   0  0  0  0  0  0
  -22.0597   -2.7620   23.2832 H   0  0  0  0  0  0
  -22.4089  -11.9916   22.4839 H   0  0  0  0  0  0
  -21.1092  -13.1279   22.2610 H   0  0  0  0  0  0
  -24.6576  -15.8461   20.5315 H   0  0  0  0  0  0
  -26.2768  -15.6371   20.0993 H   0  0  0  0  0  0
  -26.7195  -32.5414   23.1093 H   0  0  0  0  0  0
  -25.0038  -33.9710   25.0396 H   0  0  0  0  0  0
  -22.7244  -31.3026   21.3993 H   0  0  0  0  0  0
  -23.3746  -35.9625   23.3289 H   0  0  0  0  0  0
  -24.3576  -36.8933   22.2059 H   0  0  0  0  0  0
  -23.7221  -37.6489   23.6669 H   0  0  0  0  0  0
  -26.1124  -31.5269   20.6110 H   0  0  0  0  0  0
  -26.8538  -30.8198   22.0133 H   0  0  0  0  0  0
  -28.1060  -28.9029   21.2424 H   0  0  0  0  0  0
  -25.9623  -25.9587   18.9059 H   0  0  0  0  0  0
  -23.9875  -27.3481   18.9412 H   0  0  0  0  0  0
  -23.7730  -30.5988   19.4052 H   0  0  0  0  0  0
  -22.7645  -29.2538   19.8483 H   0  0  0  0  0  0
  -25.1282  -36.1934   25.0824 H   0  0  0  0  0  0
  -20.9991  -28.3286   24.1395 H   0  0  0  0  0  0
  -20.5689  -26.2314   23.3623 H   0  0  0  0  0  0
  -21.6641  -26.7456   22.1198 H   0  0  0  0  0  0
  -19.6907  -25.6297   21.1259 H   0  0  0  0  0  0
  -19.6685  -27.3193   20.6746 H   0  0  0  0  0  0
  -17.4198  -26.6683   21.4041 H   0  0  0  0  0  0
  -18.0338  -26.0102   22.9051 H   0  0  0  0  0  0
  -19.7940  -30.7289   24.2266 H   0  0  0  0  0  0
  -17.5020  -31.6274   24.5177 H   0  0  0  0  0  0
  -15.5358  -30.3006   23.7655 H   0  0  0  0  0  0
  -15.8678  -28.0851   22.7046 H   0  0  0  0  0  0
  -24.5849  -30.7136   25.7798 H   0  0  0  0  0  0
  -24.8898  -32.2941   26.4882 H   0  0  0  0  0  0
  -25.7998  -30.8942   27.0248 H   0  0  0  0  0  0
  -26.2911  -29.6782   24.1209 H   0  0  0  0  0  0
  -27.3948  -29.7264   25.4755 H   0  0  0  0  0  0
  -27.8806  -30.4296   23.9512 H   0  0  0  0  0  0
  -27.2639  -33.3641   26.2078 H   0  0  0  0  0  0
  -28.3834  -32.6903   25.0334 H   0  0  0  0  0  0
  -28.0699  -31.8471   26.5428 H   0  0  0  0  0  0
  -28.2582  -38.0111   24.7523 H   0  0  0  0  0  0
  -28.1081  -36.2645   24.6257 H   0  0  0  0  0  0
  -27.2303  -37.1422   25.8864 H   0  0  0  0  0  0
  -20.9407  -29.8796   21.6889 H   0  0  0  0  0  0
  -26.0159  -38.2854   24.1435 H   0  0  0  0  0  0
  -29.2308  -16.0961   18.3430 H   0  0  0  0  0  0
  -28.5845  -20.3135   18.1358 H   0  0  0  0  0  0
  -28.1959  -17.0432   16.4399 H   0  0  0  0  0  0
  -29.2094  -18.4248   16.0150 H   0  0  0  0  0  0
  -27.5335  -18.6742   16.5139 H   0  0  0  0  0  0
  -28.7444  -23.6804   21.6181 H   0  0  0  0  0  0
  -29.9996  -23.9201   20.4443 H   0  0  0  0  0  0
  -27.0571  -24.6276   20.1314 H   0  0  0  0  0  0
  -28.1740  -24.8086   18.8104 H   0  0  0  0  0  0
  -29.0659  -22.1970   18.9572 H   0  0  0  0  0  0
  -27.6416  -21.9995   19.9351 H   0  0  0  0  0  0
  -29.1058  -15.5736   21.5018 H   0  0  0  0  0  0
  1 25  1  0  0  0
  1 30  2  0  0  0
  1 81  1  0  0  0
  2  3  1  0  0  0
  2 25  1  0  0  0
  2 84  1  0  0  0
  2 85  1  0  0  0
  3  4  1  0  0  0
  3 86  1  0  0  0
  3 87  1  0  0  0
  4  5  1  0  0  0
  4 88  1  0  0  0
  4 89  1  0  0  0
  5  6  1  0  0  0
  5 26  1  0  0  0
  5 90  1  0  0  0
  6 25  1  0  0  0
  6 91  1  0  0  0
  6 92  1  0  0  0
  7  8  2  0  0  0
  7 26  1  0  0  0
  7 29  1  0  0  0
  8  9  1  0  0  0
  8 22  1  0  0  0
  9 10  1  0  0  0
  9 27  2  0  0  0
 10 11  2  0  0  0
 10 15  1  0  0  0
 11 12  1  0  0  0
 11 93  1  0  0  0
 12 13  2  0  0  0
 12 94  1  0  0  0
 13 14  1  0  0  0
 13 31  1  0  0  0
 14 15  2  0  0  0
 14 95  1  0  0  0
 15 96  1  0  0  0
 16 17  2  0  0  0
 16 21  1  0  0  0
 16 31  1  0  0  0
 17 18  1  0  0  0
 17 97  1  0  0  0
 18 19  2  0  0  0
 18 98  1  0  0  0
 19 20  1  0  0  0
 19 24  1  0  0  0
 20 21  2  0  0  0
 20 99  1  0  0  0
 21 23  1  0  0  0
 22 28  1  0  0  0
 22 32  2  0  0  0
 26 27  1  0  0  0
 28100  1  0  0  0
 28101  1  0  0  0
 29102  1  0  0  0
 29103  1  0  0  0
 33 34  1  0  0  0
 33 66  1  0  0  0
 33 70  2  0  0  0
 34 36  1  0  0  0
 34 59  1  0  0  0
 34104  1  0  0  0
 35 44  2  0  0  0
 35 45  1  0  0  0
 35 68  1  0  0  0
 36 56  1  0  0  0
 36105  1  0  0  0
 37 39  1  0  0  0
 37 47  1  0  0  0
 37 66  1  0  0  0
 37106  1  0  0  0
 38 43  2  0  0  0
 38 46  1  0  0  0
 38 47  1  0  0  0
 39 64  1  0  0  0
 39 67  2  0  0  0
 40 52  1  0  0  0
 40 53  2  0  0  0
 40 58  1  0  0  0
 41107  1  0  0  0
 41108  1  0  0  0
 41109  1  0  0  0
 41 48  1  0  0  0
 42 43  1  0  0  0
 42 66  1  0  0  0
 42110  1  0  0  0
 42111  1  0  0  0
 43 44  1  0  0  0
 44112  1  0  0  0
 45 46  2  0  0  0
 45113  1  0  0  0
 46114  1  0  0  0
 47115  1  0  0  0
 47116  1  0  0  0
 48 56  1  0  0  0
 48 65  1  0  0  0
 48117  1  0  0  0
 49 50  1  0  0  0
 49 53  1  0  0  0
 49 64  1  0  0  0
 49118  1  0  0  0
 50 51  1  0  0  0
 50119  1  0  0  0
 50120  1  0  0  0
 51 52  1  0  0  0
 51121  1  0  0  0
 51122  1  0  0  0
 52123  1  0  0  0
 52124  1  0  0  0
 53 54  1  0  0  0
 54 55  2  0  0  0
 54125  1  0  0  0
 55 57  1  0  0  0
 55126  1  0  0  0
 56 69  2  0  0  0
 57 58  2  0  0  0
 57127  1  0  0  0
 58128  1  0  0  0
 59 60  1  0  0  0
 59 61  1  0  0  0
 59 62  1  0  0  0
 60129  1  0  0  0
 60130  1  0  0  0
 60131  1  0  0  0
 61132  1  0  0  0
 61133  1  0  0  0
 61134  1  0  0  0
 62135  1  0  0  0
 62136  1  0  0  0
 62137  1  0  0  0
 63 65  1  0  0  0
 63138  1  0  0  0
 63139  1  0  0  0
 63140  1  0  0  0
 64141  1  0  0  0
 65142  1  0  0  0
 68 79  1  0  0  0
 71 73  2  0  0  0
 71 74  1  0  0  0
 71143  1  0  0  0
 72 73  1  0  0  0
 72 75  2  0  0  0
 72144  1  0  0  0
 73 77  1  0  0  0
 74 76  2  0  0  0
 74 81  1  0  0  0
 75 76  1  0  0  0
 75 82  1  0  0  0
 76 83  1  0  0  0
 77145  1  0  0  0
 77146  1  0  0  0
 77147  1  0  0  0
 78 79  1  0  0  0
 78 80  1  0  0  0
 78148  1  0  0  0
 78149  1  0  0  0
 79150  1  0  0  0
 79151  1  0  0  0
 80 82  1  0  0  0
 80152  1  0  0  0
 80153  1  0  0  0
 81154  1  0  0  0
M  ISO  4   1 100  68 101  79 101  81 100
M  END
> <chiral flag>
0

> <version>
0

> <s_m_source_file>
/data/baiqing/PycharmProjects/Reinvent-master-3.2/result/LINK_invent/BTK/process_docking_weight1_custom_sum_contain_oxygen_bond_distance_aromatic_linkinvent_7_9_3/rearranged_h_0023.sdf

> <i_m_source_file_index>
91

> <r_mmod_Potential_Energy-OPLS-2005>
197.167633056641

> <r_mmod_Stretch_Energy-OPLS-2005>
125.661071777344

> <r_mmod_Bend_Energy-OPLS-2005>
164.617004394531

> <r_mmod_Torsional_Energy-OPLS-2005>
244.804763793945

> <r_mmod_Improper_Torsional_Energy-OPLS-2005>
5.2726845741272

> <r_mmod_Van_der_Waal_Energy-OPLS-2005>
139.969284057617

> <r_mmod_Electrostatic_Energy-OPLS-2005>
-350.384826660156

> <r_mmod_Solvation_Energy-OPLS-2005>
-215.873687744141

> <b_mmod_Minimization_Converged-OPLS-2005>
0

> <r_mmod_RMS_Derivative-OPLS-2005>
1.85099482536316

$$$$
92
                    3D
 Structure written by MMmdl.
165173  0  0  1  0            999 V2000
  -31.1221  -13.8669   20.9472 C   0  0  0  0  0  0
  -30.7090  -12.2903   19.0576 C   0  0  0  0  0  0
  -29.9983  -12.7561   17.3764 C   0  0  0  0  0  0
  -28.3531  -13.7021   17.1193 C   0  0  0  0  0  0
  -27.3419  -13.9796   20.2123 C   0  0  2  0  0  0
  -28.7038  -13.1904   21.2143 C   0  0  0  0  0  0
  -24.9865  -13.9949   20.8046 C   0  0  0  0  0  0
  -24.0150  -13.0894   21.0299 C   0  0  0  0  0  0
  -24.6004  -11.7859   20.9983 C   0  0  0  0  0  0
  -23.9322  -10.4622   21.0694 C   0  0  0  0  0  0
  -24.3833   -9.4378   21.9320 C   0  0  0  0  0  0
  -23.6516   -8.2353   22.0741 C   0  0  0  0  0  0
  -22.4507   -8.0380   21.3511 C   0  0  0  0  0  0
  -22.0259   -9.0392   20.4595 C   0  0  0  0  0  0
  -22.7602  -10.2312   20.3145 C   0  0  0  0  0  0
  -21.6947   -6.0812   22.5246 C   0  0  0  0  0  0
  -21.4082   -6.5693   23.8187 C   0  0  0  0  0  0
  -21.3677   -5.6829   24.9140 C   0  0  0  0  0  0
  -21.6039   -4.3088   24.7186 C   0  0  0  0  0  0
  -21.8810   -3.8193   23.4305 C   0  0  0  0  0  0
  -21.9224   -4.7021   22.3368 C   0  0  0  0  0  0
  -22.6014  -13.4806   21.2033 C   0  0  0  0  0  0
  -22.1680   -4.2194   21.0950 F   0  0  0  0  0  0
  -21.5606   -3.4566   25.7695 F   0  0  0  0  0  0
  -30.2376  -12.8617   20.5953 N   0  0  0  0  0  0
  -26.1253  -13.2951   20.7326 N   0  0  0  0  0  0
  -25.9248  -11.9269   20.8991 N   0  0  0  0  0  0
  -21.8892  -12.7630   22.0565 N   0  0  0  0  0  0
  -25.0051  -15.3716   20.6239 N   0  0  0  0  0  0
  -32.3301  -13.9141   20.7476 O   0  0  0  0  0  0
  -21.6810   -6.8988   21.4211 O   0  0  0  0  0  0
  -22.1607  -14.4925   20.6598 O   0  0  0  0  0  0
  -24.6538  -31.8471   23.1963 C   0  0  0  0  0  0
  -25.9302  -32.4695   23.8320 C   0  0  1  0  0  0
  -27.0578  -27.0675   20.0307 C   0  0  0  0  0  0
  -25.6033  -33.8509   24.2222 N   0  0  0  0  0  0
  -23.4448  -30.4909   21.5554 C   0  0  2  0  0  0
  -24.8500  -28.9456   20.0947 C   0  0  0  0  0  0
  -22.7581  -29.4613   22.4894 C   0  0  0  0  0  0
  -18.0320  -28.1395   22.8486 C   0  0  0  0  0  0
  -24.1501  -36.7248   23.2639 C   0  0  0  0  0  0
  -26.0180  -30.6824   21.4118 C   0  0  0  0  0  0
  -26.0515  -29.3045   20.7190 C   0  0  0  0  0  0
  -27.1707  -28.3745   20.6836 C   0  0  0  0  0  0
  -25.8379  -26.8677   19.3589 C   0  0  0  0  0  0
  -24.7576  -27.7421   19.4094 C   0  0  0  0  0  0
  -23.6542  -29.8691   20.1612 C   0  0  0  0  0  0
  -25.4137  -36.3033   24.0314 C   0  0  1  0  0  0
  -20.5937  -28.3733   23.1220 C   0  0  2  0  0  0
  -20.6811  -26.9442   22.5382 C   0  0  0  0  0  0
  -19.5766  -26.6387   21.5210 C   0  0  0  0  0  0
  -18.1956  -26.7933   22.1634 C   0  0  0  0  0  0
  -19.1578  -28.8883   23.2846 C   0  0  0  0  0  0
  -18.9482  -30.1479   23.8870 C   0  0  0  0  0  0
  -17.6477  -30.6586   24.0565 C   0  0  0  0  0  0
  -25.9103  -34.9408   23.5063 C   0  0  0  0  0  0
  -16.5372  -29.9079   23.6338 C   0  0  0  0  0  0
  -16.7302  -28.6500   23.0359 C   0  0  0  0  0  0
  -26.4564  -31.6569   25.0783 C   0  0  0  0  0  0
  -25.3711  -31.3784   26.1449 C   0  0  0  0  0  0
  -27.0432  -30.2944   24.6438 C   0  0  0  0  0  0
  -27.6091  -32.4346   25.7556 C   0  0  0  0  0  0
  -27.5582  -37.1790   24.8462 C   0  0  0  0  0  0
  -21.4277  -29.3076   22.3605 N   0  0  0  0  0  0
  -26.4294  -37.3748   23.9401 N   0  0  0  0  0  0
  -24.7290  -31.0274   22.1060 N   0  0  0  0  0  0
  -23.4236  -28.8113   23.3000 O   0  0  0  0  0  0
  -27.9506  -25.9262   20.0043 O   0  0  0  0  0  0
  -26.5669  -34.8897   22.4631 O   0  0  0  0  0  0
  -23.5649  -32.1417   23.7141 O   0  0  0  0  0  0
  -26.1189  -14.1969   18.0329 C   0  0  0  0  0  0
  -26.6385  -12.6826   18.3068 C   0  0  0  0  0  0
  -26.8746  -15.5869   18.2389 C   0  0  0  0  0  0
  -29.1658  -14.3702   19.0308 C   0  0  0  0  0  0
  -28.1801  -12.4532   18.9069 C   0  0  0  0  0  0
  -28.3175  -15.6436   18.6636 C   0  0  0  0  0  0
  -25.7606  -11.5162   17.8794 C   0  0  0  0  0  0
  -26.2585  -17.1101   17.9615 C   0  0  0  0  0  0
  -30.5586  -14.9977   19.2661 C   0  0  0  0  0  0
  -26.3138  -18.5578   18.8994 C   0  0  0  0  0  0
  -27.2723  -19.9705   18.7928 C   0  0  0  0  0  0
  -26.8528  -21.5572   19.2492 C   0  0  0  0  0  0
  -27.8620  -22.9029   19.5470 C   0  0  0  0  0  0
  -27.3363  -24.5142   19.6011 C   0  0  0  0  0  0
  -30.6502  -15.0460   20.6937 N   0  0  0  0  0  0
  -28.4513  -10.7419   19.2833 Cl  0  0  0  0  0  0
  -28.9665  -17.2608   18.7278 Cl  0  0  0  0  0  0
  -31.7763  -12.4717   18.9313 H   0  0  0  0  0  0
  -30.8306  -11.2098   19.1248 H   0  0  0  0  0  0
  -29.9270  -11.8312   16.8020 H   0  0  0  0  0  0
  -30.7664  -13.3094   16.8341 H   0  0  0  0  0  0
  -27.7857  -13.1466   16.3583 H   0  0  0  0  0  0
  -28.5813  -14.6087   16.5449 H   0  0  0  0  0  0
  -27.3556  -14.9707   20.6821 H   0  0  0  0  0  0
  -28.3618  -12.2367   21.6143 H   0  0  0  0  0  0
  -28.8091  -13.7849   22.1231 H   0  0  0  0  0  0
  -25.2833   -9.5895   22.5118 H   0  0  0  0  0  0
  -24.0192   -7.4728   22.7461 H   0  0  0  0  0  0
  -21.1233   -8.8954   19.8825 H   0  0  0  0  0  0
  -22.4002  -10.9909   19.6353 H   0  0  0  0  0  0
  -21.2109   -7.6209   23.9698 H   0  0  0  0  0  0
  -21.1497   -6.0564   25.9042 H   0  0  0  0  0  0
  -22.0562   -2.7654   23.2792 H   0  0  0  0  0  0
  -22.2874  -11.9631   22.5252 H   0  0  0  0  0  0
  -20.9308  -13.0169   22.2498 H   0  0  0  0  0  0
  -24.1326  -15.8781   20.5227 H   0  0  0  0  0  0
  -25.7902  -15.8423   20.1939 H   0  0  0  0  0  0
  -26.7352  -32.5216   23.1016 H   0  0  0  0  0  0
  -25.0161  -33.9635   25.0357 H   0  0  0  0  0  0
  -22.7502  -31.3242   21.4287 H   0  0  0  0  0  0
  -23.3775  -35.9566   23.3278 H   0  0  0  0  0  0
  -24.3595  -36.8901   22.2058 H   0  0  0  0  0  0
  -23.7238  -37.6432   23.6688 H   0  0  0  0  0  0
  -26.2075  -31.4439   20.6547 H   0  0  0  0  0  0
  -26.8799  -30.6983   22.0667 H   0  0  0  0  0  0
  -28.0839  -28.6260   21.2041 H   0  0  0  0  0  0
  -25.6063  -25.9942   18.7776 H   0  0  0  0  0  0
  -23.8437  -27.4735   18.8976 H   0  0  0  0  0  0
  -23.8117  -30.6659   19.4336 H   0  0  0  0  0  0
  -22.7528  -29.3481   19.8346 H   0  0  0  0  0  0
  -25.1321  -36.1874   25.0806 H   0  0  0  0  0  0
  -21.0031  -28.3308   24.1340 H   0  0  0  0  0  0
  -20.5732  -26.2354   23.3606 H   0  0  0  0  0  0
  -21.6672  -26.7464   22.1160 H   0  0  0  0  0  0
  -19.6931  -25.6295   21.1252 H   0  0  0  0  0  0
  -19.6679  -27.3188   20.6729 H   0  0  0  0  0  0
  -17.4223  -26.6686   21.4040 H   0  0  0  0  0  0
  -18.0349  -26.0083   22.9035 H   0  0  0  0  0  0
  -19.7956  -30.7309   24.2222 H   0  0  0  0  0  0
  -17.5024  -31.6258   24.5174 H   0  0  0  0  0  0
  -15.5366  -30.2964   23.7667 H   0  0  0  0  0  0
  -15.8709  -28.0798   22.7084 H   0  0  0  0  0  0
  -24.5913  -30.7111   25.7757 H   0  0  0  0  0  0
  -24.8875  -32.2971   26.4781 H   0  0  0  0  0  0
  -25.7956  -30.9014   27.0293 H   0  0  0  0  0  0
  -26.3074  -29.6649   24.1417 H   0  0  0  0  0  0
  -27.3960  -29.7277   25.5066 H   0  0  0  0  0  0
  -27.9028  -30.4149   23.9844 H   0  0  0  0  0  0
  -27.2693  -33.3686   26.2046 H   0  0  0  0  0  0
  -28.3925  -32.6845   25.0388 H   0  0  0  0  0  0
  -28.0728  -31.8533   26.5537 H   0  0  0  0  0  0
  -28.2581  -38.0104   24.7520 H   0  0  0  0  0  0
  -28.1099  -36.2633   24.6281 H   0  0  0  0  0  0
  -27.2296  -37.1417   25.8863 H   0  0  0  0  0  0
  -20.9478  -29.8849   21.6841 H   0  0  0  0  0  0
  -26.0161  -38.2815   24.1397 H   0  0  0  0  0  0
  -25.1092  -14.2768   17.6560 H   0  0  0  0  0  0
  -24.7162  -11.8210   17.8218 H   0  0  0  0  0  0
  -25.8244  -10.6712   18.5637 H   0  0  0  0  0  0
  -26.0680  -11.1691   16.8933 H   0  0  0  0  0  0
  -25.1953  -16.9114   17.8258 H   0  0  0  0  0  0
  -26.5915  -17.3777   16.9583 H   0  0  0  0  0  0
  -30.8554  -15.9665   18.9007 H   0  0  0  0  0  0
  -31.3512  -14.5367   18.6741 H   0  0  0  0  0  0
  -26.2642  -18.2674   19.9494 H   0  0  0  0  0  0
  -25.3220  -18.9728   18.7187 H   0  0  0  0  0  0
  -27.6143  -20.0336   17.7599 H   0  0  0  0  0  0
  -28.1790  -19.7571   19.3587 H   0  0  0  0  0  0
  -26.2445  -21.4540   20.1484 H   0  0  0  0  0  0
  -26.1408  -21.8899   18.4920 H   0  0  0  0  0  0
  -28.6618  -22.8664   18.8068 H   0  0  0  0  0  0
  -28.3629  -22.7069   20.4956 H   0  0  0  0  0  0
  -26.4086  -24.4453   20.1707 H   0  0  0  0  0  0
  -27.0646  -24.6385   18.5537 H   0  0  0  0  0  0
  -31.2036  -15.8132   21.0444 H   0  0  0  0  0  0
  1 25  1  0  0  0
  1 30  2  0  0  0
  1 85  1  0  0  0
  2  3  1  0  0  0
  2 25  1  0  0  0
  2 88  1  0  0  0
  2 89  1  0  0  0
  3  4  1  0  0  0
  3 90  1  0  0  0
  3 91  1  0  0  0
  4  5  1  0  0  0
  4 92  1  0  0  0
  4 93  1  0  0  0
  5  6  1  0  0  0
  5 26  1  0  0  0
  5 94  1  0  0  0
  6 25  1  0  0  0
  6 95  1  0  0  0
  6 96  1  0  0  0
  7  8  2  0  0  0
  7 26  1  0  0  0
  7 29  1  0  0  0
  8  9  1  0  0  0
  8 22  1  0  0  0
  9 10  1  0  0  0
  9 27  2  0  0  0
 10 11  2  0  0  0
 10 15  1  0  0  0
 11 12  1  0  0  0
 11 97  1  0  0  0
 12 13  2  0  0  0
 12 98  1  0  0  0
 13 14  1  0  0  0
 13 31  1  0  0  0
 14 15  2  0  0  0
 14 99  1  0  0  0
 15100  1  0  0  0
 16 17  2  0  0  0
 16 21  1  0  0  0
 16 31  1  0  0  0
 17 18  1  0  0  0
 17101  1  0  0  0
 18 19  2  0  0  0
 18102  1  0  0  0
 19 20  1  0  0  0
 19 24  1  0  0  0
 20 21  2  0  0  0
 20103  1  0  0  0
 21 23  1  0  0  0
 22 28  1  0  0  0
 22 32  2  0  0  0
 26 27  1  0  0  0
 28104  1  0  0  0
 28105  1  0  0  0
 29106  1  0  0  0
 29107  1  0  0  0
 33 34  1  0  0  0
 33 66  1  0  0  0
 33 70  2  0  0  0
 34 36  1  0  0  0
 34 59  1  0  0  0
 34108  1  0  0  0
 35 44  2  0  0  0
 35 45  1  0  0  0
 35 68  1  0  0  0
 36 56  1  0  0  0
 36109  1  0  0  0
 37 39  1  0  0  0
 37 47  1  0  0  0
 37 66  1  0  0  0
 37110  1  0  0  0
 38 43  2  0  0  0
 38 46  1  0  0  0
 38 47  1  0  0  0
 39 64  1  0  0  0
 39 67  2  0  0  0
 40 52  1  0  0  0
 40 53  2  0  0  0
 40 58  1  0  0  0
 41111  1  0  0  0
 41112  1  0  0  0
 41113  1  0  0  0
 41 48  1  0  0  0
 42 43  1  0  0  0
 42 66  1  0  0  0
 42114  1  0  0  0
 42115  1  0  0  0
 43 44  1  0  0  0
 44116  1  0  0  0
 45 46  2  0  0  0
 45117  1  0  0  0
 46118  1  0  0  0
 47119  1  0  0  0
 47120  1  0  0  0
 48 56  1  0  0  0
 48 65  1  0  0  0
 48121  1  0  0  0
 49 50  1  0  0  0
 49 53  1  0  0  0
 49 64  1  0  0  0
 49122  1  0  0  0
 50 51  1  0  0  0
 50123  1  0  0  0
 50124  1  0  0  0
 51 52  1  0  0  0
 51125  1  0  0  0
 51126  1  0  0  0
 52127  1  0  0  0
 52128  1  0  0  0
 53 54  1  0  0  0
 54 55  2  0  0  0
 54129  1  0  0  0
 55 57  1  0  0  0
 55130  1  0  0  0
 56 69  2  0  0  0
 57 58  2  0  0  0
 57131  1  0  0  0
 58132  1  0  0  0
 59 60  1  0  0  0
 59 61  1  0  0  0
 59 62  1  0  0  0
 60133  1  0  0  0
 60134  1  0  0  0
 60135  1  0  0  0
 61136  1  0  0  0
 61137  1  0  0  0
 61138  1  0  0  0
 62139  1  0  0  0
 62140  1  0  0  0
 62141  1  0  0  0
 63 65  1  0  0  0
 63142  1  0  0  0
 63143  1  0  0  0
 63144  1  0  0  0
 64145  1  0  0  0
 65146  1  0  0  0
 68 84  1  0  0  0
 71 72  2  0  0  0
 71 73  1  0  0  0
 71147  1  0  0  0
 72 75  1  0  0  0
 72 77  1  0  0  0
 73 76  2  0  0  0
 73 78  1  0  0  0
 74 75  2  0  0  0
 74 76  1  0  0  0
 74 79  1  0  0  0
 75 86  1  0  0  0
 76 87  1  0  0  0
 77148  1  0  0  0
 77149  1  0  0  0
 77150  1  0  0  0
 78 80  1  0  0  0
 78151  1  0  0  0
 78152  1  0  0  0
 79 85  1  0  0  0
 79153  1  0  0  0
 79154  1  0  0  0
 80 81  1  0  0  0
 80155  1  0  0  0
 80156  1  0  0  0
 81 82  1  0  0  0
 81157  1  0  0  0
 81158  1  0  0  0
 82 83  1  0  0  0
 82159  1  0  0  0
 82160  1  0  0  0
 83 84  1  0  0  0
 83161  1  0  0  0
 83162  1  0  0  0
 84163  1  0  0  0
 84164  1  0  0  0
 85165  1  0  0  0
M  ISO  4   1 100  68 101  84 101  85 100
M  END
> <chiral flag>
0

> <version>
0

> <s_m_source_file>
/data/baiqing/PycharmProjects/Reinvent-master-3.2/result/LINK_invent/BTK/process_docking_weight1_custom_sum_contain_oxygen_bond_distance_aromatic_linkinvent_7_9_3/rearranged_h_0023.sdf

> <i_m_source_file_index>
92

> <r_mmod_Potential_Energy-OPLS-2005>
10355.478515625

> <r_mmod_Stretch_Energy-OPLS-2005>
5861.708984375

> <r_mmod_Bend_Energy-OPLS-2005>
739.869079589844

> <r_mmod_Torsional_Energy-OPLS-2005>
358.555511474609

> <r_mmod_Improper_Torsional_Energy-OPLS-2005>
43.6321067810059

> <r_mmod_Van_der_Waal_Energy-OPLS-2005>
2857.19506835938

> <r_mmod_Electrostatic_Energy-OPLS-2005>
-392.749938964844

> <r_mmod_Solvation_Energy-OPLS-2005>
-182.988876342773

> <b_mmod_Minimization_Converged-OPLS-2005>
0

> <r_mmod_RMS_Derivative-OPLS-2005>
3.06583213806152

$$$$
93
                    3D
 Structure written by MMmdl.
175183  0  0  1  0            999 V2000
  -30.7614  -14.4111   20.6291 C   0  0  0  0  0  0
  -30.4233  -12.2828   19.4330 C   0  0  0  0  0  0
  -29.5061  -12.4866   18.2137 C   0  0  0  0  0  0
  -28.0223  -12.3681   18.6133 C   0  0  0  0  0  0
  -27.6698  -13.2061   19.8729 C   0  0  2  0  0  0
  -28.7053  -12.9855   20.9992 C   0  0  0  0  0  0
  -25.2645  -13.8189   20.5636 C   0  0  0  0  0  0
  -24.1880  -13.0459   20.9143 C   0  0  0  0  0  0
  -24.6438  -11.6921   20.8716 C   0  0  0  0  0  0
  -23.9095  -10.4313   21.0402 C   0  0  0  0  0  0
  -24.3635   -9.4224   21.9184 C   0  0  0  0  0  0
  -23.6275   -8.2267   22.0769 C   0  0  0  0  0  0
  -22.4249   -8.0319   21.3561 C   0  0  0  0  0  0
  -21.9910   -9.0308   20.4656 C   0  0  0  0  0  0
  -22.7265  -10.2169   20.3051 C   0  0  0  0  0  0
  -21.6859   -6.0745   22.5275 C   0  0  0  0  0  0
  -21.4033   -6.5640   23.8219 C   0  0  0  0  0  0
  -21.3655   -5.6793   24.9175 C   0  0  0  0  0  0
  -21.6040   -4.3054   24.7219 C   0  0  0  0  0  0
  -21.8827   -3.8152   23.4343 C   0  0  0  0  0  0
  -21.9200   -4.6977   22.3398 C   0  0  0  0  0  0
  -22.7893  -13.5274   21.1776 C   0  0  0  0  0  0
  -22.1645   -4.2161   21.0972 F   0  0  0  0  0  0
  -21.5631   -3.4525   25.7723 F   0  0  0  0  0  0
  -30.0446  -13.2669   20.4593 N   0  0  0  0  0  0
  -26.3074  -12.9343   20.3311 N   0  0  0  0  0  0
  -25.9364  -11.6509   20.5736 N   0  0  0  0  0  0
  -22.0515  -12.8303   22.0348 N   0  0  0  0  0  0
  -25.4418  -15.1892   20.4008 N   0  0  0  0  0  0
  -31.8362  -14.5958   20.0496 O   0  0  0  0  0  0
  -21.6641   -6.8885   21.4230 O   0  0  0  0  0  0
  -22.3560  -14.5543   20.6582 O   0  0  0  0  0  0
  -24.6097  -31.8665   23.2118 C   0  0  0  0  0  0
  -25.9012  -32.4794   23.8407 C   0  0  1  0  0  0
  -27.2412  -27.4776   20.0841 C   0  0  0  0  0  0
  -25.5872  -33.8604   24.2340 N   0  0  0  0  0  0
  -23.3967  -30.4905   21.5491 C   0  0  2  0  0  0
  -24.8471  -28.9572   20.1136 C   0  0  0  0  0  0
  -22.7375  -29.4659   22.5001 C   0  0  0  0  0  0
  -18.0262  -28.1383   22.8485 C   0  0  0  0  0  0
  -24.1493  -36.7333   23.2640 C   0  0  0  0  0  0
  -25.9225  -30.8451   21.3608 C   0  0  0  0  0  0
  -26.0034  -29.4837   20.7065 C   0  0  0  0  0  0
  -27.2068  -28.7487   20.6904 C   0  0  0  0  0  0
  -26.0763  -26.9519   19.4917 C   0  0  0  0  0  0
  -24.8759  -27.6875   19.5076 C   0  0  0  0  0  0
  -23.6033  -29.8151   20.1663 C   0  0  0  0  0  0
  -25.4086  -36.3089   24.0353 C   0  0  1  0  0  0
  -20.5850  -28.3650   23.1323 C   0  0  2  0  0  0
  -20.6755  -26.9387   22.5407 C   0  0  0  0  0  0
  -19.5733  -26.6370   21.5212 C   0  0  0  0  0  0
  -18.1915  -26.7935   22.1618 C   0  0  0  0  0  0
  -19.1512  -28.8836   23.2907 C   0  0  0  0  0  0
  -18.9447  -30.1447   23.8908 C   0  0  0  0  0  0
  -17.6448  -30.6597   24.0570 C   0  0  0  0  0  0
  -25.9004  -34.9454   23.5136 C   0  0  0  0  0  0
  -16.5335  -29.9094   23.6337 C   0  0  0  0  0  0
  -16.7251  -28.6511   23.0353 C   0  0  0  0  0  0
  -26.4467  -31.6567   25.0715 C   0  0  0  0  0  0
  -25.3763  -31.3644   26.1483 C   0  0  0  0  0  0
  -27.0280  -30.3009   24.6069 C   0  0  0  0  0  0
  -27.6056  -32.4284   25.7471 C   0  0  0  0  0  0
  -27.5583  -37.1814   24.8458 C   0  0  0  0  0  0
  -21.4102  -29.3036   22.3749 N   0  0  0  0  0  0
  -26.4281  -37.3773   23.9416 N   0  0  0  0  0  0
  -24.6615  -31.0819   22.0988 N   0  0  0  0  0  0
  -23.4163  -28.8179   23.3011 O   0  0  0  0  0  0
  -28.3940  -26.7373   20.0748 O   0  0  0  0  0  0
  -26.5570  -34.8894   22.4707 O   0  0  0  0  0  0
  -23.5308  -32.1408   23.7535 O   0  0  0  0  0  0
  -30.5030  -20.3573   20.6437 C   0  0  0  0  0  0
  -29.6649  -19.2880   21.0542 C   0  0  0  0  0  0
  -29.6689  -21.4080   20.3583 C   0  0  0  0  0  0
  -28.3530  -19.6682   21.0088 C   0  0  0  0  0  0
  -32.0105  -20.3411   20.5508 C   0  0  0  0  0  0
  -27.1070  -18.9196   21.3868 C   0  0  0  0  0  0
  -32.4470  -25.4342   21.1562 C   0  0  0  0  0  0
  -29.8770  -16.9194   19.2934 C   0  0  0  0  0  0
  -27.1686  -21.7944   20.2546 C   0  0  0  0  0  0
  -30.0274  -22.8172   19.9610 C   0  0  0  0  0  0
  -30.2726  -15.5641   21.5347 C   0  0  0  0  0  0
  -30.7147  -23.5785   21.1125 C   0  0  0  0  0  0
  -30.0547  -25.9962   21.6829 C   0  0  0  0  0  0
  -28.5760  -25.9848   21.2718 C   0  0  0  0  0  0
  -30.9798  -25.0843   20.8463 C   0  0  1  0  0  0
  -29.6712  -16.8276   20.8251 C   0  0  1  0  0  0
  -28.3491  -20.9774   20.5276 N   0  0  0  0  0  0
  -30.1659  -18.0479   21.4719 N   0  0  0  0  0  0
  -31.4698  -12.3654   19.1324 H   0  0  0  0  0  0
  -30.3165  -11.2725   19.8299 H   0  0  0  0  0  0
  -29.7447  -11.7514   17.4449 H   0  0  0  0  0  0
  -29.6983  -13.4669   17.7777 H   0  0  0  0  0  0
  -27.8146  -11.3125   18.7939 H   0  0  0  0  0  0
  -27.3861  -12.6586   17.7770 H   0  0  0  0  0  0
  -27.7195  -14.2553   19.5774 H   0  0  0  0  0  0
  -28.6670  -11.9542   21.3523 H   0  0  0  0  0  0
  -28.4485  -13.5877   21.8680 H   0  0  0  0  0  0
  -25.2782   -9.5689   22.4768 H   0  0  0  0  0  0
  -23.9988   -7.4654   22.7493 H   0  0  0  0  0  0
  -21.0850   -8.8854   19.8937 H   0  0  0  0  0  0
  -22.3747  -10.9730   19.6166 H   0  0  0  0  0  0
  -21.2029   -7.6145   23.9730 H   0  0  0  0  0  0
  -21.1456   -6.0508   25.9080 H   0  0  0  0  0  0
  -22.0607   -2.7611   23.2842 H   0  0  0  0  0  0
  -22.4042  -11.9911   22.4719 H   0  0  0  0  0  0
  -21.1159  -13.1425   22.2548 H   0  0  0  0  0  0
  -24.6888  -15.8586   20.5117 H   0  0  0  0  0  0
  -26.3022  -15.6140   20.0810 H   0  0  0  0  0  0
  -26.7085  -32.5524   23.1176 H   0  0  0  0  0  0
  -25.0063  -33.9761   25.0530 H   0  0  0  0  0  0
  -22.6846  -31.3056   21.4084 H   0  0  0  0  0  0
  -23.3705  -35.9716   23.3277 H   0  0  0  0  0  0
  -24.3616  -36.8958   22.2063 H   0  0  0  0  0  0
  -23.7287  -37.6554   23.6658 H   0  0  0  0  0  0
  -26.0401  -31.6159   20.5973 H   0  0  0  0  0  0
  -26.8069  -30.8906   21.9828 H   0  0  0  0  0  0
  -28.1025  -29.1531   21.1430 H   0  0  0  0  0  0
  -26.1017  -25.9771   19.0246 H   0  0  0  0  0  0
  -23.9870  -27.2750   19.0524 H   0  0  0  0  0  0
  -23.6999  -30.5823   19.3979 H   0  0  0  0  0  0
  -22.7310  -29.2223   19.8823 H   0  0  0  0  0  0
  -25.1273  -36.1944   25.0845 H   0  0  0  0  0  0
  -20.9964  -28.3209   24.1434 H   0  0  0  0  0  0
  -20.5663  -26.2256   23.3596 H   0  0  0  0  0  0
  -21.6635  -26.7449   22.1199 H   0  0  0  0  0  0
  -19.6883  -25.6272   21.1261 H   0  0  0  0  0  0
  -19.6685  -27.3178   20.6746 H   0  0  0  0  0  0
  -17.4190  -26.6694   21.4010 H   0  0  0  0  0  0
  -18.0292  -26.0086   22.9014 H   0  0  0  0  0  0
  -19.7923  -30.7267   24.2281 H   0  0  0  0  0  0
  -17.5004  -31.6283   24.5146 H   0  0  0  0  0  0
  -15.5334  -30.2999   23.7666 H   0  0  0  0  0  0
  -15.8649  -28.0840   22.7062 H   0  0  0  0  0  0
  -24.5943  -30.6984   25.7817 H   0  0  0  0  0  0
  -24.8972  -32.2798   26.4978 H   0  0  0  0  0  0
  -25.8164  -30.8783   27.0205 H   0  0  0  0  0  0
  -26.2804  -29.6754   24.1171 H   0  0  0  0  0  0
  -27.4105  -29.7243   25.4501 H   0  0  0  0  0  0
  -27.8629  -30.4313   23.9171 H   0  0  0  0  0  0
  -27.2677  -33.3561   26.2099 H   0  0  0  0  0  0
  -28.3837  -32.6872   25.0278 H   0  0  0  0  0  0
  -28.0753  -31.8380   26.5343 H   0  0  0  0  0  0
  -28.2562  -38.0141   24.7489 H   0  0  0  0  0  0
  -28.1103  -36.2670   24.6274 H   0  0  0  0  0  0
  -27.2321  -37.1463   25.8863 H   0  0  0  0  0  0
  -20.9242  -29.8765   21.6997 H   0  0  0  0  0  0
  -26.0144  -38.2840   24.1411 H   0  0  0  0  0  0
  -32.3496  -19.4381   20.0437 H   0  0  0  0  0  0
  -32.4592  -20.3729   21.5430 H   0  0  0  0  0  0
  -32.3793  -21.1952   19.9846 H   0  0  0  0  0  0
  -26.7633  -18.2826   20.5722 H   0  0  0  0  0  0
  -26.2904  -19.5786   21.6750 H   0  0  0  0  0  0
  -27.3034  -18.2791   22.2472 H   0  0  0  0  0  0
  -33.1407  -24.8453   20.5537 H   0  0  0  0  0  0
  -32.6809  -25.2486   22.2059 H   0  0  0  0  0  0
  -32.6561  -26.4872   20.9582 H   0  0  0  0  0  0
  -29.5500  -16.0161   18.7825 H   0  0  0  0  0  0
  -30.9189  -17.0986   19.0284 H   0  0  0  0  0  0
  -29.2891  -17.7311   18.8630 H   0  0  0  0  0  0
  -27.0692  -22.5706   21.0132 H   0  0  0  0  0  0
  -26.2585  -21.1959   20.2331 H   0  0  0  0  0  0
  -27.2581  -22.2660   19.2755 H   0  0  0  0  0  0
  -29.1552  -23.3748   19.6268 H   0  0  0  0  0  0
  -30.6911  -22.7944   19.0950 H   0  0  0  0  0  0
  -29.6180  -15.2273   22.3341 H   0  0  0  0  0  0
  -31.1731  -15.8652   22.0729 H   0  0  0  0  0  0
  -31.6545  -23.0716   21.3413 H   0  0  0  0  0  0
  -30.1141  -23.4623   22.0146 H   0  0  0  0  0  0
  -30.1260  -25.7055   22.7318 H   0  0  0  0  0  0
  -30.4109  -27.0267   21.6472 H   0  0  0  0  0  0
  -27.9908  -26.3966   22.0965 H   0  0  0  0  0  0
  -28.2139  -24.9680   21.1235 H   0  0  0  0  0  0
  -30.8148  -25.3069   19.7892 H   0  0  0  0  0  0
  -28.5958  -16.7723   20.9839 H   0  0  0  0  0  0
  -31.1768  -18.0654   21.5659 H   0  0  0  0  0  0
  1 25  1  0  0  0
  1 30  2  0  0  0
  1 81  1  0  0  0
  2  3  1  0  0  0
  2 25  1  0  0  0
  2 89  1  0  0  0
  2 90  1  0  0  0
  3  4  1  0  0  0
  3 91  1  0  0  0
  3 92  1  0  0  0
  4  5  1  0  0  0
  4 93  1  0  0  0
  4 94  1  0  0  0
  5  6  1  0  0  0
  5 26  1  0  0  0
  5 95  1  0  0  0
  6 25  1  0  0  0
  6 96  1  0  0  0
  6 97  1  0  0  0
  7  8  2  0  0  0
  7 26  1  0  0  0
  7 29  1  0  0  0
  8  9  1  0  0  0
  8 22  1  0  0  0
  9 10  1  0  0  0
  9 27  2  0  0  0
 10 11  2  0  0  0
 10 15  1  0  0  0
 11 12  1  0  0  0
 11 98  1  0  0  0
 12 13  2  0  0  0
 12 99  1  0  0  0
 13 14  1  0  0  0
 13 31  1  0  0  0
 14 15  2  0  0  0
 14100  1  0  0  0
 15101  1  0  0  0
 16 17  2  0  0  0
 16 21  1  0  0  0
 16 31  1  0  0  0
 17 18  1  0  0  0
 17102  1  0  0  0
 18 19  2  0  0  0
 18103  1  0  0  0
 19 20  1  0  0  0
 19 24  1  0  0  0
 20 21  2  0  0  0
 20104  1  0  0  0
 21 23  1  0  0  0
 22 28  1  0  0  0
 22 32  2  0  0  0
 26 27  1  0  0  0
 28105  1  0  0  0
 28106  1  0  0  0
 29107  1  0  0  0
 29108  1  0  0  0
 33 34  1  0  0  0
 33 66  1  0  0  0
 33 70  2  0  0  0
 34 36  1  0  0  0
 34 59  1  0  0  0
 34109  1  0  0  0
 35 44  2  0  0  0
 35 45  1  0  0  0
 35 68  1  0  0  0
 36 56  1  0  0  0
 36110  1  0  0  0
 37 39  1  0  0  0
 37 47  1  0  0  0
 37 66  1  0  0  0
 37111  1  0  0  0
 38 43  2  0  0  0
 38 46  1  0  0  0
 38 47  1  0  0  0
 39 64  1  0  0  0
 39 67  2  0  0  0
 40 52  1  0  0  0
 40 53  2  0  0  0
 40 58  1  0  0  0
 41112  1  0  0  0
 41113  1  0  0  0
 41114  1  0  0  0
 41 48  1  0  0  0
 42 43  1  0  0  0
 42 66  1  0  0  0
 42115  1  0  0  0
 42116  1  0  0  0
 43 44  1  0  0  0
 44117  1  0  0  0
 45 46  2  0  0  0
 45118  1  0  0  0
 46119  1  0  0  0
 47120  1  0  0  0
 47121  1  0  0  0
 48 56  1  0  0  0
 48 65  1  0  0  0
 48122  1  0  0  0
 49 50  1  0  0  0
 49 53  1  0  0  0
 49 64  1  0  0  0
 49123  1  0  0  0
 50 51  1  0  0  0
 50124  1  0  0  0
 50125  1  0  0  0
 51 52  1  0  0  0
 51126  1  0  0  0
 51127  1  0  0  0
 52128  1  0  0  0
 52129  1  0  0  0
 53 54  1  0  0  0
 54 55  2  0  0  0
 54130  1  0  0  0
 55 57  1  0  0  0
 55131  1  0  0  0
 56 69  2  0  0  0
 57 58  2  0  0  0
 57132  1  0  0  0
 58133  1  0  0  0
 59 60  1  0  0  0
 59 61  1  0  0  0
 59 62  1  0  0  0
 60134  1  0  0  0
 60135  1  0  0  0
 60136  1  0  0  0
 61137  1  0  0  0
 61138  1  0  0  0
 61139  1  0  0  0
 62140  1  0  0  0
 62141  1  0  0  0
 62142  1  0  0  0
 63 65  1  0  0  0
 63143  1  0  0  0
 63144  1  0  0  0
 63145  1  0  0  0
 64146  1  0  0  0
 65147  1  0  0  0
 68 84  1  0  0  0
 71 72  1  0  0  0
 71 73  2  0  0  0
 71 75  1  0  0  0
 72 74  2  0  0  0
 72 88  1  0  0  0
 73 80  1  0  0  0
 73 87  1  0  0  0
 74 76  1  0  0  0
 74 87  1  0  0  0
 75148  1  0  0  0
 75149  1  0  0  0
 75150  1  0  0  0
 76151  1  0  0  0
 76152  1  0  0  0
 76153  1  0  0  0
 77154  1  0  0  0
 77155  1  0  0  0
 77156  1  0  0  0
 77 85  1  0  0  0
 78157  1  0  0  0
 78158  1  0  0  0
 78159  1  0  0  0
 78 86  1  0  0  0
 79 87  1  0  0  0
 79160  1  0  0  0
 79161  1  0  0  0
 79162  1  0  0  0
 80 82  1  0  0  0
 80163  1  0  0  0
 80164  1  0  0  0
 81 86  1  0  0  0
 81165  1  0  0  0
 81166  1  0  0  0
 82 85  1  0  0  0
 82167  1  0  0  0
 82168  1  0  0  0
 83 84  1  0  0  0
 83 85  1  0  0  0
 83169  1  0  0  0
 83170  1  0  0  0
 84171  1  0  0  0
 84172  1  0  0  0
 85173  1  0  0  0
 86 88  1  0  0  0
 86174  1  0  0  0
 88175  1  0  0  0
M  ISO  4   1 100  68 101  81 100  84 101
M  END
> <chiral flag>
0

> <version>
0

> <s_m_source_file>
/data/baiqing/PycharmProjects/Reinvent-master-3.2/result/LINK_invent/BTK/process_docking_weight1_custom_sum_contain_oxygen_bond_distance_aromatic_linkinvent_7_9_3/rearranged_h_0023.sdf

> <i_m_source_file_index>
93

> <r_mmod_Potential_Energy-OPLS-2005>
-59.4666519165039

> <r_mmod_Stretch_Energy-OPLS-2005>
36.4637145996094

> <r_mmod_Bend_Energy-OPLS-2005>
115.063957214355

> <r_mmod_Torsional_Energy-OPLS-2005>
228.309967041016

> <r_mmod_Improper_Torsional_Energy-OPLS-2005>
6.08517169952393

> <r_mmod_Van_der_Waal_Energy-OPLS-2005>
124.858978271484

> <r_mmod_Electrostatic_Energy-OPLS-2005>
-383.843322753906

> <r_mmod_Solvation_Energy-OPLS-2005>
-195.098983764648

> <b_mmod_Minimization_Converged-OPLS-2005>
0

> <r_mmod_RMS_Derivative-OPLS-2005>
3.45791006088257

$$$$
94
                    3D
 Structure written by MMmdl.
189197  0  0  1  0            999 V2000
  -30.7522  -14.4079   20.6185 C   0  0  0  0  0  0
  -30.4095  -12.2887   19.4029 C   0  0  0  0  0  0
  -29.4797  -12.5169   18.1972 C   0  0  0  0  0  0
  -28.0049  -12.3707   18.6162 C   0  0  0  0  0  0
  -27.6614  -13.1975   19.8822 C   0  0  2  0  0  0
  -28.7067  -12.9621   20.9975 C   0  0  0  0  0  0
  -25.2579  -13.8150   20.5695 C   0  0  0  0  0  0
  -24.1823  -13.0424   20.9210 C   0  0  0  0  0  0
  -24.6368  -11.6900   20.8753 C   0  0  0  0  0  0
  -23.9041  -10.4286   21.0407 C   0  0  0  0  0  0
  -24.3596   -9.4205   21.9188 C   0  0  0  0  0  0
  -23.6269   -8.2237   22.0761 C   0  0  0  0  0  0
  -22.4254   -8.0269   21.3554 C   0  0  0  0  0  0
  -21.9895   -9.0244   20.4655 C   0  0  0  0  0  0
  -22.7217  -10.2125   20.3058 C   0  0  0  0  0  0
  -21.6841   -6.0726   22.5276 C   0  0  0  0  0  0
  -21.4012   -6.5639   23.8211 C   0  0  0  0  0  0
  -21.3661   -5.6797   24.9176 C   0  0  0  0  0  0
  -21.6045   -4.3055   24.7223 C   0  0  0  0  0  0
  -21.8819   -3.8145   23.4345 C   0  0  0  0  0  0
  -21.9187   -4.6961   22.3398 C   0  0  0  0  0  0
  -22.7851  -13.5224   21.1850 C   0  0  0  0  0  0
  -22.1654   -4.2144   21.0973 F   0  0  0  0  0  0
  -21.5633   -3.4545   25.7738 F   0  0  0  0  0  0
  -30.0400  -13.2586   20.4457 N   0  0  0  0  0  0
  -26.3017  -12.9302   20.3431 N   0  0  0  0  0  0
  -25.9293  -11.6476   20.5814 N   0  0  0  0  0  0
  -22.0477  -12.8219   22.0414 N   0  0  0  0  0  0
  -25.4279  -15.1859   20.4082 N   0  0  0  0  0  0
  -31.8055  -14.6130   20.0221 O   0  0  0  0  0  0
  -21.6621   -6.8864   21.4234 O   0  0  0  0  0  0
  -22.3552  -14.5523   20.6690 O   0  0  0  0  0  0
  -24.6115  -31.8679   23.2128 C   0  0  0  0  0  0
  -25.9015  -32.4839   23.8421 C   0  0  1  0  0  0
  -27.2341  -27.4420   20.0810 C   0  0  0  0  0  0
  -25.5874  -33.8643   24.2333 N   0  0  0  0  0  0
  -23.3988  -30.4927   21.5514 C   0  0  2  0  0  0
  -24.8441  -28.9594   20.1168 C   0  0  0  0  0  0
  -22.7395  -29.4674   22.5014 C   0  0  0  0  0  0
  -18.0288  -28.1381   22.8528 C   0  0  0  0  0  0
  -24.1495  -36.7328   23.2637 C   0  0  0  0  0  0
  -25.9257  -30.8362   21.3659 C   0  0  0  0  0  0
  -26.0030  -29.4697   20.7136 C   0  0  0  0  0  0
  -27.1957  -28.7141   20.6991 C   0  0  0  0  0  0
  -26.0450  -26.9386   19.5021 C   0  0  0  0  0  0
  -24.8580  -27.6923   19.5126 C   0  0  0  0  0  0
  -23.6044  -29.8181   20.1697 C   0  0  0  0  0  0
  -25.4124  -36.3123   24.0313 C   0  0  1  0  0  0
  -20.5871  -28.3664   23.1335 C   0  0  2  0  0  0
  -20.6770  -26.9400   22.5426 C   0  0  0  0  0  0
  -19.5733  -26.6378   21.5243 C   0  0  0  0  0  0
  -18.1921  -26.7939   22.1648 C   0  0  0  0  0  0
  -19.1537  -28.8845   23.2925 C   0  0  0  0  0  0
  -18.9463  -30.1460   23.8920 C   0  0  0  0  0  0
  -17.6458  -30.6593   24.0573 C   0  0  0  0  0  0
  -25.9021  -34.9478   23.5107 C   0  0  0  0  0  0
  -16.5353  -29.9083   23.6344 C   0  0  0  0  0  0
  -16.7272  -28.6494   23.0373 C   0  0  0  0  0  0
  -26.4463  -31.6634   25.0746 C   0  0  0  0  0  0
  -25.3700  -31.3701   26.1465 C   0  0  0  0  0  0
  -27.0341  -30.3089   24.6130 C   0  0  0  0  0  0
  -27.6058  -32.4350   25.7489 C   0  0  0  0  0  0
  -27.5584  -37.1802   24.8463 C   0  0  0  0  0  0
  -21.4126  -29.3034   22.3736 N   0  0  0  0  0  0
  -26.4322  -37.3788   23.9378 N   0  0  0  0  0  0
  -24.6637  -31.0782   22.1024 N   0  0  0  0  0  0
  -23.4174  -28.8212   23.3057 O   0  0  0  0  0  0
  -28.4351  -26.7583   20.0707 O   0  0  0  0  0  0
  -26.5591  -34.8911   22.4672 O   0  0  0  0  0  0
  -23.5290  -32.1440   23.7502 O   0  0  0  0  0  0
  -31.3024  -18.7646   21.6978 C   0  0  0  0  0  0
  -32.7465  -18.6534   19.3274 C   0  0  0  0  0  0
  -32.1551  -17.6418   21.5081 C   0  0  0  0  0  0
  -31.8700  -19.7281   19.5375 C   0  0  0  0  0  0
  -31.1637  -19.7926   20.7481 C   0  0  0  0  0  0
  -32.9230  -17.6370   20.2883 C   0  0  0  0  0  0
  -29.1199  -24.1258   21.4124 C   0  0  0  0  0  0
  -26.7491  -23.0668   18.4526 C   0  0  0  0  0  0
  -33.4817  -15.6983   22.6157 C   0  0  0  0  0  0
  -32.4680  -17.3554   24.0067 C   0  0  0  0  0  0
  -29.7879  -16.3194   23.7074 C   0  0  0  0  0  0
  -31.1718  -14.3347   23.5435 C   0  0  0  0  0  0
  -29.1639  -16.1794   20.9546 C   0  0  0  0  0  0
  -31.7531  -20.8233   18.4886 C   0  0  0  0  0  0
  -30.4939  -20.7355   17.5990 C   0  0  0  0  0  0
  -29.1554  -21.1133   18.2703 C   0  0  0  0  0  0
  -28.5494  -25.5150   19.3664 C   0  0  0  0  0  0
  -28.1351  -24.3019   20.2396 C   0  0  1  0  0  0
  -27.9205  -22.9702   19.4532 C   0  0  2  0  0  0
  -32.2080  -16.5883   22.6750 C   0  0  0  0  0  0
  -30.8766  -15.6728   22.7952 C   0  0  0  0  0  0
  -30.2396  -15.3174   21.4831 N   0  0  0  0  0  0
  -29.1758  -22.4924   18.8146 N   0  3  0  0  0  0
  -30.3479  -20.8460   20.9998 F   0  0  0  0  0  0
  -34.1529  -16.5022   19.8424 Cl  0  0  0  0  0  0
  -31.4529  -12.3746   19.0938 H   0  0  0  0  0  0
  -30.2993  -11.2735   19.7870 H   0  0  0  0  0  0
  -29.7127  -11.8103   17.4002 H   0  0  0  0  0  0
  -29.6484  -13.5128   17.7839 H   0  0  0  0  0  0
  -27.8140  -11.3136   18.8018 H   0  0  0  0  0  0
  -27.3470  -12.6535   17.7940 H   0  0  0  0  0  0
  -27.7050  -14.2436   19.5881 H   0  0  0  0  0  0
  -28.6774  -11.9249   21.3354 H   0  0  0  0  0  0
  -28.4714  -13.5559   21.8803 H   0  0  0  0  0  0
  -25.2730   -9.5675   22.4780 H   0  0  0  0  0  0
  -23.9975   -7.4626   22.7483 H   0  0  0  0  0  0
  -21.0837   -8.8764   19.8950 H   0  0  0  0  0  0
  -22.3676  -10.9670   19.6173 H   0  0  0  0  0  0
  -21.2005   -7.6148   23.9714 H   0  0  0  0  0  0
  -21.1490   -6.0525   25.9082 H   0  0  0  0  0  0
  -22.0595   -2.7602   23.2844 H   0  0  0  0  0  0
  -22.4091  -11.9861   22.4771 H   0  0  0  0  0  0
  -21.1097  -13.1271   22.2619 H   0  0  0  0  0  0
  -24.6612  -15.8393   20.5272 H   0  0  0  0  0  0
  -26.2822  -15.6311   20.0995 H   0  0  0  0  0  0
  -26.7091  -32.5531   23.1191 H   0  0  0  0  0  0
  -25.0056  -33.9842   25.0498 H   0  0  0  0  0  0
  -22.6852  -31.3058   21.4078 H   0  0  0  0  0  0
  -23.3762  -35.9656   23.3319 H   0  0  0  0  0  0
  -24.3591  -36.8964   22.2053 H   0  0  0  0  0  0
  -23.7238  -37.6509   23.6681 H   0  0  0  0  0  0
  -26.0266  -31.6020   20.5979 H   0  0  0  0  0  0
  -26.8137  -30.8947   21.9839 H   0  0  0  0  0  0
  -28.0918  -29.1043   21.1632 H   0  0  0  0  0  0
  -26.0014  -25.9677   19.0357 H   0  0  0  0  0  0
  -23.9655  -27.2881   19.0563 H   0  0  0  0  0  0
  -23.6928  -30.5776   19.3925 H   0  0  0  0  0  0
  -22.7329  -29.2203   19.8976 H   0  0  0  0  0  0
  -25.1324  -36.1984   25.0808 H   0  0  0  0  0  0
  -20.9972  -28.3250   24.1443 H   0  0  0  0  0  0
  -20.5753  -26.2256   23.3597 H   0  0  0  0  0  0
  -21.6640  -26.7514   22.1167 H   0  0  0  0  0  0
  -19.6898  -25.6304   21.1233 H   0  0  0  0  0  0
  -19.6675  -27.3221   20.6797 H   0  0  0  0  0  0
  -17.4205  -26.6779   21.4018 H   0  0  0  0  0  0
  -18.0271  -26.0067   22.9017 H   0  0  0  0  0  0
  -19.7941  -30.7283   24.2285 H   0  0  0  0  0  0
  -17.5022  -31.6283   24.5165 H   0  0  0  0  0  0
  -15.5356  -30.2973   23.7676 H   0  0  0  0  0  0
  -15.8678  -28.0806   22.7073 H   0  0  0  0  0  0
  -24.5953  -30.6976   25.7784 H   0  0  0  0  0  0
  -24.8767  -32.2809   26.4845 H   0  0  0  0  0  0
  -25.8033  -30.8927   27.0260 H   0  0  0  0  0  0
  -26.2945  -29.6807   24.1154 H   0  0  0  0  0  0
  -27.4117  -29.7365   25.4614 H   0  0  0  0  0  0
  -27.8754  -30.4493   23.9343 H   0  0  0  0  0  0
  -27.2791  -33.3717   26.2026 H   0  0  0  0  0  0
  -28.3891  -32.6796   25.0301 H   0  0  0  0  0  0
  -28.0701  -31.8462   26.5410 H   0  0  0  0  0  0
  -28.2603  -38.0105   24.7536 H   0  0  0  0  0  0
  -28.1097  -36.2619   24.6336 H   0  0  0  0  0  0
  -27.2253  -37.1497   25.8855 H   0  0  0  0  0  0
  -20.9260  -29.8727   21.6949 H   0  0  0  0  0  0
  -26.0213  -38.2854   24.1416 H   0  0  0  0  0  0
  -30.7185  -18.8711   22.5951 H   0  0  0  0  0  0
  -33.3268  -18.6192   18.4163 H   0  0  0  0  0  0
  -29.1247  -25.0160   22.0436 H   0  0  0  0  0  0
  -30.1414  -23.9741   21.0634 H   0  0  0  0  0  0
  -28.8536  -23.2877   22.0578 H   0  0  0  0  0  0
  -25.8767  -23.5322   18.9133 H   0  0  0  0  0  0
  -26.4250  -22.0821   18.1173 H   0  0  0  0  0  0
  -27.0060  -23.6461   17.5657 H   0  0  0  0  0  0
  -34.3842  -16.3004   22.5025 H   0  0  0  0  0  0
  -33.4646  -14.9610   21.8182 H   0  0  0  0  0  0
  -33.6415  -15.1283   23.5306 H   0  0  0  0  0  0
  -33.3980  -17.9244   23.9570 H   0  0  0  0  0  0
  -32.5599  -16.6754   24.8548 H   0  0  0  0  0  0
  -31.6931  -18.0699   24.2778 H   0  0  0  0  0  0
  -30.1137  -16.3957   24.7453 H   0  0  0  0  0  0
  -28.8794  -15.7152   23.7313 H   0  0  0  0  0  0
  -29.4888  -17.3181   23.3995 H   0  0  0  0  0  0
  -31.5837  -14.5125   24.5367 H   0  0  0  0  0  0
  -31.8704  -13.6788   23.0232 H   0  0  0  0  0  0
  -30.2635  -13.7475   23.6870 H   0  0  0  0  0  0
  -29.3056  -17.2295   21.1842 H   0  0  0  0  0  0
  -28.2020  -15.8849   21.3737 H   0  0  0  0  0  0
  -29.0751  -16.1247   19.8676 H   0  0  0  0  0  0
  -32.6305  -20.7644   17.8430 H   0  0  0  0  0  0
  -31.8303  -21.7968   18.9739 H   0  0  0  0  0  0
  -30.4135  -19.7311   17.1805 H   0  0  0  0  0  0
  -30.6388  -21.3954   16.7421 H   0  0  0  0  0  0
  -28.9074  -20.3978   19.0543 H   0  0  0  0  0  0
  -28.3673  -21.0251   17.5236 H   0  0  0  0  0  0
  -28.0177  -25.5465   18.4167 H   0  0  0  0  0  0
  -29.5972  -25.4052   19.0866 H   0  0  0  0  0  0
  -27.1681  -24.5386   20.6880 H   0  0  0  0  0  0
  -27.6312  -22.2203   20.1909 H   0  0  0  0  0  0
  -29.4496  -23.1253   18.0790 H   0  0  0  0  0  0
  -29.8863  -22.5062   19.5332 H   0  0  0  0  0  0
  1 25  1  0  0  0
  1 30  2  0  0  0
  1 92  1  0  0  0
  2  3  1  0  0  0
  2 25  1  0  0  0
  2 96  1  0  0  0
  2 97  1  0  0  0
  3  4  1  0  0  0
  3 98  1  0  0  0
  3 99  1  0  0  0
  4  5  1  0  0  0
  4100  1  0  0  0
  4101  1  0  0  0
  5  6  1  0  0  0
  5 26  1  0  0  0
  5102  1  0  0  0
  6 25  1  0  0  0
  6103  1  0  0  0
  6104  1  0  0  0
  7  8  2  0  0  0
  7 26  1  0  0  0
  7 29  1  0  0  0
  8  9  1  0  0  0
  8 22  1  0  0  0
  9 10  1  0  0  0
  9 27  2  0  0  0
 10 11  2  0  0  0
 10 15  1  0  0  0
 11 12  1  0  0  0
 11105  1  0  0  0
 12 13  2  0  0  0
 12106  1  0  0  0
 13 14  1  0  0  0
 13 31  1  0  0  0
 14 15  2  0  0  0
 14107  1  0  0  0
 15108  1  0  0  0
 16 17  2  0  0  0
 16 21  1  0  0  0
 16 31  1  0  0  0
 17 18  1  0  0  0
 17109  1  0  0  0
 18 19  2  0  0  0
 18110  1  0  0  0
 19 20  1  0  0  0
 19 24  1  0  0  0
 20 21  2  0  0  0
 20111  1  0  0  0
 21 23  1  0  0  0
 22 28  1  0  0  0
 22 32  2  0  0  0
 26 27  1  0  0  0
 28112  1  0  0  0
 28113  1  0  0  0
 29114  1  0  0  0
 29115  1  0  0  0
 33 34  1  0  0  0
 33 66  1  0  0  0
 33 70  2  0  0  0
 34 36  1  0  0  0
 34 59  1  0  0  0
 34116  1  0  0  0
 35 44  2  0  0  0
 35 45  1  0  0  0
 35 68  1  0  0  0
 36 56  1  0  0  0
 36117  1  0  0  0
 37 39  1  0  0  0
 37 47  1  0  0  0
 37 66  1  0  0  0
 37118  1  0  0  0
 38 43  2  0  0  0
 38 46  1  0  0  0
 38 47  1  0  0  0
 39 64  1  0  0  0
 39 67  2  0  0  0
 40 52  1  0  0  0
 40 53  2  0  0  0
 40 58  1  0  0  0
 41119  1  0  0  0
 41120  1  0  0  0
 41121  1  0  0  0
 41 48  1  0  0  0
 42 43  1  0  0  0
 42 66  1  0  0  0
 42122  1  0  0  0
 42123  1  0  0  0
 43 44  1  0  0  0
 44124  1  0  0  0
 45 46  2  0  0  0
 45125  1  0  0  0
 46126  1  0  0  0
 47127  1  0  0  0
 47128  1  0  0  0
 48 56  1  0  0  0
 48 65  1  0  0  0
 48129  1  0  0  0
 49 50  1  0  0  0
 49 53  1  0  0  0
 49 64  1  0  0  0
 49130  1  0  0  0
 50 51  1  0  0  0
 50131  1  0  0  0
 50132  1  0  0  0
 51 52  1  0  0  0
 51133  1  0  0  0
 51134  1  0  0  0
 52135  1  0  0  0
 52136  1  0  0  0
 53 54  1  0  0  0
 54 55  2  0  0  0
 54137  1  0  0  0
 55 57  1  0  0  0
 55138  1  0  0  0
 56 69  2  0  0  0
 57 58  2  0  0  0
 57139  1  0  0  0
 58140  1  0  0  0
 59 60  1  0  0  0
 59 61  1  0  0  0
 59 62  1  0  0  0
 60141  1  0  0  0
 60142  1  0  0  0
 60143  1  0  0  0
 61144  1  0  0  0
 61145  1  0  0  0
 61146  1  0  0  0
 62147  1  0  0  0
 62148  1  0  0  0
 62149  1  0  0  0
 63 65  1  0  0  0
 63150  1  0  0  0
 63151  1  0  0  0
 63152  1  0  0  0
 64153  1  0  0  0
 65154  1  0  0  0
 68 87  1  0  0  0
 71 73  2  0  0  0
 71 75  1  0  0  0
 71155  1  0  0  0
 72 74  1  0  0  0
 72 76  2  0  0  0
 72156  1  0  0  0
 73 76  1  0  0  0
 73 90  1  0  0  0
 74 75  2  0  0  0
 74 84  1  0  0  0
 75 94  1  0  0  0
 76 95  1  0  0  0
 77157  1  0  0  0
 77158  1  0  0  0
 77159  1  0  0  0
 77 88  1  0  0  0
 78160  1  0  0  0
 78161  1  0  0  0
 78162  1  0  0  0
 78 89  1  0  0  0
 79163  1  0  0  0
 79164  1  0  0  0
 79165  1  0  0  0
 79 90  1  0  0  0
 80 90  1  0  0  0
 80166  1  0  0  0
 80167  1  0  0  0
 80168  1  0  0  0
 81169  1  0  0  0
 81170  1  0  0  0
 81171  1  0  0  0
 81 91  1  0  0  0
 82 91  1  0  0  0
 82172  1  0  0  0
 82173  1  0  0  0
 82174  1  0  0  0
 83 92  1  0  0  0
 83175  1  0  0  0
 83176  1  0  0  0
 83177  1  0  0  0
 84 85  1  0  0  0
 84178  1  0  0  0
 84179  1  0  0  0
 85 86  1  0  0  0
 85180  1  0  0  0
 85181  1  0  0  0
 86 93  1  0  0  0
 86182  1  0  0  0
 86183  1  0  0  0
 87 88  1  0  0  0
 87184  1  0  0  0
 87185  1  0  0  0
 88 89  1  0  0  0
 88186  1  0  0  0
 89 93  1  0  0  0
 89187  1  0  0  0
 90 91  1  0  0  0
 91 92  1  0  0  0
 93188  1  0  0  0
 93189  1  0  0  0
M  CHG  1  93   1
M  ISO  4   1 100  68 101  87 101  92 100
M  END
> <chiral flag>
0

> <version>
0

> <s_m_source_file>
/data/baiqing/PycharmProjects/Reinvent-master-3.2/result/LINK_invent/BTK/process_docking_weight1_custom_sum_contain_oxygen_bond_distance_aromatic_linkinvent_7_9_3/rearranged_h_0023.sdf

> <i_m_source_file_index>
94

> <r_mmod_Potential_Energy-OPLS-2005>
121.827697753906

> <r_mmod_Stretch_Energy-OPLS-2005>
62.924976348877

> <r_mmod_Bend_Energy-OPLS-2005>
154.784637451172

> <r_mmod_Torsional_Energy-OPLS-2005>
358.639373779297

> <r_mmod_Improper_Torsional_Energy-OPLS-2005>
2.41194772720337

> <r_mmod_Van_der_Waal_Energy-OPLS-2005>
188.748580932617

> <r_mmod_Electrostatic_Energy-OPLS-2005>
-247.691558837891

> <r_mmod_Solvation_Energy-OPLS-2005>
-406.950225830078

> <b_mmod_Minimization_Converged-OPLS-2005>
0

> <r_mmod_RMS_Derivative-OPLS-2005>
3.18791890144348

$$$$
95
                    3D
 Structure written by MMmdl.
173182  0  0  1  0            999 V2000
  -30.6665  -14.5221   20.5272 C   0  0  0  0  0  0
  -30.4210  -12.3433   19.3994 C   0  0  0  0  0  0
  -29.4721  -12.4566   18.1907 C   0  0  0  0  0  0
  -28.0175  -12.2605   18.6490 C   0  0  0  0  0  0
  -27.6410  -13.1819   19.8383 C   0  0  2  0  0  0
  -28.6793  -13.0523   20.9684 C   0  0  0  0  0  0
  -25.2518  -13.8067   20.5646 C   0  0  0  0  0  0
  -24.1809  -13.0415   20.9239 C   0  0  0  0  0  0
  -24.6306  -11.6826   20.8750 C   0  0  0  0  0  0
  -23.8970  -10.4257   21.0415 C   0  0  0  0  0  0
  -24.3535   -9.4182   21.9193 C   0  0  0  0  0  0
  -23.6235   -8.2201   22.0730 C   0  0  0  0  0  0
  -22.4225   -8.0232   21.3515 C   0  0  0  0  0  0
  -21.9834   -9.0210   20.4632 C   0  0  0  0  0  0
  -22.7147  -10.2095   20.3064 C   0  0  0  0  0  0
  -21.6834   -6.0697   22.5279 C   0  0  0  0  0  0
  -21.4015   -6.5616   23.8216 C   0  0  0  0  0  0
  -21.3650   -5.6767   24.9178 C   0  0  0  0  0  0
  -21.6027   -4.3028   24.7223 C   0  0  0  0  0  0
  -21.8839   -3.8122   23.4349 C   0  0  0  0  0  0
  -21.9197   -4.6930   22.3404 C   0  0  0  0  0  0
  -22.7838  -13.5204   21.1926 C   0  0  0  0  0  0
  -22.1675   -4.2118   21.0984 F   0  0  0  0  0  0
  -21.5600   -3.4513   25.7738 F   0  0  0  0  0  0
  -30.0012  -13.3442   20.3960 N   0  0  0  0  0  0
  -26.2899  -12.9213   20.3205 N   0  0  0  0  0  0
  -25.9210  -11.6395   20.5710 N   0  0  0  0  0  0
  -22.0428  -12.8249   22.0465 N   0  0  0  0  0  0
  -25.4290  -15.1776   20.3965 N   0  0  0  0  0  0
  -31.8098  -14.6961   20.0981 O   0  0  0  0  0  0
  -21.6604   -6.8826   21.4225 O   0  0  0  0  0  0
  -22.3527  -14.5537   20.6783 O   0  0  0  0  0  0
  -24.6069  -31.8739   23.2165 C   0  0  0  0  0  0
  -25.8984  -32.4868   23.8437 C   0  0  1  0  0  0
  -27.2101  -27.4615   20.1509 C   0  0  0  0  0  0
  -25.5837  -33.8669   24.2346 N   0  0  0  0  0  0
  -23.3930  -30.5029   21.5476 C   0  0  2  0  0  0
  -24.8431  -28.9791   20.0957 C   0  0  0  0  0  0
  -22.7311  -29.4769   22.4949 C   0  0  0  0  0  0
  -18.0184  -28.1227   22.8742 C   0  0  0  0  0  0
  -24.1447  -36.7303   23.2641 C   0  0  0  0  0  0
  -25.9131  -30.8623   21.3530 C   0  0  0  0  0  0
  -25.9947  -29.5026   20.6953 C   0  0  0  0  0  0
  -27.1870  -28.7543   20.7149 C   0  0  0  0  0  0
  -26.0721  -26.9700   19.4808 C   0  0  0  0  0  0
  -24.8797  -27.7178   19.4711 C   0  0  0  0  0  0
  -23.5941  -29.8311   20.1597 C   0  0  0  0  0  0
  -25.4077  -36.3130   24.0342 C   0  0  1  0  0  0
  -20.5813  -28.3691   23.1194 C   0  0  2  0  0  0
  -20.6862  -26.9520   22.5052 C   0  0  0  0  0  0
  -19.5498  -26.6386   21.5265 C   0  0  0  0  0  0
  -18.1946  -26.7591   22.2278 C   0  0  0  0  0  0
  -19.1454  -28.8812   23.2898 C   0  0  0  0  0  0
  -18.9378  -30.1522   23.8690 C   0  0  0  0  0  0
  -17.6359  -30.6627   24.0353 C   0  0  0  0  0  0
  -25.9017  -34.9499   23.5142 C   0  0  0  0  0  0
  -16.5255  -29.9071   23.6251 C   0  0  0  0  0  0
  -16.7163  -28.6357   23.0547 C   0  0  0  0  0  0
  -26.4467  -31.6666   25.0737 C   0  0  0  0  0  0
  -25.3765  -31.3704   26.1501 C   0  0  0  0  0  0
  -27.0314  -30.3156   24.6066 C   0  0  0  0  0  0
  -27.6044  -32.4422   25.7447 C   0  0  0  0  0  0
  -27.5561  -37.1810   24.8468 C   0  0  0  0  0  0
  -21.4040  -29.3180   22.3725 N   0  0  0  0  0  0
  -26.4272  -37.3808   23.9417 N   0  0  0  0  0  0
  -24.6564  -31.0922   22.1012 N   0  0  0  0  0  0
  -23.4066  -28.8317   23.2994 O   0  0  0  0  0  0
  -28.2626  -26.6174   20.3856 O   0  0  0  0  0  0
  -26.5617  -34.8936   22.4720 O   0  0  0  0  0  0
  -23.5271  -32.1451   23.7563 O   0  0  0  0  0  0
  -26.9613  -17.8300   23.4880 C   0  0  0  0  0  0
  -26.1662  -18.7968   22.8418 C   0  0  0  0  0  0
  -28.0073  -17.1595   21.3656 C   0  0  0  0  0  0
  -27.1399  -18.0799   20.7125 C   0  0  0  0  0  0
  -27.8611  -17.0081   22.7787 C   0  0  0  0  0  0
  -26.2164  -18.8759   21.4313 C   0  0  0  0  0  0
  -26.2571  -21.8995   24.5916 C   0  0  0  0  0  0
  -26.5503  -22.7174   22.1547 C   0  0  0  0  0  0
  -27.6670  -23.7685   22.0161 C   0  0  0  0  0  0
  -25.4213  -24.2869   23.8456 C   0  0  0  0  0  0
  -25.7152  -22.8065   23.4538 C   0  0  2  0  0  0
  -27.1601  -25.2043   22.2005 C   0  0  1  0  0  0
  -26.5790  -25.3089   23.6417 C   0  0  1  0  0  0
  -26.0594  -26.7221   23.9553 C   0  0  0  0  0  0
  -25.2625  -19.7090   23.6791 C   0  0  0  0  0  0
  -29.0962  -16.4888   20.4940 C   0  0  0  0  0  0
  -28.2889  -26.2241   21.7877 C   0  0  0  0  0  0
  -25.9934  -20.5742   24.6230 N   0  0  0  0  0  0
  -30.0118  -15.5289   21.1327 N   0  0  0  0  0  0
  -26.9079  -22.3986   25.5084 O   0  0  0  0  0  0
  -27.2243  -18.2335   19.3639 F   0  0  0  0  0  0
  -28.7713  -15.8921   23.7412 Cl  0  0  0  0  0  0
  -25.1736  -19.9511   20.5603 Cl  0  0  0  0  0  0
  -31.4493  -12.4863   19.0650 H   0  0  0  0  0  0
  -30.3902  -11.3437   19.8378 H   0  0  0  0  0  0
  -29.7275  -11.6985   17.4450 H   0  0  0  0  0  0
  -29.5795  -13.4218   17.6960 H   0  0  0  0  0  0
  -27.9260  -11.2214   18.9755 H   0  0  0  0  0  0
  -27.3270  -12.3681   17.8131 H   0  0  0  0  0  0
  -27.6642  -14.2051   19.4688 H   0  0  0  0  0  0
  -28.6676  -12.0529   21.4021 H   0  0  0  0  0  0
  -28.4094  -13.7414   21.7723 H   0  0  0  0  0  0
  -25.2648   -9.5658   22.4797 H   0  0  0  0  0  0
  -23.9925   -7.4563   22.7430 H   0  0  0  0  0  0
  -21.0743   -8.8720   19.8938 H   0  0  0  0  0  0
  -22.3577  -10.9634   19.6185 H   0  0  0  0  0  0
  -21.2046   -7.6118   23.9723 H   0  0  0  0  0  0
  -21.1432   -6.0477   25.9071 H   0  0  0  0  0  0
  -22.0634   -2.7575   23.2861 H   0  0  0  0  0  0
  -22.3973  -11.9893   22.4906 H   0  0  0  0  0  0
  -21.1063  -13.1337   22.2655 H   0  0  0  0  0  0
  -24.6598  -15.8341   20.4802 H   0  0  0  0  0  0
  -26.2610  -15.5807   19.9919 H   0  0  0  0  0  0
  -26.7043  -32.5630   23.1192 H   0  0  0  0  0  0
  -24.9900  -33.9835   25.0432 H   0  0  0  0  0  0
  -22.6857  -31.3219   21.4091 H   0  0  0  0  0  0
  -23.3720  -35.9632   23.3334 H   0  0  0  0  0  0
  -24.3512  -36.8903   22.2057 H   0  0  0  0  0  0
  -23.7209  -37.6514   23.6636 H   0  0  0  0  0  0
  -26.0095  -31.6361   20.5878 H   0  0  0  0  0  0
  -26.8086  -30.9222   21.9624 H   0  0  0  0  0  0
  -28.0625  -29.1354   21.2215 H   0  0  0  0  0  0
  -26.0823  -25.9782   19.0508 H   0  0  0  0  0  0
  -23.9962  -27.3184   18.9885 H   0  0  0  0  0  0
  -23.6750  -30.5978   19.3872 H   0  0  0  0  0  0
  -22.7200  -29.2367   19.8842 H   0  0  0  0  0  0
  -25.1252  -36.1977   25.0848 H   0  0  0  0  0  0
  -21.0000  -28.3147   24.1280 H   0  0  0  0  0  0
  -20.6410  -26.2250   23.3156 H   0  0  0  0  0  0
  -21.6548  -26.7888   22.0289 H   0  0  0  0  0  0
  -19.6698  -25.6431   21.1007 H   0  0  0  0  0  0
  -19.5900  -27.3412   20.6955 H   0  0  0  0  0  0
  -17.3894  -26.5599   21.5219 H   0  0  0  0  0  0
  -18.1065  -25.9948   23.0061 H   0  0  0  0  0  0
  -19.7871  -30.7444   24.1825 H   0  0  0  0  0  0
  -17.4934  -31.6464   24.4618 H   0  0  0  0  0  0
  -15.5239  -30.3048   23.7439 H   0  0  0  0  0  0
  -15.8540  -28.0567   22.7442 H   0  0  0  0  0  0
  -24.5877  -30.7128   25.7784 H   0  0  0  0  0  0
  -24.9002  -32.2865   26.5048 H   0  0  0  0  0  0
  -25.8163  -30.8754   27.0176 H   0  0  0  0  0  0
  -26.2720  -29.6948   24.1299 H   0  0  0  0  0  0
  -27.4301  -29.7449   25.4469 H   0  0  0  0  0  0
  -27.8533  -30.4483   23.9008 H   0  0  0  0  0  0
  -27.2617  -33.3664   26.2114 H   0  0  0  0  0  0
  -28.3758  -32.7118   25.0208 H   0  0  0  0  0  0
  -28.0830  -31.8521   26.5272 H   0  0  0  0  0  0
  -28.2610  -38.0071   24.7476 H   0  0  0  0  0  0
  -28.1027  -36.2617   24.6319 H   0  0  0  0  0  0
  -27.2280  -37.1497   25.8871 H   0  0  0  0  0  0
  -20.9164  -29.9037   21.7089 H   0  0  0  0  0  0
  -26.0162  -38.2872   24.1473 H   0  0  0  0  0  0
  -26.9056  -17.7136   24.5623 H   0  0  0  0  0  0
  -27.0090  -21.7322   22.0787 H   0  0  0  0  0  0
  -25.8740  -22.8078   21.3061 H   0  0  0  0  0  0
  -28.1208  -23.6751   21.0294 H   0  0  0  0  0  0
  -28.4607  -23.5739   22.7405 H   0  0  0  0  0  0
  -24.5706  -24.6206   23.2481 H   0  0  0  0  0  0
  -25.0611  -24.3484   24.8740 H   0  0  0  0  0  0
  -24.7285  -22.4043   23.2339 H   0  0  0  0  0  0
  -26.3095  -25.3576   21.5364 H   0  0  0  0  0  0
  -27.3690  -25.0847   24.3605 H   0  0  0  0  0  0
  -25.4091  -27.0920   23.1619 H   0  0  0  0  0  0
  -26.8799  -27.4249   24.0845 H   0  0  0  0  0  0
  -25.4861  -26.7444   24.8837 H   0  0  0  0  0  0
  -24.6557  -19.0368   24.2858 H   0  0  0  0  0  0
  -24.5352  -20.2539   23.0808 H   0  0  0  0  0  0
  -29.7243  -17.3282   20.1883 H   0  0  0  0  0  0
  -28.6784  -16.1125   19.5587 H   0  0  0  0  0  0
  -29.2654  -25.8043   22.0095 H   0  0  0  0  0  0
  -28.2561  -27.1155   22.4142 H   0  0  0  0  0  0
  -26.3312  -20.0940   25.4487 H   0  0  0  0  0  0
  -30.6566  -16.0719   21.6829 H   0  0  0  0  0  0
  1 25  1  0  0  0
  1 30  2  0  0  0
  1 89  1  0  0  0
  2  3  1  0  0  0
  2 25  1  0  0  0
  2 94  1  0  0  0
  2 95  1  0  0  0
  3  4  1  0  0  0
  3 96  1  0  0  0
  3 97  1  0  0  0
  4  5  1  0  0  0
  4 98  1  0  0  0
  4 99  1  0  0  0
  5  6  1  0  0  0
  5 26  1  0  0  0
  5100  1  0  0  0
  6 25  1  0  0  0
  6101  1  0  0  0
  6102  1  0  0  0
  7  8  2  0  0  0
  7 26  1  0  0  0
  7 29  1  0  0  0
  8  9  1  0  0  0
  8 22  1  0  0  0
  9 10  1  0  0  0
  9 27  2  0  0  0
 10 11  2  0  0  0
 10 15  1  0  0  0
 11 12  1  0  0  0
 11103  1  0  0  0
 12 13  2  0  0  0
 12104  1  0  0  0
 13 14  1  0  0  0
 13 31  1  0  0  0
 14 15  2  0  0  0
 14105  1  0  0  0
 15106  1  0  0  0
 16 17  2  0  0  0
 16 21  1  0  0  0
 16 31  1  0  0  0
 17 18  1  0  0  0
 17107  1  0  0  0
 18 19  2  0  0  0
 18108  1  0  0  0
 19 20  1  0  0  0
 19 24  1  0  0  0
 20 21  2  0  0  0
 20109  1  0  0  0
 21 23  1  0  0  0
 22 28  1  0  0  0
 22 32  2  0  0  0
 26 27  1  0  0  0
 28110  1  0  0  0
 28111  1  0  0  0
 29112  1  0  0  0
 29113  1  0  0  0
 33 34  1  0  0  0
 33 66  1  0  0  0
 33 70  2  0  0  0
 34 36  1  0  0  0
 34 59  1  0  0  0
 34114  1  0  0  0
 35 44  2  0  0  0
 35 45  1  0  0  0
 35 68  1  0  0  0
 36 56  1  0  0  0
 36115  1  0  0  0
 37 39  1  0  0  0
 37 47  1  0  0  0
 37 66  1  0  0  0
 37116  1  0  0  0
 38 43  2  0  0  0
 38 46  1  0  0  0
 38 47  1  0  0  0
 39 64  1  0  0  0
 39 67  2  0  0  0
 40 52  1  0  0  0
 40 53  2  0  0  0
 40 58  1  0  0  0
 41117  1  0  0  0
 41118  1  0  0  0
 41119  1  0  0  0
 41 48  1  0  0  0
 42 43  1  0  0  0
 42 66  1  0  0  0
 42120  1  0  0  0
 42121  1  0  0  0
 43 44  1  0  0  0
 44122  1  0  0  0
 45 46  2  0  0  0
 45123  1  0  0  0
 46124  1  0  0  0
 47125  1  0  0  0
 47126  1  0  0  0
 48 56  1  0  0  0
 48 65  1  0  0  0
 48127  1  0  0  0
 49 50  1  0  0  0
 49 53  1  0  0  0
 49 64  1  0  0  0
 49128  1  0  0  0
 50 51  1  0  0  0
 50129  1  0  0  0
 50130  1  0  0  0
 51 52  1  0  0  0
 51131  1  0  0  0
 51132  1  0  0  0
 52133  1  0  0  0
 52134  1  0  0  0
 53 54  1  0  0  0
 54 55  2  0  0  0
 54135  1  0  0  0
 55 57  1  0  0  0
 55136  1  0  0  0
 56 69  2  0  0  0
 57 58  2  0  0  0
 57137  1  0  0  0
 58138  1  0  0  0
 59 60  1  0  0  0
 59 61  1  0  0  0
 59 62  1  0  0  0
 60139  1  0  0  0
 60140  1  0  0  0
 60141  1  0  0  0
 61142  1  0  0  0
 61143  1  0  0  0
 61144  1  0  0  0
 62145  1  0  0  0
 62146  1  0  0  0
 62147  1  0  0  0
 63 65  1  0  0  0
 63148  1  0  0  0
 63149  1  0  0  0
 63150  1  0  0  0
 64151  1  0  0  0
 65152  1  0  0  0
 68 87  1  0  0  0
 71 72  2  0  0  0
 71 75  1  0  0  0
 71153  1  0  0  0
 72 76  1  0  0  0
 72 85  1  0  0  0
 73 74  1  0  0  0
 73 75  2  0  0  0
 73 86  1  0  0  0
 74 76  2  0  0  0
 74 91  1  0  0  0
 75 92  1  0  0  0
 76 93  1  0  0  0
 77 88  1  0  0  0
 77 90  2  0  0  0
 77 81  1  0  0  0
 78 79  1  0  0  0
 78 81  1  0  0  0
 78154  1  0  0  0
 78155  1  0  0  0
 79 82  1  0  0  0
 79156  1  0  0  0
 79157  1  0  0  0
 80 81  1  0  0  0
 80 83  1  0  0  0
 80158  1  0  0  0
 80159  1  0  0  0
 81160  1  0  0  0
 82 83  1  0  0  0
 82 87  1  0  0  0
 82161  1  0  0  0
 83 84  1  0  0  0
 83162  1  0  0  0
 84163  1  0  0  0
 84164  1  0  0  0
 84165  1  0  0  0
 85 88  1  0  0  0
 85166  1  0  0  0
 85167  1  0  0  0
 86 89  1  0  0  0
 86168  1  0  0  0
 86169  1  0  0  0
 87170  1  0  0  0
 87171  1  0  0  0
 88172  1  0  0  0
 89173  1  0  0  0
M  ISO  4   1 100  68 101  87 101  89 100
M  END
> <chiral flag>
0

> <version>
0

> <s_m_source_file>
/data/baiqing/PycharmProjects/Reinvent-master-3.2/result/LINK_invent/BTK/process_docking_weight1_custom_sum_contain_oxygen_bond_distance_aromatic_linkinvent_7_9_3/rearranged_h_0023.sdf

> <i_m_source_file_index>
95

> <r_mmod_Potential_Energy-OPLS-2005>
49.1083717346191

> <r_mmod_Stretch_Energy-OPLS-2005>
47.1840591430664

> <r_mmod_Bend_Energy-OPLS-2005>
145.069046020508

> <r_mmod_Torsional_Energy-OPLS-2005>
333.829132080078

> <r_mmod_Improper_Torsional_Energy-OPLS-2005>
8.42467403411865

> <r_mmod_Van_der_Waal_Energy-OPLS-2005>
138.620635986328

> <r_mmod_Electrostatic_Energy-OPLS-2005>
-438.300445556641

> <r_mmod_Solvation_Energy-OPLS-2005>
-223.407867431641

> <b_mmod_Minimization_Converged-OPLS-2005>
0

> <r_mmod_RMS_Derivative-OPLS-2005>
8.20323944091797

$$$$
